0:0:0
     RDKit          3D

109118  0  0  1  0  0  0  0  0999 V2000
  -34.2570  -19.2960   21.7500 C   0  0  0  0  0  2  0  0  0  0  0  0
  -33.0310  -18.3790   21.7670 C   0  0  0  0  0  2  0  0  0  0  0  0
  -32.8940  -21.1680   22.6520 C   0  0  0  0  0  2  0  0  0  0  0  0
  -34.1680  -20.3370   22.8780 C   0  0  0  0  0  3  0  0  0  0  0  0
  -31.6680  -19.1170   21.6630 C   0  0  0  0  0  3  0  0  0  0  0  0
  -31.5780  -20.3440   22.6260 C   0  0  0  0  0  3  0  0  0  0  0  0
  -30.5640  -18.0490   21.9170 C   0  0  0  0  0  2  0  0  0  0  0  0
  -30.1850  -17.2380   20.6490 C   0  0  0  0  0  3  0  0  0  0  0  0
  -30.8850  -14.7940   20.5450 C   0  0  0  0  0  0  0  0  0  0  0  0
  -30.6940  -12.6000   19.4380 C   0  0  0  0  0  2  0  0  0  0  0  0
  -29.7890  -12.7840   18.2000 C   0  0  0  0  0  2  0  0  0  0  0  0
  -28.3000  -12.6410   18.5810 C   0  0  0  0  0  2  0  0  0  0  0  0
  -27.9150  -13.4860   19.8250 C   0  0  0  0  0  3  0  0  0  0  0  0
  -28.9330  -13.2640   20.9690 C   0  0  0  0  0  2  0  0  0  0  0  0
  -30.2720  -13.5830   20.4470 N   0  0  0  0  0  0  0  0  0  0  0  0
  -32.0250  -15.0050   20.1190 O   0  0  0  0  0  0  0  0  0  0  0  0
  -30.0650  -15.7930   20.9360 N   0  0  0  0  0  0  0  0  0  0  0  0
  -29.1810  -15.4830   21.3120 H   0  0  0  0  0  0  0  0  0  0  0  0
  -25.4960  -14.1010   20.4610 C   0  0  0  0  0  0  0  0  0  0  0  0
  -24.4160  -13.3340   20.7970 C   0  0  0  0  0  0  0  0  0  0  0  0
  -24.8780  -11.9830   20.7940 C   0  0  0  0  0  0  0  0  0  0  0  0
  -26.5470  -13.2190   20.2640 N   0  0  0  0  0  0  0  0  0  0  0  0
  -26.1760  -11.9390   20.5220 N   0  0  0  0  0  0  0  0  0  0  0  0
  -24.1480  -10.7230   20.9760 C   0  0  0  0  0  0  0  0  0  0  0  0
  -24.5190   -9.7920   21.9720 C   0  0  0  0  0  3  0  0  0  0  0  0
  -23.7910   -8.5960   22.1370 C   0  0  0  0  0  3  0  0  0  0  0  0
  -22.6770   -8.3220   21.3070 C   0  0  0  0  0  0  0  0  0  0  0  0
  -22.3270   -9.2420   20.3040 C   0  0  0  0  0  3  0  0  0  0  0  0
  -23.0570  -10.4320   20.1360 C   0  0  0  0  0  3  0  0  0  0  0  0
  -21.9260   -7.1750   21.3770 O   0  0  0  0  0  0  0  0  0  0  0  0
  -21.7660   -6.4910   22.5550 C   0  0  0  0  0  0  0  0  0  0  0  0
  -21.2070   -7.0980   23.7000 C   0  0  0  0  0  3  0  0  0  0  0  0
  -20.9940   -6.3400   24.8680 C   0  0  0  0  0  3  0  0  0  0  0  0
  -21.3340   -4.9750   24.8930 C   0  0  0  0  0  0  0  0  0  0  0  0
  -21.8850   -4.3660   23.7520 C   0  0  0  0  0  3  0  0  0  0  0  0
  -22.1000   -5.1210   22.5870 C   0  0  0  0  0  0  0  0  0  0  0  0
  -22.6120   -4.5250   21.4830 F   0  0  0  0  0  0  0  0  0  0  0  0
  -21.1240   -4.2420   26.0120 F   0  0  0  0  0  0  0  0  0  0  0  0
  -23.0130  -13.8170   21.0290 C   0  0  0  0  0  0  0  0  0  0  0  0
  -22.2670  -13.1440   21.8980 N   0  0  0  0  0  0  0  0  0  0  0  0
  -22.5860  -14.8270   20.4730 O   0  0  0  0  0  0  0  0  0  0  0  0
  -22.6230  -12.3250   22.3690 H   0  0  0  0  0  0  0  0  0  0  0  0
  -21.3250  -13.4540   22.0930 H   0  0  0  0  0  0  0  0  0  0  0  0
  -25.6670  -15.4730   20.2960 N   0  0  0  0  0  0  0  0  0  0  0  0
  -24.9100  -16.1120   20.5080 H   0  0  0  0  0  0  0  0  0  0  0  0
  -26.5720  -15.9110   20.2100 H   0  0  0  0  0  0  0  0  0  0  0  0
  -28.8350  -17.7750   20.0860 C   0  0  0  0  0  2  0  0  0  0  0  0
  -29.3050  -20.4530   17.4580 C   0  0  0  0  0  2  0  0  0  0  0  0
  -29.9270  -19.4190   18.4130 C   0  0  0  0  0  2  0  0  0  0  0  0
  -28.0080  -19.8180   16.9540 C   0  0  0  0  0  2  0  0  0  0  0  0
  -28.8690  -18.3160   18.6390 C   0  0  0  0  0  3  0  0  0  0  0  0
  -27.5430  -18.9230   18.1090 C   0  0  0  0  0  3  0  0  0  0  0  0
  -26.8130  -19.7170   19.1200 N   0  0  0  0  0  4  0  0  0  0  0  0
  -27.3850  -20.4490   19.5000 H   0  0  0  0  0  0  0  0  0  0  0  0
  -26.4920  -19.1400   19.8770 H   0  0  0  0  0  0  0  0  0  0  0  0
  -26.0030  -20.1410   18.7020 H   0  0  0  0  0  0  0  0  0  0  0  0
  -30.3340  -21.2730   22.3880 C   0  0  0  0  0  2  0  0  0  0  0  0
  -30.5500  -22.5420   21.5070 C   0  0  0  0  0  2  0  0  0  0  0  0
  -29.3270  -23.3650   21.3320 N   0  0  0  0  0  4  0  0  0  0  0  0
  -28.9160  -23.5210   22.2400 H   0  0  0  0  0  0  0  0  0  0  0  0
  -28.6620  -22.8430   20.7820 H   0  0  0  0  0  0  0  0  0  0  0  0
  -29.5760  -24.7000   20.7090 C   0  0  0  0  0  2  0  0  0  0  0  0
  -28.2740  -25.4020   20.2630 C   0  0  0  0  0  2  0  0  0  0  0  0
  -28.4440  -26.8090   19.9990 O   0  0  0  0  0  0  0  0  0  0  0  0
  -24.5530  -31.8610   23.1760 C   0  0  0  0  0  0  0  0  0  0  0  0
  -27.2710  -27.5400   19.9770 C   0  0  0  0  0  0  0  0  0  0  0  0
  -23.3710  -30.4700   21.5090 C   0  0  0  0  0  3  0  0  0  0  0  0
  -24.8490  -29.0060   20.0340 C   0  0  0  0  0  0  0  0  0  0  0  0
  -25.8880  -30.8940   21.3040 C   0  0  0  0  0  2  0  0  0  0  0  0
  -25.9990  -29.5400   20.6260 C   0  0  0  0  0  0  0  0  0  0  0  0
  -27.2150  -28.8150   20.5910 C   0  0  0  0  0  3  0  0  0  0  0  0
  -26.0990  -27.0290   19.3710 C   0  0  0  0  0  3  0  0  0  0  0  0
  -24.8920  -27.7510   19.4020 C   0  0  0  0  0  3  0  0  0  0  0  0
  -23.5900  -29.8400   20.1070 C   0  0  0  0  0  2  0  0  0  0  0  0
  -24.6210  -31.0880   22.0550 N   0  0  0  0  0  0  0  0  0  0  0  0
  -23.4700  -32.0910   23.7320 O   0  0  0  0  0  0  0  0  0  0  0  0
  -22.7510  -29.4060   22.4440 C   0  0  0  0  0  0  0  0  0  0  0  0
  -21.4340  -29.1750   22.3100 N   0  0  0  0  0  0  0  0  0  0  0  0
  -23.4540  -28.7930   23.2520 O   0  0  0  0  0  0  0  0  0  0  0  0
  -20.9260  -29.7370   21.6420 H   0  0  0  0  0  0  0  0  0  0  0  0
  -18.1010  -27.8490   22.7480 C   0  0  0  0  0  0  0  0  0  0  0  0
  -20.6460  -28.1930   23.0520 C   0  0  0  0  0  3  0  0  0  0  0  0
  -20.8040  -26.7750   22.4570 C   0  0  0  0  0  2  0  0  0  0  0  0
  -19.7240  -26.4250   21.4270 C   0  0  0  0  0  2  0  0  0  0  0  0
  -18.3310  -26.5120   22.0610 C   0  0  0  0  0  2  0  0  0  0  0  0
  -19.1890  -28.6430   23.2000 C   0  0  0  0  0  0  0  0  0  0  0  0
  -18.9240  -29.8890   23.8060 C   0  0  0  0  0  3  0  0  0  0  0  0
  -17.6020  -30.3440   23.9700 C   0  0  0  0  0  3  0  0  0  0  0  0
  -16.5270  -29.5450   23.5410 C   0  0  0  0  0  3  0  0  0  0  0  0
  -16.7770  -28.3030   22.9310 C   0  0  0  0  0  3  0  0  0  0  0  0
  -25.8250  -32.5080   23.7970 C   0  0  0  0  0  3  0  0  0  0  0  0
  -25.4960  -33.8970   24.1420 N   0  0  0  0  0  0  0  0  0  0  0  0
  -25.8320  -34.9620   23.4050 C   0  0  0  0  0  0  0  0  0  0  0  0
  -26.5270  -34.8830   22.3880 O   0  0  0  0  0  0  0  0  0  0  0  0
  -24.8780  -34.0280   24.9300 H   0  0  0  0  0  0  0  0  0  0  0  0
  -24.1140  -36.7540   23.0160 C   0  0  0  0  0  1  0  0  0  0  0  0
  -25.3180  -36.3370   23.8730 C   0  0  0  0  0  3  0  0  0  0  0  0
  -27.4060  -37.2150   24.8210 C   0  0  0  0  0  1  0  0  0  0  0  0
  -26.3500  -37.3970   23.8310 N   0  0  0  0  0  0  0  0  0  0  0  0
  -25.9290  -38.3100   23.9790 H   0  0  0  0  0  0  0  0  0  0  0  0
  -26.3640  -31.7320   25.0620 C   0  0  1  0  0  0  0  0  0  0  0  0
  -25.2740  -31.4370   26.1190 C   0  0  0  0  0  1  0  0  0  0  0  0
  -26.9990  -30.3850   24.6400 C   0  0  0  0  0  1  0  0  0  0  0  0
  -27.4810  -32.5560   25.7440 C   0  0  0  0  0  1  0  0  0  0  0  0
  -35.4110  -21.2570   22.9360 C   0  0  0  0  0  2  0  0  0  0  0  0
  -36.6520  -20.5490   23.3030 N   0  0  0  0  0  4  0  0  0  0  0  0
  -36.5640  -20.0900   24.1920 H   0  0  0  0  0  0  0  0  0  0  0  0
  -37.4020  -21.2130   23.3720 H   0  0  0  0  0  0  0  0  0  0  0  0
  -36.9080  -19.8700   22.6100 H   0  0  0  0  0  0  0  0  0  0  0  0
  1  2  1  0
  1  4  1  0
  3  4  1  0
  4105  1  0
  5  2  1  0
  5  7  1  0
  5  6  1  0
  6 57  1  0
  6  3  1  0
  8 47  1  0
  8 17  1  0
  8  7  1  0
  9 17  1  0
 10 15  1  0
 11 12  1  0
 11 10  1  0
 13 12  1  0
 13 22  1  0
 13 14  1  0
 15  9  1  0
 15 14  1  0
 16  9  2  0
 17 18  1  0
 19 20  2  0
 20 39  1  0
 21 20  1  0
 21 24  1  0
 22 19  1  0
 22 23  1  0
 23 21  2  0
 24 25  1  0
 25 26  2  0
 27 30  1  0
 27 26  1  0
 28 27  2  0
 29 28  1  0
 29 24  2  0
 30 31  1  0
 31 36  2  0
 31 32  1  0
 32 33  2  0
 33 34  1  0
 34 38  1  0
 35 34  2  0
 36 35  1  0
 37 36  1  0
 39 40  1  0
 40 43  1  0
 40 42  1  0
 41 39  2  0
 44 19  1  0
 44 45  1  0
 46 44  1  0
 48 49  1  0
 49 51  1  0
 50 48  1  0
 50 52  1  0
 51 47  1  0
 52 51  1  0
 52 53  1  0
 53 54  1  0
 53 55  1  0
 56 53  1  0
 58 57  1  0
 59 58  1  0
 59 60  1  0
 61 59  1  0
 62 59  1  0
 63 62  1  0
 64 63  1  0
 65 76  2  0
 66 64  1  0
 66 71  1  0
 67 75  1  0
 67 77  1  0
 68 74  1  0
 68 70  1  0
 69 75  1  0
 70 69  1  0
 71 70  2  0
 72 73  1  0
 72 66  2  0
 73 68  2  0
 74 67  1  0
 75 65  1  0
 77 79  2  0
 78 77  1  0
 80 78  1  0
 81 90  2  0
 81 86  1  0
 82 78  1  0
 82 86  1  0
 83 82  1  0
 84 85  1  0
 84 83  1  0
 85 81  1  0
 86 87  2  0
 87 88  1  0
 89 88  2  0
 90 89  1  0
 91 65  1  0
 91 92  1  0
 91101  1  0
 92 95  1  0
 93 97  1  0
 93 92  1  0
 94 93  2  0
 97 96  1  0
 99 97  1  0
 99100  1  0
 99 98  1  0
101104  1  1
101102  1  0
103101  1  0
105106  1  0
106108  1  0
106107  1  0
109106  1  0
M  ISO  4   9 100  17 100  63 101  64 101
M  END
>  <TORSDO>  (1) 
F 28

>  <SCORE>  (1) 
-11.428

>  <name>  (1) 
0

>  <ligand_id>  (1) 
0

>  <original_smiles>  (1) 
[H]c1c([H])c([H])c2c(c1[H])C([H])([H])C([H])([H])C([H])([H])C2([H])N([H])C(=O)C1([H])N(C(=O)C([H])(N([H])C(=O)C([H])(N([H])C([H])([H])[H])C([H])([H])[H])C(C([H])([H])[H])(C([H])([H])[H])C([H])([H])[H])C([H])([H])c2c([H])c(OC([H])([H])C([H])([H])[N+]([H])([H])C([H])([H])C([H])([H])C3([H])C([H])([H])C([H])(C([H])([H])[N+]([H])([H])[H])C([H])([H])C([H])([H])C3([H])C([H])([H])C([H])(N([H])C(=O)N3C([H])([H])C([H])([H])C([H])([H])C([H])(n4nc(-c5c([H])c([H])c(Oc6c([H])c([H])c(F)c([H])c6F)c([H])c5[H])c(C(=O)N([H])[H])c4N([H])[H])C3([H])[H])C([H])([H])C3([H])C([H])([H])C([H])([H])C([H])([H])C3([H])[N+]([H])([H])[H])c([H])c([H])c2C1([H])[H]

>  <smiles>  (1) 
[H]c1c([H])c([H])c2c(c1[H])C([H])([H])C([H])([H])C([H])([H])C2([H])N([H])C(=O)C1([H])N(C(=O)C([H])(N([H])C(=O)C([H])(N([H])C([H])([H])[H])C([H])([H])[H])C(C([H])([H])[H])(C([H])([H])[H])C([H])([H])[H])C([H])([H])c2c([H])c(OC([H])([H])C([H])([H])[N+]([H])([H])C([H])([H])C([H])([H])C3([H])C([H])([H])C([H])(C([H])([H])[N+]([H])([H])[H])C([H])([H])C([H])([H])C3([H])C([H])([H])C([H])(N([H])C(=O)N3C([H])([H])C([H])([H])C([H])([H])C([H])(n4nc(-c5c([H])c([H])c(Oc6c([H])c([H])c(F)c([H])c6F)c([H])c5[H])c(C(=O)N([H])[H])c4N([H])[H])C3([H])[H])C([H])([H])C3([H])C([H])([H])C([H])([H])C([H])([H])C3([H])[N+]([H])([H])[H])c([H])c([H])c2C1([H])[H]

$$$$
1:0:0
     RDKit          3D

102109  0  0  1  0  0  0  0  0999 V2000
  -26.2940  -20.9020   20.8900 C   0  0  0  0  0  2  0  0  0  0  0  0
  -25.4460  -21.8870   19.9410 C   0  0  0  0  0  2  0  0  0  0  0  0
  -24.5930  -23.0420   20.6580 C   0  0  0  0  0  2  0  0  0  0  0  0
  -23.1490  -23.5550   20.1500 C   0  0  0  0  0  2  0  0  0  0  0  0
  -23.1270  -24.6020   19.0510 N   0  0  0  0  0  4  0  0  0  0  0  0
  -23.4960  -24.1390   18.2340 H   0  0  0  0  0  0  0  0  0  0  0  0
  -23.8090  -25.2980   19.3050 H   0  0  0  0  0  0  0  0  0  0  0  0
  -21.8620  -25.3840   18.5760 C   0  0  0  0  0  3  0  0  0  0  0  0
  -21.9430  -26.5870   17.3320 C   0  0  1  0  0  0  0  0  0  0  0  0
  -24.3560  -26.5870   15.3310 C   0  0  0  0  0 15  0  0  0  0  0  0
  -26.2030  -25.8270   15.7740 O   0  0  0  0  0  1  0  0  0  0  0  0
  -27.4540  -28.0430   20.4190 C   0  0  0  0  0  0  0  0  0  0  0  0
  -27.7250  -25.6290   15.5590 C   0  0  0  0  0  3  0  0  0  0  0  0
  -26.5530  -28.4830   18.2160 C   0  0  0  0  0  3  0  0  0  0  0  0
  -27.9880  -27.9940   16.1200 C   0  0  0  0  0  3  0  0  0  0  0  0
  -28.9330  -27.6700   18.4260 C   0  0  0  0  0  2  0  0  0  0  0  0
  -28.6950  -27.1750   17.0090 C   0  0  0  0  0  3  0  0  0  0  0  0
  -28.7030  -25.8280   16.6220 C   0  0  0  0  0  2  0  0  0  0  0  0
  -28.1670  -26.2630   14.4250 C   0  0  0  0  0  2  0  0  0  0  0  0
  -27.8780  -27.5930   14.7540 C   0  0  0  0  0  2  0  0  0  0  0  0
  -27.0260  -28.9340   16.7730 C   0  0  0  0  0  2  0  0  0  0  0  0
  -27.6840  -28.1080   19.0790 N   0  0  0  0  0  0  0  0  0  0  0  0
  -26.3660  -28.3830   20.9150 O   0  0  0  0  0  0  0  0  0  0  0  0
  -25.5740  -27.3000   18.3330 C   0  0  0  0  0  0  0  0  0  0  0  0
  -24.4190  -27.5490   18.8600 N   0  0  0  0  0  0  0  0  0  0  0  0
  -25.8230  -26.1480   17.9920 O   0  0  0  0  0  0  0  0  0  0  0  0
  -24.2150  -28.4670   19.2370 H   0  0  0  0  0  0  0  0  0  0  0  0
  -21.2890  -27.9760   20.1950 C   0  0  0  0  0  0  0  0  0  0  0  0
  -23.3100  -26.6630   18.6250 C   0  0  2  0  0  0  0  0  0  0  0  0
  -22.4220  -26.4130   16.7470 C   0  0  0  0  0  1  0  0  0  0  0  0
  -20.5950  -27.9010   16.9170 C   0  0  0  0  0  2  0  0  0  0  0  0
  -20.4670  -28.5850   18.7510 C   0  0  0  0  0  2  0  0  0  0  0  0
  -22.5690  -27.2130   20.0880 C   0  0  0  0  0  0  0  0  0  0  0  0
  -23.2010  -26.8130   21.3230 C   0  0  0  0  0  3  0  0  0  0  0  0
  -22.6390  -26.9560   22.6140 C   0  0  0  0  0  3  0  0  0  0  0  0
  -21.3320  -27.4460   22.7150 C   0  0  0  0  0  3  0  0  0  0  0  0
  -20.6790  -27.9200   21.5320 C   0  0  0  0  0  3  0  0  0  0  0  0
  -28.5630  -27.5670   21.3790 C   0  0  0  0  0  3  0  0  0  0  0  0
  -28.6320  -28.5870   22.4260 N   0  0  0  0  0  0  0  0  0  0  0  0
  -29.5270  -29.5790   22.4430 C   0  0  0  0  0  0  0  0  0  0  0  0
  -30.4490  -29.6610   21.6270 O   0  0  0  0  0  0  0  0  0  0  0  0
  -27.8730  -28.6140   23.0910 H   0  0  0  0  0  0  0  0  0  0  0  0
  -28.7530  -31.9150   22.9660 C   0  0  0  0  0  1  0  0  0  0  0  0
  -29.3810  -30.6400   23.5490 C   0  0  0  0  0  3  0  0  0  0  0  0
  -31.2030  -29.8550   24.9920 C   0  0  0  0  0  1  0  0  0  0  0  0
  -30.6620  -30.9650   24.2120 N   0  0  0  0  0  0  0  0  0  0  0  0
  -30.5510  -31.7630   24.8310 H   0  0  0  0  0  0  0  0  0  0  0  0
  -28.2870  -26.1420   21.9950 C   0  0  1  0  0  0  0  0  0  0  0  0
  -26.8760  -25.9760   22.6000 C   0  0  0  0  0  1  0  0  0  0  0  0
  -28.4730  -25.0260   20.9420 C   0  0  0  0  0  1  0  0  0  0  0  0
  -29.3250  -25.8700   23.1090 C   0  0  0  0  0  1  0  0  0  0  0  0
  -27.7760  -20.4050   20.5120 C   0  0  0  0  0  2  0  0  0  0  0  0
  -28.1670  -18.8510   20.5940 C   0  0  0  0  0  2  0  0  0  0  0  0
  -29.6630  -18.3170   20.8060 C   0  0  0  0  0  2  0  0  0  0  0  0
  -30.3660  -17.1920   19.8780 C   0  0  0  0  0  3  0  0  0  0  0  0
  -31.7630  -14.9410   20.4180 C   0  0  0  0  0  0  0  0  0  0  0  0
  -31.9480  -12.4440   20.2080 C   0  0  0  0  0  2  0  0  0  0  0  0
  -31.1700  -11.9930   18.9450 C   0  0  0  0  0  2  0  0  0  0  0  0
  -29.6510  -11.8870   19.2150 C   0  0  0  0  0  2  0  0  0  0  0  0
  -29.1030  -13.1200   19.9800 C   0  0  0  0  0  3  0  0  0  0  0  0
  -29.9740  -13.3970   21.2210 C   0  0  0  0  0  2  0  0  0  0  0  0
  -31.3280  -13.6820   20.7320 N   0  0  0  0  0  0  0  0  0  0  0  0
  -32.8880  -15.1080   19.9220 O   0  0  0  0  0  0  0  0  0  0  0  0
  -30.7990  -15.9250   20.6020 N   0  0  0  0  0  0  0  0  0  0  0  0
  -30.0470  -15.5560   21.1680 H   0  0  0  0  0  0  0  0  0  0  0  0
  -26.7400  -13.9350   20.5650 C   0  0  0  0  0  0  0  0  0  0  0  0
  -25.5860  -13.2590   20.8490 C   0  0  0  0  0  0  0  0  0  0  0  0
  -25.9200  -11.8720   20.7870 C   0  0  0  0  0  0  0  0  0  0  0  0
  -27.7050  -12.9640   20.3510 N   0  0  0  0  0  0  0  0  0  0  0  0
  -27.2120  -11.7160   20.5400 N   0  0  0  0  0  0  0  0  0  0  0  0
  -25.0700  -10.6800   20.8860 C   0  0  0  0  0  0  0  0  0  0  0  0
  -25.2400   -9.7390   21.9230 C   0  0  0  0  0  3  0  0  0  0  0  0
  -24.4000   -8.6080   22.0060 C   0  0  0  0  0  3  0  0  0  0  0  0
  -23.3770   -8.4140   21.0470 C   0  0  0  0  0  0  0  0  0  0  0  0
  -23.2280   -9.3440   20.0030 C   0  0  0  0  0  3  0  0  0  0  0  0
  -24.0680  -10.4660   19.9200 C   0  0  0  0  0  3  0  0  0  0  0  0
  -22.5280   -7.3350   21.0330 O   0  0  0  0  0  0  0  0  0  0  0  0
  -22.0600   -6.7730   22.1930 C   0  0  0  0  0  0  0  0  0  0  0  0
  -21.2950   -7.5120   23.1230 C   0  0  0  0  0  3  0  0  0  0  0  0
  -20.7730   -6.8770   24.2670 C   0  0  0  0  0  3  0  0  0  0  0  0
  -21.0080   -5.5050   24.4810 C   0  0  0  0  0  0  0  0  0  0  0  0
  -21.7670   -4.7670   23.5540 C   0  0  0  0  0  3  0  0  0  0  0  0
  -22.2890   -5.4010   22.4120 C   0  0  0  0  0  0  0  0  0  0  0  0
  -23.0000   -4.6810   21.5120 F   0  0  0  0  0  0  0  0  0  0  0  0
  -20.5010   -4.8930   25.5760 F   0  0  0  0  0  0  0  0  0  0  0  0
  -24.2300  -13.8610   21.0720 C   0  0  0  0  0  0  0  0  0  0  0  0
  -23.4020  -13.2150   21.8860 N   0  0  0  0  0  0  0  0  0  0  0  0
  -23.9150  -14.9350   20.5630 O   0  0  0  0  0  0  0  0  0  0  0  0
  -23.6670  -12.3440   22.3210 H   0  0  0  0  0  0  0  0  0  0  0  0
  -22.4890  -13.6020   22.0790 H   0  0  0  0  0  0  0  0  0  0  0  0
  -27.0400  -15.2870   20.4500 N   0  0  0  0  0  0  0  0  0  0  0  0
  -26.3240  -16.0010   20.5290 H   0  0  0  0  0  0  0  0  0  0  0  0
  -27.9410  -15.6540   20.1740 H   0  0  0  0  0  0  0  0  0  0  0  0
  -31.4710  -17.7800   18.9510 C   0  0  0  0  0  2  0  0  0  0  0  0
  -32.4920  -18.7650   19.5830 C   0  0  0  0  0  2  0  0  0  0  0  0
  -32.2810  -20.1890   19.1130 C   0  0  0  0  0  0  0  0  0  0  0  0
  -32.6030  -21.2210   19.9100 N   0  0  0  0  0  0  0  0  0  0  0  0
  -31.8110  -20.4370   17.8800 N   0  0  0  0  0  4  0  0  0  0  0  0
  -33.0030  -21.0640   20.8260 H   0  0  0  0  0  0  0  0  0  0  0  0
  -32.5100  -22.1860   19.6280 H   0  0  0  0  0  0  0  0  0  0  0  0
  -31.6160  -19.6710   17.2500 H   0  0  0  0  0  0  0  0  0  0  0  0
  -31.6750  -21.3660   17.5080 H   0  0  0  0  0  0  0  0  0  0  0  0
  2  3  1  0
  2  1  1  0
  4  3  1  0
  5  7  1  0
  5  4  1  0
  6  5  1  0
  8 29  1  0
  8  5  1  0
  9 30  1  6
  9  8  1  0
  9 29  1  0
 12 23  2  0
 13 11  1  0
 13 18  1  0
 14 24  1  0
 14 22  1  0
 15 20  1  0
 15 21  1  0
 15 17  1  0
 16 22  1  0
 17 18  1  0
 17 16  1  0
 19 20  1  0
 19 13  1  0
 21 14  1  0
 22 12  1  0
 24 25  1  0
 25 27  1  0
 26 24  2  0
 28 37  1  0
 29 25  1  1
 29 33  1  0
 31  9  1  0
 31 32  1  0
 32 28  1  0
 33 28  2  0
 33 34  1  0
 34 35  2  0
 35 36  1  0
 37 36  2  0
 38 12  1  0
 38 48  1  0
 38 39  1  0
 39 40  1  0
 39 42  1  0
 40 44  1  0
 41 40  2  0
 44 43  1  0
 44 46  1  0
 46 47  1  0
 46 45  1  0
 48 49  1  1
 48 51  1  0
 50 48  1  0
 52 53  1  0
 52  1  1  0
 53 54  1  0
 55 94  1  0
 55 64  1  0
 55 54  1  0
 56 64  1  0
 56 62  1  0
 57 62  1  0
 58 59  1  0
 58 57  1  0
 60 59  1  0
 60 69  1  0
 60 61  1  0
 62 61  1  0
 63 56  2  0
 64 65  1  0
 66 67  2  0
 67 86  1  0
 68 67  1  0
 68 71  1  0
 69 70  1  0
 69 66  1  0
 70 68  2  0
 71 72  1  0
 72 73  2  0
 74 73  1  0
 75 74  2  0
 76 75  1  0
 76 71  2  0
 77 74  1  0
 77 78  1  0
 78 83  2  0
 78 79  1  0
 79 80  2  0
 80 81  1  0
 81 85  1  0
 82 81  2  0
 83 82  1  0
 84 83  1  0
 86 87  1  0
 87 90  1  0
 87 89  1  0
 88 86  2  0
 91 92  1  0
 91 66  1  0
 93 91  1  0
 94 95  1  0
 96 95  1  0
 96 97  1  0
 97 99  1  0
 98 96  2  0
100 97  1  0
101 98  1  0
102 98  1  0
M  ISO  4  10 101  11 101  56 100  64 100
M  END
>  <TORSDO>  (2) 
F 30

>  <SCORE>  (2) 
-1.863

>  <name>  (2) 
1

>  <ligand_id>  (2) 
1

>  <original_smiles>  (2) 
[H]c1c([H])c([H])c2c(c1[H])C([H])([H])C([H])([H])C([H])([H])C2([H])N([H])C(=O)C1([H])N(C(=O)C([H])(N([H])C(=O)C([H])(N([H])C([H])([H])[H])C([H])([H])[H])C(C([H])([H])[H])(C([H])([H])[H])C([H])([H])[H])C([H])([H])c2c([H])c(OC([H])([H])C([H])([H])C([H])([H])[N+]([H])([H])C([H])([H])C([H])([H])C([H])([H])C([H])([H])C([H])([H])C([H])([H])C([H])([H])C([H])(N([H])C(=O)N3C([H])([H])C([H])([H])C([H])([H])C([H])(n4nc(-c5c([H])c([H])c(Oc6c([H])c([H])c(F)c([H])c6F)c([H])c5[H])c(C(=O)N([H])[H])c4N([H])[H])C3([H])[H])C([H])([H])C([H])([H])C(N([H])[H])=[N+]([H])[H])c([H])c([H])c2C1([H])[H]

>  <smiles>  (2) 
[H]c1c([H])c([H])c2c(c1[H])C([H])([H])C([H])([H])C([H])([H])C2([H])N([H])C(=O)C1([H])N(C(=O)C([H])(N([H])C(=O)C([H])(N([H])C([H])([H])[H])C([H])([H])[H])C(C([H])([H])[H])(C([H])([H])[H])C([H])([H])[H])C([H])([H])c2c([H])c(OC([H])([H])C([H])([H])C([H])([H])[N+]([H])([H])C([H])([H])C([H])([H])C([H])([H])C([H])([H])C([H])([H])C([H])([H])C([H])([H])C([H])(N([H])C(=O)N3C([H])([H])C([H])([H])C([H])([H])C([H])(n4nc(-c5c([H])c([H])c(Oc6c([H])c([H])c(F)c([H])c6F)c([H])c5[H])c(C(=O)N([H])[H])c4N([H])[H])C3([H])[H])C([H])([H])C([H])([H])C(N([H])[H])=[N+]([H])[H])c([H])c([H])c2C1([H])[H]

$$$$
2:0:0
     RDKit          3D

 95104  0  0  1  0  0  0  0  0999 V2000
  -29.3090  -23.9480   23.0750 C   0  0  0  0  0  2  0  0  0  0  0  0
  -29.8030  -24.9270   21.9960 C   0  0  0  0  0  2  0  0  0  0  0  0
  -27.4810  -21.3730   20.8050 C   0  0  0  0  0  2  0  0  0  0  0  0
  -28.4330  -23.7090   20.2500 C   0  0  0  0  0  2  0  0  0  0  0  0
  -28.6940  -20.4940   20.4330 C   0  0  0  0  0  2  0  0  0  0  0  0
  -30.0960  -21.7040   22.0720 C   0  0  0  0  0  2  0  0  0  0  0  0
  -28.8950  -22.5780   22.4980 C   0  0  0  0  0  3  0  0  0  0  0  0
  -27.8920  -22.7560   21.3420 C   0  0  0  0  0  3  0  0  0  0  0  0
  -28.7980  -25.0860   20.8350 C   0  0  0  0  0  3  0  0  0  0  0  0
  -29.6610  -20.3760   21.5610 N   0  0  2  0  0  4  0  0  0  0  0  0
  -29.1750  -19.9320   22.3260 H   0  0  0  0  0  0  0  0  0  0  0  0
  -29.3530  -26.0400   19.7580 C   0  0  0  0  0  2  0  0  0  0  0  0
  -29.1540  -27.3910   20.1630 O   0  0  0  0  0  0  0  0  0  0  0  0
  -24.7120  -31.9240   23.3530 C   0  0  0  0  0  0  0  0  0  0  0  0
  -27.8830  -27.9260   20.1670 C   0  0  0  0  0  0  0  0  0  0  0  0
  -23.7050  -30.5040   21.5950 C   0  0  0  0  0  3  0  0  0  0  0  0
  -25.3470  -29.1810   20.1670 C   0  0  0  0  0  0  0  0  0  0  0  0
  -26.1910  -31.1040   21.5250 C   0  0  0  0  0  2  0  0  0  0  0  0
  -26.4270  -29.7830   20.8230 C   0  0  0  0  0  0  0  0  0  0  0  0
  -27.6950  -29.1650   20.8160 C   0  0  0  0  0  3  0  0  0  0  0  0
  -26.7730  -27.3200   19.5260 C   0  0  0  0  0  3  0  0  0  0  0  0
  -25.5130  -27.9460   19.5210 C   0  0  0  0  0  3  0  0  0  0  0  0
  -24.0300  -29.9190   20.1960 C   0  0  0  0  0  2  0  0  0  0  0  0
  -24.8840  -31.1900   22.2160 N   0  0  0  0  0  0  0  0  0  0  0  0
  -23.5900  -32.0720   23.8580 O   0  0  0  0  0  0  0  0  0  0  0  0
  -23.1170  -29.3790   22.4740 C   0  0  0  0  0  0  0  0  0  0  0  0
  -21.8250  -29.0800   22.2700 N   0  0  0  0  0  0  0  0  0  0  0  0
  -23.8200  -28.7810   23.2920 O   0  0  0  0  0  0  0  0  0  0  0  0
  -21.3190  -29.6160   21.5790 H   0  0  0  0  0  0  0  0  0  0  0  0
  -18.5570  -27.5650   22.5420 C   0  0  0  0  0  0  0  0  0  0  0  0
  -21.0650  -28.0340   22.9540 C   0  0  0  0  0  3  0  0  0  0  0  0
  -21.3260  -26.6510   22.3140 C   0  0  0  0  0  2  0  0  0  0  0  0
  -20.3040  -26.2860   21.2310 C   0  0  0  0  0  2  0  0  0  0  0  0
  -18.8870  -26.2740   21.8120 C   0  0  0  0  0  2  0  0  0  0  0  0
  -19.5810  -28.4000   23.0630 C   0  0  0  0  0  0  0  0  0  0  0  0
  -19.2240  -29.6090   23.7000 C   0  0  0  0  0  3  0  0  0  0  0  0
  -17.8720  -29.9830   23.8260 C   0  0  0  0  0  3  0  0  0  0  0  0
  -16.8620  -29.1450   23.3230 C   0  0  0  0  0  3  0  0  0  0  0  0
  -17.2040  -27.9390   22.6850 C   0  0  0  0  0  3  0  0  0  0  0  0
  -25.9110  -32.6300   24.0590 C   0  0  0  0  0  3  0  0  0  0  0  0
  -25.5200  -34.0240   24.3050 N   0  0  0  0  0  0  0  0  0  0  0  0
  -25.8750  -35.0590   23.5330 C   0  0  0  0  0  0  0  0  0  0  0  0
  -26.6370  -34.9470   22.5680 O   0  0  0  0  0  0  0  0  0  0  0  0
  -24.8490  -34.1820   25.0420 H   0  0  0  0  0  0  0  0  0  0  0  0
  -24.1070  -36.7500   22.9590 C   0  0  0  0  0  1  0  0  0  0  0  0
  -25.2920  -36.4400   23.8870 C   0  0  0  0  0  3  0  0  0  0  0  0
  -27.3170  -37.4460   24.8410 C   0  0  0  0  0  1  0  0  0  0  0  0
  -26.2850  -37.5330   23.8110 N   0  0  0  0  0  0  0  0  0  0  0  0
  -25.8300  -38.4390   23.8950 H   0  0  0  0  0  0  0  0  0  0  0  0
  -26.3470  -31.9240   25.4030 C   0  0  1  0  0  0  0  0  0  0  0  0
  -25.1700  -31.6310   26.3620 C   0  0  0  0  0  1  0  0  0  0  0  0
  -27.0600  -30.5840   25.1040 C   0  0  0  0  0  1  0  0  0  0  0  0
  -27.3650  -32.8110   26.1580 C   0  0  0  0  0  1  0  0  0  0  0  0
  -30.8250  -19.5080   21.2460 C   0  0  0  0  0  2  0  0  0  0  0  0
  -30.5470  -18.0050   21.4520 C   0  0  0  0  0  2  0  0  0  0  0  0
  -31.7950  -17.1590   21.1480 C   0  0  0  0  0  2  0  0  0  0  0  0
  -31.7490  -15.7380   21.7330 C   0  0  0  0  0  2  0  0  0  0  0  0
  -30.8580  -14.2300   19.9700 C   0  0  0  0  0  0  0  0  0  0  0  0
  -30.3760  -12.0690   18.8890 C   0  0  0  0  0  2  0  0  0  0  0  0
  -29.3570  -12.1570   17.7410 C   0  0  0  0  0  2  0  0  0  0  0  0
  -27.9220  -12.0480   18.2870 C   0  0  0  0  0  2  0  0  0  0  0  0
  -27.6590  -13.0260   19.4610 C   0  0  0  0  0  3  0  0  0  0  0  0
  -28.7740  -12.9270   20.5240 C   0  0  0  0  0  2  0  0  0  0  0  0
  -30.0790  -13.1250   19.8660 N   0  0  0  0  0  0  0  0  0  0  0  0
  -31.7540  -14.5100   19.1690 O   0  0  0  0  0  0  0  0  0  0  0  0
  -30.7260  -14.8860   21.1300 N   0  0  0  0  0  0  0  0  0  0  0  0
  -29.9780  -14.5720   21.7300 H   0  0  0  0  0  0  0  0  0  0  0  0
  -25.3660  -13.7340   20.3960 C   0  0  0  0  0  0  0  0  0  0  0  0
  -24.2920  -13.0060   20.8310 C   0  0  0  0  0  0  0  0  0  0  0  0
  -24.6720  -11.6340   20.7140 C   0  0  0  0  0  0  0  0  0  0  0  0
  -26.3370  -12.8090   20.0460 N   0  0  0  0  0  0  0  0  0  0  0  0
  -25.9270  -11.5380   20.2920 N   0  0  0  0  0  0  0  0  0  0  0  0
  -23.8960  -10.4050   20.9250 C   0  0  0  0  0  0  0  0  0  0  0  0
  -24.3240   -9.4060   21.8280 C   0  0  0  0  0  3  0  0  0  0  0  0
  -23.5520   -8.2420   22.0260 C   0  0  0  0  0  3  0  0  0  0  0  0
  -22.3370   -8.0670   21.3230 C   0  0  0  0  0  0  0  0  0  0  0  0
  -21.9270   -9.0530   20.4060 C   0  0  0  0  0  3  0  0  0  0  0  0
  -22.7000  -10.2090   20.2060 C   0  0  0  0  0  3  0  0  0  0  0  0
  -21.5350   -6.9570   21.4310 O   0  0  0  0  0  0  0  0  0  0  0  0
  -21.4650   -6.2310   22.5930 C   0  0  0  0  0  0  0  0  0  0  0  0
  -21.0830   -6.8190   23.8180 C   0  0  0  0  0  3  0  0  0  0  0  0
  -20.9580   -6.0210   24.9740 C   0  0  0  0  0  3  0  0  0  0  0  0
  -21.2040   -4.6360   24.9040 C   0  0  0  0  0  0  0  0  0  0  0  0
  -21.5790   -4.0480   23.6840 C   0  0  0  0  0  3  0  0  0  0  0  0
  -21.7060   -4.8430   22.5310 C   0  0  0  0  0  0  0  0  0  0  0  0
  -22.0480   -4.2680   21.3530 F   0  0  0  0  0  0  0  0  0  0  0  0
  -21.0750   -3.8680   26.0110 F   0  0  0  0  0  0  0  0  0  0  0  0
  -22.9510  -13.5440   21.2410 C   0  0  0  0  0  0  0  0  0  0  0  0
  -22.2750  -12.8670   22.1630 N   0  0  0  0  0  0  0  0  0  0  0  0
  -22.5170  -14.5980   20.7800 O   0  0  0  0  0  0  0  0  0  0  0  0
  -22.6400  -12.0140   22.5590 H   0  0  0  0  0  0  0  0  0  0  0  0
  -21.3760  -13.2070   22.4770 H   0  0  0  0  0  0  0  0  0  0  0  0
  -25.5930  -15.1000   20.2510 N   0  0  0  0  0  0  0  0  0  0  0  0
  -24.8800  -15.7930   20.4480 H   0  0  0  0  0  0  0  0  0  0  0  0
  -26.4410  -15.5000   19.8720 H   0  0  0  0  0  0  0  0  0  0  0  0
  2  1  1  0
  3  8  1  0
  4  9  1  0
  5  3  1  0
  5 10  1  0
  7  6  1  0
  7  1  1  0
  8  4  1  0
  8  7  1  0
  9 12  1  0
  9  2  1  0
 10  6  1  0
 10 11  1  1
 12 13  1  0
 13 15  1  0
 14 25  2  0
 15 20  1  0
 16 24  1  0
 16 26  1  0
 17 23  1  0
 17 19  1  0
 18 24  1  0
 19 18  1  0
 20 19  2  0
 21 15  2  0
 22 21  1  0
 22 17  2  0
 23 16  1  0
 24 14  1  0
 26 28  2  0
 27 26  1  0
 29 27  1  0
 30 39  2  0
 30 35  1  0
 31 27  1  0
 31 35  1  0
 32 31  1  0
 33 34  1  0
 33 32  1  0
 34 30  1  0
 35 36  2  0
 36 37  1  0
 38 37  2  0
 39 38  1  0
 40 14  1  0
 40 41  1  0
 40 50  1  0
 41 44  1  0
 42 46  1  0
 42 41  1  0
 43 42  2  0
 46 45  1  0
 48 46  1  0
 48 49  1  0
 48 47  1  0
 50 53  1  1
 50 51  1  0
 52 50  1  0
 54 55  1  0
 54 10  1  0
 56 55  1  0
 56 57  1  0
 58 66  1  0
 59 64  1  0
 60 61  1  0
 60 59  1  0
 62 61  1  0
 62 71  1  0
 62 63  1  0
 64 58  1  0
 64 63  1  0
 65 58  2  0
 66 67  1  0
 66 57  1  0
 68 69  2  0
 69 88  1  0
 70 69  1  0
 70 73  1  0
 71 72  1  0
 71 68  1  0
 72 70  2  0
 73 74  1  0
 74 75  2  0
 76 79  1  0
 76 75  1  0
 77 76  2  0
 78 77  1  0
 78 73  2  0
 79 80  1  0
 80 81  1  0
 81 82  2  0
 83 82  1  0
 83 87  1  0
 84 83  2  0
 85 80  2  0
 85 84  1  0
 86 85  1  0
 88 89  1  0
 89 92  1  0
 89 91  1  0
 90 88  2  0
 93 68  1  0
 93 94  1  0
 95 93  1  0
M  ISO  4  12 101  13 101  58 100  66 100
M  END
>  <TORSDO>  (3) 
F 21

>  <SCORE>  (3) 
-11.944

>  <name>  (3) 
2

>  <ligand_id>  (3) 
2

>  <original_smiles>  (3) 
[H]c1c([H])c([H])c2c(c1[H])C([H])([H])C([H])([H])C([H])([H])C2([H])N([H])C(=O)C1([H])N(C(=O)C([H])(N([H])C(=O)C([H])(N([H])C([H])([H])[H])C([H])([H])[H])C(C([H])([H])[H])(C([H])([H])[H])C([H])([H])[H])C([H])([H])c2c([H])c(OC([H])([H])C3([H])C([H])([H])C([H])([H])C4([H])C([H])(C3([H])[H])C([H])([H])C([H])([H])[N+]([H])(C([H])([H])C([H])([H])C([H])([H])C([H])([H])N([H])C(=O)N3C([H])([H])C([H])([H])C([H])([H])C([H])(n5nc(-c6c([H])c([H])c(Oc7c([H])c([H])c(F)c([H])c7F)c([H])c6[H])c(C(=O)N([H])[H])c5N([H])[H])C3([H])[H])C4([H])[H])c([H])c([H])c2C1([H])[H]

>  <smiles>  (3) 
[H]c1c([H])c([H])c2c(c1[H])C([H])([H])C([H])([H])C([H])([H])C2([H])N([H])C(=O)C1([H])N(C(=O)C([H])(N([H])C(=O)C([H])(N([H])C([H])([H])[H])C([H])([H])[H])C(C([H])([H])[H])(C([H])([H])[H])C([H])([H])[H])C([H])([H])c2c([H])c(OC([H])([H])C3([H])C([H])([H])C([H])([H])C4([H])C([H])(C3([H])[H])C([H])([H])C([H])([H])[N+]([H])(C([H])([H])C([H])([H])C([H])([H])C([H])([H])N([H])C(=O)N3C([H])([H])C([H])([H])C([H])([H])C([H])(n5nc(-c6c([H])c([H])c(Oc7c([H])c([H])c(F)c([H])c7F)c([H])c6[H])c(C(=O)N([H])[H])c5N([H])[H])C3([H])[H])C4([H])[H])c([H])c([H])c2C1([H])[H]

$$$$
3:0:0
     RDKit          3D

 97106  0  0  1  0  0  0  0  0999 V2000
  -32.8780  -21.4940   19.3680 C   0  0  0  0  0  2  0  0  0  0  0  0
  -31.0060  -20.5810   20.8260 C   0  0  0  0  0  2  0  0  0  0  0  0
  -33.4690  -20.0750   19.3330 C   0  0  0  0  0  2  0  0  0  0  0  0
  -31.6490  -19.1920   20.6910 C   0  0  0  0  0  2  0  0  0  0  0  0
  -31.9960  -21.7590   20.6160 C   0  0  0  0  0  3  0  0  0  0  0  0
  -32.3650  -19.0950   19.4020 N   0  0  2  0  0  4  0  0  0  0  0  0
  -31.7150  -19.4050   18.6970 H   0  0  0  0  0  0  0  0  0  0  0  0
  -30.6160  -23.5330   21.8750 C   0  0  0  0  0  2  0  0  0  0  0  0
  -31.9800  -24.2890   19.9160 C   0  0  0  0  0  2  0  0  0  0  0  0
  -29.6740  -24.7340   21.7060 C   0  0  0  0  0  2  0  0  0  0  0  0
  -31.0510  -25.5000   19.7130 C   0  0  0  0  0  2  0  0  0  0  0  0
  -31.2030  -23.0940   20.5160 C   0  0  0  0  0  3  0  0  0  0  0  0
  -30.3810  -25.9280   21.0310 C   0  0  0  0  0  3  0  0  0  0  0  0
  -29.4160  -27.1070   20.8370 C   0  0  0  0  0  2  0  0  0  0  0  0
  -28.2830  -26.6700   20.0890 O   0  0  0  0  0  0  0  0  0  0  0  0
  -24.4720  -31.8910   23.1230 C   0  0  0  0  0  0  0  0  0  0  0  0
  -27.1410  -27.4370   20.1310 C   0  0  0  0  0  0  0  0  0  0  0  0
  -23.2640  -30.4590   21.5030 C   0  0  0  0  0  3  0  0  0  0  0  0
  -24.7210  -28.8960   20.1130 C   0  0  0  0  0  0  0  0  0  0  0  0
  -25.7810  -30.8310   21.2960 C   0  0  0  0  0  2  0  0  0  0  0  0
  -25.8710  -29.4500   20.6880 C   0  0  0  0  0  0  0  0  0  0  0  0
  -27.0800  -28.7320   20.6970 C   0  0  0  0  0  3  0  0  0  0  0  0
  -25.9760  -26.8880   19.5580 C   0  0  0  0  0  3  0  0  0  0  0  0
  -24.7650  -27.6090   19.5470 C   0  0  0  0  0  3  0  0  0  0  0  0
  -23.4730  -29.7470   20.1380 C   0  0  0  0  0  2  0  0  0  0  0  0
  -24.5230  -31.0740   22.0330 N   0  0  0  0  0  0  0  0  0  0  0  0
  -23.3930  -32.1720   23.6590 O   0  0  0  0  0  0  0  0  0  0  0  0
  -22.6130  -29.4570   22.4830 C   0  0  0  0  0  0  0  0  0  0  0  0
  -21.2850  -29.2990   22.3770 N   0  0  0  0  0  0  0  0  0  0  0  0
  -23.3010  -28.8240   23.2890 O   0  0  0  0  0  0  0  0  0  0  0  0
  -20.7930  -29.8600   21.6950 H   0  0  0  0  0  0  0  0  0  0  0  0
  -17.8930  -28.2050   22.9570 C   0  0  0  0  0  0  0  0  0  0  0  0
  -20.4620  -28.3830   23.1670 C   0  0  0  0  0  3  0  0  0  0  0  0
  -20.5080  -26.9520   22.5840 C   0  0  0  0  0  2  0  0  0  0  0  0
  -19.3720  -26.6660   21.5980 C   0  0  0  0  0  2  0  0  0  0  0  0
  -18.0120  -26.8520   22.2760 C   0  0  0  0  0  2  0  0  0  0  0  0
  -19.0450  -28.9310   23.3610 C   0  0  0  0  0  0  0  0  0  0  0  0
  -18.8800  -30.2010   23.9560 C   0  0  0  0  0  3  0  0  0  0  0  0
  -17.5960  -30.7420   24.1540 C   0  0  0  0  0  3  0  0  0  0  0  0
  -16.4590  -30.0120   23.7670 C   0  0  0  0  0  3  0  0  0  0  0  0
  -16.6080  -28.7450   23.1740 C   0  0  0  0  0  3  0  0  0  0  0  0
  -25.7630  -32.5280   23.7320 C   0  0  0  0  0  3  0  0  0  0  0  0
  -25.4410  -33.9140   24.0910 N   0  0  0  0  0  0  0  0  0  0  0  0
  -25.7630  -34.9840   23.3530 C   0  0  0  0  0  0  0  0  0  0  0  0
  -26.4340  -34.9090   22.3200 O   0  0  0  0  0  0  0  0  0  0  0  0
  -24.8490  -34.0480   24.8980 H   0  0  0  0  0  0  0  0  0  0  0  0
  -24.0270  -36.7700   23.0170 C   0  0  0  0  0  1  0  0  0  0  0  0
  -25.2610  -36.3580   23.8370 C   0  0  0  0  0  3  0  0  0  0  0  0
  -27.3790  -37.2330   24.7150 C   0  0  0  0  0  1  0  0  0  0  0  0
  -26.2860  -37.4210   23.7650 N   0  0  0  0  0  0  0  0  0  0  0  0
  -25.8710  -38.3320   23.9350 H   0  0  0  0  0  0  0  0  0  0  0  0
  -26.3170  -31.7370   24.9810 C   0  0  1  0  0  0  0  0  0  0  0  0
  -25.2470  -31.4480   26.0580 C   0  0  0  0  0  1  0  0  0  0  0  0
  -26.9240  -30.3830   24.5420 C   0  0  0  0  0  1  0  0  0  0  0  0
  -27.4590  -32.5400   25.6450 C   0  0  0  0  0  1  0  0  0  0  0  0
  -32.7040  -17.7150   18.9850 C   0  0  0  0  0  2  0  0  0  0  0  0
  -31.7890  -17.3000   17.8100 C   0  0  0  0  0  2  0  0  0  0  0  0
  -30.9040  -16.0570   18.0100 C   0  0  0  0  0  2  0  0  0  0  0  0
  -29.7500  -16.1950   19.0520 C   0  0  0  0  0  2  0  0  0  0  0  0
  -30.7150  -14.5260   20.6250 C   0  0  0  0  0  0  0  0  0  0  0  0
  -30.4500  -12.3390   19.5870 C   0  0  0  0  0  2  0  0  0  0  0  0
  -29.5570  -12.5220   18.3430 C   0  0  0  0  0  2  0  0  0  0  0  0
  -28.0640  -12.4120   18.7180 C   0  0  0  0  0  2  0  0  0  0  0  0
  -27.6740  -13.2690   19.9570 C   0  0  0  0  0  3  0  0  0  0  0  0
  -28.6990  -13.1040   21.1030 C   0  0  0  0  0  2  0  0  0  0  0  0
  -30.0380  -13.3570   20.5530 N   0  0  0  0  0  0  0  0  0  0  0  0
  -31.9330  -14.6270   20.4950 O   0  0  0  0  0  0  0  0  0  0  0  0
  -29.9640  -15.6120   20.3960 N   0  0  0  0  0  0  0  0  0  0  0  0
  -30.1190  -16.3220   21.0950 H   0  0  0  0  0  0  0  0  0  0  0  0
  -25.2480  -13.8790   20.5590 C   0  0  0  0  0  0  0  0  0  0  0  0
  -24.1650  -13.1080   20.8810 C   0  0  0  0  0  0  0  0  0  0  0  0
  -24.6320  -11.7580   20.8880 C   0  0  0  0  0  0  0  0  0  0  0  0
  -26.3070  -12.9990   20.3870 N   0  0  0  0  0  0  0  0  0  0  0  0
  -25.9350  -11.7190   20.6440 N   0  0  0  0  0  0  0  0  0  0  0  0
  -23.9020  -10.4970   21.0570 C   0  0  0  0  0  0  0  0  0  0  0  0
  -24.2910   -9.5420   22.0230 C   0  0  0  0  0  3  0  0  0  0  0  0
  -23.5600   -8.3450   22.1770 C   0  0  0  0  0  3  0  0  0  0  0  0
  -22.4280   -8.0930   21.3680 C   0  0  0  0  0  0  0  0  0  0  0  0
  -22.0620   -9.0340   20.3910 C   0  0  0  0  0  3  0  0  0  0  0  0
  -22.7940  -10.2220   20.2320 C   0  0  0  0  0  3  0  0  0  0  0  0
  -21.6770   -6.9460   21.4320 O   0  0  0  0  0  0  0  0  0  0  0  0
  -21.5630   -6.2240   22.5920 C   0  0  0  0  0  0  0  0  0  0  0  0
  -21.0600   -6.8010   23.7800 C   0  0  0  0  0  3  0  0  0  0  0  0
  -20.8900   -6.0060   24.9300 C   0  0  0  0  0  3  0  0  0  0  0  0
  -21.2180   -4.6360   24.8950 C   0  0  0  0  0  0  0  0  0  0  0  0
  -21.7160   -4.0600   23.7140 C   0  0  0  0  0  3  0  0  0  0  0  0
  -21.8830   -4.8520   22.5630 C   0  0  0  0  0  0  0  0  0  0  0  0
  -22.3390   -4.2860   21.4180 F   0  0  0  0  0  0  0  0  0  0  0  0
  -21.0470   -3.8710   25.9980 F   0  0  0  0  0  0  0  0  0  0  0  0
  -22.7540  -13.5810   21.0830 C   0  0  0  0  0  0  0  0  0  0  0  0
  -21.9850  -12.8960   21.9230 N   0  0  0  0  0  0  0  0  0  0  0  0
  -22.3390  -14.6000   20.5270 O   0  0  0  0  0  0  0  0  0  0  0  0
  -22.3310  -12.0790   22.4040 H   0  0  0  0  0  0  0  0  0  0  0  0
  -21.0350  -13.1970   22.0930 H   0  0  0  0  0  0  0  0  0  0  0  0
  -25.4170  -15.2490   20.3780 N   0  0  0  0  0  0  0  0  0  0  0  0
  -24.6600  -15.9120   20.4910 H   0  0  0  0  0  0  0  0  0  0  0  0
  -26.3030  -15.6970   20.1870 H   0  0  0  0  0  0  0  0  0  0  0  0
  3  1  1  0
  3  6  1  0
  4  2  1  0
  5  1  1  0
  5  2  1  0
  6  4  1  0
  6  7  1  6
 10  8  1  0
 11  9  1  0
 11 13  1  0
 12  9  1  0
 12  5  1  0
 12  8  1  0
 13 14  1  0
 13 10  1  0
 15 17  1  0
 15 14  1  0
 16 27  2  0
 17 22  1  0
 18 26  1  0
 18 28  1  0
 19 25  1  0
 19 21  1  0
 20 26  1  0
 21 22  2  0
 21 20  1  0
 23 17  2  0
 24 23  1  0
 24 19  2  0
 25 18  1  0
 26 16  1  0
 28 30  2  0
 29 28  1  0
 31 29  1  0
 32 41  2  0
 32 37  1  0
 33 29  1  0
 33 37  1  0
 34 33  1  0
 35 36  1  0
 35 34  1  0
 36 32  1  0
 37 38  2  0
 38 39  1  0
 40 39  2  0
 41 40  1  0
 42 16  1  0
 42 43  1  0
 42 52  1  0
 43 46  1  0
 44 48  1  0
 44 43  1  0
 45 44  2  0
 48 47  1  0
 50 48  1  0
 50 51  1  0
 50 49  1  0
 52 55  1  1
 52 53  1  0
 54 52  1  0
 56  6  1  0
 57 58  1  0
 57 56  1  0
 58 59  1  0
 59 68  1  0
 61 66  1  0
 62 63  1  0
 62 61  1  0
 64 63  1  0
 64 73  1  0
 64 65  1  0
 66 60  1  0
 66 65  1  0
 67 60  2  0
 68 60  1  0
 68 69  1  0
 70 71  2  0
 71 72  1  0
 71 90  1  0
 72 75  1  0
 73 70  1  0
 73 74  1  0
 74 72  2  0
 75 76  1  0
 76 77  2  0
 78 81  1  0
 78 77  1  0
 79 78  2  0
 80 79  1  0
 80 75  2  0
 81 82  1  0
 82 83  1  0
 83 84  2  0
 85 84  1  0
 85 89  1  0
 86 85  2  0
 87 82  2  0
 87 86  1  0
 88 87  1  0
 90 91  1  0
 91 94  1  0
 91 93  1  0
 92 90  2  0
 95 96  1  0
 95 70  1  0
 97 95  1  0
M  ISO  4  14 101  15 101  60 100  68 100
M  END
>  <TORSDO>  (4) 
F 22

>  <SCORE>  (4) 
-12.733

>  <name>  (4) 
3

>  <ligand_id>  (4) 
3

>  <original_smiles>  (4) 
[H]c1c([H])c([H])c2c(c1[H])C([H])([H])C([H])([H])C([H])([H])C2([H])N([H])C(=O)C1([H])N(C(=O)C([H])(N([H])C(=O)C([H])(N([H])C([H])([H])[H])C([H])([H])[H])C(C([H])([H])[H])(C([H])([H])[H])C([H])([H])[H])C([H])([H])c2c([H])c(OC([H])([H])C3([H])C([H])([H])C([H])([H])C([H])(C4([H])C([H])([H])C([H])([H])[N+]([H])(C([H])([H])C([H])([H])C([H])([H])C([H])([H])N([H])C(=O)N5C([H])([H])C([H])([H])C([H])([H])C([H])(n6nc(-c7c([H])c([H])c(Oc8c([H])c([H])c(F)c([H])c8F)c([H])c7[H])c(C(=O)N([H])[H])c6N([H])[H])C5([H])[H])C([H])([H])C4([H])[H])C([H])([H])C3([H])[H])c([H])c([H])c2C1([H])[H]

>  <smiles>  (4) 
[H]c1c([H])c([H])c2c(c1[H])C([H])([H])C([H])([H])C([H])([H])C2([H])N([H])C(=O)C1([H])N(C(=O)C([H])(N([H])C(=O)C([H])(N([H])C([H])([H])[H])C([H])([H])[H])C(C([H])([H])[H])(C([H])([H])[H])C([H])([H])[H])C([H])([H])c2c([H])c(OC([H])([H])C3([H])C([H])([H])C([H])([H])C([H])(C4([H])C([H])([H])C([H])([H])[N+]([H])(C([H])([H])C([H])([H])C([H])([H])C([H])([H])N([H])C(=O)N5C([H])([H])C([H])([H])C([H])([H])C([H])(n6nc(-c7c([H])c([H])c(Oc8c([H])c([H])c(F)c([H])c8F)c([H])c7[H])c(C(=O)N([H])[H])c6N([H])[H])C5([H])[H])C([H])([H])C4([H])[H])C([H])([H])C3([H])[H])c([H])c([H])c2C1([H])[H]

$$$$
4:0:0
     RDKit          3D

 95103  0  0  1  0  0  0  0  0999 V2000
  -26.0540  -20.9000   16.1770 C   0  0  0  0  0  2  0  0  0  0  0  0
  -25.2230  -21.6710   17.2320 C   0  0  0  0  0  2  0  0  0  0  0  0
  -26.5290  -19.5190   16.6890 C   0  0  0  0  0  2  0  0  0  0  0  0
  -26.3460  -20.2370   18.9960 C   0  0  0  0  0  2  0  0  0  0  0  0
  -25.9630  -21.6670   18.5870 C   0  0  0  0  0  3  0  0  0  0  0  0
  -27.2680  -19.7020   17.9650 N   0  0  1  0  0  4  0  0  0  0  0  0
  -27.9250  -20.4440   17.7800 H   0  0  0  0  0  0  0  0  0  0  0  0
  -25.2710  -22.4460   19.7270 C   0  0  0  0  0  2  0  0  0  0  0  0
  -25.8850  -23.8440   19.9260 C   0  0  0  0  0  3  0  0  0  0  0  0
  -27.3450  -23.9030   20.5130 C   0  0  0  0  0  3  0  0  0  0  0  0
  -27.9140  -25.3150   20.9180 C   0  0  0  0  0  2  0  0  0  0  0  0
  -28.3350  -26.5940   20.3410 O   0  0  0  0  0  0  0  0  0  0  0  0
  -24.5980  -31.8870   23.2860 C   0  0  0  0  0  0  0  0  0  0  0  0
  -27.2860  -27.4870   20.2170 C   0  0  0  0  0  0  0  0  0  0  0  0
  -23.4270  -30.4910   21.6210 C   0  0  0  0  0  3  0  0  0  0  0  0
  -24.9070  -28.9910   20.2010 C   0  0  0  0  0  0  0  0  0  0  0  0
  -25.9540  -30.8580   21.4730 C   0  0  0  0  0  2  0  0  0  0  0  0
  -26.0580  -29.4940   20.8310 C   0  0  0  0  0  0  0  0  0  0  0  0
  -27.2540  -28.7410   20.8660 C   0  0  0  0  0  3  0  0  0  0  0  0
  -26.1560  -27.0770   19.4800 C   0  0  0  0  0  3  0  0  0  0  0  0
  -24.9500  -27.7720   19.5220 C   0  0  0  0  0  3  0  0  0  0  0  0
  -23.6540  -29.8260   20.2400 C   0  0  0  0  0  2  0  0  0  0  0  0
  -24.6770  -31.0930   22.1830 N   0  0  0  0  0  0  0  0  0  0  0  0
  -23.5060  -32.1490   23.8090 O   0  0  0  0  0  0  0  0  0  0  0  0
  -22.7670  -29.4590   22.5640 C   0  0  0  0  0  0  0  0  0  0  0  0
  -21.4440  -29.2730   22.4210 N   0  0  0  0  0  0  0  0  0  0  0  0
  -23.4420  -28.8280   23.3820 O   0  0  0  0  0  0  0  0  0  0  0  0
  -20.9510  -29.8290   21.7390 H   0  0  0  0  0  0  0  0  0  0  0  0
  -18.0650  -28.0890   22.8890 C   0  0  0  0  0  0  0  0  0  0  0  0
  -20.6230  -28.3290   23.1760 C   0  0  0  0  0  3  0  0  0  0  0  0
  -20.7210  -26.9010   22.5880 C   0  0  0  0  0  2  0  0  0  0  0  0
  -19.6250  -26.5960   21.5630 C   0  0  0  0  0  2  0  0  0  0  0  0
  -18.2400  -26.7440   22.1990 C   0  0  0  0  0  2  0  0  0  0  0  0
  -19.1870  -28.8440   23.3310 C   0  0  0  0  0  0  0  0  0  0  0  0
  -18.9710  -30.1040   23.9270 C   0  0  0  0  0  3  0  0  0  0  0  0
  -17.6690  -30.6130   24.0850 C   0  0  0  0  0  3  0  0  0  0  0  0
  -16.5630  -29.8580   23.6560 C   0  0  0  0  0  3  0  0  0  0  0  0
  -16.7630  -28.5960   23.0680 C   0  0  0  0  0  3  0  0  0  0  0  0
  -25.8710  -32.5250   23.9220 C   0  0  0  0  0  3  0  0  0  0  0  0
  -26.3670  -31.7610   25.2090 C   0  0  1  0  0  0  0  0  0  0  0  0
  -25.2620  -31.5170   26.2630 C   0  0  0  0  0  1  0  0  0  0  0  0
  -26.9510  -30.3810   24.8320 C   0  0  0  0  0  1  0  0  0  0  0  0
  -27.5140  -32.5540   25.8790 C   0  0  0  0  0  1  0  0  0  0  0  0
  -25.5570  -33.9270   24.2270 N   0  0  0  0  0  0  0  0  0  0  0  0
  -25.9080  -34.9660   23.4570 C   0  0  0  0  0  0  0  0  0  0  0  0
  -26.5940  -34.8450   22.4390 O   0  0  0  0  0  0  0  0  0  0  0  0
  -24.9560  -34.0990   25.0210 H   0  0  0  0  0  0  0  0  0  0  0  0
  -24.1860  -36.7450   23.0330 C   0  0  0  0  0  1  0  0  0  0  0  0
  -25.4140  -36.3640   23.8790 C   0  0  0  0  0  3  0  0  0  0  0  0
  -27.5280  -37.2560   24.7480 C   0  0  0  0  0  1  0  0  0  0  0  0
  -26.4510  -37.4120   23.7730 N   0  0  0  0  0  0  0  0  0  0  0  0
  -26.0380  -38.3300   23.9050 H   0  0  0  0  0  0  0  0  0  0  0  0
  -28.1350  -18.5680   18.3910 C   0  0  0  0  0  2  0  0  0  0  0  0
  -29.0680  -18.9410   19.5800 C   0  0  0  0  0  2  0  0  0  0  0  0
  -30.0450  -17.8210   19.9820 C   0  0  0  0  0  2  0  0  0  0  0  0
  -30.5050  -17.8620   21.4610 C   0  0  0  0  0  2  0  0  0  0  0  0
  -31.2990  -16.6110   21.9050 C   0  0  0  0  0  2  0  0  0  0  0  0
  -31.0970  -14.5220   20.5260 C   0  0  0  0  0  0  0  0  0  0  0  0
  -30.6870  -12.4290   19.2840 C   0  0  0  0  0  2  0  0  0  0  0  0
  -29.7890  -12.6960   18.0660 C   0  0  0  0  0  2  0  0  0  0  0  0
  -28.2970  -12.6580   18.4540 C   0  0  0  0  0  2  0  0  0  0  0  0
  -27.9750  -13.4310   19.7630 C   0  0  0  0  0  3  0  0  0  0  0  0
  -29.0110  -13.1420   20.8750 C   0  0  0  0  0  2  0  0  0  0  0  0
  -30.3560  -13.4000   20.3360 N   0  0  0  0  0  0  0  0  0  0  0  0
  -32.1120  -14.7800   19.8720 O   0  0  0  0  0  0  0  0  0  0  0  0
  -30.6680  -15.3520   21.4940 N   0  0  0  0  0  0  0  0  0  0  0  0
  -29.8210  -15.0840   21.9700 H   0  0  0  0  0  0  0  0  0  0  0  0
  -25.5600  -14.0630   20.3950 C   0  0  0  0  0  0  0  0  0  0  0  0
  -24.4840  -13.3030   20.7600 C   0  0  0  0  0  0  0  0  0  0  0  0
  -24.9370  -11.9450   20.7560 C   0  0  0  0  0  0  0  0  0  0  0  0
  -26.6060  -13.1740   20.2110 N   0  0  0  0  0  0  0  0  0  0  0  0
  -26.2310  -11.8960   20.4790 N   0  0  0  0  0  0  0  0  0  0  0  0
  -24.1970  -10.6880   20.9550 C   0  0  0  0  0  0  0  0  0  0  0  0
  -24.5990   -9.7350   21.9180 C   0  0  0  0  0  3  0  0  0  0  0  0
  -23.8590   -8.5490   22.1030 C   0  0  0  0  0  3  0  0  0  0  0  0
  -22.7050   -8.3070   21.3220 C   0  0  0  0  0  0  0  0  0  0  0  0
  -22.3220   -9.2440   20.3470 C   0  0  0  0  0  3  0  0  0  0  0  0
  -23.0640  -10.4220   20.1630 C   0  0  0  0  0  3  0  0  0  0  0  0
  -21.9360   -7.1700   21.4130 O   0  0  0  0  0  0  0  0  0  0  0  0
  -21.8290   -6.4600   22.5810 C   0  0  0  0  0  0  0  0  0  0  0  0
  -21.3430   -7.0500   23.7680 C   0  0  0  0  0  3  0  0  0  0  0  0
  -21.1960   -6.2680   24.9310 C   0  0  0  0  0  3  0  0  0  0  0  0
  -21.5140   -4.8960   24.9080 C   0  0  0  0  0  0  0  0  0  0  0  0
  -21.9900   -4.3090   23.7220 C   0  0  0  0  0  3  0  0  0  0  0  0
  -22.1470   -5.0880   22.5630 C   0  0  0  0  0  0  0  0  0  0  0  0
  -22.5870   -4.5100   21.4180 F   0  0  0  0  0  0  0  0  0  0  0  0
  -21.3570   -4.1410   26.0190 F   0  0  0  0  0  0  0  0  0  0  0  0
  -23.0880  -13.7900   21.0010 C   0  0  0  0  0  0  0  0  0  0  0  0
  -22.3470  -13.1090   21.8710 N   0  0  0  0  0  0  0  0  0  0  0  0
  -22.6610  -14.8070   20.4590 O   0  0  0  0  0  0  0  0  0  0  0  0
  -22.7080  -12.2800   22.3190 H   0  0  0  0  0  0  0  0  0  0  0  0
  -21.4130  -13.4200   22.0820 H   0  0  0  0  0  0  0  0  0  0  0  0
  -25.7390  -15.4290   20.1910 N   0  0  0  0  0  0  0  0  0  0  0  0
  -24.9710  -16.0830   20.2560 H   0  0  0  0  0  0  0  0  0  0  0  0
  -26.6050  -15.8490   19.8770 H   0  0  0  0  0  0  0  0  0  0  0  0
  1  3  1  0
  1  2  1  0
  2  5  1  0
  3  6  1  0
  5  4  1  0
  5  8  1  0
  6 53  1  0
  6  4  1  0
  6  7  1  6
  8  9  1  0
  9 10  2  0
 10 11  1  0
 12 11  1  0
 13 24  2  0
 14 12  1  0
 14 19  1  0
 15 23  1  0
 15 25  1  0
 16 22  1  0
 16 18  1  0
 17 23  1  0
 18 19  2  0
 18 17  1  0
 20 21  1  0
 20 14  2  0
 21 16  2  0
 22 15  1  0
 23 13  1  0
 25 27  2  0
 26 25  1  0
 28 26  1  0
 29 38  2  0
 29 34  1  0
 30 26  1  0
 30 34  1  0
 31 30  1  0
 32 33  1  0
 32 31  1  0
 33 29  1  0
 34 35  2  0
 35 36  1  0
 37 36  2  0
 38 37  1  0
 39 13  1  0
 39 44  1  0
 39 40  1  0
 40 43  1  1
 40 41  1  0
 42 40  1  0
 44 47  1  0
 45 49  1  0
 45 44  1  0
 46 45  2  0
 49 48  1  0
 51 49  1  0
 51 52  1  0
 51 50  1  0
 53 54  1  0
 54 55  1  0
 55 56  1  0
 56 57  1  0
 58 66  1  0
 59 64  1  0
 60 61  1  0
 60 59  1  0
 62 61  1  0
 62 71  1  0
 62 63  1  0
 64 58  1  0
 64 63  1  0
 65 58  2  0
 66 57  1  0
 66 67  1  0
 68 69  2  0
 69 88  1  0
 70 69  1  0
 70 73  1  0
 71 68  1  0
 71 72  1  0
 72 70  2  0
 73 74  1  0
 74 75  2  0
 76 79  1  0
 76 75  1  0
 77 76  2  0
 78 77  1  0
 78 73  2  0
 79 80  1  0
 80 81  1  0
 81 82  2  0
 83 82  1  0
 83 87  1  0
 84 83  2  0
 85 80  2  0
 85 84  1  0
 86 85  1  0
 88 89  1  0
 89 92  1  0
 89 91  1  0
 90 88  2  0
 93 94  1  0
 93 68  1  0
 95 93  1  0
M  ISO  4  11 101  12 101  58 100  66 100
M  END
>  <TORSDO>  (5) 
F 25

>  <SCORE>  (5) 
-9.785

>  <name>  (5) 
4

>  <ligand_id>  (5) 
4

>  <original_smiles>  (5) 
[H]c1c([H])c([H])c2c(c1[H])C([H])([H])C([H])([H])C([H])([H])C2([H])N([H])C(=O)C1([H])N(C(=O)C([H])(N([H])C(=O)C([H])(N([H])C([H])([H])[H])C([H])([H])[H])C(C([H])([H])[H])(C([H])([H])[H])C([H])([H])[H])C([H])([H])c2c([H])c(OC([H])([H])C([H])([H])C([H])([H])C([H])([H])C3([H])C([H])([H])C([H])([H])C([H])([H])[N+]([H])(C([H])([H])C([H])([H])C([H])([H])C([H])([H])C([H])([H])N([H])C(=O)N4C([H])([H])C([H])([H])C([H])([H])C([H])(n5nc(-c6c([H])c([H])c(Oc7c([H])c([H])c(F)c([H])c7F)c([H])c6[H])c(C(=O)N([H])[H])c5N([H])[H])C4([H])[H])C3([H])[H])c([H])c([H])c2C1([H])[H]

>  <smiles>  (5) 
[H]c1c([H])c([H])c2c(c1[H])C([H])([H])C([H])([H])C([H])([H])C2([H])N([H])C(=O)C1([H])N(C(=O)C([H])(N([H])C(=O)C([H])(N([H])C([H])([H])[H])C([H])([H])[H])C(C([H])([H])[H])(C([H])([H])[H])C([H])([H])[H])C([H])([H])c2c([H])c(OC([H])([H])C([H])([H])C([H])([H])C([H])([H])C3([H])C([H])([H])C([H])([H])C([H])([H])[N+]([H])(C([H])([H])C([H])([H])C([H])([H])C([H])([H])C([H])([H])N([H])C(=O)N4C([H])([H])C([H])([H])C([H])([H])C([H])(n5nc(-c6c([H])c([H])c(Oc7c([H])c([H])c(F)c([H])c7F)c([H])c6[H])c(C(=O)N([H])[H])c5N([H])[H])C4([H])[H])C3([H])[H])c([H])c([H])c2C1([H])[H]

$$$$
5:0:0
     RDKit          3D

104113  0  0  1  0  0  0  0  0999 V2000
  -27.1560  -24.4970   20.9090 C   0  0  0  0  0  2  0  0  0  0  0  0
  -26.8730  -23.0090   21.1440 C   0  0  0  0  0  2  0  0  0  0  0  0
  -29.2610  -22.5140   21.1920 C   0  0  0  0  0  2  0  0  0  0  0  0
  -28.5240  -24.9380   21.4670 C   0  0  0  0  0  3  0  0  0  0  0  0
  -29.6790  -24.0060   20.9660 C   0  0  1  0  0  0  0  0  0  0  0  0
  -30.9320  -24.2570   21.8420 C   0  0  0  0  0  1  0  0  0  0  0  0
  -27.9520  -22.1760   20.5690 N   0  0  1  0  0  4  0  0  0  0  0  0
  -28.0150  -22.4260   19.5950 H   0  0  0  0  0  0  0  0  0  0  0  0
  -27.6100  -20.7280   20.5880 C   0  0  0  0  0  2  0  0  0  0  0  0
  -28.5920  -19.8670   19.7640 C   0  0  0  0  0  2  0  0  0  0  0  0
  -29.5840  -19.0730   20.6270 C   0  0  0  0  0  2  0  0  0  0  0  0
  -30.5410  -18.2130   19.7910 C   0  0  0  0  0  2  0  0  0  0  0  0
  -31.7730  -17.8030   20.6060 C   0  0  0  0  0  2  0  0  0  0  0  0
  -32.6400  -16.7300   19.9330 C   0  0  0  0  0  2  0  0  0  0  0  0
  -32.5550  -15.3370   20.5830 C   0  0  0  0  0  2  0  0  0  0  0  0
  -31.3390  -13.7040   19.1700 C   0  0  0  0  0  0  0  0  0  0  0  0
  -30.7640  -11.3720   18.6340 C   0  0  0  0  0  2  0  0  0  0  0  0
  -29.6930  -11.2160   17.5450 C   0  0  0  0  0  2  0  0  0  0  0  0
  -28.2890  -11.2510   18.1690 C   0  0  0  0  0  2  0  0  0  0  0  0
  -28.0900  -12.4760   19.0970 C   0  0  0  0  0  3  0  0  0  0  0  0
  -29.2580  -12.6250   20.0990 C   0  0  0  0  0  2  0  0  0  0  0  0
  -30.5330  -12.6310   19.3550 N   0  0  0  0  0  0  0  0  0  0  0  0
  -32.1600  -13.7900   18.2510 O   0  0  0  0  0  0  0  0  0  0  0  0
  -31.3800  -14.5460   20.2100 N   0  0  0  0  0  0  0  0  0  0  0  0
  -30.6910  -14.3890   20.9320 H   0  0  0  0  0  0  0  0  0  0  0  0
  -25.9750  -13.4490   20.1940 C   0  0  0  0  0  0  0  0  0  0  0  0
  -24.8510  -12.8560   20.7010 C   0  0  0  0  0  0  0  0  0  0  0  0
  -25.0460  -11.4480   20.5550 C   0  0  0  0  0  0  0  0  0  0  0  0
  -26.7960  -12.4150   19.7750 N   0  0  0  0  0  0  0  0  0  0  0  0
  -26.2470  -11.2020   20.0460 N   0  0  0  0  0  0  0  0  0  0  0  0
  -24.1400  -10.3220   20.8180 C   0  0  0  0  0  0  0  0  0  0  0  0
  -24.4910   -9.2830   21.7080 C   0  0  0  0  0  3  0  0  0  0  0  0
  -23.5940   -8.2220   21.9580 C   0  0  0  0  0  3  0  0  0  0  0  0
  -22.3320   -8.1930   21.3190 C   0  0  0  0  0  0  0  0  0  0  0  0
  -21.9980   -9.2180   20.4160 C   0  0  0  0  0  3  0  0  0  0  0  0
  -22.8920  -10.2720   20.1640 C   0  0  0  0  0  3  0  0  0  0  0  0
  -21.4080   -7.1890   21.4800 O   0  0  0  0  0  0  0  0  0  0  0  0
  -21.3290   -6.4640   22.6420 C   0  0  0  0  0  0  0  0  0  0  0  0
  -21.0720   -7.0760   23.8870 C   0  0  0  0  0  3  0  0  0  0  0  0
  -20.9310   -6.2850   25.0450 C   0  0  0  0  0  3  0  0  0  0  0  0
  -21.0380   -4.8850   24.9600 C   0  0  0  0  0  0  0  0  0  0  0  0
  -21.2880   -4.2720   23.7180 C   0  0  0  0  0  3  0  0  0  0  0  0
  -21.4300   -5.0600   22.5630 C   0  0  0  0  0  0  0  0  0  0  0  0
  -21.6510   -4.4630   21.3670 F   0  0  0  0  0  0  0  0  0  0  0  0
  -20.8930   -4.1240   26.0700 F   0  0  0  0  0  0  0  0  0  0  0  0
  -23.6210  -13.5530   21.2070 C   0  0  0  0  0  0  0  0  0  0  0  0
  -22.9330  -12.9580   22.1770 N   0  0  0  0  0  0  0  0  0  0  0  0
  -23.2890  -14.6570   20.7780 O   0  0  0  0  0  0  0  0  0  0  0  0
  -23.2160  -12.0610   22.5430 H   0  0  0  0  0  0  0  0  0  0  0  0
  -22.1120  -13.4070   22.5560 H   0  0  0  0  0  0  0  0  0  0  0  0
  -26.3570  -14.7780   20.0360 N   0  0  0  0  0  0  0  0  0  0  0  0
  -25.7510  -15.5510   20.2880 H   0  0  0  0  0  0  0  0  0  0  0  0
  -27.2270  -15.0770   19.6130 H   0  0  0  0  0  0  0  0  0  0  0  0
  -28.7760  -26.4750   21.3250 C   0  0  0  0  0  2  0  0  0  0  0  0
  -28.4230  -27.0210   20.0430 O   0  0  0  0  0  0  0  0  0  0  0  0
  -24.6100  -31.9940   23.3780 C   0  0  0  0  0  0  0  0  0  0  0  0
  -27.2810  -27.7900   20.0500 C   0  0  0  0  0  0  0  0  0  0  0  0
  -23.4020  -30.6670   21.6720 C   0  0  0  0  0  3  0  0  0  0  0  0
  -24.8620  -29.2380   20.1450 C   0  0  0  0  0  0  0  0  0  0  0  0
  -25.9160  -31.0830   21.4670 C   0  0  0  0  0  2  0  0  0  0  0  0
  -26.0120  -29.7530   20.7540 C   0  0  0  0  0  0  0  0  0  0  0  0
  -27.2230  -29.0360   20.7090 C   0  0  0  0  0  3  0  0  0  0  0  0
  -26.1300  -27.3010   19.4010 C   0  0  0  0  0  3  0  0  0  0  0  0
  -24.9130  -28.0100   19.4610 C   0  0  0  0  0  3  0  0  0  0  0  0
  -23.6020  -30.0670   20.2540 C   0  0  0  0  0  2  0  0  0  0  0  0
  -24.6610  -31.2610   22.2300 N   0  0  0  0  0  0  0  0  0  0  0  0
  -23.5320  -32.2190   23.9450 O   0  0  0  0  0  0  0  0  0  0  0  0
  -22.7800  -29.5840   22.5830 C   0  0  0  0  0  0  0  0  0  0  0  0
  -21.4680  -29.3480   22.4160 N   0  0  0  0  0  0  0  0  0  0  0  0
  -23.4710  -28.9620   23.3940 O   0  0  0  0  0  0  0  0  0  0  0  0
  -20.9710  -29.9060   21.7360 H   0  0  0  0  0  0  0  0  0  0  0  0
  -18.1510  -27.9480   22.7310 C   0  0  0  0  0  0  0  0  0  0  0  0
  -20.6730  -28.3500   23.1310 C   0  0  0  0  0  3  0  0  0  0  0  0
  -20.8900  -26.9380   22.5360 C   0  0  0  0  0  2  0  0  0  0  0  0
  -19.8550  -26.5670   21.4680 C   0  0  0  0  0  2  0  0  0  0  0  0
  -18.4380  -26.6210   22.0470 C   0  0  0  0  0  2  0  0  0  0  0  0
  -19.2010  -28.7670   23.2240 C   0  0  0  0  0  0  0  0  0  0  0  0
  -18.8790  -30.0070   23.8170 C   0  0  0  0  0  3  0  0  0  0  0  0
  -17.5410  -30.4280   23.9270 C   0  0  0  0  0  3  0  0  0  0  0  0
  -16.5060  -29.6040   23.4510 C   0  0  0  0  0  3  0  0  0  0  0  0
  -16.8100  -28.3670   22.8580 C   0  0  0  0  0  3  0  0  0  0  0  0
  -25.8940  -32.6050   24.0200 C   0  0  0  0  0  3  0  0  0  0  0  0
  -26.3900  -31.8170   25.2950 C   0  0  1  0  0  0  0  0  0  0  0  0
  -25.2730  -31.5250   26.3250 C   0  0  0  0  0  1  0  0  0  0  0  0
  -27.0200  -30.4630   24.8890 C   0  0  0  0  0  1  0  0  0  0  0  0
  -27.5000  -32.6210   26.0120 C   0  0  0  0  0  1  0  0  0  0  0  0
  -25.5970  -34.0050   24.3540 N   0  0  0  0  0  0  0  0  0  0  0  0
  -25.9320  -35.0550   23.5920 C   0  0  0  0  0  0  0  0  0  0  0  0
  -26.5960  -34.9460   22.5570 O   0  0  0  0  0  0  0  0  0  0  0  0
  -25.0110  -34.1630   25.1610 H   0  0  0  0  0  0  0  0  0  0  0  0
  -24.2040  -36.8520   23.2530 C   0  0  0  0  0  1  0  0  0  0  0  0
  -25.4530  -36.4460   24.0500 C   0  0  0  0  0  3  0  0  0  0  0  0
  -27.6010  -37.3270   24.8500 C   0  0  0  0  0  1  0  0  0  0  0  0
  -26.4890  -37.4950   23.9200 N   0  0  0  0  0  0  0  0  0  0  0  0
  -26.0860  -38.4160   24.0670 H   0  0  0  0  0  0  0  0  0  0  0  0
  -29.9870  -24.2700   19.4570 C   0  0  0  0  0  2  0  0  0  0  0  0
  -32.1320  -22.2110   16.8810 C   0  0  0  0  0  0  0  0  0  0  0  0
  -33.4820  -22.5610   17.4850 C   0  0  0  0  0  2  0  0  0  0  0  0
  -30.9430  -22.9720   17.4570 C   0  0  0  0  0  2  0  0  0  0  0  0
  -33.5620  -24.0590   17.8240 C   0  0  0  0  0  2  0  0  0  0  0  0
  -32.4640  -24.5220   18.8020 C   0  0  0  0  0  2  0  0  0  0  0  0
  -31.2370  -23.5740   18.8510 C   0  0  0  0  0  3  0  0  0  0  0  0
  -32.0010  -21.3560   15.9600 N   0  0  0  0  0  0  0  0  0  0  0  0
  -32.8900  -20.9480   15.6870 H   0  0  0  0  0  0  0  0  0  0  0  0
  1  2  1  0
  1  4  1  0
  4 54  1  0
  5  3  1  0
  5  4  1  0
  5  6  1  1
  7  9  1  0
  7  2  1  0
  7  3  1  0
  7  8  1  6
 10  9  1  0
 10 11  1  0
 12 13  1  0
 12 11  1  0
 14 15  1  0
 14 13  1  0
 16 22  1  0
 16 24  1  0
 17 22  1  0
 18 19  1  0
 18 17  1  0
 20 19  1  0
 20 29  1  0
 20 21  1  0
 22 21  1  0
 23 16  2  0
 24 15  1  0
 24 25  1  0
 26 27  2  0
 27 46  1  0
 28 27  1  0
 28 31  1  0
 29 30  1  0
 29 26  1  0
 30 28  2  0
 31 32  1  0
 32 33  2  0
 34 37  1  0
 34 33  1  0
 35 34  2  0
 36 35  1  0
 36 31  2  0
 37 38  1  0
 38 39  1  0
 39 40  2  0
 41 40  1  0
 41 45  1  0
 42 41  2  0
 43 38  2  0
 43 42  1  0
 44 43  1  0
 46 47  1  0
 47 49  1  0
 47 50  1  0
 48 46  2  0
 51 26  1  0
 51 52  1  0
 53 51  1  0
 55 57  1  0
 55 54  1  0
 56 67  2  0
 57 62  1  0
 58 66  1  0
 58 68  1  0
 59 65  1  0
 59 61  1  0
 60 66  1  0
 61 60  1  0
 62 61  2  0
 63 64  1  0
 63 57  2  0
 64 59  2  0
 65 58  1  0
 66 56  1  0
 68 70  2  0
 69 68  1  0
 71 69  1  0
 72 81  2  0
 72 77  1  0
 73 69  1  0
 73 77  1  0
 74 73  1  0
 75 76  1  0
 75 74  1  0
 76 72  1  0
 77 78  2  0
 78 79  1  0
 80 79  2  0
 81 80  1  0
 82 56  1  0
 82 87  1  0
 82 83  1  0
 83 86  1  1
 83 84  1  0
 85 83  1  0
 87 90  1  0
 88 92  1  0
 88 87  1  0
 89 88  2  0
 92 91  1  0
 94 92  1  0
 94 95  1  0
 94 93  1  0
 96  5  1  0
 97 99  1  0
 97 98  1  0
 98100  1  0
 99102  1  0
100101  1  0
101102  1  0
102 96  1  0
103 97  2  0
104103  1  0
M  ISO  4  16 100  24 100  54 101  55 101
M  END
>  <TORSDO>  (6) 
F 26

>  <SCORE>  (6) 
-10.056

>  <name>  (6) 
5

>  <ligand_id>  (6) 
5

>  <original_smiles>  (6) 
[H]N=C1C([H])([H])C([H])([H])C([H])([H])C([H])(C([H])([H])C2(C([H])([H])[H])C([H])(C([H])([H])Oc3c([H])c([H])c4c(c3[H])C([H])([H])N(C(=O)C([H])(N([H])C(=O)C([H])(N([H])C([H])([H])[H])C([H])([H])[H])C(C([H])([H])[H])(C([H])([H])[H])C([H])([H])[H])C([H])(C(=O)N([H])C3([H])c5c([H])c([H])c([H])c([H])c5C([H])([H])C([H])([H])C3([H])[H])C4([H])[H])C([H])([H])C([H])([H])[N+]([H])(C([H])([H])C([H])([H])C([H])([H])C([H])([H])C([H])([H])C([H])([H])C([H])([H])N([H])C(=O)N3C([H])([H])C([H])([H])C([H])([H])C([H])(n4nc(-c5c([H])c([H])c(Oc6c([H])c([H])c(F)c([H])c6F)c([H])c5[H])c(C(=O)N([H])[H])c4N([H])[H])C3([H])[H])C2([H])[H])C1([H])[H]

>  <smiles>  (6) 
[H]N=C1C([H])([H])C([H])([H])C([H])([H])C([H])(C([H])([H])C2(C([H])([H])[H])C([H])(C([H])([H])Oc3c([H])c([H])c4c(c3[H])C([H])([H])N(C(=O)C([H])(N([H])C(=O)C([H])(N([H])C([H])([H])[H])C([H])([H])[H])C(C([H])([H])[H])(C([H])([H])[H])C([H])([H])[H])C([H])(C(=O)N([H])C3([H])c5c([H])c([H])c([H])c([H])c5C([H])([H])C([H])([H])C3([H])[H])C4([H])[H])C([H])([H])C([H])([H])[N+]([H])(C([H])([H])C([H])([H])C([H])([H])C([H])([H])C([H])([H])C([H])([H])C([H])([H])N([H])C(=O)N3C([H])([H])C([H])([H])C([H])([H])C([H])(n4nc(-c5c([H])c([H])c(Oc6c([H])c([H])c(F)c([H])c6F)c([H])c5[H])c(C(=O)N([H])[H])c4N([H])[H])C3([H])[H])C2([H])[H])C1([H])[H]

$$$$
6:0:0
     RDKit          3D

 96105  0  0  1  0  0  0  0  0999 V2000
  -30.9330  -22.8710   19.0250 C   0  0  0  0  0  2  0  0  0  0  0  0
  -29.5550  -23.7610   17.1340 C   0  0  0  0  0  2  0  0  0  0  0  0
  -30.0500  -23.5810   20.0500 C   0  0  0  0  0  2  0  0  0  0  0  0
  -28.6710  -24.5290   18.1310 C   0  0  0  0  0  2  0  0  0  0  0  0
  -30.0990  -22.4780   17.7910 C   0  0  0  0  0  3  0  0  0  0  0  0
  -29.4180  -24.8420   19.4460 C   0  0  0  0  0  3  0  0  0  0  0  0
  -30.8810  -21.5880   16.8100 C   0  0  0  0  0  2  0  0  0  0  0  0
  -31.2900  -20.2200   17.3910 C   0  0  0  0  0  2  0  0  0  0  0  0
  -29.7400  -19.1910   19.0780 C   0  0  0  0  0  0  0  0  0  0  0  0
  -30.1370  -19.4230   17.8140 N   0  0  0  0  0  0  0  0  0  0  0  0
  -30.2490  -19.7580   20.0440 O   0  0  0  0  0  0  0  0  0  0  0  0
  -29.6460  -18.9210   17.0840 H   0  0  0  0  0  0  0  0  0  0  0  0
  -30.6970  -14.5350   20.4580 C   0  0  0  0  0  0  0  0  0  0  0  0
  -30.4020  -12.3230   19.4660 C   0  0  0  0  0  2  0  0  0  0  0  0
  -29.4750  -12.4610   18.2370 C   0  0  0  0  0  2  0  0  0  0  0  0
  -27.9920  -12.3910   18.6470 C   0  0  0  0  0  2  0  0  0  0  0  0
  -27.6420  -13.2800   19.8730 C   0  0  0  0  0  3  0  0  0  0  0  0
  -28.6870  -13.1370   21.0040 C   0  0  0  0  0  2  0  0  0  0  0  0
  -30.0180  -13.3650   20.4240 N   0  0  0  0  0  0  0  0  0  0  0  0
  -31.9110  -14.6280   20.2620 O   0  0  0  0  0  0  0  0  0  0  0  0
  -28.8340  -16.9100   18.3560 C   0  0  0  0  0  2  0  0  0  0  0  0
  -28.5570  -17.5960   20.7440 C   0  0  0  0  0  2  0  0  0  0  0  0
  -30.0890  -16.1330   18.7830 C   0  0  0  0  0  2  0  0  0  0  0  0
  -29.7380  -16.6700   21.1300 C   0  0  0  0  0  2  0  0  0  0  0  0
  -28.6360  -18.1250   19.2850 C   0  0  0  0  0  3  0  0  0  0  0  0
  -29.9200  -15.5970   20.1460 N   0  0  0  0  0  0  0  0  0  0  0  0
  -25.2380  -13.9070   20.5390 C   0  0  0  0  0  0  0  0  0  0  0  0
  -24.1590  -13.1440   20.8970 C   0  0  0  0  0  0  0  0  0  0  0  0
  -24.6160  -11.7900   20.8880 C   0  0  0  0  0  0  0  0  0  0  0  0
  -26.2840  -13.0200   20.3420 N   0  0  0  0  0  0  0  0  0  0  0  0
  -25.9120  -11.7430   20.6120 N   0  0  0  0  0  0  0  0  0  0  0  0
  -23.8820  -10.5320   21.0720 C   0  0  0  0  0  0  0  0  0  0  0  0
  -24.3010   -9.5630   22.0110 C   0  0  0  0  0  3  0  0  0  0  0  0
  -23.5670   -8.3690   22.1820 C   0  0  0  0  0  3  0  0  0  0  0  0
  -22.4010   -8.1360   21.4140 C   0  0  0  0  0  0  0  0  0  0  0  0
  -22.0010   -9.0940   20.4640 C   0  0  0  0  0  3  0  0  0  0  0  0
  -22.7360  -10.2790   20.2920 C   0  0  0  0  0  3  0  0  0  0  0  0
  -21.6430   -6.9930   21.4940 O   0  0  0  0  0  0  0  0  0  0  0  0
  -21.5850   -6.2470   22.6450 C   0  0  0  0  0  0  0  0  0  0  0  0
  -21.1520   -6.8000   23.8700 C   0  0  0  0  0  3  0  0  0  0  0  0
  -21.0410   -5.9810   25.0110 C   0  0  0  0  0  3  0  0  0  0  0  0
  -21.3520   -4.6100   24.9280 C   0  0  0  0  0  0  0  0  0  0  0  0
  -21.7780   -4.0570   23.7070 C   0  0  0  0  0  3  0  0  0  0  0  0
  -21.8920   -4.8740   22.5690 C   0  0  0  0  0  0  0  0  0  0  0  0
  -22.2810   -4.3310   21.3890 F   0  0  0  0  0  0  0  0  0  0  0  0
  -21.2400   -3.8210   26.0210 F   0  0  0  0  0  0  0  0  0  0  0  0
  -22.7590  -13.6300   21.1380 C   0  0  0  0  0  0  0  0  0  0  0  0
  -22.0120  -12.9380   21.9920 N   0  0  0  0  0  0  0  0  0  0  0  0
  -22.3340  -14.6530   20.6060 O   0  0  0  0  0  0  0  0  0  0  0  0
  -22.3660  -12.1050   22.4370 H   0  0  0  0  0  0  0  0  0  0  0  0
  -21.0730  -13.2500   22.2040 H   0  0  0  0  0  0  0  0  0  0  0  0
  -25.4170  -15.2740   20.3400 N   0  0  0  0  0  0  0  0  0  0  0  0
  -24.6600  -15.9430   20.4030 H   0  0  0  0  0  0  0  0  0  0  0  0
  -26.2850  -15.6810   20.0160 H   0  0  0  0  0  0  0  0  0  0  0  0
  -28.4990  -25.5150   20.4690 C   0  0  0  0  0  2  0  0  0  0  0  0
  -28.4560  -26.8830   20.1250 O   0  0  0  0  0  0  0  0  0  0  0  0
  -24.5990  -31.8920   23.2760 C   0  0  0  0  0  0  0  0  0  0  0  0
  -27.2440  -27.5110   20.1710 C   0  0  0  0  0  0  0  0  0  0  0  0
  -23.3850  -30.4950   21.6300 C   0  0  0  0  0  3  0  0  0  0  0  0
  -24.8340  -28.9610   20.2030 C   0  0  0  0  0  0  0  0  0  0  0  0
  -25.9020  -30.8700   21.4220 C   0  0  0  0  0  2  0  0  0  0  0  0
  -25.9870  -29.5030   20.7840 C   0  0  0  0  0  0  0  0  0  0  0  0
  -27.1960  -28.7850   20.7640 C   0  0  0  0  0  3  0  0  0  0  0  0
  -26.0780  -26.9640   19.5880 C   0  0  0  0  0  3  0  0  0  0  0  0
  -24.8710  -27.6870   19.6080 C   0  0  0  0  0  3  0  0  0  0  0  0
  -23.5870  -29.8130   20.2490 C   0  0  0  0  0  2  0  0  0  0  0  0
  -24.6470  -31.0980   22.1690 N   0  0  0  0  0  0  0  0  0  0  0  0
  -23.5210  -32.1610   23.8230 O   0  0  0  0  0  0  0  0  0  0  0  0
  -22.7410  -29.4710   22.5900 C   0  0  0  0  0  0  0  0  0  0  0  0
  -21.4170  -29.2870   22.4620 N   0  0  0  0  0  0  0  0  0  0  0  0
  -23.4280  -28.8420   23.3990 O   0  0  0  0  0  0  0  0  0  0  0  0
  -20.9240  -29.8490   21.7820 H   0  0  0  0  0  0  0  0  0  0  0  0
  -18.0470  -28.0870   22.9430 C   0  0  0  0  0  0  0  0  0  0  0  0
  -20.6020  -28.3440   23.2270 C   0  0  0  0  0  3  0  0  0  0  0  0
  -20.7100  -26.9140   22.6490 C   0  0  0  0  0  2  0  0  0  0  0  0
  -19.6130  -26.5920   21.6290 C   0  0  0  0  0  2  0  0  0  0  0  0
  -18.2260  -26.7380   22.2640 C   0  0  0  0  0  2  0  0  0  0  0  0
  -19.1620  -28.8490   23.3800 C   0  0  0  0  0  0  0  0  0  0  0  0
  -18.9420  -30.1120   23.9690 C   0  0  0  0  0  3  0  0  0  0  0  0
  -17.6370  -30.6140   24.1280 C   0  0  0  0  0  3  0  0  0  0  0  0
  -16.5340  -29.8490   23.7100 C   0  0  0  0  0  3  0  0  0  0  0  0
  -16.7390  -28.5870   23.1220 C   0  0  0  0  0  3  0  0  0  0  0  0
  -25.8900  -32.5180   23.8930 C   0  0  0  0  0  3  0  0  0  0  0  0
  -26.4060  -31.7480   25.1690 C   0  0  1  0  0  0  0  0  0  0  0  0
  -25.3140  -31.5200   26.2410 C   0  0  0  0  0  1  0  0  0  0  0  0
  -26.9800  -30.3680   24.7770 C   0  0  0  0  0  1  0  0  0  0  0  0
  -27.5600  -32.5410   25.8310 C   0  0  0  0  0  1  0  0  0  0  0  0
  -25.5910  -33.9190   24.2150 N   0  0  0  0  0  0  0  0  0  0  0  0
  -25.9340  -34.9650   23.4520 C   0  0  0  0  0  0  0  0  0  0  0  0
  -26.6080  -34.8530   22.4240 O   0  0  0  0  0  0  0  0  0  0  0  0
  -24.9980  -34.0810   25.0160 H   0  0  0  0  0  0  0  0  0  0  0  0
  -24.2190  -36.7650   23.0750 C   0  0  0  0  0  1  0  0  0  0  0  0
  -25.4510  -36.3570   23.9000 C   0  0  0  0  0  3  0  0  0  0  0  0
  -27.5860  -37.2280   24.7430 C   0  0  0  0  0  1  0  0  0  0  0  0
  -26.4890  -37.4040   23.7950 N   0  0  0  0  0  0  0  0  0  0  0  0
  -26.0870  -38.3240   23.9490 H   0  0  0  0  0  0  0  0  0  0  0  0
  1  3  1  0
  2  5  1  0
  2  4  1  0
  4  6  1  0
  5  7  1  0
  5  1  1  0
  6  3  1  0
  6 55  1  0
  7  8  1  0
  8 10  1  0
  9 11  2  0
 10  9  1  0
 12 10  1  0
 14 19  1  0
 15 16  1  0
 15 14  1  0
 17 16  1  0
 17 30  1  0
 17 18  1  0
 19 13  1  0
 19 18  1  0
 20 13  2  0
 21 23  1  0
 21 25  1  0
 22 24  1  0
 23 26  1  0
 25  9  1  0
 25 22  1  0
 26 13  1  0
 26 24  1  0
 27 28  2  0
 28 47  1  0
 29 28  1  0
 29 32  1  0
 30 27  1  0
 30 31  1  0
 31 29  2  0
 32 33  1  0
 33 34  2  0
 35 38  1  0
 35 34  1  0
 36 35  2  0
 37 36  1  0
 37 32  2  0
 38 39  1  0
 39 40  1  0
 40 41  2  0
 42 41  1  0
 42 46  1  0
 43 42  2  0
 44 39  2  0
 44 43  1  0
 45 44  1  0
 47 48  1  0
 48 51  1  0
 48 50  1  0
 49 47  2  0
 52 53  1  0
 52 27  1  0
 54 52  1  0
 56 58  1  0
 56 55  1  0
 57 68  2  0
 58 63  1  0
 59 67  1  0
 59 69  1  0
 60 66  1  0
 60 62  1  0
 61 67  1  0
 62 61  1  0
 63 62  2  0
 64 65  1  0
 64 58  2  0
 65 60  2  0
 66 59  1  0
 67 57  1  0
 69 71  2  0
 70 69  1  0
 72 70  1  0
 73 82  2  0
 73 78  1  0
 74 70  1  0
 74 78  1  0
 75 74  1  0
 76 77  1  0
 76 75  1  0
 77 73  1  0
 78 79  2  0
 79 80  1  0
 81 80  2  0
 82 81  1  0
 83 57  1  0
 83 88  1  0
 83 84  1  0
 84 87  1  1
 84 85  1  0
 86 84  1  0
 88 91  1  0
 89 93  1  0
 89 88  1  0
 90 89  2  0
 93 92  1  0
 95 93  1  0
 95 96  1  0
 95 94  1  0
M  ISO  4  13 100  26 100  55 101  56 101
M  END
>  <TORSDO>  (7) 
F 20

>  <SCORE>  (7) 
-13.543

>  <name>  (7) 
6

>  <ligand_id>  (7) 
6

>  <original_smiles>  (7) 
[H]c1c([H])c([H])c2c(c1[H])C([H])([H])C([H])([H])C([H])([H])C2([H])N([H])C(=O)C1([H])N(C(=O)C([H])(N([H])C(=O)C([H])(N([H])C([H])([H])[H])C([H])([H])[H])C(C([H])([H])[H])(C([H])([H])[H])C([H])([H])[H])C([H])([H])c2c([H])c(OC([H])([H])C3([H])C([H])([H])C([H])([H])C([H])(C([H])([H])C([H])([H])N([H])C(=O)C4([H])C([H])([H])C([H])([H])N(C(=O)N5C([H])([H])C([H])([H])C([H])([H])C([H])(n6nc(-c7c([H])c([H])c(Oc8c([H])c([H])c(F)c([H])c8F)c([H])c7[H])c(C(=O)N([H])[H])c6N([H])[H])C5([H])[H])C([H])([H])C4([H])[H])C([H])([H])C3([H])[H])c([H])c([H])c2C1([H])[H]

>  <smiles>  (7) 
[H]c1c([H])c([H])c2c(c1[H])C([H])([H])C([H])([H])C([H])([H])C2([H])N([H])C(=O)C1([H])N(C(=O)C([H])(N([H])C(=O)C([H])(N([H])C([H])([H])[H])C([H])([H])[H])C(C([H])([H])[H])(C([H])([H])[H])C([H])([H])[H])C([H])([H])c2c([H])c(OC([H])([H])C3([H])C([H])([H])C([H])([H])C([H])(C([H])([H])C([H])([H])N([H])C(=O)C4([H])C([H])([H])C([H])([H])N(C(=O)N5C([H])([H])C([H])([H])C([H])([H])C([H])(n6nc(-c7c([H])c([H])c(Oc8c([H])c([H])c(F)c([H])c8F)c([H])c7[H])c(C(=O)N([H])[H])c6N([H])[H])C5([H])[H])C([H])([H])C4([H])[H])C([H])([H])C3([H])[H])c([H])c([H])c2C1([H])[H]

$$$$
7:0:0
     RDKit          3D

101109  0  0  1  0  0  0  0  0999 V2000
  -30.2190  -23.9820   17.6720 C   0  0  0  0  0  2  0  0  0  0  0  0
  -30.5480  -24.8120   18.9210 C   0  0  0  0  0  2  0  0  0  0  0  0
  -30.0200  -22.4890   17.9950 C   0  0  0  0  0  2  0  0  0  0  0  0
  -29.5030  -24.6010   20.0320 C   0  0  0  0  0  3  0  0  0  0  0  0
  -29.3450  -23.0770   20.3500 C   0  0  0  0  0  3  0  0  0  0  0  0
  -29.0780  -22.2440   19.1270 N   0  0  1  0  0  4  0  0  0  0  0  0
  -29.2620  -21.2910   19.4030 H   0  0  0  0  0  0  0  0  0  0  0  0
  -28.1520  -25.3130   19.7430 C   0  0  0  0  0  2  0  0  0  0  0  0
  -28.2320  -26.7340   19.9120 O   0  0  0  0  0  0  0  0  0  0  0  0
  -24.5150  -31.8580   23.1830 C   0  0  0  0  0  0  0  0  0  0  0  0
  -27.0410  -27.4370   19.9610 C   0  0  0  0  0  0  0  0  0  0  0  0
  -23.2500  -30.4880   21.5600 C   0  0  0  0  0  3  0  0  0  0  0  0
  -24.6490  -28.9540   20.0780 C   0  0  0  0  0  0  0  0  0  0  0  0
  -25.7720  -30.8290   21.2900 C   0  0  0  0  0  2  0  0  0  0  0  0
  -25.8280  -29.4640   20.6330 C   0  0  0  0  0  0  0  0  0  0  0  0
  -27.0250  -28.7140   20.5670 C   0  0  0  0  0  3  0  0  0  0  0  0
  -25.8360  -26.9400   19.4100 C   0  0  0  0  0  3  0  0  0  0  0  0
  -24.6460  -27.6910   19.4640 C   0  0  0  0  0  3  0  0  0  0  0  0
  -23.4140  -29.8200   20.1690 C   0  0  0  0  0  2  0  0  0  0  0  0
  -24.5340  -31.0710   22.0710 N   0  0  0  0  0  0  0  0  0  0  0  0
  -23.4520  -32.1320   23.7580 O   0  0  0  0  0  0  0  0  0  0  0  0
  -22.6170  -29.4600   22.5260 C   0  0  0  0  0  0  0  0  0  0  0  0
  -21.2900  -29.2780   22.4230 N   0  0  0  0  0  0  0  0  0  0  0  0
  -23.3150  -28.8290   23.3230 O   0  0  0  0  0  0  0  0  0  0  0  0
  -20.7860  -29.8440   21.7530 H   0  0  0  0  0  0  0  0  0  0  0  0
  -17.9300  -28.0590   22.9530 C   0  0  0  0  0  0  0  0  0  0  0  0
  -20.4880  -28.3340   23.2010 C   0  0  0  0  0  3  0  0  0  0  0  0
  -20.5940  -26.9030   22.6250 C   0  0  0  0  0  2  0  0  0  0  0  0
  -19.4840  -26.5720   21.6210 C   0  0  0  0  0  2  0  0  0  0  0  0
  -18.1090  -26.7090   22.2790 C   0  0  0  0  0  2  0  0  0  0  0  0
  -19.0480  -28.8290   23.3720 C   0  0  0  0  0  0  0  0  0  0  0  0
  -18.8250  -30.0920   23.9630 C   0  0  0  0  0  3  0  0  0  0  0  0
  -17.5190  -30.5860   24.1370 C   0  0  0  0  0  3  0  0  0  0  0  0
  -16.4170  -29.8130   23.7360 C   0  0  0  0  0  3  0  0  0  0  0  0
  -16.6220  -28.5520   23.1490 C   0  0  0  0  0  3  0  0  0  0  0  0
  -25.8240  -32.4710   23.7740 C   0  0  0  0  0  3  0  0  0  0  0  0
  -25.5370  -33.8670   24.1330 N   0  0  0  0  0  0  0  0  0  0  0  0
  -25.8500  -34.9250   23.3730 C   0  0  0  0  0  0  0  0  0  0  0  0
  -26.4820  -34.8280   22.3170 O   0  0  0  0  0  0  0  0  0  0  0  0
  -24.9780  -34.0160   24.9590 H   0  0  0  0  0  0  0  0  0  0  0  0
  -24.1180  -36.7290   23.1040 C   0  0  0  0  0  1  0  0  0  0  0  0
  -25.3880  -36.3110   23.8620 C   0  0  0  0  0  3  0  0  0  0  0  0
  -27.5610  -37.1760   24.6130 C   0  0  0  0  0  1  0  0  0  0  0  0
  -26.4210  -37.3590   23.7180 N   0  0  0  0  0  0  0  0  0  0  0  0
  -26.0280  -38.2810   23.8910 H   0  0  0  0  0  0  0  0  0  0  0  0
  -26.3750  -31.6770   25.0220 C   0  0  1  0  0  0  0  0  0  0  0  0
  -25.3170  -31.4320   26.1230 C   0  0  0  0  0  1  0  0  0  0  0  0
  -26.9300  -30.3000   24.5860 C   0  0  0  0  0  1  0  0  0  0  0  0
  -27.5550  -32.4490   25.6570 C   0  0  0  0  0  1  0  0  0  0  0  0
  -30.5410  -22.4850   21.1580 C   0  0  0  0  0  2  0  0  0  0  0  0
  -30.1200  -21.3630   22.1390 C   0  0  0  0  0  2  0  0  0  0  0  0
  -31.1540  -20.3160   22.3230 N   0  0  0  0  0  4  0  0  0  0  0  0
  -31.8820  -20.6610   22.9290 H   0  0  0  0  0  0  0  0  0  0  0  0
  -31.5780  -20.1060   21.4340 H   0  0  0  0  0  0  0  0  0  0  0  0
  -30.6170  -19.0530   22.8780 C   0  0  0  0  0  2  0  0  0  0  0  0
  -30.9160  -16.5240   23.0440 C   0  0  0  0  0  1  0  0  0  0  0  0
  -31.5670  -17.8630   22.6650 C   0  0  0  0  0  2  0  0  0  0  0  0
  -27.6520  -22.1500   18.7150 C   0  0  0  0  0  2  0  0  0  0  0  0
  -27.2860  -20.7560   18.1620 C   0  0  0  0  0  2  0  0  0  0  0  0
  -27.3340  -19.5890   19.1780 C   0  0  0  0  0  2  0  0  0  0  0  0
  -28.7200  -18.9250   19.3310 C   0  0  0  0  0  2  0  0  0  0  0  0
  -28.6640  -17.5540   20.0340 C   0  0  0  0  0  2  0  0  0  0  0  0
  -30.0490  -16.9130   20.2640 C   0  0  0  0  0  2  0  0  0  0  0  0
  -30.6270  -14.4900   19.9790 C   0  0  0  0  0  0  0  0  0  0  0  0
  -30.2950  -12.2900   18.9210 C   0  0  0  0  0  2  0  0  0  0  0  0
  -29.2850  -12.4720   17.7710 C   0  0  0  0  0  2  0  0  0  0  0  0
  -27.8360  -12.3510   18.2890 C   0  0  0  0  0  2  0  0  0  0  0  0
  -27.5760  -13.2180   19.5520 C   0  0  0  0  0  3  0  0  0  0  0  0
  -28.6930  -13.0100   20.6000 C   0  0  0  0  0  2  0  0  0  0  0  0
  -29.9850  -13.2950   19.9480 N   0  0  0  0  0  0  0  0  0  0  0  0
  -31.7010  -14.7030   19.4080 O   0  0  0  0  0  0  0  0  0  0  0  0
  -29.9040  -15.4810   20.5230 N   0  0  0  0  0  0  0  0  0  0  0  0
  -29.0530  -15.1910   20.9810 H   0  0  0  0  0  0  0  0  0  0  0  0
  -25.2400  -13.8560   20.4310 C   0  0  0  0  0  0  0  0  0  0  0  0
  -24.1910  -13.0980   20.8710 C   0  0  0  0  0  0  0  0  0  0  0  0
  -24.6230  -11.7390   20.7830 C   0  0  0  0  0  0  0  0  0  0  0  0
  -26.2520  -12.9620   20.1150 N   0  0  0  0  0  0  0  0  0  0  0  0
  -25.8860  -11.6810   20.3800 N   0  0  0  0  0  0  0  0  0  0  0  0
  -23.8870  -10.4890   21.0050 C   0  0  0  0  0  0  0  0  0  0  0  0
  -24.3600   -9.4990   21.8950 C   0  0  0  0  0  3  0  0  0  0  0  0
  -23.6250   -8.3110   22.1010 C   0  0  0  0  0  3  0  0  0  0  0  0
  -22.4020   -8.1070   21.4170 C   0  0  0  0  0  0  0  0  0  0  0  0
  -21.9490   -9.0850   20.5130 C   0  0  0  0  0  3  0  0  0  0  0  0
  -22.6850  -10.2620   20.3040 C   0  0  0  0  0  3  0  0  0  0  0  0
  -21.6330   -6.9730   21.5370 O   0  0  0  0  0  0  0  0  0  0  0  0
  -21.6340   -6.2230   22.6850 C   0  0  0  0  0  0  0  0  0  0  0  0
  -21.2970   -6.7780   23.9390 C   0  0  0  0  0  3  0  0  0  0  0  0
  -21.2430   -5.9520   25.0810 C   0  0  0  0  0  3  0  0  0  0  0  0
  -21.5140   -4.5750   24.9700 C   0  0  0  0  0  0  0  0  0  0  0  0
  -21.8410   -4.0220   23.7200 C   0  0  0  0  0  3  0  0  0  0  0  0
  -21.8970   -4.8420   22.5800 C   0  0  0  0  0  0  0  0  0  0  0  0
  -22.1920   -4.2970   21.3750 F   0  0  0  0  0  0  0  0  0  0  0  0
  -21.4540   -3.7830   26.0660 F   0  0  0  0  0  0  0  0  0  0  0  0
  -22.8270  -13.5960   21.2580 C   0  0  0  0  0  0  0  0  0  0  0  0
  -22.1510  -12.8990   22.1670 N   0  0  0  0  0  0  0  0  0  0  0  0
  -22.3700  -14.6370   20.7860 O   0  0  0  0  0  0  0  0  0  0  0  0
  -22.5310  -12.0550   22.5700 H   0  0  0  0  0  0  0  0  0  0  0  0
  -21.2410  -13.2170   22.4690 H   0  0  0  0  0  0  0  0  0  0  0  0
  -25.4100  -15.2280   20.2550 N   0  0  0  0  0  0  0  0  0  0  0  0
  -24.6350  -15.8720   20.3660 H   0  0  0  0  0  0  0  0  0  0  0  0
  -26.2070  -15.6500   19.7960 H   0  0  0  0  0  0  0  0  0  0  0  0
  1  3  1  0
  1  2  1  0
  2  4  1  0
  3  6  1  0
  4  8  1  0
  4  5  1  0
  5 50  1  0
  6  7  1  1
  6  5  1  0
  8  9  1  0
  9 11  1  0
 10 21  2  0
 11 16  1  0
 12 20  1  0
 12 22  1  0
 13 19  1  0
 13 15  1  0
 14 20  1  0
 15 14  1  0
 16 15  2  0
 17 18  1  0
 17 11  2  0
 18 13  2  0
 19 12  1  0
 20 10  1  0
 22 24  2  0
 23 22  1  0
 25 23  1  0
 26 35  2  0
 26 31  1  0
 27 23  1  0
 27 31  1  0
 28 27  1  0
 29 30  1  0
 29 28  1  0
 30 26  1  0
 31 32  2  0
 32 33  1  0
 34 33  2  0
 35 34  1  0
 36 10  1  0
 36 37  1  0
 36 46  1  0
 37 40  1  0
 38 42  1  0
 38 37  1  0
 39 38  2  0
 42 41  1  0
 44 42  1  0
 44 45  1  0
 44 43  1  0
 46 49  1  1
 46 47  1  0
 48 46  1  0
 50 51  1  0
 51 52  1  0
 52 55  1  0
 52 53  1  0
 54 52  1  0
 57 55  1  0
 57 56  1  0
 58  6  1  0
 59 58  1  0
 59 60  1  0
 60 61  1  0
 61 62  1  0
 62 63  1  0
 63 72  1  0
 64 72  1  0
 65 70  1  0
 66 67  1  0
 66 65  1  0
 68 67  1  0
 68 77  1  0
 68 69  1  0
 70 64  1  0
 70 69  1  0
 71 64  2  0
 72 73  1  0
 74 75  2  0
 75 94  1  0
 76 75  1  0
 76 79  1  0
 77 78  1  0
 77 74  1  0
 78 76  2  0
 79 80  1  0
 80 81  2  0
 82 85  1  0
 82 81  1  0
 83 82  2  0
 84 83  1  0
 84 79  2  0
 85 86  1  0
 86 87  1  0
 87 88  2  0
 89 88  1  0
 89 93  1  0
 90 89  2  0
 91 86  2  0
 91 90  1  0
 92 91  1  0
 94 95  1  0
 95 98  1  0
 95 97  1  0
 96 94  2  0
 99100  1  0
 99 74  1  0
101 99  1  0
M  ISO  4   8 101   9 101  64 100  72 100
M  END
>  <TORSDO>  (8) 
F 28

>  <SCORE>  (8) 
-10.262

>  <name>  (8) 
7

>  <ligand_id>  (8) 
7

>  <original_smiles>  (8) 
[H]c1c([H])c([H])c2c(c1[H])C([H])([H])C([H])([H])C([H])([H])C2([H])N([H])C(=O)C1([H])N(C(=O)C([H])(N([H])C(=O)C([H])(N([H])C([H])([H])[H])C([H])([H])[H])C(C([H])([H])[H])(C([H])([H])[H])C([H])([H])[H])C([H])([H])c2c([H])c(OC([H])([H])C3([H])C([H])([H])C([H])([H])C([H])([H])[N+]([H])(C([H])([H])C([H])([H])C([H])([H])C([H])([H])C([H])([H])C([H])([H])N([H])C(=O)N4C([H])([H])C([H])([H])C([H])([H])C([H])(n5nc(-c6c([H])c([H])c(Oc7c([H])c([H])c(F)c([H])c7F)c([H])c6[H])c(C(=O)N([H])[H])c5N([H])[H])C4([H])[H])C3([H])C([H])([H])C([H])([H])[N+]([H])([H])C([H])([H])C([H])([H])C([H])([H])[H])c([H])c([H])c2C1([H])[H]

>  <smiles>  (8) 
[H]c1c([H])c([H])c2c(c1[H])C([H])([H])C([H])([H])C([H])([H])C2([H])N([H])C(=O)C1([H])N(C(=O)C([H])(N([H])C(=O)C([H])(N([H])C([H])([H])[H])C([H])([H])[H])C(C([H])([H])[H])(C([H])([H])[H])C([H])([H])[H])C([H])([H])c2c([H])c(OC([H])([H])C3([H])C([H])([H])C([H])([H])C([H])([H])[N+]([H])(C([H])([H])C([H])([H])C([H])([H])C([H])([H])C([H])([H])C([H])([H])N([H])C(=O)N4C([H])([H])C([H])([H])C([H])([H])C([H])(n5nc(-c6c([H])c([H])c(Oc7c([H])c([H])c(F)c([H])c7F)c([H])c6[H])c(C(=O)N([H])[H])c5N([H])[H])C4([H])[H])C3([H])C([H])([H])C([H])([H])[N+]([H])([H])C([H])([H])C([H])([H])C([H])([H])[H])c([H])c([H])c2C1([H])[H]

$$$$
8:0:0
     RDKit          3D

 96105  0  0  1  0  0  0  0  0999 V2000
  -32.7970  -24.1680   19.3450 C   0  0  0  0  0  2  0  0  0  0  0  0
  -32.3040  -24.7650   18.0370 C   0  0  0  0  0  2  0  0  0  0  0  0
  -31.5420  -23.4850   19.8910 C   0  0  0  0  0  2  0  0  0  0  0  0
  -30.8770  -25.2210   18.3690 C   0  0  0  0  0  3  0  0  0  0  0  0
  -30.3710  -24.2450   19.3750 N   0  0  1  0  0  4  0  0  0  0  0  0
  -29.9960  -24.7900   20.1390 H   0  0  0  0  0  0  0  0  0  0  0  0
  -30.8430  -26.6610   18.9260 C   0  0  0  0  0  2  0  0  0  0  0  0
  -29.4600  -27.3290   18.8740 C   0  0  0  0  0  2  0  0  0  0  0  0
  -28.5470  -26.7170   19.7790 O   0  0  0  0  0  0  0  0  0  0  0  0
  -24.5320  -31.6030   23.0830 C   0  0  0  0  0  0  0  0  0  0  0  0
  -27.3520  -27.3870   19.8610 C   0  0  0  0  0  0  0  0  0  0  0  0
  -23.3790  -30.2130   21.3880 C   0  0  0  0  0  3  0  0  0  0  0  0
  -24.8930  -28.7650   19.9300 C   0  0  0  0  0  0  0  0  0  0  0  0
  -25.8880  -30.6710   21.2130 C   0  0  0  0  0  2  0  0  0  0  0  0
  -26.0250  -29.3240   20.5370 C   0  0  0  0  0  0  0  0  0  0  0  0
  -27.2580  -28.6390   20.5050 C   0  0  0  0  0  3  0  0  0  0  0  0
  -26.2040  -26.8220   19.2730 C   0  0  0  0  0  3  0  0  0  0  0  0
  -24.9740  -27.5090   19.3000 C   0  0  0  0  0  3  0  0  0  0  0  0
  -23.6170  -29.5750   19.9910 C   0  0  0  0  0  2  0  0  0  0  0  0
  -24.6170  -30.8420   21.9540 N   0  0  0  0  0  0  0  0  0  0  0  0
  -23.4410  -31.8220   23.6270 O   0  0  0  0  0  0  0  0  0  0  0  0
  -22.7570  -29.1460   22.3140 C   0  0  0  0  0  0  0  0  0  0  0  0
  -21.4340  -28.9440   22.1880 N   0  0  0  0  0  0  0  0  0  0  0  0
  -23.4580  -28.5020   23.0980 O   0  0  0  0  0  0  0  0  0  0  0  0
  -20.9290  -29.5190   21.5290 H   0  0  0  0  0  0  0  0  0  0  0  0
  -18.0830  -27.6840   22.6710 C   0  0  0  0  0  0  0  0  0  0  0  0
  -20.6410  -27.9600   22.9220 C   0  0  0  0  0  3  0  0  0  0  0  0
  -20.7510  -26.5590   22.2770 C   0  0  0  0  0  2  0  0  0  0  0  0
  -19.6400  -26.2710   21.2620 C   0  0  0  0  0  2  0  0  0  0  0  0
  -18.2660  -26.3700   21.9310 C   0  0  0  0  0  2  0  0  0  0  0  0
  -19.1990  -28.4390   23.1220 C   0  0  0  0  0  0  0  0  0  0  0  0
  -18.9740  -29.6720   23.7720 C   0  0  0  0  0  3  0  0  0  0  0  0
  -17.6670  -30.1500   23.9770 C   0  0  0  0  0  3  0  0  0  0  0  0
  -16.5660  -29.3920   23.5430 C   0  0  0  0  0  3  0  0  0  0  0  0
  -16.7740  -28.1610   22.8960 C   0  0  0  0  0  3  0  0  0  0  0  0
  -25.7970  -32.2510   23.7300 C   0  0  0  0  0  3  0  0  0  0  0  0
  -25.4500  -33.6300   24.0940 N   0  0  0  0  0  0  0  0  0  0  0  0
  -25.7660  -34.7100   23.3670 C   0  0  0  0  0  0  0  0  0  0  0  0
  -26.4520  -34.6510   22.3430 O   0  0  0  0  0  0  0  0  0  0  0  0
  -24.8420  -33.7490   24.8910 H   0  0  0  0  0  0  0  0  0  0  0  0
  -24.0000  -36.4670   23.0310 C   0  0  0  0  0  1  0  0  0  0  0  0
  -25.2380  -36.0730   23.8520 C   0  0  0  0  0  3  0  0  0  0  0  0
  -27.3360  -36.9870   24.7410 C   0  0  0  0  0  1  0  0  0  0  0  0
  -26.2450  -37.1530   23.7840 N   0  0  0  0  0  0  0  0  0  0  0  0
  -25.8140  -38.0590   23.9480 H   0  0  0  0  0  0  0  0  0  0  0  0
  -26.3290  -31.4580   24.9860 C   0  0  1  0  0  0  0  0  0  0  0  0
  -25.2390  -31.1610   26.0420 C   0  0  0  0  0  1  0  0  0  0  0  0
  -26.9510  -30.1090   24.5560 C   0  0  0  0  0  1  0  0  0  0  0  0
  -27.4560  -32.2630   25.6760 C   0  0  0  0  0  1  0  0  0  0  0  0
  -29.2490  -23.4150   18.8580 C   0  0  0  0  0  2  0  0  0  0  0  0
  -28.6320  -22.4060   19.8700 C   0  0  0  0  0  2  0  0  0  0  0  0
  -28.5880  -20.0840   20.9840 C   0  0  0  0  0  2  0  0  0  0  0  0
  -28.9140  -20.2180   18.4820 C   0  0  0  0  0  2  0  0  0  0  0  0
  -28.9000  -18.5510   20.8480 C   0  0  0  0  0  2  0  0  0  0  0  0
  -29.7330  -18.9160   18.4260 C   0  0  0  0  0  2  0  0  0  0  0  0
  -29.1610  -20.9470   19.8240 C   0  0  0  0  0  3  0  0  0  0  0  0
  -29.3770  -17.8710   19.5180 C   0  0  0  0  0  3  0  0  0  0  0  0
  -30.5820  -16.9110   19.7310 C   0  0  0  0  0  2  0  0  0  0  0  0
  -30.9350  -14.4810   19.8720 C   0  0  0  0  0  0  0  0  0  0  0  0
  -30.6250  -12.2130   18.9870 C   0  0  0  0  0  2  0  0  0  0  0  0
  -29.6610  -12.3030   17.7860 C   0  0  0  0  0  2  0  0  0  0  0  0
  -28.1960  -12.2060   18.2590 C   0  0  0  0  0  2  0  0  0  0  0  0
  -27.8810  -13.1610   19.4420 C   0  0  0  0  0  3  0  0  0  0  0  0
  -28.9630  -13.0660   20.5440 C   0  0  0  0  0  2  0  0  0  0  0  0
  -30.2710  -13.3000   19.9120 N   0  0  0  0  0  0  0  0  0  0  0  0
  -32.0650  -14.6050   19.3860 O   0  0  0  0  0  0  0  0  0  0  0  0
  -30.2050  -15.5670   20.1790 N   0  0  0  0  0  0  0  0  0  0  0  0
  -29.2800  -15.4290   20.5550 H   0  0  0  0  0  0  0  0  0  0  0  0
  -25.5210  -13.8270   20.2210 C   0  0  0  0  0  0  0  0  0  0  0  0
  -24.4560  -13.0830   20.6520 C   0  0  0  0  0  0  0  0  0  0  0  0
  -24.8920  -11.7230   20.6380 C   0  0  0  0  0  0  0  0  0  0  0  0
  -26.5430  -12.9220   19.9760 N   0  0  0  0  0  0  0  0  0  0  0  0
  -26.1690  -11.6530   20.2830 N   0  0  0  0  0  0  0  0  0  0  0  0
  -24.1510  -10.4790   20.8880 C   0  0  0  0  0  0  0  0  0  0  0  0
  -24.5680   -9.5570   21.8710 C   0  0  0  0  0  3  0  0  0  0  0  0
  -23.8330   -8.3750   22.1060 C   0  0  0  0  0  3  0  0  0  0  0  0
  -22.6630   -8.1100   21.3540 C   0  0  0  0  0  0  0  0  0  0  0  0
  -22.2630   -9.0210   20.3590 C   0  0  0  0  0  3  0  0  0  0  0  0
  -23.0010  -10.1930   20.1260 C   0  0  0  0  0  3  0  0  0  0  0  0
  -21.8960   -6.9790   21.4980 O   0  0  0  0  0  0  0  0  0  0  0  0
  -21.7980   -6.3230   22.6990 C   0  0  0  0  0  0  0  0  0  0  0  0
  -21.3280   -6.9680   23.8640 C   0  0  0  0  0  3  0  0  0  0  0  0
  -21.1740   -6.2380   25.0600 C   0  0  0  0  0  3  0  0  0  0  0  0
  -21.4820   -4.8640   25.0900 C   0  0  0  0  0  0  0  0  0  0  0  0
  -21.9430   -4.2200   23.9290 C   0  0  0  0  0  3  0  0  0  0  0  0
  -22.0990   -4.9460   22.7360 C   0  0  0  0  0  0  0  0  0  0  0  0
  -22.5240   -4.3140   21.6160 F   0  0  0  0  0  0  0  0  0  0  0  0
  -21.3230   -4.1610   26.2350 F   0  0  0  0  0  0  0  0  0  0  0  0
  -23.0790  -13.5930   20.9710 C   0  0  0  0  0  0  0  0  0  0  0  0
  -22.3790  -12.9370   21.8900 N   0  0  0  0  0  0  0  0  0  0  0  0
  -22.6350  -14.6110   20.4420 O   0  0  0  0  0  0  0  0  0  0  0  0
  -22.7480  -12.1150   22.3430 H   0  0  0  0  0  0  0  0  0  0  0  0
  -21.4560  -13.2640   22.1420 H   0  0  0  0  0  0  0  0  0  0  0  0
  -25.7010  -15.1880   19.9960 N   0  0  0  0  0  0  0  0  0  0  0  0
  -24.9340  -15.8470   20.0720 H   0  0  0  0  0  0  0  0  0  0  0  0
  -26.5440  -15.6060   19.6240 H   0  0  0  0  0  0  0  0  0  0  0  0
  1  3  1  0
  2  4  1  0
  2  1  1  0
  4  7  1  0
  4  5  1  0
  5  3  1  0
  5  6  1  1
  8  7  1  0
  8  9  1  0
  9 11  1  0
 10 21  2  0
 11 16  1  0
 12 20  1  0
 12 22  1  0
 13 19  1  0
 13 15  1  0
 14 20  1  0
 15 14  1  0
 16 15  2  0
 17 18  1  0
 17 11  2  0
 18 13  2  0
 19 12  1  0
 20 10  1  0
 22 24  2  0
 23 22  1  0
 25 23  1  0
 26 35  2  0
 26 31  1  0
 27 23  1  0
 27 31  1  0
 28 27  1  0
 29 30  1  0
 29 28  1  0
 30 26  1  0
 31 32  2  0
 32 33  1  0
 34 33  2  0
 35 34  1  0
 36 10  1  0
 36 37  1  0
 36 46  1  0
 37 40  1  0
 38 42  1  0
 38 37  1  0
 39 38  2  0
 42 41  1  0
 44 42  1  0
 44 45  1  0
 44 43  1  0
 46 49  1  1
 46 47  1  0
 48 46  1  0
 50  5  1  0
 50 51  1  0
 53 56  1  0
 54 52  1  0
 55 53  1  0
 55 57  1  0
 56 51  1  0
 56 52  1  0
 57 58  1  0
 57 54  1  0
 58 67  1  0
 59 65  1  0
 59 67  1  0
 60 65  1  0
 61 62  1  0
 61 60  1  0
 63 62  1  0
 63 72  1  0
 63 64  1  0
 65 64  1  0
 66 59  2  0
 67 68  1  0
 69 70  2  0
 70 89  1  0
 71 70  1  0
 71 74  1  0
 72 69  1  0
 72 73  1  0
 73 71  2  0
 74 75  1  0
 75 76  2  0
 77 80  1  0
 77 76  1  0
 78 77  2  0
 79 78  1  0
 79 74  2  0
 80 81  1  0
 81 86  2  0
 81 82  1  0
 82 83  2  0
 83 84  1  0
 84 88  1  0
 85 84  2  0
 86 85  1  0
 87 86  1  0
 89 90  1  0
 90 93  1  0
 90 92  1  0
 91 89  2  0
 94 95  1  0
 94 69  1  0
 96 94  1  0
M  ISO  4   8 101   9 101  59 100  67 100
M  END
>  <TORSDO>  (9) 
F 22

>  <SCORE>  (9) 
-12.243

>  <name>  (9) 
8

>  <ligand_id>  (9) 
8

>  <original_smiles>  (9) 
[H]c1c([H])c([H])c2c(c1[H])C([H])([H])C([H])([H])C([H])([H])C2([H])N([H])C(=O)C1([H])N(C(=O)C([H])(N([H])C(=O)C([H])(N([H])C([H])([H])[H])C([H])([H])[H])C(C([H])([H])[H])(C([H])([H])[H])C([H])([H])[H])C([H])([H])c2c([H])c(OC([H])([H])C([H])([H])C3([H])C([H])([H])C([H])([H])C([H])([H])[N+]3([H])C([H])([H])C([H])([H])C3([H])C([H])([H])C([H])([H])C([H])(C([H])([H])N([H])C(=O)N4C([H])([H])C([H])([H])C([H])([H])C([H])(n5nc(-c6c([H])c([H])c(Oc7c([H])c([H])c(F)c([H])c7F)c([H])c6[H])c(C(=O)N([H])[H])c5N([H])[H])C4([H])[H])C([H])([H])C3([H])[H])c([H])c([H])c2C1([H])[H]

>  <smiles>  (9) 
[H]c1c([H])c([H])c2c(c1[H])C([H])([H])C([H])([H])C([H])([H])C2([H])N([H])C(=O)C1([H])N(C(=O)C([H])(N([H])C(=O)C([H])(N([H])C([H])([H])[H])C([H])([H])[H])C(C([H])([H])[H])(C([H])([H])[H])C([H])([H])[H])C([H])([H])c2c([H])c(OC([H])([H])C([H])([H])C3([H])C([H])([H])C([H])([H])C([H])([H])[N+]3([H])C([H])([H])C([H])([H])C3([H])C([H])([H])C([H])([H])C([H])(C([H])([H])N([H])C(=O)N4C([H])([H])C([H])([H])C([H])([H])C([H])(n5nc(-c6c([H])c([H])c(Oc7c([H])c([H])c(F)c([H])c7F)c([H])c6[H])c(C(=O)N([H])[H])c5N([H])[H])C4([H])[H])C([H])([H])C3([H])[H])c([H])c([H])c2C1([H])[H]

$$$$
9:0:0
     RDKit          3D

 95104  0  0  1  0  0  0  0  0999 V2000
  -28.8040  -24.0390   21.8240 C   0  0  0  0  0  3  0  0  0  0  0  0
  -29.4520  -23.4670   20.7850 C   0  0  0  0  0  0  0  0  0  0  0  0
  -28.7250  -25.5390   22.1140 C   0  0  0  0  0  2  0  0  0  0  0  0
  -30.0690  -24.3760   19.7300 C   0  0  0  0  0  2  0  0  0  0  0  0
  -30.5100  -25.7270   20.3160 C   0  0  0  0  0  2  0  0  0  0  0  0
  -29.3800  -26.4780   21.0600 C   0  0  2  0  0  0  0  0  0  0  0  0
  -30.6680  -21.3430   20.1990 C   0  0  0  0  0  3  0  0  0  0  0  0
  -28.3390  -21.1930   20.8820 C   0  0  0  0  0  3  0  0  0  0  0  0
  -30.7100  -19.9450   20.0250 C   0  0  0  0  0  3  0  0  0  0  0  0
  -28.3860  -19.7910   20.7190 C   0  0  0  0  0  3  0  0  0  0  0  0
  -29.4770  -21.9880   20.6090 C   0  0  0  0  0  0  0  0  0  0  0  0
  -29.5700  -19.1560   20.2860 C   0  0  0  0  0  0  0  0  0  0  0  0
  -29.6070  -17.6450   20.0790 C   0  0  0  0  0  2  0  0  0  0  0  0
  -30.5010  -16.8950   21.0930 C   0  0  0  0  0  2  0  0  0  0  0  0
  -30.9400  -14.4980   20.4480 C   0  0  0  0  0  0  0  0  0  0  0  0
  -30.6490  -12.3510   19.2680 C   0  0  0  0  0  2  0  0  0  0  0  0
  -29.7110  -12.5730   18.0630 C   0  0  0  0  0  2  0  0  0  0  0  0
  -28.2290  -12.4670   18.4790 C   0  0  0  0  0  2  0  0  0  0  0  0
  -27.9000  -13.3010   19.7460 C   0  0  0  0  0  3  0  0  0  0  0  0
  -28.9400  -13.0260   20.8570 C   0  0  0  0  0  2  0  0  0  0  0  0
  -30.2770  -13.3200   20.3090 N   0  0  0  0  0  0  0  0  0  0  0  0
  -32.0420  -14.7220   19.9400 O   0  0  0  0  0  0  0  0  0  0  0  0
  -30.2340  -15.4550   21.0680 N   0  0  0  0  0  0  0  0  0  0  0  0
  -29.3600  -15.1530   21.4710 H   0  0  0  0  0  0  0  0  0  0  0  0
  -25.5010  -13.9570   20.4210 C   0  0  0  0  0  0  0  0  0  0  0  0
  -24.4180  -13.2030   20.7850 C   0  0  0  0  0  0  0  0  0  0  0  0
  -24.8580  -11.8450   20.7690 C   0  0  0  0  0  0  0  0  0  0  0  0
  -26.5360  -13.0570   20.2090 N   0  0  0  0  0  0  0  0  0  0  0  0
  -26.1490  -11.7830   20.4740 N   0  0  0  0  0  0  0  0  0  0  0  0
  -24.1110  -10.5950   20.9600 C   0  0  0  0  0  0  0  0  0  0  0  0
  -24.5020   -9.6410   21.9260 C   0  0  0  0  0  3  0  0  0  0  0  0
  -23.7560   -8.4560   22.1030 C   0  0  0  0  0  3  0  0  0  0  0  0
  -22.6060   -8.2160   21.3140 C   0  0  0  0  0  0  0  0  0  0  0  0
  -22.2360   -9.1570   20.3380 C   0  0  0  0  0  3  0  0  0  0  0  0
  -22.9820  -10.3340   20.1590 C   0  0  0  0  0  3  0  0  0  0  0  0
  -21.8350   -7.0810   21.3990 O   0  0  0  0  0  0  0  0  0  0  0  0
  -21.7140   -6.3800   22.5720 C   0  0  0  0  0  0  0  0  0  0  0  0
  -21.2030   -6.9750   23.7460 C   0  0  0  0  0  3  0  0  0  0  0  0
  -21.0310   -6.1990   24.9100 C   0  0  0  0  0  3  0  0  0  0  0  0
  -21.3580   -4.8300   24.9000 C   0  0  0  0  0  0  0  0  0  0  0  0
  -21.8610   -4.2350   23.7300 C   0  0  0  0  0  3  0  0  0  0  0  0
  -22.0360   -5.0080   22.5690 C   0  0  0  0  0  0  0  0  0  0  0  0
  -22.5020   -4.4250   21.4380 F   0  0  0  0  0  0  0  0  0  0  0  0
  -21.1840   -4.0840   26.0160 F   0  0  0  0  0  0  0  0  0  0  0  0
  -23.0250  -13.7030   21.0420 C   0  0  0  0  0  0  0  0  0  0  0  0
  -22.2820  -13.0300   21.9130 N   0  0  0  0  0  0  0  0  0  0  0  0
  -22.6030  -14.7260   20.5040 O   0  0  0  0  0  0  0  0  0  0  0  0
  -22.6330  -12.1990   22.3690 H   0  0  0  0  0  0  0  0  0  0  0  0
  -21.3470  -13.3470   22.1270 H   0  0  0  0  0  0  0  0  0  0  0  0
  -25.6880  -15.3220   20.2330 N   0  0  0  0  0  0  0  0  0  0  0  0
  -24.9270  -15.9870   20.3250 H   0  0  0  0  0  0  0  0  0  0  0  0
  -26.5390  -15.7430   19.8850 H   0  0  0  0  0  0  0  0  0  0  0  0
  -31.2930  -27.6360   22.4600 C   0  0  0  0  0  1  0  0  0  0  0  0
  -29.9510  -27.7670   21.7180 C   0  0  0  0  0  2  0  0  0  0  0  0
  -28.4510  -26.7640   19.9920 O   0  0  0  0  0  0  0  0  0  0  0  0
  -24.5240  -31.8710   23.1790 C   0  0  0  0  0  0  0  0  0  0  0  0
  -27.2830  -27.4930   20.1350 C   0  0  0  0  0  0  0  0  0  0  0  0
  -23.3510  -30.4620   21.5160 C   0  0  0  0  0  3  0  0  0  0  0  0
  -24.8400  -28.9360   20.1190 C   0  0  0  0  0  0  0  0  0  0  0  0
  -25.8670  -30.8610   21.3410 C   0  0  0  0  0  2  0  0  0  0  0  0
  -25.9790  -29.4890   20.7120 C   0  0  0  0  0  0  0  0  0  0  0  0
  -27.1980  -28.7850   20.7090 C   0  0  0  0  0  3  0  0  0  0  0  0
  -26.1240  -26.9510   19.5430 C   0  0  0  0  0  3  0  0  0  0  0  0
  -24.9030  -27.6580   19.5350 C   0  0  0  0  0  3  0  0  0  0  0  0
  -23.5870  -29.7810   20.1400 C   0  0  0  0  0  2  0  0  0  0  0  0
  -24.5980  -31.0790   22.0710 N   0  0  0  0  0  0  0  0  0  0  0  0
  -23.4350  -32.1300   23.7090 O   0  0  0  0  0  0  0  0  0  0  0  0
  -22.7010  -29.4320   22.4680 C   0  0  0  0  0  0  0  0  0  0  0  0
  -21.3750  -29.2640   22.3470 N   0  0  0  0  0  0  0  0  0  0  0  0
  -23.3850  -28.7900   23.2700 O   0  0  0  0  0  0  0  0  0  0  0  0
  -20.8840  -29.8400   21.6770 H   0  0  0  0  0  0  0  0  0  0  0  0
  -17.9880  -28.1300   22.8770 C   0  0  0  0  0  0  0  0  0  0  0  0
  -20.5560  -28.3210   23.1060 C   0  0  0  0  0  3  0  0  0  0  0  0
  -20.6150  -26.9060   22.4840 C   0  0  0  0  0  2  0  0  0  0  0  0
  -19.4840  -26.6390   21.4850 C   0  0  0  0  0  2  0  0  0  0  0  0
  -18.1190  -26.7960   22.1610 C   0  0  0  0  0  2  0  0  0  0  0  0
  -19.1330  -28.8520   23.3090 C   0  0  0  0  0  0  0  0  0  0  0  0
  -18.9570  -30.1010   23.9400 C   0  0  0  0  0  3  0  0  0  0  0  0
  -17.6680  -30.6290   24.1470 C   0  0  0  0  0  3  0  0  0  0  0  0
  -16.5380  -29.9020   23.7320 C   0  0  0  0  0  3  0  0  0  0  0  0
  -16.6990  -28.6550   23.1030 C   0  0  0  0  0  3  0  0  0  0  0  0
  -25.8000  -32.5080   23.8150 C   0  0  0  0  0  3  0  0  0  0  0  0
  -26.3200  -31.7280   25.0840 C   0  0  1  0  0  0  0  0  0  0  0  0
  -25.2210  -31.4560   26.1370 C   0  0  0  0  0  1  0  0  0  0  0  0
  -26.9330  -30.3680   24.6730 C   0  0  0  0  0  1  0  0  0  0  0  0
  -27.4440  -32.5370   25.7720 C   0  0  0  0  0  1  0  0  0  0  0  0
  -25.4730  -33.8990   24.1550 N   0  0  0  0  0  0  0  0  0  0  0  0
  -25.8350  -34.9630   23.4260 C   0  0  0  0  0  0  0  0  0  0  0  0
  -26.5480  -34.8780   22.4220 O   0  0  0  0  0  0  0  0  0  0  0  0
  -24.8330  -34.0370   24.9240 H   0  0  0  0  0  0  0  0  0  0  0  0
  -24.1380  -36.7700   23.0080 C   0  0  0  0  0  1  0  0  0  0  0  0
  -25.3250  -36.3410   23.8850 C   0  0  0  0  0  3  0  0  0  0  0  0
  -27.4060  -37.1950   24.8670 C   0  0  0  0  0  1  0  0  0  0  0  0
  -26.3650  -37.3920   23.8630 N   0  0  0  0  0  0  0  0  0  0  0  0
  -25.9520  -38.3080   24.0100 H   0  0  0  0  0  0  0  0  0  0  0  0
  1  3  1  0
  2  1  2  0
  4  5  1  0
  4  2  1  0
  5  6  1  0
  6 54  1  1
  6  3  1  0
  7 11  1  0
  9  7  2  0
  9 12  1  0
 10  8  1  0
 11  2  1  0
 11  8  2  0
 12 10  2  0
 13 12  1  0
 13 14  1  0
 15 23  1  0
 16 21  1  0
 17 18  1  0
 17 16  1  0
 19 18  1  0
 19 28  1  0
 19 20  1  0
 21 15  1  0
 21 20  1  0
 22 15  2  0
 23 14  1  0
 23 24  1  0
 25 26  2  0
 26 45  1  0
 27 26  1  0
 27 30  1  0
 28 25  1  0
 28 29  1  0
 29 27  2  0
 30 31  1  0
 31 32  2  0
 33 36  1  0
 33 32  1  0
 34 33  2  0
 35 34  1  0
 35 30  2  0
 36 37  1  0
 37 38  1  0
 38 39  2  0
 40 39  1  0
 40 44  1  0
 41 40  2  0
 42 37  2  0
 42 41  1  0
 43 42  1  0
 45 46  1  0
 46 49  1  0
 46 48  1  0
 47 45  2  0
 50 51  1  0
 50 25  1  0
 52 50  1  0
 54 53  1  0
 55 57  1  0
 55  6  1  0
 56 67  2  0
 57 62  1  0
 58 66  1  0
 58 68  1  0
 59 65  1  0
 59 61  1  0
 60 66  1  0
 61 60  1  0
 62 61  2  0
 63 57  2  0
 64 63  1  0
 64 59  2  0
 65 58  1  0
 66 56  1  0
 68 70  2  0
 69 68  1  0
 71 69  1  0
 72 81  2  0
 72 77  1  0
 73 69  1  0
 73 77  1  0
 74 73  1  0
 75 76  1  0
 75 74  1  0
 76 72  1  0
 77 78  2  0
 78 79  1  0
 80 79  2  0
 81 80  1  0
 82 56  1  0
 82 87  1  0
 82 83  1  0
 83 86  1  1
 83 84  1  0
 85 83  1  0
 87 90  1  0
 88 92  1  0
 88 87  1  0
 89 88  2  0
 92 91  1  0
 94 92  1  0
 94 95  1  0
 94 93  1  0
M  ISO  4   6 101  15 100  23 100  55 101
M  END
>  <TORSDO>  (10) 
F 20

>  <SCORE>  (10) 
-14.163

>  <name>  (10) 
9

>  <ligand_id>  (10) 
9

>  <original_smiles>  (10) 
[H]C1=C(c2c([H])c([H])c(C([H])([H])C([H])([H])N([H])C(=O)N3C([H])([H])C([H])([H])C([H])([H])C([H])(n4nc(-c5c([H])c([H])c(Oc6c([H])c([H])c(F)c([H])c6F)c([H])c5[H])c(C(=O)N([H])[H])c4N([H])[H])C3([H])[H])c([H])c2[H])C([H])([H])C([H])([H])C(Oc2c([H])c([H])c3c(c2[H])C([H])([H])N(C(=O)C([H])(N([H])C(=O)C([H])(N([H])C([H])([H])[H])C([H])([H])[H])C(C([H])([H])[H])(C([H])([H])[H])C([H])([H])[H])C([H])(C(=O)N([H])C2([H])c4c([H])c([H])c([H])c([H])c4C([H])([H])C([H])([H])C2([H])[H])C3([H])[H])(C([H])([H])C([H])([H])[H])C1([H])[H]

>  <smiles>  (10) 
[H]C1=C(c2c([H])c([H])c(C([H])([H])C([H])([H])N([H])C(=O)N3C([H])([H])C([H])([H])C([H])([H])C([H])(n4nc(-c5c([H])c([H])c(Oc6c([H])c([H])c(F)c([H])c6F)c([H])c5[H])c(C(=O)N([H])[H])c4N([H])[H])C3([H])[H])c([H])c2[H])C([H])([H])C([H])([H])C(Oc2c([H])c([H])c3c(c2[H])C([H])([H])N(C(=O)C([H])(N([H])C(=O)C([H])(N([H])C([H])([H])[H])C([H])([H])[H])C(C([H])([H])[H])(C([H])([H])[H])C([H])([H])[H])C([H])(C(=O)N([H])C2([H])c4c([H])c([H])c([H])c([H])c4C([H])([H])C([H])([H])C2([H])[H])C3([H])[H])(C([H])([H])C([H])([H])[H])C1([H])[H]

$$$$
10:0:0
     RDKit          3D

 91 99  0  0  1  0  0  0  0  0999 V2000
  -26.8710  -24.6720   21.4850 C   0  0  0  0  0  0  0  0  0  0  0  0
  -26.1370  -23.3720   21.2540 C   0  0  0  0  0  2  0  0  0  0  0  0
  -27.1260  -22.2120   21.4460 C   0  0  0  0  0  2  0  0  0  0  0  0
  -28.9780  -23.8520   20.5270 C   0  0  0  0  0  2  0  0  0  0  0  0
  -27.8630  -24.9950   20.3620 C   0  0  0  0  0  3  0  0  0  0  0  0
  -28.4410  -22.3290   20.6060 C   0  0  0  0  0  3  0  0  0  0  0  0
  -26.7790  -25.3240   22.5710 N   0  0  0  0  0  0  0  0  0  0  0  0
  -26.1510  -24.8680   23.2250 H   0  0  0  0  0  0  0  0  0  0  0  0
  -28.2170  -26.4580   20.2820 O   0  0  0  0  0  0  0  0  0  0  0  0
  -24.5600  -31.9200   23.2280 C   0  0  0  0  0  0  0  0  0  0  0  0
  -27.1620  -27.3840   20.1450 C   0  0  0  0  0  0  0  0  0  0  0  0
  -23.3490  -30.5260   21.5870 C   0  0  0  0  0  3  0  0  0  0  0  0
  -24.8050  -29.0160   20.1240 C   0  0  0  0  0  0  0  0  0  0  0  0
  -25.8890  -30.8580   21.3950 C   0  0  0  0  0  2  0  0  0  0  0  0
  -25.9750  -29.4890   20.7330 C   0  0  0  0  0  0  0  0  0  0  0  0
  -27.1550  -28.6840   20.7470 C   0  0  0  0  0  3  0  0  0  0  0  0
  -25.9900  -27.0030   19.4520 C   0  0  0  0  0  3  0  0  0  0  0  0
  -24.8170  -27.7800   19.4650 C   0  0  0  0  0  3  0  0  0  0  0  0
  -23.5620  -29.8790   20.1960 C   0  0  0  0  0  2  0  0  0  0  0  0
  -24.6210  -31.1210   22.1260 N   0  0  0  0  0  0  0  0  0  0  0  0
  -23.4830  -32.1860   23.7740 O   0  0  0  0  0  0  0  0  0  0  0  0
  -22.7030  -29.4940   22.5400 C   0  0  0  0  0  0  0  0  0  0  0  0
  -21.3740  -29.3260   22.4540 N   0  0  0  0  0  0  0  0  0  0  0  0
  -23.4020  -28.8410   23.3220 O   0  0  0  0  0  0  0  0  0  0  0  0
  -20.8600  -29.9550   21.8550 H   0  0  0  0  0  0  0  0  0  0  0  0
  -18.0230  -28.0650   22.9260 C   0  0  0  0  0  0  0  0  0  0  0  0
  -20.5750  -28.3630   23.2120 C   0  0  0  0  0  3  0  0  0  0  0  0
  -20.7080  -26.9330   22.6320 C   0  0  0  0  0  2  0  0  0  0  0  0
  -19.6140  -26.5740   21.6190 C   0  0  0  0  0  2  0  0  0  0  0  0
  -18.2230  -26.7140   22.2540 C   0  0  0  0  0  2  0  0  0  0  0  0
  -19.1300  -28.8440   23.3590 C   0  0  0  0  0  0  0  0  0  0  0  0
  -18.8930  -30.1080   23.9490 C   0  0  0  0  0  3  0  0  0  0  0  0
  -17.5820  -30.5810   24.1170 C   0  0  0  0  0  3  0  0  0  0  0  0
  -16.4900  -29.8010   23.7060 C   0  0  0  0  0  3  0  0  0  0  0  0
  -16.7110  -28.5430   23.1130 C   0  0  0  0  0  3  0  0  0  0  0  0
  -25.8480  -32.5640   23.8400 C   0  0  0  0  0  3  0  0  0  0  0  0
  -26.3790  -31.7940   25.1120 C   0  0  1  0  0  0  0  0  0  0  0  0
  -25.2950  -31.5530   26.1870 C   0  0  0  0  0  1  0  0  0  0  0  0
  -26.9660  -30.4200   24.7170 C   0  0  0  0  0  1  0  0  0  0  0  0
  -27.5290  -32.5960   25.7660 C   0  0  0  0  0  1  0  0  0  0  0  0
  -25.5290  -33.9590   24.1730 N   0  0  0  0  0  0  0  0  0  0  0  0
  -25.8480  -35.0160   23.4190 C   0  0  0  0  0  0  0  0  0  0  0  0
  -26.5100  -34.9220   22.3840 O   0  0  0  0  0  0  0  0  0  0  0  0
  -24.9430  -34.1070   24.9820 H   0  0  0  0  0  0  0  0  0  0  0  0
  -24.1030  -36.7970   23.0830 C   0  0  0  0  0  1  0  0  0  0  0  0
  -25.3560  -36.4000   23.8820 C   0  0  0  0  0  3  0  0  0  0  0  0
  -27.4860  -37.2980   24.7030 C   0  0  0  0  0  1  0  0  0  0  0  0
  -26.3780  -37.4610   23.7680 N   0  0  0  0  0  0  0  0  0  0  0  0
  -25.9650  -38.3760   23.9290 H   0  0  0  0  0  0  0  0  0  0  0  0
  -29.4540  -21.2070   21.1050 C   0  0  0  0  0  2  0  0  0  0  0  0
  -29.6840  -19.9150   20.1930 C   0  0  0  0  0  2  0  0  0  0  0  0
  -29.3960  -18.4330   20.7140 C   0  0  0  0  0  3  0  0  0  0  0  0
  -30.2680  -17.2850   20.0430 C   0  0  0  0  0  3  0  0  0  0  0  0
  -30.6630  -14.7410   20.1670 C   0  0  0  0  0  0  0  0  0  0  0  0
  -30.3910  -12.5100   19.1440 C   0  0  0  0  0  2  0  0  0  0  0  0
  -29.4300  -12.6170   17.9430 C   0  0  0  0  0  2  0  0  0  0  0  0
  -27.9570  -12.5020   18.3910 C   0  0  0  0  0  2  0  0  0  0  0  0
  -27.6230  -13.3720   19.6340 C   0  0  0  0  0  3  0  0  0  0  0  0
  -28.6990  -13.2340   20.7270 C   0  0  0  0  0  2  0  0  0  0  0  0
  -30.0010  -13.5450   20.1180 N   0  0  0  0  0  0  0  0  0  0  0  0
  -31.8420  -14.8440   19.8170 O   0  0  0  0  0  0  0  0  0  0  0  0
  -29.8910  -15.8580   20.3450 N   0  0  0  0  0  0  0  0  0  0  0  0
  -28.9040  -15.6940   20.4680 H   0  0  0  0  0  0  0  0  0  0  0  0
  -25.2520  -13.9690   20.4160 C   0  0  0  0  0  0  0  0  0  0  0  0
  -24.1940  -13.1910   20.8150 C   0  0  0  0  0  0  0  0  0  0  0  0
  -24.6580  -11.8420   20.7760 C   0  0  0  0  0  0  0  0  0  0  0  0
  -26.2900  -13.0880   20.1570 N   0  0  0  0  0  0  0  0  0  0  0  0
  -25.9410  -11.8050   20.4340 N   0  0  0  0  0  0  0  0  0  0  0  0
  -23.9370  -10.5780   20.9830 C   0  0  0  0  0  0  0  0  0  0  0  0
  -24.3920   -9.6090   21.9040 C   0  0  0  0  0  3  0  0  0  0  0  0
  -23.6670   -8.4150   22.1050 C   0  0  0  0  0  3  0  0  0  0  0  0
  -22.4740   -8.1810   21.3820 C   0  0  0  0  0  0  0  0  0  0  0  0
  -22.0370   -9.1360   20.4490 C   0  0  0  0  0  3  0  0  0  0  0  0
  -22.7630  -10.3210   20.2460 C   0  0  0  0  0  3  0  0  0  0  0  0
  -21.7190   -7.0360   21.4870 O   0  0  0  0  0  0  0  0  0  0  0  0
  -21.7050   -6.2880   22.6360 C   0  0  0  0  0  0  0  0  0  0  0  0
  -21.3390   -6.8420   23.8820 C   0  0  0  0  0  3  0  0  0  0  0  0
  -21.2700   -6.0210   25.0270 C   0  0  0  0  0  3  0  0  0  0  0  0
  -21.5600   -4.6470   24.9250 C   0  0  0  0  0  0  0  0  0  0  0  0
  -21.9200   -4.0930   23.6840 C   0  0  0  0  0  3  0  0  0  0  0  0
  -21.9900   -4.9110   22.5430 C   0  0  0  0  0  0  0  0  0  0  0  0
  -22.3160   -4.3690   21.3450 F   0  0  0  0  0  0  0  0  0  0  0  0
  -21.4870   -3.8560   26.0200 F   0  0  0  0  0  0  0  0  0  0  0  0
  -22.8030  -13.6710   21.1130 C   0  0  0  0  0  0  0  0  0  0  0  0
  -22.0910  -12.9780   21.9990 N   0  0  0  0  0  0  0  0  0  0  0  0
  -22.3540  -14.6910   20.5960 O   0  0  0  0  0  0  0  0  0  0  0  0
  -22.4640  -12.1510   22.4400 H   0  0  0  0  0  0  0  0  0  0  0  0
  -21.1590  -13.2840   22.2410 H   0  0  0  0  0  0  0  0  0  0  0  0
  -25.4070  -15.3380   20.2310 N   0  0  0  0  0  0  0  0  0  0  0  0
  -24.6360  -15.9900   20.3540 H   0  0  0  0  0  0  0  0  0  0  0  0
  -26.2370  -15.7770   19.8510 H   0  0  0  0  0  0  0  0  0  0  0  0
  1  7  2  0
  2  3  1  0
  2  1  1  0
  4  6  1  0
  5  9  1  0
  5  4  1  0
  5  1  1  0
  6 50  1  0
  6  3  1  0
  7  8  1  0
 10 21  2  0
 11  9  1  0
 11 16  1  0
 12 20  1  0
 12 22  1  0
 13 19  1  0
 13 15  1  0
 14 20  1  0
 15 16  2  0
 15 14  1  0
 17 18  1  0
 17 11  2  0
 18 13  2  0
 19 12  1  0
 20 10  1  0
 22 24  2  0
 23 22  1  0
 25 23  1  0
 26 35  2  0
 26 31  1  0
 27 23  1  0
 27 31  1  0
 28 27  1  0
 29 30  1  0
 29 28  1  0
 30 26  1  0
 31 32  2  0
 32 33  1  0
 34 33  2  0
 35 34  1  0
 36 10  1  0
 36 41  1  0
 36 37  1  0
 37 40  1  1
 37 38  1  0
 39 37  1  0
 41 44  1  0
 42 46  1  0
 42 41  1  0
 43 42  2  0
 46 45  1  0
 48 46  1  0
 48 49  1  0
 48 47  1  0
 51 52  1  0
 51 50  1  0
 53 62  1  0
 53 52  2  0
 54 62  1  0
 55 60  1  0
 56 57  1  0
 56 55  1  0
 58 57  1  0
 58 67  1  0
 58 59  1  0
 60 54  1  0
 60 59  1  0
 61 54  2  0
 62 63  1  0
 64 65  2  0
 65 84  1  0
 66 65  1  0
 66 69  1  0
 67 64  1  0
 67 68  1  0
 68 66  2  0
 69 70  1  0
 70 71  2  0
 72 75  1  0
 72 71  1  0
 73 72  2  0
 74 73  1  0
 74 69  2  0
 75 76  1  0
 76 77  1  0
 77 78  2  0
 79 78  1  0
 79 83  1  0
 80 79  2  0
 81 76  2  0
 81 80  1  0
 82 81  1  0
 84 85  1  0
 85 88  1  0
 85 87  1  0
 86 84  2  0
 89 90  1  0
 89 64  1  0
 91 89  1  0
M  ISO  4   5 101   9 101  54 100  62 100
M  END
>  <TORSDO>  (11) 
F 20

>  <SCORE>  (11) 
-13.768

>  <name>  (11) 
10

>  <ligand_id>  (11) 
10

>  <original_smiles>  (11) 
[H]N=C1C([H])([H])C([H])([H])C([H])(C([H])([H])C([H])([H])C([H])([H])C([H])([H])N([H])C(=O)N2C([H])([H])C([H])([H])C([H])([H])C([H])(n3nc(-c4c([H])c([H])c(Oc5c([H])c([H])c(F)c([H])c5F)c([H])c4[H])c(C(=O)N([H])[H])c3N([H])[H])C2([H])[H])C([H])([H])C1([H])Oc1c([H])c([H])c2c(c1[H])C([H])([H])N(C(=O)C([H])(N([H])C(=O)C([H])(N([H])C([H])([H])[H])C([H])([H])[H])C(C([H])([H])[H])(C([H])([H])[H])C([H])([H])[H])C([H])(C(=O)N([H])C1([H])c3c([H])c([H])c([H])c([H])c3C([H])([H])C([H])([H])C1([H])[H])C2([H])[H]

>  <smiles>  (11) 
[H]N=C1C([H])([H])C([H])([H])C([H])(C([H])([H])C([H])([H])C([H])([H])C([H])([H])N([H])C(=O)N2C([H])([H])C([H])([H])C([H])([H])C([H])(n3nc(-c4c([H])c([H])c(Oc5c([H])c([H])c(F)c([H])c5F)c([H])c4[H])c(C(=O)N([H])[H])c3N([H])[H])C2([H])[H])C([H])([H])C1([H])Oc1c([H])c([H])c2c(c1[H])C([H])([H])N(C(=O)C([H])(N([H])C(=O)C([H])(N([H])C([H])([H])[H])C([H])([H])[H])C(C([H])([H])[H])(C([H])([H])[H])C([H])([H])[H])C([H])(C(=O)N([H])C1([H])c3c([H])c([H])c([H])c([H])c3C([H])([H])C([H])([H])C1([H])[H])C2([H])[H]

$$$$
11:0:0
     RDKit          3D

 96104  0  0  1  0  0  0  0  0999 V2000
  -31.6970  -18.7430   17.8460 N   0  0  0  0  0  4  0  0  0  0  0  0
  -31.8870  -18.5760   18.8180 H   0  0  0  0  0  0  0  0  0  0  0  0
  -30.8490  -18.2580   17.6060 H   0  0  0  0  0  0  0  0  0  0  0  0
  -32.8040  -18.1640   17.0550 C   0  0  0  0  0  2  0  0  0  0  0  0
  -32.7890  -14.4000   16.2720 C   0  0  0  0  0  3  0  0  0  0  0  0
  -33.1480  -13.8460   17.5170 C   0  0  0  0  0  3  0  0  0  0  0  0
  -32.6640  -15.7950   16.1300 C   0  0  0  0  0  3  0  0  0  0  0  0
  -33.3150  -16.0890   18.4610 C   0  0  0  0  0  3  0  0  0  0  0  0
  -33.3880  -14.6860   18.6220 C   0  0  0  0  0  0  0  0  0  0  0  0
  -32.9290  -16.6500   17.2210 C   0  0  0  0  0  0  0  0  0  0  0  0
  -33.5630  -14.0750   20.0170 C   0  0  0  0  0  2  0  0  0  0  0  0
  -31.1200  -13.9610   20.4330 C   0  0  0  0  0  0  0  0  0  0  0  0
  -30.2400  -12.0820   19.2520 C   0  0  0  0  0  2  0  0  0  0  0  0
  -29.3690  -12.5550   18.0880 C   0  0  0  0  0  2  0  0  0  0  0  0
  -27.9060  -12.4850   18.5220 C   0  0  0  0  0  2  0  0  0  0  0  0
  -27.6420  -13.2780   19.8280 C   0  0  0  0  0  3  0  0  0  0  0  0
  -28.7470  -13.0720   20.9150 C   0  0  0  0  0  2  0  0  0  0  0  0
  -30.1210  -13.0470   20.3500 N   0  0  0  0  0  0  0  0  0  0  0  0
  -31.0340  -15.1650   20.3130 O   0  0  0  0  0  0  0  0  0  0  0  0
  -32.3420  -13.4130   20.4960 N   0  0  0  0  0  0  0  0  0  0  0  0
  -32.3860  -12.4130   20.6360 H   0  0  0  0  0  0  0  0  0  0  0  0
  -25.2240  -13.8680   20.5280 C   0  0  0  0  0  0  0  0  0  0  0  0
  -24.1520  -13.0950   20.8910 C   0  0  0  0  0  0  0  0  0  0  0  0
  -24.6140  -11.7430   20.8680 C   0  0  0  0  0  0  0  0  0  0  0  0
  -26.2820  -12.9950   20.3210 N   0  0  0  0  0  0  0  0  0  0  0  0
  -25.9120  -11.7090   20.5780 N   0  0  0  0  0  0  0  0  0  0  0  0
  -23.8820  -10.4800   21.0550 C   0  0  0  0  0  0  0  0  0  0  0  0
  -24.3140   -9.5080   21.9850 C   0  0  0  0  0  3  0  0  0  0  0  0
  -23.5840   -8.3120   22.1670 C   0  0  0  0  0  3  0  0  0  0  0  0
  -22.4060   -8.0780   21.4170 C   0  0  0  0  0  0  0  0  0  0  0  0
  -21.9910   -9.0380   20.4780 C   0  0  0  0  0  3  0  0  0  0  0  0
  -22.7220  -10.2250   20.2950 C   0  0  0  0  0  3  0  0  0  0  0  0
  -21.6480   -6.9340   21.5070 O   0  0  0  0  0  0  0  0  0  0  0  0
  -21.6140   -6.1790   22.6520 C   0  0  0  0  0  0  0  0  0  0  0  0
  -21.2270   -6.7240   23.8950 C   0  0  0  0  0  3  0  0  0  0  0  0
  -21.1420   -5.8960   25.0320 C   0  0  0  0  0  3  0  0  0  0  0  0
  -21.4310   -4.5230   24.9270 C   0  0  0  0  0  0  0  0  0  0  0  0
  -21.8110   -3.9760   23.6900 C   0  0  0  0  0  3  0  0  0  0  0  0
  -21.9000   -4.8010   22.5550 C   0  0  0  0  0  0  0  0  0  0  0  0
  -22.2470   -4.2640   21.3600 F   0  0  0  0  0  0  0  0  0  0  0  0
  -21.3410   -3.7250   26.0180 F   0  0  0  0  0  0  0  0  0  0  0  0
  -22.7520  -13.5710   21.1530 C   0  0  0  0  0  0  0  0  0  0  0  0
  -22.0240  -12.8740   22.0170 N   0  0  0  0  0  0  0  0  0  0  0  0
  -22.3110  -14.5920   20.6280 O   0  0  0  0  0  0  0  0  0  0  0  0
  -22.3990  -12.0510   22.4640 H   0  0  0  0  0  0  0  0  0  0  0  0
  -21.0810  -13.1660   22.2360 H   0  0  0  0  0  0  0  0  0  0  0  0
  -25.3830  -15.2380   20.3420 N   0  0  0  0  0  0  0  0  0  0  0  0
  -24.6190  -15.8990   20.4450 H   0  0  0  0  0  0  0  0  0  0  0  0
  -26.2540  -15.6780   20.0650 H   0  0  0  0  0  0  0  0  0  0  0  0
  -31.5210  -20.1990   17.6200 C   0  0  0  0  0  2  0  0  0  0  0  0
  -30.4750  -20.8600   18.5500 C   0  0  0  0  0  2  0  0  0  0  0  0
  -30.3900  -22.3930   18.3480 C   0  0  0  0  0  2  0  0  0  0  0  0
  -29.3870  -23.0950   19.2910 C   0  0  0  0  0  2  0  0  0  0  0  0
  -29.3950  -24.6430   19.2080 C   0  0  0  0  0  2  0  0  0  0  0  0
  -28.4680  -25.3010   20.2540 C   0  0  0  0  0  2  0  0  0  0  0  0
  -28.4820  -26.7350   20.1640 O   0  0  0  0  0  0  0  0  0  0  0  0
  -24.6060  -31.8760   23.2380 C   0  0  0  0  0  0  0  0  0  0  0  0
  -27.2830  -27.4220   20.1810 C   0  0  0  0  0  0  0  0  0  0  0  0
  -23.4120  -30.4670   21.5930 C   0  0  0  0  0  3  0  0  0  0  0  0
  -24.8770  -28.9210   20.1880 C   0  0  0  0  0  0  0  0  0  0  0  0
  -25.9390  -30.8230   21.4130 C   0  0  0  0  0  2  0  0  0  0  0  0
  -26.0300  -29.4480   20.7810 C   0  0  0  0  0  0  0  0  0  0  0  0
  -27.2330  -28.7070   20.7740 C   0  0  0  0  0  3  0  0  0  0  0  0
  -26.1090  -26.9140   19.5780 C   0  0  0  0  0  3  0  0  0  0  0  0
  -24.9110  -27.6530   19.5840 C   0  0  0  0  0  3  0  0  0  0  0  0
  -23.6320  -29.7800   20.2190 C   0  0  0  0  0  2  0  0  0  0  0  0
  -24.6700  -31.0700   22.1400 N   0  0  0  0  0  0  0  0  0  0  0  0
  -23.5200  -32.1510   23.7670 O   0  0  0  0  0  0  0  0  0  0  0  0
  -22.7530  -29.4510   22.5530 C   0  0  0  0  0  0  0  0  0  0  0  0
  -21.4300  -29.2700   22.4160 N   0  0  0  0  0  0  0  0  0  0  0  0
  -23.4280  -28.8260   23.3750 O   0  0  0  0  0  0  0  0  0  0  0  0
  -20.9450  -29.8280   21.7270 H   0  0  0  0  0  0  0  0  0  0  0  0
  -18.0490  -28.0800   22.8860 C   0  0  0  0  0  0  0  0  0  0  0  0
  -20.6050  -28.3370   23.1820 C   0  0  0  0  0  3  0  0  0  0  0  0
  -20.7130  -26.9030   22.6140 C   0  0  0  0  0  2  0  0  0  0  0  0
  -19.6200  -26.5750   21.5910 C   0  0  0  0  0  2  0  0  0  0  0  0
  -18.2320  -26.7260   22.2190 C   0  0  0  0  0  2  0  0  0  0  0  0
  -19.1650  -28.8420   23.3230 C   0  0  0  0  0  0  0  0  0  0  0  0
  -18.9410  -30.1100   23.9040 C   0  0  0  0  0  3  0  0  0  0  0  0
  -17.6350  -30.6140   24.0520 C   0  0  0  0  0  3  0  0  0  0  0  0
  -16.5350  -29.8470   23.6300 C   0  0  0  0  0  3  0  0  0  0  0  0
  -16.7430  -28.5820   23.0540 C   0  0  0  0  0  3  0  0  0  0  0  0
  -25.8860  -32.5100   23.8650 C   0  0  0  0  0  3  0  0  0  0  0  0
  -26.3980  -31.7410   25.1440 C   0  0  1  0  0  0  0  0  0  0  0  0
  -25.3020  -31.5040   26.2080 C   0  0  0  0  0  1  0  0  0  0  0  0
  -26.9830  -30.3630   24.7540 C   0  0  0  0  0  1  0  0  0  0  0  0
  -27.5460  -32.5360   25.8110 C   0  0  0  0  0  1  0  0  0  0  0  0
  -25.5760  -33.9090   24.1890 N   0  0  0  0  0  0  0  0  0  0  0  0
  -25.9120  -34.9590   23.4270 C   0  0  0  0  0  0  0  0  0  0  0  0
  -26.5880  -34.8530   22.4000 O   0  0  0  0  0  0  0  0  0  0  0  0
  -24.9780  -34.0650   24.9860 H   0  0  0  0  0  0  0  0  0  0  0  0
  -24.1810  -36.7460   23.0530 C   0  0  0  0  0  1  0  0  0  0  0  0
  -25.4170  -36.3480   23.8760 C   0  0  0  0  0  3  0  0  0  0  0  0
  -27.5520  -37.2300   24.7080 C   0  0  0  0  0  1  0  0  0  0  0  0
  -26.4460  -37.4050   23.7710 N   0  0  0  0  0  0  0  0  0  0  0  0
  -26.0360  -38.3200   23.9340 H   0  0  0  0  0  0  0  0  0  0  0  0
  1  2  1  0
  3  1  1  0
  4 10  1  0
  4  1  1  0
  5  6  1  0
  6  9  2  0
  7  5  2  0
  7 10  1  0
  8  9  1  0
  9 11  1  0
 10  8  2  0
 11 20  1  0
 12 20  1  0
 13 18  1  0
 14 15  1  0
 14 13  1  0
 16 15  1  0
 16 25  1  0
 16 17  1  0
 18 12  1  0
 18 17  1  0
 19 12  2  0
 20 21  1  0
 22 23  2  0
 23 42  1  0
 24 23  1  0
 24 27  1  0
 25 22  1  0
 25 26  1  0
 26 24  2  0
 27 28  1  0
 28 29  2  0
 30 33  1  0
 30 29  1  0
 31 30  2  0
 32 31  1  0
 32 27  2  0
 33 34  1  0
 34 35  1  0
 35 36  2  0
 37 36  1  0
 37 41  1  0
 38 37  2  0
 39 34  2  0
 39 38  1  0
 40 39  1  0
 42 43  1  0
 43 46  1  0
 43 45  1  0
 44 42  2  0
 47 48  1  0
 47 22  1  0
 49 47  1  0
 50  1  1  0
 50 51  1  0
 52 51  1  0
 52 53  1  0
 54 53  1  0
 54 55  1  0
 56 58  1  0
 56 55  1  0
 57 68  2  0
 58 63  1  0
 59 67  1  0
 59 69  1  0
 60 66  1  0
 60 62  1  0
 61 67  1  0
 62 61  1  0
 63 62  2  0
 64 65  1  0
 64 58  2  0
 65 60  2  0
 66 59  1  0
 67 57  1  0
 69 71  2  0
 70 69  1  0
 72 70  1  0
 73 82  2  0
 73 78  1  0
 74 70  1  0
 74 78  1  0
 75 74  1  0
 76 77  1  0
 76 75  1  0
 77 73  1  0
 78 79  2  0
 79 80  1  0
 81 80  2  0
 82 81  1  0
 83 57  1  0
 83 88  1  0
 83 84  1  0
 84 87  1  1
 84 85  1  0
 86 84  1  0
 88 91  1  0
 89 93  1  0
 89 88  1  0
 90 89  2  0
 93 92  1  0
 95 93  1  0
 95 96  1  0
 95 94  1  0
M  ISO  4  12 100  20 100  55 101  56 101
M  END
>  <TORSDO>  (12) 
F 25

>  <SCORE>  (12) 
-12.132

>  <name>  (12) 
11

>  <ligand_id>  (12) 
11

>  <original_smiles>  (12) 
[H]c1c([H])c([H])c2c(c1[H])C([H])([H])C([H])([H])C([H])([H])C2([H])N([H])C(=O)C1([H])N(C(=O)C([H])(N([H])C(=O)C([H])(N([H])C([H])([H])[H])C([H])([H])[H])C(C([H])([H])[H])(C([H])([H])[H])C([H])([H])[H])C([H])([H])c2c([H])c(OC([H])([H])C([H])([H])C([H])([H])C([H])([H])C([H])([H])C([H])([H])[N+]([H])([H])C([H])([H])c3c([H])c([H])c([H])c(C([H])([H])N([H])C(=O)N4C([H])([H])C([H])([H])C([H])([H])C([H])(n5nc(-c6c([H])c([H])c(Oc7c([H])c([H])c(F)c([H])c7F)c([H])c6[H])c(C(=O)N([H])[H])c5N([H])[H])C4([H])[H])c3[H])c([H])c([H])c2C1([H])[H]

>  <smiles>  (12) 
[H]c1c([H])c([H])c2c(c1[H])C([H])([H])C([H])([H])C([H])([H])C2([H])N([H])C(=O)C1([H])N(C(=O)C([H])(N([H])C(=O)C([H])(N([H])C([H])([H])[H])C([H])([H])[H])C(C([H])([H])[H])(C([H])([H])[H])C([H])([H])[H])C([H])([H])c2c([H])c(OC([H])([H])C([H])([H])C([H])([H])C([H])([H])C([H])([H])C([H])([H])[N+]([H])([H])C([H])([H])c3c([H])c([H])c([H])c(C([H])([H])N([H])C(=O)N4C([H])([H])C([H])([H])C([H])([H])C([H])(n5nc(-c6c([H])c([H])c(Oc7c([H])c([H])c(F)c([H])c7F)c([H])c6[H])c(C(=O)N([H])[H])c5N([H])[H])C4([H])[H])c3[H])c([H])c([H])c2C1([H])[H]

$$$$
12:0:0
     RDKit          3D

101109  0  0  1  0  0  0  0  0999 V2000
  -29.7200  -24.0920   22.3870 C   0  0  0  0  0  2  0  0  0  0  0  0
  -29.5060  -25.4720   21.7310 C   0  0  0  0  0  2  0  0  0  0  0  0
  -29.8110  -23.4180   19.9220 C   0  0  0  0  0  2  0  0  0  0  0  0
  -28.6500  -24.3730   19.5500 C   0  0  0  0  0  3  0  0  0  0  0  0
  -29.6840  -22.9180   21.3740 C   0  0  0  0  0  3  0  0  0  0  0  0
  -28.4220  -25.4710   20.6370 C   0  0  0  0  0  3  0  0  0  0  0  0
  -30.6930  -21.8730   21.6690 N   0  0  0  0  0  4  0  0  0  0  0  0
  -31.6160  -22.2770   21.7100 H   0  0  0  0  0  0  0  0  0  0  0  0
  -30.6880  -21.2270   20.8970 H   0  0  0  0  0  0  0  0  0  0  0  0
  -30.4530  -21.0700   22.8890 C   0  0  0  0  0  2  0  0  0  0  0  0
  -30.7320  -19.5760   22.6300 C   0  0  0  0  0  2  0  0  0  0  0  0
  -30.4620  -18.6870   23.8580 C   0  0  0  0  0  2  0  0  0  0  0  0
  -30.5250  -17.1750   23.5750 C   0  0  0  0  0  2  0  0  0  0  0  0
  -31.8080  -16.7260   22.8520 C   0  0  0  0  0  2  0  0  0  0  0  0
  -31.9710  -15.1990   22.7850 C   0  0  0  0  0  2  0  0  0  0  0  0
  -30.8760  -14.2420   20.7720 C   0  0  0  0  0  0  0  0  0  0  0  0
  -30.4080  -12.2830   19.3640 C   0  0  0  0  0  2  0  0  0  0  0  0
  -29.4690  -12.5470   18.1800 C   0  0  0  0  0  2  0  0  0  0  0  0
  -28.0050  -12.3780   18.6140 C   0  0  0  0  0  2  0  0  0  0  0  0
  -27.6720  -13.2040   19.8830 C   0  0  0  0  0  3  0  0  0  0  0  0
  -28.7180  -12.9710   20.9990 C   0  0  0  0  0  2  0  0  0  0  0  0
  -30.0700  -13.2010   20.4590 N   0  0  0  0  0  0  0  0  0  0  0  0
  -31.7380  -14.6980   20.0150 O   0  0  0  0  0  0  0  0  0  0  0  0
  -30.8770  -14.5310   22.0790 N   0  0  0  0  0  0  0  0  0  0  0  0
  -30.1990  -14.0410   22.6420 H   0  0  0  0  0  0  0  0  0  0  0  0
  -25.2660  -13.8170   20.5680 C   0  0  0  0  0  0  0  0  0  0  0  0
  -24.1900  -13.0450   20.9180 C   0  0  0  0  0  0  0  0  0  0  0  0
  -24.6450  -11.6910   20.8750 C   0  0  0  0  0  0  0  0  0  0  0  0
  -26.3110  -12.9330   20.3440 N   0  0  0  0  0  0  0  0  0  0  0  0
  -25.9380  -11.6490   20.5820 N   0  0  0  0  0  0  0  0  0  0  0  0
  -23.9110  -10.4300   21.0420 C   0  0  0  0  0  0  0  0  0  0  0  0
  -24.3660   -9.4210   21.9200 C   0  0  0  0  0  3  0  0  0  0  0  0
  -23.6320   -8.2240   22.0760 C   0  0  0  0  0  3  0  0  0  0  0  0
  -22.4290   -8.0300   21.3550 C   0  0  0  0  0  0  0  0  0  0  0  0
  -21.9940   -9.0290   20.4640 C   0  0  0  0  0  3  0  0  0  0  0  0
  -22.7290  -10.2160   20.3060 C   0  0  0  0  0  3  0  0  0  0  0  0
  -21.6640   -6.8910   21.4250 O   0  0  0  0  0  0  0  0  0  0  0  0
  -21.6860   -6.0770   22.5290 C   0  0  0  0  0  0  0  0  0  0  0  0
  -21.4010   -6.5660   23.8230 C   0  0  0  0  0  3  0  0  0  0  0  0
  -21.3660   -5.6810   24.9180 C   0  0  0  0  0  3  0  0  0  0  0  0
  -21.6040   -4.3070   24.7220 C   0  0  0  0  0  0  0  0  0  0  0  0
  -21.8820   -3.8170   23.4340 C   0  0  0  0  0  3  0  0  0  0  0  0
  -21.9190   -4.7000   22.3410 C   0  0  0  0  0  0  0  0  0  0  0  0
  -22.1660   -4.2190   21.0980 F   0  0  0  0  0  0  0  0  0  0  0  0
  -21.5620   -3.4550   25.7730 F   0  0  0  0  0  0  0  0  0  0  0  0
  -22.7920  -13.5250   21.1850 C   0  0  0  0  0  0  0  0  0  0  0  0
  -22.0570  -12.8210   22.0390 N   0  0  0  0  0  0  0  0  0  0  0  0
  -22.3590  -14.5570   20.6730 O   0  0  0  0  0  0  0  0  0  0  0  0
  -22.4190  -11.9830   22.4720 H   0  0  0  0  0  0  0  0  0  0  0  0
  -21.1200  -13.1220   22.2650 H   0  0  0  0  0  0  0  0  0  0  0  0
  -25.4400  -15.1880   20.4070 N   0  0  0  0  0  0  0  0  0  0  0  0
  -24.6810  -15.8520   20.5140 H   0  0  0  0  0  0  0  0  0  0  0  0
  -26.3100  -15.6230   20.1280 H   0  0  0  0  0  0  0  0  0  0  0  0
  -28.4280  -26.7880   20.0840 O   0  0  0  0  0  0  0  0  0  0  0  0
  -24.6110  -31.8710   23.2150 C   0  0  0  0  0  0  0  0  0  0  0  0
  -27.2400  -27.4740   20.1040 C   0  0  0  0  0  0  0  0  0  0  0  0
  -23.3950  -30.4950   21.5560 C   0  0  0  0  0  3  0  0  0  0  0  0
  -24.8410  -28.9620   20.1220 C   0  0  0  0  0  0  0  0  0  0  0  0
  -25.9180  -30.8550   21.3550 C   0  0  0  0  0  2  0  0  0  0  0  0
  -26.0000  -29.4900   20.7070 C   0  0  0  0  0  0  0  0  0  0  0  0
  -27.2040  -28.7560   20.6850 C   0  0  0  0  0  3  0  0  0  0  0  0
  -26.0620  -26.9440   19.5290 C   0  0  0  0  0  3  0  0  0  0  0  0
  -24.8660  -27.6850   19.5310 C   0  0  0  0  0  3  0  0  0  0  0  0
  -23.5990  -29.8240   20.1720 C   0  0  0  0  0  2  0  0  0  0  0  0
  -24.6600  -31.0850   22.1020 N   0  0  0  0  0  0  0  0  0  0  0  0
  -23.5310  -32.1450   23.7560 O   0  0  0  0  0  0  0  0  0  0  0  0
  -22.7380  -29.4680   22.5030 C   0  0  0  0  0  0  0  0  0  0  0  0
  -21.4110  -29.3040   22.3750 N   0  0  0  0  0  0  0  0  0  0  0  0
  -23.4180  -28.8220   23.3040 O   0  0  0  0  0  0  0  0  0  0  0  0
  -20.9300  -29.8750   21.6960 H   0  0  0  0  0  0  0  0  0  0  0  0
  -18.0250  -28.1380   22.8500 C   0  0  0  0  0  0  0  0  0  0  0  0
  -20.5840  -28.3660   23.1330 C   0  0  0  0  0  3  0  0  0  0  0  0
  -20.6740  -26.9390   22.5430 C   0  0  0  0  0  2  0  0  0  0  0  0
  -19.5730  -26.6390   21.5210 C   0  0  0  0  0  2  0  0  0  0  0  0
  -18.1900  -26.7930   22.1610 C   0  0  0  0  0  2  0  0  0  0  0  0
  -19.1500  -28.8830   23.2910 C   0  0  0  0  0  0  0  0  0  0  0  0
  -18.9440  -30.1440   23.8920 C   0  0  0  0  0  3  0  0  0  0  0  0
  -17.6440  -30.6590   24.0560 C   0  0  0  0  0  3  0  0  0  0  0  0
  -16.5330  -29.9110   23.6320 C   0  0  0  0  0  3  0  0  0  0  0  0
  -16.7240  -28.6510   23.0360 C   0  0  0  0  0  3  0  0  0  0  0  0
  -25.9030  -32.4840   23.8420 C   0  0  0  0  0  3  0  0  0  0  0  0
  -25.5910  -33.8640   24.2370 N   0  0  0  0  0  0  0  0  0  0  0  0
  -25.9020  -34.9490   23.5150 C   0  0  0  0  0  0  0  0  0  0  0  0
  -26.5570  -34.8940   22.4700 O   0  0  0  0  0  0  0  0  0  0  0  0
  -25.0060  -33.9800   25.0510 H   0  0  0  0  0  0  0  0  0  0  0  0
  -24.1480  -36.7310   23.2630 C   0  0  0  0  0  1  0  0  0  0  0  0
  -25.4100  -36.3120   24.0350 C   0  0  0  0  0  3  0  0  0  0  0  0
  -27.5580  -37.1800   24.8450 C   0  0  0  0  0  1  0  0  0  0  0  0
  -26.4280  -37.3800   23.9420 N   0  0  0  0  0  0  0  0  0  0  0  0
  -26.0200  -38.2890   24.1470 H   0  0  0  0  0  0  0  0  0  0  0  0
  -26.4480  -31.6600   25.0720 C   0  0  1  0  0  0  0  0  0  0  0  0
  -25.3760  -31.3690   26.1480 C   0  0  0  0  0  1  0  0  0  0  0  0
  -27.0300  -30.3040   24.6040 C   0  0  0  0  0  1  0  0  0  0  0  0
  -27.6080  -32.4300   25.7470 C   0  0  0  0  0  1  0  0  0  0  0  0
  -28.8100  -24.9320   18.1150 C   0  0  0  0  0  2  0  0  0  0  0  0
  -28.6790  -23.8780   17.0010 C   0  0  0  0  0  2  0  0  0  0  0  0
  -28.5880  -24.5320   15.6090 C   0  0  0  0  0  2  0  0  0  0  0  0
  -28.5680  -23.5400   14.5220 N   0  0  0  0  0  4  0  0  0  0  0  0
  -29.4000  -22.9760   14.5370 H   0  0  0  0  0  0  0  0  0  0  0  0
  -28.5260  -24.0120   13.6360 H   0  0  0  0  0  0  0  0  0  0  0  0
  -27.7660  -22.9400   14.5960 H   0  0  0  0  0  0  0  0  0  0  0  0
  2  1  1  0
  3  5  1  0
  4 95  1  0
  4  3  1  0
  4  6  1  0
  5  7  1  0
  5  1  1  0
  6 54  1  0
  6  2  1  0
  7  8  1  0
  7 10  1  0
  9  7  1  0
 11 10  1  0
 11 12  1  0
 13 12  1  0
 14 13  1  0
 15 14  1  0
 16 24  1  0
 17 22  1  0
 18 19  1  0
 18 17  1  0
 20 19  1  0
 20 29  1  0
 20 21  1  0
 22 16  1  0
 22 21  1  0
 23 16  2  0
 24 25  1  0
 24 15  1  0
 26 27  2  0
 27 46  1  0
 28 27  1  0
 28 31  1  0
 29 26  1  0
 29 30  1  0
 30 28  2  0
 31 32  1  0
 32 33  2  0
 34 37  1  0
 34 33  1  0
 35 34  2  0
 36 35  1  0
 36 31  2  0
 37 38  1  0
 38 39  1  0
 39 40  2  0
 41 40  1  0
 41 45  1  0
 42 41  2  0
 43 38  2  0
 43 42  1  0
 44 43  1  0
 46 47  1  0
 47 50  1  0
 47 49  1  0
 48 46  2  0
 51 52  1  0
 51 26  1  0
 53 51  1  0
 54 56  1  0
 55 66  2  0
 56 61  1  0
 57 65  1  0
 57 67  1  0
 58 64  1  0
 58 60  1  0
 59 65  1  0
 60 59  1  0
 61 60  2  0
 62 63  1  0
 62 56  2  0
 63 58  2  0
 64 57  1  0
 65 55  1  0
 67 69  2  0
 68 67  1  0
 70 68  1  0
 71 80  2  0
 71 76  1  0
 72 68  1  0
 72 76  1  0
 73 72  1  0
 74 75  1  0
 74 73  1  0
 75 71  1  0
 76 77  2  0
 77 78  1  0
 79 78  2  0
 80 79  1  0
 81 55  1  0
 81 82  1  0
 81 91  1  0
 82 85  1  0
 83 87  1  0
 83 82  1  0
 84 83  2  0
 87 86  1  0
 89 87  1  0
 89 90  1  0
 89 88  1  0
 91 94  1  1
 91 92  1  0
 93 91  1  0
 96 95  1  0
 97 96  1  0
 98 99  1  0
 98101  1  0
 98 97  1  0
100 98  1  0
M  ISO  4   6 101  16 100  24 100  54 101
M  END
>  <TORSDO>  (13) 
F 27

>  <SCORE>  (13) 
-5.482

>  <name>  (13) 
12

>  <ligand_id>  (13) 
12

>  <original_smiles>  (13) 
[H]c1c([H])c([H])c2c(c1[H])C([H])([H])C([H])([H])C([H])([H])C2([H])N([H])C(=O)C1([H])N(C(=O)C([H])(N([H])C(=O)C([H])(N([H])C([H])([H])[H])C([H])([H])[H])C(C([H])([H])[H])(C([H])([H])[H])C([H])([H])[H])C([H])([H])c2c([H])c(OC3([H])C([H])([H])C([H])([H])C([H])([N+]([H])([H])C([H])([H])C([H])([H])C([H])([H])C([H])([H])C([H])([H])C([H])([H])N([H])C(=O)N4C([H])([H])C([H])([H])C([H])([H])C([H])(n5nc(-c6c([H])c([H])c(Oc7c([H])c([H])c(F)c([H])c7F)c([H])c6[H])c(C(=O)N([H])[H])c5N([H])[H])C4([H])[H])C([H])([H])C3([H])C([H])([H])C([H])([H])C([H])([H])[N+]([H])([H])[H])c([H])c([H])c2C1([H])[H]

>  <smiles>  (13) 
[H]c1c([H])c([H])c2c(c1[H])C([H])([H])C([H])([H])C([H])([H])C2([H])N([H])C(=O)C1([H])N(C(=O)C([H])(N([H])C(=O)C([H])(N([H])C([H])([H])[H])C([H])([H])[H])C(C([H])([H])[H])(C([H])([H])[H])C([H])([H])[H])C([H])([H])c2c([H])c(OC3([H])C([H])([H])C([H])([H])C([H])([N+]([H])([H])C([H])([H])C([H])([H])C([H])([H])C([H])([H])C([H])([H])C([H])([H])N([H])C(=O)N4C([H])([H])C([H])([H])C([H])([H])C([H])(n5nc(-c6c([H])c([H])c(Oc7c([H])c([H])c(F)c([H])c7F)c([H])c6[H])c(C(=O)N([H])[H])c5N([H])[H])C4([H])[H])C([H])([H])C3([H])C([H])([H])C([H])([H])C([H])([H])[N+]([H])([H])[H])c([H])c([H])c2C1([H])[H]

$$$$
13:0:0
     RDKit          3D

 95104  0  0  1  0  0  0  0  0999 V2000
  -28.1180  -19.4240   20.1480 C   0  0  0  0  0  2  0  0  0  0  0  0
  -30.3420  -20.5870   20.0200 C   0  0  0  0  0  2  0  0  0  0  0  0
  -27.5590  -20.6720   20.8770 C   0  0  0  0  0  2  0  0  0  0  0  0
  -29.7490  -21.7280   20.8280 C   0  0  0  0  0  2  0  0  0  0  0  0
  -29.6560  -19.2370   20.3010 C   0  0  0  0  0  3  0  0  0  0  0  0
  -28.3200  -21.8910   20.4970 N   0  0  2  0  0  4  0  0  0  0  0  0
  -28.2470  -21.9560   19.4940 H   0  0  0  0  0  0  0  0  0  0  0  0
  -30.9910  -14.5340   20.5970 C   0  0  0  0  0  0  0  0  0  0  0  0
  -30.6970  -12.3050   19.6860 C   0  0  0  0  0  2  0  0  0  0  0  0
  -29.8140  -12.4040   18.4220 C   0  0  0  0  0  2  0  0  0  0  0  0
  -28.3250  -12.3280   18.7990 C   0  0  0  0  0  2  0  0  0  0  0  0
  -27.9260  -13.2720   19.9660 C   0  0  0  0  0  3  0  0  0  0  0  0
  -28.9380  -13.1860   21.1350 C   0  0  0  0  0  2  0  0  0  0  0  0
  -30.2870  -13.3810   20.5900 N   0  0  0  0  0  0  0  0  0  0  0  0
  -32.2150  -14.5750   20.7080 O   0  0  0  0  0  0  0  0  0  0  0  0
  -31.6090  -18.0300   18.8610 C   0  0  0  0  0  0  0  0  0  0  0  0
  -32.1790  -16.6930   18.4680 C   0  0  0  0  0  2  0  0  0  0  0  0
  -31.1020  -15.6090   18.4390 C   0  0  0  0  0  2  0  0  0  0  0  0
  -29.8860  -16.6940   20.2970 C   0  0  0  0  0  2  0  0  0  0  0  0
  -30.1680  -17.9970   19.4700 C   0  0  0  0  0  3  0  0  0  0  0  0
  -32.3000  -19.0580   18.6030 N   0  0  0  0  0  0  0  0  0  0  0  0
  -30.4580  -15.4500   19.7560 N   0  0  0  0  0  0  0  0  0  0  0  0
  -33.1930  -18.8290   18.1780 H   0  0  0  0  0  0  0  0  0  0  0  0
  -25.4960  -13.8850   20.5560 C   0  0  0  0  0  0  0  0  0  0  0  0
  -24.4120  -13.1140   20.8760 C   0  0  0  0  0  0  0  0  0  0  0  0
  -24.8790  -11.7650   20.8950 C   0  0  0  0  0  0  0  0  0  0  0  0
  -26.5560  -13.0060   20.4000 N   0  0  0  0  0  0  0  0  0  0  0  0
  -26.1850  -11.7300   20.6710 N   0  0  0  0  0  0  0  0  0  0  0  0
  -24.1500  -10.5000   21.0600 C   0  0  0  0  0  0  0  0  0  0  0  0
  -24.5220   -9.5570   22.0430 C   0  0  0  0  0  3  0  0  0  0  0  0
  -23.7960   -8.3570   22.1960 C   0  0  0  0  0  3  0  0  0  0  0  0
  -22.6840   -8.0900   21.3640 C   0  0  0  0  0  0  0  0  0  0  0  0
  -22.3330   -9.0190   20.3700 C   0  0  0  0  0  3  0  0  0  0  0  0
  -23.0590  -10.2110   20.2160 C   0  0  0  0  0  3  0  0  0  0  0  0
  -21.9340   -6.9410   21.4240 O   0  0  0  0  0  0  0  0  0  0  0  0
  -21.7860   -6.2370   22.5900 C   0  0  0  0  0  0  0  0  0  0  0  0
  -21.2100   -6.8170   23.7410 C   0  0  0  0  0  3  0  0  0  0  0  0
  -21.0150   -6.0400   24.8990 C   0  0  0  0  0  3  0  0  0  0  0  0
  -21.3840   -4.6820   24.9080 C   0  0  0  0  0  0  0  0  0  0  0  0
  -21.9510   -4.1000   23.7600 C   0  0  0  0  0  3  0  0  0  0  0  0
  -22.1490   -4.8750   22.6030 C   0  0  0  0  0  0  0  0  0  0  0  0
  -22.6790   -4.3060   21.4940 F   0  0  0  0  0  0  0  0  0  0  0  0
  -21.1890   -3.9310   26.0160 F   0  0  0  0  0  0  0  0  0  0  0  0
  -22.9990  -13.5840   21.0580 C   0  0  0  0  0  0  0  0  0  0  0  0
  -22.2280  -12.8990   21.8980 N   0  0  0  0  0  0  0  0  0  0  0  0
  -22.5820  -14.5920   20.4890 O   0  0  0  0  0  0  0  0  0  0  0  0
  -22.5770  -12.0840   22.3780 H   0  0  0  0  0  0  0  0  0  0  0  0
  -21.2750  -13.1950   22.0580 H   0  0  0  0  0  0  0  0  0  0  0  0
  -25.6690  -15.2540   20.3620 N   0  0  0  0  0  0  0  0  0  0  0  0
  -24.8940  -15.9060   20.4090 H   0  0  0  0  0  0  0  0  0  0  0  0
  -26.5360  -15.6880   20.0760 H   0  0  0  0  0  0  0  0  0  0  0  0
  -27.7930  -23.1710   21.0240 C   0  0  0  0  0  2  0  0  0  0  0  0
  -28.2340  -24.3600   20.1370 C   0  0  0  0  0  2  0  0  0  0  0  0
  -28.3600  -25.6830   20.9050 C   0  0  0  0  0  2  0  0  0  0  0  0
  -28.4810  -26.7980   20.0150 O   0  0  0  0  0  0  0  0  0  0  0  0
  -24.6350  -31.8230   23.1940 C   0  0  0  0  0  0  0  0  0  0  0  0
  -27.3350  -27.5460   19.9740 C   0  0  0  0  0  0  0  0  0  0  0  0
  -23.4480  -30.4520   21.5090 C   0  0  0  0  0  3  0  0  0  0  0  0
  -24.9240  -28.9960   20.0310 C   0  0  0  0  0  0  0  0  0  0  0  0
  -25.9670  -30.8680   21.3220 C   0  0  0  0  0  2  0  0  0  0  0  0
  -26.0740  -29.5240   20.6350 C   0  0  0  0  0  0  0  0  0  0  0  0
  -27.2860  -28.8060   20.6050 C   0  0  0  0  0  3  0  0  0  0  0  0
  -26.1780  -27.0320   19.3540 C   0  0  0  0  0  3  0  0  0  0  0  0
  -24.9690  -27.7480   19.3880 C   0  0  0  0  0  3  0  0  0  0  0  0
  -23.6660  -29.8270   20.1070 C   0  0  0  0  0  2  0  0  0  0  0  0
  -24.7010  -31.0600   22.0680 N   0  0  0  0  0  0  0  0  0  0  0  0
  -23.5500  -32.0600   23.7440 O   0  0  0  0  0  0  0  0  0  0  0  0
  -22.8170  -29.3890   22.4330 C   0  0  0  0  0  0  0  0  0  0  0  0
  -21.4920  -29.2050   22.3130 N   0  0  0  0  0  0  0  0  0  0  0  0
  -23.5130  -28.7350   23.2140 O   0  0  0  0  0  0  0  0  0  0  0  0
  -20.9920  -29.7890   21.6560 H   0  0  0  0  0  0  0  0  0  0  0  0
  -18.1250  -28.0050   22.8240 C   0  0  0  0  0  0  0  0  0  0  0  0
  -20.6880  -28.2340   23.0530 C   0  0  0  0  0  3  0  0  0  0  0  0
  -20.7690  -26.8300   22.4060 C   0  0  0  0  0  2  0  0  0  0  0  0
  -19.6440  -26.5660   21.4000 C   0  0  0  0  0  2  0  0  0  0  0  0
  -18.2770  -26.6890   22.0780 C   0  0  0  0  0  2  0  0  0  0  0  0
  -19.2580  -28.7380   23.2670 C   0  0  0  0  0  0  0  0  0  0  0  0
  -19.0610  -29.9740   23.9200 C   0  0  0  0  0  3  0  0  0  0  0  0
  -17.7630  -30.4740   24.1390 C   0  0  0  0  0  3  0  0  0  0  0  0
  -16.6450  -29.7360   23.7150 C   0  0  0  0  0  3  0  0  0  0  0  0
  -16.8270  -28.5020   23.0620 C   0  0  0  0  0  3  0  0  0  0  0  0
  -25.9110  -32.4540   23.8330 C   0  0  0  0  0  3  0  0  0  0  0  0
  -26.4210  -31.6710   25.1030 C   0  0  1  0  0  0  0  0  0  0  0  0
  -25.3240  -31.4110   26.1630 C   0  0  0  0  0  1  0  0  0  0  0  0
  -27.0160  -30.3020   24.6950 C   0  0  0  0  0  1  0  0  0  0  0  0
  -27.5620  -32.4640   25.7840 C   0  0  0  0  0  1  0  0  0  0  0  0
  -25.5920  -33.8470   24.1750 N   0  0  0  0  0  0  0  0  0  0  0  0
  -25.9250  -34.9070   23.4250 C   0  0  0  0  0  0  0  0  0  0  0  0
  -26.6040  -34.8140   22.4000 O   0  0  0  0  0  0  0  0  0  0  0  0
  -24.9920  -33.9940   24.9730 H   0  0  0  0  0  0  0  0  0  0  0  0
  -24.1980  -36.6970   23.0520 C   0  0  0  0  0  1  0  0  0  0  0  0
  -25.4220  -36.2880   23.8870 C   0  0  0  0  0  3  0  0  0  0  0  0
  -27.5360  -37.1680   24.7770 C   0  0  0  0  0  1  0  0  0  0  0  0
  -26.4530  -37.3480   23.8140 N   0  0  0  0  0  0  0  0  0  0  0  0
  -26.0380  -38.2620   23.9740 H   0  0  0  0  0  0  0  0  0  0  0  0
  1  5  1  0
  1  3  1  0
  2  4  1  0
  5  2  1  0
  6  4  1  0
  6  3  1  0
  6 52  1  0
  6  7  1  6
  8 15  2  0
  9 14  1  0
 10 11  1  0
 10  9  1  0
 12 11  1  0
 12 27  1  0
 12 13  1  0
 14  8  1  0
 14 13  1  0
 16 20  1  0
 17 16  1  0
 18 17  1  0
 18 22  1  0
 20 19  1  0
 20  5  1  0
 21 16  2  0
 22 19  1  0
 22  8  1  0
 23 21  1  0
 24 25  2  0
 25 26  1  0
 25 44  1  0
 26 29  1  0
 27 24  1  0
 27 28  1  0
 28 26  2  0
 29 30  1  0
 30 31  2  0
 32 35  1  0
 32 31  1  0
 33 32  2  0
 34 33  1  0
 34 29  2  0
 35 36  1  0
 36 41  2  0
 36 37  1  0
 37 38  2  0
 38 39  1  0
 39 43  1  0
 40 39  2  0
 41 40  1  0
 42 41  1  0
 44 45  1  0
 45 48  1  0
 45 47  1  0
 46 44  2  0
 49 50  1  0
 49 24  1  0
 51 49  1  0
 53 54  1  0
 53 52  1  0
 55 54  1  0
 56 67  2  0
 57 55  1  0
 57 62  1  0
 58 66  1  0
 58 68  1  0
 59 65  1  0
 59 61  1  0
 60 66  1  0
 61 60  1  0
 62 61  2  0
 63 64  1  0
 63 57  2  0
 64 59  2  0
 65 58  1  0
 66 56  1  0
 68 70  2  0
 69 68  1  0
 71 69  1  0
 72 81  2  0
 72 77  1  0
 73 69  1  0
 73 77  1  0
 74 73  1  0
 75 76  1  0
 75 74  1  0
 76 72  1  0
 77 78  2  0
 78 79  1  0
 80 79  2  0
 81 80  1  0
 82 56  1  0
 82 87  1  0
 82 83  1  0
 83 86  1  1
 83 84  1  0
 85 83  1  0
 87 90  1  0
 88 92  1  0
 88 87  1  0
 89 88  2  0
 92 91  1  0
 94 92  1  0
 94 95  1  0
 94 93  1  0
M  ISO  4   8 100  22 100  54 101  55 101
M  END
>  <TORSDO>  (14) 
F 19

>  <SCORE>  (14) 
-13.583

>  <name>  (14) 
13

>  <ligand_id>  (14) 
13

>  <original_smiles>  (14) 
[H]N=C1C([H])([H])C([H])([H])N(C(=O)N2C([H])([H])C([H])([H])C([H])([H])C([H])(n3nc(-c4c([H])c([H])c(Oc5c([H])c([H])c(F)c([H])c5F)c([H])c4[H])c(C(=O)N([H])[H])c3N([H])[H])C2([H])[H])C([H])([H])C1([H])C1([H])C([H])([H])C([H])([H])[N+]([H])(C([H])([H])C([H])([H])C([H])([H])Oc2c([H])c([H])c3c(c2[H])C([H])([H])N(C(=O)C([H])(N([H])C(=O)C([H])(N([H])C([H])([H])[H])C([H])([H])[H])C(C([H])([H])[H])(C([H])([H])[H])C([H])([H])[H])C([H])(C(=O)N([H])C2([H])c4c([H])c([H])c([H])c([H])c4C([H])([H])C([H])([H])C2([H])[H])C3([H])[H])C([H])([H])C1([H])[H]

>  <smiles>  (14) 
[H]N=C1C([H])([H])C([H])([H])N(C(=O)N2C([H])([H])C([H])([H])C([H])([H])C([H])(n3nc(-c4c([H])c([H])c(Oc5c([H])c([H])c(F)c([H])c5F)c([H])c4[H])c(C(=O)N([H])[H])c3N([H])[H])C2([H])[H])C([H])([H])C1([H])C1([H])C([H])([H])C([H])([H])[N+]([H])(C([H])([H])C([H])([H])C([H])([H])Oc2c([H])c([H])c3c(c2[H])C([H])([H])N(C(=O)C([H])(N([H])C(=O)C([H])(N([H])C([H])([H])[H])C([H])([H])[H])C(C([H])([H])[H])(C([H])([H])[H])C([H])([H])[H])C([H])(C(=O)N([H])C2([H])c4c([H])c([H])c([H])c([H])c4C([H])([H])C([H])([H])C2([H])[H])C3([H])[H])C([H])([H])C1([H])[H]

$$$$
14:0:0
     RDKit          3D

 96104  0  0  1  0  0  0  0  0999 V2000
  -30.4040  -22.9190   22.0090 C   0  0  0  0  0  3  0  0  0  0  0  0
  -29.8490  -23.2680   20.8330 C   0  0  0  0  0  0  0  0  0  0  0  0
  -30.6050  -21.4900   22.4940 C   0  0  0  0  0  2  0  0  0  0  0  0
  -29.2340  -20.7960   20.5690 C   0  0  0  0  0  2  0  0  0  0  0  0
  -29.3640  -22.1860   19.8550 C   0  0  0  0  0  3  0  0  0  0  0  0
  -30.4040  -20.4640   21.4320 N   0  0  2  0  0  4  0  0  0  0  0  0
  -31.2260  -20.5030   20.8490 H   0  0  0  0  0  0  0  0  0  0  0  0
  -29.7430  -24.7520   20.4350 C   0  0  0  0  0  2  0  0  0  0  0  0
  -28.3230  -25.3070   20.1840 C   0  0  0  0  0  2  0  0  0  0  0  0
  -28.3830  -26.7440   20.1550 O   0  0  0  0  0  0  0  0  0  0  0  0
  -24.5430  -31.8980   23.2220 C   0  0  0  0  0  0  0  0  0  0  0  0
  -27.1940  -27.4470   20.1520 C   0  0  0  0  0  0  0  0  0  0  0  0
  -23.3360  -30.4840   21.5930 C   0  0  0  0  0  3  0  0  0  0  0  0
  -24.7890  -28.9440   20.1700 C   0  0  0  0  0  0  0  0  0  0  0  0
  -25.8600  -30.8520   21.3800 C   0  0  0  0  0  2  0  0  0  0  0  0
  -25.9490  -29.4780   20.7440 C   0  0  0  0  0  0  0  0  0  0  0  0
  -27.1540  -28.7400   20.7230 C   0  0  0  0  0  3  0  0  0  0  0  0
  -26.0120  -26.9250   19.5780 C   0  0  0  0  0  3  0  0  0  0  0  0
  -24.8160  -27.6680   19.5830 C   0  0  0  0  0  3  0  0  0  0  0  0
  -23.5420  -29.7980   20.2150 C   0  0  0  0  0  2  0  0  0  0  0  0
  -24.5990  -31.0930   22.1240 N   0  0  0  0  0  0  0  0  0  0  0  0
  -23.4620  -32.1690   23.7660 O   0  0  0  0  0  0  0  0  0  0  0  0
  -22.6930  -29.4650   22.5610 C   0  0  0  0  0  0  0  0  0  0  0  0
  -21.3670  -29.2780   22.4390 N   0  0  0  0  0  0  0  0  0  0  0  0
  -23.3820  -28.8450   23.3750 O   0  0  0  0  0  0  0  0  0  0  0  0
  -20.8730  -29.8310   21.7530 H   0  0  0  0  0  0  0  0  0  0  0  0
  -17.9990  -28.0790   22.9550 C   0  0  0  0  0  0  0  0  0  0  0  0
  -20.5570  -28.3420   23.2170 C   0  0  0  0  0  3  0  0  0  0  0  0
  -20.6610  -26.9090   22.6450 C   0  0  0  0  0  2  0  0  0  0  0  0
  -19.5570  -26.5810   21.6350 C   0  0  0  0  0  2  0  0  0  0  0  0
  -18.1760  -26.7270   22.2840 C   0  0  0  0  0  2  0  0  0  0  0  0
  -19.1180  -28.8440   23.3780 C   0  0  0  0  0  0  0  0  0  0  0  0
  -18.9000  -30.1110   23.9640 C   0  0  0  0  0  3  0  0  0  0  0  0
  -17.5950  -30.6100   24.1320 C   0  0  0  0  0  3  0  0  0  0  0  0
  -16.4900  -29.8420   23.7250 C   0  0  0  0  0  3  0  0  0  0  0  0
  -16.6930  -28.5780   23.1420 C   0  0  0  0  0  3  0  0  0  0  0  0
  -25.8300  -32.5370   23.8350 C   0  0  0  0  0  3  0  0  0  0  0  0
  -26.3600  -31.7690   25.1070 C   0  0  1  0  0  0  0  0  0  0  0  0
  -25.2770  -31.5270   26.1830 C   0  0  0  0  0  1  0  0  0  0  0  0
  -26.9460  -30.3950   24.7090 C   0  0  0  0  0  1  0  0  0  0  0  0
  -27.5110  -32.5700   25.7600 C   0  0  0  0  0  1  0  0  0  0  0  0
  -25.5160  -33.9340   24.1630 N   0  0  0  0  0  0  0  0  0  0  0  0
  -25.8460  -34.9870   23.4030 C   0  0  0  0  0  0  0  0  0  0  0  0
  -26.5200  -34.8850   22.3750 O   0  0  0  0  0  0  0  0  0  0  0  0
  -24.9180  -34.0870   24.9630 H   0  0  0  0  0  0  0  0  0  0  0  0
  -24.1160  -36.7740   23.0380 C   0  0  0  0  0  1  0  0  0  0  0  0
  -25.3520  -36.3740   23.8570 C   0  0  0  0  0  3  0  0  0  0  0  0
  -27.4810  -37.2610   24.7020 C   0  0  0  0  0  1  0  0  0  0  0  0
  -26.3830  -37.4290   23.7530 N   0  0  0  0  0  0  0  0  0  0  0  0
  -25.9740  -38.3480   23.9020 H   0  0  0  0  0  0  0  0  0  0  0  0
  -30.2490  -22.1460   18.5730 C   0  0  0  0  0  2  0  0  0  0  0  0
  -29.6790  -21.3630   17.4570 N   0  0  0  0  0  4  0  0  0  0  0  0
  -29.6700  -20.3770   17.6400 H   0  0  0  0  0  0  0  0  0  0  0  0
  -30.2420  -21.5050   16.6370 H   0  0  0  0  0  0  0  0  0  0  0  0
  -28.7480  -21.6660   17.2330 H   0  0  0  0  0  0  0  0  0  0  0  0
  -30.4010  -19.0940   22.0390 C   0  0  0  0  0  2  0  0  0  0  0  0
  -30.2770  -17.8810   21.0760 C   0  0  0  0  0  2  0  0  0  0  0  0
  -30.6830  -16.5620   21.7880 C   0  0  0  0  0  2  0  0  0  0  0  0
  -30.7030  -14.4640   20.3720 C   0  0  0  0  0  0  0  0  0  0  0  0
  -30.3370  -12.3780   19.0930 C   0  0  0  0  0  2  0  0  0  0  0  0
  -29.3580  -12.6250   17.9280 C   0  0  0  0  0  2  0  0  0  0  0  0
  -27.8940  -12.4970   18.3950 C   0  0  0  0  0  2  0  0  0  0  0  0
  -27.6060  -13.3030   19.6900 C   0  0  0  0  0  3  0  0  0  0  0  0
  -28.6820  -13.0050   20.7550 C   0  0  0  0  0  2  0  0  0  0  0  0
  -29.9990  -13.3180   20.1720 N   0  0  0  0  0  0  0  0  0  0  0  0
  -31.7740  -14.7140   19.8140 O   0  0  0  0  0  0  0  0  0  0  0  0
  -30.1160  -15.3380   21.2080 N   0  0  0  0  0  0  0  0  0  0  0  0
  -29.2340  -15.0280   21.5880 H   0  0  0  0  0  0  0  0  0  0  0  0
  -25.2240  -13.9390   20.4450 C   0  0  0  0  0  0  0  0  0  0  0  0
  -24.1570  -13.1750   20.8360 C   0  0  0  0  0  0  0  0  0  0  0  0
  -24.6070  -11.8200   20.7990 C   0  0  0  0  0  0  0  0  0  0  0  0
  -26.2580  -13.0470   20.1950 N   0  0  0  0  0  0  0  0  0  0  0  0
  -25.8890  -11.7690   20.4650 N   0  0  0  0  0  0  0  0  0  0  0  0
  -23.8730  -10.5640   21.0030 C   0  0  0  0  0  0  0  0  0  0  0  0
  -24.3230   -9.5870   21.9190 C   0  0  0  0  0  3  0  0  0  0  0  0
  -23.5920   -8.3960   22.1130 C   0  0  0  0  0  3  0  0  0  0  0  0
  -22.3960   -8.1720   21.3900 C   0  0  0  0  0  0  0  0  0  0  0  0
  -21.9660   -9.1350   20.4600 C   0  0  0  0  0  3  0  0  0  0  0  0
  -22.6980  -10.3170   20.2650 C   0  0  0  0  0  3  0  0  0  0  0  0
  -21.6330   -7.0340   21.4940 O   0  0  0  0  0  0  0  0  0  0  0  0
  -21.6140   -6.2830   22.6430 C   0  0  0  0  0  0  0  0  0  0  0  0
  -21.2470   -6.8350   23.8900 C   0  0  0  0  0  3  0  0  0  0  0  0
  -21.1750   -6.0120   25.0300 C   0  0  0  0  0  3  0  0  0  0  0  0
  -21.4590   -4.6370   24.9270 C   0  0  0  0  0  0  0  0  0  0  0  0
  -21.8180   -4.0840   23.6850 C   0  0  0  0  0  3  0  0  0  0  0  0
  -21.8930   -4.9050   22.5460 C   0  0  0  0  0  0  0  0  0  0  0  0
  -22.2190   -4.3630   21.3490 F   0  0  0  0  0  0  0  0  0  0  0  0
  -21.3820   -3.8450   26.0200 F   0  0  0  0  0  0  0  0  0  0  0  0
  -22.7680  -13.6620   21.1370 C   0  0  0  0  0  0  0  0  0  0  0  0
  -22.0550  -12.9730   22.0210 N   0  0  0  0  0  0  0  0  0  0  0  0
  -22.3260  -14.6870   20.6220 O   0  0  0  0  0  0  0  0  0  0  0  0
  -22.4240  -12.1420   22.4570 H   0  0  0  0  0  0  0  0  0  0  0  0
  -21.1230  -13.2800   22.2600 H   0  0  0  0  0  0  0  0  0  0  0  0
  -25.3990  -15.3080   20.2660 N   0  0  0  0  0  0  0  0  0  0  0  0
  -24.6440  -15.9720   20.3990 H   0  0  0  0  0  0  0  0  0  0  0  0
  -26.2470  -15.7410   19.9210 H   0  0  0  0  0  0  0  0  0  0  0  0
  1  3  1  0
  2  1  2  0
  4  6  1  0
  5 51  1  0
  5  4  1  0
  5  2  1  0
  6 56  1  0
  6  3  1  0
  6  7  1  6
  8  2  1  0
  9  8  1  0
 10  9  1  0
 11 22  2  0
 12 10  1  0
 12 17  1  0
 13 21  1  0
 13 23  1  0
 14 20  1  0
 14 16  1  0
 15 21  1  0
 16 15  1  0
 17 16  2  0
 18 19  1  0
 18 12  2  0
 19 14  2  0
 20 13  1  0
 21 11  1  0
 23 25  2  0
 24 23  1  0
 26 24  1  0
 27 36  2  0
 27 32  1  0
 28 24  1  0
 28 32  1  0
 29 28  1  0
 30 31  1  0
 30 29  1  0
 31 27  1  0
 32 33  2  0
 33 34  1  0
 35 34  2  0
 36 35  1  0
 37 11  1  0
 37 42  1  0
 37 38  1  0
 38 41  1  1
 38 39  1  0
 40 38  1  0
 42 45  1  0
 43 47  1  0
 43 42  1  0
 44 43  2  0
 47 46  1  0
 49 47  1  0
 49 50  1  0
 49 48  1  0
 52 53  1  0
 52 51  1  0
 54 52  1  0
 55 52  1  0
 57 58  1  0
 57 56  1  0
 59 67  1  0
 60 65  1  0
 61 62  1  0
 61 60  1  0
 63 62  1  0
 63 72  1  0
 63 64  1  0
 65 59  1  0
 65 64  1  0
 66 59  2  0
 67 68  1  0
 67 58  1  0
 69 70  2  0
 70 89  1  0
 71 70  1  0
 71 74  1  0
 72 69  1  0
 72 73  1  0
 73 71  2  0
 74 75  1  0
 75 76  2  0
 77 80  1  0
 77 76  1  0
 78 77  2  0
 79 78  1  0
 79 74  2  0
 80 81  1  0
 81 82  1  0
 82 83  2  0
 84 83  1  0
 84 88  1  0
 85 84  2  0
 86 81  2  0
 86 85  1  0
 87 86  1  0
 89 90  1  0
 90 93  1  0
 90 92  1  0
 91 89  2  0
 94 95  1  0
 94 69  1  0
 96 94  1  0
M  ISO  4   9 101  10 101  59 100  67 100
M  END
>  <TORSDO>  (15) 
F 23

>  <SCORE>  (15) 
-13.028

>  <name>  (15) 
14

>  <ligand_id>  (15) 
14

>  <original_smiles>  (15) 
[H]C1=C(C([H])([H])C([H])([H])Oc2c([H])c([H])c3c(c2[H])C([H])([H])N(C(=O)C([H])(N([H])C(=O)C([H])(N([H])C([H])([H])[H])C([H])([H])[H])C(C([H])([H])[H])(C([H])([H])[H])C([H])([H])[H])C([H])(C(=O)N([H])C2([H])c4c([H])c([H])c([H])c([H])c4C([H])([H])C([H])([H])C2([H])[H])C3([H])[H])C([H])(C([H])([H])[N+]([H])([H])[H])C([H])([H])[N+]([H])(C([H])([H])C([H])([H])C([H])([H])N([H])C(=O)N2C([H])([H])C([H])([H])C([H])([H])C([H])(n3nc(-c4c([H])c([H])c(Oc5c([H])c([H])c(F)c([H])c5F)c([H])c4[H])c(C(=O)N([H])[H])c3N([H])[H])C2([H])[H])C1([H])[H]

>  <smiles>  (15) 
[H]C1=C(C([H])([H])C([H])([H])Oc2c([H])c([H])c3c(c2[H])C([H])([H])N(C(=O)C([H])(N([H])C(=O)C([H])(N([H])C([H])([H])[H])C([H])([H])[H])C(C([H])([H])[H])(C([H])([H])[H])C([H])([H])[H])C([H])(C(=O)N([H])C2([H])c4c([H])c([H])c([H])c([H])c4C([H])([H])C([H])([H])C2([H])[H])C3([H])[H])C([H])(C([H])([H])[N+]([H])([H])[H])C([H])([H])[N+]([H])(C([H])([H])C([H])([H])C([H])([H])N([H])C(=O)N2C([H])([H])C([H])([H])C([H])([H])C([H])(n3nc(-c4c([H])c([H])c(Oc5c([H])c([H])c(F)c([H])c5F)c([H])c4[H])c(C(=O)N([H])[H])c3N([H])[H])C2([H])[H])C1([H])[H]

$$$$
15:0:0
     RDKit          3D

106116  0  0  1  0  0  0  0  0999 V2000
  -25.4420  -19.1220   19.2280 C   0  0  0  0  0  3  0  0  0  0  0  0
  -26.7830  -19.1740   19.2310 C   0  0  0  0  0  0  0  0  0  0  0  0
  -24.5550  -19.8590   18.2440 C   0  0  0  0  0  2  0  0  0  0  0  0
  -27.5350  -20.0430   18.2390 C   0  0  0  0  0  2  0  0  0  0  0  0
  -27.1780  -21.5310   18.3770 C   0  0  0  0  0  2  0  0  0  0  0  0
  -25.8340  -21.9720   17.7400 C   0  0  0  0  0  3  0  0  0  0  0  0
  -24.6730  -21.3260   18.4110 N   0  0  0  0  0  4  0  0  0  0  0  0
  -24.6600  -21.5440   19.3950 H   0  0  0  0  0  0  0  0  0  0  0  0
  -23.8380  -21.7240   18.0110 H   0  0  0  0  0  0  0  0  0  0  0  0
  -27.6190  -18.4690   20.2890 C   0  0  0  0  0  2  0  0  0  0  0  0
  -28.7130  -17.5400   19.7190 C   0  0  0  0  0  2  0  0  0  0  0  0
  -32.0150  -19.2930   20.9930 C   0  0  0  0  0  2  0  0  0  0  0  0
  -33.0310  -18.3560   20.3310 C   0  0  0  0  0  2  0  0  0  0  0  0
  -30.6210  -19.1470   20.3580 C   0  0  0  0  0  2  0  0  0  0  0  0
  -32.5410  -16.9040   20.3880 C   0  0  0  0  0  2  0  0  0  0  0  0
  -30.1040  -17.6870   20.3930 C   0  0  0  0  0  3  0  0  0  0  0  0
  -31.1550  -16.7560   19.7340 C   0  0  0  0  0  3  0  0  0  0  0  0
  -31.1810  -14.3530   19.0450 C   0  0  0  0  0  0  0  0  0  0  0  0
  -30.9710  -11.9460   18.5500 C   0  0  0  0  0  2  0  0  0  0  0  0
  -29.8870  -11.6850   17.4890 C   0  0  0  0  0  2  0  0  0  0  0  0
  -28.5000  -11.5560   18.1450 C   0  0  0  0  0  2  0  0  0  0  0  0
  -28.1940  -12.7230   19.1210 C   0  0  0  0  0  3  0  0  0  0  0  0
  -29.3730  -12.9410   20.0940 C   0  0  0  0  0  2  0  0  0  0  0  0
  -30.6000  -13.1540   19.3010 N   0  0  0  0  0  0  0  0  0  0  0  0
  -32.0720  -14.5130   18.2050 O   0  0  0  0  0  0  0  0  0  0  0  0
  -30.7320  -15.3610   19.8050 N   0  0  0  0  0  0  0  0  0  0  0  0
  -30.0120  -15.1310   20.4720 H   0  0  0  0  0  0  0  0  0  0  0  0
  -26.0400  -13.4290   20.3420 C   0  0  0  0  0  0  0  0  0  0  0  0
  -25.0030  -12.7020   20.8600 C   0  0  0  0  0  0  0  0  0  0  0  0
  -25.3290  -11.3310   20.6300 C   0  0  0  0  0  0  0  0  0  0  0  0
  -26.9400  -12.5030   19.8370 N   0  0  0  0  0  0  0  0  0  0  0  0
  -26.5230  -11.2300   20.0610 N   0  0  0  0  0  0  0  0  0  0  0  0
  -24.5480  -10.1090   20.8640 C   0  0  0  0  0  0  0  0  0  0  0  0
  -24.9180   -9.1760   21.8580 C   0  0  0  0  0  3  0  0  0  0  0  0
  -24.1400   -8.0190   22.0770 C   0  0  0  0  0  3  0  0  0  0  0  0
  -22.9800   -7.7850   21.3010 C   0  0  0  0  0  0  0  0  0  0  0  0
  -22.6290   -8.7060   20.2980 C   0  0  0  0  0  3  0  0  0  0  0  0
  -23.4070   -9.8550   20.0790 C   0  0  0  0  0  3  0  0  0  0  0  0
  -22.1800   -6.6760   21.4260 O   0  0  0  0  0  0  0  0  0  0  0  0
  -21.9120   -6.1150   22.6500 C   0  0  0  0  0  0  0  0  0  0  0  0
  -21.2000   -6.8150   23.6490 C   0  0  0  0  0  3  0  0  0  0  0  0
  -20.8860   -6.1760   24.8650 C   0  0  0  0  0  3  0  0  0  0  0  0
  -21.2700   -4.8390   25.0810 C   0  0  0  0  0  0  0  0  0  0  0  0
  -21.9730   -4.1400   24.0840 C   0  0  0  0  0  3  0  0  0  0  0  0
  -22.2900   -4.7760   22.8700 C   0  0  0  0  0  0  0  0  0  0  0  0
  -22.9480   -4.0910   21.9040 F   0  0  0  0  0  0  0  0  0  0  0  0
  -20.9620   -4.2230   26.2450 F   0  0  0  0  0  0  0  0  0  0  0  0
  -23.7340  -13.2460   21.4510 C   0  0  0  0  0  0  0  0  0  0  0  0
  -23.1500  -12.5370   22.4090 N   0  0  0  0  0  0  0  0  0  0  0  0
  -23.2790  -14.3340   21.0970 O   0  0  0  0  0  0  0  0  0  0  0  0
  -23.5350  -11.6550   22.7140 H   0  0  0  0  0  0  0  0  0  0  0  0
  -22.3070  -12.8810   22.8470 H   0  0  0  0  0  0  0  0  0  0  0  0
  -26.2850  -14.7950   20.2440 N   0  0  0  0  0  0  0  0  0  0  0  0
  -25.6140  -15.4820   20.5680 H   0  0  0  0  0  0  0  0  0  0  0  0
  -27.1040  -15.2030   19.8130 H   0  0  0  0  0  0  0  0  0  0  0  0
  -25.6790  -23.5180   17.7810 C   0  0  0  0  0  2  0  0  0  0  0  0
  -27.4510  -24.0590   15.8920 C   0  0  0  0  0  2  0  0  0  0  0  0
  -25.8620  -25.8390   16.6970 C   0  0  0  0  0  2  0  0  0  0  0  0
  -28.6070  -24.6110   16.7630 C   0  0  0  0  0  2  0  0  0  0  0  0
  -27.1730  -26.5920   17.0370 C   0  0  0  0  0  2  0  0  0  0  0  0
  -26.0450  -24.3100   16.4870 C   0  0  0  0  0  3  0  0  0  0  0  0
  -28.1410  -25.6760   17.6890 N   0  0  2  0  0  4  0  0  0  0  0  0
  -27.5780  -25.2040   18.3790 H   0  0  0  0  0  0  0  0  0  0  0  0
  -29.2270  -26.3370   18.4600 C   0  0  0  0  0  2  0  0  0  0  0  0
  -29.3540  -25.7320   19.8830 C   0  0  0  0  0  2  0  0  0  0  0  0
  -28.9740  -26.6420   20.9230 O   0  0  0  0  0  0  0  0  0  0  0  0
  -24.7180  -31.6700   23.6040 C   0  0  0  0  0  0  0  0  0  0  0  0
  -27.7260  -27.2300   20.8860 C   0  0  0  0  0  0  0  0  0  0  0  0
  -23.6660  -30.1470   21.9640 C   0  0  0  0  0  3  0  0  0  0  0  0
  -25.2610  -28.6070   20.7110 C   0  0  0  0  0  0  0  0  0  0  0  0
  -26.1820  -30.6040   21.8980 C   0  0  0  0  0  2  0  0  0  0  0  0
  -26.3570  -29.2090   21.3380 C   0  0  0  0  0  0  0  0  0  0  0  0
  -27.5880  -28.5270   21.4280 C   0  0  0  0  0  3  0  0  0  0  0  0
  -26.5950  -26.6190   20.2940 C   0  0  0  0  0  3  0  0  0  0  0  0
  -25.3700  -27.3040   20.1960 C   0  0  0  0  0  3  0  0  0  0  0  0
  -23.9830  -29.4120   20.6350 C   0  0  0  0  0  2  0  0  0  0  0  0
  -24.8690  -30.8260   22.5470 N   0  0  0  0  0  0  0  0  0  0  0  0
  -23.5970  -31.9200   24.0680 O   0  0  0  0  0  0  0  0  0  0  0  0
  -23.0020  -29.1430   22.9320 C   0  0  0  0  0  0  0  0  0  0  0  0
  -21.8520  -28.5880   22.5200 N   0  0  0  0  0  0  0  0  0  0  0  0
  -23.5340  -28.8570   24.0090 O   0  0  0  0  0  0  0  0  0  0  0  0
  -21.4850  -28.8760   21.6250 H   0  0  0  0  0  0  0  0  0  0  0  0
  -18.9690  -26.4220   22.2950 C   0  0  0  0  0  0  0  0  0  0  0  0
  -21.0660  -27.5950   23.2500 C   0  0  0  0  0  3  0  0  0  0  0  0
  -21.7430  -26.2060   23.1980 C   0  0  0  0  0  2  0  0  0  0  0  0
  -21.2380  -25.3330   22.0420 C   0  0  0  0  0  2  0  0  0  0  0  0
  -19.7270  -25.1130   22.1530 C   0  0  0  0  0  2  0  0  0  0  0  0
  -19.6010  -27.5900   22.7960 C   0  0  0  0  0  0  0  0  0  0  0  0
  -18.8600  -28.7910   22.8730 C   0  0  0  0  0  3  0  0  0  0  0  0
  -17.5120  -28.8320   22.4680 C   0  0  0  0  0  3  0  0  0  0  0  0
  -16.8870  -27.6670   21.9930 C   0  0  0  0  0  3  0  0  0  0  0  0
  -17.6130  -26.4670   21.9080 C   0  0  0  0  0  3  0  0  0  0  0  0
  -25.9420  -32.3820   24.2600 C   0  0  0  0  0  3  0  0  0  0  0  0
  -25.5780  -33.7890   24.4680 N   0  0  0  0  0  0  0  0  0  0  0  0
  -25.8750  -34.7860   23.6240 C   0  0  0  0  0  0  0  0  0  0  0  0
  -26.5610  -34.6240   22.6110 O   0  0  0  0  0  0  0  0  0  0  0  0
  -24.9810  -33.9850   25.2570 H   0  0  0  0  0  0  0  0  0  0  0  0
  -24.0610  -36.4520   23.1230 C   0  0  0  0  0  1  0  0  0  0  0  0
  -25.3220  -36.1850   23.9590 C   0  0  0  0  0  3  0  0  0  0  0  0
  -27.4080  -37.2460   24.6980 C   0  0  0  0  0  1  0  0  0  0  0  0
  -26.3030  -37.2730   23.7450 N   0  0  0  0  0  0  0  0  0  0  0  0
  -25.8510  -38.1810   23.8080 H   0  0  0  0  0  0  0  0  0  0  0  0
  -26.3970  -31.7170   25.6170 C   0  0  1  0  0  0  0  0  0  0  0  0
  -25.2270  -31.3750   26.5680 C   0  0  0  0  0  1  0  0  0  0  0  0
  -27.1790  -30.4090   25.3490 C   0  0  0  0  0  1  0  0  0  0  0  0
  -27.3620  -32.6630   26.3680 C   0  0  0  0  0  1  0  0  0  0  0  0
  1  2  2  0
  2 10  1  0
  3  7  1  0
  3  1  1  0
  4  5  1  0
  4  2  1  0
  6 56  1  0
  6  5  1  0
  6  7  1  0
  7  8  1  0
  9  7  1  0
 11 10  1  0
 13 15  1  0
 13 12  1  0
 14 16  1  0
 14 12  1  0
 16 11  1  0
 17 26  1  0
 17 15  1  0
 17 16  1  0
 18 24  1  0
 18 26  1  0
 19 24  1  0
 20 21  1  0
 20 19  1  0
 22 21  1  0
 22 31  1  0
 22 23  1  0
 24 23  1  0
 25 18  2  0
 26 27  1  0
 28 29  2  0
 29 48  1  0
 30 29  1  0
 30 33  1  0
 31 32  1  0
 31 28  1  0
 32 30  2  0
 33 34  1  0
 34 35  2  0
 36 39  1  0
 36 35  1  0
 37 36  2  0
 38 37  1  0
 38 33  2  0
 39 40  1  0
 40 45  2  0
 40 41  1  0
 41 42  2  0
 42 43  1  0
 43 47  1  0
 44 43  2  0
 45 44  1  0
 46 45  1  0
 48 49  1  0
 49 51  1  0
 49 52  1  0
 50 48  2  0
 53 28  1  0
 53 54  1  0
 55 53  1  0
 57 61  1  0
 57 59  1  0
 58 60  1  0
 59 62  1  0
 60 62  1  0
 61 58  1  0
 61 56  1  0
 62 63  1  1
 62 64  1  0
 64 65  1  0
 65 66  1  0
 67 78  2  0
 68 66  1  0
 68 73  1  0
 69 77  1  0
 69 79  1  0
 70 72  1  0
 71 77  1  0
 72 73  2  0
 72 71  1  0
 74 68  2  0
 75 74  1  0
 75 70  2  0
 76 70  1  0
 76 69  1  0
 77 67  1  0
 79 81  2  0
 80 79  1  0
 82 80  1  0
 83 88  1  0
 84 80  1  0
 85 84  1  0
 86 87  1  0
 86 85  1  0
 87 83  1  0
 88 89  2  0
 88 84  1  0
 90 89  1  0
 91 90  2  0
 92 91  1  0
 92 83  2  0
 93 67  1  0
 93 94  1  0
 93103  1  0
 94 97  1  0
 95 99  1  0
 95 94  1  0
 96 95  2  0
 99 98  1  0
101102  1  0
101 99  1  0
101100  1  0
103106  1  1
103104  1  0
105103  1  0
M  ISO  4  18 100  26 100  65 101  66 101
M  END
>  <TORSDO>  (16) 
F 23

>  <SCORE>  (16) 
-7.590

>  <name>  (16) 
15

>  <ligand_id>  (16) 
15

>  <original_smiles>  (16) 
[H]C1=C(C([H])([H])C([H])([H])C2([H])C([H])([H])C([H])([H])C([H])([H])C([H])([H])C2([H])N([H])C(=O)N2C([H])([H])C([H])([H])C([H])([H])C([H])(n3nc(-c4c([H])c([H])c(Oc5c([H])c([H])c(F)c([H])c5F)c([H])c4[H])c(C(=O)N([H])[H])c3N([H])[H])C2([H])[H])C([H])([H])C([H])([H])C([H])(C([H])([H])C2([H])C([H])([H])C([H])([H])[N+]([H])(C([H])([H])C([H])([H])Oc3c([H])c([H])c4c(c3[H])C([H])([H])N(C(=O)C([H])(N([H])C(=O)C([H])(N([H])C([H])([H])[H])C([H])([H])[H])C(C([H])([H])[H])(C([H])([H])[H])C([H])([H])[H])C([H])(C(=O)N([H])C3([H])c5c([H])c([H])c([H])c([H])c5C([H])([H])C([H])([H])C3([H])[H])C4([H])[H])C([H])([H])C2([H])[H])[N+]([H])([H])C1([H])[H]

>  <smiles>  (16) 
[H]C1=C(C([H])([H])C([H])([H])C2([H])C([H])([H])C([H])([H])C([H])([H])C([H])([H])C2([H])N([H])C(=O)N2C([H])([H])C([H])([H])C([H])([H])C([H])(n3nc(-c4c([H])c([H])c(Oc5c([H])c([H])c(F)c([H])c5F)c([H])c4[H])c(C(=O)N([H])[H])c3N([H])[H])C2([H])[H])C([H])([H])C([H])([H])C([H])(C([H])([H])C2([H])C([H])([H])C([H])([H])[N+]([H])(C([H])([H])C([H])([H])Oc3c([H])c([H])c4c(c3[H])C([H])([H])N(C(=O)C([H])(N([H])C(=O)C([H])(N([H])C([H])([H])[H])C([H])([H])[H])C(C([H])([H])[H])(C([H])([H])[H])C([H])([H])[H])C([H])(C(=O)N([H])C3([H])c5c([H])c([H])c([H])c([H])c5C([H])([H])C([H])([H])C3([H])[H])C4([H])[H])C([H])([H])C2([H])[H])[N+]([H])([H])C1([H])[H]

$$$$
16:0:0
     RDKit          3D

101111  0  0  1  0  0  0  0  0999 V2000
  -29.7580  -20.1010   23.6700 C   0  0  0  0  0  2  0  0  0  0  0  0
  -30.6300  -19.0510   22.9370 C   0  0  0  0  0  2  0  0  0  0  0  0
  -31.0870  -21.6830   22.2110 C   0  0  0  0  0  2  0  0  0  0  0  0
  -30.1940  -21.5690   23.4590 C   0  0  0  0  0  3  0  0  0  0  0  0
  -30.9770  -19.3040   21.4230 C   0  0  0  0  0  3  0  0  0  0  0  0
  -30.5320  -20.7800   21.0760 C   0  0  0  0  0  3  0  0  0  0  0  0
  -30.7770  -21.3910   19.6580 C   0  0  0  0  0  2  0  0  0  0  0  0
  -30.4000  -23.3930   18.0000 C   0  0  0  0  0  2  0  0  0  0  0  0
  -28.8180  -23.1540   19.9670 C   0  0  0  0  0  2  0  0  0  0  0  0
  -30.0490  -24.9050   17.9420 C   0  0  0  0  0  2  0  0  0  0  0  0
  -27.9140  -24.0550   19.0920 C   0  0  0  0  0  2  0  0  0  0  0  0
  -30.2530  -22.8630   19.4390 C   0  0  0  0  0  3  0  0  0  0  0  0
  -28.5850  -25.2300   18.3250 C   0  0  0  0  0  3  0  0  0  0  0  0
  -28.5200  -26.5090   18.9990 O   0  0  0  0  0  0  0  0  0  0  0  0
  -24.6580  -31.1020   22.9000 C   0  0  0  0  0  0  0  0  0  0  0  0
  -27.3010  -27.1610   19.1510 C   0  0  0  0  0  0  0  0  0  0  0  0
  -23.4150  -29.8100   21.2010 C   0  0  0  0  0  3  0  0  0  0  0  0
  -24.8390  -28.5260   19.5210 C   0  0  0  0  0  0  0  0  0  0  0  0
  -25.9050  -30.3280   20.8790 C   0  0  0  0  0  2  0  0  0  0  0  0
  -26.0110  -29.0420   20.0830 C   0  0  0  0  0  0  0  0  0  0  0  0
  -27.2420  -28.3620   19.9030 C   0  0  0  0  0  3  0  0  0  0  0  0
  -26.0990  -26.6720   18.5890 C   0  0  0  0  0  3  0  0  0  0  0  0
  -24.8760  -27.3360   18.7820 C   0  0  0  0  0  3  0  0  0  0  0  0
  -23.5600  -29.2980   19.7450 C   0  0  0  0  0  2  0  0  0  0  0  0
  -24.6800  -30.4260   21.7170 N   0  0  0  0  0  0  0  0  0  0  0  0
  -23.6020  -31.2470   23.5360 O   0  0  0  0  0  0  0  0  0  0  0  0
  -22.8950  -28.6520   22.0830 C   0  0  0  0  0  0  0  0  0  0  0  0
  -21.6020  -28.3170   21.9310 N   0  0  0  0  0  0  0  0  0  0  0  0
  -23.6510  -28.0610   22.8580 O   0  0  0  0  0  0  0  0  0  0  0  0
  -21.0470  -28.8560   21.2800 H   0  0  0  0  0  0  0  0  0  0  0  0
  -18.4340  -26.6020   22.2250 C   0  0  0  0  0  0  0  0  0  0  0  0
  -20.9070  -27.2360   22.6300 C   0  0  0  0  0  3  0  0  0  0  0  0
  -21.2530  -25.8590   22.0150 C   0  0  0  0  0  2  0  0  0  0  0  0
  -20.2590  -25.4140   20.9370 C   0  0  0  0  0  2  0  0  0  0  0  0
  -18.8450  -25.3230   21.5160 C   0  0  0  0  0  2  0  0  0  0  0  0
  -19.4020  -27.5090   22.7340 C   0  0  0  0  0  0  0  0  0  0  0  0
  -18.9660  -28.7010   23.3520 C   0  0  0  0  0  3  0  0  0  0  0  0
  -17.5930  -28.9910   23.4670 C   0  0  0  0  0  3  0  0  0  0  0  0
  -16.6390  -28.0830   22.9750 C   0  0  0  0  0  3  0  0  0  0  0  0
  -17.0600  -26.8920   22.3600 C   0  0  0  0  0  3  0  0  0  0  0  0
  -25.9490  -31.7440   23.4960 C   0  0  0  0  0  3  0  0  0  0  0  0
  -25.5880  -33.0780   23.9960 N   0  0  0  0  0  0  0  0  0  0  0  0
  -25.8250  -34.2240   23.3420 C   0  0  0  0  0  0  0  0  0  0  0  0
  -26.4480  -34.2720   22.2780 O   0  0  0  0  0  0  0  0  0  0  0  0
  -25.0270  -33.1110   24.8350 H   0  0  0  0  0  0  0  0  0  0  0  0
  -24.0010  -35.9540   23.2570 C   0  0  0  0  0  1  0  0  0  0  0  0
  -25.2910  -35.5250   23.9730 C   0  0  0  0  0  3  0  0  0  0  0  0
  -27.4130  -36.4160   24.8310 C   0  0  0  0  0  1  0  0  0  0  0  0
  -26.2680  -36.6350   23.9490 N   0  0  0  0  0  0  0  0  0  0  0  0
  -25.8220  -37.5080   24.2190 H   0  0  0  0  0  0  0  0  0  0  0  0
  -26.6010  -30.8780   24.6440 C   0  0  1  0  0  0  0  0  0  0  0  0
  -25.5980  -30.4320   25.7330 C   0  0  0  0  0  1  0  0  0  0  0  0
  -27.2610  -29.6060   24.0630 C   0  0  0  0  0  1  0  0  0  0  0  0
  -27.7250  -31.6850   25.3340 C   0  0  0  0  0  1  0  0  0  0  0  0
  -30.4820  -18.1350   20.4970 C   0  0  0  0  0  2  0  0  0  0  0  0
  -30.7580  -14.5300   19.4250 C   0  0  0  0  0  0  0  0  0  0  0  0
  -30.2960  -12.4510   18.1330 C   0  0  0  0  0  2  0  0  0  0  0  0
  -29.1140  -12.6350   17.1520 C   0  0  0  0  0  2  0  0  0  0  0  0
  -27.7370  -12.4950   17.8460 C   0  0  0  0  0  2  0  0  0  0  0  0
  -27.6700  -13.2480   19.2020 C   0  0  0  0  0  3  0  0  0  0  0  0
  -28.9060  -12.8290   20.0190 C   0  0  0  0  0  2  0  0  0  0  0  0
  -30.0810  -13.3410   19.2980 N   0  0  0  0  0  0  0  0  0  0  0  0
  -31.7460  -14.7290   18.6990 O   0  0  0  0  0  0  0  0  0  0  0  0
  -30.6570  -15.3430   22.5590 C   0  0  0  0  0  2  0  0  0  0  0  0
  -31.7650  -16.2150   21.9490 C   0  0  0  0  0  2  0  0  0  0  0  0
  -29.5510  -15.4670   21.5160 C   0  0  0  0  0  2  0  0  0  0  0  0
  -31.1980  -16.7060   20.5870 C   0  0  0  0  0  3  0  0  0  0  0  0
  -30.3090  -15.5520   20.2550 N   0  0  0  0  0  0  0  0  0  0  0  0
  -25.4940  -13.8890   20.4200 C   0  0  0  0  0  0  0  0  0  0  0  0
  -24.4610  -13.1300   20.9030 C   0  0  0  0  0  0  0  0  0  0  0  0
  -24.8220  -11.7700   20.6450 C   0  0  0  0  0  0  0  0  0  0  0  0
  -26.4180  -12.9900   19.9060 N   0  0  0  0  0  0  0  0  0  0  0  0
  -26.0230  -11.7050   20.0890 N   0  0  0  0  0  0  0  0  0  0  0  0
  -24.0670  -10.5260   20.8480 C   0  0  0  0  0  0  0  0  0  0  0  0
  -24.5370   -9.5140   21.7160 C   0  0  0  0  0  3  0  0  0  0  0  0
  -23.7910   -8.3320   21.9060 C   0  0  0  0  0  3  0  0  0  0  0  0
  -22.5600   -8.1540   21.2340 C   0  0  0  0  0  0  0  0  0  0  0  0
  -22.1060   -9.1570   20.3600 C   0  0  0  0  0  3  0  0  0  0  0  0
  -22.8510  -10.3310   20.1650 C   0  0  0  0  0  3  0  0  0  0  0  0
  -21.7810   -7.0300   21.3390 O   0  0  0  0  0  0  0  0  0  0  0  0
  -21.6770   -6.3310   22.5170 C   0  0  0  0  0  0  0  0  0  0  0  0
  -21.2360   -6.9470   23.7060 C   0  0  0  0  0  3  0  0  0  0  0  0
  -21.0760   -6.1810   24.8790 C   0  0  0  0  0  3  0  0  0  0  0  0
  -21.3480   -4.8000   24.8590 C   0  0  0  0  0  0  0  0  0  0  0  0
  -21.7820   -4.1830   23.6740 C   0  0  0  0  0  3  0  0  0  0  0  0
  -21.9430   -4.9480   22.5040 C   0  0  0  0  0  0  0  0  0  0  0  0
  -22.3420   -4.3450   21.3560 F   0  0  0  0  0  0  0  0  0  0  0  0
  -21.1910   -4.0620   25.9840 F   0  0  0  0  0  0  0  0  0  0  0  0
  -23.1720  -13.6340   21.4870 C   0  0  0  0  0  0  0  0  0  0  0  0
  -22.5960  -12.9040   22.4360 N   0  0  0  0  0  0  0  0  0  0  0  0
  -22.6860  -14.7080   21.1370 O   0  0  0  0  0  0  0  0  0  0  0  0
  -23.0000  -12.0300   22.7400 H   0  0  0  0  0  0  0  0  0  0  0  0
  -21.7370  -13.2210   22.8620 H   0  0  0  0  0  0  0  0  0  0  0  0
  -25.7170  -15.2610   20.3610 N   0  0  0  0  0  0  0  0  0  0  0  0
  -25.0650  -15.9380   20.7380 H   0  0  0  0  0  0  0  0  0  0  0  0
  -26.5590  -15.6880   19.9950 H   0  0  0  0  0  0  0  0  0  0  0  0
  -30.8220  -22.2000   24.7280 C   0  0  0  0  0  2  0  0  0  0  0  0
  -30.9430  -23.6660   24.6510 N   0  0  0  0  0  4  0  0  0  0  0  0
  -31.5160  -23.9510   23.8780 H   0  0  0  0  0  0  0  0  0  0  0  0
  -31.3700  -24.0080   25.4940 H   0  0  0  0  0  0  0  0  0  0  0  0
  -30.0400  -24.0950   24.5720 H   0  0  0  0  0  0  0  0  0  0  0  0
  2  1  1  0
  3  4  1  0
  4  1  1  0
  4 97  1  0
  5 55  1  0
  5  2  1  0
  6  7  1  0
  6  5  1  0
  6  3  1  0
  8 12  1  0
 10  8  1  0
 10 13  1  0
 11  9  1  0
 12  7  1  0
 12  9  1  0
 13 14  1  0
 13 11  1  0
 14 16  1  0
 15 26  2  0
 16 21  1  0
 17 25  1  0
 17 27  1  0
 18 24  1  0
 18 20  1  0
 19 25  1  0
 20 19  1  0
 21 20  2  0
 22 23  1  0
 22 16  2  0
 23 18  2  0
 24 17  1  0
 25 15  1  0
 27 29  2  0
 28 27  1  0
 30 28  1  0
 31 40  2  0
 31 36  1  0
 32 28  1  0
 32 36  1  0
 33 32  1  0
 34 35  1  0
 34 33  1  0
 35 31  1  0
 36 37  2  0
 37 38  1  0
 39 38  2  0
 40 39  1  0
 41 15  1  0
 41 42  1  0
 41 51  1  0
 42 45  1  0
 43 47  1  0
 43 42  1  0
 44 43  2  0
 47 46  1  0
 49 47  1  0
 49 50  1  0
 49 48  1  0
 51 54  1  1
 51 52  1  0
 53 51  1  0
 56 68  1  0
 57 62  1  0
 58 59  1  0
 58 57  1  0
 60 59  1  0
 60 72  1  0
 60 61  1  0
 62 56  1  0
 62 61  1  0
 63 56  2  0
 65 64  1  0
 66 64  1  0
 67 55  1  0
 67 65  1  0
 68 67  1  0
 68 66  1  0
 69 70  2  0
 70 89  1  0
 71 74  1  0
 71 70  1  0
 72 73  1  0
 72 69  1  0
 73 71  2  0
 74 75  1  0
 75 76  2  0
 77 80  1  0
 77 76  1  0
 78 77  2  0
 79 78  1  0
 79 74  2  0
 80 81  1  0
 81 82  1  0
 82 83  2  0
 84 83  1  0
 84 88  1  0
 85 84  2  0
 86 81  2  0
 86 85  1  0
 87 86  1  0
 89 90  1  0
 90 92  1  0
 90 93  1  0
 91 89  2  0
 94 69  1  0
 94 95  1  0
 96 94  1  0
 98 97  1  0
 98100  1  0
 99 98  1  0
101 98  1  0
M  ISO  4  13 101  14 101  56 100  68 100
M  END
>  <TORSDO>  (17) 
F 21

>  <SCORE>  (17) 
-5.727

>  <name>  (17) 
16

>  <ligand_id>  (17) 
16

>  <original_smiles>  (17) 
[H]c1c([H])c([H])c2c(c1[H])C([H])([H])C([H])([H])C([H])([H])C2([H])N([H])C(=O)C1([H])N(C(=O)C([H])(N([H])C(=O)C([H])(N([H])C([H])([H])[H])C([H])([H])[H])C(C([H])([H])[H])(C([H])([H])[H])C([H])([H])[H])C([H])([H])c2c([H])c(OC3([H])C([H])([H])C([H])([H])C([H])(C([H])([H])C4([H])C([H])([H])C([H])(C([H])([H])[N+]([H])([H])[H])C([H])([H])C([H])([H])C4([H])C([H])([H])C4([H])N(C(=O)N5C([H])([H])C([H])([H])C([H])([H])C([H])(n6nc(-c7c([H])c([H])c(Oc8c([H])c([H])c(F)c([H])c8F)c([H])c7[H])c(C(=O)N([H])[H])c6N([H])[H])C5([H])[H])C([H])([H])C([H])([H])C4([H])[H])C([H])([H])C3([H])[H])c([H])c([H])c2C1([H])[H]

>  <smiles>  (17) 
[H]c1c([H])c([H])c2c(c1[H])C([H])([H])C([H])([H])C([H])([H])C2([H])N([H])C(=O)C1([H])N(C(=O)C([H])(N([H])C(=O)C([H])(N([H])C([H])([H])[H])C([H])([H])[H])C(C([H])([H])[H])(C([H])([H])[H])C([H])([H])[H])C([H])([H])c2c([H])c(OC3([H])C([H])([H])C([H])([H])C([H])(C([H])([H])C4([H])C([H])([H])C([H])(C([H])([H])[N+]([H])([H])[H])C([H])([H])C([H])([H])C4([H])C([H])([H])C4([H])N(C(=O)N5C([H])([H])C([H])([H])C([H])([H])C([H])(n6nc(-c7c([H])c([H])c(Oc8c([H])c([H])c(F)c([H])c8F)c([H])c7[H])c(C(=O)N([H])[H])c6N([H])[H])C5([H])[H])C([H])([H])C([H])([H])C4([H])[H])C([H])([H])C3([H])[H])c([H])c([H])c2C1([H])[H]

$$$$
17:0:0
     RDKit          3D

104112  0  0  1  0  0  0  0  0999 V2000
  -29.6160  -18.6130   25.0200 C   0  0  0  0  0  0  0  0  0  0  0  0
  -29.9790  -17.4300   24.1190 C   0  0  0  0  0  2  0  0  0  0  0  0
  -31.2080  -19.1400   22.7670 C   0  0  0  0  0  2  0  0  0  0  0  0
  -30.4030  -17.8380   22.6940 C   0  0  0  0  0  3  0  0  0  0  0  0
  -30.3260  -20.2290   23.4090 C   0  0  0  0  0  3  0  0  0  0  0  0
  -29.8100  -19.8430   24.7220 N   0  0  0  0  0  0  0  0  0  0  0  0
  -29.0480  -18.2210   26.3730 C   0  0  0  0  0  2  0  0  0  0  0  0
  -30.1170  -18.2260   27.4810 C   0  0  0  0  0  2  0  0  0  0  0  0
  -29.5140  -18.1040   28.8920 C   0  0  0  0  0  2  0  0  0  0  0  0
  -30.5620  -18.3090   30.0040 C   0  0  0  0  0  2  0  0  0  0  0  0
  -29.9550  -18.3220   31.3450 N   0  0  0  0  0  4  0  0  0  0  0  0
  -29.2920  -19.0710   31.4330 H   0  0  0  0  0  0  0  0  0  0  0  0
  -30.6680  -18.4560   32.0400 H   0  0  0  0  0  0  0  0  0  0  0  0
  -29.4920  -17.4530   31.5390 H   0  0  0  0  0  0  0  0  0  0  0  0
  -31.1710  -16.7350   21.9390 C   0  0  0  0  0  2  0  0  0  0  0  0
  -30.3410  -15.4510   21.7280 C   0  0  0  0  0  2  0  0  0  0  0  0
  -30.8710  -14.5300   20.6150 C   0  0  0  0  0  0  0  0  0  0  0  0
  -30.5320  -12.5480   19.1780 C   0  0  0  0  0  2  0  0  0  0  0  0
  -29.5810  -12.8680   18.0090 C   0  0  0  0  0  2  0  0  0  0  0  0
  -28.1100  -12.6950   18.4330 C   0  0  0  0  0  2  0  0  0  0  0  0
  -27.7850  -13.4210   19.7650 C   0  0  0  0  0  3  0  0  0  0  0  0
  -28.8370  -13.0770   20.8420 C   0  0  0  0  0  2  0  0  0  0  0  0
  -30.1670  -13.4120   20.3080 N   0  0  0  0  0  0  0  0  0  0  0  0
  -31.9100  -14.8430   20.0220 O   0  0  0  0  0  0  0  0  0  0  0  0
  -25.3560  -13.9780   20.4260 C   0  0  0  0  0  0  0  0  0  0  0  0
  -24.3010  -13.1810   20.7800 C   0  0  0  0  0  0  0  0  0  0  0  0
  -24.7950  -11.8400   20.7630 C   0  0  0  0  0  0  0  0  0  0  0  0
  -26.4280  -13.1200   20.2190 N   0  0  0  0  0  0  0  0  0  0  0  0
  -26.0910  -11.8310   20.4780 N   0  0  0  0  0  0  0  0  0  0  0  0
  -24.0990  -10.5610   20.9490 C   0  0  0  0  0  0  0  0  0  0  0  0
  -24.5460   -9.6060   21.8870 C   0  0  0  0  0  3  0  0  0  0  0  0
  -23.8490   -8.3900   22.0590 C   0  0  0  0  0  3  0  0  0  0  0  0
  -22.6910   -8.1220   21.2920 C   0  0  0  0  0  0  0  0  0  0  0  0
  -22.2620   -9.0670   20.3440 C   0  0  0  0  0  3  0  0  0  0  0  0
  -22.9610  -10.2730   20.1690 C   0  0  0  0  0  3  0  0  0  0  0  0
  -21.9650   -6.9590   21.3730 O   0  0  0  0  0  0  0  0  0  0  0  0
  -21.8910   -6.2340   22.5370 C   0  0  0  0  0  0  0  0  0  0  0  0
  -21.4290   -6.8070   23.7410 C   0  0  0  0  0  3  0  0  0  0  0  0
  -21.3040   -6.0090   24.8970 C   0  0  0  0  0  3  0  0  0  0  0  0
  -21.6310   -4.6420   24.8480 C   0  0  0  0  0  0  0  0  0  0  0  0
  -22.0860   -4.0690   23.6470 C   0  0  0  0  0  3  0  0  0  0  0  0
  -22.2130   -4.8630   22.4940 C   0  0  0  0  0  0  0  0  0  0  0  0
  -22.6330   -4.3020   21.3340 F   0  0  0  0  0  0  0  0  0  0  0  0
  -21.5030   -3.8730   25.9550 F   0  0  0  0  0  0  0  0  0  0  0  0
  -22.8880  -13.6230   21.0280 C   0  0  0  0  0  0  0  0  0  0  0  0
  -22.1700  -12.9240   21.9010 N   0  0  0  0  0  0  0  0  0  0  0  0
  -22.4260  -14.6250   20.4840 O   0  0  0  0  0  0  0  0  0  0  0  0
  -22.5550  -12.1140   22.3640 H   0  0  0  0  0  0  0  0  0  0  0  0
  -21.2210  -13.2030   22.1090 H   0  0  0  0  0  0  0  0  0  0  0  0
  -25.4920  -15.3500   20.2440 N   0  0  0  0  0  0  0  0  0  0  0  0
  -24.7100  -15.9900   20.3360 H   0  0  0  0  0  0  0  0  0  0  0  0
  -26.3430  -15.8070   19.9400 H   0  0  0  0  0  0  0  0  0  0  0  0
  -31.0810  -21.5650   23.5320 C   0  0  0  0  0  2  0  0  0  0  0  0
  -30.1420  -22.7830   23.5490 C   0  0  0  0  0  2  0  0  0  0  0  0
  -30.8820  -24.1270   23.6780 C   0  0  0  0  0  2  0  0  0  0  0  0
  -30.2630  -25.1390   22.7570 C   0  0  0  0  0  0  0  0  0  0  0  0
  -31.0270  -25.6960   21.7990 N   0  0  0  0  0  4  0  0  0  0  0  0
  -28.9580  -25.4520   22.8950 N   0  0  0  0  0  0  0  0  0  0  0  0
  -32.0020  -25.4390   21.7080 H   0  0  0  0  0  0  0  0  0  0  0  0
  -30.6940  -26.3940   21.1520 H   0  0  0  0  0  0  0  0  0  0  0  0
  -28.4330  -24.9930   23.6300 H   0  0  0  0  0  0  0  0  0  0  0  0
  -28.1820  -26.3650   22.0440 C   0  0  0  0  0  2  0  0  0  0  0  0
  -27.8670  -25.7360   20.6720 C   0  0  0  0  0  2  0  0  0  0  0  0
  -27.7190  -26.7380   19.6700 O   0  0  0  0  0  0  0  0  0  0  0  0
  -24.4100  -31.9720   23.1470 C   0  0  0  0  0  0  0  0  0  0  0  0
  -26.5890  -27.5020   19.8000 C   0  0  0  0  0  0  0  0  0  0  0  0
  -23.0110  -30.6670   21.5750 C   0  0  0  0  0  3  0  0  0  0  0  0
  -24.2730  -29.0880   20.0210 C   0  0  0  0  0  0  0  0  0  0  0  0
  -25.5250  -30.9160   21.1870 C   0  0  0  0  0  2  0  0  0  0  0  0
  -25.4930  -29.5560   20.5250 C   0  0  0  0  0  0  0  0  0  0  0  0
  -26.6580  -28.7700   20.4100 C   0  0  0  0  0  3  0  0  0  0  0  0
  -25.3580  -27.0330   19.2980 C   0  0  0  0  0  3  0  0  0  0  0  0
  -24.1970  -27.8240   19.4070 C   0  0  0  0  0  3  0  0  0  0  0  0
  -23.0790  -30.0020   20.1740 C   0  0  0  0  0  2  0  0  0  0  0  0
  -24.3380  -31.1960   22.0270 N   0  0  0  0  0  0  0  0  0  0  0  0
  -23.3900  -32.2870   23.7730 O   0  0  0  0  0  0  0  0  0  0  0  0
  -22.3840  -29.6620   22.5650 C   0  0  0  0  0  0  0  0  0  0  0  0
  -21.0540  -29.4950   22.4830 N   0  0  0  0  0  0  0  0  0  0  0  0
  -23.0880  -29.0330   23.3590 O   0  0  0  0  0  0  0  0  0  0  0  0
  -20.5480  -30.0540   21.8120 H   0  0  0  0  0  0  0  0  0  0  0  0
  -17.6970  -28.2740   23.0230 C   0  0  0  0  0  0  0  0  0  0  0  0
  -20.2510  -28.5720   23.2850 C   0  0  0  0  0  3  0  0  0  0  0  0
  -20.3720  -27.1240   22.7560 C   0  0  0  0  0  2  0  0  0  0  0  0
  -19.2740  -26.7540   21.7540 C   0  0  0  0  0  2  0  0  0  0  0  0
  -17.8900  -26.9040   22.3940 C   0  0  0  0  0  2  0  0  0  0  0  0
  -18.8060  -29.0630   23.4270 C   0  0  0  0  0  0  0  0  0  0  0  0
  -18.5730  -30.3440   23.9720 C   0  0  0  0  0  3  0  0  0  0  0  0
  -17.2620  -30.8360   24.1190 C   0  0  0  0  0  3  0  0  0  0  0  0
  -16.1670  -30.0440   23.7330 C   0  0  0  0  0  3  0  0  0  0  0  0
  -16.3860  -28.7650   23.1900 C   0  0  0  0  0  3  0  0  0  0  0  0
  -25.7740  -32.5200   23.6770 C   0  0  0  0  0  3  0  0  0  0  0  0
  -26.3690  -31.6640   24.8620 C   0  0  1  0  0  0  0  0  0  0  0  0
  -25.3710  -31.4250   26.0180 C   0  0  0  0  0  1  0  0  0  0  0  0
  -26.8430  -30.2830   24.3510 C   0  0  0  0  0  1  0  0  0  0  0  0
  -27.6150  -32.3720   25.4450 C   0  0  0  0  0  1  0  0  0  0  0  0
  -25.5570  -33.9100   24.0960 N   0  0  0  0  0  0  0  0  0  0  0  0
  -25.8810  -34.9840   23.3630 C   0  0  0  0  0  0  0  0  0  0  0  0
  -26.4670  -34.9030   22.2790 O   0  0  0  0  0  0  0  0  0  0  0  0
  -25.0310  -34.0500   24.9470 H   0  0  0  0  0  0  0  0  0  0  0  0
  -24.2140  -36.8600   23.2250 C   0  0  0  0  0  1  0  0  0  0  0  0
  -25.4940  -36.3660   23.9190 C   0  0  0  0  0  3  0  0  0  0  0  0
  -27.7230  -37.1190   24.6200 C   0  0  0  0  0  1  0  0  0  0  0  0
  -26.5620  -37.3790   23.7740 N   0  0  0  0  0  0  0  0  0  0  0  0
  -26.2110  -38.3070   23.9940 H   0  0  0  0  0  0  0  0  0  0  0  0
  1  7  1  0
  2  1  1  0
  3  5  1  0
  4 15  1  0
  4  3  1  0
  4  2  1  0
  5 53  1  0
  5  6  1  0
  6  1  2  0
  7  8  1  0
  8  9  1  0
  9 10  1  0
 10 11  1  0
 11 12  1  0
 11 14  1  0
 11 13  1  0
 16 15  1  0
 17 16  1  0
 18 23  1  0
 19 20  1  0
 19 18  1  0
 21 20  1  0
 21 28  1  0
 21 22  1  0
 23 17  1  0
 23 22  1  0
 24 17  2  0
 25 26  2  0
 26 45  1  0
 27 26  1  0
 27 30  1  0
 28 25  1  0
 28 29  1  0
 29 27  2  0
 30 31  1  0
 31 32  2  0
 33 36  1  0
 33 32  1  0
 34 33  2  0
 35 34  1  0
 35 30  2  0
 36 37  1  0
 37 38  1  0
 38 39  2  0
 40 39  1  0
 40 44  1  0
 41 40  2  0
 42 37  2  0
 42 41  1  0
 43 42  1  0
 45 46  1  0
 46 49  1  0
 46 48  1  0
 47 45  2  0
 50 51  1  0
 50 25  1  0
 52 50  1  0
 53 54  1  0
 54 55  1  0
 56 58  1  0
 56 55  1  0
 57 56  2  0
 58 61  1  0
 59 57  1  0
 60 57  1  0
 62 58  1  0
 63 62  1  0
 64 66  1  0
 64 63  1  0
 65 76  2  0
 66 71  1  0
 67 75  1  0
 67 77  1  0
 68 74  1  0
 68 70  1  0
 69 75  1  0
 70 69  1  0
 71 70  2  0
 72 73  1  0
 72 66  2  0
 73 68  2  0
 74 67  1  0
 75 65  1  0
 77 79  2  0
 78 77  1  0
 80 78  1  0
 81 90  2  0
 81 86  1  0
 82 78  1  0
 82 86  1  0
 83 82  1  0
 84 85  1  0
 84 83  1  0
 85 81  1  0
 86 87  2  0
 87 88  1  0
 89 88  2  0
 90 89  1  0
 91 65  1  0
 91 96  1  0
 91 92  1  0
 92 95  1  1
 92 93  1  0
 94 92  1  0
 96 99  1  0
 97101  1  0
 97 96  1  0
 98 97  2  0
101100  1  0
103101  1  0
103104  1  0
103102  1  0
M  ISO  4  16 100  17 100  63 101  64 101
M  END
>  <TORSDO>  (18) 
F 29

>  <SCORE>  (18) 
7.562

>  <name>  (18) 
17

>  <ligand_id>  (18) 
17

>  <original_smiles>  (18) 
[H]c1c([H])c([H])c2c(c1[H])C([H])([H])C([H])([H])C([H])([H])C2([H])N([H])C(=O)C1([H])N(C(=O)C([H])(N([H])C(=O)C([H])(N([H])C([H])([H])[H])C([H])([H])[H])C(C([H])([H])[H])(C([H])([H])[H])C([H])([H])[H])C([H])([H])c2c([H])c(OC([H])([H])C([H])([H])[N+]([H])=C(N([H])[H])C([H])([H])C([H])([H])C([H])([H])C3([H])N=C(C([H])([H])C([H])([H])C([H])([H])C([H])([H])[N+]([H])([H])[H])C([H])([H])C([H])(C([H])([H])C([H])([H])C(=O)N4C([H])([H])C([H])([H])C([H])([H])C([H])(n5nc(-c6c([H])c([H])c(Oc7c([H])c([H])c(F)c([H])c7F)c([H])c6[H])c(C(=O)N([H])[H])c5N([H])[H])C4([H])[H])C3([H])[H])c([H])c([H])c2C1([H])[H]

>  <smiles>  (18) 
[H]c1c([H])c([H])c2c(c1[H])C([H])([H])C([H])([H])C([H])([H])C2([H])N([H])C(=O)C1([H])N(C(=O)C([H])(N([H])C(=O)C([H])(N([H])C([H])([H])[H])C([H])([H])[H])C(C([H])([H])[H])(C([H])([H])[H])C([H])([H])[H])C([H])([H])c2c([H])c(OC([H])([H])C([H])([H])[N+]([H])=C(N([H])[H])C([H])([H])C([H])([H])C([H])([H])C3([H])N=C(C([H])([H])C([H])([H])C([H])([H])C([H])([H])[N+]([H])([H])[H])C([H])([H])C([H])(C([H])([H])C([H])([H])C(=O)N4C([H])([H])C([H])([H])C([H])([H])C([H])(n5nc(-c6c([H])c([H])c(Oc7c([H])c([H])c(F)c([H])c7F)c([H])c6[H])c(C(=O)N([H])[H])c5N([H])[H])C4([H])[H])C3([H])[H])c([H])c([H])c2C1([H])[H]

$$$$
18:0:0
     RDKit          3D

 94102  0  0  1  0  0  0  0  0999 V2000
  -28.6540  -24.7400   22.1700 C   0  0  0  0  0  2  0  0  0  0  0  0
  -27.5090  -25.0030   21.1820 C   0  0  0  0  0  2  0  0  0  0  0  0
  -29.6080  -22.5620   21.1740 C   0  0  0  0  0  2  0  0  0  0  0  0
  -29.0180  -24.1820   19.2310 C   0  0  0  0  0  2  0  0  0  0  0  0
  -28.9240  -22.6700   19.7840 C   0  0  0  0  0  3  0  0  0  0  0  0
  -28.9090  -23.2320   22.3750 C   0  0  0  0  0  3  0  0  0  0  0  0
  -27.9260  -25.2550   19.7060 C   0  0  0  0  0  3  0  0  0  0  0  0
  -29.6860  -23.0050   23.6080 N   0  0  0  0  0  4  0  0  0  0  0  0
  -30.6000  -23.4180   23.5500 H   0  0  0  0  0  0  0  0  0  0  0  0
  -29.7940  -22.0200   23.7800 H   0  0  0  0  0  0  0  0  0  0  0  0
  -29.2100  -23.3980   24.4020 H   0  0  0  0  0  0  0  0  0  0  0  0
  -28.1620  -26.7150   19.4570 O   0  0  0  0  0  0  0  0  0  0  0  0
  -24.5960  -31.6610   23.2890 C   0  0  0  0  0  0  0  0  0  0  0  0
  -27.0550  -27.5860   19.5150 C   0  0  0  0  0  0  0  0  0  0  0  0
  -23.2960  -30.4290   21.5900 C   0  0  0  0  0  3  0  0  0  0  0  0
  -24.6640  -29.1200   19.8710 C   0  0  0  0  0  0  0  0  0  0  0  0
  -25.8050  -30.8510   21.2530 C   0  0  0  0  0  2  0  0  0  0  0  0
  -25.8650  -29.5650   20.4370 C   0  0  0  0  0  0  0  0  0  0  0  0
  -27.0630  -28.8100   20.2560 C   0  0  0  0  0  3  0  0  0  0  0  0
  -25.8340  -27.2260   18.8940 C   0  0  0  0  0  3  0  0  0  0  0  0
  -24.6510  -27.9580   19.0880 C   0  0  0  0  0  3  0  0  0  0  0  0
  -23.4120  -29.9350   20.1250 C   0  0  0  0  0  2  0  0  0  0  0  0
  -24.5890  -30.9910   22.1000 N   0  0  0  0  0  0  0  0  0  0  0  0
  -23.5530  -31.8390   23.9360 O   0  0  0  0  0  0  0  0  0  0  0  0
  -22.7390  -29.2820   22.4680 C   0  0  0  0  0  0  0  0  0  0  0  0
  -21.4420  -28.9710   22.3060 N   0  0  0  0  0  0  0  0  0  0  0  0
  -23.4730  -28.6800   23.2550 O   0  0  0  0  0  0  0  0  0  0  0  0
  -20.9020  -29.5190   21.6500 H   0  0  0  0  0  0  0  0  0  0  0  0
  -18.2620  -27.2600   22.5250 C   0  0  0  0  0  0  0  0  0  0  0  0
  -20.7210  -27.9030   23.0010 C   0  0  0  0  0  3  0  0  0  0  0  0
  -21.0870  -26.5170   22.4220 C   0  0  0  0  0  2  0  0  0  0  0  0
  -20.1300  -26.0510   21.3200 C   0  0  0  0  0  2  0  0  0  0  0  0
  -18.6970  -25.9680   21.8520 C   0  0  0  0  0  2  0  0  0  0  0  0
  -19.2130  -28.1750   23.0490 C   0  0  0  0  0  0  0  0  0  0  0  0
  -18.7550  -29.3760   23.6340 C   0  0  0  0  0  3  0  0  0  0  0  0
  -17.3800  -29.6670   23.6990 C   0  0  0  0  0  3  0  0  0  0  0  0
  -16.4430  -28.7510   23.1900 C   0  0  0  0  0  3  0  0  0  0  0  0
  -16.8840  -27.5490   22.6090 C   0  0  0  0  0  3  0  0  0  0  0  0
  -25.9100  -32.2590   23.8800 C   0  0  0  0  0  3  0  0  0  0  0  0
  -25.6230  -33.6400   24.2940 N   0  0  0  0  0  0  0  0  0  0  0  0
  -26.0330  -34.7320   23.6360 C   0  0  0  0  0  0  0  0  0  0  0  0
  -26.7600  -34.6810   22.6400 O   0  0  0  0  0  0  0  0  0  0  0  0
  -24.9870  -33.7570   25.0690 H   0  0  0  0  0  0  0  0  0  0  0  0
  -24.4150  -36.6260   23.2870 C   0  0  0  0  0  1  0  0  0  0  0  0
  -25.5620  -36.1000   24.1660 C   0  0  0  0  0  3  0  0  0  0  0  0
  -27.6430  -36.8170   25.2560 C   0  0  0  0  0  1  0  0  0  0  0  0
  -26.6410  -37.1090   24.2330 N   0  0  0  0  0  0  0  0  0  0  0  0
  -26.2600  -38.0330   24.4180 H   0  0  0  0  0  0  0  0  0  0  0  0
  -26.4810  -31.4230   25.0900 C   0  0  1  0  0  0  0  0  0  0  0  0
  -25.4350  -31.1220   26.1880 C   0  0  0  0  0  1  0  0  0  0  0  0
  -27.0530  -30.0720   24.6010 C   0  0  0  0  0  1  0  0  0  0  0  0
  -27.6550  -32.1880   25.7470 C   0  0  0  0  0  1  0  0  0  0  0  0
  -29.5610  -21.4970   18.8990 C   0  0  0  0  0  2  0  0  0  0  0  0
  -29.0540  -19.9940   19.1210 C   0  0  0  0  0  2  0  0  0  0  0  0
  -30.0220  -18.8290   19.6380 C   0  0  0  0  0  2  0  0  0  0  0  0
  -29.7580  -17.3650   19.0570 C   0  0  0  0  0  2  0  0  0  0  0  0
  -30.7330  -15.0700   19.7370 C   0  0  0  0  0  0  0  0  0  0  0  0
  -30.6390  -12.6870   19.0490 C   0  0  0  0  0  2  0  0  0  0  0  0
  -29.6620  -12.5760   17.8580 C   0  0  0  0  0  2  0  0  0  0  0  0
  -28.2170  -12.3850   18.3550 C   0  0  0  0  0  2  0  0  0  0  0  0
  -27.8300  -13.3970   19.4660 C   0  0  0  0  0  3  0  0  0  0  0  0
  -28.9250  -13.4900   20.5560 C   0  0  0  0  0  2  0  0  0  0  0  0
  -30.1950  -13.8180   19.8920 N   0  0  0  0  0  0  0  0  0  0  0  0
  -31.8500  -15.2280   19.2370 O   0  0  0  0  0  0  0  0  0  0  0  0
  -29.8930  -16.1360   19.9260 N   0  0  0  0  0  0  0  0  0  0  0  0
  -29.0540  -15.8960   20.4360 H   0  0  0  0  0  0  0  0  0  0  0  0
  -25.5020  -13.9730   20.3910 C   0  0  0  0  0  0  0  0  0  0  0  0
  -24.4590  -13.1880   20.8010 C   0  0  0  0  0  0  0  0  0  0  0  0
  -24.9020  -11.8370   20.6650 C   0  0  0  0  0  0  0  0  0  0  0  0
  -26.5170  -13.0990   20.0340 N   0  0  0  0  0  0  0  0  0  0  0  0
  -26.1650  -11.8070   20.2580 N   0  0  0  0  0  0  0  0  0  0  0  0
  -24.1780  -10.5720   20.8440 C   0  0  0  0  0  0  0  0  0  0  0  0
  -24.5700   -9.6280   21.8200 C   0  0  0  0  0  3  0  0  0  0  0  0
  -23.8470   -8.4280   21.9860 C   0  0  0  0  0  3  0  0  0  0  0  0
  -22.7170   -8.1610   21.1750 C   0  0  0  0  0  0  0  0  0  0  0  0
  -22.3450   -9.0940   20.1900 C   0  0  0  0  0  3  0  0  0  0  0  0
  -23.0690  -10.2860   20.0230 C   0  0  0  0  0  3  0  0  0  0  0  0
  -21.9690   -7.0110   21.2490 O   0  0  0  0  0  0  0  0  0  0  0  0
  -21.7460   -6.3730   22.4420 C   0  0  0  0  0  0  0  0  0  0  0  0
  -21.0510   -6.9950   23.5020 C   0  0  0  0  0  3  0  0  0  0  0  0
  -20.7820   -6.2780   24.6840 C   0  0  0  0  0  3  0  0  0  0  0  0
  -21.1980   -4.9380   24.8070 C   0  0  0  0  0  0  0  0  0  0  0  0
  -21.8860   -4.3150   23.7500 C   0  0  0  0  0  3  0  0  0  0  0  0
  -22.1550   -5.0300   22.5700 C   0  0  0  0  0  0  0  0  0  0  0  0
  -22.7990   -4.4180   21.5470 F   0  0  0  0  0  0  0  0  0  0  0  0
  -20.9340   -4.2470   25.9390 F   0  0  0  0  0  0  0  0  0  0  0  0
  -23.0900  -13.6600   21.2020 C   0  0  0  0  0  0  0  0  0  0  0  0
  -22.4260  -12.9310   22.0920 N   0  0  0  0  0  0  0  0  0  0  0  0
  -22.6220  -14.7100   20.7610 O   0  0  0  0  0  0  0  0  0  0  0  0
  -22.8200  -12.0830   22.4720 H   0  0  0  0  0  0  0  0  0  0  0  0
  -21.5110  -13.2270   22.4010 H   0  0  0  0  0  0  0  0  0  0  0  0
  -25.6670  -15.3500   20.2710 N   0  0  0  0  0  0  0  0  0  0  0  0
  -24.9160  -16.0020   20.4680 H   0  0  0  0  0  0  0  0  0  0  0  0
  -26.4900  -15.7990   19.8900 H   0  0  0  0  0  0  0  0  0  0  0  0
  1  6  1  0
  2  1  1  0
  3  6  1  0
  4  7  1  0
  4  5  1  0
  5 53  1  0
  5  3  1  0
  6  8  1  0
  7 12  1  0
  7  2  1  0
  8 10  1  0
  8 11  1  0
  9  8  1  0
 12 14  1  0
 13 24  2  0
 14 19  1  0
 15 23  1  0
 15 25  1  0
 16 22  1  0
 16 18  1  0
 17 23  1  0
 18 17  1  0
 19 18  2  0
 20 21  1  0
 20 14  2  0
 21 16  2  0
 22 15  1  0
 23 13  1  0
 25 27  2  0
 26 25  1  0
 28 26  1  0
 29 38  2  0
 29 34  1  0
 30 26  1  0
 30 34  1  0
 31 30  1  0
 32 33  1  0
 32 31  1  0
 33 29  1  0
 34 35  2  0
 35 36  1  0
 37 36  2  0
 38 37  1  0
 39 13  1  0
 39 40  1  0
 39 49  1  0
 40 43  1  0
 41 45  1  0
 41 40  1  0
 42 41  2  0
 45 44  1  0
 45 47  1  0
 47 48  1  0
 47 46  1  0
 49 52  1  1
 49 50  1  0
 51 49  1  0
 53 54  1  0
 54 55  1  0
 56 55  1  0
 56 65  1  0
 57 63  1  0
 57 65  1  0
 58 63  1  0
 59 60  1  0
 59 58  1  0
 61 60  1  0
 61 70  1  0
 61 62  1  0
 63 62  1  0
 64 57  2  0
 65 66  1  0
 67 68  2  0
 68 87  1  0
 69 68  1  0
 69 72  1  0
 70 71  1  0
 70 67  1  0
 71 69  2  0
 72 73  1  0
 73 74  2  0
 75 78  1  0
 75 74  1  0
 76 75  2  0
 77 76  1  0
 77 72  2  0
 78 79  1  0
 79 84  2  0
 79 80  1  0
 80 81  2  0
 81 82  1  0
 82 86  1  0
 83 82  2  0
 84 83  1  0
 85 84  1  0
 87 88  1  0
 88 91  1  0
 88 90  1  0
 89 87  2  0
 92 67  1  0
 92 93  1  0
 94 92  1  0
M  ISO  4   7 101  12 101  57 100  65 100
M  END
>  <TORSDO>  (19) 
F 21

>  <SCORE>  (19) 
-12.655

>  <name>  (19) 
18

>  <ligand_id>  (19) 
18

>  <original_smiles>  (19) 
[H]c1c([H])c([H])c2c(c1[H])C([H])([H])C([H])([H])C([H])([H])C2([H])N([H])C(=O)C1([H])N(C(=O)C([H])(N([H])C(=O)C([H])(N([H])C([H])([H])[H])C([H])([H])[H])C(C([H])([H])[H])(C([H])([H])[H])C([H])([H])[H])C([H])([H])c2c([H])c(OC3([H])C([H])([H])C([H])([H])C([H])([N+]([H])([H])[H])C([H])([H])C([H])(C([H])([H])C([H])([H])C([H])([H])C([H])([H])N([H])C(=O)N4C([H])([H])C([H])([H])C([H])([H])C([H])(n5nc(-c6c([H])c([H])c(Oc7c([H])c([H])c(F)c([H])c7F)c([H])c6[H])c(C(=O)N([H])[H])c5N([H])[H])C4([H])[H])C3([H])[H])c([H])c([H])c2C1([H])[H]

>  <smiles>  (19) 
[H]c1c([H])c([H])c2c(c1[H])C([H])([H])C([H])([H])C([H])([H])C2([H])N([H])C(=O)C1([H])N(C(=O)C([H])(N([H])C(=O)C([H])(N([H])C([H])([H])[H])C([H])([H])[H])C(C([H])([H])[H])(C([H])([H])[H])C([H])([H])[H])C([H])([H])c2c([H])c(OC3([H])C([H])([H])C([H])([H])C([H])([N+]([H])([H])[H])C([H])([H])C([H])(C([H])([H])C([H])([H])C([H])([H])C([H])([H])N([H])C(=O)N4C([H])([H])C([H])([H])C([H])([H])C([H])(n5nc(-c6c([H])c([H])c(Oc7c([H])c([H])c(F)c([H])c7F)c([H])c6[H])c(C(=O)N([H])[H])c5N([H])[H])C4([H])[H])C3([H])[H])c([H])c([H])c2C1([H])[H]

$$$$
19:0:0
     RDKit          3D

 94103  0  0  1  0  0  0  0  0999 V2000
  -27.4710  -21.7610   18.1850 C   0  0  0  0  0  3  0  0  0  0  0  0
  -27.9250  -21.6690   19.4360 C   0  0  0  0  0  0  0  0  0  0  0  0
  -27.0990  -20.4240   17.6060 C   0  0  0  0  0  3  0  0  0  0  0  0
  -27.5580  -19.4150   18.6800 C   0  0  0  0  0  3  0  0  0  0  0  0
  -29.8070  -22.3500   20.8580 C   0  0  0  0  0  2  0  0  0  0  0  0
  -29.8150  -20.9080   21.4330 C   0  0  0  0  0  2  0  0  0  0  0  0
  -28.4110  -22.7780   20.3620 C   0  0  0  0  0  3  0  0  0  0  0  0
  -27.9690  -20.2360   19.9350 C   0  0  0  0  0  3  0  0  0  0  0  0
  -29.3190  -19.8810   20.4650 N   0  0  2  0  0  4  0  0  0  0  0  0
  -29.9390  -19.9090   19.6700 H   0  0  0  0  0  0  0  0  0  0  0  0
  -28.3720  -24.2080   19.7350 C   0  0  0  0  0  2  0  0  0  0  0  0
  -28.3700  -25.3650   20.7660 C   0  0  0  0  0  2  0  0  0  0  0  0
  -28.4310  -26.6730   20.1730 O   0  0  0  0  0  0  0  0  0  0  0  0
  -24.6100  -31.8500   23.2350 C   0  0  0  0  0  0  0  0  0  0  0  0
  -27.2600  -27.4000   20.1770 C   0  0  0  0  0  0  0  0  0  0  0  0
  -23.4090  -30.4490   21.5880 C   0  0  0  0  0  3  0  0  0  0  0  0
  -24.8670  -28.9070   20.1730 C   0  0  0  0  0  0  0  0  0  0  0  0
  -25.9360  -30.8060   21.3990 C   0  0  0  0  0  2  0  0  0  0  0  0
  -26.0230  -29.4330   20.7620 C   0  0  0  0  0  0  0  0  0  0  0  0
  -27.2250  -28.6900   20.7560 C   0  0  0  0  0  3  0  0  0  0  0  0
  -26.0870  -26.8860   19.5850 C   0  0  0  0  0  3  0  0  0  0  0  0
  -24.8930  -27.6330   19.5810 C   0  0  0  0  0  3  0  0  0  0  0  0
  -23.6230  -29.7670   20.2110 C   0  0  0  0  0  2  0  0  0  0  0  0
  -24.6700  -31.0490   22.1330 N   0  0  0  0  0  0  0  0  0  0  0  0
  -23.5260  -32.1240   23.7700 O   0  0  0  0  0  0  0  0  0  0  0  0
  -22.7510  -29.4300   22.5460 C   0  0  0  0  0  0  0  0  0  0  0  0
  -21.4240  -29.2630   22.4240 N   0  0  0  0  0  0  0  0  0  0  0  0
  -23.4320  -28.7910   23.3530 O   0  0  0  0  0  0  0  0  0  0  0  0
  -20.9370  -29.8270   21.7420 H   0  0  0  0  0  0  0  0  0  0  0  0
  -18.0390  -28.1110   22.9360 C   0  0  0  0  0  0  0  0  0  0  0  0
  -20.6010  -28.3300   23.1920 C   0  0  0  0  0  3  0  0  0  0  0  0
  -20.6810  -26.9020   22.6030 C   0  0  0  0  0  2  0  0  0  0  0  0
  -19.5660  -26.6040   21.5940 C   0  0  0  0  0  2  0  0  0  0  0  0
  -18.1920  -26.7640   22.2490 C   0  0  0  0  0  2  0  0  0  0  0  0
  -19.1710  -28.8530   23.3650 C   0  0  0  0  0  0  0  0  0  0  0  0
  -18.9750  -30.1150   23.9660 C   0  0  0  0  0  3  0  0  0  0  0  0
  -17.6790  -30.6340   24.1440 C   0  0  0  0  0  3  0  0  0  0  0  0
  -16.5610  -29.8890   23.7320 C   0  0  0  0  0  3  0  0  0  0  0  0
  -16.7420  -28.6280   23.1330 C   0  0  0  0  0  3  0  0  0  0  0  0
  -25.8950  -32.4780   23.8600 C   0  0  0  0  0  3  0  0  0  0  0  0
  -25.5860  -33.8750   24.1940 N   0  0  0  0  0  0  0  0  0  0  0  0
  -25.9130  -34.9290   23.4350 C   0  0  0  0  0  0  0  0  0  0  0  0
  -26.5790  -34.8290   22.4010 O   0  0  0  0  0  0  0  0  0  0  0  0
  -24.9940  -34.0280   24.9990 H   0  0  0  0  0  0  0  0  0  0  0  0
  -24.1780  -36.7160   23.0890 C   0  0  0  0  0  1  0  0  0  0  0  0
  -25.4230  -36.3150   23.8960 C   0  0  0  0  0  3  0  0  0  0  0  0
  -27.5570  -37.2040   24.7190 C   0  0  0  0  0  1  0  0  0  0  0  0
  -26.4520  -37.3710   23.7800 N   0  0  0  0  0  0  0  0  0  0  0  0
  -26.0440  -38.2890   23.9310 H   0  0  0  0  0  0  0  0  0  0  0  0
  -26.4120  -31.7000   25.1310 C   0  0  1  0  0  0  0  0  0  0  0  0
  -25.3190  -31.4550   26.1970 C   0  0  0  0  0  1  0  0  0  0  0  0
  -26.9950  -30.3250   24.7290 C   0  0  0  0  0  1  0  0  0  0  0  0
  -27.5640  -32.4900   25.7970 C   0  0  0  0  0  1  0  0  0  0  0  0
  -29.3810  -18.4900   21.0200 C   0  0  0  0  0  2  0  0  0  0  0  0
  -30.7720  -17.8240   20.8590 C   0  0  0  0  0  2  0  0  0  0  0  0
  -30.9910  -16.5210   21.6740 C   0  0  0  0  0  2  0  0  0  0  0  0
  -30.8770  -14.4060   20.3290 C   0  0  0  0  0  0  0  0  0  0  0  0
  -30.4980  -12.2990   19.0920 C   0  0  0  0  0  2  0  0  0  0  0  0
  -29.5290  -12.5290   17.9160 C   0  0  0  0  0  2  0  0  0  0  0  0
  -28.0640  -12.4010   18.3780 C   0  0  0  0  0  2  0  0  0  0  0  0
  -27.7690  -13.2290   19.6570 C   0  0  0  0  0  3  0  0  0  0  0  0
  -28.8410  -12.9690   20.7380 C   0  0  0  0  0  2  0  0  0  0  0  0
  -30.1600  -13.2640   20.1500 N   0  0  0  0  0  0  0  0  0  0  0  0
  -31.9490  -14.6230   19.7570 O   0  0  0  0  0  0  0  0  0  0  0  0
  -30.3280  -15.3180   21.1500 N   0  0  0  0  0  0  0  0  0  0  0  0
  -29.4400  -15.0630   21.5610 H   0  0  0  0  0  0  0  0  0  0  0  0
  -25.3900  -13.8670   20.4070 C   0  0  0  0  0  0  0  0  0  0  0  0
  -24.3200  -13.1080   20.7990 C   0  0  0  0  0  0  0  0  0  0  0  0
  -24.7650  -11.7500   20.7620 C   0  0  0  0  0  0  0  0  0  0  0  0
  -26.4210  -12.9720   20.1610 N   0  0  0  0  0  0  0  0  0  0  0  0
  -26.0480  -11.6950   20.4290 N   0  0  0  0  0  0  0  0  0  0  0  0
  -24.0280  -10.4970   20.9680 C   0  0  0  0  0  0  0  0  0  0  0  0
  -24.4660   -9.5270   21.8970 C   0  0  0  0  0  3  0  0  0  0  0  0
  -23.7310   -8.3370   22.0900 C   0  0  0  0  0  3  0  0  0  0  0  0
  -22.5430   -8.1100   21.3560 C   0  0  0  0  0  0  0  0  0  0  0  0
  -22.1240   -9.0680   20.4160 C   0  0  0  0  0  3  0  0  0  0  0  0
  -22.8600  -10.2490   20.2200 C   0  0  0  0  0  3  0  0  0  0  0  0
  -21.7790   -6.9730   21.4580 O   0  0  0  0  0  0  0  0  0  0  0  0
  -21.7370   -6.2360   22.6140 C   0  0  0  0  0  0  0  0  0  0  0  0
  -21.3350   -6.8010   23.8440 C   0  0  0  0  0  3  0  0  0  0  0  0
  -21.2400   -5.9910   24.9930 C   0  0  0  0  0  3  0  0  0  0  0  0
  -21.5350   -4.6180   24.9140 C   0  0  0  0  0  0  0  0  0  0  0  0
  -21.9310   -4.0510   23.6890 C   0  0  0  0  0  3  0  0  0  0  0  0
  -22.0280   -4.8590   22.5420 C   0  0  0  0  0  0  0  0  0  0  0  0
  -22.3890   -4.3050   21.3590 F   0  0  0  0  0  0  0  0  0  0  0  0
  -21.4370   -3.8370   26.0160 F   0  0  0  0  0  0  0  0  0  0  0  0
  -22.9340  -13.6010   21.0970 C   0  0  0  0  0  0  0  0  0  0  0  0
  -22.2150  -12.9140   21.9780 N   0  0  0  0  0  0  0  0  0  0  0  0
  -22.4970  -14.6310   20.5840 O   0  0  0  0  0  0  0  0  0  0  0  0
  -22.5810  -12.0810   22.4150 H   0  0  0  0  0  0  0  0  0  0  0  0
  -21.2850  -13.2270   22.2200 H   0  0  0  0  0  0  0  0  0  0  0  0
  -25.5680  -15.2350   20.2230 N   0  0  0  0  0  0  0  0  0  0  0  0
  -24.8090  -15.8980   20.3360 H   0  0  0  0  0  0  0  0  0  0  0  0
  -26.4150  -15.6560   19.8660 H   0  0  0  0  0  0  0  0  0  0  0  0
  1  2  2  0
  2  8  1  0
  2  7  1  0
  3  1  1  0
  3  4  2  0
  5  6  1  0
  7 11  1  0
  7  5  1  0
  8  4  1  0
  8  9  1  0
  9 54  1  0
  9  6  1  0
  9 10  1  6
 11 12  1  0
 13 15  1  0
 13 12  1  0
 14 25  2  0
 15 20  1  0
 16 24  1  0
 16 26  1  0
 17 23  1  0
 17 19  1  0
 18 24  1  0
 19 18  1  0
 20 19  2  0
 21 15  2  0
 22 21  1  0
 22 17  2  0
 23 16  1  0
 24 14  1  0
 26 28  2  0
 27 26  1  0
 29 27  1  0
 30 39  2  0
 30 35  1  0
 31 27  1  0
 31 35  1  0
 32 31  1  0
 33 34  1  0
 33 32  1  0
 34 30  1  0
 35 36  2  0
 36 37  1  0
 38 37  2  0
 39 38  1  0
 40 14  1  0
 40 41  1  0
 40 50  1  0
 41 44  1  0
 42 46  1  0
 42 41  1  0
 43 42  2  0
 46 45  1  0
 48 46  1  0
 48 49  1  0
 48 47  1  0
 50 53  1  1
 50 51  1  0
 52 50  1  0
 55 54  1  0
 55 56  1  0
 57 65  1  0
 58 63  1  0
 59 60  1  0
 59 58  1  0
 61 60  1  0
 61 70  1  0
 61 62  1  0
 63 57  1  0
 63 62  1  0
 64 57  2  0
 65 66  1  0
 65 56  1  0
 67 68  2  0
 68 87  1  0
 69 68  1  0
 69 72  1  0
 70 67  1  0
 70 71  1  0
 71 69  2  0
 72 73  1  0
 73 74  2  0
 75 78  1  0
 75 74  1  0
 76 75  2  0
 77 76  1  0
 77 72  2  0
 78 79  1  0
 79 80  1  0
 80 81  2  0
 82 81  1  0
 82 86  1  0
 83 82  2  0
 84 79  2  0
 84 83  1  0
 85 84  1  0
 87 88  1  0
 88 91  1  0
 88 90  1  0
 89 87  2  0
 92 93  1  0
 92 67  1  0
 94 92  1  0
M  ISO  4  12 101  13 101  57 100  65 100
M  END
>  <TORSDO>  (20) 
F 21

>  <SCORE>  (20) 
-13.794

>  <name>  (20) 
19

>  <ligand_id>  (20) 
19

>  <original_smiles>  (20) 
[H]C1=C2C([H])(C([H])([H])C([H])([H])Oc3c([H])c([H])c4c(c3[H])C([H])([H])N(C(=O)C([H])(N([H])C(=O)C([H])(N([H])C([H])([H])[H])C([H])([H])[H])C(C([H])([H])[H])(C([H])([H])[H])C([H])([H])[H])C([H])(C(=O)N([H])C3([H])c5c([H])c([H])c([H])c([H])c5C([H])([H])C([H])([H])C3([H])[H])C4([H])[H])C([H])([H])C([H])([H])[N+]([H])(C([H])([H])C([H])([H])C([H])([H])N([H])C(=O)N3C([H])([H])C([H])([H])C([H])([H])C([H])(n4nc(-c5c([H])c([H])c(Oc6c([H])c([H])c(F)c([H])c6F)c([H])c5[H])c(C(=O)N([H])[H])c4N([H])[H])C3([H])[H])C2([H])C([H])([H])C1([H])[H]

>  <smiles>  (20) 
[H]C1=C2C([H])(C([H])([H])C([H])([H])Oc3c([H])c([H])c4c(c3[H])C([H])([H])N(C(=O)C([H])(N([H])C(=O)C([H])(N([H])C([H])([H])[H])C([H])([H])[H])C(C([H])([H])[H])(C([H])([H])[H])C([H])([H])[H])C([H])(C(=O)N([H])C3([H])c5c([H])c([H])c([H])c([H])c5C([H])([H])C([H])([H])C3([H])[H])C4([H])[H])C([H])([H])C([H])([H])[N+]([H])(C([H])([H])C([H])([H])C([H])([H])N([H])C(=O)N3C([H])([H])C([H])([H])C([H])([H])C([H])(n4nc(-c5c([H])c([H])c(Oc6c([H])c([H])c(F)c([H])c6F)c([H])c5[H])c(C(=O)N([H])[H])c4N([H])[H])C3([H])[H])C2([H])C([H])([H])C1([H])[H]

$$$$
20:0:0
     RDKit          3D

 98107  0  0  1  0  0  0  0  0999 V2000
  -29.9100  -21.2200   21.7010 C   0  0  0  0  0  3  0  0  0  0  0  0
  -29.3860  -20.8430   20.5130 C   0  0  0  0  0  0  0  0  0  0  0  0
  -29.7670  -22.5670   22.4190 C   0  0  0  0  0  2  0  0  0  0  0  0
  -28.4690  -21.7980   19.7120 C   0  0  0  0  0  2  0  0  0  0  0  0
  -28.3710  -23.2370   22.3610 C   0  0  0  0  0  2  0  0  0  0  0  0
  -28.6830  -23.3460   19.8670 C   0  0  0  0  0  2  0  0  0  0  0  0
  -27.9950  -24.0510   21.0790 C   0  0  1  0  0  0  0  0  0  0  0  0
  -30.5360  -18.2350   18.0140 C   0  0  0  0  0  3  0  0  0  0  0  0
  -30.1830  -19.4440   18.6330 C   0  0  0  0  0  3  0  0  0  0  0  0
  -30.4360  -17.0250   18.7150 C   0  0  0  0  0  3  0  0  0  0  0  0
  -29.6160  -18.2290   20.6730 C   0  0  0  0  0  3  0  0  0  0  0  0
  -29.7060  -19.4730   19.9590 C   0  0  0  0  0  0  0  0  0  0  0  0
  -29.9970  -16.9840   20.0610 C   0  0  0  0  0  0  0  0  0  0  0  0
  -30.6240  -14.5800   20.4250 C   0  0  0  0  0  0  0  0  0  0  0  0
  -30.3460  -12.3720   19.3600 C   0  0  0  0  0  2  0  0  0  0  0  0
  -29.4230  -12.5550   18.1350 C   0  0  0  0  0  2  0  0  0  0  0  0
  -27.9470  -12.4180   18.5500 C   0  0  0  0  0  2  0  0  0  0  0  0
  -27.5940  -13.2710   19.7980 C   0  0  0  0  0  3  0  0  0  0  0  0
  -28.6380  -13.0940   20.9230 C   0  0  0  0  0  2  0  0  0  0  0  0
  -29.9610  -13.3880   20.3580 N   0  0  0  0  0  0  0  0  0  0  0  0
  -31.7980  -14.6830   20.0570 O   0  0  0  0  0  0  0  0  0  0  0  0
  -29.8900  -15.6920   20.7210 N   0  0  0  0  0  0  0  0  0  0  0  0
  -29.0420  -15.5310   21.2440 H   0  0  0  0  0  0  0  0  0  0  0  0
  -25.1910  -13.8840   20.4760 C   0  0  0  0  0  0  0  0  0  0  0  0
  -24.1200  -13.1170   20.8420 C   0  0  0  0  0  0  0  0  0  0  0  0
  -24.5780  -11.7640   20.8300 C   0  0  0  0  0  0  0  0  0  0  0  0
  -26.2370  -12.9990   20.2650 N   0  0  0  0  0  0  0  0  0  0  0  0
  -25.8720  -11.7200   20.5380 N   0  0  0  0  0  0  0  0  0  0  0  0
  -23.8450  -10.5060   21.0240 C   0  0  0  0  0  0  0  0  0  0  0  0
  -24.2670   -9.5430   21.9670 C   0  0  0  0  0  3  0  0  0  0  0  0
  -23.5360   -8.3500   22.1490 C   0  0  0  0  0  3  0  0  0  0  0  0
  -22.3680   -8.1110   21.3870 C   0  0  0  0  0  0  0  0  0  0  0  0
  -21.9650   -9.0620   20.4330 C   0  0  0  0  0  3  0  0  0  0  0  0
  -22.6970  -10.2470   20.2500 C   0  0  0  0  0  3  0  0  0  0  0  0
  -21.6080   -6.9700   21.4770 O   0  0  0  0  0  0  0  0  0  0  0  0
  -21.5510   -6.2330   22.6320 C   0  0  0  0  0  0  0  0  0  0  0  0
  -21.1150   -6.7920   23.8530 C   0  0  0  0  0  3  0  0  0  0  0  0
  -21.0060   -5.9810   25.0000 C   0  0  0  0  0  3  0  0  0  0  0  0
  -21.3230   -4.6120   24.9280 C   0  0  0  0  0  0  0  0  0  0  0  0
  -21.7510   -4.0510   23.7120 C   0  0  0  0  0  3  0  0  0  0  0  0
  -21.8630   -4.8590   22.5670 C   0  0  0  0  0  0  0  0  0  0  0  0
  -22.2560   -4.3100   21.3920 F   0  0  0  0  0  0  0  0  0  0  0  0
  -21.2100   -3.8310   26.0280 F   0  0  0  0  0  0  0  0  0  0  0  0
  -22.7200  -13.6010   21.0940 C   0  0  0  0  0  0  0  0  0  0  0  0
  -21.9800  -12.9120   21.9550 N   0  0  0  0  0  0  0  0  0  0  0  0
  -22.2920  -14.6250   20.5630 O   0  0  0  0  0  0  0  0  0  0  0  0
  -22.3400  -12.0820   22.4030 H   0  0  0  0  0  0  0  0  0  0  0  0
  -21.0410  -13.2180   22.1680 H   0  0  0  0  0  0  0  0  0  0  0  0
  -25.3610  -15.2510   20.2830 N   0  0  0  0  0  0  0  0  0  0  0  0
  -24.5900  -15.9040   20.3610 H   0  0  0  0  0  0  0  0  0  0  0  0
  -26.2090  -15.6800   19.9320 H   0  0  0  0  0  0  0  0  0  0  0  0
  -26.4460  -23.9370   20.9020 C   0  0  0  0  0  2  0  0  0  0  0  0
  -25.6430  -24.5600   21.9750 N   0  0  0  0  0  4  0  0  0  0  0  0
  -25.8250  -24.1250   22.8620 H   0  0  0  0  0  0  0  0  0  0  0  0
  -24.6670  -24.4250   21.7700 H   0  0  0  0  0  0  0  0  0  0  0  0
  -25.8080  -25.5470   22.0490 H   0  0  0  0  0  0  0  0  0  0  0  0
  -28.4690  -25.5730   21.2290 C   0  0  0  0  0  2  0  0  0  0  0  0
  -28.3300  -26.5460   20.1490 O   0  0  0  0  0  0  0  0  0  0  0  0
  -24.6000  -31.8720   23.2460 C   0  0  0  0  0  0  0  0  0  0  0  0
  -27.2220  -27.3790   20.1700 C   0  0  0  0  0  0  0  0  0  0  0  0
  -23.3980  -30.4810   21.5940 C   0  0  0  0  0  3  0  0  0  0  0  0
  -24.8550  -28.9470   20.1640 C   0  0  0  0  0  0  0  0  0  0  0  0
  -25.9330  -30.8110   21.4220 C   0  0  0  0  0  2  0  0  0  0  0  0
  -26.0140  -29.4360   20.7820 C   0  0  0  0  0  0  0  0  0  0  0  0
  -27.2000  -28.6530   20.8000 C   0  0  0  0  0  3  0  0  0  0  0  0
  -26.0700  -26.9580   19.4810 C   0  0  0  0  0  3  0  0  0  0  0  0
  -24.8810  -27.7060   19.5080 C   0  0  0  0  0  3  0  0  0  0  0  0
  -23.6170  -29.8140   20.2100 C   0  0  0  0  0  2  0  0  0  0  0  0
  -24.6610  -31.0710   22.1440 N   0  0  0  0  0  0  0  0  0  0  0  0
  -23.5170  -32.1450   23.7810 O   0  0  0  0  0  0  0  0  0  0  0  0
  -22.7390  -29.4550   22.5440 C   0  0  0  0  0  0  0  0  0  0  0  0
  -21.4130  -29.2810   22.4170 N   0  0  0  0  0  0  0  0  0  0  0  0
  -23.4190  -28.8150   23.3510 O   0  0  0  0  0  0  0  0  0  0  0  0
  -20.9250  -29.8480   21.7390 H   0  0  0  0  0  0  0  0  0  0  0  0
  -18.0310  -28.1070   22.9200 C   0  0  0  0  0  0  0  0  0  0  0  0
  -20.5920  -28.3410   23.1810 C   0  0  0  0  0  3  0  0  0  0  0  0
  -20.6800  -26.9170   22.5870 C   0  0  0  0  0  2  0  0  0  0  0  0
  -19.5710  -26.6150   21.5750 C   0  0  0  0  0  2  0  0  0  0  0  0
  -18.1930  -26.7640   22.2270 C   0  0  0  0  0  2  0  0  0  0  0  0
  -19.1590  -28.8530   23.3530 C   0  0  0  0  0  0  0  0  0  0  0  0
  -18.9550  -30.1110   23.9620 C   0  0  0  0  0  3  0  0  0  0  0  0
  -17.6560  -30.6220   24.1400 C   0  0  0  0  0  3  0  0  0  0  0  0
  -16.5430  -29.8720   23.7240 C   0  0  0  0  0  3  0  0  0  0  0  0
  -16.7310  -28.6160   23.1200 C   0  0  0  0  0  3  0  0  0  0  0  0
  -25.8850  -32.4970   23.8730 C   0  0  0  0  0  3  0  0  0  0  0  0
  -26.3950  -31.7250   25.1510 C   0  0  1  0  0  0  0  0  0  0  0  0
  -25.2980  -31.4880   26.2140 C   0  0  0  0  0  1  0  0  0  0  0  0
  -26.9790  -30.3470   24.7630 C   0  0  0  0  0  1  0  0  0  0  0  0
  -27.5440  -32.5180   25.8180 C   0  0  0  0  0  1  0  0  0  0  0  0
  -25.5810  -33.8970   24.2000 N   0  0  0  0  0  0  0  0  0  0  0  0
  -25.9120  -34.9460   23.4360 C   0  0  0  0  0  0  0  0  0  0  0  0
  -26.5790  -34.8380   22.4030 O   0  0  0  0  0  0  0  0  0  0  0  0
  -24.9960  -34.0580   25.0070 H   0  0  0  0  0  0  0  0  0  0  0  0
  -24.1860  -36.7400   23.0780 C   0  0  0  0  0  1  0  0  0  0  0  0
  -25.4280  -36.3360   23.8910 C   0  0  0  0  0  3  0  0  0  0  0  0
  -27.5630  -37.2200   24.7190 C   0  0  0  0  0  1  0  0  0  0  0  0
  -26.4620  -37.3870   23.7740 N   0  0  0  0  0  0  0  0  0  0  0  0
  -26.0570  -38.3070   23.9200 H   0  0  0  0  0  0  0  0  0  0  0  0
  1  3  1  0
  2  1  2  0
  4  6  1  0
  4  2  1  0
  5  3  1  0
  6  7  1  0
  7 52  1  6
  7 57  1  0
  7  5  1  0
  8  9  2  0
  8 10  1  0
  9 12  1  0
 10 13  2  0
 12  2  1  0
 12 11  2  0
 13 11  1  0
 13 22  1  0
 14 22  1  0
 15 20  1  0
 16 17  1  0
 16 15  1  0
 18 17  1  0
 18 27  1  0
 18 19  1  0
 20 14  1  0
 20 19  1  0
 21 14  2  0
 22 23  1  0
 24 25  2  0
 25 44  1  0
 26 25  1  0
 26 29  1  0
 27 24  1  0
 27 28  1  0
 28 26  2  0
 29 30  1  0
 30 31  2  0
 32 35  1  0
 32 31  1  0
 33 32  2  0
 34 33  1  0
 34 29  2  0
 35 36  1  0
 36 37  1  0
 37 38  2  0
 39 38  1  0
 39 43  1  0
 40 39  2  0
 41 36  2  0
 41 40  1  0
 42 41  1  0
 44 45  1  0
 45 48  1  0
 45 47  1  0
 46 44  2  0
 49 50  1  0
 49 24  1  0
 51 49  1  0
 52 53  1  0
 53 56  1  0
 53 54  1  0
 55 53  1  0
 58 60  1  0
 58 57  1  0
 59 70  2  0
 60 65  1  0
 61 69  1  0
 61 71  1  0
 62 68  1  0
 62 64  1  0
 63 69  1  0
 64 65  2  0
 64 63  1  0
 66 67  1  0
 66 60  2  0
 67 62  2  0
 68 61  1  0
 69 59  1  0
 71 73  2  0
 72 71  1  0
 74 72  1  0
 75 84  2  0
 75 80  1  0
 76 72  1  0
 76 80  1  0
 77 76  1  0
 78 79  1  0
 78 77  1  0
 79 75  1  0
 80 81  2  0
 81 82  1  0
 83 82  2  0
 84 83  1  0
 85 59  1  0
 85 90  1  0
 85 86  1  0
 86 89  1  1
 86 87  1  0
 88 86  1  0
 90 93  1  0
 91 95  1  0
 91 90  1  0
 92 91  2  0
 95 94  1  0
 97 95  1  0
 97 98  1  0
 97 96  1  0
M  ISO  4  14 100  22 100  57 101  58 101
M  END
>  <TORSDO>  (21) 
F 20

>  <SCORE>  (21) 
-14.321

>  <name>  (21) 
20

>  <ligand_id>  (21) 
20

>  <original_smiles>  (21) 
[H]C1=C(c2c([H])c([H])c([H])c(N([H])C(=O)N3C([H])([H])C([H])([H])C([H])([H])C([H])(n4nc(-c5c([H])c([H])c(Oc6c([H])c([H])c(F)c([H])c6F)c([H])c5[H])c(C(=O)N([H])[H])c4N([H])[H])C3([H])[H])c2[H])C([H])([H])C([H])([H])C(C([H])([H])Oc2c([H])c([H])c3c(c2[H])C([H])([H])N(C(=O)C([H])(N([H])C(=O)C([H])(N([H])C([H])([H])[H])C([H])([H])[H])C(C([H])([H])[H])(C([H])([H])[H])C([H])([H])[H])C([H])(C(=O)N([H])C2([H])c4c([H])c([H])c([H])c([H])c4C([H])([H])C([H])([H])C2([H])[H])C3([H])[H])(C([H])([H])[N+]([H])([H])[H])C([H])([H])C1([H])[H]

>  <smiles>  (21) 
[H]C1=C(c2c([H])c([H])c([H])c(N([H])C(=O)N3C([H])([H])C([H])([H])C([H])([H])C([H])(n4nc(-c5c([H])c([H])c(Oc6c([H])c([H])c(F)c([H])c6F)c([H])c5[H])c(C(=O)N([H])[H])c4N([H])[H])C3([H])[H])c2[H])C([H])([H])C([H])([H])C(C([H])([H])Oc2c([H])c([H])c3c(c2[H])C([H])([H])N(C(=O)C([H])(N([H])C(=O)C([H])(N([H])C([H])([H])[H])C([H])([H])[H])C(C([H])([H])[H])(C([H])([H])[H])C([H])([H])[H])C([H])(C(=O)N([H])C2([H])c4c([H])c([H])c([H])c([H])c4C([H])([H])C([H])([H])C2([H])[H])C3([H])[H])(C([H])([H])[N+]([H])([H])[H])C([H])([H])C1([H])[H]

$$$$
21:0:0
     RDKit          3D

100111  0  0  1  0  0  0  0  0999 V2000
  -31.3140  -17.0870   18.0070 C   0  0  0  0  0  3  0  0  0  0  0  0
  -30.0820  -17.4830   18.3820 C   0  0  0  0  0  0  0  0  0  0  0  0
  -32.2480  -17.9700   17.1940 C   0  0  0  0  0  2  0  0  0  0  0  0
  -29.1220  -18.6850   16.4630 C   0  0  0  0  0  2  0  0  0  0  0  0
  -30.4260  -18.8380   15.6500 C   0  0  0  0  0  2  0  0  0  0  0  0
  -30.2400  -21.3130   17.3390 C   0  0  0  0  0  2  0  0  0  0  0  0
  -31.5070  -20.1460   19.1300 C   0  0  0  0  0  2  0  0  0  0  0  0
  -29.4360  -22.0570   18.4050 C   0  0  0  0  0  2  0  0  0  0  0  0
  -30.7080  -20.9550   20.1770 C   0  0  0  0  0  2  0  0  0  0  0  0
  -29.5670  -18.8550   17.9260 C   0  0  0  0  0  3  0  0  0  0  0  0
  -31.5190  -19.2330   16.6760 C   0  0  0  0  0  3  0  0  0  0  0  0
  -30.7130  -19.9070   17.8110 C   0  0  1  0  0  0  0  0  0  0  0  0
  -30.2480  -22.2570   19.6300 N   0  0  2  0  0  4  0  0  0  0  0  0
  -31.0840  -22.7540   19.3620 H   0  0  0  0  0  0  0  0  0  0  0  0
  -29.0690  -16.5330   19.0120 C   0  0  0  0  0  2  0  0  0  0  0  0
  -30.7760  -14.3960   20.3900 C   0  0  0  0  0  0  0  0  0  0  0  0
  -30.3410  -12.3080   19.1580 C   0  0  0  0  0  2  0  0  0  0  0  0
  -29.3930  -12.5560   17.9700 C   0  0  0  0  0  2  0  0  0  0  0  0
  -27.9240  -12.4340   18.4200 C   0  0  0  0  0  2  0  0  0  0  0  0
  -27.6170  -13.2460   19.7050 C   0  0  0  0  0  3  0  0  0  0  0  0
  -28.6890  -13.0120   20.7950 C   0  0  0  0  0  2  0  0  0  0  0  0
  -30.0070  -13.2860   20.2050 N   0  0  0  0  0  0  0  0  0  0  0  0
  -31.9300  -14.4690   19.9640 O   0  0  0  0  0  0  0  0  0  0  0  0
  -30.3220  -17.5370   22.1400 C   0  0  0  0  0  3  0  0  0  0  0  0
  -29.2710  -17.5840   21.3320 C   0  0  0  0  0  3  0  0  0  0  0  0
  -31.0440  -16.2250   22.0160 C   0  0  0  0  0  2  0  0  0  0  0  0
  -29.1310  -16.3070   20.5520 C   0  0  0  0  0  3  0  0  0  0  0  0
  -30.2360  -15.4450   21.0550 N   0  0  0  0  0  0  0  0  0  0  0  0
  -25.2320  -13.8870   20.4250 C   0  0  0  0  0  0  0  0  0  0  0  0
  -24.1600  -13.1260   20.8030 C   0  0  0  0  0  0  0  0  0  0  0  0
  -24.6110  -11.7720   20.7830 C   0  0  0  0  0  0  0  0  0  0  0  0
  -26.2680  -12.9920   20.1990 N   0  0  0  0  0  0  0  0  0  0  0  0
  -25.8990  -11.7170   20.4740 N   0  0  0  0  0  0  0  0  0  0  0  0
  -23.8780  -10.5160   20.9830 C   0  0  0  0  0  0  0  0  0  0  0  0
  -24.3050   -9.5560   21.9270 C   0  0  0  0  0  3  0  0  0  0  0  0
  -23.5730   -8.3630   22.1140 C   0  0  0  0  0  3  0  0  0  0  0  0
  -22.4030   -8.1230   21.3560 C   0  0  0  0  0  0  0  0  0  0  0  0
  -21.9970   -9.0720   20.4010 C   0  0  0  0  0  3  0  0  0  0  0  0
  -22.7280  -10.2550   20.2140 C   0  0  0  0  0  3  0  0  0  0  0  0
  -21.6420   -6.9830   21.4530 O   0  0  0  0  0  0  0  0  0  0  0  0
  -21.5860   -6.2520   22.6120 C   0  0  0  0  0  0  0  0  0  0  0  0
  -21.1570   -6.8210   23.8320 C   0  0  0  0  0  3  0  0  0  0  0  0
  -21.0490   -6.0160   24.9830 C   0  0  0  0  0  3  0  0  0  0  0  0
  -21.3590   -4.6450   24.9170 C   0  0  0  0  0  0  0  0  0  0  0  0
  -21.7800   -4.0760   23.7030 C   0  0  0  0  0  3  0  0  0  0  0  0
  -21.8910   -4.8770   22.5530 C   0  0  0  0  0  0  0  0  0  0  0  0
  -22.2780   -4.3200   21.3800 F   0  0  0  0  0  0  0  0  0  0  0  0
  -21.2460   -3.8710   26.0210 F   0  0  0  0  0  0  0  0  0  0  0  0
  -22.7670  -13.6150   21.0750 C   0  0  0  0  0  0  0  0  0  0  0  0
  -22.0350  -12.9280   21.9470 N   0  0  0  0  0  0  0  0  0  0  0  0
  -22.3370  -14.6410   20.5500 O   0  0  0  0  0  0  0  0  0  0  0  0
  -22.3960  -12.0970   22.3920 H   0  0  0  0  0  0  0  0  0  0  0  0
  -21.1000  -13.2380   22.1700 H   0  0  0  0  0  0  0  0  0  0  0  0
  -25.4050  -15.2540   20.2290 N   0  0  0  0  0  0  0  0  0  0  0  0
  -24.6370  -15.9090   20.3290 H   0  0  0  0  0  0  0  0  0  0  0  0
  -26.2500  -15.6820   19.8790 H   0  0  0  0  0  0  0  0  0  0  0  0
  -29.5530  -23.1110   20.6270 C   0  0  0  0  0  2  0  0  0  0  0  0
  -29.6330  -24.6130   20.2660 C   0  0  0  0  0  2  0  0  0  0  0  0
  -28.4570  -25.4230   20.8200 C   0  0  0  0  0  2  0  0  0  0  0  0
  -28.5410  -26.7590   20.3200 O   0  0  0  0  0  0  0  0  0  0  0  0
  -24.6020  -31.8840   23.2450 C   0  0  0  0  0  0  0  0  0  0  0  0
  -27.3570  -27.4540   20.2850 C   0  0  0  0  0  0  0  0  0  0  0  0
  -23.4460  -30.4550   21.5870 C   0  0  0  0  0  3  0  0  0  0  0  0
  -24.9470  -28.9200   20.2160 C   0  0  0  0  0  0  0  0  0  0  0  0
  -25.9690  -30.8420   21.4450 C   0  0  0  0  0  2  0  0  0  0  0  0
  -26.0830  -29.4670   20.8260 C   0  0  0  0  0  0  0  0  0  0  0  0
  -27.2920  -28.7410   20.8570 C   0  0  0  0  0  3  0  0  0  0  0  0
  -26.2080  -26.9170   19.6610 C   0  0  0  0  0  3  0  0  0  0  0  0
  -25.0020  -27.6430   19.6310 C   0  0  0  0  0  3  0  0  0  0  0  0
  -23.6930  -29.7630   20.2200 C   0  0  0  0  0  2  0  0  0  0  0  0
  -24.6890  -31.0750   22.1520 N   0  0  0  0  0  0  0  0  0  0  0  0
  -23.5060  -32.1520   23.7580 O   0  0  0  0  0  0  0  0  0  0  0  0
  -22.7820  -29.4370   22.5420 C   0  0  0  0  0  0  0  0  0  0  0  0
  -21.4590  -29.2570   22.3950 N   0  0  0  0  0  0  0  0  0  0  0  0
  -23.4530  -28.8120   23.3690 O   0  0  0  0  0  0  0  0  0  0  0  0
  -20.9810  -29.8110   21.6990 H   0  0  0  0  0  0  0  0  0  0  0  0
  -18.0720  -28.0970   22.8660 C   0  0  0  0  0  0  0  0  0  0  0  0
  -20.6300  -28.3240   23.1560 C   0  0  0  0  0  3  0  0  0  0  0  0
  -20.7210  -26.8950   22.5710 C   0  0  0  0  0  2  0  0  0  0  0  0
  -19.6220  -26.5900   21.5490 C   0  0  0  0  0  2  0  0  0  0  0  0
  -18.2370  -26.7480   22.1850 C   0  0  0  0  0  2  0  0  0  0  0  0
  -19.1960  -28.8440   23.3070 C   0  0  0  0  0  0  0  0  0  0  0  0
  -18.9890  -30.1070   23.9030 C   0  0  0  0  0  3  0  0  0  0  0  0
  -17.6900  -30.6240   24.0620 C   0  0  0  0  0  3  0  0  0  0  0  0
  -16.5790  -29.8740   23.6380 C   0  0  0  0  0  3  0  0  0  0  0  0
  -16.7710  -28.6120   23.0470 C   0  0  0  0  0  3  0  0  0  0  0  0
  -25.8700  -32.5290   23.8880 C   0  0  0  0  0  3  0  0  0  0  0  0
  -26.3660  -31.7720   25.1810 C   0  0  1  0  0  0  0  0  0  0  0  0
  -25.2510  -31.5320   26.2250 C   0  0  0  0  0  1  0  0  0  0  0  0
  -26.9690  -30.3970   24.8100 C   0  0  0  0  0  1  0  0  0  0  0  0
  -27.4940  -32.5810   25.8620 C   0  0  0  0  0  1  0  0  0  0  0  0
  -25.5440  -33.9280   24.1960 N   0  0  0  0  0  0  0  0  0  0  0  0
  -25.8920  -34.9730   23.4340 C   0  0  0  0  0  0  0  0  0  0  0  0
  -26.5890  -34.8630   22.4230 O   0  0  0  0  0  0  0  0  0  0  0  0
  -24.9280  -34.0880   24.9800 H   0  0  0  0  0  0  0  0  0  0  0  0
  -24.1660  -36.7520   23.0040 C   0  0  0  0  0  1  0  0  0  0  0  0
  -25.3810  -36.3630   23.8620 C   0  0  0  0  0  3  0  0  0  0  0  0
  -27.4820  -37.2650   24.7570 C   0  0  0  0  0  1  0  0  0  0  0  0
  -26.4120  -37.4200   23.7750 N   0  0  0  0  0  0  0  0  0  0  0  0
  -25.9960  -38.3390   23.9030 H   0  0  0  0  0  0  0  0  0  0  0  0
  1  2  2  0
  2 15  1  0
  3  1  1  0
  5  4  1  0
  6  8  1  0
  7  9  1  0
  8 13  1  0
 10  4  1  0
 10  2  1  0
 11  5  1  0
 11  3  1  0
 11 12  1  0
 12  6  1  6
 12 10  1  0
 12  7  1  0
 13  9  1  0
 13 57  1  0
 13 14  1  6
 16 28  1  0
 17 22  1  0
 18 19  1  0
 18 17  1  0
 20 19  1  0
 20 32  1  0
 20 21  1  0
 22 16  1  0
 22 21  1  0
 23 16  2  0
 25 24  2  0
 26 24  1  0
 27 15  1  0
 27 28  1  0
 27 25  1  0
 28 26  1  0
 29 30  2  0
 30 49  1  0
 31 30  1  0
 31 34  1  0
 32 29  1  0
 32 33  1  0
 33 31  2  0
 34 35  1  0
 35 36  2  0
 37 40  1  0
 37 36  1  0
 38 37  2  0
 39 38  1  0
 39 34  2  0
 40 41  1  0
 41 42  1  0
 42 43  2  0
 44 43  1  0
 44 48  1  0
 45 44  2  0
 46 41  2  0
 46 45  1  0
 47 46  1  0
 49 50  1  0
 50 53  1  0
 50 52  1  0
 51 49  2  0
 54 55  1  0
 54 29  1  0
 56 54  1  0
 58 57  1  0
 58 59  1  0
 60 59  1  0
 61 72  2  0
 62 60  1  0
 62 67  1  0
 63 71  1  0
 63 73  1  0
 64 70  1  0
 64 66  1  0
 65 71  1  0
 66 67  2  0
 66 65  1  0
 68 62  2  0
 69 68  1  0
 69 64  2  0
 70 63  1  0
 71 61  1  0
 73 75  2  0
 74 73  1  0
 76 74  1  0
 77 86  2  0
 77 82  1  0
 78 74  1  0
 78 82  1  0
 79 78  1  0
 80 81  1  0
 80 79  1  0
 81 77  1  0
 82 83  2  0
 83 84  1  0
 85 84  2  0
 86 85  1  0
 87 61  1  0
 87 92  1  0
 87 88  1  0
 88 91  1  1
 88 89  1  0
 90 88  1  0
 92 95  1  0
 93 97  1  0
 93 92  1  0
 94 93  2  0
 97 96  1  0
 99 97  1  0
 99100  1  0
 99 98  1  0
M  ISO  4  16 100  28 100  59 101  60 101
M  END
>  <TORSDO>  (22) 
F 20

>  <SCORE>  (22) 
-14.032

>  <name>  (22) 
21

>  <ligand_id>  (22) 
21

>  <original_smiles>  (22) 
[H]C1=C([H])C([H])(C([H])([H])C2=C([H])C([H])([H])C3([H])C([H])([H])C([H])([H])C2([H])C32C([H])([H])C([H])([H])[N+]([H])(C([H])([H])C([H])([H])C([H])([H])Oc3c([H])c([H])c4c(c3[H])C([H])([H])N(C(=O)C([H])(N([H])C(=O)C([H])(N([H])C([H])([H])[H])C([H])([H])[H])C(C([H])([H])[H])(C([H])([H])[H])C([H])([H])[H])C([H])(C(=O)N([H])C3([H])c5c([H])c([H])c([H])c([H])c5C([H])([H])C([H])([H])C3([H])[H])C4([H])[H])C([H])([H])C2([H])[H])N(C(=O)N2C([H])([H])C([H])([H])C([H])([H])C([H])(n3nc(-c4c([H])c([H])c(Oc5c([H])c([H])c(F)c([H])c5F)c([H])c4[H])c(C(=O)N([H])[H])c3N([H])[H])C2([H])[H])C1([H])[H]

>  <smiles>  (22) 
[H]C1=C([H])C([H])(C([H])([H])C2=C([H])C([H])([H])C3([H])C([H])([H])C([H])([H])C2([H])C32C([H])([H])C([H])([H])[N+]([H])(C([H])([H])C([H])([H])C([H])([H])Oc3c([H])c([H])c4c(c3[H])C([H])([H])N(C(=O)C([H])(N([H])C(=O)C([H])(N([H])C([H])([H])[H])C([H])([H])[H])C(C([H])([H])[H])(C([H])([H])[H])C([H])([H])[H])C([H])(C(=O)N([H])C3([H])c5c([H])c([H])c([H])c([H])c5C([H])([H])C([H])([H])C3([H])[H])C4([H])[H])C([H])([H])C2([H])[H])N(C(=O)N2C([H])([H])C([H])([H])C([H])([H])C([H])(n3nc(-c4c([H])c([H])c(Oc5c([H])c([H])c(F)c([H])c5F)c([H])c4[H])c(C(=O)N([H])[H])c3N([H])[H])C2([H])[H])C1([H])[H]

$$$$
22:0:0
     RDKit          3D

104113  0  0  1  0  0  0  0  0999 V2000
  -29.0120  -19.0020   21.9510 C   0  0  0  0  0  2  0  0  0  0  0  0
  -29.6510  -18.9490   19.5800 C   0  0  0  0  0  3  0  0  0  0  0  0
  -29.2450  -19.9140   20.7260 C   0  0  0  0  0  3  0  0  0  0  0  0
  -29.5910  -17.6400   21.5650 C   0  0  0  0  0  3  0  0  0  0  0  0
  -29.4100  -17.5980   20.1030 N   0  0  0  0  0  4  0  0  0  0  0  0
  -30.0100  -16.9070   19.6780 H   0  0  0  0  0  0  0  0  0  0  0  0
  -28.4500  -17.3680   19.8990 H   0  0  0  0  0  0  0  0  0  0  0  0
  -28.8840  -19.1330   18.2900 C   0  0  0  0  0  0  0  0  0  0  0  0
  -29.5000  -18.8590   17.1360 N   0  0  0  0  0  4  0  0  0  0  0  0
  -27.5950  -19.4980   18.2890 N   0  0  0  0  0  0  0  0  0  0  0  0
  -30.4750  -18.5960   17.1190 H   0  0  0  0  0  0  0  0  0  0  0  0
  -29.0570  -18.9760   16.2390 H   0  0  0  0  0  0  0  0  0  0  0  0
  -27.1200  -19.7490   19.1430 H   0  0  0  0  0  0  0  0  0  0  0  0
  -27.0740  -19.6310   17.4360 H   0  0  0  0  0  0  0  0  0  0  0  0
  -30.2720  -21.0490   20.9950 C   0  0  0  0  0  2  0  0  0  0  0  0
  -30.3130  -23.6100   21.0770 C   0  0  0  0  0  2  0  0  0  0  0  0
  -30.3940  -22.4930   18.8620 C   0  0  0  0  0  2  0  0  0  0  0  0
  -29.5480  -24.8100   20.5140 C   0  0  0  0  0  2  0  0  0  0  0  0
  -29.7080  -23.6820   18.1750 C   0  0  0  0  0  2  0  0  0  0  0  0
  -29.8780  -22.3640   20.3030 C   0  0  0  0  0  3  0  0  0  0  0  0
  -29.7310  -25.0060   18.9860 C   0  0  0  0  0  3  0  0  0  0  0  0
  -28.6020  -25.9060   18.4660 C   0  0  0  0  0  2  0  0  0  0  0  0
  -28.4380  -27.0290   19.3250 O   0  0  0  0  0  0  0  0  0  0  0  0
  -24.5120  -31.5230   23.1620 C   0  0  0  0  0  0  0  0  0  0  0  0
  -27.1900  -27.5980   19.4710 C   0  0  0  0  0  0  0  0  0  0  0  0
  -23.2760  -30.2100   21.4700 C   0  0  0  0  0  3  0  0  0  0  0  0
  -24.7110  -28.9130   19.8170 C   0  0  0  0  0  0  0  0  0  0  0  0
  -25.7590  -30.7420   21.1560 C   0  0  0  0  0  2  0  0  0  0  0  0
  -25.8730  -29.4490   20.3820 C   0  0  0  0  0  0  0  0  0  0  0  0
  -27.1100  -28.7910   20.2190 C   0  0  0  0  0  3  0  0  0  0  0  0
  -26.0010  -27.0670   18.9100 C   0  0  0  0  0  3  0  0  0  0  0  0
  -24.7670  -27.7150   19.0890 C   0  0  0  0  0  3  0  0  0  0  0  0
  -23.4280  -29.6820   20.0200 C   0  0  0  0  0  2  0  0  0  0  0  0
  -24.5360  -30.8350   21.9870 N   0  0  0  0  0  0  0  0  0  0  0  0
  -23.4560  -31.6770   23.7910 O   0  0  0  0  0  0  0  0  0  0  0  0
  -22.7540  -29.0610   22.3610 C   0  0  0  0  0  0  0  0  0  0  0  0
  -21.4610  -28.7330   22.2130 N   0  0  0  0  0  0  0  0  0  0  0  0
  -23.5060  -28.4720   23.1400 O   0  0  0  0  0  0  0  0  0  0  0  0
  -20.9090  -29.2700   21.5580 H   0  0  0  0  0  0  0  0  0  0  0  0
  -18.2800  -27.0480   22.5170 C   0  0  0  0  0  0  0  0  0  0  0  0
  -20.7570  -27.6640   22.9200 C   0  0  0  0  0  3  0  0  0  0  0  0
  -21.0930  -26.2810   22.3140 C   0  0  0  0  0  2  0  0  0  0  0  0
  -20.0960  -25.8340   21.2400 C   0  0  0  0  0  2  0  0  0  0  0  0
  -18.6810  -25.7590   21.8200 C   0  0  0  0  0  2  0  0  0  0  0  0
  -19.2540  -27.9500   23.0190 C   0  0  0  0  0  0  0  0  0  0  0  0
  -18.8290  -29.1510   23.6270 C   0  0  0  0  0  3  0  0  0  0  0  0
  -17.4590  -29.4540   23.7400 C   0  0  0  0  0  3  0  0  0  0  0  0
  -16.4970  -28.5510   23.2550 C   0  0  0  0  0  3  0  0  0  0  0  0
  -16.9080  -27.3500   22.6500 C   0  0  0  0  0  3  0  0  0  0  0  0
  -25.8010  -32.1710   23.7570 C   0  0  0  0  0  3  0  0  0  0  0  0
  -25.4730  -33.5570   24.1160 N   0  0  0  0  0  0  0  0  0  0  0  0
  -25.7670  -34.6250   23.3640 C   0  0  0  0  0  0  0  0  0  0  0  0
  -26.4160  -34.5500   22.3170 O   0  0  0  0  0  0  0  0  0  0  0  0
  -24.8930  -33.6880   24.9320 H   0  0  0  0  0  0  0  0  0  0  0  0
  -23.9960  -36.3850   23.0690 C   0  0  0  0  0  1  0  0  0  0  0  0
  -25.2600  -35.9950   23.8510 C   0  0  0  0  0  3  0  0  0  0  0  0
  -27.3900  -36.9130   24.6570 C   0  0  0  0  0  1  0  0  0  0  0  0
  -26.2690  -37.0710   23.7350 N   0  0  0  0  0  0  0  0  0  0  0  0
  -25.8460  -37.9800   23.9020 H   0  0  0  0  0  0  0  0  0  0  0  0
  -26.3700  -31.3900   25.0050 C   0  0  1  0  0  0  0  0  0  0  0  0
  -25.3090  -31.1020   26.0940 C   0  0  0  0  0  1  0  0  0  0  0  0
  -26.9790  -30.0360   24.5720 C   0  0  0  0  0  1  0  0  0  0  0  0
  -27.5130  -32.2030   25.6550 C   0  0  0  0  0  1  0  0  0  0  0  0
  -31.0800  -17.5310   21.9750 C   0  0  0  0  0  2  0  0  0  0  0  0
  -31.6870  -16.1140   21.9830 C   0  0  0  0  0  2  0  0  0  0  0  0
  -31.9660  -15.5100   20.5930 C   0  0  0  0  0  2  0  0  0  0  0  0
  -30.8670  -13.8930   19.0410 C   0  0  0  0  0  0  0  0  0  0  0  0
  -30.2460  -11.6960   18.1290 C   0  0  0  0  0  2  0  0  0  0  0  0
  -29.0770  -11.7170   17.1310 C   0  0  0  0  0  2  0  0  0  0  0  0
  -27.7300  -11.6370   17.8670 C   0  0  0  0  0  2  0  0  0  0  0  0
  -27.6190  -12.6790   19.0080 C   0  0  0  0  0  3  0  0  0  0  0  0
  -28.8670  -12.6450   19.9190 C   0  0  0  0  0  2  0  0  0  0  0  0
  -30.0800  -12.7950   19.0880 N   0  0  0  0  0  0  0  0  0  0  0  0
  -31.5870  -14.1970   18.0870 O   0  0  0  0  0  0  0  0  0  0  0  0
  -30.9270  -14.5580   20.2020 N   0  0  0  0  0  0  0  0  0  0  0  0
  -30.3820  -14.1470   20.9500 H   0  0  0  0  0  0  0  0  0  0  0  0
  -25.5220  -13.4520   20.2930 C   0  0  0  0  0  0  0  0  0  0  0  0
  -24.4880  -12.7570   20.8610 C   0  0  0  0  0  0  0  0  0  0  0  0
  -24.7740  -11.3750   20.6380 C   0  0  0  0  0  0  0  0  0  0  0  0
  -26.3830  -12.4990   19.7720 N   0  0  0  0  0  0  0  0  0  0  0  0
  -25.9450  -11.2400   20.0290 N   0  0  0  0  0  0  0  0  0  0  0  0
  -23.9730  -10.1750   20.9160 C   0  0  0  0  0  0  0  0  0  0  0  0
  -24.4470   -9.1570   21.7720 C   0  0  0  0  0  3  0  0  0  0  0  0
  -23.6550   -8.0200   22.0380 C   0  0  0  0  0  3  0  0  0  0  0  0
  -22.3750   -7.8930   21.4490 C   0  0  0  0  0  0  0  0  0  0  0  0
  -21.9160   -8.8990   20.5800 C   0  0  0  0  0  3  0  0  0  0  0  0
  -22.7080  -10.0280   20.3110 C   0  0  0  0  0  3  0  0  0  0  0  0
  -21.5460   -6.8140   21.6310 O   0  0  0  0  0  0  0  0  0  0  0  0
  -21.5200   -6.1180   22.8110 C   0  0  0  0  0  0  0  0  0  0  0  0
  -21.2000   -6.7390   24.0390 C   0  0  0  0  0  3  0  0  0  0  0  0
  -21.1160   -5.9710   25.2160 C   0  0  0  0  0  3  0  0  0  0  0  0
  -21.3440   -4.5820   25.1700 C   0  0  0  0  0  0  0  0  0  0  0  0
  -21.6580   -3.9600   23.9490 C   0  0  0  0  0  3  0  0  0  0  0  0
  -21.7430   -4.7260   22.7730 C   0  0  0  0  0  0  0  0  0  0  0  0
  -22.0270   -4.1200   21.5940 F   0  0  0  0  0  0  0  0  0  0  0  0
  -21.2560   -3.8410   26.2990 F   0  0  0  0  0  0  0  0  0  0  0  0
  -23.2520  -13.3400   21.4840 C   0  0  0  0  0  0  0  0  0  0  0  0
  -22.6890  -12.6610   22.4770 N   0  0  0  0  0  0  0  0  0  0  0  0
  -22.8050  -14.4280   21.1190 O   0  0  0  0  0  0  0  0  0  0  0  0
  -23.0700  -11.7810   22.7890 H   0  0  0  0  0  0  0  0  0  0  0  0
  -21.8630  -13.0260   22.9300 H   0  0  0  0  0  0  0  0  0  0  0  0
  -25.7870  -14.8110   20.1560 N   0  0  0  0  0  0  0  0  0  0  0  0
  -25.0720  -15.4880   20.4040 H   0  0  0  0  0  0  0  0  0  0  0  0
  -26.4370  -15.1640   19.4670 H   0  0  0  0  0  0  0  0  0  0  0  0
  2  8  1  0
  2  5  1  0
  2  3  1  0
  3 15  1  0
  3  1  1  0
  4  1  1  0
  4 64  1  0
  5  4  1  0
  6  5  1  0
  7  5  1  0
  9  8  2  0
 10  8  1  0
 10 13  1  0
 11  9  1  0
 12  9  1  0
 14 10  1  0
 17 20  1  0
 18 16  1  0
 19 17  1  0
 19 21  1  0
 20 15  1  0
 20 16  1  0
 21 22  1  0
 21 18  1  0
 22 23  1  0
 23 25  1  0
 24 35  2  0
 25 30  1  0
 26 34  1  0
 26 36  1  0
 27 33  1  0
 27 29  1  0
 28 34  1  0
 29 28  1  0
 30 29  2  0
 31 32  1  0
 31 25  2  0
 32 27  2  0
 33 26  1  0
 34 24  1  0
 36 38  2  0
 37 36  1  0
 39 37  1  0
 40 49  2  0
 40 45  1  0
 41 37  1  0
 41 45  1  0
 42 41  1  0
 43 44  1  0
 43 42  1  0
 44 40  1  0
 45 46  2  0
 46 47  1  0
 48 47  2  0
 49 48  1  0
 50 24  1  0
 50 51  1  0
 50 60  1  0
 51 54  1  0
 52 56  1  0
 52 51  1  0
 53 52  2  0
 56 55  1  0
 58 56  1  0
 58 59  1  0
 58 57  1  0
 60 63  1  1
 60 61  1  0
 62 60  1  0
 64 65  1  0
 66 65  1  0
 67 73  1  0
 67 75  1  0
 68 73  1  0
 69 70  1  0
 69 68  1  0
 71 70  1  0
 71 80  1  0
 71 72  1  0
 73 72  1  0
 74 67  2  0
 75 66  1  0
 75 76  1  0
 77 78  2  0
 78 97  1  0
 79 78  1  0
 79 82  1  0
 80 81  1  0
 80 77  1  0
 81 79  2  0
 82 83  1  0
 83 84  2  0
 85 88  1  0
 85 84  1  0
 86 85  2  0
 87 86  1  0
 87 82  2  0
 88 89  1  0
 89 90  1  0
 90 91  2  0
 92 91  1  0
 92 96  1  0
 93 92  2  0
 94 89  2  0
 94 93  1  0
 95 94  1  0
 97 98  1  0
 98100  1  0
 98101  1  0
 99 97  2  0
102 77  1  0
102103  1  0
104102  1  0
M  ISO  4  22 101  23 101  67 100  75 100
M  END
>  <TORSDO>  (23) 
F 23

>  <SCORE>  (23) 
-8.197

>  <name>  (23) 
22

>  <ligand_id>  (23) 
22

>  <original_smiles>  (23) 
[H]c1c([H])c([H])c2c(c1[H])C([H])([H])C([H])([H])C([H])([H])C2([H])N([H])C(=O)C1([H])N(C(=O)C([H])(N([H])C(=O)C([H])(N([H])C([H])([H])[H])C([H])([H])[H])C(C([H])([H])[H])(C([H])([H])[H])C([H])([H])[H])C([H])([H])c2c([H])c(OC([H])([H])C3([H])C([H])([H])C([H])([H])C([H])(C([H])([H])C4([H])C([H])([H])C([H])(C([H])([H])C([H])([H])C([H])([H])N([H])C(=O)N5C([H])([H])C([H])([H])C([H])([H])C([H])(n6nc(-c7c([H])c([H])c(Oc8c([H])c([H])c(F)c([H])c8F)c([H])c7[H])c(C(=O)N([H])[H])c6N([H])[H])C5([H])[H])[N+]([H])([H])C4([H])C(N([H])[H])=[N+]([H])[H])C([H])([H])C3([H])[H])c([H])c([H])c2C1([H])[H]

>  <smiles>  (23) 
[H]c1c([H])c([H])c2c(c1[H])C([H])([H])C([H])([H])C([H])([H])C2([H])N([H])C(=O)C1([H])N(C(=O)C([H])(N([H])C(=O)C([H])(N([H])C([H])([H])[H])C([H])([H])[H])C(C([H])([H])[H])(C([H])([H])[H])C([H])([H])[H])C([H])([H])c2c([H])c(OC([H])([H])C3([H])C([H])([H])C([H])([H])C([H])(C([H])([H])C4([H])C([H])([H])C([H])(C([H])([H])C([H])([H])C([H])([H])N([H])C(=O)N5C([H])([H])C([H])([H])C([H])([H])C([H])(n6nc(-c7c([H])c([H])c(Oc8c([H])c([H])c(F)c([H])c8F)c([H])c7[H])c(C(=O)N([H])[H])c6N([H])[H])C5([H])[H])[N+]([H])([H])C4([H])C(N([H])[H])=[N+]([H])[H])C([H])([H])C3([H])[H])c([H])c([H])c2C1([H])[H]

$$$$
23:0:0
     RDKit          3D

104112  0  0  1  0  0  0  0  0999 V2000
  -29.3090  -25.5640   17.8910 C   0  0  0  0  0  3  0  0  0  0  0  0
  -28.5100  -25.6010   16.7180 C   0  0  0  0  0  3  0  0  0  0  0  0
  -29.9260  -27.8660   17.5230 C   0  0  0  0  0  3  0  0  0  0  0  0
  -29.9530  -26.7270   18.3420 C   0  0  0  0  0  0  0  0  0  0  0  0
  -28.4590  -26.7660   15.8860 C   0  0  0  0  0  0  0  0  0  0  0  0
  -29.2980  -27.8760   16.2570 C   0  0  0  0  0  0  0  0  0  0  0  0
  -29.8480  -28.9820   15.3170 C   0  0  0  0  0  2  0  0  0  0  0  0
  -30.4810  -30.1770   15.7840 O   0  0  0  0  0  0  0  0  0  0  0  0
  -36.6240  -33.4990   17.6290 C   0  0  0  0  0  0  0  0  0  0  0  0
  -31.8460  -30.3410   15.7320 C   0  0  0  0  0  0  0  0  0  0  0  0
  -36.8020  -31.4940   16.2020 C   0  0  0  0  0  3  0  0  0  0  0  0
  -34.6600  -30.1640   15.8700 C   0  0  0  0  0  0  0  0  0  0  0  0
  -34.7990  -31.7860   17.7750 C   0  0  0  0  0  2  0  0  0  0  0  0
  -33.9770  -30.9880   16.7740 C   0  0  0  0  0  0  0  0  0  0  0  0
  -32.5610  -31.0560   16.7270 C   0  0  0  0  0  3  0  0  0  0  0  0
  -32.5630  -29.5960   14.7800 C   0  0  0  0  0  3  0  0  0  0  0  0
  -33.9640  -29.4910   14.8510 C   0  0  0  0  0  3  0  0  0  0  0  0
  -36.1660  -30.0960   16.0010 C   0  0  0  0  0  2  0  0  0  0  0  0
  -36.0710  -32.3220   17.2160 N   0  0  0  0  0  0  0  0  0  0  0  0
  -37.7330  -33.8640   17.2160 O   0  0  0  0  0  0  0  0  0  0  0  0
  -36.9050  -32.1720   14.8220 C   0  0  0  0  0  0  0  0  0  0  0  0
  -38.1190  -32.1600   14.2550 N   0  0  0  0  0  0  0  0  0  0  0  0
  -35.9110  -32.6480   14.2670 O   0  0  0  0  0  0  0  0  0  0  0  0
  -38.8670  -31.7280   14.7760 H   0  0  0  0  0  0  0  0  0  0  0  0
  -40.7430  -33.7390   12.3540 C   0  0  0  0  0  0  0  0  0  0  0  0
  -38.4560  -32.6990   12.9410 C   0  0  0  0  0  3  0  0  0  0  0  0
  -38.8350  -31.5580   11.9710 C   0  0  0  0  0  2  0  0  0  0  0  0
  -40.3380  -31.2720   11.9510 C   0  0  0  0  0  2  0  0  0  0  0  0
  -41.0980  -32.5280   11.5070 C   0  0  0  0  0  2  0  0  0  0  0  0
  -39.5070  -33.8080   13.0470 C   0  0  0  0  0  0  0  0  0  0  0  0
  -39.2290  -34.9340   13.8500 C   0  0  0  0  0  3  0  0  0  0  0  0
  -40.1530  -35.9920   13.9560 C   0  0  0  0  0  3  0  0  0  0  0  0
  -41.3690  -35.9230   13.2510 C   0  0  0  0  0  3  0  0  0  0  0  0
  -41.6670  -34.8000   12.4600 C   0  0  0  0  0  3  0  0  0  0  0  0
  -35.9120  -34.4260   18.6540 C   0  0  0  0  0  3  0  0  0  0  0  0
  -36.8860  -34.7430   19.7070 N   0  0  0  0  0  0  0  0  0  0  0  0
  -37.0060  -34.0730   20.8590 C   0  0  0  0  0  0  0  0  0  0  0  0
  -36.2480  -33.1560   21.1830 O   0  0  0  0  0  0  0  0  0  0  0  0
  -37.5860  -35.4360   19.4830 H   0  0  0  0  0  0  0  0  0  0  0  0
  -39.3220  -33.5150   21.6790 C   0  0  0  0  0  1  0  0  0  0  0  0
  -38.1450  -34.4930   21.8090 C   0  0  0  0  0  3  0  0  0  0  0  0
  -36.9370  -35.7600   23.5290 C   0  0  0  0  0  1  0  0  0  0  0  0
  -37.7320  -34.5740   23.2250 N   0  0  0  0  0  0  0  0  0  0  0  0
  -38.5410  -34.5720   23.8380 H   0  0  0  0  0  0  0  0  0  0  0  0
  -35.3460  -35.7510   18.0060 C   0  0  1  0  0  0  0  0  0  0  0  0
  -36.4270  -36.8290   17.7610 C   0  0  0  0  0  1  0  0  0  0  0  0
  -34.6610  -35.4510   16.6500 C   0  0  0  0  0  1  0  0  0  0  0  0
  -34.2630  -36.3750   18.9240 C   0  0  0  0  0  1  0  0  0  0  0  0
  -27.5230  -26.8630   14.6460 C   0  0  0  0  0  2  0  0  0  0  0  0
  -27.2220  -25.6290   13.8780 N   0  0  0  0  0  4  0  0  0  0  0  0
  -28.0430  -25.2470   13.4440 H   0  0  0  0  0  0  0  0  0  0  0  0
  -26.5880  -25.8660   13.1280 H   0  0  0  0  0  0  0  0  0  0  0  0
  -26.7600  -24.9280   14.4280 H   0  0  0  0  0  0  0  0  0  0  0  0
  -30.5700  -26.7840   19.7340 C   0  0  0  0  0  2  0  0  0  0  0  0
  -31.7770  -27.6050   19.5410 N   0  0  0  0  0  4  0  0  0  0  0  0
  -31.6910  -27.9760   18.6120 H   0  0  0  0  0  0  0  0  0  0  0  0
  -32.5780  -27.0000   19.5330 H   0  0  0  0  0  0  0  0  0  0  0  0
  -32.0170  -28.7620   20.4220 C   0  0  0  0  0  2  0  0  0  0  0  0
  -30.9610  -28.8360   21.5580 C   0  0  0  0  0  2  0  0  0  0  0  0
  -31.3430  -28.1840   22.9050 C   0  0  0  0  0  2  0  0  0  0  0  0
  -30.1270  -27.9750   23.8350 C   0  0  0  0  0  2  0  0  0  0  0  0
  -28.7840  -27.8490   23.0770 C   0  0  0  0  0  2  0  0  0  0  0  0
  -27.6620  -27.1140   23.8490 C   0  0  0  0  0  2  0  0  0  0  0  0
  -27.4030  -25.7530   23.3140 N   0  0  0  0  0  4  0  0  0  0  0  0
  -27.7750  -25.0300   23.9120 H   0  0  0  0  0  0  0  0  0  0  0  0
  -26.3990  -25.6470   23.3020 H   0  0  0  0  0  0  0  0  0  0  0  0
  -27.9400  -25.5300   21.9530 C   0  0  0  0  0  2  0  0  0  0  0  0
  -27.8530  -24.0420   21.5830 C   0  0  0  0  0  2  0  0  0  0  0  0
  -26.7170  -23.7840   20.6090 C   0  0  0  0  0  0  0  0  0  0  0  0
  -25.9700  -23.2520   18.3390 C   0  0  0  0  0  2  0  0  0  0  0  0
  -25.2930  -21.8820   18.2810 C   0  0  0  0  0  2  0  0  0  0  0  0
  -26.3530  -20.7940   17.9950 C   0  0  0  0  0  2  0  0  0  0  0  0
  -27.5460  -20.8630   18.9890 C   0  0  0  0  0  3  0  0  0  0  0  0
  -28.0810  -22.3070   19.0630 C   0  0  0  0  0  2  0  0  0  0  0  0
  -26.9710  -23.2160   19.4020 N   0  0  0  0  0  0  0  0  0  0  0  0
  -25.6140  -24.2280   20.9390 O   0  0  0  0  0  0  0  0  0  0  0  0
  -29.1210  -18.8610   19.3900 C   0  0  0  0  0  0  0  0  0  0  0  0
  -30.0720  -18.2700   18.5850 C   0  0  0  0  0  0  0  0  0  0  0  0
  -30.0600  -19.0090   17.3660 C   0  0  0  0  0  0  0  0  0  0  0  0
  -28.6120  -19.9190   18.6500 N   0  0  0  0  0  0  0  0  0  0  0  0
  -29.2300  -20.0370   17.4480 N   0  0  0  0  0  0  0  0  0  0  0  0
  -30.7430  -18.7640   16.0890 C   0  0  0  0  0  0  0  0  0  0  0  0
  -32.1450  -18.8380   15.9860 C   0  0  0  0  0  3  0  0  0  0  0  0
  -32.7920  -18.5480   14.7650 C   0  0  0  0  0  3  0  0  0  0  0  0
  -32.0260  -18.2230   13.6200 C   0  0  0  0  0  0  0  0  0  0  0  0
  -30.6220  -18.1980   13.7160 C   0  0  0  0  0  3  0  0  0  0  0  0
  -29.9780  -18.4680   14.9370 C   0  0  0  0  0  3  0  0  0  0  0  0
  -32.5640  -17.9640   12.3780 O   0  0  0  0  0  0  0  0  0  0  0  0
  -32.6590  -16.6900   11.8780 C   0  0  0  0  0  0  0  0  0  0  0  0
  -31.6800  -16.1790   11.0040 C   0  0  0  0  0  3  0  0  0  0  0  0
  -31.8300  -14.8910   10.4590 C   0  0  0  0  0  3  0  0  0  0  0  0
  -32.9700  -14.1240   10.7680 C   0  0  0  0  0  0  0  0  0  0  0  0
  -33.9530  -14.6410   11.6300 C   0  0  0  0  0  3  0  0  0  0  0  0
  -33.7990  -15.9240   12.1860 C   0  0  0  0  0  0  0  0  0  0  0  0
  -34.7590  -16.4250   12.9970 F   0  0  0  0  0  0  0  0  0  0  0  0
  -33.1320  -12.8940   10.2250 F   0  0  0  0  0  0  0  0  0  0  0  0
  -30.8400  -17.0170   18.8900 C   0  0  0  0  0  0  0  0  0  0  0  0
  -32.1660  -17.0700   18.7690 N   0  0  0  0  0  0  0  0  0  0  0  0
  -30.2870  -15.9990   19.2770 O   0  0  0  0  0  0  0  0  0  0  0  0
  -32.6460  -17.9340   18.6000 H   0  0  0  0  0  0  0  0  0  0  0  0
  -32.7000  -16.2330   18.9330 H   0  0  0  0  0  0  0  0  0  0  0  0
  -28.6320  -18.5770   20.6580 N   0  0  0  0  0  0  0  0  0  0  0  0
  -28.8740  -17.7260   21.1600 H   0  0  0  0  0  0  0  0  0  0  0  0
  -27.8290  -19.0490   21.0550 H   0  0  0  0  0  0  0  0  0  0  0  0
  1  4  1  0
  2  1  2  0
  3  4  2  0
  4 54  1  0
  5  6  2  0
  5  2  1  0
  6  3  1  0
  7  8  1  0
  7  6  1  0
 10  8  1  0
 10 15  1  0
 11 21  1  0
 11 19  1  0
 12 18  1  0
 12 14  1  0
 14 13  1  0
 15 14  2  0
 16 17  1  0
 16 10  2  0
 17 12  2  0
 18 11  1  0
 19  9  1  0
 19 13  1  0
 20  9  2  0
 22 24  1  0
 22 21  1  0
 23 21  2  0
 25 34  2  0
 25 30  1  0
 26 30  1  0
 26 22  1  0
 27 26  1  0
 28 27  1  0
 29 28  1  0
 29 25  1  0
 30 31  2  0
 31 32  1  0
 33 32  2  0
 34 33  1  0
 35  9  1  0
 35 36  1  0
 36 37  1  0
 37 38  2  0
 37 41  1  0
 39 36  1  0
 41 40  1  0
 41 43  1  0
 43 42  1  0
 43 44  1  0
 45 35  1  0
 45 48  1  1
 46 45  1  0
 47 45  1  0
 49  5  1  0
 50 53  1  0
 50 49  1  0
 51 50  1  0
 52 50  1  0
 55 54  1  0
 55 58  1  0
 56 55  1  0
 57 55  1  0
 58 59  1  0
 59 60  1  0
 60 61  1  0
 62 61  1  0
 62 63  1  0
 64 63  1  0
 64 65  1  0
 66 64  1  0
 67 64  1  0
 68 67  1  0
 69 76  2  0
 69 68  1  0
 70 75  1  0
 71 70  1  0
 72 71  1  0
 73 72  1  0
 73 74  1  0
 74 75  1  0
 75 69  1  0
 77102  1  0
 78 97  1  0
 78 77  2  0
 79 81  2  0
 79 78  1  0
 80 73  1  0
 80 77  1  0
 81 80  1  0
 82 79  1  0
 83 82  1  0
 84 83  2  0
 85 86  2  0
 85 84  1  0
 86 87  1  0
 87 82  2  0
 88 85  1  0
 89 94  1  0
 89 88  1  0
 90 89  2  0
 91 92  2  0
 91 90  1  0
 92 93  1  0
 93 94  2  0
 94 95  1  0
 96 92  1  0
 97 99  2  0
 98 97  1  0
 98101  1  0
100 98  1  0
102104  1  0
102103  1  0
M  ISO  4   7 101   8 101  68 100  69 100
M  END
>  <TORSDO>  (24) 
F 30

>  <SCORE>  (24) 
-4.177

>  <name>  (24) 
23

>  <ligand_id>  (24) 
23

>  <original_smiles>  (24) 
[H]c1c([H])c([H])c2c(c1[H])C([H])([H])C([H])([H])C([H])([H])C2([H])N([H])C(=O)C1([H])N(C(=O)C([H])(N([H])C(=O)C([H])(N([H])C([H])([H])[H])C([H])([H])[H])C(C([H])([H])[H])(C([H])([H])[H])C([H])([H])[H])C([H])([H])c2c([H])c(OC([H])([H])c3c([H])c(C([H])([H])[N+]([H])([H])C([H])([H])C([H])([H])C([H])([H])C([H])([H])C([H])([H])C([H])([H])[N+]([H])([H])C([H])([H])C([H])([H])C(=O)N4C([H])([H])C([H])([H])C([H])([H])C([H])(n5nc(-c6c([H])c([H])c(Oc7c([H])c([H])c(F)c([H])c7F)c([H])c6[H])c(C(=O)N([H])[H])c5N([H])[H])C4([H])[H])c([H])c([H])c3C([H])([H])[N+]([H])([H])[H])c([H])c([H])c2C1([H])[H]

>  <smiles>  (24) 
[H]c1c([H])c([H])c2c(c1[H])C([H])([H])C([H])([H])C([H])([H])C2([H])N([H])C(=O)C1([H])N(C(=O)C([H])(N([H])C(=O)C([H])(N([H])C([H])([H])[H])C([H])([H])[H])C(C([H])([H])[H])(C([H])([H])[H])C([H])([H])[H])C([H])([H])c2c([H])c(OC([H])([H])c3c([H])c(C([H])([H])[N+]([H])([H])C([H])([H])C([H])([H])C([H])([H])C([H])([H])C([H])([H])C([H])([H])[N+]([H])([H])C([H])([H])C([H])([H])C(=O)N4C([H])([H])C([H])([H])C([H])([H])C([H])(n5nc(-c6c([H])c([H])c(Oc7c([H])c([H])c(F)c([H])c7F)c([H])c6[H])c(C(=O)N([H])[H])c5N([H])[H])C4([H])[H])c([H])c([H])c3C([H])([H])[N+]([H])([H])[H])c([H])c([H])c2C1([H])[H]

$$$$
24:0:0
     RDKit          3D

100108  0  0  1  0  0  0  0  0999 V2000
  -29.9880  -20.1410   22.2510 C   0  0  0  0  0  0  0  0  0  0  0  0
  -30.3460  -18.7780   20.0790 C   0  0  0  0  0  2  0  0  0  0  0  0
  -31.1680  -17.9440   22.4400 C   0  0  0  0  0  2  0  0  0  0  0  0
  -29.6240  -20.0580   20.7550 C   0  0  0  0  0  3  0  0  0  0  0  0
  -30.0060  -18.7950   22.9980 C   0  0  0  0  0  3  0  0  0  0  0  0
  -31.0080  -17.5820   20.9450 C   0  0  0  0  0  3  0  0  0  0  0  0
  -30.2790  -21.2090   22.8060 O   0  0  0  0  0  0  0  0  0  0  0  0
  -31.2910  -14.9920   20.7890 C   0  0  0  0  0  0  0  0  0  0  0  0
  -31.1610  -12.5980   20.1220 C   0  0  0  0  0  2  0  0  0  0  0  0
  -30.3720  -12.4660   18.8020 C   0  0  0  0  0  2  0  0  0  0  0  0
  -28.8610  -12.3570   19.0820 C   0  0  0  0  0  2  0  0  0  0  0  0
  -28.3570  -13.4340   20.0790 C   0  0  0  0  0  3  0  0  0  0  0  0
  -29.2770  -13.5410   21.3160 C   0  0  0  0  0  2  0  0  0  0  0  0
  -30.6410  -13.7870   20.8270 N   0  0  0  0  0  0  0  0  0  0  0  0
  -32.5060  -15.0460   20.5820 O   0  0  0  0  0  0  0  0  0  0  0  0
  -30.5340  -16.1440   20.8080 N   0  0  0  0  0  0  0  0  0  0  0  0
  -29.5380  -15.9870   20.8640 H   0  0  0  0  0  0  0  0  0  0  0  0
  -25.9760  -14.1500   20.7170 C   0  0  0  0  0  0  0  0  0  0  0  0
  -24.8280  -13.4360   20.9300 C   0  0  0  0  0  0  0  0  0  0  0  0
  -25.1850  -12.0610   20.7770 C   0  0  0  0  0  0  0  0  0  0  0  0
  -26.9620  -13.2150   20.4510 N   0  0  0  0  0  0  0  0  0  0  0  0
  -26.4880  -11.9460   20.5510 N   0  0  0  0  0  0  0  0  0  0  0  0
  -24.3500  -10.8520   20.7780 C   0  0  0  0  0  0  0  0  0  0  0  0
  -24.6670   -9.7370   21.5840 C   0  0  0  0  0  3  0  0  0  0  0  0
  -23.8390   -8.5930   21.5820 C   0  0  0  0  0  3  0  0  0  0  0  0
  -22.6790   -8.5590   20.7730 C   0  0  0  0  0  0  0  0  0  0  0  0
  -22.3800   -9.6640   19.9560 C   0  0  0  0  0  3  0  0  0  0  0  0
  -23.2090  -10.7990   19.9550 C   0  0  0  0  0  3  0  0  0  0  0  0
  -21.8310   -7.4820   20.6870 O   0  0  0  0  0  0  0  0  0  0  0  0
  -21.7150   -6.5730   21.7090 C   0  0  0  0  0  0  0  0  0  0  0  0
  -21.3460   -6.9640   23.0140 C   0  0  0  0  0  3  0  0  0  0  0  0
  -21.1710   -5.9910   24.0180 C   0  0  0  0  0  3  0  0  0  0  0  0
  -21.3550   -4.6280   23.7180 C   0  0  0  0  0  0  0  0  0  0  0  0
  -21.7160   -4.2370   22.4170 C   0  0  0  0  0  3  0  0  0  0  0  0
  -21.8930   -5.2070   21.4150 C   0  0  0  0  0  0  0  0  0  0  0  0
  -22.2210   -4.8230   20.1580 F   0  0  0  0  0  0  0  0  0  0  0  0
  -21.1790   -3.6910   24.6780 F   0  0  0  0  0  0  0  0  0  0  0  0
  -23.4560  -14.0000   21.1630 C   0  0  0  0  0  0  0  0  0  0  0  0
  -22.6250  -13.2940   21.9220 N   0  0  0  0  0  0  0  0  0  0  0  0
  -23.1310  -15.0970   20.7110 O   0  0  0  0  0  0  0  0  0  0  0  0
  -22.9010  -12.4010   22.3070 H   0  0  0  0  0  0  0  0  0  0  0  0
  -21.7010  -13.6480   22.1200 H   0  0  0  0  0  0  0  0  0  0  0  0
  -26.2590  -15.5140   20.7000 N   0  0  0  0  0  0  0  0  0  0  0  0
  -25.5280  -16.2100   20.8000 H   0  0  0  0  0  0  0  0  0  0  0  0
  -27.1430  -15.9080   20.4070 H   0  0  0  0  0  0  0  0  0  0  0  0
  -30.1600  -19.0740   24.4480 N   0  0  0  0  0  4  0  0  0  0  0  0
  -29.7130  -19.9620   24.6220 H   0  0  0  0  0  0  0  0  0  0  0  0
  -31.1360  -19.1990   24.6620 H   0  0  0  0  0  0  0  0  0  0  0  0
  -29.5640  -18.0600   25.3450 C   0  0  0  0  0  2  0  0  0  0  0  0
  -29.4160  -18.5820   26.7870 C   0  0  0  0  0  2  0  0  0  0  0  0
  -28.9320  -17.5340   27.6720 N   0  0  0  0  0  0  0  0  0  0  0  0
  -27.9740  -17.2950   27.4280 H   0  0  0  0  0  0  0  0  0  0  0  0
  -28.8570  -17.9010   28.6180 H   0  0  0  0  0  0  0  0  0  0  0  0
  -29.8930  -21.4450   20.1470 N   0  0  0  0  0  4  0  0  0  0  0  0
  -30.0830  -21.3370   19.1640 H   0  0  0  0  0  0  0  0  0  0  0  0
  -30.7420  -21.7610   20.5910 H   0  0  0  0  0  0  0  0  0  0  0  0
  -28.8570  -22.5630   20.2990 C   0  0  0  0  0  2  0  0  0  0  0  0
  -29.3330  -24.0980   20.1580 C   0  0  0  0  0  3  0  0  0  0  0  0
  -28.1890  -25.2170   20.0810 C   0  0  0  0  0  3  0  0  0  0  0  0
  -28.4650  -26.6840   20.1480 O   0  0  0  0  0  0  0  0  0  0  0  0
  -24.7750  -32.0310   23.3480 C   0  0  0  0  0  0  0  0  0  0  0  0
  -27.3540  -27.5540   20.1310 C   0  0  0  0  0  0  0  0  0  0  0  0
  -23.5490  -30.6640   21.6990 C   0  0  0  0  0  3  0  0  0  0  0  0
  -24.9820  -29.1650   20.2060 C   0  0  0  0  0  0  0  0  0  0  0  0
  -26.0850  -31.0040   21.4730 C   0  0  0  0  0  2  0  0  0  0  0  0
  -26.1620  -29.6430   20.7920 C   0  0  0  0  0  0  0  0  0  0  0  0
  -27.3510  -28.8500   20.7420 C   0  0  0  0  0  3  0  0  0  0  0  0
  -26.1460  -27.1440   19.5180 C   0  0  0  0  0  3  0  0  0  0  0  0
  -24.9780  -27.9240   19.5580 C   0  0  0  0  0  3  0  0  0  0  0  0
  -23.7390  -30.0260   20.3000 C   0  0  0  0  0  2  0  0  0  0  0  0
  -24.8230  -31.2490   22.2300 N   0  0  0  0  0  0  0  0  0  0  0  0
  -23.6990  -32.2850   23.9110 O   0  0  0  0  0  0  0  0  0  0  0  0
  -22.9140  -29.6180   22.6470 C   0  0  0  0  0  0  0  0  0  0  0  0
  -21.5910  -29.4160   22.5280 N   0  0  0  0  0  0  0  0  0  0  0  0
  -23.6100  -28.9920   23.4500 O   0  0  0  0  0  0  0  0  0  0  0  0
  -21.0860  -29.9730   21.8520 H   0  0  0  0  0  0  0  0  0  0  0  0
  -18.2490  -28.1110   22.9950 C   0  0  0  0  0  0  0  0  0  0  0  0
  -20.7960  -28.4510   23.2900 C   0  0  0  0  0  3  0  0  0  0  0  0
  -20.9480  -27.0250   22.7110 C   0  0  0  0  0  2  0  0  0  0  0  0
  -19.8670  -26.6690   21.6870 C   0  0  0  0  0  2  0  0  0  0  0  0
  -18.4750  -26.7700   22.3170 C   0  0  0  0  0  2  0  0  0  0  0  0
  -19.3380  -28.9070   23.4370 C   0  0  0  0  0  0  0  0  0  0  0  0
  -19.0750  -30.1610   24.0290 C   0  0  0  0  0  3  0  0  0  0  0  0
  -17.7530  -30.6200   24.1840 C   0  0  0  0  0  3  0  0  0  0  0  0
  -16.6770  -29.8210   23.7600 C   0  0  0  0  0  3  0  0  0  0  0  0
  -16.9260  -28.5680   23.1710 C   0  0  0  0  0  3  0  0  0  0  0  0
  -26.0650  -32.6590   23.9580 C   0  0  0  0  0  3  0  0  0  0  0  0
  -25.7530  -34.0480   24.3260 N   0  0  0  0  0  0  0  0  0  0  0  0
  -26.0810  -35.1220   23.5970 C   0  0  0  0  0  0  0  0  0  0  0  0
  -26.7530  -35.0480   22.5630 O   0  0  0  0  0  0  0  0  0  0  0  0
  -25.1620  -34.1790   25.1340 H   0  0  0  0  0  0  0  0  0  0  0  0
  -24.3540  -36.9240   23.2860 C   0  0  0  0  0  1  0  0  0  0  0  0
  -25.5910  -36.4970   24.0920 C   0  0  0  0  0  3  0  0  0  0  0  0
  -27.7190  -37.3620   24.9600 C   0  0  0  0  0  1  0  0  0  0  0  0
  -26.6230  -37.5540   24.0130 N   0  0  0  0  0  0  0  0  0  0  0  0
  -26.2150  -38.4690   24.1810 H   0  0  0  0  0  0  0  0  0  0  0  0
  -26.6080  -31.8650   25.2080 C   0  0  1  0  0  0  0  0  0  0  0  0
  -25.5390  -31.6060   26.2960 C   0  0  0  0  0  1  0  0  0  0  0  0
  -27.1830  -30.4960   24.7790 C   0  0  0  0  0  1  0  0  0  0  0  0
  -27.7720  -32.6470   25.8600 C   0  0  0  0  0  1  0  0  0  0  0  0
  1  7  2  0
  1  5  1  0
  2  4  1  0
  2  6  1  0
  3  5  1  0
  4 54  1  0
  4  1  1  0
  5 46  1  0
  6 16  1  0
  6  3  1  0
  8 16  1  0
  8 14  1  0
  9 14  1  0
 10 11  1  0
 10  9  1  0
 12 11  1  0
 12 21  1  0
 12 13  1  0
 14 13  1  0
 15  8  2  0
 16 17  1  0
 18 19  2  0
 19 38  1  0
 20 23  1  0
 20 19  1  0
 21 22  1  0
 21 18  1  0
 22 20  2  0
 23 24  1  0
 25 24  2  0
 26 25  1  0
 27 26  2  0
 28 27  1  0
 28 23  2  0
 29 26  1  0
 29 30  1  0
 30 31  1  0
 31 32  2  0
 33 32  1  0
 33 37  1  0
 34 33  2  0
 35 30  2  0
 35 34  1  0
 36 35  1  0
 38 39  1  0
 39 42  1  0
 39 41  1  0
 40 38  2  0
 43 18  1  0
 43 44  1  0
 45 43  1  0
 46 47  1  0
 46 48  1  0
 46 49  1  0
 49 50  1  0
 50 51  1  0
 51 53  1  0
 52 51  1  0
 54 57  1  0
 54 56  1  0
 55 54  1  0
 58 57  1  0
 59 60  1  0
 59 58  2  0
 61 72  2  0
 62 60  1  0
 62 67  1  0
 63 71  1  0
 63 73  1  0
 64 70  1  0
 64 66  1  0
 65 71  1  0
 66 65  1  0
 67 66  2  0
 68 69  1  0
 68 62  2  0
 69 64  2  0
 70 63  1  0
 71 61  1  0
 73 75  2  0
 74 73  1  0
 76 74  1  0
 77 86  2  0
 77 82  1  0
 78 74  1  0
 78 82  1  0
 79 78  1  0
 80 81  1  0
 80 79  1  0
 81 77  1  0
 82 83  2  0
 83 84  1  0
 85 84  2  0
 86 85  1  0
 87 61  1  0
 87 88  1  0
 87 97  1  0
 88 91  1  0
 89 93  1  0
 89 88  1  0
 90 89  2  0
 93 92  1  0
 95 93  1  0
 95 96  1  0
 95 94  1  0
 97100  1  1
 97 98  1  0
 99 97  1  0
M  ISO  4   8 100  16 100  59 101  60 101
M  END
>  <TORSDO>  (25) 
F 24

>  <SCORE>  (25) 
-3.175

>  <name>  (25) 
24

>  <ligand_id>  (25) 
24

>  <original_smiles>  (25) 
[H]c1c([H])c([H])c2c(c1[H])C([H])([H])C([H])([H])C([H])([H])C2([H])N([H])C(=O)C1([H])N(C(=O)C([H])(N([H])C(=O)C([H])(N([H])C([H])([H])[H])C([H])([H])[H])C(C([H])([H])[H])(C([H])([H])[H])C([H])([H])[H])C([H])([H])c2c([H])c(OC([H])([H])C([H])([H])C([H])([H])[N+]([H])([H])C3([H])C(=O)C([H])([N+]([H])([H])C([H])([H])C([H])([H])N([H])[H])C([H])([H])C([H])(N([H])C(=O)N4C([H])([H])C([H])([H])C([H])([H])C([H])(n5nc(-c6c([H])c([H])c(Oc7c([H])c([H])c(F)c([H])c7F)c([H])c6[H])c(C(=O)N([H])[H])c5N([H])[H])C4([H])[H])C3([H])[H])c([H])c([H])c2C1([H])[H]

>  <smiles>  (25) 
[H]c1c([H])c([H])c2c(c1[H])C([H])([H])C([H])([H])C([H])([H])C2([H])N([H])C(=O)C1([H])N(C(=O)C([H])(N([H])C(=O)C([H])(N([H])C([H])([H])[H])C([H])([H])[H])C(C([H])([H])[H])(C([H])([H])[H])C([H])([H])[H])C([H])([H])c2c([H])c(OC([H])([H])C([H])([H])C([H])([H])[N+]([H])([H])C3([H])C(=O)C([H])([N+]([H])([H])C([H])([H])C([H])([H])N([H])[H])C([H])([H])C([H])(N([H])C(=O)N4C([H])([H])C([H])([H])C([H])([H])C([H])(n5nc(-c6c([H])c([H])c(Oc7c([H])c([H])c(F)c([H])c7F)c([H])c6[H])c(C(=O)N([H])[H])c5N([H])[H])C4([H])[H])C3([H])[H])c([H])c([H])c2C1([H])[H]

$$$$
25:0:0
     RDKit          3D

100109  0  0  1  0  0  0  0  0999 V2000
  -27.8470  -22.6110   20.8030 C   0  0  0  0  0  2  0  0  0  0  0  0
  -29.9320  -23.2260   19.6490 C   0  0  0  0  0  2  0  0  0  0  0  0
  -28.4990  -21.3050   21.3580 C   0  0  0  0  0  2  0  0  0  0  0  0
  -30.5910  -21.8990   20.1880 C   0  0  0  0  0  2  0  0  0  0  0  0
  -29.7980  -17.6800   18.8960 C   0  0  0  0  0  2  0  0  0  0  0  0
  -29.1030  -20.0200   19.1870 C   0  0  0  0  0  2  0  0  0  0  0  0
  -29.8060  -18.2270   21.3980 C   0  0  0  0  0  2  0  0  0  0  0  0
  -28.8110  -23.8170   20.5530 C   0  0  0  0  0  3  0  0  0  0  0  0
  -30.3180  -17.2370   20.2920 C   0  0  0  0  0  3  0  0  0  0  0  0
  -29.6400  -20.6820   20.4960 C   0  0  2  0  0  0  0  0  0  0  0  0
  -30.0790  -19.0950   18.5520 N   0  0  0  0  0  0  0  0  0  0  0  0
  -30.3680  -19.6200   21.2790 N   0  0  0  0  0  4  0  0  0  0  0  0
  -31.2650  -19.5080   20.8340 H   0  0  0  0  0  0  0  0  0  0  0  0
  -30.5410  -19.9680   22.2080 H   0  0  0  0  0  0  0  0  0  0  0  0
  -30.7010  -14.6920   20.1700 C   0  0  0  0  0  0  0  0  0  0  0  0
  -30.4060  -12.4750   19.0990 C   0  0  0  0  0  2  0  0  0  0  0  0
  -29.4200  -12.6240   17.9200 C   0  0  0  0  0  2  0  0  0  0  0  0
  -27.9670  -12.4570   18.4070 C   0  0  0  0  0  2  0  0  0  0  0  0
  -27.6580  -13.3090   19.6680 C   0  0  0  0  0  3  0  0  0  0  0  0
  -28.7620  -13.1610   20.7400 C   0  0  0  0  0  2  0  0  0  0  0  0
  -30.0480  -13.4900   20.1090 N   0  0  0  0  0  0  0  0  0  0  0  0
  -31.8430  -14.8240   19.7230 O   0  0  0  0  0  0  0  0  0  0  0  0
  -29.9710  -15.7890   20.5310 N   0  0  0  0  0  0  0  0  0  0  0  0
  -29.0410  -15.5980   20.8740 H   0  0  0  0  0  0  0  0  0  0  0  0
  -25.2990  -13.8890   20.5050 C   0  0  0  0  0  0  0  0  0  0  0  0
  -24.2480  -13.1070   20.9010 C   0  0  0  0  0  0  0  0  0  0  0  0
  -24.7060  -11.7560   20.8140 C   0  0  0  0  0  0  0  0  0  0  0  0
  -26.3310  -13.0150   20.2040 N   0  0  0  0  0  0  0  0  0  0  0  0
  -25.9820  -11.7250   20.4490 N   0  0  0  0  0  0  0  0  0  0  0  0
  -23.9850  -10.4900   21.0010 C   0  0  0  0  0  0  0  0  0  0  0  0
  -24.4250   -9.5210   21.9290 C   0  0  0  0  0  3  0  0  0  0  0  0
  -23.7050   -8.3200   22.1050 C   0  0  0  0  0  3  0  0  0  0  0  0
  -22.5290   -8.0800   21.3530 C   0  0  0  0  0  0  0  0  0  0  0  0
  -22.1080   -9.0390   20.4150 C   0  0  0  0  0  3  0  0  0  0  0  0
  -22.8300  -10.2310   20.2370 C   0  0  0  0  0  3  0  0  0  0  0  0
  -21.7790   -6.9320   21.4390 O   0  0  0  0  0  0  0  0  0  0  0  0
  -21.6960   -6.2120   22.6040 C   0  0  0  0  0  0  0  0  0  0  0  0
  -21.1830   -6.7750   23.7930 C   0  0  0  0  0  3  0  0  0  0  0  0
  -21.0510   -5.9800   24.9480 C   0  0  0  0  0  3  0  0  0  0  0  0
  -21.4210   -4.6210   24.9150 C   0  0  0  0  0  0  0  0  0  0  0  0
  -21.9260   -4.0570   23.7310 C   0  0  0  0  0  3  0  0  0  0  0  0
  -22.0600   -4.8500   22.5780 C   0  0  0  0  0  0  0  0  0  0  0  0
  -22.5280   -4.2970   21.4330 F   0  0  0  0  0  0  0  0  0  0  0  0
  -21.2860   -3.8550   26.0230 F   0  0  0  0  0  0  0  0  0  0  0  0
  -22.8640  -13.5790   21.2450 C   0  0  0  0  0  0  0  0  0  0  0  0
  -22.1730  -12.8600   22.1210 N   0  0  0  0  0  0  0  0  0  0  0  0
  -22.4080  -14.6190   20.7720 O   0  0  0  0  0  0  0  0  0  0  0  0
  -22.5550  -12.0180   22.5240 H   0  0  0  0  0  0  0  0  0  0  0  0
  -21.2460  -13.1560   22.3930 H   0  0  0  0  0  0  0  0  0  0  0  0
  -25.4580  -15.2630   20.3550 N   0  0  0  0  0  0  0  0  0  0  0  0
  -24.6890  -15.9090   20.5010 H   0  0  0  0  0  0  0  0  0  0  0  0
  -26.2760  -15.7070   19.9620 H   0  0  0  0  0  0  0  0  0  0  0  0
  -28.0000  -25.0630   19.9670 C   0  0  0  0  0  2  0  0  0  0  0  0
  -28.2880  -26.4970   20.2300 O   0  0  0  0  0  0  0  0  0  0  0  0
  -24.5930  -31.9180   23.2450 C   0  0  0  0  0  0  0  0  0  0  0  0
  -27.1920  -27.3790   20.1510 C   0  0  0  0  0  0  0  0  0  0  0  0
  -23.3820  -30.5220   21.6110 C   0  0  0  0  0  3  0  0  0  0  0  0
  -24.8270  -28.9940   20.1620 C   0  0  0  0  0  0  0  0  0  0  0  0
  -25.9210  -30.8480   21.4140 C   0  0  0  0  0  2  0  0  0  0  0  0
  -25.9990  -29.4740   20.7600 C   0  0  0  0  0  0  0  0  0  0  0  0
  -27.1840  -28.6760   20.7520 C   0  0  0  0  0  3  0  0  0  0  0  0
  -26.0020  -26.9780   19.4940 C   0  0  0  0  0  3  0  0  0  0  0  0
  -24.8300  -27.7510   19.5190 C   0  0  0  0  0  3  0  0  0  0  0  0
  -23.5870  -29.8600   20.2250 C   0  0  0  0  0  2  0  0  0  0  0  0
  -24.6510  -31.1130   22.1450 N   0  0  0  0  0  0  0  0  0  0  0  0
  -23.5130  -32.1920   23.7870 O   0  0  0  0  0  0  0  0  0  0  0  0
  -22.7310  -29.4950   22.5690 C   0  0  0  0  0  0  0  0  0  0  0  0
  -21.4080  -29.3020   22.4400 N   0  0  0  0  0  0  0  0  0  0  0  0
  -23.4160  -28.8790   23.3900 O   0  0  0  0  0  0  0  0  0  0  0  0
  -20.9140  -29.8520   21.7510 H   0  0  0  0  0  0  0  0  0  0  0  0
  -18.0410  -28.0760   22.9410 C   0  0  0  0  0  0  0  0  0  0  0  0
  -20.5970  -28.3590   23.2130 C   0  0  0  0  0  3  0  0  0  0  0  0
  -20.7120  -26.9260   22.6420 C   0  0  0  0  0  2  0  0  0  0  0  0
  -19.6150  -26.5920   21.6270 C   0  0  0  0  0  2  0  0  0  0  0  0
  -18.2300  -26.7260   22.2700 C   0  0  0  0  0  2  0  0  0  0  0  0
  -19.1530  -28.8500   23.3700 C   0  0  0  0  0  0  0  0  0  0  0  0
  -18.9210  -30.1120   23.9570 C   0  0  0  0  0  3  0  0  0  0  0  0
  -17.6120  -30.6020   24.1210 C   0  0  0  0  0  3  0  0  0  0  0  0
  -16.5150  -29.8260   23.7090 C   0  0  0  0  0  3  0  0  0  0  0  0
  -16.7300  -28.5650   23.1240 C   0  0  0  0  0  3  0  0  0  0  0  0
  -25.8790  -32.5520   23.8580 C   0  0  0  0  0  3  0  0  0  0  0  0
  -26.4070  -31.7780   25.1290 C   0  0  1  0  0  0  0  0  0  0  0  0
  -25.3200  -31.5300   26.2000 C   0  0  0  0  0  1  0  0  0  0  0  0
  -26.9970  -30.4060   24.7290 C   0  0  0  0  0  1  0  0  0  0  0  0
  -27.5560  -32.5770   25.7870 C   0  0  0  0  0  1  0  0  0  0  0  0
  -25.5670  -33.9480   24.1940 N   0  0  0  0  0  0  0  0  0  0  0  0
  -25.8790  -35.0040   23.4300 C   0  0  0  0  0  0  0  0  0  0  0  0
  -26.5300  -34.9040   22.3860 O   0  0  0  0  0  0  0  0  0  0  0  0
  -24.9860  -34.0990   25.0060 H   0  0  0  0  0  0  0  0  0  0  0  0
  -24.1370  -36.7880   23.1050 C   0  0  0  0  0  1  0  0  0  0  0  0
  -25.3910  -36.3890   23.8970 C   0  0  0  0  0  3  0  0  0  0  0  0
  -27.5290  -37.2870   24.7040 C   0  0  0  0  0  1  0  0  0  0  0  0
  -26.4180  -37.4460   23.7710 N   0  0  0  0  0  0  0  0  0  0  0  0
  -26.0080  -38.3650   23.9190 H   0  0  0  0  0  0  0  0  0  0  0  0
  -30.0320  -19.2370   17.0890 C   0  0  0  0  0  2  0  0  0  0  0  0
  -30.7510  -20.5150   16.5970 C   0  0  0  0  0  2  0  0  0  0  0  0
  -31.0260  -20.4720   15.1520 N   0  0  0  0  0  4  0  0  0  0  0  0
  -31.6130  -19.6900   14.9240 H   0  0  0  0  0  0  0  0  0  0  0  0
  -31.5030  -21.3110   14.8700 H   0  0  0  0  0  0  0  0  0  0  0  0
  -30.1740  -20.4040   14.6270 H   0  0  0  0  0  0  0  0  0  0  0  0
  1  3  1  0
  2  4  1  0
  2  8  1  0
 10  4  1  6
  5  9  1  0
  8 53  1  0
  8  1  1  0
  9 23  1  0
  9  7  1  0
 10  6  1  0
 10 12  1  0
 10  3  1  0
 11  5  1  0
 11  6  1  0
 12  7  1  0
 12 14  1  0
 13 12  1  0
 15 23  1  0
 16 21  1  0
 17 18  1  0
 17 16  1  0
 19 18  1  0
 19 28  1  0
 19 20  1  0
 21 15  1  0
 21 20  1  0
 22 15  2  0
 23 24  1  0
 25 26  2  0
 26 45  1  0
 27 26  1  0
 27 30  1  0
 28 29  1  0
 28 25  1  0
 29 27  2  0
 30 31  1  0
 31 32  2  0
 33 36  1  0
 33 32  1  0
 34 33  2  0
 35 34  1  0
 35 30  2  0
 36 37  1  0
 37 38  1  0
 38 39  2  0
 40 39  1  0
 40 44  1  0
 41 40  2  0
 42 37  2  0
 42 41  1  0
 43 42  1  0
 45 46  1  0
 46 49  1  0
 46 48  1  0
 47 45  2  0
 50 51  1  0
 50 25  1  0
 52 50  1  0
 53 54  1  0
 55 66  2  0
 56 54  1  0
 56 61  1  0
 57 65  1  0
 57 67  1  0
 58 64  1  0
 58 60  1  0
 59 65  1  0
 60 59  1  0
 61 60  2  0
 62 63  1  0
 62 56  2  0
 63 58  2  0
 64 57  1  0
 65 55  1  0
 67 69  2  0
 68 67  1  0
 70 68  1  0
 71 80  2  0
 71 76  1  0
 72 68  1  0
 72 76  1  0
 73 72  1  0
 74 75  1  0
 74 73  1  0
 75 71  1  0
 76 77  2  0
 77 78  1  0
 79 78  2  0
 80 79  1  0
 81 55  1  0
 81 86  1  0
 81 82  1  0
 82 85  1  1
 82 83  1  0
 84 82  1  0
 86 89  1  0
 87 91  1  0
 87 86  1  0
 88 87  2  0
 91 90  1  0
 93 91  1  0
 93 94  1  0
 93 92  1  0
 95 11  1  0
 96 95  1  0
 97 96  1  0
 98 97  1  0
 99 97  1  0
100 97  1  0
M  ISO  4  15 100  23 100  53 101  54 101
M  END
>  <TORSDO>  (26) 
F 20

>  <SCORE>  (26) 
-14.289

>  <name>  (26) 
25

>  <ligand_id>  (26) 
25

>  <original_smiles>  (26) 
[H]c1c([H])c([H])c2c(c1[H])C([H])([H])C([H])([H])C([H])([H])C2([H])N([H])C(=O)C1([H])N(C(=O)C([H])(N([H])C(=O)C([H])(N([H])C([H])([H])[H])C([H])([H])[H])C(C([H])([H])[H])(C([H])([H])[H])C([H])([H])[H])C([H])([H])c2c([H])c(OC([H])([H])C3([H])C([H])([H])C([H])([H])C4(C([H])([H])N(C([H])([H])C([H])([H])[N+]([H])([H])[H])C([H])([H])C([H])(N([H])C(=O)N5C([H])([H])C([H])([H])C([H])([H])C([H])(n6nc(-c7c([H])c([H])c(Oc8c([H])c([H])c(F)c([H])c8F)c([H])c7[H])c(C(=O)N([H])[H])c6N([H])[H])C5([H])[H])C([H])([H])[N+]4([H])[H])C([H])([H])C3([H])[H])c([H])c([H])c2C1([H])[H]

>  <smiles>  (26) 
[H]c1c([H])c([H])c2c(c1[H])C([H])([H])C([H])([H])C([H])([H])C2([H])N([H])C(=O)C1([H])N(C(=O)C([H])(N([H])C(=O)C([H])(N([H])C([H])([H])[H])C([H])([H])[H])C(C([H])([H])[H])(C([H])([H])[H])C([H])([H])[H])C([H])([H])c2c([H])c(OC([H])([H])C3([H])C([H])([H])C([H])([H])C4(C([H])([H])N(C([H])([H])C([H])([H])[N+]([H])([H])[H])C([H])([H])C([H])(N([H])C(=O)N5C([H])([H])C([H])([H])C([H])([H])C([H])(n6nc(-c7c([H])c([H])c(Oc8c([H])c([H])c(F)c([H])c8F)c([H])c7[H])c(C(=O)N([H])[H])c6N([H])[H])C5([H])[H])C([H])([H])[N+]4([H])[H])C([H])([H])C3([H])[H])c([H])c([H])c2C1([H])[H]

$$$$
26:0:0
     RDKit          3D

 97105  0  0  1  0  0  0  0  0999 V2000
  -34.3750  -21.6350   20.7870 C   0  0  0  0  0  3  0  0  0  0  0  0
  -34.0380  -22.9900   20.6490 C   0  0  0  0  0  3  0  0  0  0  0  0
  -33.4450  -20.6470   20.4270 C   0  0  0  0  0  3  0  0  0  0  0  0
  -32.7770  -23.3470   20.1430 C   0  0  0  0  0  3  0  0  0  0  0  0
  -32.1630  -20.9900   19.9310 C   0  0  0  0  0  0  0  0  0  0  0  0
  -31.8260  -22.3680   19.7590 C   0  0  0  0  0  0  0  0  0  0  0  0
  -31.2110  -19.8330   19.6070 C   0  0  0  0  0  2  0  0  0  0  0  0
  -31.0490  -18.9470   20.7790 N   0  0  0  0  0  4  0  0  0  0  0  0
  -30.5280  -19.4340   21.4900 H   0  0  0  0  0  0  0  0  0  0  0  0
  -31.9700  -18.7680   21.1420 H   0  0  0  0  0  0  0  0  0  0  0  0
  -30.4140  -17.6450   20.4900 C   0  0  0  0  0  2  0  0  0  0  0  0
  -30.6240  -16.6470   21.6510 C   0  0  0  0  0  2  0  0  0  0  0  0
  -30.6790  -14.4320   20.5230 C   0  0  0  0  0  0  0  0  0  0  0  0
  -30.3370  -12.3580   19.2370 C   0  0  0  0  0  2  0  0  0  0  0  0
  -29.3820  -12.6040   18.0530 C   0  0  0  0  0  2  0  0  0  0  0  0
  -27.9140  -12.4570   18.4960 C   0  0  0  0  0  2  0  0  0  0  0  0
  -27.5930  -13.2610   19.7840 C   0  0  0  0  0  3  0  0  0  0  0  0
  -28.6480  -12.9810   20.8770 C   0  0  0  0  0  2  0  0  0  0  0  0
  -29.9780  -13.2880   20.3180 N   0  0  0  0  0  0  0  0  0  0  0  0
  -31.7400  -14.6930   19.9520 O   0  0  0  0  0  0  0  0  0  0  0  0
  -30.1010  -15.3160   21.3460 N   0  0  0  0  0  0  0  0  0  0  0  0
  -29.2200  -15.0520   21.7600 H   0  0  0  0  0  0  0  0  0  0  0  0
  -25.1890  -13.8670   20.4870 C   0  0  0  0  0  0  0  0  0  0  0  0
  -24.1230  -13.0930   20.8610 C   0  0  0  0  0  0  0  0  0  0  0  0
  -24.5890  -11.7440   20.8370 C   0  0  0  0  0  0  0  0  0  0  0  0
  -26.2380  -12.9890   20.2610 N   0  0  0  0  0  0  0  0  0  0  0  0
  -25.8780  -11.7070   20.5260 N   0  0  0  0  0  0  0  0  0  0  0  0
  -23.8700  -10.4780   21.0340 C   0  0  0  0  0  0  0  0  0  0  0  0
  -24.3150   -9.5140   21.9640 C   0  0  0  0  0  3  0  0  0  0  0  0
  -23.5960   -8.3120   22.1510 C   0  0  0  0  0  3  0  0  0  0  0  0
  -22.4180   -8.0690   21.4050 C   0  0  0  0  0  0  0  0  0  0  0  0
  -21.9910   -9.0230   20.4650 C   0  0  0  0  0  3  0  0  0  0  0  0
  -22.7110  -10.2150   20.2770 C   0  0  0  0  0  3  0  0  0  0  0  0
  -21.6710   -6.9190   21.4970 O   0  0  0  0  0  0  0  0  0  0  0  0
  -21.6440   -6.1700   22.6460 C   0  0  0  0  0  0  0  0  0  0  0  0
  -21.2460   -6.7190   23.8850 C   0  0  0  0  0  3  0  0  0  0  0  0
  -21.1650   -5.8960   25.0260 C   0  0  0  0  0  3  0  0  0  0  0  0
  -21.4720   -4.5260   24.9310 C   0  0  0  0  0  0  0  0  0  0  0  0
  -21.8640   -3.9770   23.6970 C   0  0  0  0  0  3  0  0  0  0  0  0
  -21.9470   -4.7970   22.5580 C   0  0  0  0  0  0  0  0  0  0  0  0
  -22.3040   -4.2590   21.3680 F   0  0  0  0  0  0  0  0  0  0  0  0
  -21.3860   -3.7330   26.0240 F   0  0  0  0  0  0  0  0  0  0  0  0
  -22.7250  -13.5670   21.1320 C   0  0  0  0  0  0  0  0  0  0  0  0
  -21.9990  -12.8730   22.0030 N   0  0  0  0  0  0  0  0  0  0  0  0
  -22.2820  -14.5880   20.6070 O   0  0  0  0  0  0  0  0  0  0  0  0
  -22.3720  -12.0520   22.4570 H   0  0  0  0  0  0  0  0  0  0  0  0
  -21.0600  -13.1720   22.2230 H   0  0  0  0  0  0  0  0  0  0  0  0
  -25.3470  -15.2360   20.3020 N   0  0  0  0  0  0  0  0  0  0  0  0
  -24.5700  -15.8820   20.4020 H   0  0  0  0  0  0  0  0  0  0  0  0
  -26.1860  -15.6750   19.9470 H   0  0  0  0  0  0  0  0  0  0  0  0
  -30.4760  -22.8090   19.1600 C   0  0  0  0  0  2  0  0  0  0  0  0
  -30.5130  -24.1440   18.5210 N   0  0  0  0  0  4  0  0  0  0  0  0
  -29.9430  -24.1280   17.6890 H   0  0  0  0  0  0  0  0  0  0  0  0
  -31.4620  -24.2810   18.2120 H   0  0  0  0  0  0  0  0  0  0  0  0
  -30.1150  -25.2850   19.3840 C   0  0  0  0  0  2  0  0  0  0  0  0
  -28.6280  -25.6620   19.2740 C   0  0  0  0  0  2  0  0  0  0  0  0
  -28.4550  -26.8230   20.0820 O   0  0  0  0  0  0  0  0  0  0  0  0
  -24.6000  -31.8770   23.2240 C   0  0  0  0  0  0  0  0  0  0  0  0
  -27.2430  -27.4780   20.0880 C   0  0  0  0  0  0  0  0  0  0  0  0
  -23.3870  -30.4840   21.5790 C   0  0  0  0  0  3  0  0  0  0  0  0
  -24.8340  -28.9570   20.1390 C   0  0  0  0  0  0  0  0  0  0  0  0
  -25.9080  -30.8530   21.3660 C   0  0  0  0  0  2  0  0  0  0  0  0
  -25.9900  -29.4840   20.7230 C   0  0  0  0  0  0  0  0  0  0  0  0
  -27.1920  -28.7470   20.7040 C   0  0  0  0  0  3  0  0  0  0  0  0
  -26.0630  -26.9490   19.5130 C   0  0  0  0  0  3  0  0  0  0  0  0
  -24.8630  -27.6850   19.5390 C   0  0  0  0  0  3  0  0  0  0  0  0
  -23.5870  -29.8120   20.1940 C   0  0  0  0  0  2  0  0  0  0  0  0
  -24.6510  -31.0850   22.1150 N   0  0  0  0  0  0  0  0  0  0  0  0
  -23.5230  -32.1420   23.7720 O   0  0  0  0  0  0  0  0  0  0  0  0
  -22.7450  -29.4550   22.5370 C   0  0  0  0  0  0  0  0  0  0  0  0
  -21.4210  -29.2700   22.4130 N   0  0  0  0  0  0  0  0  0  0  0  0
  -23.4350  -28.8260   23.3440 O   0  0  0  0  0  0  0  0  0  0  0  0
  -20.9280  -29.8290   21.7300 H   0  0  0  0  0  0  0  0  0  0  0  0
  -18.0510  -28.0670   22.9100 C   0  0  0  0  0  0  0  0  0  0  0  0
  -20.6080  -28.3280   23.1810 C   0  0  0  0  0  3  0  0  0  0  0  0
  -20.7130  -26.8990   22.6010 C   0  0  0  0  0  2  0  0  0  0  0  0
  -19.6110  -26.5790   21.5860 C   0  0  0  0  0  2  0  0  0  0  0  0
  -18.2300  -26.7200   22.2310 C   0  0  0  0  0  2  0  0  0  0  0  0
  -19.1680  -28.8300   23.3420 C   0  0  0  0  0  0  0  0  0  0  0  0
  -18.9470  -30.0930   23.9350 C   0  0  0  0  0  3  0  0  0  0  0  0
  -17.6420  -30.5910   24.1010 C   0  0  0  0  0  3  0  0  0  0  0  0
  -16.5390  -29.8250   23.6840 C   0  0  0  0  0  3  0  0  0  0  0  0
  -16.7450  -28.5660   23.0950 C   0  0  0  0  0  3  0  0  0  0  0  0
  -25.8910  -32.5070   23.8380 C   0  0  0  0  0  3  0  0  0  0  0  0
  -25.5830  -33.9030   24.1750 N   0  0  0  0  0  0  0  0  0  0  0  0
  -25.9140  -34.9580   23.4190 C   0  0  0  0  0  0  0  0  0  0  0  0
  -26.5840  -34.8580   22.3860 O   0  0  0  0  0  0  0  0  0  0  0  0
  -24.9900  -34.0540   24.9780 H   0  0  0  0  0  0  0  0  0  0  0  0
  -24.1870  -36.7490   23.0680 C   0  0  0  0  0  1  0  0  0  0  0  0
  -25.4280  -36.3440   23.8800 C   0  0  0  0  0  3  0  0  0  0  0  0
  -27.5620  -37.2210   24.7150 C   0  0  0  0  0  1  0  0  0  0  0  0
  -26.4600  -37.3960   23.7740 N   0  0  0  0  0  0  0  0  0  0  0  0
  -26.0540  -38.3150   23.9300 H   0  0  0  0  0  0  0  0  0  0  0  0
  -26.4190  -31.7290   25.1050 C   0  0  1  0  0  0  0  0  0  0  0  0
  -25.3350  -31.4870   26.1810 C   0  0  0  0  0  1  0  0  0  0  0  0
  -26.9990  -30.3550   24.6990 C   0  0  0  0  0  1  0  0  0  0  0  0
  -27.5750  -32.5210   25.7610 C   0  0  0  0  0  1  0  0  0  0  0  0
  2  1  1  0
  3  1  2  0
  4  2  2  0
  5  3  1  0
  6  5  2  0
  6  4  1  0
  7  5  1  0
  7  8  1  0
  8 10  1  0
  8  9  1  0
 11  8  1  0
 11 12  1  0
 13 21  1  0
 14 19  1  0
 15 16  1  0
 15 14  1  0
 17 16  1  0
 17 26  1  0
 17 18  1  0
 19 13  1  0
 19 18  1  0
 20 13  2  0
 21 12  1  0
 21 22  1  0
 23 24  2  0
 24 43  1  0
 25 24  1  0
 25 28  1  0
 26 23  1  0
 26 27  1  0
 27 25  2  0
 28 29  1  0
 29 30  2  0
 31 34  1  0
 31 30  1  0
 32 31  2  0
 33 32  1  0
 33 28  2  0
 34 35  1  0
 35 36  1  0
 36 37  2  0
 38 37  1  0
 38 42  1  0
 39 38  2  0
 40 35  2  0
 40 39  1  0
 41 40  1  0
 43 44  1  0
 44 47  1  0
 44 46  1  0
 45 43  2  0
 48 49  1  0
 48 23  1  0
 50 48  1  0
 51  6  1  0
 52 51  1  0
 52 55  1  0
 53 52  1  0
 54 52  1  0
 56 55  1  0
 56 57  1  0
 57 59  1  0
 58 69  2  0
 59 64  1  0
 60 68  1  0
 60 70  1  0
 61 67  1  0
 61 63  1  0
 62 68  1  0
 63 62  1  0
 64 63  2  0
 65 66  1  0
 65 59  2  0
 66 61  2  0
 67 60  1  0
 68 58  1  0
 70 72  2  0
 71 70  1  0
 73 71  1  0
 74 83  2  0
 74 79  1  0
 75 71  1  0
 75 79  1  0
 76 75  1  0
 77 78  1  0
 77 76  1  0
 78 74  1  0
 79 80  2  0
 80 81  1  0
 82 81  2  0
 83 82  1  0
 84 58  1  0
 84 85  1  0
 84 94  1  0
 85 88  1  0
 86 90  1  0
 86 85  1  0
 87 86  2  0
 90 89  1  0
 92 90  1  0
 92 93  1  0
 92 91  1  0
 94 97  1  1
 94 95  1  0
 96 94  1  0
M  ISO  4  13 100  21 100  56 101  57 101
M  END
>  <TORSDO>  (27) 
F 24

>  <SCORE>  (27) 
-11.924

>  <name>  (27) 
26

>  <ligand_id>  (27) 
26

>  <original_smiles>  (27) 
[H]c1c([H])c([H])c2c(c1[H])C([H])([H])C([H])([H])C([H])([H])C2([H])N([H])C(=O)C1([H])N(C(=O)C([H])(N([H])C(=O)C([H])(N([H])C([H])([H])[H])C([H])([H])[H])C(C([H])([H])[H])(C([H])([H])[H])C([H])([H])[H])C([H])([H])c2c([H])c(OC([H])([H])C([H])([H])[N+]([H])([H])C([H])([H])c3c([H])c([H])c([H])c([H])c3C([H])([H])[N+]([H])([H])C([H])([H])C([H])([H])N([H])C(=O)N3C([H])([H])C([H])([H])C([H])([H])C([H])(n4nc(-c5c([H])c([H])c(Oc6c([H])c([H])c(F)c([H])c6F)c([H])c5[H])c(C(=O)N([H])[H])c4N([H])[H])C3([H])[H])c([H])c([H])c2C1([H])[H]

>  <smiles>  (27) 
[H]c1c([H])c([H])c2c(c1[H])C([H])([H])C([H])([H])C([H])([H])C2([H])N([H])C(=O)C1([H])N(C(=O)C([H])(N([H])C(=O)C([H])(N([H])C([H])([H])[H])C([H])([H])[H])C(C([H])([H])[H])(C([H])([H])[H])C([H])([H])[H])C([H])([H])c2c([H])c(OC([H])([H])C([H])([H])[N+]([H])([H])C([H])([H])c3c([H])c([H])c([H])c([H])c3C([H])([H])[N+]([H])([H])C([H])([H])C([H])([H])N([H])C(=O)N3C([H])([H])C([H])([H])C([H])([H])C([H])(n4nc(-c5c([H])c([H])c(Oc6c([H])c([H])c(F)c([H])c6F)c([H])c5[H])c(C(=O)N([H])[H])c4N([H])[H])C3([H])[H])c([H])c([H])c2C1([H])[H]

$$$$
27:0:0
     RDKit          3D

103112  0  0  1  0  0  0  0  0999 V2000
  -26.7400  -20.9220   17.4120 C   0  0  0  0  0  0  0  0  0  0  0  0
  -26.8580  -20.2200   18.7650 C   0  0  0  0  0  2  0  0  0  0  0  0
  -29.1830  -21.5090   17.5460 C   0  0  0  0  0  2  0  0  0  0  0  0
  -29.2330  -20.8290   18.9240 C   0  0  0  0  0  2  0  0  0  0  0  0
  -27.7760  -22.0190   17.1530 C   0  0  0  0  0  3  0  0  0  0  0  0
  -25.8610  -20.6260   16.5520 N   0  0  0  0  0  0  0  0  0  0  0  0
  -28.2410  -19.7210   18.9910 N   0  0  1  0  0  4  0  0  0  0  0  0
  -25.2400  -19.8840   16.8600 H   0  0  0  0  0  0  0  0  0  0  0  0
  -28.4370  -19.1130   18.2090 H   0  0  0  0  0  0  0  0  0  0  0  0
  -27.3840  -23.3660   17.8220 C   0  0  0  0  0  2  0  0  0  0  0  0
  -29.3000  -24.9020   16.9290 C   0  0  0  0  0  2  0  0  0  0  0  0
  -27.0650  -25.9040   17.5560 C   0  0  0  0  0  2  0  0  0  0  0  0
  -29.9000  -25.3480   18.2830 C   0  0  0  0  0  2  0  0  0  0  0  0
  -28.0230  -26.9840   18.1130 C   0  0  0  0  0  2  0  0  0  0  0  0
  -27.7820  -24.6370   17.0200 C   0  0  0  0  0  3  0  0  0  0  0  0
  -29.0690  -26.3760   18.9780 N   0  0  2  0  0  4  0  0  0  0  0  0
  -28.5470  -25.8780   19.6850 H   0  0  0  0  0  0  0  0  0  0  0  0
  -29.8580  -27.3710   19.7550 C   0  0  0  0  0  2  0  0  0  0  0  0
  -30.1160  -26.8900   21.2010 C   0  0  0  0  0  2  0  0  0  0  0  0
  -28.9470  -26.2890   21.7690 O   0  0  0  0  0  0  0  0  0  0  0  0
  -24.6680  -31.7840   23.3530 C   0  0  0  0  0  0  0  0  0  0  0  0
  -27.7750  -26.9780   21.5830 C   0  0  0  0  0  0  0  0  0  0  0  0
  -23.7240  -30.0510   21.8600 C   0  0  0  0  0  3  0  0  0  0  0  0
  -25.3810  -28.3280   20.9880 C   0  0  0  0  0  0  0  0  0  0  0  0
  -26.2440  -30.4740   21.9420 C   0  0  0  0  0  2  0  0  0  0  0  0
  -26.4350  -29.0110   21.6070 C   0  0  0  0  0  0  0  0  0  0  0  0
  -27.6410  -28.3450   21.9050 C   0  0  0  0  0  3  0  0  0  0  0  0
  -26.6910  -26.2850   21.0080 C   0  0  0  0  0  3  0  0  0  0  0  0
  -25.4990  -26.9580   20.6910 C   0  0  0  0  0  3  0  0  0  0  0  0
  -24.1340  -29.1240   20.6860 C   0  0  0  0  0  2  0  0  0  0  0  0
  -24.8880  -30.7960   22.4420 N   0  0  0  0  0  0  0  0  0  0  0  0
  -23.5180  -32.1130   23.6740 O   0  0  0  0  0  0  0  0  0  0  0  0
  -22.9520  -29.2070   22.8990 C   0  0  0  0  0  0  0  0  0  0  0  0
  -21.6610  -28.9640   22.6250 N   0  0  0  0  0  0  0  0  0  0  0  0
  -23.5170  -28.7660   23.9030 O   0  0  0  0  0  0  0  0  0  0  0  0
  -21.2690  -29.3670   21.7850 H   0  0  0  0  0  0  0  0  0  0  0  0
  -18.2160  -27.9340   22.9730 C   0  0  0  0  0  0  0  0  0  0  0  0
  -20.7490  -28.1630   23.4400 C   0  0  0  0  0  3  0  0  0  0  0  0
  -20.8470  -26.6640   23.0730 C   0  0  0  0  0  2  0  0  0  0  0  0
  -19.8260  -26.2330   22.0150 C   0  0  0  0  0  2  0  0  0  0  0  0
  -18.4000  -26.5000   22.5050 C   0  0  0  0  0  2  0  0  0  0  0  0
  -19.3220  -28.7200   23.3960 C   0  0  0  0  0  0  0  0  0  0  0  0
  -19.1010  -30.0590   23.7860 C   0  0  0  0  0  3  0  0  0  0  0  0
  -17.8070  -30.6120   23.7620 C   0  0  0  0  0  3  0  0  0  0  0  0
  -16.7140  -29.8250   23.3590 C   0  0  0  0  0  3  0  0  0  0  0  0
  -16.9190  -28.4880   22.9720 C   0  0  0  0  0  3  0  0  0  0  0  0
  -25.8460  -32.5680   24.0130 C   0  0  0  0  0  3  0  0  0  0  0  0
  -26.3080  -31.9530   25.3900 C   0  0  1  0  0  0  0  0  0  0  0  0
  -25.1390  -31.6420   26.3530 C   0  0  0  0  0  1  0  0  0  0  0  0
  -27.0950  -30.6400   25.1680 C   0  0  0  0  0  1  0  0  0  0  0  0
  -27.2710  -32.9290   26.1040 C   0  0  0  0  0  1  0  0  0  0  0  0
  -25.4130  -33.9610   24.1830 N   0  0  0  0  0  0  0  0  0  0  0  0
  -25.6890  -34.9530   23.3260 C   0  0  0  0  0  0  0  0  0  0  0  0
  -26.4080  -34.8010   22.3340 O   0  0  0  0  0  0  0  0  0  0  0  0
  -24.7810  -34.1510   24.9470 H   0  0  0  0  0  0  0  0  0  0  0  0
  -23.8160  -36.5250   22.7500 C   0  0  0  0  0  1  0  0  0  0  0  0
  -25.0700  -36.3330   23.6170 C   0  0  0  0  0  3  0  0  0  0  0  0
  -27.0840  -37.5080   24.3850 C   0  0  0  0  0  1  0  0  0  0  0  0
  -26.0070  -37.4580   23.4000 N   0  0  0  0  0  0  0  0  0  0  0  0
  -25.5130  -38.3450   23.4210 H   0  0  0  0  0  0  0  0  0  0  0  0
  -28.3470  -18.8700   20.2090 C   0  0  0  0  0  2  0  0  0  0  0  0
  -29.7780  -18.3410   20.4580 C   0  0  0  0  0  2  0  0  0  0  0  0
  -29.8680  -17.1430   21.4150 C   0  0  0  0  0  2  0  0  0  0  0  0
  -31.3380  -16.7240   21.6090 C   0  0  0  0  0  2  0  0  0  0  0  0
  -31.5460  -15.3750   22.3220 C   0  0  0  0  0  2  0  0  0  0  0  0
  -31.1990  -13.6310   20.5640 C   0  0  0  0  0  0  0  0  0  0  0  0
  -30.5710  -11.8740   18.9490 C   0  0  0  0  0  2  0  0  0  0  0  0
  -29.6300  -12.4260   17.8630 C   0  0  0  0  0  2  0  0  0  0  0  0
  -28.1620  -12.3840   18.3300 C   0  0  0  0  0  2  0  0  0  0  0  0
  -27.9690  -12.9960   19.7420 C   0  0  0  0  0  3  0  0  0  0  0  0
  -29.0000  -12.4090   20.7300 C   0  0  0  0  0  2  0  0  0  0  0  0
  -30.3520  -12.6430   20.1820 N   0  0  0  0  0  0  0  0  0  0  0  0
  -32.2370  -13.9120   19.9540 O   0  0  0  0  0  0  0  0  0  0  0  0
  -30.8330  -14.2780   21.6770 N   0  0  0  0  0  0  0  0  0  0  0  0
  -29.9900  -13.9510   22.1260 H   0  0  0  0  0  0  0  0  0  0  0  0
  -25.6270  -13.7610   20.4930 C   0  0  0  0  0  0  0  0  0  0  0  0
  -24.5060  -13.0570   20.8460 C   0  0  0  0  0  0  0  0  0  0  0  0
  -24.8630  -11.6770   20.7600 C   0  0  0  0  0  0  0  0  0  0  0  0
  -26.6010  -12.8110   20.2210 N   0  0  0  0  0  0  0  0  0  0  0  0
  -26.1420  -11.5520   20.4330 N   0  0  0  0  0  0  0  0  0  0  0  0
  -24.0460  -10.4660   20.9120 C   0  0  0  0  0  0  0  0  0  0  0  0
  -24.3850   -9.4580   21.8420 C   0  0  0  0  0  3  0  0  0  0  0  0
  -23.5740   -8.3120   21.9820 C   0  0  0  0  0  3  0  0  0  0  0  0
  -22.4080   -8.1660   21.1930 C   0  0  0  0  0  0  0  0  0  0  0  0
  -22.0870   -9.1610   20.2530 C   0  0  0  0  0  3  0  0  0  0  0  0
  -22.8990  -10.2990   20.1100 C   0  0  0  0  0  3  0  0  0  0  0  0
  -21.5750   -7.0750   21.2420 O   0  0  0  0  0  0  0  0  0  0  0  0
  -21.4330   -6.3290   22.3850 C   0  0  0  0  0  0  0  0  0  0  0  0
  -20.9220   -6.8830   23.5780 C   0  0  0  0  0  3  0  0  0  0  0  0
  -20.7280   -6.0640   24.7080 C   0  0  0  0  0  3  0  0  0  0  0  0
  -21.0350   -4.6920   24.6450 C   0  0  0  0  0  0  0  0  0  0  0  0
  -21.5390   -4.1370   23.4550 C   0  0  0  0  0  3  0  0  0  0  0  0
  -21.7350   -4.9520   22.3280 C   0  0  0  0  0  0  0  0  0  0  0  0
  -22.2010   -4.4090   21.1780 F   0  0  0  0  0  0  0  0  0  0  0  0
  -20.8410   -3.9030   25.7280 F   0  0  0  0  0  0  0  0  0  0  0  0
  -23.1520  -13.6280   21.1560 C   0  0  0  0  0  0  0  0  0  0  0  0
  -22.3890  -12.9630   22.0170 N   0  0  0  0  0  0  0  0  0  0  0  0
  -22.7820  -14.6950   20.6710 O   0  0  0  0  0  0  0  0  0  0  0  0
  -22.7020  -12.0960   22.4300 H   0  0  0  0  0  0  0  0  0  0  0  0
  -21.4800  -13.3260   22.2670 H   0  0  0  0  0  0  0  0  0  0  0  0
  -25.8960  -15.1190   20.3640 N   0  0  0  0  0  0  0  0  0  0  0  0
  -25.1880  -15.8300   20.5120 H   0  0  0  0  0  0  0  0  0  0  0  0
  -26.7860  -15.4980   20.0700 H   0  0  0  0  0  0  0  0  0  0  0  0
  1  2  1  0
  2  7  1  0
  3  4  1  0
  4  7  1  0
  5  1  1  0
  5  3  1  0
  5 10  1  0
  6  8  1  0
  6  1  2  0
  7 61  1  0
  7  9  1  6
 11 15  1  0
 11 13  1  0
 12 14  1  0
 13 16  1  0
 14 16  1  0
 15 12  1  0
 15 10  1  0
 16 17  1  1
 16 18  1  0
 18 19  1  0
 19 20  1  0
 21 32  2  0
 22 20  1  0
 22 27  1  0
 23 31  1  0
 23 33  1  0
 24 26  1  0
 25 31  1  0
 26 27  2  0
 26 25  1  0
 28 22  2  0
 29 24  2  0
 29 28  1  0
 30 24  1  0
 30 23  1  0
 31 21  1  0
 33 35  2  0
 34 33  1  0
 36 34  1  0
 37 42  1  0
 38 34  1  0
 39 38  1  0
 40 41  1  0
 40 39  1  0
 41 37  1  0
 42 38  1  0
 42 43  2  0
 44 43  1  0
 45 44  2  0
 46 37  2  0
 46 45  1  0
 47 21  1  0
 47 52  1  0
 47 48  1  0
 48 51  1  1
 48 49  1  0
 50 48  1  0
 52 55  1  0
 53 57  1  0
 53 52  1  0
 54 53  2  0
 57 56  1  0
 59 60  1  0
 59 57  1  0
 59 58  1  0
 61 62  1  0
 62 63  1  0
 63 64  1  0
 64 65  1  0
 66 74  1  0
 67 72  1  0
 68 69  1  0
 68 67  1  0
 70 69  1  0
 70 79  1  0
 70 71  1  0
 72 66  1  0
 72 71  1  0
 73 66  2  0
 74 75  1  0
 74 65  1  0
 76 77  2  0
 77 96  1  0
 78 77  1  0
 78 81  1  0
 79 80  1  0
 79 76  1  0
 80 78  2  0
 81 82  1  0
 82 83  2  0
 84 87  1  0
 84 83  1  0
 85 84  2  0
 86 85  1  0
 86 81  2  0
 87 88  1  0
 88 89  1  0
 89 90  2  0
 91 90  1  0
 91 95  1  0
 92 91  2  0
 93 88  2  0
 93 92  1  0
 94 93  1  0
 96 97  1  0
 97100  1  0
 97 99  1  0
 98 96  2  0
101 76  1  0
101102  1  0
103101  1  0
M  ISO  4  19 101  20 101  66 100  74 100
M  END
>  <TORSDO>  (28) 
F 25

>  <SCORE>  (28) 
-9.598

>  <name>  (28) 
27

>  <ligand_id>  (28) 
27

>  <original_smiles>  (28) 
[H]N=C1C([H])(C([H])([H])C2([H])C([H])([H])C([H])([H])[N+]([H])(C([H])([H])C([H])([H])Oc3c([H])c([H])c4c(c3[H])C([H])([H])N(C(=O)C([H])(N([H])C(=O)C([H])(N([H])C([H])([H])[H])C([H])([H])[H])C(C([H])([H])[H])(C([H])([H])[H])C([H])([H])[H])C([H])(C(=O)N([H])C3([H])c5c([H])c([H])c([H])c([H])c5C([H])([H])C([H])([H])C3([H])[H])C4([H])[H])C([H])([H])C2([H])[H])C([H])([H])C([H])([H])[N+]([H])(C([H])([H])C([H])([H])C([H])([H])C([H])([H])C([H])([H])N([H])C(=O)N2C([H])([H])C([H])([H])C([H])([H])C([H])(n3nc(-c4c([H])c([H])c(Oc5c([H])c([H])c(F)c([H])c5F)c([H])c4[H])c(C(=O)N([H])[H])c3N([H])[H])C2([H])[H])C1([H])[H]

>  <smiles>  (28) 
[H]N=C1C([H])(C([H])([H])C2([H])C([H])([H])C([H])([H])[N+]([H])(C([H])([H])C([H])([H])Oc3c([H])c([H])c4c(c3[H])C([H])([H])N(C(=O)C([H])(N([H])C(=O)C([H])(N([H])C([H])([H])[H])C([H])([H])[H])C(C([H])([H])[H])(C([H])([H])[H])C([H])([H])[H])C([H])(C(=O)N([H])C3([H])c5c([H])c([H])c([H])c([H])c5C([H])([H])C([H])([H])C3([H])[H])C4([H])[H])C([H])([H])C2([H])[H])C([H])([H])C([H])([H])[N+]([H])(C([H])([H])C([H])([H])C([H])([H])C([H])([H])C([H])([H])N([H])C(=O)N2C([H])([H])C([H])([H])C([H])([H])C([H])(n3nc(-c4c([H])c([H])c(Oc5c([H])c([H])c(F)c([H])c5F)c([H])c4[H])c(C(=O)N([H])[H])c3N([H])[H])C2([H])[H])C1([H])[H]

$$$$
28:0:0
     RDKit          3D

104112  0  0  1  0  0  0  0  0999 V2000
  -32.2480  -28.8360   21.6380 C   0  0  0  0  0  2  0  0  0  0  0  0
  -30.9470  -26.8650   21.8810 C   0  0  0  0  0  0  0  0  0  0  0  0
  -30.7790  -25.3870   22.2430 C   0  0  0  0  0  2  0  0  0  0  0  0
  -30.0550  -24.5570   21.1540 C   0  0  0  0  0  2  0  0  0  0  0  0
  -28.7920  -25.2230   20.5650 C   0  0  0  0  0  2  0  0  0  0  0  0
  -29.6640  -27.5040   21.3240 C   0  0  0  0  0  3  0  0  0  0  0  0
  -29.1170  -26.6630   20.1420 C   0  0  0  0  0  3  0  0  0  0  0  0
  -32.0620  -27.4600   22.0780 N   0  0  0  0  0  0  0  0  0  0  0  0
  -28.7060  -27.6200   22.4500 N   0  0  0  0  0  4  0  0  0  0  0  0
  -28.4600  -26.7150   22.8150 H   0  0  0  0  0  0  0  0  0  0  0  0
  -27.8600  -28.0790   22.1560 H   0  0  0  0  0  0  0  0  0  0  0  0
  -29.1350  -28.1440   23.1960 H   0  0  0  0  0  0  0  0  0  0  0  0
  -28.1690  -27.2130   19.2110 O   0  0  0  0  0  0  0  0  0  0  0  0
  -24.3660  -31.8620   23.1520 C   0  0  0  0  0  0  0  0  0  0  0  0
  -26.9950  -27.8550   19.5380 C   0  0  0  0  0  0  0  0  0  0  0  0
  -23.1050  -30.5610   21.4620 C   0  0  0  0  0  3  0  0  0  0  0  0
  -24.5230  -29.2090   19.8350 C   0  0  0  0  0  0  0  0  0  0  0  0
  -25.5860  -31.0670   21.1300 C   0  0  0  0  0  2  0  0  0  0  0  0
  -25.6910  -29.7530   20.3830 C   0  0  0  0  0  0  0  0  0  0  0  0
  -26.9270  -29.0970   20.2160 C   0  0  0  0  0  3  0  0  0  0  0  0
  -25.8070  -27.3240   18.9920 C   0  0  0  0  0  3  0  0  0  0  0  0
  -24.5740  -27.9910   19.1360 C   0  0  0  0  0  3  0  0  0  0  0  0
  -23.2510  -30.0070   20.0190 C   0  0  0  0  0  2  0  0  0  0  0  0
  -24.3750  -31.1700   21.9770 N   0  0  0  0  0  0  0  0  0  0  0  0
  -23.3150  -32.0360   23.7830 O   0  0  0  0  0  0  0  0  0  0  0  0
  -22.5570  -29.4340   22.3640 C   0  0  0  0  0  0  0  0  0  0  0  0
  -21.2400  -29.1860   22.2740 N   0  0  0  0  0  0  0  0  0  0  0  0
  -23.3090  -28.7880   23.0980 O   0  0  0  0  0  0  0  0  0  0  0  0
  -20.6920  -29.7650   21.6530 H   0  0  0  0  0  0  0  0  0  0  0  0
  -17.9610  -27.7650   22.7900 C   0  0  0  0  0  0  0  0  0  0  0  0
  -20.5090  -28.1470   22.9960 C   0  0  0  0  0  3  0  0  0  0  0  0
  -20.6690  -26.7730   22.3050 C   0  0  0  0  0  2  0  0  0  0  0  0
  -19.5480  -26.4660   21.3080 C   0  0  0  0  0  2  0  0  0  0  0  0
  -18.1860  -26.4820   22.0080 C   0  0  0  0  0  2  0  0  0  0  0  0
  -19.0520  -28.5550   23.2400 C   0  0  0  0  0  0  0  0  0  0  0  0
  -18.7870  -29.7570   23.9320 C   0  0  0  0  0  3  0  0  0  0  0  0
  -17.4640  -30.1680   24.1820 C   0  0  0  0  0  3  0  0  0  0  0  0
  -16.3880  -29.3730   23.7510 C   0  0  0  0  0  3  0  0  0  0  0  0
  -16.6370  -28.1750   23.0560 C   0  0  0  0  0  3  0  0  0  0  0  0
  -25.6670  -32.4870   23.7460 C   0  0  0  0  0  3  0  0  0  0  0  0
  -25.3720  -33.8860   24.0730 N   0  0  0  0  0  0  0  0  0  0  0  0
  -25.7210  -34.9350   23.3120 C   0  0  0  0  0  0  0  0  0  0  0  0
  -26.3930  -34.8210   22.2840 O   0  0  0  0  0  0  0  0  0  0  0  0
  -24.7740  -34.0480   24.8700 H   0  0  0  0  0  0  0  0  0  0  0  0
  -24.0250  -36.7530   22.9390 C   0  0  0  0  0  1  0  0  0  0  0  0
  -25.2490  -36.3290   23.7650 C   0  0  0  0  0  3  0  0  0  0  0  0
  -27.3860  -37.1810   24.6260 C   0  0  0  0  0  1  0  0  0  0  0  0
  -26.3000  -37.3660   23.6680 N   0  0  0  0  0  0  0  0  0  0  0  0
  -25.9080  -38.2930   23.8090 H   0  0  0  0  0  0  0  0  0  0  0  0
  -26.2030  -31.7170   25.0140 C   0  0  1  0  0  0  0  0  0  0  0  0
  -25.1300  -31.4780   26.1020 C   0  0  0  0  0  1  0  0  0  0  0  0
  -26.7760  -30.3390   24.6110 C   0  0  0  0  0  1  0  0  0  0  0  0
  -27.3660  -32.5120   25.6530 C   0  0  0  0  0  1  0  0  0  0  0  0
  -33.6810  -29.3550   21.8850 C   0  0  0  0  0  2  0  0  0  0  0  0
  -34.8430  -28.4920   21.3540 C   0  0  0  0  0  2  0  0  0  0  0  0
  -34.7050  -28.0050   19.8920 C   0  0  0  0  0  2  0  0  0  0  0  0
  -34.9250  -26.4870   19.7490 C   0  0  0  0  0  2  0  0  0  0  0  0
  -33.7980  -25.7450   19.0140 C   0  0  0  0  0  2  0  0  0  0  0  0
  -33.9230  -24.2390   19.2700 C   0  0  0  0  0  2  0  0  0  0  0  0
  -32.6900  -23.4080   18.9020 C   0  0  0  0  0  2  0  0  0  0  0  0
  -32.7410  -22.0790   19.6690 C   0  0  0  0  0  2  0  0  0  0  0  0
  -31.4670  -21.2400   19.5840 C   0  0  0  0  0  2  0  0  0  0  0  0
  -31.6160  -19.9800   20.4470 C   0  0  0  0  0  2  0  0  0  0  0  0
  -30.4190  -19.0400   20.3380 C   0  0  0  0  0  2  0  0  0  0  0  0
  -30.6800  -17.6930   21.0260 C   0  0  0  0  0  2  0  0  0  0  0  0
  -29.5500  -16.7110   20.7150 C   0  0  0  0  0  2  0  0  0  0  0  0
  -30.5360  -14.4580   20.4910 C   0  0  0  0  0  0  0  0  0  0  0  0
  -30.3250  -12.2930   19.3460 C   0  0  0  0  0  2  0  0  0  0  0  0
  -29.3520  -12.4810   18.1630 C   0  0  0  0  0  2  0  0  0  0  0  0
  -27.8880  -12.3040   18.6160 C   0  0  0  0  0  2  0  0  0  0  0  0
  -27.5520  -13.1350   19.8850 C   0  0  0  0  0  3  0  0  0  0  0  0
  -28.6270  -12.8980   20.9710 C   0  0  0  0  0  2  0  0  0  0  0  0
  -29.9430  -13.2430   20.4000 N   0  0  0  0  0  0  0  0  0  0  0  0
  -31.5680  -14.7680   19.8880 O   0  0  0  0  0  0  0  0  0  0  0  0
  -29.8040  -15.3520   21.1680 N   0  0  0  0  0  0  0  0  0  0  0  0
  -29.0620  -14.9380   21.7150 H   0  0  0  0  0  0  0  0  0  0  0  0
  -25.1650  -13.7020   20.6810 C   0  0  0  0  0  0  0  0  0  0  0  0
  -24.1120  -12.9070   21.0440 C   0  0  0  0  0  0  0  0  0  0  0  0
  -24.5760  -11.5610   20.9290 C   0  0  0  0  0  0  0  0  0  0  0  0
  -26.2080  -12.8380   20.3800 N   0  0  0  0  0  0  0  0  0  0  0  0
  -25.8560  -11.5430   20.5790 N   0  0  0  0  0  0  0  0  0  0  0  0
  -23.8630  -10.2870   21.0780 C   0  0  0  0  0  0  0  0  0  0  0  0
  -24.3000   -9.3000   21.9880 C   0  0  0  0  0  3  0  0  0  0  0  0
  -23.5870   -8.0900   22.1270 C   0  0  0  0  0  3  0  0  0  0  0  0
  -22.4240   -7.8580   21.3540 C   0  0  0  0  0  0  0  0  0  0  0  0
  -22.0080   -8.8350   20.4330 C   0  0  0  0  0  3  0  0  0  0  0  0
  -22.7210  -10.0380   20.2920 C   0  0  0  0  0  3  0  0  0  0  0  0
  -21.6850   -6.7010   21.4000 O   0  0  0  0  0  0  0  0  0  0  0  0
  -21.6130   -5.9400   22.5390 C   0  0  0  0  0  0  0  0  0  0  0  0
  -21.0790   -6.4470   23.7440 C   0  0  0  0  0  3  0  0  0  0  0  0
  -20.9600   -5.6080   24.8700 C   0  0  0  0  0  3  0  0  0  0  0  0
  -21.3650   -4.2620   24.7930 C   0  0  0  0  0  0  0  0  0  0  0  0
  -21.8900   -3.7540   23.5910 C   0  0  0  0  0  3  0  0  0  0  0  0
  -22.0120   -4.5900   22.4680 C   0  0  0  0  0  0  0  0  0  0  0  0
  -22.5000   -4.0870   21.3070 F   0  0  0  0  0  0  0  0  0  0  0  0
  -21.2420   -3.4540   25.8710 F   0  0  0  0  0  0  0  0  0  0  0  0
  -22.7220  -13.3610   21.3870 C   0  0  0  0  0  0  0  0  0  0  0  0
  -22.0230  -12.6110   22.2310 N   0  0  0  0  0  0  0  0  0  0  0  0
  -22.2640  -14.4130   20.9420 O   0  0  0  0  0  0  0  0  0  0  0  0
  -22.4050  -11.7560   22.6070 H   0  0  0  0  0  0  0  0  0  0  0  0
  -21.0920  -12.8940   22.5030 H   0  0  0  0  0  0  0  0  0  0  0  0
  -25.3190  -15.0820   20.5660 N   0  0  0  0  0  0  0  0  0  0  0  0
  -24.5510  -15.7250   20.7300 H   0  0  0  0  0  0  0  0  0  0  0  0
  -26.1570  -15.5450   20.2400 H   0  0  0  0  0  0  0  0  0  0  0  0
  1 54  1  0
  1  8  1  0
  2  8  2  0
  2  3  1  0
  4  3  1  0
  5  4  1  0
  6  2  1  0
  6  9  1  0
  7 13  1  0
  7  5  1  0
  7  6  1  0
  9 10  1  0
  9 12  1  0
 11  9  1  0
 13 15  1  0
 14 25  2  0
 15 20  1  0
 16 24  1  0
 16 26  1  0
 17 23  1  0
 17 19  1  0
 18 24  1  0
 19 18  1  0
 20 19  2  0
 21 22  1  0
 21 15  2  0
 22 17  2  0
 23 16  1  0
 24 14  1  0
 26 28  2  0
 27 26  1  0
 29 27  1  0
 30 39  2  0
 30 35  1  0
 31 27  1  0
 31 35  1  0
 32 31  1  0
 33 34  1  0
 33 32  1  0
 34 30  1  0
 35 36  2  0
 36 37  1  0
 38 37  2  0
 39 38  1  0
 40 14  1  0
 40 41  1  0
 40 50  1  0
 41 44  1  0
 42 46  1  0
 42 41  1  0
 43 42  2  0
 46 45  1  0
 48 46  1  0
 48 49  1  0
 48 47  1  0
 50 53  1  1
 50 51  1  0
 52 50  1  0
 55 54  1  0
 56 55  1  0
 57 56  1  0
 58 59  1  0
 58 57  1  0
 60 59  1  0
 60 61  1  0
 62 61  1  0
 62 63  1  0
 64 63  1  0
 64 65  1  0
 66 65  1  0
 66 75  1  0
 67 75  1  0
 68 73  1  0
 69 70  1  0
 69 68  1  0
 71 70  1  0
 71 80  1  0
 71 72  1  0
 73 67  1  0
 73 72  1  0
 74 67  2  0
 75 76  1  0
 77 78  2  0
 78 97  1  0
 79 78  1  0
 79 82  1  0
 80 81  1  0
 80 77  1  0
 81 79  2  0
 82 83  1  0
 83 84  2  0
 85 88  1  0
 85 84  1  0
 86 85  2  0
 87 86  1  0
 87 82  2  0
 88 89  1  0
 89 90  1  0
 90 91  2  0
 92 91  1  0
 92 96  1  0
 93 92  2  0
 94 89  2  0
 94 93  1  0
 95 94  1  0
 97 98  1  0
 98101  1  0
 98100  1  0
 99 97  2  0
102 77  1  0
102103  1  0
104102  1  0
M  ISO  4   7 101  13 101  67 100  75 100
M  END
>  <TORSDO>  (29) 
F 31

>  <SCORE>  (29) 
-9.651

>  <name>  (29) 
28

>  <ligand_id>  (29) 
28

>  <original_smiles>  (29) 
[H]c1c([H])c([H])c2c(c1[H])C([H])([H])C([H])([H])C([H])([H])C2([H])N([H])C(=O)C1([H])N(C(=O)C([H])(N([H])C(=O)C([H])(N([H])C([H])([H])[H])C([H])([H])[H])C(C([H])([H])[H])(C([H])([H])[H])C([H])([H])[H])C([H])([H])c2c([H])c(OC3([H])C([H])([H])C([H])([H])C([H])([H])C(=NC([H])([H])C([H])([H])C([H])([H])C([H])([H])C([H])([H])C([H])([H])C([H])([H])C([H])([H])C([H])([H])C([H])([H])C([H])([H])C([H])([H])C([H])([H])C([H])([H])N([H])C(=O)N4C([H])([H])C([H])([H])C([H])([H])C([H])(n5nc(-c6c([H])c([H])c(Oc7c([H])c([H])c(F)c([H])c7F)c([H])c6[H])c(C(=O)N([H])[H])c5N([H])[H])C4([H])[H])C3([H])[N+]([H])([H])[H])c([H])c([H])c2C1([H])[H]

>  <smiles>  (29) 
[H]c1c([H])c([H])c2c(c1[H])C([H])([H])C([H])([H])C([H])([H])C2([H])N([H])C(=O)C1([H])N(C(=O)C([H])(N([H])C(=O)C([H])(N([H])C([H])([H])[H])C([H])([H])[H])C(C([H])([H])[H])(C([H])([H])[H])C([H])([H])[H])C([H])([H])c2c([H])c(OC3([H])C([H])([H])C([H])([H])C([H])([H])C(=NC([H])([H])C([H])([H])C([H])([H])C([H])([H])C([H])([H])C([H])([H])C([H])([H])C([H])([H])C([H])([H])C([H])([H])C([H])([H])C([H])([H])C([H])([H])C([H])([H])N([H])C(=O)N4C([H])([H])C([H])([H])C([H])([H])C([H])(n5nc(-c6c([H])c([H])c(Oc7c([H])c([H])c(F)c([H])c7F)c([H])c6[H])c(C(=O)N([H])[H])c5N([H])[H])C4([H])[H])C3([H])[N+]([H])([H])[H])c([H])c([H])c2C1([H])[H]

$$$$
29:0:0
     RDKit          3D

 97106  0  0  1  0  0  0  0  0999 V2000
  -30.2090  -22.8160   20.5680 C   0  0  0  0  0  2  0  0  0  0  0  0
  -29.3720  -23.3300   18.2370 C   0  0  0  0  0  2  0  0  0  0  0  0
  -30.9780  -24.1470   20.5500 C   0  0  0  0  0  2  0  0  0  0  0  0
  -30.1470  -24.6540   18.2870 C   0  0  0  0  0  2  0  0  0  0  0  0
  -30.0130  -22.2590   19.1400 C   0  0  0  0  0  3  0  0  0  0  0  0
  -30.2750  -25.1210   19.6850 N   0  0  2  0  0  4  0  0  0  0  0  0
  -29.3250  -25.1760   20.0310 H   0  0  0  0  0  0  0  0  0  0  0  0
  -29.1750  -20.9640   19.0880 C   0  0  0  0  0  2  0  0  0  0  0  0
  -31.6210  -18.8500   21.2690 C   0  0  0  0  0  0  0  0  0  0  0  0
  -31.0710  -19.4720   19.9820 C   0  0  0  0  0  2  0  0  0  0  0  0
  -31.1920  -17.4360   21.6730 C   0  0  0  0  0  2  0  0  0  0  0  0
  -28.6380  -18.6330   19.8180 C   0  0  0  0  0  2  0  0  0  0  0  0
  -28.7850  -17.4460   20.7790 C   0  0  0  0  0  2  0  0  0  0  0  0
  -29.5690  -19.8400   20.0730 C   0  0  0  0  0  3  0  0  0  0  0  0
  -30.1710  -16.7750   20.7210 C   0  0  0  0  0  3  0  0  0  0  0  0
  -32.4010  -19.4880   21.9790 O   0  0  0  0  0  0  0  0  0  0  0  0
  -30.6910  -14.3950   20.3390 C   0  0  0  0  0  0  0  0  0  0  0  0
  -30.3250  -12.3130   19.0880 C   0  0  0  0  0  2  0  0  0  0  0  0
  -29.3630  -12.6170   17.9220 C   0  0  0  0  0  2  0  0  0  0  0  0
  -27.8950  -12.4870   18.3770 C   0  0  0  0  0  2  0  0  0  0  0  0
  -27.6040  -13.2650   19.6890 C   0  0  0  0  0  3  0  0  0  0  0  0
  -28.6760  -12.9510   20.7610 C   0  0  0  0  0  2  0  0  0  0  0  0
  -30.0030  -13.2380   20.1840 N   0  0  0  0  0  0  0  0  0  0  0  0
  -31.7660  -14.6340   19.7770 O   0  0  0  0  0  0  0  0  0  0  0  0
  -30.0260  -15.3490   21.0010 N   0  0  0  0  0  0  0  0  0  0  0  0
  -29.1750  -15.0530   21.4540 H   0  0  0  0  0  0  0  0  0  0  0  0
  -25.2100  -13.8750   20.4190 C   0  0  0  0  0  0  0  0  0  0  0  0
  -24.1490  -13.1030   20.8080 C   0  0  0  0  0  0  0  0  0  0  0  0
  -24.6110  -11.7520   20.7730 C   0  0  0  0  0  0  0  0  0  0  0  0
  -26.2550  -12.9950   20.1810 N   0  0  0  0  0  0  0  0  0  0  0  0
  -25.8970  -11.7130   20.4470 N   0  0  0  0  0  0  0  0  0  0  0  0
  -23.8900  -10.4900   20.9770 C   0  0  0  0  0  0  0  0  0  0  0  0
  -24.3310   -9.5310   21.9160 C   0  0  0  0  0  3  0  0  0  0  0  0
  -23.6100   -8.3330   22.1090 C   0  0  0  0  0  3  0  0  0  0  0  0
  -22.4330   -8.0860   21.3640 C   0  0  0  0  0  0  0  0  0  0  0  0
  -22.0100   -9.0340   20.4170 C   0  0  0  0  0  3  0  0  0  0  0  0
  -22.7320  -10.2230   20.2220 C   0  0  0  0  0  3  0  0  0  0  0  0
  -21.6830   -6.9390   21.4660 O   0  0  0  0  0  0  0  0  0  0  0  0
  -21.6430   -6.2060   22.6240 C   0  0  0  0  0  0  0  0  0  0  0  0
  -21.2180   -6.7680   23.8480 C   0  0  0  0  0  3  0  0  0  0  0  0
  -21.1270   -5.9600   24.9990 C   0  0  0  0  0  3  0  0  0  0  0  0
  -21.4480   -4.5920   24.9280 C   0  0  0  0  0  0  0  0  0  0  0  0
  -21.8670   -4.0300   23.7090 C   0  0  0  0  0  3  0  0  0  0  0  0
  -21.9610   -4.8340   22.5600 C   0  0  0  0  0  0  0  0  0  0  0  0
  -22.3440   -4.2840   21.3830 F   0  0  0  0  0  0  0  0  0  0  0  0
  -21.3530   -3.8130   26.0300 F   0  0  0  0  0  0  0  0  0  0  0  0
  -22.7570  -13.5810   21.1030 C   0  0  0  0  0  0  0  0  0  0  0  0
  -22.0440  -12.8830   21.9820 N   0  0  0  0  0  0  0  0  0  0  0  0
  -22.3090  -14.6060   20.5920 O   0  0  0  0  0  0  0  0  0  0  0  0
  -22.4180  -12.0520   22.4150 H   0  0  0  0  0  0  0  0  0  0  0  0
  -21.1120  -13.1860   22.2240 H   0  0  0  0  0  0  0  0  0  0  0  0
  -25.3680  -15.2450   20.2320 N   0  0  0  0  0  0  0  0  0  0  0  0
  -24.5940  -15.8910   20.3360 H   0  0  0  0  0  0  0  0  0  0  0  0
  -26.2070  -15.6850   19.8790 H   0  0  0  0  0  0  0  0  0  0  0  0
  -30.7350  -26.5250   19.8090 C   0  0  0  0  0  2  0  0  0  0  0  0
  -29.6370  -27.3480   20.4940 C   0  0  0  0  0  2  0  0  0  0  0  0
  -28.3950  -26.7660   20.0920 O   0  0  0  0  0  0  0  0  0  0  0  0
  -24.5690  -31.9010   23.2420 C   0  0  0  0  0  0  0  0  0  0  0  0
  -27.2460  -27.5100   20.1800 C   0  0  0  0  0  0  0  0  0  0  0  0
  -23.3600  -30.4850   21.6050 C   0  0  0  0  0  3  0  0  0  0  0  0
  -24.8210  -28.9450   20.1920 C   0  0  0  0  0  0  0  0  0  0  0  0
  -25.8740  -30.8720   21.4000 C   0  0  0  0  0  2  0  0  0  0  0  0
  -25.9650  -29.4970   20.7770 C   0  0  0  0  0  0  0  0  0  0  0  0
  -27.1760  -28.7840   20.7870 C   0  0  0  0  0  3  0  0  0  0  0  0
  -26.0850  -26.9550   19.6050 C   0  0  0  0  0  3  0  0  0  0  0  0
  -24.8680  -27.6660   19.6070 C   0  0  0  0  0  3  0  0  0  0  0  0
  -23.5670  -29.7890   20.2320 C   0  0  0  0  0  2  0  0  0  0  0  0
  -24.6170  -31.1000   22.1420 N   0  0  0  0  0  0  0  0  0  0  0  0
  -23.4900  -32.1740   23.7850 O   0  0  0  0  0  0  0  0  0  0  0  0
  -22.7170  -29.4680   22.5730 C   0  0  0  0  0  0  0  0  0  0  0  0
  -21.3940  -29.2850   22.4460 N   0  0  0  0  0  0  0  0  0  0  0  0
  -23.4030  -28.8480   23.3890 O   0  0  0  0  0  0  0  0  0  0  0  0
  -20.9060  -29.8350   21.7530 H   0  0  0  0  0  0  0  0  0  0  0  0
  -18.0150  -28.1210   22.9560 C   0  0  0  0  0  0  0  0  0  0  0  0
  -20.5770  -28.3520   23.2180 C   0  0  0  0  0  3  0  0  0  0  0  0
  -20.6640  -26.9230   22.6350 C   0  0  0  0  0  2  0  0  0  0  0  0
  -19.5530  -26.6140   21.6260 C   0  0  0  0  0  2  0  0  0  0  0  0
  -18.1750  -26.7710   22.2760 C   0  0  0  0  0  2  0  0  0  0  0  0
  -19.1440  -28.8700   23.3830 C   0  0  0  0  0  0  0  0  0  0  0  0
  -18.9400  -30.1360   23.9740 C   0  0  0  0  0  3  0  0  0  0  0  0
  -17.6420  -30.6500   24.1480 C   0  0  0  0  0  3  0  0  0  0  0  0
  -16.5280  -29.8930   23.7410 C   0  0  0  0  0  3  0  0  0  0  0  0
  -16.7140  -28.6320   23.1510 C   0  0  0  0  0  3  0  0  0  0  0  0
  -25.8570  -32.5320   23.8580 C   0  0  0  0  0  3  0  0  0  0  0  0
  -26.3810  -31.7600   25.1310 C   0  0  1  0  0  0  0  0  0  0  0  0
  -25.2900  -31.5080   26.1970 C   0  0  0  0  0  1  0  0  0  0  0  0
  -26.9770  -30.3890   24.7310 C   0  0  0  0  0  1  0  0  0  0  0  0
  -27.5260  -32.5610   25.7950 C   0  0  0  0  0  1  0  0  0  0  0  0
  -25.5540  -33.9310   24.1840 N   0  0  0  0  0  0  0  0  0  0  0  0
  -25.9000  -34.9790   23.4240 C   0  0  0  0  0  0  0  0  0  0  0  0
  -26.5790  -34.8680   22.4010 O   0  0  0  0  0  0  0  0  0  0  0  0
  -24.9520  -34.0920   24.9790 H   0  0  0  0  0  0  0  0  0  0  0  0
  -24.1880  -36.7790   23.0310 C   0  0  0  0  0  1  0  0  0  0  0  0
  -25.4100  -36.3700   23.8700 C   0  0  0  0  0  3  0  0  0  0  0  0
  -27.5290  -37.2400   24.7490 C   0  0  0  0  0  1  0  0  0  0  0  0
  -26.4510  -37.4170   23.7800 N   0  0  0  0  0  0  0  0  0  0  0  0
  -26.0480  -38.3390   23.9230 H   0  0  0  0  0  0  0  0  0  0  0  0
  2  4  1  0
  2  5  1  0
  3  1  1  0
  4  6  1  0
  5  8  1  0
  5  1  1  0
  6 55  1  0
  6  7  1  1
  6  3  1  0
  9 11  1  0
  9 16  2  0
 10 14  1  0
 10  9  1  0
 12 14  1  0
 12 13  1  0
 14  8  1  0
 15 13  1  0
 15 25  1  0
 15 11  1  0
 17 25  1  0
 18 23  1  0
 19 20  1  0
 19 18  1  0
 21 20  1  0
 21 30  1  0
 21 22  1  0
 23 17  1  0
 23 22  1  0
 24 17  2  0
 25 26  1  0
 27 28  2  0
 28 47  1  0
 29 28  1  0
 29 32  1  0
 30 27  1  0
 30 31  1  0
 31 29  2  0
 32 33  1  0
 33 34  2  0
 35 38  1  0
 35 34  1  0
 36 35  2  0
 37 36  1  0
 37 32  2  0
 38 39  1  0
 39 40  1  0
 40 41  2  0
 42 41  1  0
 42 46  1  0
 43 42  2  0
 44 39  2  0
 44 43  1  0
 45 44  1  0
 47 48  1  0
 48 51  1  0
 48 50  1  0
 49 47  2  0
 52 53  1  0
 52 27  1  0
 54 52  1  0
 55 56  1  0
 57 59  1  0
 57 56  1  0
 58 69  2  0
 59 64  1  0
 60 68  1  0
 60 70  1  0
 61 67  1  0
 61 63  1  0
 62 68  1  0
 63 64  2  0
 63 62  1  0
 65 66  1  0
 65 59  2  0
 66 61  2  0
 67 60  1  0
 68 58  1  0
 70 72  2  0
 71 70  1  0
 73 71  1  0
 74 83  2  0
 74 79  1  0
 75 71  1  0
 75 79  1  0
 76 75  1  0
 77 78  1  0
 77 76  1  0
 78 74  1  0
 79 80  2  0
 80 81  1  0
 82 81  2  0
 83 82  1  0
 84 58  1  0
 84 89  1  0
 84 85  1  0
 85 88  1  1
 85 86  1  0
 87 85  1  0
 89 92  1  0
 90 94  1  0
 90 89  1  0
 91 90  2  0
 94 93  1  0
 96 94  1  0
 96 97  1  0
 96 95  1  0
M  ISO  4  17 100  25 100  56 101  57 101
M  END
>  <TORSDO>  (30) 
F 20

>  <SCORE>  (30) 
-14.251

>  <name>  (30) 
29

>  <ligand_id>  (30) 
29

>  <original_smiles>  (30) 
[H]c1c([H])c([H])c2c(c1[H])C([H])([H])C([H])([H])C([H])([H])C2([H])N([H])C(=O)C1([H])N(C(=O)C([H])(N([H])C(=O)C([H])(N([H])C([H])([H])[H])C([H])([H])[H])C(C([H])([H])[H])(C([H])([H])[H])C([H])([H])[H])C([H])([H])c2c([H])c(OC([H])([H])C([H])([H])[N+]3([H])C([H])([H])C([H])([H])C([H])(C([H])([H])C4([H])C([H])([H])C(=O)C([H])([H])C([H])(N([H])C(=O)N5C([H])([H])C([H])([H])C([H])([H])C([H])(n6nc(-c7c([H])c([H])c(Oc8c([H])c([H])c(F)c([H])c8F)c([H])c7[H])c(C(=O)N([H])[H])c6N([H])[H])C5([H])[H])C([H])([H])C4([H])[H])C([H])([H])C3([H])[H])c([H])c([H])c2C1([H])[H]

>  <smiles>  (30) 
[H]c1c([H])c([H])c2c(c1[H])C([H])([H])C([H])([H])C([H])([H])C2([H])N([H])C(=O)C1([H])N(C(=O)C([H])(N([H])C(=O)C([H])(N([H])C([H])([H])[H])C([H])([H])[H])C(C([H])([H])[H])(C([H])([H])[H])C([H])([H])[H])C([H])([H])c2c([H])c(OC([H])([H])C([H])([H])[N+]3([H])C([H])([H])C([H])([H])C([H])(C([H])([H])C4([H])C([H])([H])C(=O)C([H])([H])C([H])(N([H])C(=O)N5C([H])([H])C([H])([H])C([H])([H])C([H])(n6nc(-c7c([H])c([H])c(Oc8c([H])c([H])c(F)c([H])c8F)c([H])c7[H])c(C(=O)N([H])[H])c6N([H])[H])C5([H])[H])C([H])([H])C4([H])[H])C([H])([H])C3([H])[H])c([H])c([H])c2C1([H])[H]

$$$$
30:0:0
     RDKit          3D

 97106  0  0  1  0  0  0  0  0999 V2000
  -29.8420  -21.0760   21.2510 C   0  0  0  0  0  0  0  0  0  0  0  0
  -29.4250  -20.8600   19.9720 N   0  0  0  0  0  0  0  0  0  0  0  0
  -30.3230  -22.1530   21.6170 O   0  0  0  0  0  0  0  0  0  0  0  0
  -29.4420  -18.3910   17.2380 C   0  0  0  0  0  2  0  0  0  0  0  0
  -30.7310  -18.1740   18.0200 C   0  0  0  0  0  2  0  0  0  0  0  0
  -28.5370  -19.2690   18.1120 C   0  0  0  0  0  2  0  0  0  0  0  0
  -30.3000  -18.0960   19.4900 C   0  0  0  0  0  3  0  0  0  0  0  0
  -29.1550  -19.3440   19.5340 C   0  0  0  0  0  3  0  0  0  0  0  0
  -30.7570  -15.3990   19.7270 C   0  0  0  0  0  0  0  0  0  0  0  0
  -30.6340  -13.0220   18.8780 C   0  0  0  0  0  2  0  0  0  0  0  0
  -29.6680  -12.9370   17.6750 C   0  0  0  0  0  2  0  0  0  0  0  0
  -28.2230  -12.7130   18.1570 C   0  0  0  0  0  2  0  0  0  0  0  0
  -27.8340  -13.6600   19.3240 C   0  0  0  0  0  3  0  0  0  0  0  0
  -28.9250  -13.7360   20.4130 C   0  0  0  0  0  2  0  0  0  0  0  0
  -30.1700  -14.1380   19.7490 N   0  0  0  0  0  0  0  0  0  0  0  0
  -31.9520  -15.4590   19.4250 O   0  0  0  0  0  0  0  0  0  0  0  0
  -29.9750  -16.5830   19.8130 N   0  0  0  0  0  0  0  0  0  0  0  0
  -29.0070  -16.4080   20.0370 H   0  0  0  0  0  0  0  0  0  0  0  0
  -25.4520  -14.1870   20.0950 C   0  0  0  0  0  0  0  0  0  0  0  0
  -24.4310  -13.3950   20.5410 C   0  0  0  0  0  0  0  0  0  0  0  0
  -24.9500  -12.0630   20.5780 C   0  0  0  0  0  0  0  0  0  0  0  0
  -26.5240  -13.3390   19.8770 N   0  0  0  0  0  0  0  0  0  0  0  0
  -26.2330  -12.0610   20.2340 N   0  0  0  0  0  0  0  0  0  0  0  0
  -24.2800  -10.7880   20.8610 C   0  0  0  0  0  0  0  0  0  0  0  0
  -24.6470   -9.9880   21.9670 C   0  0  0  0  0  3  0  0  0  0  0  0
  -23.9710   -8.7760   22.2280 C   0  0  0  0  0  3  0  0  0  0  0  0
  -22.9150   -8.3550   21.3860 C   0  0  0  0  0  0  0  0  0  0  0  0
  -22.5710   -9.1430   20.2730 C   0  0  0  0  0  3  0  0  0  0  0  0
  -23.2480  -10.3450   20.0110 C   0  0  0  0  0  3  0  0  0  0  0  0
  -22.2200   -7.1800   21.5480 O   0  0  0  0  0  0  0  0  0  0  0  0
  -21.9330   -6.6800   22.7940 C   0  0  0  0  0  0  0  0  0  0  0  0
  -21.1560   -7.4010   23.7260 C   0  0  0  0  0  3  0  0  0  0  0  0
  -20.8270   -6.8200   24.9670 C   0  0  0  0  0  3  0  0  0  0  0  0
  -21.2660   -5.5190   25.2750 C   0  0  0  0  0  0  0  0  0  0  0  0
  -22.0360   -4.7970   24.3460 C   0  0  0  0  0  3  0  0  0  0  0  0
  -22.3670   -5.3760   23.1080 C   0  0  0  0  0  0  0  0  0  0  0  0
  -23.0910   -4.6670   22.2080 F   0  0  0  0  0  0  0  0  0  0  0  0
  -20.9440   -4.9580   26.4640 F   0  0  0  0  0  0  0  0  0  0  0  0
  -23.0230  -13.8320   20.8190 C   0  0  0  0  0  0  0  0  0  0  0  0
  -22.3510  -13.1780   21.7610 N   0  0  0  0  0  0  0  0  0  0  0  0
  -22.5260  -14.7930   20.2340 O   0  0  0  0  0  0  0  0  0  0  0  0
  -22.7650  -12.4020   22.2570 H   0  0  0  0  0  0  0  0  0  0  0  0
  -21.4070  -13.4570   21.9880 H   0  0  0  0  0  0  0  0  0  0  0  0
  -25.5510  -15.5500   19.8280 N   0  0  0  0  0  0  0  0  0  0  0  0
  -24.7550  -16.1720   19.9100 H   0  0  0  0  0  0  0  0  0  0  0  0
  -26.3580  -15.9980   19.4130 H   0  0  0  0  0  0  0  0  0  0  0  0
  -29.6500  -20.0010   22.3390 C   0  0  0  0  0  2  0  0  0  0  0  0
  -30.5100  -20.2580   23.5110 N   0  0  0  0  0  4  0  0  0  0  0  0
  -31.4710  -20.2250   23.2130 H   0  0  0  0  0  0  0  0  0  0  0  0
  -30.3440  -21.2090   23.7990 H   0  0  0  0  0  0  0  0  0  0  0  0
  -30.3910  -17.8650   24.3060 C   0  0  0  0  0  2  0  0  0  0  0  0
  -31.4930  -18.5500   25.0830 C   0  0  0  0  0  2  0  0  0  0  0  0
  -30.2740  -19.3370   24.6480 C   0  0  0  0  0  3  0  0  0  0  0  0
  -28.9740  -22.1610   19.1550 C   0  0  0  0  0  2  0  0  0  0  0  0
  -29.0740  -23.7970   19.6130 C   0  0  0  0  0  3  0  0  0  0  0  0
  -28.2080  -25.0750   18.9360 C   0  0  0  0  0  3  0  0  0  0  0  0
  -28.3390  -26.5990   19.2290 O   0  0  0  0  0  0  0  0  0  0  0  0
  -24.4920  -31.7240   22.8260 C   0  0  0  0  0  0  0  0  0  0  0  0
  -27.2180  -27.5070   19.2590 C   0  0  0  0  0  0  0  0  0  0  0  0
  -23.3100  -30.4240   21.0980 C   0  0  0  0  0  3  0  0  0  0  0  0
  -24.7890  -29.0940   19.4710 C   0  0  0  0  0  0  0  0  0  0  0  0
  -25.8340  -30.8650   20.8750 C   0  0  0  0  0  2  0  0  0  0  0  0
  -25.9610  -29.5520   20.0850 C   0  0  0  0  0  0  0  0  0  0  0  0
  -27.1730  -28.7740   19.9680 C   0  0  0  0  0  3  0  0  0  0  0  0
  -26.0160  -27.1580   18.6040 C   0  0  0  0  0  3  0  0  0  0  0  0
  -24.8280  -27.9130   18.7130 C   0  0  0  0  0  3  0  0  0  0  0  0
  -23.5110  -29.8980   19.6520 C   0  0  0  0  0  2  0  0  0  0  0  0
  -24.5660  -31.0210   21.6560 N   0  0  0  0  0  0  0  0  0  0  0  0
  -23.4150  -31.8870   23.4170 O   0  0  0  0  0  0  0  0  0  0  0  0
  -22.7310  -29.2870   21.9780 C   0  0  0  0  0  0  0  0  0  0  0  0
  -21.4090  -29.0560   21.8900 N   0  0  0  0  0  0  0  0  0  0  0  0
  -23.4730  -28.6180   22.7040 O   0  0  0  0  0  0  0  0  0  0  0  0
  -20.8640  -29.6480   21.2770 H   0  0  0  0  0  0  0  0  0  0  0  0
  -18.1150  -27.6540   22.4380 C   0  0  0  0  0  0  0  0  0  0  0  0
  -20.6730  -28.0050   22.5930 C   0  0  0  0  0  3  0  0  0  0  0  0
  -20.8000  -26.6510   21.8550 C   0  0  0  0  0  2  0  0  0  0  0  0
  -19.6530  -26.3920   20.8730 C   0  0  0  0  0  2  0  0  0  0  0  0
  -18.3060  -26.3990   21.6020 C   0  0  0  0  0  2  0  0  0  0  0  0
  -19.2260  -28.4160   22.8880 C   0  0  0  0  0  0  0  0  0  0  0  0
  -18.9910  -29.5930   23.6340 C   0  0  0  0  0  3  0  0  0  0  0  0
  -17.6790  -30.0080   23.9300 C   0  0  0  0  0  3  0  0  0  0  0  0
  -16.5840  -29.2410   23.4940 C   0  0  0  0  0  3  0  0  0  0  0  0
  -16.8030  -28.0660   22.7530 C   0  0  0  0  0  3  0  0  0  0  0  0
  -25.7570  -32.3730   23.4660 C   0  0  0  0  0  3  0  0  0  0  0  0
  -25.3720  -33.7020   23.9670 N   0  0  0  0  0  0  0  0  0  0  0  0
  -25.6540  -34.8610   23.3570 C   0  0  0  0  0  0  0  0  0  0  0  0
  -26.3310  -34.9250   22.3280 O   0  0  0  0  0  0  0  0  0  0  0  0
  -24.7660  -33.7200   24.7740 H   0  0  0  0  0  0  0  0  0  0  0  0
  -23.8680  -36.6270   23.1950 C   0  0  0  0  0  1  0  0  0  0  0  0
  -25.0970  -36.1530   23.9860 C   0  0  0  0  0  3  0  0  0  0  0  0
  -27.1590  -36.9960   25.0220 C   0  0  0  0  0  1  0  0  0  0  0  0
  -26.0910  -37.2480   24.0590 N   0  0  0  0  0  0  0  0  0  0  0  0
  -25.6420  -38.1250   24.3070 H   0  0  0  0  0  0  0  0  0  0  0  0
  -26.3750  -31.5060   24.6330 C   0  0  1  0  0  0  0  0  0  0  0  0
  -25.3440  -31.0790   25.7030 C   0  0  0  0  0  1  0  0  0  0  0  0
  -27.0330  -30.2220   24.0780 C   0  0  0  0  0  1  0  0  0  0  0  0
  -27.4970  -32.3030   25.3390 C   0  0  0  0  0  1  0  0  0  0  0  0
  1  3  2  0
  1 47  1  0
  2  1  1  0
  4  5  1  0
  4  6  1  0
  5  7  1  0
  6  8  1  0
  7  8  1  0
  7 17  1  0
  8  2  1  0
  9 15  1  0
  9 17  1  0
 10 15  1  0
 11 12  1  0
 11 10  1  0
 13 12  1  0
 13 22  1  0
 13 14  1  0
 15 14  1  0
 16  9  2  0
 17 18  1  0
 19 20  2  0
 20 21  1  0
 20 39  1  0
 21 24  1  0
 22 19  1  0
 22 23  1  0
 23 21  2  0
 24 25  1  0
 25 26  2  0
 27 30  1  0
 27 26  1  0
 28 27  2  0
 29 28  1  0
 29 24  2  0
 30 31  1  0
 31 36  2  0
 31 32  1  0
 32 33  2  0
 33 34  1  0
 34 38  1  0
 35 34  2  0
 36 35  1  0
 37 36  1  0
 39 40  1  0
 40 43  1  0
 40 42  1  0
 41 39  2  0
 44 45  1  0
 44 19  1  0
 46 44  1  0
 47 48  1  0
 48 50  1  0
 48 53  1  0
 49 48  1  0
 51 53  1  0
 51 52  1  0
 53 52  1  0
 54 55  1  0
 54  2  1  0
 56 57  1  0
 56 55  2  0
 57 59  1  0
 58 69  2  0
 59 64  1  0
 60 68  1  0
 60 70  1  0
 61 67  1  0
 61 63  1  0
 62 68  1  0
 63 62  1  0
 64 63  2  0
 65 66  1  0
 65 59  2  0
 66 61  2  0
 67 60  1  0
 68 58  1  0
 70 72  2  0
 71 70  1  0
 73 71  1  0
 74 83  2  0
 74 79  1  0
 75 71  1  0
 75 79  1  0
 76 75  1  0
 77 78  1  0
 77 76  1  0
 78 74  1  0
 79 80  2  0
 80 81  1  0
 82 81  2  0
 83 82  1  0
 84 58  1  0
 84 85  1  0
 84 94  1  0
 85 88  1  0
 86 85  1  0
 86 90  1  0
 87 86  2  0
 90 89  1  0
 90 92  1  0
 92 93  1  0
 92 91  1  0
 94 97  1  1
 94 95  1  0
 96 94  1  0
M  ISO  4   9 100  17 100  56 101  57 101
M  END
>  <TORSDO>  (31) 
F 23

>  <SCORE>  (31) 
-5.174

>  <name>  (31) 
30

>  <ligand_id>  (31) 
30

>  <original_smiles>  (31) 
[H]c1c([H])c([H])c2c(c1[H])C([H])([H])C([H])([H])C([H])([H])C2([H])N([H])C(=O)C1([H])N(C(=O)C([H])(N([H])C(=O)C([H])(N([H])C([H])([H])[H])C([H])([H])[H])C(C([H])([H])[H])(C([H])([H])[H])C([H])([H])[H])C([H])([H])c2c([H])c(OC([H])([H])C([H])([H])C([H])([H])N(C(=O)C([H])([H])[N+]([H])([H])C3([H])C([H])([H])C3([H])[H])C3([H])C([H])([H])C([H])([H])C([H])([H])C3([H])N([H])C(=O)N3C([H])([H])C([H])([H])C([H])([H])C([H])(n4nc(-c5c([H])c([H])c(Oc6c([H])c([H])c(F)c([H])c6F)c([H])c5[H])c(C(=O)N([H])[H])c4N([H])[H])C3([H])[H])c([H])c([H])c2C1([H])[H]

>  <smiles>  (31) 
[H]c1c([H])c([H])c2c(c1[H])C([H])([H])C([H])([H])C([H])([H])C2([H])N([H])C(=O)C1([H])N(C(=O)C([H])(N([H])C(=O)C([H])(N([H])C([H])([H])[H])C([H])([H])[H])C(C([H])([H])[H])(C([H])([H])[H])C([H])([H])[H])C([H])([H])c2c([H])c(OC([H])([H])C([H])([H])C([H])([H])N(C(=O)C([H])([H])[N+]([H])([H])C3([H])C([H])([H])C3([H])[H])C3([H])C([H])([H])C([H])([H])C([H])([H])C3([H])N([H])C(=O)N3C([H])([H])C([H])([H])C([H])([H])C([H])(n4nc(-c5c([H])c([H])c(Oc6c([H])c([H])c(F)c([H])c6F)c([H])c5[H])c(C(=O)N([H])[H])c4N([H])[H])C3([H])[H])c([H])c([H])c2C1([H])[H]

$$$$
31:0:0
     RDKit          3D

 93101  0  0  1  0  0  0  0  0999 V2000
  -28.1880  -21.7540   20.5630 N   0  0  0  0  0  4  0  0  0  0  0  0
  -28.4720  -21.0470   21.2230 H   0  0  0  0  0  0  0  0  0  0  0  0
  -27.2000  -21.6340   20.4090 H   0  0  0  0  0  0  0  0  0  0  0  0
  -28.9080  -21.5470   19.2870 C   0  0  0  0  0  2  0  0  0  0  0  0
  -28.9540  -20.0800   18.8020 C   0  0  0  0  0  2  0  0  0  0  0  0
  -30.2670  -16.7640   20.5500 C   0  0  0  0  0  3  0  0  0  0  0  0
  -29.3150  -17.9280   20.2820 C   0  0  0  0  0  0  0  0  0  0  0  0
  -31.7460  -17.2290   20.5930 C   0  0  0  0  0  2  0  0  0  0  0  0
  -31.9210  -18.6810   21.0870 C   0  0  0  0  0  2  0  0  0  0  0  0
  -31.1690  -19.7040   20.2120 C   0  0  0  0  0  2  0  0  0  0  0  0
  -29.9460  -19.0900   19.4840 C   0  0  0  0  0  3  0  0  0  0  0  0
  -29.8440  -15.5520   20.6900 N   0  0  0  0  0  2  0  0  0  0  0  0
  -28.1220  -17.9340   20.6030 O   0  0  0  0  0  0  0  0  0  0  0  0
  -30.6650  -14.4560   20.4130 C   0  0  0  0  0  0  0  0  0  0  0  0
  -30.3420  -12.2740   19.3400 C   0  0  0  0  0  2  0  0  0  0  0  0
  -29.4070  -12.5020   18.1330 C   0  0  0  0  0  2  0  0  0  0  0  0
  -27.9300  -12.3850   18.5610 C   0  0  0  0  0  2  0  0  0  0  0  0
  -27.6000  -13.2290   19.8220 C   0  0  0  0  0  3  0  0  0  0  0  0
  -28.6570  -13.0140   20.9260 C   0  0  0  0  0  2  0  0  0  0  0  0
  -29.9900  -13.2770   20.3570 N   0  0  0  0  0  0  0  0  0  0  0  0
  -31.8260  -14.5220   20.0090 O   0  0  0  0  0  0  0  0  0  0  0  0
  -25.2050  -13.8440   20.5420 C   0  0  0  0  0  0  0  0  0  0  0  0
  -24.1360  -13.0740   20.9180 C   0  0  0  0  0  0  0  0  0  0  0  0
  -24.5940  -11.7220   20.8900 C   0  0  0  0  0  0  0  0  0  0  0  0
  -26.2470  -12.9600   20.3100 N   0  0  0  0  0  0  0  0  0  0  0  0
  -25.8820  -11.6780   20.5750 N   0  0  0  0  0  0  0  0  0  0  0  0
  -23.8660  -10.4610   21.0890 C   0  0  0  0  0  0  0  0  0  0  0  0
  -24.3210   -9.4790   21.9960 C   0  0  0  0  0  3  0  0  0  0  0  0
  -23.5930   -8.2840   22.1820 C   0  0  0  0  0  3  0  0  0  0  0  0
  -22.3960   -8.0640   21.4600 C   0  0  0  0  0  0  0  0  0  0  0  0
  -21.9610   -9.0350   20.5410 C   0  0  0  0  0  3  0  0  0  0  0  0
  -22.6890  -10.2210   20.3530 C   0  0  0  0  0  3  0  0  0  0  0  0
  -21.6370   -6.9230   21.5580 O   0  0  0  0  0  0  0  0  0  0  0  0
  -21.6420   -6.1480   22.6890 C   0  0  0  0  0  0  0  0  0  0  0  0
  -21.3110   -6.6780   23.9570 C   0  0  0  0  0  3  0  0  0  0  0  0
  -21.2590   -5.8300   25.0810 C   0  0  0  0  0  3  0  0  0  0  0  0
  -21.5310   -4.4570   24.9420 C   0  0  0  0  0  0  0  0  0  0  0  0
  -21.8560   -3.9260   23.6810 C   0  0  0  0  0  3  0  0  0  0  0  0
  -21.9090   -4.7690   22.5570 C   0  0  0  0  0  0  0  0  0  0  0  0
  -22.2010   -4.2500   21.3400 F   0  0  0  0  0  0  0  0  0  0  0  0
  -21.4760   -3.6410   26.0210 F   0  0  0  0  0  0  0  0  0  0  0  0
  -22.7400  -13.5560   21.1960 C   0  0  0  0  0  0  0  0  0  0  0  0
  -22.0180  -12.8670   22.0710 N   0  0  0  0  0  0  0  0  0  0  0  0
  -22.3010  -14.5790   20.6720 O   0  0  0  0  0  0  0  0  0  0  0  0
  -22.3890  -12.0410   22.5180 H   0  0  0  0  0  0  0  0  0  0  0  0
  -21.0810  -13.1710   22.2980 H   0  0  0  0  0  0  0  0  0  0  0  0
  -25.3740  -15.2140   20.3660 N   0  0  0  0  0  0  0  0  0  0  0  0
  -24.6200  -15.8790   20.5020 H   0  0  0  0  0  0  0  0  0  0  0  0
  -26.2540  -15.6570   20.1270 H   0  0  0  0  0  0  0  0  0  0  0  0
  -28.4320  -23.0670   21.2140 C   0  0  0  0  0  2  0  0  0  0  0  0
  -28.1510  -24.2920   20.3110 C   0  0  0  0  0  2  0  0  0  0  0  0
  -28.3780  -25.6330   21.0320 C   0  0  0  0  0  2  0  0  0  0  0  0
  -28.3720  -26.7370   20.1230 O   0  0  0  0  0  0  0  0  0  0  0  0
  -24.6120  -31.8970   23.2370 C   0  0  0  0  0  0  0  0  0  0  0  0
  -27.2120  -27.4660   20.1350 C   0  0  0  0  0  0  0  0  0  0  0  0
  -23.3870  -30.4940   21.6090 C   0  0  0  0  0  3  0  0  0  0  0  0
  -24.8220  -28.9530   20.1730 C   0  0  0  0  0  0  0  0  0  0  0  0
  -25.9070  -30.8570   21.3790 C   0  0  0  0  0  2  0  0  0  0  0  0
  -25.9850  -29.4850   20.7450 C   0  0  0  0  0  0  0  0  0  0  0  0
  -27.1870  -28.7480   20.7230 C   0  0  0  0  0  3  0  0  0  0  0  0
  -26.0390  -26.9420   19.5570 C   0  0  0  0  0  3  0  0  0  0  0  0
  -24.8420  -27.6800   19.5780 C   0  0  0  0  0  3  0  0  0  0  0  0
  -23.5810  -29.8120   20.2290 C   0  0  0  0  0  2  0  0  0  0  0  0
  -24.6540  -31.0960   22.1350 N   0  0  0  0  0  0  0  0  0  0  0  0
  -23.5360  -32.1710   23.7870 O   0  0  0  0  0  0  0  0  0  0  0  0
  -22.7430  -29.4730   22.5760 C   0  0  0  0  0  0  0  0  0  0  0  0
  -21.4180  -29.2930   22.4590 N   0  0  0  0  0  0  0  0  0  0  0  0
  -23.4320  -28.8490   23.3860 O   0  0  0  0  0  0  0  0  0  0  0  0
  -20.9250  -29.8510   21.7760 H   0  0  0  0  0  0  0  0  0  0  0  0
  -18.0460  -28.0980   22.9690 C   0  0  0  0  0  0  0  0  0  0  0  0
  -20.6040  -28.3570   23.2340 C   0  0  0  0  0  3  0  0  0  0  0  0
  -20.7060  -26.9230   22.6640 C   0  0  0  0  0  2  0  0  0  0  0  0
  -19.6010  -26.5960   21.6540 C   0  0  0  0  0  2  0  0  0  0  0  0
  -18.2200  -26.7440   22.3020 C   0  0  0  0  0  2  0  0  0  0  0  0
  -19.1660  -28.8630   23.3920 C   0  0  0  0  0  0  0  0  0  0  0  0
  -18.9480  -30.1290   23.9760 C   0  0  0  0  0  3  0  0  0  0  0  0
  -17.6440  -30.6330   24.1410 C   0  0  0  0  0  3  0  0  0  0  0  0
  -16.5390  -29.8640   23.7340 C   0  0  0  0  0  3  0  0  0  0  0  0
  -16.7400  -28.6000   23.1540 C   0  0  0  0  0  3  0  0  0  0  0  0
  -25.9050  -32.5240   23.8470 C   0  0  0  0  0  3  0  0  0  0  0  0
  -25.6000  -33.9190   24.1900 N   0  0  0  0  0  0  0  0  0  0  0  0
  -25.9230  -34.9750   23.4300 C   0  0  0  0  0  0  0  0  0  0  0  0
  -26.5770  -34.8780   22.3880 O   0  0  0  0  0  0  0  0  0  0  0  0
  -25.0180  -34.0720   25.0000 H   0  0  0  0  0  0  0  0  0  0  0  0
  -24.1810  -36.7610   23.1100 C   0  0  0  0  0  1  0  0  0  0  0  0
  -25.4380  -36.3610   23.8990 C   0  0  0  0  0  3  0  0  0  0  0  0
  -27.5880  -37.2410   24.6910 C   0  0  0  0  0  1  0  0  0  0  0  0
  -26.4660  -37.4170   23.7730 N   0  0  0  0  0  0  0  0  0  0  0  0
  -26.0620  -38.3350   23.9390 H   0  0  0  0  0  0  0  0  0  0  0  0
  -26.4430  -31.7440   25.1070 C   0  0  1  0  0  0  0  0  0  0  0  0
  -25.3660  -31.4950   26.1910 C   0  0  0  0  0  1  0  0  0  0  0  0
  -27.0180  -30.3710   24.6910 C   0  0  0  0  0  1  0  0  0  0  0  0
  -27.6070  -32.5310   25.7540 C   0  0  0  0  0  1  0  0  0  0  0  0
  1 50  1  0
  1  2  1  0
  3  1  1  0
  4  1  1  0
  5  4  1  0
  6  8  1  0
  6 12  1  0
  7  6  1  0
  7 13  2  0
  8  9  1  0
 10  9  1  0
 11  5  1  0
 11 10  1  0
 11  7  1  0
 14 12  1  0
 15 20  1  0
 16 17  1  0
 16 15  1  0
 18 17  1  0
 18 25  1  0
 18 19  1  0
 20 14  1  0
 20 19  1  0
 21 14  2  0
 22 23  2  0
 23 42  1  0
 24 23  1  0
 24 27  1  0
 25 22  1  0
 25 26  1  0
 26 24  2  0
 27 28  1  0
 28 29  2  0
 30 33  1  0
 30 29  1  0
 31 30  2  0
 32 31  1  0
 32 27  2  0
 33 34  1  0
 34 35  1  0
 35 36  2  0
 37 36  1  0
 37 41  1  0
 38 37  2  0
 39 34  2  0
 39 38  1  0
 40 39  1  0
 42 43  1  0
 43 46  1  0
 43 45  1  0
 44 42  2  0
 47 48  1  0
 47 22  1  0
 49 47  1  0
 51 52  1  0
 51 50  1  0
 53 55  1  0
 53 52  1  0
 54 65  2  0
 55 60  1  0
 56 64  1  0
 56 66  1  0
 57 63  1  0
 57 59  1  0
 58 64  1  0
 59 58  1  0
 60 59  2  0
 61 62  1  0
 61 55  2  0
 62 57  2  0
 63 56  1  0
 64 54  1  0
 66 68  2  0
 67 66  1  0
 69 67  1  0
 70 79  2  0
 70 75  1  0
 71 67  1  0
 71 75  1  0
 72 71  1  0
 73 74  1  0
 73 72  1  0
 74 70  1  0
 75 76  2  0
 76 77  1  0
 78 77  2  0
 79 78  1  0
 80 54  1  0
 80 81  1  0
 80 90  1  0
 81 84  1  0
 82 86  1  0
 82 81  1  0
 83 82  2  0
 86 85  1  0
 88 86  1  0
 88 89  1  0
 88 87  1  0
 90 93  1  1
 90 91  1  0
 92 90  1  0
M  ISO  4  12 100  14 100  52 101  53 101
M  END
>  <TORSDO>  (32) 
F 22

>  <SCORE>  (32) 
-13.417

>  <name>  (32) 
31

>  <ligand_id>  (32) 
31

>  <original_smiles>  (32) 
[H]c1c([H])c([H])c2c(c1[H])C([H])([H])C([H])([H])C([H])([H])C2([H])N([H])C(=O)C1([H])N(C(=O)C([H])(N([H])C(=O)C([H])(N([H])C([H])([H])[H])C([H])([H])[H])C(C([H])([H])[H])(C([H])([H])[H])C([H])([H])[H])C([H])([H])c2c([H])c(OC([H])([H])C([H])([H])C([H])([H])[N+]([H])([H])C([H])([H])C([H])([H])C3([H])C(=O)C(=NC(=O)N4C([H])([H])C([H])([H])C([H])([H])C([H])(n5nc(-c6c([H])c([H])c(Oc7c([H])c([H])c(F)c([H])c7F)c([H])c6[H])c(C(=O)N([H])[H])c5N([H])[H])C4([H])[H])C([H])([H])C([H])([H])C3([H])[H])c([H])c([H])c2C1([H])[H]

>  <smiles>  (32) 
[H]c1c([H])c([H])c2c(c1[H])C([H])([H])C([H])([H])C([H])([H])C2([H])N([H])C(=O)C1([H])N(C(=O)C([H])(N([H])C(=O)C([H])(N([H])C([H])([H])[H])C([H])([H])[H])C(C([H])([H])[H])(C([H])([H])[H])C([H])([H])[H])C([H])([H])c2c([H])c(OC([H])([H])C([H])([H])C([H])([H])[N+]([H])([H])C([H])([H])C([H])([H])C3([H])C(=O)C(=NC(=O)N4C([H])([H])C([H])([H])C([H])([H])C([H])(n5nc(-c6c([H])c([H])c(Oc7c([H])c([H])c(F)c([H])c7F)c([H])c6[H])c(C(=O)N([H])[H])c5N([H])[H])C4([H])[H])C([H])([H])C([H])([H])C3([H])[H])c([H])c([H])c2C1([H])[H]

$$$$
32:0:0
     RDKit          3D

105114  0  0  1  0  0  0  0  0999 V2000
  -31.7880  -18.3840   23.0040 C   0  0  0  0  0  2  0  0  0  0  0  0
  -32.3540  -17.5560   20.6960 C   0  0  0  0  0  2  0  0  0  0  0  0
  -30.3800  -18.8820   22.6060 C   0  0  0  0  0  3  0  0  0  0  0  0
  -29.8610  -18.2480   21.2770 C   0  0  0  0  0  3  0  0  0  0  0  0
  -30.8340  -17.2340   20.6000 C   0  0  0  0  0  3  0  0  0  0  0  0
  -32.7480  -18.5370   21.8150 C   0  0  0  0  0  3  0  0  0  0  0  0
  -31.2550  -14.7840   20.7110 C   0  0  0  0  0  0  0  0  0  0  0  0
  -31.2080  -12.3840   20.1990 C   0  0  0  0  0  2  0  0  0  0  0  0
  -30.3670  -12.1440   18.9300 C   0  0  0  0  0  2  0  0  0  0  0  0
  -28.8860  -11.9490   19.3030 C   0  0  0  0  0  2  0  0  0  0  0  0
  -28.3520  -13.0600   20.2490 C   0  0  0  0  0  3  0  0  0  0  0  0
  -29.3240  -13.3070   21.4280 C   0  0  0  0  0  2  0  0  0  0  0  0
  -30.6670  -13.5700   20.8790 N   0  0  0  0  0  0  0  0  0  0  0  0
  -32.3560  -14.9290   20.1760 O   0  0  0  0  0  0  0  0  0  0  0  0
  -30.5330  -15.8590   21.0550 N   0  0  0  0  0  0  0  0  0  0  0  0
  -29.6400  -15.6930   21.4930 H   0  0  0  0  0  0  0  0  0  0  0  0
  -26.0260  -13.6030   21.2140 C   0  0  0  0  0  0  0  0  0  0  0  0
  -24.9180  -12.8240   21.4250 C   0  0  0  0  0  0  0  0  0  0  0  0
  -25.2800  -11.5030   21.0240 C   0  0  0  0  0  0  0  0  0  0  0  0
  -26.9980  -12.7500   20.7130 N   0  0  0  0  0  0  0  0  0  0  0  0
  -26.5540  -11.4680   20.6510 N   0  0  0  0  0  0  0  0  0  0  0  0
  -24.4710  -10.2800   20.9200 C   0  0  0  0  0  0  0  0  0  0  0  0
  -24.9350   -9.0430   21.4150 C   0  0  0  0  0  3  0  0  0  0  0  0
  -24.1320   -7.8860   21.3200 C   0  0  0  0  0  3  0  0  0  0  0  0
  -22.8480   -7.9600   20.7300 C   0  0  0  0  0  0  0  0  0  0  0  0
  -22.4000   -9.1900   20.2170 C   0  0  0  0  0  3  0  0  0  0  0  0
  -23.2030  -10.3390   20.3070 C   0  0  0  0  0  3  0  0  0  0  0  0
  -22.0100   -6.8830   20.5710 O   0  0  0  0  0  0  0  0  0  0  0  0
  -22.1640   -5.7340   21.3060 C   0  0  0  0  0  0  0  0  0  0  0  0
  -22.0430   -5.7280   22.7130 C   0  0  0  0  0  3  0  0  0  0  0  0
  -22.1400   -4.5150   23.4240 C   0  0  0  0  0  3  0  0  0  0  0  0
  -22.3500   -3.3070   22.7300 C   0  0  0  0  0  0  0  0  0  0  0  0
  -22.4650   -3.3110   21.3300 C   0  0  0  0  0  3  0  0  0  0  0  0
  -22.3690   -4.5210   20.6200 C   0  0  0  0  0  0  0  0  0  0  0  0
  -22.4610   -4.5170   19.2690 F   0  0  0  0  0  0  0  0  0  0  0  0
  -22.4350   -2.1390   23.4100 F   0  0  0  0  0  0  0  0  0  0  0  0
  -23.5690  -13.2990   21.8840 C   0  0  0  0  0  0  0  0  0  0  0  0
  -22.8360  -12.4590   22.6070 N   0  0  0  0  0  0  0  0  0  0  0  0
  -23.1740  -14.4390   21.6420 O   0  0  0  0  0  0  0  0  0  0  0  0
  -23.1670  -11.5320   22.8260 H   0  0  0  0  0  0  0  0  0  0  0  0
  -21.9290  -12.7500   22.9470 H   0  0  0  0  0  0  0  0  0  0  0  0
  -26.2800  -14.9590   21.3830 N   0  0  0  0  0  0  0  0  0  0  0  0
  -25.5590  -15.6060   21.6830 H   0  0  0  0  0  0  0  0  0  0  0  0
  -27.1440  -15.4200   21.1240 H   0  0  0  0  0  0  0  0  0  0  0  0
  -34.1630  -18.3710   22.2050 N   0  0  0  0  0  4  0  0  0  0  0  0
  -34.3190  -17.4800   22.6410 H   0  0  0  0  0  0  0  0  0  0  0  0
  -34.4410  -19.0890   22.8490 H   0  0  0  0  0  0  0  0  0  0  0  0
  -34.7630  -18.4400   21.4020 H   0  0  0  0  0  0  0  0  0  0  0  0
  -29.3330  -18.7330   23.7360 C   0  0  0  0  0  2  0  0  0  0  0  0
  -29.5210  -19.7160   24.8930 C   0  0  0  0  0  0  0  0  0  0  0  0
  -29.6150  -19.2070   26.1150 N   0  0  0  0  0  0  0  0  0  0  0  0
  -29.5900  -20.9270   24.6890 O   0  0  0  0  0  0  0  0  0  0  0  0
  -29.5660  -18.2080   26.2560 H   0  0  0  0  0  0  0  0  0  0  0  0
  -29.7450  -19.8080   26.9180 H   0  0  0  0  0  0  0  0  0  0  0  0
  -29.1600  -19.2250   20.2790 C   0  0  0  0  0  2  0  0  0  0  0  0
  -29.1720  -21.7710   20.4110 C   0  0  0  0  0  2  0  0  0  0  0  0
  -29.8880  -20.6520   18.2810 C   0  0  0  0  0  2  0  0  0  0  0  0
  -29.7630  -23.0800   19.8780 C   0  0  0  0  0  2  0  0  0  0  0  0
  -30.4010  -22.0210   17.7760 C   0  0  0  0  0  2  0  0  0  0  0  0
  -29.8790  -20.5240   19.8250 C   0  0  0  0  0  3  0  0  0  0  0  0
  -29.6300  -23.1230   18.4010 N   0  0  2  0  0  4  0  0  0  0  0  0
  -28.6650  -22.9160   18.1930 H   0  0  0  0  0  0  0  0  0  0  0  0
  -29.8720  -24.4740   17.8310 C   0  0  0  0  0  2  0  0  0  0  0  0
  -28.5690  -25.2930   17.8520 C   0  0  0  0  0  2  0  0  0  0  0  0
  -28.7990  -26.6430   18.2350 O   0  0  0  0  0  0  0  0  0  0  0  0
  -26.1950  -29.4680   24.1950 C   0  0  0  0  0  0  0  0  0  0  0  0
  -27.7420  -27.3190   18.8050 C   0  0  0  0  0  0  0  0  0  0  0  0
  -24.6230  -29.3760   22.2870 C   0  0  0  0  0  3  0  0  0  0  0  0
  -25.6510  -28.7690   20.0400 C   0  0  0  0  0  0  0  0  0  0  0  0
  -27.1450  -29.5220   21.8960 C   0  0  0  0  0  2  0  0  0  0  0  0
  -26.9290  -28.7560   20.6100 C   0  0  0  0  0  0  0  0  0  0  0  0
  -27.9760  -28.0410   19.9940 C   0  0  0  0  0  3  0  0  0  0  0  0
  -26.4360  -27.3260   18.2510 C   0  0  0  0  0  3  0  0  0  0  0  0
  -25.3960  -28.0470   18.8630 C   0  0  0  0  0  3  0  0  0  0  0  0
  -24.5930  -29.5800   20.7500 C   0  0  0  0  0  2  0  0  0  0  0  0
  -26.0120  -29.4330   22.8450 N   0  0  0  0  0  0  0  0  0  0  0  0
  -25.2300  -29.5010   24.9700 O   0  0  0  0  0  0  0  0  0  0  0  0
  -23.8790  -28.0650   22.6270 C   0  0  0  0  0  0  0  0  0  0  0  0
  -22.6010  -27.9800   22.2230 N   0  0  0  0  0  0  0  0  0  0  0  0
  -24.4530  -27.1450   23.2150 O   0  0  0  0  0  0  0  0  0  0  0  0
  -22.2010  -28.7780   21.7490 H   0  0  0  0  0  0  0  0  0  0  0  0
  -19.3640  -26.6440   21.3470 C   0  0  0  0  0  0  0  0  0  0  0  0
  -21.7170  -26.8290   22.4020 C   0  0  0  0  0  3  0  0  0  0  0  0
  -22.1210  -25.6700   21.4620 C   0  0  0  0  0  2  0  0  0  0  0  0
  -21.3640  -25.6830   20.1300 C   0  0  0  0  0  2  0  0  0  0  0  0
  -19.8540  -25.5920   20.3670 C   0  0  0  0  0  2  0  0  0  0  0  0
  -20.2430  -27.2360   22.2920 C   0  0  0  0  0  0  0  0  0  0  0  0
  -19.7450  -28.2360   23.1550 C   0  0  0  0  0  3  0  0  0  0  0  0
  -18.3990  -28.6380   23.0930 C   0  0  0  0  0  3  0  0  0  0  0  0
  -17.5280  -28.0340   22.1690 C   0  0  0  0  0  3  0  0  0  0  0  0
  -18.0120  -27.0410   21.3000 C   0  0  0  0  0  3  0  0  0  0  0  0
  -27.6230  -29.4970   24.8260 C   0  0  0  0  0  3  0  0  0  0  0  0
  -28.0540  -28.1170   25.4570 C   0  0  1  0  0  0  0  0  0  0  0  0
  -26.9680  -27.4800   26.3550 C   0  0  0  0  0  1  0  0  0  0  0  0
  -28.4090  -27.0980   24.3480 C   0  0  0  0  0  1  0  0  0  0  0  0
  -29.3280  -28.3060   26.3150 C   0  0  0  0  0  1  0  0  0  0  0  0
  -27.6370  -30.5620   25.8380 N   0  0  0  0  0  0  0  0  0  0  0  0
  -28.1510  -31.7840   25.6480 C   0  0  0  0  0  0  0  0  0  0  0  0
  -28.7370  -32.1130   24.6120 O   0  0  0  0  0  0  0  0  0  0  0  0
  -27.1360  -30.3790   26.6960 H   0  0  0  0  0  0  0  0  0  0  0  0
  -26.8380  -33.7670   26.4540 C   0  0  0  0  0  1  0  0  0  0  0  0
  -27.9880  -32.8050   26.7890 C   0  0  0  0  0  3  0  0  0  0  0  0
  -30.2850  -32.7580   27.6510 C   0  0  0  0  0  1  0  0  0  0  0  0
  -29.2200  -33.5730   27.0720 N   0  0  0  0  0  0  0  0  0  0  0  0
  -29.0270  -34.3400   27.7120 H   0  0  0  0  0  0  0  0  0  0  0  0
  2  6  1  0
  3  1  1  0
  3 49  1  0
  4 55  1  0
  4  3  1  0
  5  2  1  0
  5 15  1  0
  5  4  1  0
  6 45  1  0
  6  1  1  0
  7 13  1  0
  7 15  1  0
  8 13  1  0
  9 10  1  0
  9  8  1  0
 11 10  1  0
 11 20  1  0
 11 12  1  0
 13 12  1  0
 14  7  2  0
 15 16  1  0
 17 42  1  0
 17 18  2  0
 18 37  1  0
 19 18  1  0
 20 17  1  0
 21 20  1  0
 21 19  2  0
 22 19  1  0
 22 23  1  0
 24 23  2  0
 25 24  1  0
 26 27  1  0
 26 25  2  0
 27 22  2  0
 28 25  1  0
 28 29  1  0
 29 30  1  0
 30 31  2  0
 32 36  1  0
 32 31  1  0
 33 32  2  0
 34 29  2  0
 34 33  1  0
 35 34  1  0
 37 38  1  0
 38 40  1  0
 38 41  1  0
 39 37  2  0
 42 43  1  0
 44 42  1  0
 45 46  1  0
 45 47  1  0
 48 45  1  0
 49 50  1  0
 50 51  1  0
 51 53  1  0
 51 54  1  0
 52 50  2  0
 57 60  1  0
 58 56  1  0
 59 57  1  0
 59 61  1  0
 60 55  1  0
 60 56  1  0
 61 58  1  0
 61 62  1  1
 63 64  1  0
 63 61  1  0
 64 65  1  0
 65 67  1  0
 66 77  2  0
 67 72  1  0
 68 78  1  0
 68 76  1  0
 69 71  1  0
 69 75  1  0
 70 76  1  0
 71 70  1  0
 72 71  2  0
 73 67  2  0
 73 74  1  0
 74 69  2  0
 75 68  1  0
 76 66  1  0
 78 80  2  0
 79 78  1  0
 81 79  1  0
 82 87  1  0
 83 79  1  0
 84 83  1  0
 85 86  1  0
 85 84  1  0
 86 82  1  0
 87 83  1  0
 87 88  2  0
 89 88  1  0
 90 89  2  0
 91 82  2  0
 91 90  1  0
 92 66  1  0
 92 93  1  0
 92 97  1  0
 93 96  1  1
 93 94  1  0
 95 93  1  0
 97100  1  0
 98 97  1  0
 98102  1  0
 99 98  2  0
102101  1  0
102104  1  0
104103  1  0
104105  1  0
M  ISO  4   7 100  15 100  64 101  65 101
M  END
>  <TORSDO>  (33) 
F 23

>  <SCORE>  (33) 
3.008

>  <name>  (33) 
32

>  <ligand_id>  (33) 
32

>  <original_smiles>  (33) 
[H]c1c([H])c([H])c2c(c1[H])C([H])([H])C([H])([H])C([H])([H])C2([H])N([H])C(=O)C1([H])N(C(=O)C([H])(N([H])C(=O)C([H])(N([H])C([H])([H])[H])C([H])([H])[H])C(C([H])([H])[H])(C([H])([H])[H])C([H])([H])[H])C([H])([H])c2c([H])c(OC([H])([H])C([H])([H])[N+]3([H])C([H])([H])C([H])([H])C([H])(C([H])([H])C4([H])C([H])(N([H])C(=O)N5C([H])([H])C([H])([H])C([H])([H])C([H])(n6nc(-c7c([H])c([H])c(Oc8c([H])c([H])c(F)c([H])c8F)c([H])c7[H])c(C(=O)N([H])[H])c6N([H])[H])C5([H])[H])C([H])([H])C([H])([N+]([H])([H])[H])C([H])([H])C4([H])C([H])([H])C(=O)N([H])[H])C([H])([H])C3([H])[H])c([H])c([H])c2C1([H])[H]

>  <smiles>  (33) 
[H]c1c([H])c([H])c2c(c1[H])C([H])([H])C([H])([H])C([H])([H])C2([H])N([H])C(=O)C1([H])N(C(=O)C([H])(N([H])C(=O)C([H])(N([H])C([H])([H])[H])C([H])([H])[H])C(C([H])([H])[H])(C([H])([H])[H])C([H])([H])[H])C([H])([H])c2c([H])c(OC([H])([H])C([H])([H])[N+]3([H])C([H])([H])C([H])([H])C([H])(C([H])([H])C4([H])C([H])(N([H])C(=O)N5C([H])([H])C([H])([H])C([H])([H])C([H])(n6nc(-c7c([H])c([H])c(Oc8c([H])c([H])c(F)c([H])c8F)c([H])c7[H])c(C(=O)N([H])[H])c6N([H])[H])C5([H])[H])C([H])([H])C([H])([N+]([H])([H])[H])C([H])([H])C4([H])C([H])([H])C(=O)N([H])[H])C([H])([H])C3([H])[H])c([H])c([H])c2C1([H])[H]

$$$$
33:0:0
     RDKit          3D

 91 99  0  0  1  0  0  0  0  0999 V2000
  -29.3600  -21.3810   19.8300 C   0  0  0  0  0  2  0  0  0  0  0  0
  -30.6030  -21.0940   22.0070 C   0  0  0  0  0  2  0  0  0  0  0  0
  -29.9000  -19.9970   19.4050 C   0  0  0  0  0  2  0  0  0  0  0  0
  -31.1010  -19.7240   21.5050 C   0  0  0  0  0  2  0  0  0  0  0  0
  -30.2650  -22.0840   20.8700 C   0  0  0  0  0  3  0  0  0  0  0  0
  -30.1010  -19.1210   20.5880 N   0  0  2  0  0  4  0  0  0  0  0  0
  -29.2220  -19.1370   21.0860 H   0  0  0  0  0  0  0  0  0  0  0  0
  -29.5860  -23.3470   21.4590 C   0  0  0  0  0  2  0  0  0  0  0  0
  -29.6480  -24.6380   20.6080 C   0  0  0  0  0  2  0  0  0  0  0  0
  -28.2770  -25.3330   20.4820 C   0  0  0  0  0  2  0  0  0  0  0  0
  -28.4100  -26.7220   20.1560 O   0  0  0  0  0  0  0  0  0  0  0  0
  -24.5650  -31.8720   23.2390 C   0  0  0  0  0  0  0  0  0  0  0  0
  -27.2350  -27.4450   20.1570 C   0  0  0  0  0  0  0  0  0  0  0  0
  -23.3710  -30.4740   21.5860 C   0  0  0  0  0  3  0  0  0  0  0  0
  -24.8330  -28.9430   20.1660 C   0  0  0  0  0  0  0  0  0  0  0  0
  -25.8960  -30.8350   21.4040 C   0  0  0  0  0  2  0  0  0  0  0  0
  -25.9890  -29.4670   20.7610 C   0  0  0  0  0  0  0  0  0  0  0  0
  -27.1920  -28.7260   20.7530 C   0  0  0  0  0  3  0  0  0  0  0  0
  -26.0610  -26.9350   19.5550 C   0  0  0  0  0  3  0  0  0  0  0  0
  -24.8640  -27.6750   19.5610 C   0  0  0  0  0  3  0  0  0  0  0  0
  -23.5880  -29.7990   20.2070 C   0  0  0  0  0  2  0  0  0  0  0  0
  -24.6300  -31.0740   22.1360 N   0  0  0  0  0  0  0  0  0  0  0  0
  -23.4800  -32.1410   23.7730 O   0  0  0  0  0  0  0  0  0  0  0  0
  -22.7130  -29.4510   22.5400 C   0  0  0  0  0  0  0  0  0  0  0  0
  -21.3890  -29.2790   22.4080 N   0  0  0  0  0  0  0  0  0  0  0  0
  -23.3920  -28.8160   23.3510 O   0  0  0  0  0  0  0  0  0  0  0  0
  -20.9050  -29.8380   21.7190 H   0  0  0  0  0  0  0  0  0  0  0  0
  -18.0000  -28.1210   22.9050 C   0  0  0  0  0  0  0  0  0  0  0  0
  -20.5620  -28.3420   23.1700 C   0  0  0  0  0  3  0  0  0  0  0  0
  -20.6470  -26.9190   22.5730 C   0  0  0  0  0  2  0  0  0  0  0  0
  -19.5350  -26.6220   21.5610 C   0  0  0  0  0  2  0  0  0  0  0  0
  -18.1570  -26.7780   22.2130 C   0  0  0  0  0  2  0  0  0  0  0  0
  -19.1310  -28.8630   23.3410 C   0  0  0  0  0  0  0  0  0  0  0  0
  -18.9320  -30.1210   23.9490 C   0  0  0  0  0  3  0  0  0  0  0  0
  -17.6360  -30.6390   24.1260 C   0  0  0  0  0  3  0  0  0  0  0  0
  -16.5190  -29.8940   23.7090 C   0  0  0  0  0  3  0  0  0  0  0  0
  -16.7020  -28.6370   23.1030 C   0  0  0  0  0  3  0  0  0  0  0  0
  -25.8460  -32.4990   23.8700 C   0  0  0  0  0  3  0  0  0  0  0  0
  -25.5370  -33.8970   24.1970 N   0  0  0  0  0  0  0  0  0  0  0  0
  -25.8850  -34.9480   23.4420 C   0  0  0  0  0  0  0  0  0  0  0  0
  -26.5730  -34.8430   22.4230 O   0  0  0  0  0  0  0  0  0  0  0  0
  -24.9250  -34.0510   24.9850 H   0  0  0  0  0  0  0  0  0  0  0  0
  -24.1760  -36.7510   23.0510 C   0  0  0  0  0  1  0  0  0  0  0  0
  -25.3950  -36.3380   23.8900 C   0  0  0  0  0  3  0  0  0  0  0  0
  -27.5140  -37.2080   24.7720 C   0  0  0  0  0  1  0  0  0  0  0  0
  -26.4350  -37.3850   23.8040 N   0  0  0  0  0  0  0  0  0  0  0  0
  -26.0320  -38.3080   23.9440 H   0  0  0  0  0  0  0  0  0  0  0  0
  -26.3530  -31.7250   25.1500 C   0  0  1  0  0  0  0  0  0  0  0  0
  -25.2530  -31.4820   26.2080 C   0  0  0  0  0  1  0  0  0  0  0  0
  -26.9410  -30.3490   24.7550 C   0  0  0  0  0  1  0  0  0  0  0  0
  -27.5020  -32.5150   25.8200 C   0  0  0  0  0  1  0  0  0  0  0  0
  -30.3120  -17.6870   20.2380 C   0  0  0  0  0  2  0  0  0  0  0  0
  -30.3540  -16.7540   21.4770 C   0  0  0  0  0  2  0  0  0  0  0  0
  -30.6890  -14.4380   20.5090 C   0  0  0  0  0  0  0  0  0  0  0  0
  -30.3880  -12.3300   19.2630 C   0  0  0  0  0  2  0  0  0  0  0  0
  -29.4270  -12.5470   18.0740 C   0  0  0  0  0  2  0  0  0  0  0  0
  -27.9530  -12.4250   18.5100 C   0  0  0  0  0  2  0  0  0  0  0  0
  -27.6320  -13.2430   19.7890 C   0  0  0  0  0  3  0  0  0  0  0  0
  -28.6860  -12.9550   20.8820 C   0  0  0  0  0  2  0  0  0  0  0  0
  -30.0150  -13.2720   20.3250 N   0  0  0  0  0  0  0  0  0  0  0  0
  -31.7870  -14.6880   20.0050 O   0  0  0  0  0  0  0  0  0  0  0  0
  -30.0010  -15.3620   21.1900 N   0  0  0  0  0  0  0  0  0  0  0  0
  -29.1030  -15.0510   21.5310 H   0  0  0  0  0  0  0  0  0  0  0  0
  -25.2320  -13.8760   20.4780 C   0  0  0  0  0  0  0  0  0  0  0  0
  -24.1550  -13.1140   20.8440 C   0  0  0  0  0  0  0  0  0  0  0  0
  -24.6080  -11.7590   20.8240 C   0  0  0  0  0  0  0  0  0  0  0  0
  -26.2740  -12.9860   20.2620 N   0  0  0  0  0  0  0  0  0  0  0  0
  -25.9000  -11.7080   20.5250 N   0  0  0  0  0  0  0  0  0  0  0  0
  -23.8730  -10.5030   21.0180 C   0  0  0  0  0  0  0  0  0  0  0  0
  -24.2940   -9.5410   21.9630 C   0  0  0  0  0  3  0  0  0  0  0  0
  -23.5620   -8.3470   22.1430 C   0  0  0  0  0  3  0  0  0  0  0  0
  -22.3960   -8.1080   21.3780 C   0  0  0  0  0  0  0  0  0  0  0  0
  -21.9940   -9.0610   20.4240 C   0  0  0  0  0  3  0  0  0  0  0  0
  -22.7270  -10.2440   20.2430 C   0  0  0  0  0  3  0  0  0  0  0  0
  -21.6360   -6.9670   21.4660 O   0  0  0  0  0  0  0  0  0  0  0  0
  -21.5730   -6.2330   22.6230 C   0  0  0  0  0  0  0  0  0  0  0  0
  -21.1350   -6.7960   23.8410 C   0  0  0  0  0  3  0  0  0  0  0  0
  -21.0190   -5.9870   24.9900 C   0  0  0  0  0  3  0  0  0  0  0  0
  -21.3330   -4.6170   24.9210 C   0  0  0  0  0  0  0  0  0  0  0  0
  -21.7650   -4.0530   23.7080 C   0  0  0  0  0  3  0  0  0  0  0  0
  -21.8820   -4.8580   22.5620 C   0  0  0  0  0  0  0  0  0  0  0  0
  -22.2780   -4.3040   21.3890 F   0  0  0  0  0  0  0  0  0  0  0  0
  -21.2150   -3.8370   26.0220 F   0  0  0  0  0  0  0  0  0  0  0  0
  -22.7590  -13.6020   21.1060 C   0  0  0  0  0  0  0  0  0  0  0  0
  -22.0220  -12.9150   21.9690 N   0  0  0  0  0  0  0  0  0  0  0  0
  -22.3310  -14.6280   20.5790 O   0  0  0  0  0  0  0  0  0  0  0  0
  -22.3820  -12.0850   22.4180 H   0  0  0  0  0  0  0  0  0  0  0  0
  -21.0850  -13.2240   22.1880 H   0  0  0  0  0  0  0  0  0  0  0  0
  -25.4070  -15.2460   20.2930 N   0  0  0  0  0  0  0  0  0  0  0  0
  -24.6400  -15.9020   20.3940 H   0  0  0  0  0  0  0  0  0  0  0  0
  -26.2600  -15.6780   19.9630 H   0  0  0  0  0  0  0  0  0  0  0  0
  1  5  1  0
  3  1  1  0
  3  6  1  0
  4  2  1  0
  5  8  1  0
  5  2  1  0
  6  7  1  1
  6  4  1  0
  9  8  1  0
 10  9  1  0
 11 13  1  0
 11 10  1  0
 12 23  2  0
 13 18  1  0
 14 22  1  0
 14 24  1  0
 15 21  1  0
 15 17  1  0
 16 22  1  0
 17 16  1  0
 18 17  2  0
 19 20  1  0
 19 13  2  0
 20 15  2  0
 21 14  1  0
 22 12  1  0
 24 26  2  0
 25 24  1  0
 27 25  1  0
 28 37  2  0
 28 33  1  0
 29 25  1  0
 29 33  1  0
 30 29  1  0
 31 32  1  0
 31 30  1  0
 32 28  1  0
 33 34  2  0
 34 35  1  0
 36 35  2  0
 37 36  1  0
 38 12  1  0
 38 39  1  0
 38 48  1  0
 39 42  1  0
 40 44  1  0
 40 39  1  0
 41 40  2  0
 44 43  1  0
 46 44  1  0
 46 47  1  0
 46 45  1  0
 48 51  1  1
 48 49  1  0
 50 48  1  0
 52  6  1  0
 52 53  1  0
 54 62  1  0
 55 60  1  0
 56 57  1  0
 56 55  1  0
 58 57  1  0
 58 67  1  0
 58 59  1  0
 60 54  1  0
 60 59  1  0
 61 54  2  0
 62 53  1  0
 62 63  1  0
 64 65  2  0
 65 84  1  0
 66 65  1  0
 66 69  1  0
 67 64  1  0
 67 68  1  0
 68 66  2  0
 69 70  1  0
 70 71  2  0
 72 75  1  0
 72 71  1  0
 73 72  2  0
 74 73  1  0
 74 69  2  0
 75 76  1  0
 76 77  1  0
 77 78  2  0
 79 78  1  0
 79 83  1  0
 80 79  2  0
 81 76  2  0
 81 80  1  0
 82 81  1  0
 84 85  1  0
 85 88  1  0
 85 87  1  0
 86 84  2  0
 89 90  1  0
 89 64  1  0
 91 89  1  0
M  ISO  4  10 101  11 101  54 100  62 100
M  END
>  <TORSDO>  (34) 
F 21

>  <SCORE>  (34) 
-13.609

>  <name>  (34) 
33

>  <ligand_id>  (34) 
33

>  <original_smiles>  (34) 
[H]c1c([H])c([H])c2c(c1[H])C([H])([H])C([H])([H])C([H])([H])C2([H])N([H])C(=O)C1([H])N(C(=O)C([H])(N([H])C(=O)C([H])(N([H])C([H])([H])[H])C([H])([H])[H])C(C([H])([H])[H])(C([H])([H])[H])C([H])([H])[H])C([H])([H])c2c([H])c(OC([H])([H])C([H])([H])C([H])([H])C3([H])C([H])([H])C([H])([H])[N+]([H])(C([H])([H])C([H])([H])N([H])C(=O)N4C([H])([H])C([H])([H])C([H])([H])C([H])(n5nc(-c6c([H])c([H])c(Oc7c([H])c([H])c(F)c([H])c7F)c([H])c6[H])c(C(=O)N([H])[H])c5N([H])[H])C4([H])[H])C([H])([H])C3([H])[H])c([H])c([H])c2C1([H])[H]

>  <smiles>  (34) 
[H]c1c([H])c([H])c2c(c1[H])C([H])([H])C([H])([H])C([H])([H])C2([H])N([H])C(=O)C1([H])N(C(=O)C([H])(N([H])C(=O)C([H])(N([H])C([H])([H])[H])C([H])([H])[H])C(C([H])([H])[H])(C([H])([H])[H])C([H])([H])[H])C([H])([H])c2c([H])c(OC([H])([H])C([H])([H])C([H])([H])C3([H])C([H])([H])C([H])([H])[N+]([H])(C([H])([H])C([H])([H])N([H])C(=O)N4C([H])([H])C([H])([H])C([H])([H])C([H])(n5nc(-c6c([H])c([H])c(Oc7c([H])c([H])c(F)c([H])c7F)c([H])c6[H])c(C(=O)N([H])[H])c5N([H])[H])C4([H])[H])C([H])([H])C3([H])[H])c([H])c([H])c2C1([H])[H]

$$$$
34:0:0
     RDKit          3D

 98107  0  0  1  0  0  0  0  0999 V2000
  -30.8900  -14.3860   20.1940 C   0  0  0  0  0  0  0  0  0  0  0  0
  -30.7390  -11.9970   19.6000 C   0  0  0  0  0  2  0  0  0  0  0  0
  -29.9210  -11.8590   18.2990 C   0  0  0  0  0  2  0  0  0  0  0  0
  -28.4060  -11.8010   18.5940 C   0  0  0  0  0  2  0  0  0  0  0  0
  -27.9390  -12.9290   19.5510 C   0  0  0  0  0  3  0  0  0  0  0  0
  -28.8710  -13.0070   20.7850 C   0  0  0  0  0  2  0  0  0  0  0  0
  -30.2540  -13.1890   20.3050 N   0  0  0  0  0  0  0  0  0  0  0  0
  -32.0620  -14.5290   19.8330 O   0  0  0  0  0  0  0  0  0  0  0  0
  -30.2970  -16.8290   20.0640 C   0  0  0  0  0  3  0  0  0  0  0  0
  -31.6650  -17.4240   19.9540 C   0  0  0  0  0  2  0  0  0  0  0  0
  -31.3970  -18.9400   19.9910 C   0  0  0  0  0  2  0  0  0  0  0  0
  -29.8780  -19.1320   19.8150 C   0  0  0  0  0  3  0  0  0  0  0  0
  -29.3330  -17.7660   19.9280 N   0  0  0  0  0  0  0  0  0  0  0  0
  -30.0090  -15.5160   20.2730 N   0  0  0  0  0  0  0  0  0  0  0  0
  -29.0460  -15.3370   20.4840 H   0  0  0  0  0  0  0  0  0  0  0  0
  -25.5130  -13.7040   19.9570 C   0  0  0  0  0  0  0  0  0  0  0  0
  -24.3890  -13.0200   20.3320 C   0  0  0  0  0  0  0  0  0  0  0  0
  -24.7970  -11.6640   20.5180 C   0  0  0  0  0  0  0  0  0  0  0  0
  -26.5400  -12.7690   19.9370 N   0  0  0  0  0  0  0  0  0  0  0  0
  -26.1060  -11.5470   20.3330 N   0  0  0  0  0  0  0  0  0  0  0  0
  -24.0070  -10.4620   20.8040 C   0  0  0  0  0  0  0  0  0  0  0  0
  -24.4150   -9.5280   21.7810 C   0  0  0  0  0  3  0  0  0  0  0  0
  -23.6300   -8.3870   22.0530 C   0  0  0  0  0  3  0  0  0  0  0  0
  -22.4230   -8.1740   21.3490 C   0  0  0  0  0  0  0  0  0  0  0  0
  -22.0320   -9.0950   20.3610 C   0  0  0  0  0  3  0  0  0  0  0  0
  -22.8170  -10.2270   20.0870 C   0  0  0  0  0  3  0  0  0  0  0  0
  -21.6080   -7.0820   21.5290 O   0  0  0  0  0  0  0  0  0  0  0  0
  -21.6410   -6.3430   22.6820 C   0  0  0  0  0  0  0  0  0  0  0  0
  -21.4210   -6.9270   23.9500 C   0  0  0  0  0  3  0  0  0  0  0  0
  -21.3960   -6.1170   25.1030 C   0  0  0  0  0  3  0  0  0  0  0  0
  -21.5810   -4.7260   24.9910 C   0  0  0  0  0  0  0  0  0  0  0  0
  -21.7960   -4.1420   23.7310 C   0  0  0  0  0  3  0  0  0  0  0  0
  -21.8230   -4.9490   22.5790 C   0  0  0  0  0  0  0  0  0  0  0  0
  -22.0100   -4.3790   21.3650 F   0  0  0  0  0  0  0  0  0  0  0  0
  -21.5480   -3.9470   26.0990 F   0  0  0  0  0  0  0  0  0  0  0  0
  -22.9950  -13.5710   20.4050 C   0  0  0  0  0  0  0  0  0  0  0  0
  -22.1870  -13.0740   21.3350 N   0  0  0  0  0  0  0  0  0  0  0  0
  -22.6350  -14.4890   19.6700 O   0  0  0  0  0  0  0  0  0  0  0  0
  -22.4910  -12.3400   21.9550 H   0  0  0  0  0  0  0  0  0  0  0  0
  -21.2480  -13.4370   21.4280 H   0  0  0  0  0  0  0  0  0  0  0  0
  -25.7370  -15.0360   19.6090 N   0  0  0  0  0  0  0  0  0  0  0  0
  -24.8600  -15.4130   19.2590 H   0  0  0  0  0  0  0  0  0  0  0  0
  -26.4190  -15.0840   18.8600 H   0  0  0  0  0  0  0  0  0  0  0  0
  -29.5040  -19.8270   18.4770 C   0  0  0  0  0  2  0  0  0  0  0  0
  -28.9550  -21.9570   17.2180 C   0  0  0  0  0  2  0  0  0  0  0  0
  -29.1720  -22.0520   19.7310 C   0  0  0  0  0  2  0  0  0  0  0  0
  -29.0480  -23.4930   17.1560 C   0  0  0  0  0  2  0  0  0  0  0  0
  -29.2600  -23.5900   19.6560 C   0  0  0  0  0  2  0  0  0  0  0  0
  -29.6880  -21.3660   18.4430 C   0  0  0  0  0  3  0  0  0  0  0  0
  -28.5000  -24.1510   18.4400 C   0  0  0  0  0  3  0  0  0  0  0  0
  -28.5700  -25.6940   18.3810 C   0  0  0  0  0  2  0  0  0  0  0  0
  -27.6040  -26.1900   17.4600 O   0  0  0  0  0  0  0  0  0  0  0  0
  -25.5000  -30.4620   22.7750 C   0  0  0  0  0  0  0  0  0  0  0  0
  -26.6560  -27.0310   17.9820 C   0  0  0  0  0  0  0  0  0  0  0  0
  -23.8280  -30.0230   21.0010 C   0  0  0  0  0  3  0  0  0  0  0  0
  -24.7100  -28.8420   18.9190 C   0  0  0  0  0  0  0  0  0  0  0  0
  -26.3300  -29.9210   20.4910 C   0  0  0  0  0  2  0  0  0  0  0  0
  -26.0110  -28.8820   19.4390 C   0  0  0  0  0  0  0  0  0  0  0  0
  -26.9880  -27.9760   18.9760 C   0  0  0  0  0  3  0  0  0  0  0  0
  -25.3460  -26.9980   17.4660 C   0  0  0  0  0  3  0  0  0  0  0  0
  -24.3690  -27.8960   17.9350 C   0  0  0  0  0  3  0  0  0  0  0  0
  -23.7280  -29.8550   19.4610 C   0  0  0  0  0  2  0  0  0  0  0  0
  -25.2460  -30.1250   21.4790 N   0  0  0  0  0  0  0  0  0  0  0  0
  -24.5790  -30.7330   23.5580 O   0  0  0  0  0  0  0  0  0  0  0  0
  -23.0370  -28.8790   21.6730 C   0  0  0  0  0  0  0  0  0  0  0  0
  -21.7020  -29.0210   21.7200 N   0  0  0  0  0  0  0  0  0  0  0  0
  -23.6160  -27.8800   22.1070 O   0  0  0  0  0  0  0  0  0  0  0  0
  -21.3040  -29.8710   21.3440 H   0  0  0  0  0  0  0  0  0  0  0  0
  -18.1880  -28.3690   22.2390 C   0  0  0  0  0  0  0  0  0  0  0  0
  -20.7530  -28.0550   22.2690 C   0  0  0  0  0  3  0  0  0  0  0  0
  -20.5190  -26.8870   21.2830 C   0  0  0  0  0  2  0  0  0  0  0  0
  -19.3190  -27.1090   20.3580 C   0  0  0  0  0  2  0  0  0  0  0  0
  -18.0370  -27.2940   21.1760 C   0  0  0  0  0  2  0  0  0  0  0  0
  -19.4640  -28.7360   22.7410 C   0  0  0  0  0  0  0  0  0  0  0  0
  -19.5530  -29.7640   23.7030 C   0  0  0  0  0  3  0  0  0  0  0  0
  -18.3960  -30.4210   24.1630 C   0  0  0  0  0  3  0  0  0  0  0  0
  -17.1330  -30.0420   23.6760 C   0  0  0  0  0  3  0  0  0  0  0  0
  -17.0310  -29.0160   22.7200 C   0  0  0  0  0  3  0  0  0  0  0  0
  -26.9580  -30.5470   23.3280 C   0  0  0  0  0  3  0  0  0  0  0  0
  -26.9540  -31.5080   24.4390 N   0  0  0  0  0  0  0  0  0  0  0  0
  -27.4790  -32.7390   24.3800 C   0  0  0  0  0  0  0  0  0  0  0  0
  -28.0910  -33.1600   23.3940 O   0  0  0  0  0  0  0  0  0  0  0  0
  -26.4130  -31.2570   25.2540 H   0  0  0  0  0  0  0  0  0  0  0  0
  -26.1900  -34.6760   25.3330 C   0  0  0  0  0  1  0  0  0  0  0  0
  -27.2970  -33.6480   25.6110 C   0  0  0  0  0  3  0  0  0  0  0  0
  -29.5520  -33.4480   26.5600 C   0  0  0  0  0  1  0  0  0  0  0  0
  -28.5370  -34.3460   26.0150 N   0  0  0  0  0  0  0  0  0  0  0  0
  -28.3360  -35.0570   26.7130 H   0  0  0  0  0  0  0  0  0  0  0  0
  -27.5310  -29.1530   23.7950 C   0  0  1  0  0  0  0  0  0  0  0  0
  -26.6020  -28.3960   24.7720 C   0  0  0  0  0  1  0  0  0  0  0  0
  -27.7860  -28.2300   22.5780 C   0  0  0  0  0  1  0  0  0  0  0  0
  -28.9000  -29.3550   24.4890 C   0  0  0  0  0  1  0  0  0  0  0  0
  -27.8800  -17.4880   19.8600 C   0  0  0  0  0  2  0  0  0  0  0  0
  -27.1500  -17.6080   21.2060 C   0  0  0  0  0  2  0  0  0  0  0  0
  -25.7330  -17.2190   21.0730 N   0  0  0  0  0  4  0  0  0  0  0  0
  -25.2200  -17.9200   20.5680 H   0  0  0  0  0  0  0  0  0  0  0  0
  -25.3070  -17.1110   21.9770 H   0  0  0  0  0  0  0  0  0  0  0  0
  -25.6500  -16.3440   20.5660 H   0  0  0  0  0  0  0  0  0  0  0  0
  1 14  1  0
  1  7  1  0
  2  7  1  0
  3  4  1  0
  3  2  1  0
  5  4  1  0
  5 19  1  0
  5  6  1  0
  7  6  1  0
  8  1  2  0
  9 14  1  0
 10 11  1  0
 10  9  1  0
 12 44  1  0
 12 13  1  0
 12 11  1  0
 13  9  1  0
 14 15  1  0
 16 17  2  0
 17 36  1  0
 17 18  1  0
 18 21  1  0
 19 16  1  0
 19 20  1  0
 20 18  2  0
 21 22  1  0
 22 23  2  0
 24 27  1  0
 24 23  1  0
 25 24  2  0
 26 25  1  0
 26 21  2  0
 27 28  1  0
 28 29  1  0
 29 30  2  0
 31 30  1  0
 31 35  1  0
 32 31  2  0
 33 28  2  0
 33 32  1  0
 34 33  1  0
 36 37  1  0
 37 40  1  0
 37 39  1  0
 38 36  2  0
 41 16  1  0
 42 41  1  0
 43 41  1  0
 45 49  1  0
 47 45  1  0
 47 50  1  0
 48 46  1  0
 49 44  1  0
 49 46  1  0
 50 51  1  0
 50 48  1  0
 52 54  1  0
 52 51  1  0
 53 64  2  0
 54 59  1  0
 55 63  1  0
 55 65  1  0
 56 58  1  0
 56 62  1  0
 57 63  1  0
 58 57  1  0
 59 58  2  0
 60 61  1  0
 60 54  2  0
 61 56  2  0
 62 55  1  0
 63 53  1  0
 65 66  1  0
 65 67  2  0
 68 66  1  0
 69 78  2  0
 69 74  1  0
 70 66  1  0
 70 74  1  0
 71 70  1  0
 72 73  1  0
 72 71  1  0
 73 69  1  0
 74 75  2  0
 75 76  1  0
 77 76  2  0
 78 77  1  0
 79 53  1  0
 79 89  1  0
 79 80  1  0
 80 83  1  0
 81 80  1  0
 81 85  1  0
 82 81  2  0
 85 84  1  0
 85 87  1  0
 87 86  1  0
 87 88  1  0
 89 92  1  1
 89 90  1  0
 91 89  1  0
 93 13  1  0
 93 94  1  0
 95 94  1  0
 95 97  1  0
 96 95  1  0
 98 95  1  0
M  ISO  4   1 100  14 100  51 101  52 101
M  END
>  <TORSDO>  (35) 
F 21

>  <SCORE>  (35) 
-8.160

>  <name>  (35) 
34

>  <ligand_id>  (35) 
34

>  <original_smiles>  (35) 
[H]c1c([H])c([H])c2c(c1[H])C([H])([H])C([H])([H])C([H])([H])C2([H])N([H])C(=O)C1([H])N(C(=O)C([H])(N([H])C(=O)C([H])(N([H])C([H])([H])[H])C([H])([H])[H])C(C([H])([H])[H])(C([H])([H])[H])C([H])([H])[H])C([H])([H])c2c([H])c(OC([H])([H])C3([H])C([H])([H])C([H])([H])C([H])(C([H])([H])C4([H])N(C([H])([H])C([H])([H])[N+]([H])([H])[H])C(=[N+]([H])C(=O)N5C([H])([H])C([H])([H])C([H])([H])C([H])(n6nc(-c7c([H])c([H])c(Oc8c([H])c([H])c(F)c([H])c8F)c([H])c7[H])c(C(=O)N([H])[H])c6N([H])[H])C5([H])[H])C([H])([H])C4([H])[H])C([H])([H])C3([H])[H])c([H])c([H])c2C1([H])[H]

>  <smiles>  (35) 
[H]c1c([H])c([H])c2c(c1[H])C([H])([H])C([H])([H])C([H])([H])C2([H])N([H])C(=O)C1([H])N(C(=O)C([H])(N([H])C(=O)C([H])(N([H])C([H])([H])[H])C([H])([H])[H])C(C([H])([H])[H])(C([H])([H])[H])C([H])([H])[H])C([H])([H])c2c([H])c(OC([H])([H])C3([H])C([H])([H])C([H])([H])C([H])(C([H])([H])C4([H])N(C([H])([H])C([H])([H])[N+]([H])([H])[H])C(=[N+]([H])C(=O)N5C([H])([H])C([H])([H])C([H])([H])C([H])(n6nc(-c7c([H])c([H])c(Oc8c([H])c([H])c(F)c([H])c8F)c([H])c7[H])c(C(=O)N([H])[H])c6N([H])[H])C5([H])[H])C([H])([H])C4([H])[H])C([H])([H])C3([H])[H])c([H])c([H])c2C1([H])[H]

$$$$
35:0:0
     RDKit          3D

101105  0  0  1  0  0  0  0  0999 V2000
  -24.5750  -23.3500   22.3620 C   0  0  0  0  0  2  0  0  0  0  0  0
  -24.2100  -23.0730   19.9340 C   0  0  0  0  0  2  0  0  0  0  0  0
  -22.9970  -23.6070   22.5280 C   0  0  0  0  0  2  0  0  0  0  0  0
  -22.6430  -23.3420   20.1550 C   0  0  0  0  0  2  0  0  0  0  0  0
  -25.0780  -22.4880   21.1350 C   0  0  0  0  0  3  0  0  0  0  0  0
  -22.3090  -24.3560   21.3100 C   0  0  0  0  0  3  0  0  0  0  0  0
  -26.7340  -22.4170   20.9190 C   0  0  0  0  0  2  0  0  0  0  0  0
  -27.6030  -21.1810   21.3040 N   0  0  0  0  0  4  0  0  0  0  0  0
  -28.0100  -21.3900   22.2020 H   0  0  0  0  0  0  0  0  0  0  0  0
  -26.9900  -20.3990   21.4620 H   0  0  0  0  0  0  0  0  0  0  0  0
  -29.7620  -19.5350   20.9920 C   0  0  0  0  0  0  0  0  0  0  0  0
  -29.6430  -19.1250   18.5530 C   0  0  0  0  0  2  0  0  0  0  0  0
  -28.4740  -20.0920   19.0020 C   0  0  0  0  0  2  0  0  0  0  0  0
  -30.1540  -18.4960   19.8540 C   0  0  0  0  0  3  0  0  0  0  0  0
  -28.7950  -20.6910   20.4120 C   0  0  0  0  0  3  0  0  0  0  0  0
  -30.1540  -19.4600   22.1600 O   0  0  0  0  0  0  0  0  0  0  0  0
  -32.0240  -16.3950   19.4310 C   0  0  0  0  0  0  0  0  0  0  0  0
  -32.1760  -14.0220   18.5500 C   0  0  0  0  0  2  0  0  0  0  0  0
  -31.0770  -13.8550   17.4610 C   0  0  0  0  0  2  0  0  0  0  0  0
  -29.6710  -13.6230   18.0730 C   0  0  0  0  0  2  0  0  0  0  0  0
  -29.3810  -14.6080   19.2320 C   0  0  0  0  0  3  0  0  0  0  0  0
  -30.5510  -14.5620   20.2380 C   0  0  0  0  0  2  0  0  0  0  0  0
  -31.7290  -15.0550   19.5190 N   0  0  0  0  0  0  0  0  0  0  0  0
  -33.0310  -16.7620   18.8010 O   0  0  0  0  0  0  0  0  0  0  0  0
  -30.9630  -17.1740   19.9320 N   0  0  0  0  0  0  0  0  0  0  0  0
  -30.4370  -16.5370   20.5110 H   0  0  0  0  0  0  0  0  0  0  0  0
  -27.2070  -15.2890   20.4130 C   0  0  0  0  0  0  0  0  0  0  0  0
  -26.1670  -14.5460   20.8930 C   0  0  0  0  0  0  0  0  0  0  0  0
  -26.4960  -13.1850   20.6110 C   0  0  0  0  0  0  0  0  0  0  0  0
  -28.1110  -14.3740   19.8930 N   0  0  0  0  0  0  0  0  0  0  0  0
  -27.6980  -13.0980   20.0680 N   0  0  0  0  0  0  0  0  0  0  0  0
  -25.7100  -11.9590   20.7690 C   0  0  0  0  0  0  0  0  0  0  0  0
  -26.0730  -10.9740   21.7120 C   0  0  0  0  0  3  0  0  0  0  0  0
  -25.2910   -9.8080   21.8570 C   0  0  0  0  0  3  0  0  0  0  0  0
  -24.1400   -9.6240   21.0560 C   0  0  0  0  0  0  0  0  0  0  0  0
  -23.8030  -10.5940   20.1000 C   0  0  0  0  0  3  0  0  0  0  0  0
  -24.5810  -11.7540   19.9510 C   0  0  0  0  0  3  0  0  0  0  0  0
  -23.3320   -8.5150   21.1100 O   0  0  0  0  0  0  0  0  0  0  0  0
  -22.9040   -7.9960   22.3040 C   0  0  0  0  0  0  0  0  0  0  0  0
  -22.2370   -8.7870   23.2650 C   0  0  0  0  0  3  0  0  0  0  0  0
  -21.7590   -8.1960   24.4510 C   0  0  0  0  0  3  0  0  0  0  0  0
  -21.9330   -6.8170   24.6720 C   0  0  0  0  0  0  0  0  0  0  0  0
  -22.5940   -6.0280   23.7120 C   0  0  0  0  0  3  0  0  0  0  0  0
  -23.0770   -6.6170   22.5310 C   0  0  0  0  0  0  0  0  0  0  0  0
  -23.7000   -5.8500   21.6030 F   0  0  0  0  0  0  0  0  0  0  0  0
  -21.4650   -6.2490   25.8070 F   0  0  0  0  0  0  0  0  0  0  0  0
  -24.8910  -15.0650   21.4840 C   0  0  0  0  0  0  0  0  0  0  0  0
  -24.3020  -14.3160   22.4070 N   0  0  0  0  0  0  0  0  0  0  0  0
  -24.4360  -16.1650   21.1570 O   0  0  0  0  0  0  0  0  0  0  0  0
  -24.6830  -13.4170   22.6710 H   0  0  0  0  0  0  0  0  0  0  0  0
  -23.4780  -14.6540   22.8800 H   0  0  0  0  0  0  0  0  0  0  0  0
  -27.4490  -16.6580   20.3450 N   0  0  0  0  0  0  0  0  0  0  0  0
  -26.6640  -17.2900   20.4300 H   0  0  0  0  0  0  0  0  0  0  0  0
  -28.1230  -16.9660   19.6530 H   0  0  0  0  0  0  0  0  0  0  0  0
  -20.7480  -25.1470   21.4070 C   0  0  0  0  0  2  0  0  0  0  0  0
  -20.2670  -26.6150   20.7440 N   0  0  0  0  0  2  0  0  0  0  0  0
  -20.1980  -27.2530   21.5230 H   0  0  0  0  0  0  0  0  0  0  0  0
  -19.3050  -26.4800   20.4690 H   0  0  0  0  0  0  0  0  0  0  0  0
  -21.1590  -27.9180   18.8530 C   0  0  0  0  0 15  0  0  0  0  0  0
  -23.0210  -27.5410   17.9250 C   0  0  0  0  0  1  0  0  0  0  0  0
  -24.7890  -26.9710   18.0980 O   0  0  0  0  0  0  0  0  0  0  0  0
  -25.5370  -29.0610   22.9970 C   0  0  0  0  0  0  0  0  0  0  0  0
  -26.1530  -27.3250   17.6630 C   0  0  0  0  0  3  0  0  0  0  0  0
  -24.1890  -29.4260   21.0100 C   0  0  0  0  0  3  0  0  0  0  0  0
  -25.3630  -29.4920   18.7120 C   0  0  0  0  0  3  0  0  0  0  0  0
  -26.7130  -29.2960   20.8040 C   0  0  0  0  0  2  0  0  0  0  0  0
  -26.4250  -28.8760   19.3800 C   0  0  0  0  0  3  0  0  0  0  0  0
  -27.0110  -27.7870   18.7120 C   0  0  0  0  0  2  0  0  0  0  0  0
  -25.9720  -28.2670   16.6900 C   0  0  0  0  0  2  0  0  0  0  0  0
  -25.2700  -29.3240   17.2950 C   0  0  0  0  0  2  0  0  0  0  0  0
  -24.2980  -30.0990   19.5940 C   0  0  0  0  0  2  0  0  0  0  0  0
  -25.5080  -29.2890   21.6580 N   0  0  0  0  0  0  0  0  0  0  0  0
  -24.4980  -29.0550   23.6750 O   0  0  0  0  0  0  0  0  0  0  0  0
  -23.5590  -28.0180   21.0760 C   0  0  0  0  0  0  0  0  0  0  0  0
  -22.3060  -27.9210   21.3960 N   0  0  0  0  0  0  0  0  0  0  0  0
  -24.1980  -26.9840   20.9420 O   0  0  0  0  0  0  0  0  0  0  0  0
  -21.7880  -28.7360   21.6950 H   0  0  0  0  0  0  0  0  0  0  0  0
  -18.6740  -27.7600   20.5340 C   0  0  0  0  0  0  0  0  0  0  0  0
  -21.5560  -26.7120   21.0940 C   0  0  0  0  0  3  0  0  0  0  0  0
  -21.9360  -25.8120   19.1540 C   0  0  0  0  0 15  0  0  0  0  0  0
  -20.1320  -26.3720   17.6810 C   0  0  0  0  0 15  0  0  0  0  0  0
  -18.5930  -27.3770   18.7000 C   0  0  0  0  0  1  0  0  0  0  0  0
  -19.9270  -27.5150   21.4980 C   0  0  0  0  0  0  0  0  0  0  0  0
  -19.7630  -27.8950   22.8640 C   0  0  0  0  0  3  0  0  0  0  0  0
  -18.5420  -28.3200   23.4310 C   0  0  0  0  0  3  0  0  0  0  0  0
  -17.3820  -28.3390   22.6460 C   0  0  0  0  0  3  0  0  0  0  0  0
  -17.4530  -28.0570   21.2540 C   0  0  0  0  0  3  0  0  0  0  0  0
  -26.8780  -28.8280   23.7290 C   0  0  0  0  0  3  0  0  0  0  0  0
  -26.8350  -29.6710   24.9260 N   0  0  0  0  0  0  0  0  0  0  0  0
  -27.3660  -30.8970   25.0010 C   0  0  0  0  0  0  0  0  0  0  0  0
  -28.0260  -31.3950   24.0850 O   0  0  0  0  0  0  0  0  0  0  0  0
  -26.2650  -29.3470   25.6930 H   0  0  0  0  0  0  0  0  0  0  0  0
  -26.0200  -32.7320   26.0770 C   0  0  0  0  0  1  0  0  0  0  0  0
  -27.1300  -31.6890   26.2970 C   0  0  0  0  0  3  0  0  0  0  0  0
  -29.3640  -31.4200   27.2760 C   0  0  0  0  0  1  0  0  0  0  0  0
  -28.3470  -32.3570   26.8040 N   0  0  0  0  0  0  0  0  0  0  0  0
  -28.1200  -32.9890   27.5660 H   0  0  0  0  0  0  0  0  0  0  0  0
  -27.1290  -27.3190   24.1070 C   0  0  1  0  0  0  0  0  0  0  0  0
  -25.9330  -26.6480   24.8200 C   0  0  0  0  0  1  0  0  0  0  0  0
  -27.4570  -26.4800   22.8480 C   0  0  0  0  0  1  0  0  0  0  0  0
  -28.3590  -27.2300   25.0350 C   0  0  0  0  0  1  0  0  0  0  0  0
  1  3  1  0
  2  4  1  0
  2  5  1  0
  4  6  1  0
  5  7  1  0
  5  1  1  0
  6 55  1  0
  6  3  1  0
  7  8  1  0
  8 10  1  0
  8  9  1  0
 11 16  2  0
 12 13  1  0
 12 14  1  0
 13 15  1  0
 14 25  1  0
 14 11  1  0
 15 11  1  0
 15  8  1  0
 17 23  1  0
 17 25  1  0
 18 23  1  0
 19 20  1  0
 19 18  1  0
 21 20  1  0
 21 30  1  0
 21 22  1  0
 23 22  1  0
 24 17  2  0
 25 26  1  0
 27 28  2  0
 28 47  1  0
 29 32  1  0
 29 28  1  0
 30 31  1  0
 30 27  1  0
 31 29  2  0
 32 33  1  0
 33 34  2  0
 35 38  1  0
 35 34  1  0
 36 35  2  0
 37 36  1  0
 37 32  2  0
 38 39  1  0
 39 44  2  0
 39 40  1  0
 40 41  2  0
 41 42  1  0
 42 46  1  0
 43 42  2  0
 44 43  1  0
 45 44  1  0
 47 48  1  0
 48 50  1  0
 48 51  1  0
 49 47  2  0
 52 27  1  0
 52 53  1  0
 54 52  1  0
 56 57  1  0
 58 56  1  0
 60 61  1  0
 62 73  2  0
 63 61  1  0
 63 68  1  0
 64 74  1  0
 64 72  1  0
 65 70  1  0
 65 67  1  0
 65 71  1  0
 66 72  1  0
 67 68  1  0
 67 66  1  0
 69 70  1  0
 69 63  1  0
 71 64  1  0
 72 62  1  0
 74 75  1  0
 75 77  1  0
 76 74  2  0
 78 87  2  0
 78 83  1  0
 79 75  1  0
 79 55  1  0
 79 83  1  0
 82 78  1  0
 83 84  2  0
 84 85  1  0
 86 85  2  0
 87 86  1  0
 88 62  1  0
 88 98  1  0
 88 89  1  0
 89 90  1  0
 89 92  1  0
 90 94  1  0
 91 90  2  0
 94 93  1  0
 94 96  1  0
 96 95  1  0
 96 97  1  0
 98 99  1  1
 98101  1  0
100 98  1  0
M  ISO  4  17 100  25 100  60 101  61 101
M  END
>  <TORSDO>  (36) 
F 23

>  <SCORE>  (36) 
-3.529

>  <name>  (36) 
35

>  <ligand_id>  (36) 
35

>  <original_smiles>  (36) 
[H]c1c([H])c([H])c2c(c1[H])C([H])([H])C([H])([H])C([H])([H])C2([H])N([H])C(=O)C1([H])N(C(=O)C([H])(N([H])C(=O)C([H])(N([H])C([H])([H])[H])C([H])([H])[H])C(C([H])([H])[H])(C([H])([H])[H])C([H])([H])[H])C([H])([H])c2c([H])c(OC([H])([H])C([H])([H])[N+]([H])([H])C([H])([H])C3([H])C([H])([H])C([H])([H])C([H])(C([H])([H])[N+]([H])([H])C4([H])C(=O)C([H])(N([H])C(=O)N5C([H])([H])C([H])([H])C([H])([H])C([H])(n6nc(-c7c([H])c([H])c(Oc8c([H])c([H])c(F)c([H])c8F)c([H])c7[H])c(C(=O)N([H])[H])c6N([H])[H])C5([H])[H])C([H])([H])C4([H])[H])C([H])([H])C3([H])[H])c([H])c([H])c2C1([H])[H]

>  <smiles>  (36) 
[H]c1c([H])c([H])c2c(c1[H])C([H])([H])C([H])([H])C([H])([H])C2([H])N([H])C(=O)C1([H])N(C(=O)C([H])(N([H])C(=O)C([H])(N([H])C([H])([H])[H])C([H])([H])[H])C(C([H])([H])[H])(C([H])([H])[H])C([H])([H])[H])C([H])([H])c2c([H])c(OC([H])([H])C([H])([H])[N+]([H])([H])C([H])([H])C3([H])C([H])([H])C([H])([H])C([H])(C([H])([H])[N+]([H])([H])C4([H])C(=O)C([H])(N([H])C(=O)N5C([H])([H])C([H])([H])C([H])([H])C([H])(n6nc(-c7c([H])c([H])c(Oc8c([H])c([H])c(F)c([H])c8F)c([H])c7[H])c(C(=O)N([H])[H])c6N([H])[H])C5([H])[H])C([H])([H])C4([H])[H])C([H])([H])C3([H])[H])c([H])c([H])c2C1([H])[H]

$$$$
36:0:0
     RDKit          3D

 98105  0  0  1  0  0  0  0  0999 V2000
  -23.6800  -22.4720   20.7300 C   0  0  0  0  0  2  0  0  0  0  0  0
  -25.0120  -22.7920   21.4440 C   0  0  0  0  0  2  0  0  0  0  0  0
  -25.4940  -24.2530   21.3050 C   0  0  0  0  0  2  0  0  0  0  0  0
  -26.9690  -24.3400   21.4150 N   0  0  0  0  0  4  0  0  0  0  0  0
  -27.3570  -24.0000   20.5520 H   0  0  0  0  0  0  0  0  0  0  0  0
  -27.2790  -23.7240   22.1520 H   0  0  0  0  0  0  0  0  0  0  0  0
  -27.5130  -25.6910   21.6790 C   0  0  0  0  0  2  0  0  0  0  0  0
  -28.9530  -25.8540   21.1430 C   0  0  0  0  0  2  0  0  0  0  0  0
  -29.0570  -26.0140   19.6080 C   0  0  0  0  0  2  0  0  0  0  0  0
  -28.8200  -27.3590   19.1900 O   0  0  0  0  0  0  0  0  0  0  0  0
  -24.5450  -31.3240   23.2160 C   0  0  0  0  0  0  0  0  0  0  0  0
  -27.5520  -27.8610   19.3510 C   0  0  0  0  0  0  0  0  0  0  0  0
  -23.4300  -30.0520   21.4090 C   0  0  0  0  0  3  0  0  0  0  0  0
  -24.9810  -28.9760   19.6940 C   0  0  0  0  0  0  0  0  0  0  0  0
  -25.8660  -30.7910   21.1720 C   0  0  0  0  0  2  0  0  0  0  0  0
  -26.0900  -29.5640   20.3160 C   0  0  0  0  0  0  0  0  0  0  0  0
  -27.3760  -29.0130   20.1420 C   0  0  0  0  0  3  0  0  0  0  0  0
  -26.4280  -27.2770   18.7250 C   0  0  0  0  0  3  0  0  0  0  0  0
  -25.1440  -27.8280   18.8960 C   0  0  0  0  0  3  0  0  0  0  0  0
  -23.6390  -29.6320   19.9280 C   0  0  0  0  0  2  0  0  0  0  0  0
  -24.6330  -30.7300   21.9910 N   0  0  0  0  0  0  0  0  0  0  0  0
  -23.4760  -31.3520   23.8390 O   0  0  0  0  0  0  0  0  0  0  0  0
  -22.9830  -28.8100   22.2110 C   0  0  0  0  0  0  0  0  0  0  0  0
  -21.7250  -28.3860   22.0010 N   0  0  0  0  0  0  0  0  0  0  0  0
  -23.7640  -28.2350   22.9760 O   0  0  0  0  0  0  0  0  0  0  0  0
  -21.1420  -28.9260   21.3750 H   0  0  0  0  0  0  0  0  0  0  0  0
  -18.7370  -26.3640   22.0190 C   0  0  0  0  0  0  0  0  0  0  0  0
  -21.1030  -27.2140   22.6120 C   0  0  0  0  0  3  0  0  0  0  0  0
  -21.6270  -25.9080   21.9680 C   0  0  0  0  0  2  0  0  0  0  0  0
  -20.7470  -25.4060   20.8170 C   0  0  0  0  0  2  0  0  0  0  0  0
  -19.3150  -25.1580   21.2990 C   0  0  0  0  0  2  0  0  0  0  0  0
  -19.5790  -27.3350   22.6230 C   0  0  0  0  0  0  0  0  0  0  0  0
  -18.9920  -28.4540   23.2530 C   0  0  0  0  0  3  0  0  0  0  0  0
  -17.5940  -28.6070   23.2940 C   0  0  0  0  0  3  0  0  0  0  0  0
  -16.7650  -27.6350   22.7090 C   0  0  0  0  0  3  0  0  0  0  0  0
  -17.3370  -26.5150   22.0780 C   0  0  0  0  0  3  0  0  0  0  0  0
  -25.7770  -32.0170   23.8800 C   0  0  0  0  0  3  0  0  0  0  0  0
  -25.3900  -33.4020   24.1790 N   0  0  0  0  0  0  0  0  0  0  0  0
  -25.7460  -34.4660   23.4480 C   0  0  0  0  0  0  0  0  0  0  0  0
  -26.5020  -34.3890   22.4750 O   0  0  0  0  0  0  0  0  0  0  0  0
  -24.7170  -33.5300   24.9200 H   0  0  0  0  0  0  0  0  0  0  0  0
  -24.0020  -36.2050   22.9280 C   0  0  0  0  0  1  0  0  0  0  0  0
  -25.1670  -35.8340   23.8580 C   0  0  0  0  0  3  0  0  0  0  0  0
  -27.1760  -36.7820   24.9040 C   0  0  0  0  0  1  0  0  0  0  0  0
  -26.1700  -36.9200   23.8540 N   0  0  0  0  0  0  0  0  0  0  0  0
  -25.7210  -37.8260   23.9600 H   0  0  0  0  0  0  0  0  0  0  0  0
  -26.2810  -31.2790   25.1800 C   0  0  1  0  0  0  0  0  0  0  0  0
  -25.1610  -30.9880   26.2060 C   0  0  0  0  0  1  0  0  0  0  0  0
  -26.9570  -29.9360   24.8190 C   0  0  0  0  0  1  0  0  0  0  0  0
  -27.3560  -32.1360   25.8890 C   0  0  0  0  0  1  0  0  0  0  0  0
  -23.6680  -22.6260   19.1910 C   0  0  0  0  0  2  0  0  0  0  0  0
  -24.5630  -21.6330   18.4270 C   0  0  0  0  0  2  0  0  0  0  0  0
  -25.9490  -22.2040   18.0550 C   0  0  0  0  0  2  0  0  0  0  0  0
  -27.0560  -21.1530   17.8420 C   0  0  0  0  0  2  0  0  0  0  0  0
  -27.2560  -20.2240   19.0590 C   0  0  0  0  0  2  0  0  0  0  0  0
  -28.5900  -19.5900   19.1000 N   0  0  0  0  0  4  0  0  0  0  0  0
  -28.7760  -19.2020   18.1910 H   0  0  0  0  0  0  0  0  0  0  0  0
  -29.2900  -20.2930   19.2870 H   0  0  0  0  0  0  0  0  0  0  0  0
  -28.6780  -18.5040   20.1010 C   0  0  0  0  0  2  0  0  0  0  0  0
  -30.1090  -17.9900   20.3340 C   0  0  0  0  0  2  0  0  0  0  0  0
  -30.9290  -15.7700   21.0280 C   0  0  0  0  0  0  0  0  0  0  0  0
  -30.9540  -13.4070   20.3660 C   0  0  0  0  0  2  0  0  0  0  0  0
  -30.2240  -13.2950   19.0100 C   0  0  0  0  0  2  0  0  0  0  0  0
  -28.7080  -13.1110   19.2240 C   0  0  0  0  0  2  0  0  0  0  0  0
  -28.1160  -14.1550   20.2070 C   0  0  0  0  0  3  0  0  0  0  0  0
  -28.9730  -14.2530   21.4940 C   0  0  0  0  0  2  0  0  0  0  0  0
  -30.3650  -14.5380   21.0970 N   0  0  0  0  0  0  0  0  0  0  0  0
  -32.0890  -15.9810   20.6670 O   0  0  0  0  0  0  0  0  0  0  0  0
  -30.0540  -16.7710   21.1390 N   0  0  0  0  0  0  0  0  0  0  0  0
  -29.1530  -16.5130   21.5100 H   0  0  0  0  0  0  0  0  0  0  0  0
  -25.6430  -14.7340   20.6480 C   0  0  0  0  0  0  0  0  0  0  0  0
  -24.5440  -13.9490   20.8570 C   0  0  0  0  0  0  0  0  0  0  0  0
  -25.0100  -12.5990   20.8160 C   0  0  0  0  0  0  0  0  0  0  0  0
  -26.7130  -13.8650   20.5040 N   0  0  0  0  0  0  0  0  0  0  0  0
  -26.3270  -12.5720   20.6600 N   0  0  0  0  0  0  0  0  0  0  0  0
  -24.2720  -11.3300   20.8580 C   0  0  0  0  0  0  0  0  0  0  0  0
  -24.5790  -10.3310   21.8070 C   0  0  0  0  0  3  0  0  0  0  0  0
  -23.8460   -9.1250   21.8390 C   0  0  0  0  0  3  0  0  0  0  0  0
  -22.7900   -8.9120   20.9210 C   0  0  0  0  0  0  0  0  0  0  0  0
  -22.5030   -9.9010   19.9640 C   0  0  0  0  0  3  0  0  0  0  0  0
  -23.2380  -11.0970   19.9300 C   0  0  0  0  0  3  0  0  0  0  0  0
  -22.0400   -7.7610   20.8630 O   0  0  0  0  0  0  0  0  0  0  0  0
  -21.7530   -7.0320   21.9870 C   0  0  0  0  0  0  0  0  0  0  0  0
  -21.0590   -7.5920   23.0830 C   0  0  0  0  0  3  0  0  0  0  0  0
  -20.7270   -6.7870   24.1910 C   0  0  0  0  0  3  0  0  0  0  0  0
  -21.0760   -5.4240   24.2020 C   0  0  0  0  0  0  0  0  0  0  0  0
  -21.7630   -4.8640   23.1100 C   0  0  0  0  0  3  0  0  0  0  0  0
  -22.0970   -5.6650   22.0040 C   0  0  0  0  0  0  0  0  0  0  0  0
  -22.7400   -5.1150   20.9460 F   0  0  0  0  0  0  0  0  0  0  0  0
  -20.7490   -4.6490   25.2610 F   0  0  0  0  0  0  0  0  0  0  0  0
  -23.1220  -14.4130   20.9850 C   0  0  0  0  0  0  0  0  0  0  0  0
  -22.3070  -13.6790   21.7320 N   0  0  0  0  0  0  0  0  0  0  0  0
  -22.7430  -15.4600   20.4600 O   0  0  0  0  0  0  0  0  0  0  0  0
  -22.6310  -12.8300   22.1690 H   0  0  0  0  0  0  0  0  0  0  0  0
  -21.3480  -13.9720   21.8650 H   0  0  0  0  0  0  0  0  0  0  0  0
  -25.8220  -16.1100   20.5300 N   0  0  0  0  0  0  0  0  0  0  0  0
  -24.9920  -16.6850   20.4380 H   0  0  0  0  0  0  0  0  0  0  0  0
  -26.5800  -16.4340   19.9460 H   0  0  0  0  0  0  0  0  0  0  0  0
  1  2  1  0
  3  4  1  0
  3  2  1  0
  4  7  1  0
  4  6  1  0
  5  4  1  0
  8  7  1  0
  9  8  1  0
 10 12  1  0
 10  9  1  0
 11 22  2  0
 12 17  1  0
 13 21  1  0
 13 23  1  0
 14 20  1  0
 14 16  1  0
 15 21  1  0
 16 15  1  0
 17 16  2  0
 18 19  1  0
 18 12  2  0
 19 14  2  0
 20 13  1  0
 21 11  1  0
 23 25  2  0
 24 23  1  0
 26 24  1  0
 27 36  2  0
 27 32  1  0
 28 24  1  0
 28 32  1  0
 29 28  1  0
 30 31  1  0
 30 29  1  0
 31 27  1  0
 32 33  2  0
 33 34  1  0
 35 34  2  0
 36 35  1  0
 37 11  1  0
 37 38  1  0
 37 47  1  0
 38 41  1  0
 39 43  1  0
 39 38  1  0
 40 39  2  0
 43 42  1  0
 45 43  1  0
 45 46  1  0
 45 44  1  0
 47 50  1  1
 47 48  1  0
 49 47  1  0
 51  1  1  0
 52 51  1  0
 53 52  1  0
 54 53  1  0
 54 55  1  0
 55 56  1  0
 56 58  1  0
 56 59  1  0
 57 56  1  0
 59 60  1  0
 60 69  1  0
 61 67  1  0
 61 69  1  0
 62 67  1  0
 63 64  1  0
 63 62  1  0
 65 64  1  0
 65 74  1  0
 65 66  1  0
 67 66  1  0
 68 61  2  0
 69 70  1  0
 71 72  2  0
 72 91  1  0
 73 72  1  0
 73 76  1  0
 74 71  1  0
 74 75  1  0
 75 73  2  0
 76 77  1  0
 77 78  2  0
 79 78  1  0
 80 79  2  0
 81 80  1  0
 81 76  2  0
 82 79  1  0
 82 83  1  0
 83 88  2  0
 83 84  1  0
 84 85  2  0
 85 86  1  0
 86 90  1  0
 87 86  2  0
 88 87  1  0
 89 88  1  0
 91 92  1  0
 92 95  1  0
 92 94  1  0
 93 91  2  0
 96 71  1  0
 97 96  1  0
 98 96  1  0
M  ISO  4   9 101  10 101  61 100  69 100
M  END
>  <TORSDO>  (37) 
F 30

>  <SCORE>  (37) 
-6.397

>  <name>  (37) 
36

>  <ligand_id>  (37) 
36

>  <original_smiles>  (37) 
[H]c1c([H])c([H])c2c(c1[H])C([H])([H])C([H])([H])C([H])([H])C2([H])N([H])C(=O)C1([H])N(C(=O)C([H])(N([H])C(=O)C([H])(N([H])C([H])([H])[H])C([H])([H])[H])C(C([H])([H])[H])(C([H])([H])[H])C([H])([H])[H])C([H])([H])c2c([H])c(OC([H])([H])C([H])([H])C([H])([H])[N+]([H])([H])C([H])([H])C([H])([H])C([H])([H])C([H])([H])C([H])([H])C([H])([H])C([H])([H])C([H])([H])[N+]([H])([H])C([H])([H])C([H])([H])N([H])C(=O)N3C([H])([H])C([H])([H])C([H])([H])C([H])(n4nc(-c5c([H])c([H])c(Oc6c([H])c([H])c(F)c([H])c6F)c([H])c5[H])c(C(=O)N([H])[H])c4N([H])[H])C3([H])[H])c([H])c([H])c2C1([H])[H]

>  <smiles>  (37) 
[H]c1c([H])c([H])c2c(c1[H])C([H])([H])C([H])([H])C([H])([H])C2([H])N([H])C(=O)C1([H])N(C(=O)C([H])(N([H])C(=O)C([H])(N([H])C([H])([H])[H])C([H])([H])[H])C(C([H])([H])[H])(C([H])([H])[H])C([H])([H])[H])C([H])([H])c2c([H])c(OC([H])([H])C([H])([H])C([H])([H])[N+]([H])([H])C([H])([H])C([H])([H])C([H])([H])C([H])([H])C([H])([H])C([H])([H])C([H])([H])C([H])([H])[N+]([H])([H])C([H])([H])C([H])([H])N([H])C(=O)N3C([H])([H])C([H])([H])C([H])([H])C([H])(n4nc(-c5c([H])c([H])c(Oc6c([H])c([H])c(F)c([H])c6F)c([H])c5[H])c(C(=O)N([H])[H])c4N([H])[H])C3([H])[H])c([H])c([H])c2C1([H])[H]

$$$$
37:0:0
     RDKit          3D

 94103  0  0  1  0  0  0  0  0999 V2000
  -30.9010  -25.2550   19.0130 C   0  0  0  0  0  2  0  0  0  0  0  0
  -29.8570  -25.0930   17.9020 C   0  0  0  0  0  2  0  0  0  0  0  0
  -30.5280  -24.2410   20.1090 C   0  0  0  0  0  2  0  0  0  0  0  0
  -29.0590  -23.8480   18.2850 C   0  0  0  0  0  2  0  0  0  0  0  0
  -29.0760  -23.7750   19.8260 C   0  0  1  0  0  0  0  0  0  0  0  0
  -28.7940  -22.1960   20.2460 C   0  0  0  0  0  2  0  0  0  0  0  0
  -30.3650  -20.1150   20.7350 C   0  0  0  0  0  0  0  0  0  0  0  0
  -31.7930  -19.9360   21.2670 C   0  0  0  0  0  0  0  0  0  0  0  0
  -29.6760  -18.7020   20.3310 C   0  0  0  0  0  2  0  0  0  0  0  0
  -32.2000  -18.6240   21.9270 C   0  0  0  0  0  2  0  0  0  0  0  0
  -31.8190  -17.4160   21.0830 C   0  0  0  0  0  2  0  0  0  0  0  0
  -30.2920  -17.3130   20.9540 C   0  0  0  0  0  3  0  0  0  0  0  0
  -29.9970  -21.3920   20.6650 N   0  0  0  0  0  0  0  0  0  0  0  0
  -32.6290  -20.8490   21.2390 O   0  0  0  0  0  0  0  0  0  0  0  0
  -30.5360  -14.7670   20.1230 C   0  0  0  0  0  0  0  0  0  0  0  0
  -30.2500  -12.5320   19.0390 C   0  0  0  0  0  2  0  0  0  0  0  0
  -29.2650  -12.6460   17.8560 C   0  0  0  0  0  2  0  0  0  0  0  0
  -27.8160  -12.4540   18.3470 C   0  0  0  0  0  2  0  0  0  0  0  0
  -27.4950  -13.3120   19.6010 C   0  0  0  0  0  3  0  0  0  0  0  0
  -28.6000  -13.2040   20.6730 C   0  0  0  0  0  2  0  0  0  0  0  0
  -29.8700  -13.5640   20.0300 N   0  0  0  0  0  0  0  0  0  0  0  0
  -31.6980  -14.8410   19.7190 O   0  0  0  0  0  0  0  0  0  0  0  0
  -29.8380  -15.9030   20.5200 N   0  0  0  0  0  0  0  0  0  0  0  0
  -28.8630  -15.7150   20.7050 H   0  0  0  0  0  0  0  0  0  0  0  0
  -25.1340  -13.8750   20.4310 C   0  0  0  0  0  0  0  0  0  0  0  0
  -24.0910  -13.0900   20.8400 C   0  0  0  0  0  0  0  0  0  0  0  0
  -24.5660  -11.7440   20.7830 C   0  0  0  0  0  0  0  0  0  0  0  0
  -26.1750  -13.0100   20.1450 N   0  0  0  0  0  0  0  0  0  0  0  0
  -25.8430  -11.7210   20.4180 N   0  0  0  0  0  0  0  0  0  0  0  0
  -23.8580  -10.4730   20.9940 C   0  0  0  0  0  0  0  0  0  0  0  0
  -24.3180   -9.5160   21.9250 C   0  0  0  0  0  3  0  0  0  0  0  0
  -23.6080   -8.3110   22.1230 C   0  0  0  0  0  3  0  0  0  0  0  0
  -22.4230   -8.0570   21.3880 C   0  0  0  0  0  0  0  0  0  0  0  0
  -21.9850   -9.0030   20.4460 C   0  0  0  0  0  3  0  0  0  0  0  0
  -22.6970  -10.1980   20.2450 C   0  0  0  0  0  3  0  0  0  0  0  0
  -21.6830   -6.9030   21.4950 O   0  0  0  0  0  0  0  0  0  0  0  0
  -21.6560   -6.1710   22.6560 C   0  0  0  0  0  0  0  0  0  0  0  0
  -21.2310   -6.7320   23.8800 C   0  0  0  0  0  3  0  0  0  0  0  0
  -21.1510   -5.9250   25.0320 C   0  0  0  0  0  3  0  0  0  0  0  0
  -21.4860   -4.5590   24.9610 C   0  0  0  0  0  0  0  0  0  0  0  0
  -21.9080   -3.9990   23.7420 C   0  0  0  0  0  3  0  0  0  0  0  0
  -21.9880   -4.8040   22.5920 C   0  0  0  0  0  0  0  0  0  0  0  0
  -22.3730   -4.2550   21.4140 F   0  0  0  0  0  0  0  0  0  0  0  0
  -21.4040   -3.7820   26.0660 F   0  0  0  0  0  0  0  0  0  0  0  0
  -22.7020  -13.5540   21.1680 C   0  0  0  0  0  0  0  0  0  0  0  0
  -22.0090  -12.8480   22.0570 N   0  0  0  0  0  0  0  0  0  0  0  0
  -22.2370  -14.5780   20.6710 O   0  0  0  0  0  0  0  0  0  0  0  0
  -22.3990  -12.0230   22.4890 H   0  0  0  0  0  0  0  0  0  0  0  0
  -21.0780  -13.1430   22.3130 H   0  0  0  0  0  0  0  0  0  0  0  0
  -25.2760  -15.2490   20.2560 N   0  0  0  0  0  0  0  0  0  0  0  0
  -24.5050  -15.8910   20.4010 H   0  0  0  0  0  0  0  0  0  0  0  0
  -26.1000  -15.7010   19.8840 H   0  0  0  0  0  0  0  0  0  0  0  0
  -28.0630  -24.9260   20.4030 C   0  0  0  0  0  2  0  0  0  0  0  0
  -28.2680  -26.4090   20.1610 O   0  0  0  0  0  0  0  0  0  0  0  0
  -24.6060  -31.8940   23.2470 C   0  0  0  0  0  0  0  0  0  0  0  0
  -27.1650  -27.2970   20.1510 C   0  0  0  0  0  0  0  0  0  0  0  0
  -23.3840  -30.5100   21.6120 C   0  0  0  0  0  3  0  0  0  0  0  0
  -24.8160  -28.9580   20.1620 C   0  0  0  0  0  0  0  0  0  0  0  0
  -25.9270  -30.8070   21.4090 C   0  0  0  0  0  2  0  0  0  0  0  0
  -25.9950  -29.4270   20.7540 C   0  0  0  0  0  0  0  0  0  0  0  0
  -27.1740  -28.6120   20.7330 C   0  0  0  0  0  3  0  0  0  0  0  0
  -25.9670  -26.9020   19.5200 C   0  0  0  0  0  3  0  0  0  0  0  0
  -24.8070  -27.7030   19.5330 C   0  0  0  0  0  3  0  0  0  0  0  0
  -23.5850  -29.8430   20.2270 C   0  0  0  0  0  2  0  0  0  0  0  0
  -24.6600  -31.0890   22.1450 N   0  0  0  0  0  0  0  0  0  0  0  0
  -23.5270  -32.1720   23.7910 O   0  0  0  0  0  0  0  0  0  0  0  0
  -22.7270  -29.4890   22.5730 C   0  0  0  0  0  0  0  0  0  0  0  0
  -21.4020  -29.3040   22.4470 N   0  0  0  0  0  0  0  0  0  0  0  0
  -23.4110  -28.8680   23.3920 O   0  0  0  0  0  0  0  0  0  0  0  0
  -20.9100  -29.8570   21.7590 H   0  0  0  0  0  0  0  0  0  0  0  0
  -18.0360  -28.0710   22.9450 C   0  0  0  0  0  0  0  0  0  0  0  0
  -20.5900  -28.3620   23.2210 C   0  0  0  0  0  3  0  0  0  0  0  0
  -20.7110  -26.9290   22.6540 C   0  0  0  0  0  2  0  0  0  0  0  0
  -19.6150  -26.5880   21.6380 C   0  0  0  0  0  2  0  0  0  0  0  0
  -18.2290  -26.7210   22.2760 C   0  0  0  0  0  2  0  0  0  0  0  0
  -19.1450  -28.8490   23.3740 C   0  0  0  0  0  0  0  0  0  0  0  0
  -18.9090  -30.1120   23.9600 C   0  0  0  0  0  3  0  0  0  0  0  0
  -17.5980  -30.5970   24.1220 C   0  0  0  0  0  3  0  0  0  0  0  0
  -16.5030  -29.8180   23.7060 C   0  0  0  0  0  3  0  0  0  0  0  0
  -16.7240  -28.5570   23.1230 C   0  0  0  0  0  3  0  0  0  0  0  0
  -25.8950  -32.5240   23.8600 C   0  0  0  0  0  3  0  0  0  0  0  0
  -26.4110  -31.7550   25.1380 C   0  0  1  0  0  0  0  0  0  0  0  0
  -25.3230  -31.5290   26.2130 C   0  0  0  0  0  1  0  0  0  0  0  0
  -26.9840  -30.3710   24.7540 C   0  0  0  0  0  1  0  0  0  0  0  0
  -27.5690  -32.5450   25.7910 C   0  0  0  0  0  1  0  0  0  0  0  0
  -25.5920  -33.9250   24.1890 N   0  0  0  0  0  0  0  0  0  0  0  0
  -25.9180  -34.9760   23.4250 C   0  0  0  0  0  0  0  0  0  0  0  0
  -26.5740  -34.8670   22.3860 O   0  0  0  0  0  0  0  0  0  0  0  0
  -25.0070  -34.0830   24.9970 H   0  0  0  0  0  0  0  0  0  0  0  0
  -24.1920  -36.7760   23.0850 C   0  0  0  0  0  1  0  0  0  0  0  0
  -25.4400  -36.3670   23.8850 C   0  0  0  0  0  3  0  0  0  0  0  0
  -27.5850  -37.2470   24.6920 C   0  0  0  0  0  1  0  0  0  0  0  0
  -26.4760  -37.4160   23.7590 N   0  0  0  0  0  0  0  0  0  0  0  0
  -26.0730  -38.3390   23.9040 H   0  0  0  0  0  0  0  0  0  0  0  0
  1  3  1  0
  2  4  1  0
  2  1  1  0
  4  5  1  0
  5  3  1  0
  5  6  1  6
  5 53  1  0
  6 13  1  0
  7  8  1  0
  8 10  1  0
  9  7  1  0
  9 12  1  0
 11 10  1  0
 12 23  1  0
 12 11  1  0
 13  7  2  0
 14  8  2  0
 15 23  1  0
 16 21  1  0
 17 18  1  0
 17 16  1  0
 19 18  1  0
 19 28  1  0
 19 20  1  0
 21 15  1  0
 21 20  1  0
 22 15  2  0
 23 24  1  0
 25 26  2  0
 26 45  1  0
 27 26  1  0
 27 30  1  0
 28 29  1  0
 28 25  1  0
 29 27  2  0
 30 31  1  0
 31 32  2  0
 33 36  1  0
 33 32  1  0
 34 33  2  0
 35 34  1  0
 35 30  2  0
 36 37  1  0
 37 38  1  0
 38 39  2  0
 40 39  1  0
 40 44  1  0
 41 40  2  0
 42 37  2  0
 42 41  1  0
 43 42  1  0
 45 46  1  0
 46 49  1  0
 46 48  1  0
 47 45  2  0
 50 51  1  0
 50 25  1  0
 52 50  1  0
 54 53  1  0
 55 66  2  0
 56 54  1  0
 56 61  1  0
 57 65  1  0
 57 67  1  0
 58 64  1  0
 58 60  1  0
 59 65  1  0
 60 59  1  0
 61 60  2  0
 62 63  1  0
 62 56  2  0
 63 58  2  0
 64 57  1  0
 65 55  1  0
 67 69  2  0
 68 67  1  0
 70 68  1  0
 71 80  2  0
 71 76  1  0
 72 68  1  0
 72 76  1  0
 73 72  1  0
 74 75  1  0
 74 73  1  0
 75 71  1  0
 76 77  2  0
 77 78  1  0
 79 78  2  0
 80 79  1  0
 81 55  1  0
 81 86  1  0
 81 82  1  0
 82 85  1  1
 82 83  1  0
 84 82  1  0
 86 89  1  0
 87 91  1  0
 87 86  1  0
 88 87  2  0
 91 90  1  0
 93 91  1  0
 93 94  1  0
 93 92  1  0
M  ISO  4  15 100  23 100  53 101  54 101
M  END
>  <TORSDO>  (38) 
F 19

>  <SCORE>  (38) 
-14.165

>  <name>  (38) 
37

>  <ligand_id>  (38) 
37

>  <original_smiles>  (38) 
[H]c1c([H])c([H])c2c(c1[H])C([H])([H])C([H])([H])C([H])([H])C2([H])N([H])C(=O)C1([H])N(C(=O)C([H])(N([H])C(=O)C([H])(N([H])C([H])([H])[H])C([H])([H])[H])C(C([H])([H])[H])(C([H])([H])[H])C([H])([H])[H])C([H])([H])c2c([H])c(OC([H])([H])C3(C([H])([H])N=C4C(=O)C([H])([H])C([H])([H])C([H])(N([H])C(=O)N5C([H])([H])C([H])([H])C([H])([H])C([H])(n6nc(-c7c([H])c([H])c(Oc8c([H])c([H])c(F)c([H])c8F)c([H])c7[H])c(C(=O)N([H])[H])c6N([H])[H])C5([H])[H])C4([H])[H])C([H])([H])C([H])([H])C([H])([H])C3([H])[H])c([H])c([H])c2C1([H])[H]

>  <smiles>  (38) 
[H]c1c([H])c([H])c2c(c1[H])C([H])([H])C([H])([H])C([H])([H])C2([H])N([H])C(=O)C1([H])N(C(=O)C([H])(N([H])C(=O)C([H])(N([H])C([H])([H])[H])C([H])([H])[H])C(C([H])([H])[H])(C([H])([H])[H])C([H])([H])[H])C([H])([H])c2c([H])c(OC([H])([H])C3(C([H])([H])N=C4C(=O)C([H])([H])C([H])([H])C([H])(N([H])C(=O)N5C([H])([H])C([H])([H])C([H])([H])C([H])(n6nc(-c7c([H])c([H])c(Oc8c([H])c([H])c(F)c([H])c8F)c([H])c7[H])c(C(=O)N([H])[H])c6N([H])[H])C5([H])[H])C4([H])[H])C([H])([H])C([H])([H])C([H])([H])C3([H])[H])c([H])c([H])c2C1([H])[H]

$$$$
38:0:0
     RDKit          3D

 95104  0  0  1  0  0  0  0  0999 V2000
  -28.0840  -21.6370   19.9050 C   0  0  0  0  0  2  0  0  0  0  0  0
  -28.6140  -21.0980   17.4880 C   0  0  0  0  0  2  0  0  0  0  0  0
  -27.0170  -22.5250   19.2040 C   0  0  0  0  0  2  0  0  0  0  0  0
  -28.7410  -22.6360   17.4000 C   0  0  0  0  0  2  0  0  0  0  0  0
  -28.7300  -20.5920   18.9480 C   0  0  0  0  0  3  0  0  0  0  0  0
  -27.5780  -23.3020   18.0530 N   0  0  2  0  0  4  0  0  0  0  0  0
  -26.8540  -23.2200   17.3530 H   0  0  0  0  0  0  0  0  0  0  0  0
  -30.2000  -20.2300   19.3130 C   0  0  0  0  0  2  0  0  0  0  0  0
  -31.0010  -17.8090   19.6170 C   0  0  0  0  0  3  0  0  0  0  0  0
  -30.4290  -18.9260   20.0720 C   0  0  0  0  0  0  0  0  0  0  0  0
  -30.2760  -18.8040   21.5220 C   0  0  0  0  0  0  0  0  0  0  0  0
  -30.7790  -17.4360   21.9860 C   0  0  0  0  0  2  0  0  0  0  0  0
  -31.3860  -16.8210   20.7020 C   0  0  0  0  0  3  0  0  0  0  0  0
  -29.8180  -19.6500   22.2940 O   0  0  0  0  0  0  0  0  0  0  0  0
  -31.5580  -14.4590   19.8740 C   0  0  0  0  0  0  0  0  0  0  0  0
  -31.1670  -12.2050   18.9540 C   0  0  0  0  0  2  0  0  0  0  0  0
  -30.2000  -12.3230   17.7590 C   0  0  0  0  0  2  0  0  0  0  0  0
  -28.7310  -12.2980   18.2340 C   0  0  0  0  0  2  0  0  0  0  0  0
  -28.4690  -13.2990   19.3890 C   0  0  0  0  0  3  0  0  0  0  0  0
  -29.5300  -13.1090   20.4970 C   0  0  0  0  0  2  0  0  0  0  0  0
  -30.8560  -13.3000   19.8790 N   0  0  0  0  0  0  0  0  0  0  0  0
  -32.6490  -14.6120   19.3140 O   0  0  0  0  0  0  0  0  0  0  0  0
  -30.9020  -15.4690   20.4630 N   0  0  0  0  0  0  0  0  0  0  0  0
  -29.9960  -15.2280   20.8330 H   0  0  0  0  0  0  0  0  0  0  0  0
  -26.1710  -14.1500   20.1810 C   0  0  0  0  0  0  0  0  0  0  0  0
  -25.0490  -13.4850   20.5940 C   0  0  0  0  0  0  0  0  0  0  0  0
  -25.3750  -12.0960   20.5530 C   0  0  0  0  0  0  0  0  0  0  0  0
  -27.1140  -13.1680   19.9160 N   0  0  0  0  0  0  0  0  0  0  0  0
  -26.6410  -11.9290   20.2000 N   0  0  0  0  0  0  0  0  0  0  0  0
  -24.5410  -10.9100   20.7740 C   0  0  0  0  0  0  0  0  0  0  0  0
  -24.8860   -9.9410   21.7410 C   0  0  0  0  0  3  0  0  0  0  0  0
  -24.0600   -8.8160   21.9530 C   0  0  0  0  0  3  0  0  0  0  0  0
  -22.8790   -8.6520   21.1930 C   0  0  0  0  0  0  0  0  0  0  0  0
  -22.5530   -9.6070   20.2160 C   0  0  0  0  0  3  0  0  0  0  0  0
  -23.3770  -10.7230   20.0030 C   0  0  0  0  0  3  0  0  0  0  0  0
  -22.0320   -7.5770   21.3100 O   0  0  0  0  0  0  0  0  0  0  0  0
  -21.8650   -6.9210   22.5030 C   0  0  0  0  0  0  0  0  0  0  0  0
  -21.4310   -7.5910   23.6670 C   0  0  0  0  0  3  0  0  0  0  0  0
  -21.1960   -6.8650   24.8510 C   0  0  0  0  0  3  0  0  0  0  0  0
  -21.3950   -5.4710   24.8740 C   0  0  0  0  0  0  0  0  0  0  0  0
  -21.8260   -4.8020   23.7150 C   0  0  0  0  0  3  0  0  0  0  0  0
  -22.0560   -5.5250   22.5320 C   0  0  0  0  0  0  0  0  0  0  0  0
  -22.4470   -4.8720   21.4110 F   0  0  0  0  0  0  0  0  0  0  0  0
  -21.1660   -4.7720   26.0100 F   0  0  0  0  0  0  0  0  0  0  0  0
  -23.7140  -14.0930   20.9160 C   0  0  0  0  0  0  0  0  0  0  0  0
  -22.9730  -13.4790   21.8300 N   0  0  0  0  0  0  0  0  0  0  0  0
  -23.3410  -15.1420   20.3940 O   0  0  0  0  0  0  0  0  0  0  0  0
  -23.2970  -12.6250   22.2640 H   0  0  0  0  0  0  0  0  0  0  0  0
  -22.0760  -13.8610   22.0970 H   0  0  0  0  0  0  0  0  0  0  0  0
  -26.4650  -15.4970   19.9900 N   0  0  0  0  0  0  0  0  0  0  0  0
  -25.7710  -16.2230   20.1240 H   0  0  0  0  0  0  0  0  0  0  0  0
  -27.3420  -15.8500   19.6280 H   0  0  0  0  0  0  0  0  0  0  0  0
  -27.7050  -24.7910   18.2100 C   0  0  0  0  0  3  0  0  0  0  0  0
  -28.1390  -25.3020   19.6200 C   0  0  0  0  0  3  0  0  0  0  0  0
  -28.1630  -26.7360   19.7850 O   0  0  0  0  0  0  0  0  0  0  0  0
  -24.5920  -31.9160   23.2000 C   0  0  0  0  0  0  0  0  0  0  0  0
  -26.9770  -27.4430   19.9180 C   0  0  0  0  0  0  0  0  0  0  0  0
  -23.2760  -30.5700   21.6050 C   0  0  0  0  0  3  0  0  0  0  0  0
  -24.6150  -29.0120   20.1050 C   0  0  0  0  0  0  0  0  0  0  0  0
  -25.8030  -30.8620   21.2930 C   0  0  0  0  0  2  0  0  0  0  0  0
  -25.8200  -29.5030   20.6210 C   0  0  0  0  0  0  0  0  0  0  0  0
  -27.0040  -28.7300   20.5120 C   0  0  0  0  0  3  0  0  0  0  0  0
  -25.7290  -26.9500   19.4650 C   0  0  0  0  0  3  0  0  0  0  0  0
  -24.5650  -27.7340   19.5330 C   0  0  0  0  0  3  0  0  0  0  0  0
  -23.4030  -29.9060   20.2100 C   0  0  0  0  0  2  0  0  0  0  0  0
  -24.5790  -31.1280   22.0890 N   0  0  0  0  0  0  0  0  0  0  0  0
  -23.5430  -32.2070   23.7940 O   0  0  0  0  0  0  0  0  0  0  0  0
  -22.6430  -29.5500   22.5800 C   0  0  0  0  0  0  0  0  0  0  0  0
  -21.3230  -29.3400   22.4580 N   0  0  0  0  0  0  0  0  0  0  0  0
  -23.3390  -28.9480   23.4030 O   0  0  0  0  0  0  0  0  0  0  0  0
  -20.8090  -29.8910   21.7860 H   0  0  0  0  0  0  0  0  0  0  0  0
  -17.9990  -27.9910   22.8730 C   0  0  0  0  0  0  0  0  0  0  0  0
  -20.5290  -28.3800   23.2240 C   0  0  0  0  0  3  0  0  0  0  0  0
  -20.7270  -26.9430   22.6880 C   0  0  0  0  0  2  0  0  0  0  0  0
  -19.6720  -26.5270   21.6590 C   0  0  0  0  0  2  0  0  0  0  0  0
  -18.2650  -26.6300   22.2540 C   0  0  0  0  0  2  0  0  0  0  0  0
  -19.0620  -28.8210   23.3150 C   0  0  0  0  0  0  0  0  0  0  0  0
  -18.7650  -30.0950   23.8450 C   0  0  0  0  0  3  0  0  0  0  0  0
  -17.4350  -30.5480   23.9320 C   0  0  0  0  0  3  0  0  0  0  0  0
  -16.3830  -29.7140   23.5080 C   0  0  0  0  0  3  0  0  0  0  0  0
  -16.6640  -28.4390   22.9860 C   0  0  0  0  0  3  0  0  0  0  0  0
  -25.9200  -32.5080   23.7670 C   0  0  0  0  0  3  0  0  0  0  0  0
  -26.4910  -31.6920   24.9910 C   0  0  1  0  0  0  0  0  0  0  0  0
  -25.4450  -31.4300   26.1000 C   0  0  0  0  0  1  0  0  0  0  0  0
  -27.0430  -30.3240   24.5230 C   0  0  0  0  0  1  0  0  0  0  0  0
  -27.6810  -32.4560   25.6180 C   0  0  0  0  0  1  0  0  0  0  0  0
  -25.6530  -33.8990   24.1510 N   0  0  0  0  0  0  0  0  0  0  0  0
  -25.9740  -34.9660   23.4060 C   0  0  0  0  0  0  0  0  0  0  0  0
  -26.5980  -34.8820   22.3440 O   0  0  0  0  0  0  0  0  0  0  0  0
  -25.0920  -34.0430   24.9770 H   0  0  0  0  0  0  0  0  0  0  0  0
  -24.2700  -36.8010   23.1760 C   0  0  0  0  0  1  0  0  0  0  0  0
  -25.5330  -36.3470   23.9240 C   0  0  0  0  0  3  0  0  0  0  0  0
  -27.7140  -37.1640   24.7020 C   0  0  0  0  0  1  0  0  0  0  0  0
  -26.5830  -37.3840   23.8060 N   0  0  0  0  0  0  0  0  0  0  0  0
  -26.2020  -38.3070   23.9990 H   0  0  0  0  0  0  0  0  0  0  0  0
  2  5  1  0
  3  1  1  0
  4  2  1  0
  4  6  1  0
  5  8  1  0
  5  1  1  0
  6 53  1  0
  6  3  1  0
  6  7  1  6
  8 10  1  0
  9 10  2  0
  9 13  1  0
 10 11  1  0
 11 12  1  0
 11 14  2  0
 13 23  1  0
 13 12  1  0
 15 21  1  0
 15 23  1  0
 16 21  1  0
 17 18  1  0
 17 16  1  0
 19 18  1  0
 19 28  1  0
 19 20  1  0
 21 20  1  0
 22 15  2  0
 23 24  1  0
 25 26  2  0
 26 45  1  0
 27 26  1  0
 27 30  1  0
 28 25  1  0
 28 29  1  0
 29 27  2  0
 30 31  1  0
 31 32  2  0
 33 36  1  0
 33 32  1  0
 34 33  2  0
 35 34  1  0
 35 30  2  0
 36 37  1  0
 37 42  2  0
 37 38  1  0
 38 39  2  0
 39 40  1  0
 40 44  1  0
 41 40  2  0
 42 41  1  0
 43 42  1  0
 45 46  1  0
 46 49  1  0
 46 48  1  0
 47 45  2  0
 50 51  1  0
 50 25  1  0
 52 50  1  0
 53 54  2  0
 54 55  1  0
 55 57  1  0
 56 67  2  0
 57 62  1  0
 58 66  1  0
 58 68  1  0
 59 65  1  0
 59 61  1  0
 60 66  1  0
 61 60  1  0
 62 61  2  0
 63 64  1  0
 63 57  2  0
 64 59  2  0
 65 58  1  0
 66 56  1  0
 68 70  2  0
 69 68  1  0
 71 69  1  0
 72 81  2  0
 72 77  1  0
 73 69  1  0
 73 77  1  0
 74 73  1  0
 75 76  1  0
 75 74  1  0
 76 72  1  0
 77 78  2  0
 78 79  1  0
 80 79  2  0
 81 80  1  0
 82 56  1  0
 82 87  1  0
 82 83  1  0
 83 86  1  1
 83 84  1  0
 85 83  1  0
 87 90  1  0
 88 92  1  0
 88 87  1  0
 89 88  2  0
 92 91  1  0
 94 92  1  0
 94 95  1  0
 94 93  1  0
M  ISO  4  15 100  23 100  54 101  55 101
M  END
>  <TORSDO>  (39) 
F 20

>  <SCORE>  (39) 
-12.477

>  <name>  (39) 
38

>  <ligand_id>  (39) 
38

>  <original_smiles>  (39) 
[H]C1=C(C([H])([H])C2([H])C([H])([H])C([H])([H])[N+]([H])(C([H])([H])C([H])([H])Oc3c([H])c([H])c4c(c3[H])C([H])([H])N(C(=O)C([H])(N([H])C(=O)C([H])(N([H])C([H])([H])[H])C([H])([H])[H])C(C([H])([H])[H])(C([H])([H])[H])C([H])([H])[H])C([H])(C(=O)N([H])C3([H])c5c([H])c([H])c([H])c([H])c5C([H])([H])C([H])([H])C3([H])[H])C4([H])[H])C([H])([H])C2([H])[H])C(=O)C([H])([H])C1([H])N([H])C(=O)N1C([H])([H])C([H])([H])C([H])([H])C([H])(n2nc(-c3c([H])c([H])c(Oc4c([H])c([H])c(F)c([H])c4F)c([H])c3[H])c(C(=O)N([H])[H])c2N([H])[H])C1([H])[H]

>  <smiles>  (39) 
[H]C1=C(C([H])([H])C2([H])C([H])([H])C([H])([H])[N+]([H])(C([H])([H])C([H])([H])Oc3c([H])c([H])c4c(c3[H])C([H])([H])N(C(=O)C([H])(N([H])C(=O)C([H])(N([H])C([H])([H])[H])C([H])([H])[H])C(C([H])([H])[H])(C([H])([H])[H])C([H])([H])[H])C([H])(C(=O)N([H])C3([H])c5c([H])c([H])c([H])c([H])c5C([H])([H])C([H])([H])C3([H])[H])C4([H])[H])C([H])([H])C2([H])[H])C(=O)C([H])([H])C1([H])N([H])C(=O)N1C([H])([H])C([H])([H])C([H])([H])C([H])(n2nc(-c3c([H])c([H])c(Oc4c([H])c([H])c(F)c([H])c4F)c([H])c3[H])c(C(=O)N([H])[H])c2N([H])[H])C1([H])[H]

$$$$
39:0:0
     RDKit          3D

 99107  0  0  1  0  0  0  0  0999 V2000
  -31.6730  -22.9300   21.5790 C   0  0  0  0  0  2  0  0  0  0  0  0
  -31.4980  -21.5620   20.9100 C   0  0  0  0  0  2  0  0  0  0  0  0
  -28.9910  -21.8590   21.1610 C   0  0  0  0  0  2  0  0  0  0  0  0
  -29.3400  -23.2410   20.4930 C   0  0  0  0  0  3  0  0  0  0  0  0
  -30.5860  -23.9320   21.1380 C   0  0  0  0  0  3  0  0  0  0  0  0
  -30.1880  -20.8300   21.3400 C   0  0  1  0  0  0  0  0  0  0  0  0
  -30.2500  -24.8560   22.2390 N   0  0  0  0  0  4  0  0  0  0  0  0
  -29.8340  -24.3830   23.0210 H   0  0  0  0  0  0  0  0  0  0  0  0
  -29.6140  -25.5680   21.9200 H   0  0  0  0  0  0  0  0  0  0  0  0
  -31.0820  -25.3220   22.5600 H   0  0  0  0  0  0  0  0  0  0  0  0
  -28.1370  -24.2210   20.3060 C   0  0  0  0  0  2  0  0  0  0  0  0
  -28.4460  -25.4630   19.4130 C   0  0  0  0  0  2  0  0  0  0  0  0
  -28.3510  -26.7180   20.1060 O   0  0  0  0  0  0  0  0  0  0  0  0
  -24.5700  -31.8730   23.2390 C   0  0  0  0  0  0  0  0  0  0  0  0
  -27.1600  -27.4250   20.1060 C   0  0  0  0  0  0  0  0  0  0  0  0
  -23.3420  -30.4890   21.5980 C   0  0  0  0  0  3  0  0  0  0  0  0
  -24.7720  -28.9560   20.1510 C   0  0  0  0  0  0  0  0  0  0  0  0
  -25.8710  -30.8300   21.3850 C   0  0  0  0  0  2  0  0  0  0  0  0
  -25.9380  -29.4640   20.7320 C   0  0  0  0  0  0  0  0  0  0  0  0
  -27.1300  -28.7060   20.7100 C   0  0  0  0  0  3  0  0  0  0  0  0
  -25.9640  -26.9270   19.5360 C   0  0  0  0  0  3  0  0  0  0  0  0
  -24.7800  -27.6840   19.5530 C   0  0  0  0  0  3  0  0  0  0  0  0
  -23.5350  -29.8230   20.2100 C   0  0  0  0  0  2  0  0  0  0  0  0
  -24.6120  -31.0830   22.1290 N   0  0  0  0  0  0  0  0  0  0  0  0
  -23.4950  -32.1460   23.7900 O   0  0  0  0  0  0  0  0  0  0  0  0
  -22.6980  -29.4610   22.5560 C   0  0  0  0  0  0  0  0  0  0  0  0
  -21.3720  -29.2810   22.4360 N   0  0  0  0  0  0  0  0  0  0  0  0
  -23.3870  -28.8320   23.3630 O   0  0  0  0  0  0  0  0  0  0  0  0
  -20.8790  -29.8410   21.7540 H   0  0  0  0  0  0  0  0  0  0  0  0
  -18.0020  -28.0810   22.9380 C   0  0  0  0  0  0  0  0  0  0  0  0
  -20.5610  -28.3400   23.2050 C   0  0  0  0  0  3  0  0  0  0  0  0
  -20.6630  -26.9110   22.6220 C   0  0  0  0  0  2  0  0  0  0  0  0
  -19.5580  -26.5930   21.6090 C   0  0  0  0  0  2  0  0  0  0  0  0
  -18.1780  -26.7350   22.2570 C   0  0  0  0  0  2  0  0  0  0  0  0
  -19.1230  -28.8420   23.3680 C   0  0  0  0  0  0  0  0  0  0  0  0
  -18.9050  -30.1040   23.9630 C   0  0  0  0  0  3  0  0  0  0  0  0
  -17.6010  -30.6050   24.1360 C   0  0  0  0  0  3  0  0  0  0  0  0
  -16.4960  -29.8410   23.7240 C   0  0  0  0  0  3  0  0  0  0  0  0
  -16.6970  -28.5810   23.1310 C   0  0  0  0  0  3  0  0  0  0  0  0
  -25.8630  -32.4960   23.8520 C   0  0  0  0  0  3  0  0  0  0  0  0
  -26.3840  -31.7230   25.1240 C   0  0  1  0  0  0  0  0  0  0  0  0
  -25.2980  -31.4920   26.2010 C   0  0  0  0  0  1  0  0  0  0  0  0
  -26.9570  -30.3430   24.7270 C   0  0  0  0  0  1  0  0  0  0  0  0
  -27.5450  -32.5120   25.7770 C   0  0  0  0  0  1  0  0  0  0  0  0
  -25.5660  -33.8950   24.1810 N   0  0  0  0  0  0  0  0  0  0  0  0
  -25.9030  -34.9460   23.4210 C   0  0  0  0  0  0  0  0  0  0  0  0
  -26.5670  -34.8380   22.3880 O   0  0  0  0  0  0  0  0  0  0  0  0
  -24.9820  -34.0560   24.9890 H   0  0  0  0  0  0  0  0  0  0  0  0
  -24.1850  -36.7480   23.0720 C   0  0  0  0  0  1  0  0  0  0  0  0
  -25.4250  -36.3370   23.8810 C   0  0  0  0  0  3  0  0  0  0  0  0
  -27.5680  -37.2040   24.7070 C   0  0  0  0  0  1  0  0  0  0  0  0
  -26.4650  -37.3820   23.7670 N   0  0  0  0  0  0  0  0  0  0  0  0
  -26.0680  -38.3070   23.9180 H   0  0  0  0  0  0  0  0  0  0  0  0
  -30.0740  -19.5490   20.4110 C   0  0  0  0  0  2  0  0  0  0  0  0
  -29.5620  -18.1580   20.9370 C   0  0  0  0  0  2  0  0  0  0  0  0
  -30.2970  -16.9790   20.2260 C   0  0  0  0  0  2  0  0  0  0  0  0
  -30.6540  -14.5240   20.2660 C   0  0  0  0  0  0  0  0  0  0  0  0
  -30.3360  -12.3620   19.1400 C   0  0  0  0  0  2  0  0  0  0  0  0
  -29.3810  -12.5780   17.9480 C   0  0  0  0  0  2  0  0  0  0  0  0
  -27.9150  -12.4330   18.3990 C   0  0  0  0  0  2  0  0  0  0  0  0
  -27.5940  -13.2600   19.6730 C   0  0  0  0  0  3  0  0  0  0  0  0
  -28.6660  -13.0550   20.7680 C   0  0  0  0  0  2  0  0  0  0  0  0
  -29.9780  -13.3460   20.1750 N   0  0  0  0  0  0  0  0  0  0  0  0
  -31.7950  -14.6650   19.8210 O   0  0  0  0  0  0  0  0  0  0  0  0
  -29.9310  -15.6050   20.6370 N   0  0  0  0  0  0  0  0  0  0  0  0
  -28.9990  -15.4420   20.9880 H   0  0  0  0  0  0  0  0  0  0  0  0
  -25.2020  -13.8540   20.4080 C   0  0  0  0  0  0  0  0  0  0  0  0
  -24.1440  -13.0770   20.7960 C   0  0  0  0  0  0  0  0  0  0  0  0
  -24.6130  -11.7280   20.7680 C   0  0  0  0  0  0  0  0  0  0  0  0
  -26.2500  -12.9780   20.1730 N   0  0  0  0  0  0  0  0  0  0  0  0
  -25.9010  -11.6960   20.4480 N   0  0  0  0  0  0  0  0  0  0  0  0
  -23.8970  -10.4620   20.9760 C   0  0  0  0  0  0  0  0  0  0  0  0
  -24.3500   -9.5030   21.9080 C   0  0  0  0  0  3  0  0  0  0  0  0
  -23.6350   -8.3020   22.1030 C   0  0  0  0  0  3  0  0  0  0  0  0
  -22.4530   -8.0520   21.3660 C   0  0  0  0  0  0  0  0  0  0  0  0
  -22.0210   -9.0000   20.4230 C   0  0  0  0  0  3  0  0  0  0  0  0
  -22.7360  -10.1920   20.2250 C   0  0  0  0  0  3  0  0  0  0  0  0
  -21.7070   -6.9030   21.4710 O   0  0  0  0  0  0  0  0  0  0  0  0
  -21.6830   -6.1630   22.6260 C   0  0  0  0  0  0  0  0  0  0  0  0
  -21.2730   -6.7180   23.8580 C   0  0  0  0  0  3  0  0  0  0  0  0
  -21.1960   -5.9040   25.0050 C   0  0  0  0  0  3  0  0  0  0  0  0
  -21.5190   -4.5350   24.9230 C   0  0  0  0  0  0  0  0  0  0  0  0
  -21.9210   -3.9810   23.6950 C   0  0  0  0  0  3  0  0  0  0  0  0
  -22.0000   -4.7920   22.5490 C   0  0  0  0  0  0  0  0  0  0  0  0
  -22.3670   -4.2470   21.3660 F   0  0  0  0  0  0  0  0  0  0  0  0
  -21.4360   -3.7520   26.0230 F   0  0  0  0  0  0  0  0  0  0  0  0
  -22.7480  -13.5460   21.0810 C   0  0  0  0  0  0  0  0  0  0  0  0
  -22.0330  -12.8500   21.9580 N   0  0  0  0  0  0  0  0  0  0  0  0
  -22.2980  -14.5660   20.5600 O   0  0  0  0  0  0  0  0  0  0  0  0
  -22.4110  -12.0260   22.4020 H   0  0  0  0  0  0  0  0  0  0  0  0
  -21.0960  -13.1460   22.1870 H   0  0  0  0  0  0  0  0  0  0  0  0
  -25.3570  -15.2240   20.2150 N   0  0  0  0  0  0  0  0  0  0  0  0
  -24.5830  -15.8740   20.3150 H   0  0  0  0  0  0  0  0  0  0  0  0
  -26.1950  -15.6630   19.8570 H   0  0  0  0  0  0  0  0  0  0  0  0
  -30.2690  -20.4380   22.8520 C   0  0  0  0  0  2  0  0  0  0  0  0
  -31.4660  -19.6470   23.2040 N   0  0  0  0  0  4  0  0  0  0  0  0
  -31.4690  -18.7640   22.7280 H   0  0  0  0  0  0  0  0  0  0  0  0
  -31.4800  -19.4670   24.1930 H   0  0  0  0  0  0  0  0  0  0  0  0
  -32.3090  -20.1410   22.9680 H   0  0  0  0  0  0  0  0  0  0  0  0
  2  6  1  0
  2  1  1  0
  3  6  1  0
  4 11  1  0
  4  5  1  0
  4  3  1  0
  5  1  1  0
  5  7  1  0
  6 54  1  6
  6 95  1  0
  7 10  1  0
  7  8  1  0
  9  7  1  0
 12 13  1  0
 12 11  1  0
 13 15  1  0
 14 25  2  0
 15 20  1  0
 16 24  1  0
 16 26  1  0
 17 23  1  0
 17 19  1  0
 18 24  1  0
 19 18  1  0
 20 19  2  0
 21 22  1  0
 21 15  2  0
 22 17  2  0
 23 16  1  0
 24 14  1  0
 26 28  2  0
 27 26  1  0
 29 27  1  0
 30 39  2  0
 30 35  1  0
 31 27  1  0
 31 35  1  0
 32 31  1  0
 33 34  1  0
 33 32  1  0
 34 30  1  0
 35 36  2  0
 36 37  1  0
 38 37  2  0
 39 38  1  0
 40 14  1  0
 40 45  1  0
 40 41  1  0
 41 44  1  1
 41 42  1  0
 43 41  1  0
 45 48  1  0
 46 50  1  0
 46 45  1  0
 47 46  2  0
 50 49  1  0
 52 50  1  0
 52 53  1  0
 52 51  1  0
 54 55  1  0
 56 65  1  0
 56 55  1  0
 57 65  1  0
 58 63  1  0
 59 60  1  0
 59 58  1  0
 61 60  1  0
 61 70  1  0
 61 62  1  0
 63 57  1  0
 63 62  1  0
 64 57  2  0
 65 66  1  0
 67 68  2  0
 68 87  1  0
 69 68  1  0
 69 72  1  0
 70 67  1  0
 70 71  1  0
 71 69  2  0
 72 73  1  0
 73 74  2  0
 75 78  1  0
 75 74  1  0
 76 75  2  0
 77 76  1  0
 77 72  2  0
 78 79  1  0
 79 80  1  0
 80 81  2  0
 82 81  1  0
 82 86  1  0
 83 82  2  0
 84 79  2  0
 84 83  1  0
 85 84  1  0
 87 88  1  0
 88 91  1  0
 88 90  1  0
 89 87  2  0
 92 93  1  0
 92 67  1  0
 94 92  1  0
 95 96  1  0
 96 98  1  0
 97 96  1  0
 99 96  1  0
M  ISO  4  12 101  13 101  57 100  65 100
M  END
>  <TORSDO>  (40) 
F 24

>  <SCORE>  (40) 
-12.519

>  <name>  (40) 
39

>  <ligand_id>  (40) 
39

>  <original_smiles>  (40) 
[H]c1c([H])c([H])c2c(c1[H])C([H])([H])C([H])([H])C([H])([H])C2([H])N([H])C(=O)C1([H])N(C(=O)C([H])(N([H])C(=O)C([H])(N([H])C([H])([H])[H])C([H])([H])[H])C(C([H])([H])[H])(C([H])([H])[H])C([H])([H])[H])C([H])([H])c2c([H])c(OC([H])([H])C([H])([H])C3([H])C([H])([H])C(C([H])([H])C([H])([H])C([H])([H])N([H])C(=O)N4C([H])([H])C([H])([H])C([H])([H])C([H])(n5nc(-c6c([H])c([H])c(Oc7c([H])c([H])c(F)c([H])c7F)c([H])c6[H])c(C(=O)N([H])[H])c5N([H])[H])C4([H])[H])(C([H])([H])[N+]([H])([H])[H])C([H])([H])C([H])([H])C3([H])[N+]([H])([H])[H])c([H])c([H])c2C1([H])[H]

>  <smiles>  (40) 
[H]c1c([H])c([H])c2c(c1[H])C([H])([H])C([H])([H])C([H])([H])C2([H])N([H])C(=O)C1([H])N(C(=O)C([H])(N([H])C(=O)C([H])(N([H])C([H])([H])[H])C([H])([H])[H])C(C([H])([H])[H])(C([H])([H])[H])C([H])([H])[H])C([H])([H])c2c([H])c(OC([H])([H])C([H])([H])C3([H])C([H])([H])C(C([H])([H])C([H])([H])C([H])([H])N([H])C(=O)N4C([H])([H])C([H])([H])C([H])([H])C([H])(n5nc(-c6c([H])c([H])c(Oc7c([H])c([H])c(F)c([H])c7F)c([H])c6[H])c(C(=O)N([H])[H])c5N([H])[H])C4([H])[H])(C([H])([H])[N+]([H])([H])[H])C([H])([H])C([H])([H])C3([H])[N+]([H])([H])[H])c([H])c([H])c2C1([H])[H]

$$$$
40:0:0
     RDKit          3D

 97107  0  0  1  0  0  0  0  0999 V2000
  -31.6590  -25.2430   20.1130 C   0  0  0  0  0  0  0  0  0  0  0  0
  -30.9620  -25.5110   18.7770 C   0  0  0  0  0  2  0  0  0  0  0  0
  -29.8460  -24.5170   18.3740 C   0  0  0  0  0  2  0  0  0  0  0  0
  -29.5590  -25.3480   21.5970 C   0  0  0  0  0  2  0  0  0  0  0  0
  -30.6050  -23.0910   20.9630 C   0  0  0  0  0  2  0  0  0  0  0  0
  -30.8640  -24.5890   21.2500 C   0  0  0  0  0  3  0  0  0  0  0  0
  -28.8440  -24.0750   19.4840 C   0  0  0  0  0  3  0  0  0  0  0  0
  -28.4870  -25.2700   20.4810 C   0  0  0  0  0  3  0  0  0  0  0  0
  -29.3350  -22.8300   20.2230 N   0  0  1  0  0  4  0  0  0  0  0  0
  -32.8350  -25.5700   20.2760 O   0  0  0  0  0  0  0  0  0  0  0  0
  -28.6360  -22.6920   20.9370 H   0  0  0  0  0  0  0  0  0  0  0  0
  -28.4130  -26.6190   19.9200 O   0  0  0  0  0  0  0  0  0  0  0  0
  -24.6030  -31.8300   23.1330 C   0  0  0  0  0  0  0  0  0  0  0  0
  -27.2380  -27.3540   20.0210 C   0  0  0  0  0  0  0  0  0  0  0  0
  -23.3940  -30.4340   21.4890 C   0  0  0  0  0  3  0  0  0  0  0  0
  -24.8450  -28.8900   20.0580 C   0  0  0  0  0  0  0  0  0  0  0  0
  -25.9230  -30.7800   21.2850 C   0  0  0  0  0  2  0  0  0  0  0  0
  -26.0090  -29.4070   20.6400 C   0  0  0  0  0  0  0  0  0  0  0  0
  -27.2110  -28.6490   20.6110 C   0  0  0  0  0  3  0  0  0  0  0  0
  -26.0510  -26.8620   19.4430 C   0  0  0  0  0  3  0  0  0  0  0  0
  -24.8620  -27.6200   19.4560 C   0  0  0  0  0  3  0  0  0  0  0  0
  -23.6030  -29.7540   20.1090 C   0  0  0  0  0  2  0  0  0  0  0  0
  -24.6590  -31.0320   22.0260 N   0  0  0  0  0  0  0  0  0  0  0  0
  -23.5230  -32.0990   23.6790 O   0  0  0  0  0  0  0  0  0  0  0  0
  -22.7430  -29.4110   22.4490 C   0  0  0  0  0  0  0  0  0  0  0  0
  -21.4130  -29.2440   22.3400 N   0  0  0  0  0  0  0  0  0  0  0  0
  -23.4310  -28.7690   23.2470 O   0  0  0  0  0  0  0  0  0  0  0  0
  -20.9190  -29.8140   21.6680 H   0  0  0  0  0  0  0  0  0  0  0  0
  -18.0340  -28.0810   22.8840 C   0  0  0  0  0  0  0  0  0  0  0  0
  -20.6000  -28.3020   23.1100 C   0  0  0  0  0  3  0  0  0  0  0  0
  -20.6730  -26.8810   22.5040 C   0  0  0  0  0  2  0  0  0  0  0  0
  -19.5470  -26.5920   21.5060 C   0  0  0  0  0  2  0  0  0  0  0  0
  -18.1810  -26.7420   22.1800 C   0  0  0  0  0  2  0  0  0  0  0  0
  -19.1710  -28.8220   23.3050 C   0  0  0  0  0  0  0  0  0  0  0  0
  -18.9790  -30.0780   23.9230 C   0  0  0  0  0  3  0  0  0  0  0  0
  -17.6840  -30.5910   24.1210 C   0  0  0  0  0  3  0  0  0  0  0  0
  -16.5620  -29.8470   23.7170 C   0  0  0  0  0  3  0  0  0  0  0  0
  -16.7380  -28.5940   23.1040 C   0  0  0  0  0  3  0  0  0  0  0  0
  -25.8890  -32.4610   23.7540 C   0  0  0  0  0  3  0  0  0  0  0  0
  -25.5740  -33.8530   24.1080 N   0  0  0  0  0  0  0  0  0  0  0  0
  -25.8950  -34.9180   23.3630 C   0  0  0  0  0  0  0  0  0  0  0  0
  -26.5530  -34.8340   22.3230 O   0  0  0  0  0  0  0  0  0  0  0  0
  -24.9880  -33.9900   24.9190 H   0  0  0  0  0  0  0  0  0  0  0  0
  -24.1520  -36.7040   23.0530 C   0  0  0  0  0  1  0  0  0  0  0  0
  -25.4040  -36.2970   23.8460 C   0  0  0  0  0  3  0  0  0  0  0  0
  -27.5430  -37.1820   24.6660 C   0  0  0  0  0  1  0  0  0  0  0  0
  -26.4300  -37.3580   23.7370 N   0  0  0  0  0  0  0  0  0  0  0  0
  -26.0230  -38.2750   23.8980 H   0  0  0  0  0  0  0  0  0  0  0  0
  -26.4230  -31.6740   25.0140 C   0  0  1  0  0  0  0  0  0  0  0  0
  -25.3420  -31.4150   26.0870 C   0  0  0  0  0  1  0  0  0  0  0  0
  -27.0100  -30.3060   24.5930 C   0  0  0  0  0  1  0  0  0  0  0  0
  -27.5780  -32.4640   25.6750 C   0  0  0  0  0  1  0  0  0  0  0  0
  -29.3490  -21.4930   19.4820 C   0  0  0  0  0  2  0  0  0  0  0  0
  -30.9830  -19.3640   19.8900 C   0  0  0  0  0  2  0  0  0  0  0  0
  -28.5150  -19.2820   20.7680 C   0  0  0  0  0  2  0  0  0  0  0  0
  -30.8220  -17.8500   19.5170 C   0  0  0  0  0  2  0  0  0  0  0  0
  -28.5310  -17.7870   20.3450 C   0  0  0  0  0  2  0  0  0  0  0  0
  -29.7120  -20.1870   20.3370 C   0  0  0  0  0  3  0  0  0  0  0  0
  -29.9020  -17.0880   20.5020 C   0  0  0  0  0  3  0  0  0  0  0  0
  -30.5930  -14.5890   20.0190 C   0  0  0  0  0  0  0  0  0  0  0  0
  -30.3330  -12.3900   18.9130 C   0  0  0  0  0  2  0  0  0  0  0  0
  -29.3240  -12.5760   17.7600 C   0  0  0  0  0  2  0  0  0  0  0  0
  -27.8760  -12.4100   18.2660 C   0  0  0  0  0  2  0  0  0  0  0  0
  -27.5920  -13.2440   19.5450 C   0  0  0  0  0  3  0  0  0  0  0  0
  -28.7030  -13.0320   20.5970 C   0  0  0  0  0  2  0  0  0  0  0  0
  -29.9830  -13.3690   19.9530 N   0  0  0  0  0  0  0  0  0  0  0  0
  -31.7500  -14.7700   19.6300 O   0  0  0  0  0  0  0  0  0  0  0  0
  -29.7510  -15.6110   20.3290 N   0  0  0  0  0  0  0  0  0  0  0  0
  -28.8160  -15.2840   20.5170 H   0  0  0  0  0  0  0  0  0  0  0  0
  -25.2450  -13.8630   20.4030 C   0  0  0  0  0  0  0  0  0  0  0  0
  -24.1910  -13.0950   20.8180 C   0  0  0  0  0  0  0  0  0  0  0  0
  -24.6380  -11.7380   20.7410 C   0  0  0  0  0  0  0  0  0  0  0  0
  -26.2660  -12.9760   20.0960 N   0  0  0  0  0  0  0  0  0  0  0  0
  -25.9080  -11.6920   20.3590 N   0  0  0  0  0  0  0  0  0  0  0  0
  -23.9120  -10.4800   20.9510 C   0  0  0  0  0  0  0  0  0  0  0  0
  -24.3750   -9.5120   21.8680 C   0  0  0  0  0  3  0  0  0  0  0  0
  -23.6580   -8.3150   22.0700 C   0  0  0  0  0  3  0  0  0  0  0  0
  -22.4580   -8.0790   21.3570 C   0  0  0  0  0  0  0  0  0  0  0  0
  -22.0090   -9.0370   20.4290 C   0  0  0  0  0  3  0  0  0  0  0  0
  -22.7310  -10.2270   20.2270 C   0  0  0  0  0  3  0  0  0  0  0  0
  -21.7050   -6.9370   21.4720 O   0  0  0  0  0  0  0  0  0  0  0  0
  -21.6790   -6.1980   22.6270 C   0  0  0  0  0  0  0  0  0  0  0  0
  -21.2800   -6.7600   23.8590 C   0  0  0  0  0  3  0  0  0  0  0  0
  -21.2040   -5.9510   25.0110 C   0  0  0  0  0  3  0  0  0  0  0  0
  -21.5130   -4.5790   24.9290 C   0  0  0  0  0  0  0  0  0  0  0  0
  -21.9090   -4.0170   23.7010 C   0  0  0  0  0  3  0  0  0  0  0  0
  -21.9880   -4.8240   22.5540 C   0  0  0  0  0  0  0  0  0  0  0  0
  -22.3490   -4.2730   21.3700 F   0  0  0  0  0  0  0  0  0  0  0  0
  -21.4290   -3.8020   26.0320 F   0  0  0  0  0  0  0  0  0  0  0  0
  -22.8130  -13.5780   21.1710 C   0  0  0  0  0  0  0  0  0  0  0  0
  -22.1220  -12.8780   22.0640 N   0  0  0  0  0  0  0  0  0  0  0  0
  -22.3560  -14.6170   20.6920 O   0  0  0  0  0  0  0  0  0  0  0  0
  -22.4990  -12.0380   22.4770 H   0  0  0  0  0  0  0  0  0  0  0  0
  -21.1980  -13.1830   22.3350 H   0  0  0  0  0  0  0  0  0  0  0  0
  -25.4110  -15.2360   20.2390 N   0  0  0  0  0  0  0  0  0  0  0  0
  -24.6540  -15.8910   20.4060 H   0  0  0  0  0  0  0  0  0  0  0  0
  -26.2420  -15.6840   19.8740 H   0  0  0  0  0  0  0  0  0  0  0  0
  1 10  2  0
  1  6  1  0
  2  1  1  0
  3  2  1  0
  6  5  1  0
  6  4  1  0
  7  3  1  0
  7  9  1  0
  7  8  1  0
  8 12  1  0
  8  4  1  0
  9 11  1  1
  9  5  1  0
 12 14  1  0
 13 24  2  0
 14 19  1  0
 15 23  1  0
 15 25  1  0
 16 22  1  0
 16 18  1  0
 17 23  1  0
 18 17  1  0
 19 18  2  0
 20 21  1  0
 20 14  2  0
 21 16  2  0
 22 15  1  0
 23 13  1  0
 25 27  2  0
 26 25  1  0
 28 26  1  0
 29 38  2  0
 29 34  1  0
 30 26  1  0
 30 34  1  0
 31 30  1  0
 32 33  1  0
 32 31  1  0
 33 29  1  0
 34 35  2  0
 35 36  1  0
 37 36  2  0
 38 37  1  0
 39 13  1  0
 39 40  1  0
 39 49  1  0
 40 43  1  0
 41 45  1  0
 41 40  1  0
 42 41  2  0
 45 44  1  0
 47 45  1  0
 47 48  1  0
 47 46  1  0
 49 52  1  1
 49 50  1  0
 51 49  1  0
 53  9  1  0
 54 58  1  0
 56 54  1  0
 56 59  1  0
 57 59  1  0
 57 55  1  0
 58 53  1  0
 58 55  1  0
 59 68  1  0
 60 68  1  0
 61 66  1  0
 62 63  1  0
 62 61  1  0
 64 63  1  0
 64 73  1  0
 64 65  1  0
 66 60  1  0
 66 65  1  0
 67 60  2  0
 68 69  1  0
 70 71  2  0
 71 90  1  0
 72 71  1  0
 72 75  1  0
 73 74  1  0
 73 70  1  0
 74 72  2  0
 75 76  1  0
 76 77  2  0
 78 81  1  0
 78 77  1  0
 79 78  2  0
 80 79  1  0
 80 75  2  0
 81 82  1  0
 82 83  1  0
 83 84  2  0
 85 84  1  0
 85 89  1  0
 86 85  2  0
 87 82  2  0
 87 86  1  0
 88 87  1  0
 90 91  1  0
 91 94  1  0
 91 93  1  0
 92 90  2  0
 95 70  1  0
 95 96  1  0
 97 95  1  0
M  ISO  4   8 101  12 101  60 100  68 100
M  END
>  <TORSDO>  (41) 
F 18

>  <SCORE>  (41) 
-14.714

>  <name>  (41) 
40

>  <ligand_id>  (41) 
40

>  <original_smiles>  (41) 
[H]c1c([H])c([H])c2c(c1[H])C([H])([H])C([H])([H])C([H])([H])C2([H])N([H])C(=O)C1([H])N(C(=O)C([H])(N([H])C(=O)C([H])(N([H])C([H])([H])[H])C([H])([H])[H])C(C([H])([H])[H])(C([H])([H])[H])C([H])([H])[H])C([H])([H])c2c([H])c(OC3([H])C([H])([H])C4([H])C(=O)C([H])([H])C([H])([H])C3([H])[N+]([H])(C([H])([H])C3([H])C([H])([H])C([H])([H])C([H])(N([H])C(=O)N5C([H])([H])C([H])([H])C([H])([H])C([H])(n6nc(-c7c([H])c([H])c(Oc8c([H])c([H])c(F)c([H])c8F)c([H])c7[H])c(C(=O)N([H])[H])c6N([H])[H])C5([H])[H])C([H])([H])C3([H])[H])C4([H])[H])c([H])c([H])c2C1([H])[H]

>  <smiles>  (41) 
[H]c1c([H])c([H])c2c(c1[H])C([H])([H])C([H])([H])C([H])([H])C2([H])N([H])C(=O)C1([H])N(C(=O)C([H])(N([H])C(=O)C([H])(N([H])C([H])([H])[H])C([H])([H])[H])C(C([H])([H])[H])(C([H])([H])[H])C([H])([H])[H])C([H])([H])c2c([H])c(OC3([H])C([H])([H])C4([H])C(=O)C([H])([H])C([H])([H])C3([H])[N+]([H])(C([H])([H])C3([H])C([H])([H])C([H])([H])C([H])(N([H])C(=O)N5C([H])([H])C([H])([H])C([H])([H])C([H])(n6nc(-c7c([H])c([H])c(Oc8c([H])c([H])c(F)c([H])c8F)c([H])c7[H])c(C(=O)N([H])[H])c6N([H])[H])C5([H])[H])C([H])([H])C3([H])[H])C4([H])[H])c([H])c([H])c2C1([H])[H]

$$$$
41:0:0
     RDKit          3D

 96104  0  0  1  0  0  0  0  0999 V2000
  -30.5570  -21.4120   24.7260 C   0  0  0  0  0  2  0  0  0  0  0  0
  -29.5450  -22.3330   24.0200 C   0  0  0  0  0  2  0  0  0  0  0  0
  -30.1610  -23.6940   23.6660 C   0  0  0  0  0  2  0  0  0  0  0  0
  -29.1160  -24.7180   23.1900 C   0  0  0  0  0  2  0  0  0  0  0  0
  -29.7390  -25.9190   22.4570 C   0  0  0  0  0  2  0  0  0  0  0  0
  -30.0480  -25.6060   20.9820 C   0  0  0  0  0  2  0  0  0  0  0  0
  -30.4910  -26.8280   20.1590 C   0  0  0  0  0  2  0  0  0  0  0  0
  -29.6920  -26.9250   18.9810 O   0  0  0  0  0  0  0  0  0  0  0  0
  -24.9780  -30.6440   22.8280 C   0  0  0  0  0  0  0  0  0  0  0  0
  -28.4110  -27.3960   19.1430 C   0  0  0  0  0  0  0  0  0  0  0  0
  -24.0450  -29.3110   20.9600 C   0  0  0  0  0  3  0  0  0  0  0  0
  -25.7560  -28.3340   19.3400 C   0  0  0  0  0  0  0  0  0  0  0  0
  -26.4360  -30.2010   20.8630 C   0  0  0  0  0  2  0  0  0  0  0  0
  -26.7850  -28.9910   20.0260 C   0  0  0  0  0  0  0  0  0  0  0  0
  -28.1120  -28.5300   19.9300 C   0  0  0  0  0  3  0  0  0  0  0  0
  -27.3700  -26.7460   18.4490 C   0  0  0  0  0  3  0  0  0  0  0  0
  -26.0410  -27.2050   18.5500 C   0  0  0  0  0  3  0  0  0  0  0  0
  -24.3660  -28.9050   19.4950 C   0  0  0  0  0  2  0  0  0  0  0  0
  -25.1690  -30.0600   21.6110 N   0  0  0  0  0  0  0  0  0  0  0  0
  -23.8730  -30.6070   23.3880 O   0  0  0  0  0  0  0  0  0  0  0  0
  -23.6240  -28.0430   21.7360 C   0  0  0  0  0  0  0  0  0  0  0  0
  -22.3580  -27.6310   21.5620 N   0  0  0  0  0  0  0  0  0  0  0  0
  -24.4300  -27.4390   22.4490 O   0  0  0  0  0  0  0  0  0  0  0  0
  -21.7600  -28.1850   20.9660 H   0  0  0  0  0  0  0  0  0  0  0  0
  -19.2830  -25.7540   21.8160 C   0  0  0  0  0  0  0  0  0  0  0  0
  -21.7500  -26.4420   22.1570 C   0  0  0  0  0  3  0  0  0  0  0  0
  -22.1090  -25.1700   21.3550 C   0  0  0  0  0  2  0  0  0  0  0  0
  -21.0680  -24.8150   20.2880 C   0  0  0  0  0  2  0  0  0  0  0  0
  -19.6970  -24.5900   20.9300 C   0  0  0  0  0  2  0  0  0  0  0  0
  -20.2470  -26.6320   22.3790 C   0  0  0  0  0  0  0  0  0  0  0  0
  -19.8050  -27.7180   23.1650 C   0  0  0  0  0  3  0  0  0  0  0  0
  -18.4330  -27.9330   23.3930 C   0  0  0  0  0  3  0  0  0  0  0  0
  -17.4840  -27.0520   22.8440 C   0  0  0  0  0  3  0  0  0  0  0  0
  -17.9110  -25.9620   22.0640 C   0  0  0  0  0  3  0  0  0  0  0  0
  -26.1280  -31.4040   23.5610 C   0  0  0  0  0  3  0  0  0  0  0  0
  -26.7530  -30.5850   24.7570 C   0  0  1  0  0  0  0  0  0  0  0  0
  -25.7030  -30.0390   25.7530 C   0  0  0  0  0  1  0  0  0  0  0  0
  -27.5720  -29.3850   24.2230 C   0  0  0  0  0  1  0  0  0  0  0  0
  -27.7390  -31.4790   25.5460 C   0  0  0  0  0  1  0  0  0  0  0  0
  -25.5810  -32.6810   24.0350 N   0  0  0  0  0  0  0  0  0  0  0  0
  -25.7530  -33.8570   23.4170 C   0  0  0  0  0  0  0  0  0  0  0  0
  -26.4600  -33.9900   22.4140 O   0  0  0  0  0  0  0  0  0  0  0  0
  -24.9540  -32.6420   24.8270 H   0  0  0  0  0  0  0  0  0  0  0  0
  -23.7710  -35.3790   23.1600 C   0  0  0  0  0  1  0  0  0  0  0  0
  -25.0220  -35.0810   24.0010 C   0  0  0  0  0  3  0  0  0  0  0  0
  -26.9430  -36.1780   25.0650 C   0  0  0  0  0  1  0  0  0  0  0  0
  -25.8710  -36.2900   24.0800 N   0  0  0  0  0  0  0  0  0  0  0  0
  -25.3120  -37.1090   24.3070 H   0  0  0  0  0  0  0  0  0  0  0  0
  -30.2090  -19.9120   24.6650 C   0  0  0  0  0  2  0  0  0  0  0  0
  -30.3340  -19.3720   23.2940 N   0  0  0  0  0  4  0  0  0  0  0  0
  -29.4860  -19.5570   22.7820 H   0  0  0  0  0  0  0  0  0  0  0  0
  -31.0810  -19.8380   22.8060 H   0  0  0  0  0  0  0  0  0  0  0  0
  -30.0590  -17.4450   21.8470 C   0  0  0  0  0  0  0  0  0  0  0  0
  -32.1320  -16.2600   22.3050 C   0  0  0  0  0  2  0  0  0  0  0  0
  -32.0420  -17.4900   23.2210 C   0  0  0  0  0  2  0  0  0  0  0  0
  -31.0580  -16.4790   21.2270 C   0  0  0  0  0  3  0  0  0  0  0  0
  -30.5610  -17.9150   23.2070 C   0  0  0  0  0  3  0  0  0  0  0  0
  -28.9950  -17.7900   21.3260 O   0  0  0  0  0  0  0  0  0  0  0  0
  -30.6560  -14.5510   19.6980 C   0  0  0  0  0  0  0  0  0  0  0  0
  -30.1410  -12.4870   18.4490 C   0  0  0  0  0  2  0  0  0  0  0  0
  -29.0650  -12.7140   17.3720 C   0  0  0  0  0  2  0  0  0  0  0  0
  -27.6540  -12.5650   17.9700 C   0  0  0  0  0  2  0  0  0  0  0  0
  -27.4670  -13.3990   19.2640 C   0  0  0  0  0  3  0  0  0  0  0  0
  -28.6340  -13.1490   20.2450 C   0  0  0  0  0  2  0  0  0  0  0  0
  -29.9050  -13.4320   19.5500 N   0  0  0  0  0  0  0  0  0  0  0  0
  -31.5470  -14.8870   18.9120 O   0  0  0  0  0  0  0  0  0  0  0  0
  -30.4160  -15.2300   20.8220 N   0  0  0  0  0  0  0  0  0  0  0  0
  -29.6770  -14.8730   21.4100 H   0  0  0  0  0  0  0  0  0  0  0  0
  -25.1740  -14.0190   20.2630 C   0  0  0  0  0  0  0  0  0  0  0  0
  -24.1450  -13.2490   20.7340 C   0  0  0  0  0  0  0  0  0  0  0  0
  -24.5780  -11.8940   20.6110 C   0  0  0  0  0  0  0  0  0  0  0  0
  -26.1730  -13.1310   19.8880 N   0  0  0  0  0  0  0  0  0  0  0  0
  -25.8220  -11.8470   20.1510 N   0  0  0  0  0  0  0  0  0  0  0  0
  -23.8610  -10.6340   20.8520 C   0  0  0  0  0  0  0  0  0  0  0  0
  -24.3340   -9.6800   21.7790 C   0  0  0  0  0  3  0  0  0  0  0  0
  -23.6170   -8.4850   22.0060 C   0  0  0  0  0  3  0  0  0  0  0  0
  -22.4140   -8.2360   21.3040 C   0  0  0  0  0  0  0  0  0  0  0  0
  -21.9590   -9.1790   20.3660 C   0  0  0  0  0  3  0  0  0  0  0  0
  -22.6760  -10.3660   20.1380 C   0  0  0  0  0  3  0  0  0  0  0  0
  -21.6650   -7.0930   21.4400 O   0  0  0  0  0  0  0  0  0  0  0  0
  -21.6120   -6.4030   22.6250 C   0  0  0  0  0  0  0  0  0  0  0  0
  -21.2030   -7.0190   23.8280 C   0  0  0  0  0  3  0  0  0  0  0  0
  -21.0960   -6.2570   25.0090 C   0  0  0  0  0  3  0  0  0  0  0  0
  -21.3890   -4.8790   24.9880 C   0  0  0  0  0  0  0  0  0  0  0  0
  -21.7910   -4.2640   23.7900 C   0  0  0  0  0  3  0  0  0  0  0  0
  -21.9000   -5.0230   22.6110 C   0  0  0  0  0  0  0  0  0  0  0  0
  -22.2670   -4.4210   21.4550 F   0  0  0  0  0  0  0  0  0  0  0  0
  -21.2790   -4.1460   26.1190 F   0  0  0  0  0  0  0  0  0  0  0  0
  -22.7970  -13.7350   21.1850 C   0  0  0  0  0  0  0  0  0  0  0  0
  -22.1870  -13.0490   22.1460 N   0  0  0  0  0  0  0  0  0  0  0  0
  -22.2960  -14.7560   20.7180 O   0  0  0  0  0  0  0  0  0  0  0  0
  -22.6070  -12.2220   22.5440 H   0  0  0  0  0  0  0  0  0  0  0  0
  -21.2890  -13.3570   22.4890 H   0  0  0  0  0  0  0  0  0  0  0  0
  -25.3400  -15.3920   20.1070 N   0  0  0  0  0  0  0  0  0  0  0  0
  -24.6080  -16.0580   20.3300 H   0  0  0  0  0  0  0  0  0  0  0  0
  -26.1670  -15.8300   19.7190 H   0  0  0  0  0  0  0  0  0  0  0  0
  2  1  1  0
  3  2  1  0
  4  3  1  0
  5  4  1  0
  6  5  1  0
  7  6  1  0
  8 10  1  0
  8  7  1  0
  9 20  2  0
 10 15  1  0
 11 19  1  0
 11 21  1  0
 12 18  1  0
 12 14  1  0
 13 19  1  0
 14 13  1  0
 15 14  2  0
 16 17  1  0
 16 10  2  0
 17 12  2  0
 18 11  1  0
 19  9  1  0
 21 23  2  0
 22 21  1  0
 24 22  1  0
 25 34  2  0
 25 30  1  0
 26 22  1  0
 26 30  1  0
 27 26  1  0
 28 29  1  0
 28 27  1  0
 29 25  1  0
 30 31  2  0
 31 32  1  0
 33 32  2  0
 34 33  1  0
 35  9  1  0
 35 40  1  0
 35 36  1  0
 36 39  1  1
 36 37  1  0
 38 36  1  0
 40 43  1  0
 41 45  1  0
 41 40  1  0
 42 41  2  0
 45 44  1  0
 45 47  1  0
 47 48  1  0
 47 46  1  0
 49  1  1  0
 50 49  1  0
 51 50  1  0
 52 50  1  0
 53 57  1  0
 54 55  1  0
 56 67  1  0
 56 53  1  0
 56 54  1  0
 57 55  1  0
 57 50  1  0
 58 53  2  0
 59 67  1  0
 60 65  1  0
 61 62  1  0
 61 60  1  0
 63 62  1  0
 63 72  1  0
 63 64  1  0
 65 59  1  0
 65 64  1  0
 66 59  2  0
 67 68  1  0
 69 70  2  0
 70 89  1  0
 71 70  1  0
 71 74  1  0
 72 73  1  0
 72 69  1  0
 73 71  2  0
 74 75  1  0
 75 76  2  0
 77 80  1  0
 77 76  1  0
 78 77  2  0
 79 78  1  0
 79 74  2  0
 80 81  1  0
 81 82  1  0
 82 83  2  0
 84 83  1  0
 84 88  1  0
 85 84  2  0
 86 81  2  0
 86 85  1  0
 87 86  1  0
 89 90  1  0
 90 93  1  0
 90 92  1  0
 91 89  2  0
 94 69  1  0
 94 95  1  0
 96 94  1  0
M  ISO  4   7 101   8 101  59 100  67 100
M  END
>  <TORSDO>  (42) 
F 25

>  <SCORE>  (42) 
-2.762

>  <name>  (42) 
41

>  <ligand_id>  (42) 
41

>  <original_smiles>  (42) 
[H]c1c([H])c([H])c2c(c1[H])C([H])([H])C([H])([H])C([H])([H])C2([H])N([H])C(=O)C1([H])N(C(=O)C([H])(N([H])C(=O)C([H])(N([H])C([H])([H])[H])C([H])([H])[H])C(C([H])([H])[H])(C([H])([H])[H])C([H])([H])[H])C([H])([H])c2c([H])c(OC([H])([H])C([H])([H])C([H])([H])C([H])([H])C([H])([H])C([H])([H])C([H])([H])C([H])([H])[N+]([H])([H])C3([H])C(=O)C([H])(N([H])C(=O)N4C([H])([H])C([H])([H])C([H])([H])C([H])(n5nc(-c6c([H])c([H])c(Oc7c([H])c([H])c(F)c([H])c7F)c([H])c6[H])c(C(=O)N([H])[H])c5N([H])[H])C4([H])[H])C([H])([H])C3([H])[H])c([H])c([H])c2C1([H])[H]

>  <smiles>  (42) 
[H]c1c([H])c([H])c2c(c1[H])C([H])([H])C([H])([H])C([H])([H])C2([H])N([H])C(=O)C1([H])N(C(=O)C([H])(N([H])C(=O)C([H])(N([H])C([H])([H])[H])C([H])([H])[H])C(C([H])([H])[H])(C([H])([H])[H])C([H])([H])[H])C([H])([H])c2c([H])c(OC([H])([H])C([H])([H])C([H])([H])C([H])([H])C([H])([H])C([H])([H])C([H])([H])C([H])([H])[N+]([H])([H])C3([H])C(=O)C([H])(N([H])C(=O)N4C([H])([H])C([H])([H])C([H])([H])C([H])(n5nc(-c6c([H])c([H])c(Oc7c([H])c([H])c(F)c([H])c7F)c([H])c6[H])c(C(=O)N([H])[H])c5N([H])[H])C4([H])[H])C([H])([H])C3([H])[H])c([H])c([H])c2C1([H])[H]

$$$$
42:0:0
     RDKit          3D

100109  0  0  1  0  0  0  0  0999 V2000
  -25.8770  -23.7690   20.8670 C   0  0  0  0  0  2  0  0  0  0  0  0
  -26.8410  -23.5340   19.9500 C   0  0  0  0  0  3  0  0  0  0  0  0
  -24.6170  -24.5300   20.5440 C   0  0  0  0  0  2  0  0  0  0  0  0
  -25.0630  -21.8470   18.2940 C   0  0  0  0  0  2  0  0  0  0  0  0
  -25.6210  -24.3420   17.8450 C   0  0  0  0  0  2  0  0  0  0  0  0
  -25.9410  -21.2980   19.4700 C   0  0  0  0  0  2  0  0  0  0  0  0
  -26.9890  -24.1890   18.5630 C   0  0  0  0  0  3  0  0  0  0  0  0
  -24.5430  -23.3250   18.3030 C   0  0  0  0  0  3  0  0  0  0  0  0
  -23.8230  -23.7630   19.5430 N   0  0  0  0  0  4  0  0  0  0  0  0
  -27.1710  -22.0930   19.7990 N   0  0  2  0  0  4  0  0  0  0  0  0
  -23.0740  -24.3710   19.2500 H   0  0  0  0  0  0  0  0  0  0  0  0
  -23.3630  -22.9750   19.9700 H   0  0  0  0  0  0  0  0  0  0  0  0
  -27.7730  -22.0230   18.9880 H   0  0  0  0  0  0  0  0  0  0  0  0
  -27.9660  -25.4120   18.4510 C   0  0  0  0  0  2  0  0  0  0  0  0
  -28.1820  -26.3550   19.6660 C   0  0  0  0  0  2  0  0  0  0  0  0
  -28.3450  -27.7450   19.3010 O   0  0  0  0  0  0  0  0  0  0  0  0
  -24.7920  -31.8500   23.8700 C   0  0  0  0  0  0  0  0  0  0  0  0
  -27.2080  -28.4800   19.5370 C   0  0  0  0  0  0  0  0  0  0  0  0
  -23.4480  -30.7810   22.0920 C   0  0  0  0  0  3  0  0  0  0  0  0
  -24.7750  -29.7540   20.1740 C   0  0  0  0  0  0  0  0  0  0  0  0
  -25.9060  -31.3750   21.6980 C   0  0  0  0  0  2  0  0  0  0  0  0
  -25.9760  -30.2030   20.7430 C   0  0  0  0  0  0  0  0  0  0  0  0
  -27.1990  -29.5640   20.4370 C   0  0  0  0  0  3  0  0  0  0  0  0
  -26.0090  -28.0960   18.9160 C   0  0  0  0  0  3  0  0  0  0  0  0
  -24.7860  -28.6950   19.2540 C   0  0  0  0  0  3  0  0  0  0  0  0
  -23.5070  -30.4690   20.5730 C   0  0  0  0  0  2  0  0  0  0  0  0
  -24.7400  -31.3350   22.6090 N   0  0  0  0  0  0  0  0  0  0  0  0
  -23.7760  -31.9040   24.5780 O   0  0  0  0  0  0  0  0  0  0  0  0
  -22.9790  -29.5110   22.8410 C   0  0  0  0  0  0  0  0  0  0  0  0
  -21.7390  -29.0760   22.5650 N   0  0  0  0  0  0  0  0  0  0  0  0
  -23.7290  -28.9270   23.6270 O   0  0  0  0  0  0  0  0  0  0  0  0
  -21.1810  -29.6200   21.9220 H   0  0  0  0  0  0  0  0  0  0  0  0
  -18.8770  -26.9010   22.2480 C   0  0  0  0  0  0  0  0  0  0  0  0
  -21.1080  -27.8770   23.1150 C   0  0  0  0  0  3  0  0  0  0  0  0
  -21.7710  -26.5950   22.5600 C   0  0  0  0  0  2  0  0  0  0  0  0
  -21.0650  -26.0330   21.3240 C   0  0  0  0  0  2  0  0  0  0  0  0
  -19.6020  -25.7080   21.6430 C   0  0  0  0  0  2  0  0  0  0  0  0
  -19.5880  -27.9240   22.9310 C   0  0  0  0  0  0  0  0  0  0  0  0
  -18.8700  -29.0220   23.4500 C   0  0  0  0  0  3  0  0  0  0  0  0
  -17.4720  -29.1050   23.3020 C   0  0  0  0  0  3  0  0  0  0  0  0
  -16.7720  -28.0810   22.6420 C   0  0  0  0  0  3  0  0  0  0  0  0
  -17.4750  -26.9820   22.1180 C   0  0  0  0  0  3  0  0  0  0  0  0
  -26.1170  -32.4150   24.4680 C   0  0  0  0  0  3  0  0  0  0  0  0
  -25.8570  -33.8010   24.8780 N   0  0  0  0  0  0  0  0  0  0  0  0
  -26.2080  -34.8800   24.1660 C   0  0  0  0  0  0  0  0  0  0  0  0
  -26.8510  -34.8090   23.1140 O   0  0  0  0  0  0  0  0  0  0  0  0
  -25.2870  -33.9340   25.7010 H   0  0  0  0  0  0  0  0  0  0  0  0
  -24.5280  -36.7350   23.9410 C   0  0  0  0  0  1  0  0  0  0  0  0
  -25.7720  -36.2560   24.7040 C   0  0  0  0  0  3  0  0  0  0  0  0
  -27.9590  -37.0220   25.5170 C   0  0  0  0  0  1  0  0  0  0  0  0
  -26.8360  -37.2810   24.6180 N   0  0  0  0  0  0  0  0  0  0  0  0
  -26.4660  -38.2040   24.8330 H   0  0  0  0  0  0  0  0  0  0  0  0
  -26.6630  -31.5630   25.6800 C   0  0  1  0  0  0  0  0  0  0  0  0
  -25.5890  -31.2280   26.7390 C   0  0  0  0  0  1  0  0  0  0  0  0
  -27.2580  -30.2270   25.1820 C   0  0  0  0  0  1  0  0  0  0  0  0
  -27.8140  -32.3210   26.3800 C   0  0  0  0  0  1  0  0  0  0  0  0
  -27.9870  -21.5130   20.8950 C   0  0  0  0  0  2  0  0  0  0  0  0
  -28.1290  -19.9800   20.7810 C   0  0  0  0  0  2  0  0  0  0  0  0
  -28.9800  -19.5580   19.5730 C   0  0  0  0  0  2  0  0  0  0  0  0
  -29.7090  -18.2270   19.7650 C   0  0  0  0  0  2  0  0  0  0  0  0
  -30.3690  -17.7890   18.4510 C   0  0  0  0  0  2  0  0  0  0  0  0
  -31.5210  -16.7990   18.6460 C   0  0  0  0  0  2  0  0  0  0  0  0
  -31.6040  -14.3370   18.8730 C   0  0  0  0  0  0  0  0  0  0  0  0
  -31.3500  -11.8920   18.9300 C   0  0  0  0  0  2  0  0  0  0  0  0
  -30.3060  -11.4350   17.8940 C   0  0  0  0  0  2  0  0  0  0  0  0
  -28.8890  -11.4790   18.4960 C   0  0  0  0  0  2  0  0  0  0  0  0
  -28.5780  -12.8250   19.2030 C   0  0  0  0  0  3  0  0  0  0  0  0
  -29.7280  -13.2260   20.1540 C   0  0  0  0  0  2  0  0  0  0  0  0
  -30.9820  -13.2410   19.3790 N   0  0  0  0  0  0  0  0  0  0  0  0
  -32.5980  -14.2680   18.1440 O   0  0  0  0  0  0  0  0  0  0  0  0
  -31.0460  -15.5170   19.1660 N   0  0  0  0  0  0  0  0  0  0  0  0
  -30.2090  -15.5110   19.7300 H   0  0  0  0  0  0  0  0  0  0  0  0
  -26.5240  -13.8060   20.4050 C   0  0  0  0  0  0  0  0  0  0  0  0
  -25.3790  -13.2220   20.8820 C   0  0  0  0  0  0  0  0  0  0  0  0
  -25.5100  -11.8240   20.6230 C   0  0  0  0  0  0  0  0  0  0  0  0
  -27.2920  -12.7700   19.8940 N   0  0  0  0  0  0  0  0  0  0  0  0
  -26.6910  -11.5660   20.0740 N   0  0  0  0  0  0  0  0  0  0  0  0
  -24.5540  -10.7230   20.8060 C   0  0  0  0  0  0  0  0  0  0  0  0
  -24.8650   -9.6000   21.6030 C   0  0  0  0  0  3  0  0  0  0  0  0
  -23.9220   -8.5650   21.7810 C   0  0  0  0  0  3  0  0  0  0  0  0
  -22.6520   -8.6480   21.1620 C   0  0  0  0  0  0  0  0  0  0  0  0
  -22.3570   -9.7560   20.3490 C   0  0  0  0  0  3  0  0  0  0  0  0
  -23.2980  -10.7830   20.1680 C   0  0  0  0  0  3  0  0  0  0  0  0
  -21.6840   -7.6770   21.2550 O   0  0  0  0  0  0  0  0  0  0  0  0
  -21.5270   -6.9250   22.3920 C   0  0  0  0  0  0  0  0  0  0  0  0
  -21.2560   -7.5170   23.6440 C   0  0  0  0  0  3  0  0  0  0  0  0
  -21.0330   -6.7040   24.7740 C   0  0  0  0  0  3  0  0  0  0  0  0
  -21.0710   -5.3020   24.6520 C   0  0  0  0  0  0  0  0  0  0  0  0
  -21.3370   -4.7110   23.4040 C   0  0  0  0  0  3  0  0  0  0  0  0
  -21.5600   -5.5210   22.2770 C   0  0  0  0  0  0  0  0  0  0  0  0
  -21.7930   -4.9450   21.0730 F   0  0  0  0  0  0  0  0  0  0  0  0
  -20.8490   -4.5200   25.7340 F   0  0  0  0  0  0  0  0  0  0  0  0
  -24.1900  -13.9320   21.4630 C   0  0  0  0  0  0  0  0  0  0  0  0
  -23.4970  -13.2990   22.4030 N   0  0  0  0  0  0  0  0  0  0  0  0
  -23.8950  -15.0740   21.1160 O   0  0  0  0  0  0  0  0  0  0  0  0
  -23.7520  -12.3700   22.7030 H   0  0  0  0  0  0  0  0  0  0  0  0
  -22.7020  -13.7530   22.8310 H   0  0  0  0  0  0  0  0  0  0  0  0
  -26.9680  -15.1220   20.3440 N   0  0  0  0  0  0  0  0  0  0  0  0
  -26.3960  -15.9030   20.6480 H   0  0  0  0  0  0  0  0  0  0  0  0
  -27.8300  -15.4100   19.8980 H   0  0  0  0  0  0  0  0  0  0  0  0
  2  1  1  0
  3  1  1  0
  4  8  1  0
  4  6  1  0
  5  7  1  0
  6 10  1  0
  7 14  1  0
  7  2  1  0
  8  5  1  0
  8  9  1  0
  9 12  1  0
  9  3  1  0
 10  2  1  0
 10 57  1  0
 11  9  1  0
 10 13  1  6
 14 15  1  0
 16 18  1  0
 16 15  1  0
 17 28  2  0
 18 23  1  0
 19 27  1  0
 19 29  1  0
 20 26  1  0
 20 22  1  0
 21 27  1  0
 22 21  1  0
 23 22  2  0
 24 25  1  0
 24 18  2  0
 25 20  2  0
 26 19  1  0
 27 17  1  0
 29 31  2  0
 30 29  1  0
 32 30  1  0
 33 38  1  0
 34 30  1  0
 35 34  1  0
 36 37  1  0
 36 35  1  0
 37 33  1  0
 38 34  1  0
 38 39  2  0
 40 39  1  0
 41 40  2  0
 42 33  2  0
 42 41  1  0
 43 17  1  0
 43 44  1  0
 43 53  1  0
 44 47  1  0
 45 49  1  0
 45 44  1  0
 46 45  2  0
 49 48  1  0
 51 49  1  0
 51 52  1  0
 51 50  1  0
 53 56  1  1
 53 54  1  0
 55 53  1  0
 58 57  1  0
 59 60  1  0
 59 58  1  0
 61 62  1  0
 61 60  1  0
 62 71  1  0
 63 71  1  0
 63 69  1  0
 64 69  1  0
 65 66  1  0
 65 64  1  0
 67 66  1  0
 67 76  1  0
 67 68  1  0
 69 68  1  0
 70 63  2  0
 71 72  1  0
 73 74  2  0
 74 93  1  0
 75 78  1  0
 75 74  1  0
 76 77  1  0
 76 73  1  0
 77 75  2  0
 78 79  1  0
 79 80  2  0
 81 84  1  0
 81 80  1  0
 82 81  2  0
 83 82  1  0
 83 78  2  0
 84 85  1  0
 85 86  1  0
 86 87  2  0
 88 87  1  0
 88 92  1  0
 89 88  2  0
 90 85  2  0
 90 89  1  0
 91 90  1  0
 93 94  1  0
 94 96  1  0
 94 97  1  0
 95 93  2  0
 98 73  1  0
 98 99  1  0
100 98  1  0
M  ISO  4  15 101  16 101  63 100  71 100
M  END
>  <TORSDO>  (43) 
F 24

>  <SCORE>  (43) 
-9.051

>  <name>  (43) 
42

>  <ligand_id>  (43) 
42

>  <original_smiles>  (43) 
[H]C1=C2C([H])(C([H])([H])C([H])([H])Oc3c([H])c([H])c4c(c3[H])C([H])([H])N(C(=O)C([H])(N([H])C(=O)C([H])(N([H])C([H])([H])[H])C([H])([H])[H])C(C([H])([H])[H])(C([H])([H])[H])C([H])([H])[H])C([H])(C(=O)N([H])C3([H])c5c([H])c([H])c([H])c([H])c5C([H])([H])C([H])([H])C3([H])[H])C4([H])[H])C([H])([H])C([H])(C([H])([H])C([H])([H])[N+]2([H])C([H])([H])C([H])([H])C([H])([H])C([H])([H])C([H])([H])C([H])([H])N([H])C(=O)N2C([H])([H])C([H])([H])C([H])([H])C([H])(n3nc(-c4c([H])c([H])c(Oc5c([H])c([H])c(F)c([H])c5F)c([H])c4[H])c(C(=O)N([H])[H])c3N([H])[H])C2([H])[H])[N+]([H])([H])C1([H])[H]

>  <smiles>  (43) 
[H]C1=C2C([H])(C([H])([H])C([H])([H])Oc3c([H])c([H])c4c(c3[H])C([H])([H])N(C(=O)C([H])(N([H])C(=O)C([H])(N([H])C([H])([H])[H])C([H])([H])[H])C(C([H])([H])[H])(C([H])([H])[H])C([H])([H])[H])C([H])(C(=O)N([H])C3([H])c5c([H])c([H])c([H])c([H])c5C([H])([H])C([H])([H])C3([H])[H])C4([H])[H])C([H])([H])C([H])(C([H])([H])C([H])([H])[N+]2([H])C([H])([H])C([H])([H])C([H])([H])C([H])([H])C([H])([H])C([H])([H])N([H])C(=O)N2C([H])([H])C([H])([H])C([H])([H])C([H])(n3nc(-c4c([H])c([H])c(Oc5c([H])c([H])c(F)c([H])c5F)c([H])c4[H])c(C(=O)N([H])[H])c3N([H])[H])C2([H])[H])[N+]([H])([H])C1([H])[H]

$$$$
43:0:0
     RDKit          3D

 98107  0  0  1  0  0  0  0  0999 V2000
  -34.1100  -17.3060   18.9560 C   0  0  0  0  0  3  0  0  0  0  0  0
  -34.8430  -18.3190   19.5900 C   0  0  0  0  0  3  0  0  0  0  0  0
  -32.7220  -17.2290   19.1500 C   0  0  0  0  0  3  0  0  0  0  0  0
  -34.1690  -19.3040   20.3350 C   0  0  0  0  0  0  0  0  0  0  0  0
  -32.7600  -19.2840   20.4620 C   0  0  0  0  0  0  0  0  0  0  0  0
  -32.0360  -18.1550   19.9710 C   0  0  0  0  0  0  0  0  0  0  0  0
  -34.9700  -20.3920   21.0090 C   0  0  0  0  0  2  0  0  0  0  0  0
  -32.0360  -20.4960   21.0750 C   0  0  0  0  0  2  0  0  0  0  0  0
  -34.3180  -21.7420   20.7570 C   0  0  0  0  0  2  0  0  0  0  0  0
  -32.8800  -21.8030   21.3030 C   0  0  0  0  0  3  0  0  0  0  0  0
  -30.5490  -17.9510   20.3110 C   0  0  0  0  0  2  0  0  0  0  0  0
  -29.8410  -16.6420   19.8390 C   0  0  0  0  0  2  0  0  0  0  0  0
  -30.6690  -14.3660   20.4140 C   0  0  0  0  0  0  0  0  0  0  0  0
  -30.3630  -12.1810   19.3550 C   0  0  0  0  0  2  0  0  0  0  0  0
  -29.4340  -12.3790   18.1390 C   0  0  0  0  0  2  0  0  0  0  0  0
  -27.9530  -12.2810   18.5470 C   0  0  0  0  0  2  0  0  0  0  0  0
  -27.6140  -13.1320   19.8020 C   0  0  0  0  0  3  0  0  0  0  0  0
  -28.6620  -12.9270   20.9220 C   0  0  0  0  0  2  0  0  0  0  0  0
  -29.9960  -13.1910   20.3600 N   0  0  0  0  0  0  0  0  0  0  0  0
  -31.8140  -14.4910   19.9840 O   0  0  0  0  0  0  0  0  0  0  0  0
  -29.9100  -15.4400   20.6960 N   0  0  0  0  0  0  0  0  0  0  0  0
  -29.0470  -15.2090   21.1670 H   0  0  0  0  0  0  0  0  0  0  0  0
  -25.2210  -13.7660   20.5090 C   0  0  0  0  0  0  0  0  0  0  0  0
  -24.1440  -13.0050   20.8780 C   0  0  0  0  0  0  0  0  0  0  0  0
  -24.5880  -11.6480   20.8440 C   0  0  0  0  0  0  0  0  0  0  0  0
  -26.2550  -12.8720   20.2760 N   0  0  0  0  0  0  0  0  0  0  0  0
  -25.8770  -11.5930   20.5340 N   0  0  0  0  0  0  0  0  0  0  0  0
  -23.8450  -10.3950   21.0300 C   0  0  0  0  0  0  0  0  0  0  0  0
  -24.2800   -9.4130   21.9470 C   0  0  0  0  0  3  0  0  0  0  0  0
  -23.5410   -8.2230   22.1280 C   0  0  0  0  0  3  0  0  0  0  0  0
  -22.3520   -8.0100   21.3940 C   0  0  0  0  0  0  0  0  0  0  0  0
  -21.9330   -8.9820   20.4680 C   0  0  0  0  0  3  0  0  0  0  0  0
  -22.6720  -10.1630   20.2840 C   0  0  0  0  0  3  0  0  0  0  0  0
  -21.5820   -6.8750   21.4840 O   0  0  0  0  0  0  0  0  0  0  0  0
  -21.5560   -6.1090   22.6200 C   0  0  0  0  0  0  0  0  0  0  0  0
  -21.1950   -6.6480   23.8750 C   0  0  0  0  0  3  0  0  0  0  0  0
  -21.1160   -5.8100   25.0040 C   0  0  0  0  0  3  0  0  0  0  0  0
  -21.3870   -4.4340   24.8800 C   0  0  0  0  0  0  0  0  0  0  0  0
  -21.7390   -3.8930   23.6300 C   0  0  0  0  0  3  0  0  0  0  0  0
  -21.8210   -4.7280   22.5030 C   0  0  0  0  0  0  0  0  0  0  0  0
  -22.1390   -4.1990   21.2970 F   0  0  0  0  0  0  0  0  0  0  0  0
  -21.3030   -3.6270   25.9630 F   0  0  0  0  0  0  0  0  0  0  0  0
  -22.7560  -13.4990   21.1560 C   0  0  0  0  0  0  0  0  0  0  0  0
  -22.0220  -12.8110   22.0240 N   0  0  0  0  0  0  0  0  0  0  0  0
  -22.3280  -14.5300   20.6380 O   0  0  0  0  0  0  0  0  0  0  0  0
  -22.3790  -11.9740   22.4630 H   0  0  0  0  0  0  0  0  0  0  0  0
  -21.0900  -13.1260   22.2550 H   0  0  0  0  0  0  0  0  0  0  0  0
  -25.4010  -15.1340   20.3350 N   0  0  0  0  0  0  0  0  0  0  0  0
  -24.6370  -15.7930   20.4430 H   0  0  0  0  0  0  0  0  0  0  0  0
  -26.2530  -15.5710   20.0060 H   0  0  0  0  0  0  0  0  0  0  0  0
  -32.2340  -23.0930   20.7420 C   0  0  0  0  0  2  0  0  0  0  0  0
  -30.9390  -23.4420   21.3520 N   0  0  0  0  0  4  0  0  0  0  0  0
  -31.0340  -23.4790   22.3550 H   0  0  0  0  0  0  0  0  0  0  0  0
  -30.2770  -22.7170   21.1280 H   0  0  0  0  0  0  0  0  0  0  0  0
  -30.3840  -24.7220   20.8520 C   0  0  0  0  0  2  0  0  0  0  0  0
  -28.9070  -24.9020   21.2540 C   0  0  0  0  0  2  0  0  0  0  0  0
  -27.9920  -25.3360   20.0950 C   0  0  0  0  0  2  0  0  0  0  0  0
  -28.1390  -26.7300   19.7980 O   0  0  0  0  0  0  0  0  0  0  0  0
  -24.4990  -31.8260   23.0940 C   0  0  0  0  0  0  0  0  0  0  0  0
  -26.9760  -27.4640   19.8110 C   0  0  0  0  0  0  0  0  0  0  0  0
  -23.2130  -30.4900   21.4510 C   0  0  0  0  0  3  0  0  0  0  0  0
  -24.5970  -28.9820   19.9290 C   0  0  0  0  0  0  0  0  0  0  0  0
  -25.7300  -30.8350   21.1710 C   0  0  0  0  0  2  0  0  0  0  0  0
  -25.7780  -29.4830   20.4910 C   0  0  0  0  0  0  0  0  0  0  0  0
  -26.9700  -28.7310   20.4310 C   0  0  0  0  0  3  0  0  0  0  0  0
  -25.7830  -26.9830   19.2240 C   0  0  0  0  0  3  0  0  0  0  0  0
  -24.5930  -27.7300   19.2900 C   0  0  0  0  0  3  0  0  0  0  0  0
  -23.3640  -29.8490   20.0460 C   0  0  0  0  0  2  0  0  0  0  0  0
  -24.5000  -31.0620   21.9640 N   0  0  0  0  0  0  0  0  0  0  0  0
  -23.4420  -32.0930   23.6830 O   0  0  0  0  0  0  0  0  0  0  0  0
  -22.5870  -29.4480   22.4050 C   0  0  0  0  0  0  0  0  0  0  0  0
  -21.2560  -29.2840   22.3210 N   0  0  0  0  0  0  0  0  0  0  0  0
  -23.2910  -28.7910   23.1760 O   0  0  0  0  0  0  0  0  0  0  0  0
  -20.7480  -29.8630   21.6670 H   0  0  0  0  0  0  0  0  0  0  0  0
  -17.8900  -28.1060   22.8940 C   0  0  0  0  0  0  0  0  0  0  0  0
  -20.4570  -28.3340   23.0950 C   0  0  0  0  0  3  0  0  0  0  0  0
  -20.5290  -26.9180   22.4800 C   0  0  0  0  0  2  0  0  0  0  0  0
  -19.3940  -26.6290   21.4930 C   0  0  0  0  0  2  0  0  0  0  0  0
  -18.0330  -26.7720   22.1810 C   0  0  0  0  0  2  0  0  0  0  0  0
  -19.0270  -28.8470   23.3090 C   0  0  0  0  0  0  0  0  0  0  0  0
  -18.8390  -30.0980   23.9370 C   0  0  0  0  0  3  0  0  0  0  0  0
  -17.5450  -30.6060   24.1540 C   0  0  0  0  0  3  0  0  0  0  0  0
  -16.4210  -29.8630   23.7540 C   0  0  0  0  0  3  0  0  0  0  0  0
  -16.5950  -28.6150   23.1290 C   0  0  0  0  0  3  0  0  0  0  0  0
  -25.8170  -32.4180   23.6820 C   0  0  0  0  0  3  0  0  0  0  0  0
  -25.5390  -33.8030   24.0810 N   0  0  0  0  0  0  0  0  0  0  0  0
  -25.8560  -34.8830   23.3520 C   0  0  0  0  0  0  0  0  0  0  0  0
  -26.4840  -34.8140   22.2930 O   0  0  0  0  0  0  0  0  0  0  0  0
  -24.9780  -33.9320   24.9110 H   0  0  0  0  0  0  0  0  0  0  0  0
  -24.1340  -36.7010   23.1310 C   0  0  0  0  0  1  0  0  0  0  0  0
  -25.3990  -36.2540   23.8820 C   0  0  0  0  0  3  0  0  0  0  0  0
  -27.5740  -37.0820   24.6650 C   0  0  0  0  0  1  0  0  0  0  0  0
  -26.4380  -37.3010   23.7740 N   0  0  0  0  0  0  0  0  0  0  0  0
  -26.0470  -38.2180   23.9750 H   0  0  0  0  0  0  0  0  0  0  0  0
  -26.3850  -31.5880   24.8990 C   0  0  1  0  0  0  0  0  0  0  0  0
  -25.3400  -31.3160   26.0060 C   0  0  0  0  0  1  0  0  0  0  0  0
  -26.9350  -30.2230   24.4220 C   0  0  0  0  0  1  0  0  0  0  0  0
  -27.5760  -32.3430   25.5380 C   0  0  0  0  0  1  0  0  0  0  0  0
  1  3  2  0
  1  2  1  0
  2  4  2  0
  3  6  1  0
  4  5  1  0
  4  7  1  0
  5  8  1  0
  6 11  1  0
  6  5  2  0
  8 10  1  0
  9  7  1  0
  9 10  1  0
 10 51  1  0
 12 11  1  0
 12 21  1  0
 13 21  1  0
 14 19  1  0
 15 16  1  0
 15 14  1  0
 17 16  1  0
 17 26  1  0
 17 18  1  0
 19 13  1  0
 19 18  1  0
 20 13  2  0
 21 22  1  0
 23 24  2  0
 24 43  1  0
 25 24  1  0
 25 28  1  0
 26 23  1  0
 26 27  1  0
 27 25  2  0
 28 29  1  0
 29 30  2  0
 31 34  1  0
 31 30  1  0
 32 31  2  0
 33 32  1  0
 33 28  2  0
 34 35  1  0
 35 36  1  0
 36 37  2  0
 38 37  1  0
 38 42  1  0
 39 38  2  0
 40 35  2  0
 40 39  1  0
 41 40  1  0
 43 44  1  0
 44 47  1  0
 44 46  1  0
 45 43  2  0
 48 49  1  0
 48 23  1  0
 50 48  1  0
 51 52  1  0
 52 53  1  0
 54 52  1  0
 55 56  1  0
 55 52  1  0
 57 56  1  0
 58 60  1  0
 58 57  1  0
 59 70  2  0
 60 65  1  0
 61 69  1  0
 61 71  1  0
 62 68  1  0
 62 64  1  0
 63 69  1  0
 64 63  1  0
 65 64  2  0
 66 67  1  0
 66 60  2  0
 67 62  2  0
 68 61  1  0
 69 59  1  0
 71 73  2  0
 72 71  1  0
 74 72  1  0
 75 84  2  0
 75 80  1  0
 76 72  1  0
 76 80  1  0
 77 76  1  0
 78 79  1  0
 78 77  1  0
 79 75  1  0
 80 81  2  0
 81 82  1  0
 83 82  2  0
 84 83  1  0
 85 59  1  0
 85 86  1  0
 85 95  1  0
 86 89  1  0
 87 91  1  0
 87 86  1  0
 88 87  2  0
 91 90  1  0
 93 91  1  0
 93 94  1  0
 93 92  1  0
 95 98  1  1
 95 96  1  0
 97 95  1  0
M  ISO  4  13 100  21 100  57 101  58 101
M  END
>  <TORSDO>  (44) 
F 23

>  <SCORE>  (44) 
-12.351

>  <name>  (44) 
43

>  <ligand_id>  (44) 
43

>  <original_smiles>  (44) 
[H]c1c([H])c([H])c2c(c1[H])C([H])([H])C([H])([H])C([H])([H])C2([H])N([H])C(=O)C1([H])N(C(=O)C([H])(N([H])C(=O)C([H])(N([H])C([H])([H])[H])C([H])([H])[H])C(C([H])([H])[H])(C([H])([H])[H])C([H])([H])[H])C([H])([H])c2c([H])c(OC([H])([H])C([H])([H])C([H])([H])[N+]([H])([H])C([H])([H])C3([H])C([H])([H])c4c(C([H])([H])C([H])([H])N([H])C(=O)N5C([H])([H])C([H])([H])C([H])([H])C([H])(n6nc(-c7c([H])c([H])c(Oc8c([H])c([H])c(F)c([H])c8F)c([H])c7[H])c(C(=O)N([H])[H])c6N([H])[H])C5([H])[H])c([H])c([H])c([H])c4C([H])([H])C3([H])[H])c([H])c([H])c2C1([H])[H]

>  <smiles>  (44) 
[H]c1c([H])c([H])c2c(c1[H])C([H])([H])C([H])([H])C([H])([H])C2([H])N([H])C(=O)C1([H])N(C(=O)C([H])(N([H])C(=O)C([H])(N([H])C([H])([H])[H])C([H])([H])[H])C(C([H])([H])[H])(C([H])([H])[H])C([H])([H])[H])C([H])([H])c2c([H])c(OC([H])([H])C([H])([H])C([H])([H])[N+]([H])([H])C([H])([H])C3([H])C([H])([H])c4c(C([H])([H])C([H])([H])N([H])C(=O)N5C([H])([H])C([H])([H])C([H])([H])C([H])(n6nc(-c7c([H])c([H])c(Oc8c([H])c([H])c(F)c([H])c8F)c([H])c7[H])c(C(=O)N([H])[H])c6N([H])[H])C5([H])[H])c([H])c([H])c([H])c4C([H])([H])C3([H])[H])c([H])c([H])c2C1([H])[H]

$$$$
44:0:0
     RDKit          3D

106114  0  0  1  0  0  0  0  0999 V2000
  -31.2780  -24.8430   14.8260 C   0  0  0  0  0  2  0  0  0  0  0  0
  -30.8530  -24.4020   17.2250 C   0  0  0  0  0  2  0  0  0  0  0  0
  -31.5200  -26.3170   15.1970 C   0  0  0  0  0  2  0  0  0  0  0  0
  -31.6270  -23.9210   16.0030 C   0  0  0  0  0  3  0  0  0  0  0  0
  -31.0980  -25.8900   17.5270 C   0  0  0  0  0  3  0  0  0  0  0  0
  -30.7030  -26.7200   16.3610 N   0  0  0  0  0  0  0  0  0  0  0  0
  -30.8960  -28.1590   16.6280 C   0  0  0  0  0  2  0  0  0  0  0  0
  -30.2140  -29.0670   15.5890 C   0  0  0  0  0  2  0  0  0  0  0  0
  -28.7720  -28.7950   15.5450 N   0  0  0  0  0  4  0  0  0  0  0  0
  -28.6440  -27.8110   15.3750 H   0  0  0  0  0  0  0  0  0  0  0  0
  -28.3350  -29.3270   14.8140 H   0  0  0  0  0  0  0  0  0  0  0  0
  -28.3470  -29.0410   16.4210 H   0  0  0  0  0  0  0  0  0  0  0  0
  -30.3850  -26.2290   18.8590 C   0  0  0  0  0  2  0  0  0  0  0  0
  -28.8540  -26.0520   18.8700 C   0  0  0  0  0  2  0  0  0  0  0  0
  -28.3990  -26.6250   20.0850 O   0  0  0  0  0  0  0  0  0  0  0  0
  -24.5200  -31.7000   23.1280 C   0  0  0  0  0  0  0  0  0  0  0  0
  -27.2020  -27.2930   20.0570 C   0  0  0  0  0  0  0  0  0  0  0  0
  -23.3250  -30.3000   21.4710 C   0  0  0  0  0  3  0  0  0  0  0  0
  -24.7910  -28.7540   20.0650 C   0  0  0  0  0  0  0  0  0  0  0  0
  -25.8480  -30.6590   21.2980 C   0  0  0  0  0  2  0  0  0  0  0  0
  -25.9360  -29.2870   20.6680 C   0  0  0  0  0  0  0  0  0  0  0  0
  -27.1370  -28.5510   20.6830 C   0  0  0  0  0  3  0  0  0  0  0  0
  -26.0450  -26.7550   19.4540 C   0  0  0  0  0  3  0  0  0  0  0  0
  -24.8350  -27.4810   19.4650 C   0  0  0  0  0  3  0  0  0  0  0  0
  -23.5440  -29.6120   20.0970 C   0  0  0  0  0  2  0  0  0  0  0  0
  -24.5830  -30.9010   22.0250 N   0  0  0  0  0  0  0  0  0  0  0  0
  -23.4350  -31.9770   23.6560 O   0  0  0  0  0  0  0  0  0  0  0  0
  -22.6640  -29.2830   22.4260 C   0  0  0  0  0  0  0  0  0  0  0  0
  -21.3390  -29.1120   22.2880 N   0  0  0  0  0  0  0  0  0  0  0  0
  -23.3380  -28.6510   23.2440 O   0  0  0  0  0  0  0  0  0  0  0  0
  -20.8600  -29.6800   21.6020 H   0  0  0  0  0  0  0  0  0  0  0  0
  -17.9470  -27.9510   22.7550 C   0  0  0  0  0  0  0  0  0  0  0  0
  -20.5060  -28.1780   23.0460 C   0  0  0  0  0  3  0  0  0  0  0  0
  -20.5950  -26.7480   22.4640 C   0  0  0  0  0  2  0  0  0  0  0  0
  -19.4970  -26.4420   21.4400 C   0  0  0  0  0  2  0  0  0  0  0  0
  -18.1130  -26.6010   22.0760 C   0  0  0  0  0  2  0  0  0  0  0  0
  -19.0700  -28.6990   23.1950 C   0  0  0  0  0  0  0  0  0  0  0  0
  -18.8620  -29.9640   23.7850 C   0  0  0  0  0  3  0  0  0  0  0  0
  -17.5620  -30.4800   23.9370 C   0  0  0  0  0  3  0  0  0  0  0  0
  -16.4530  -29.7280   23.5120 C   0  0  0  0  0  3  0  0  0  0  0  0
  -16.6470  -28.4640   22.9300 C   0  0  0  0  0  3  0  0  0  0  0  0
  -25.8020  -32.3250   23.7630 C   0  0  0  0  0  3  0  0  0  0  0  0
  -25.4860  -33.7130   24.1200 N   0  0  0  0  0  0  0  0  0  0  0  0
  -25.8110  -34.7820   23.3800 C   0  0  0  0  0  0  0  0  0  0  0  0
  -26.4830  -34.7030   22.3480 O   0  0  0  0  0  0  0  0  0  0  0  0
  -24.8850  -33.8470   24.9200 H   0  0  0  0  0  0  0  0  0  0  0  0
  -24.0650  -36.5670   23.0680 C   0  0  0  0  0  1  0  0  0  0  0  0
  -25.3140  -36.1570   23.8650 C   0  0  0  0  0  3  0  0  0  0  0  0
  -27.4500  -37.0400   24.6950 C   0  0  0  0  0  1  0  0  0  0  0  0
  -26.3370  -37.2200   23.7690 N   0  0  0  0  0  0  0  0  0  0  0  0
  -25.9250  -38.1340   23.9420 H   0  0  0  0  0  0  0  0  0  0  0  0
  -26.3270  -31.5300   25.0190 C   0  0  1  0  0  0  0  0  0  0  0  0
  -25.2440  -31.2630   26.0910 C   0  0  0  0  0  1  0  0  0  0  0  0
  -26.9100  -30.1640   24.5870 C   0  0  0  0  0  1  0  0  0  0  0  0
  -27.4740  -32.3170   25.6950 C   0  0  0  0  0  1  0  0  0  0  0  0
  -31.4170  -22.4140   15.7500 C   0  0  0  0  0  2  0  0  0  0  0  0
  -29.9930  -22.0150   15.3260 C   0  0  0  0  0  2  0  0  0  0  0  0
  -29.8090  -20.4950   15.1770 C   0  0  0  0  0  2  0  0  0  0  0  0
  -29.0750  -19.8290   16.3630 C   0  0  0  0  0  2  0  0  0  0  0  0
  -29.8500  -19.7670   17.6250 N   0  0  0  0  0  4  0  0  0  0  0  0
  -29.2050  -19.4640   18.3360 H   0  0  0  0  0  0  0  0  0  0  0  0
  -30.1730  -20.6830   17.8860 H   0  0  0  0  0  0  0  0  0  0  0  0
  -30.9740  -18.8090   17.6310 C   0  0  0  0  0  2  0  0  0  0  0  0
  -31.6270  -18.6770   19.0200 C   0  0  0  0  0  2  0  0  0  0  0  0
  -30.6990  -18.1510   20.1350 C   0  0  0  0  0  2  0  0  0  0  0  0
  -31.5210  -17.6470   21.3530 C   0  0  0  0  0  2  0  0  0  0  0  0
  -30.7520  -16.8310   22.4270 C   0  0  0  0  0  2  0  0  0  0  0  0
  -30.3820  -15.3780   22.0470 C   0  0  0  0  0  2  0  0  0  0  0  0
  -31.1950  -14.0420   20.1180 C   0  0  0  0  0  0  0  0  0  0  0  0
  -30.6380  -11.9540   18.9530 C   0  0  0  0  0  2  0  0  0  0  0  0
  -29.6900  -12.2520   17.7760 C   0  0  0  0  0  2  0  0  0  0  0  0
  -28.2190  -12.2800   18.2490 C   0  0  0  0  0  2  0  0  0  0  0  0
  -27.9990  -13.1310   19.5300 C   0  0  0  0  0  3  0  0  0  0  0  0
  -29.0580  -12.7680   20.5910 C   0  0  0  0  0  2  0  0  0  0  0  0
  -30.3900  -12.9550   19.9970 N   0  0  0  0  0  0  0  0  0  0  0  0
  -32.2710  -14.1720   19.5370 O   0  0  0  0  0  0  0  0  0  0  0  0
  -30.6340  -15.1300   20.6370 N   0  0  0  0  0  0  0  0  0  0  0  0
  -31.0970  -15.9420   20.2520 H   0  0  0  0  0  0  0  0  0  0  0  0
  -25.6790  -13.9400   20.3210 C   0  0  0  0  0  0  0  0  0  0  0  0
  -24.5620  -13.2640   20.7190 C   0  0  0  0  0  0  0  0  0  0  0  0
  -24.9080  -11.8780   20.6800 C   0  0  0  0  0  0  0  0  0  0  0  0
  -26.6410  -12.9780   20.0530 N   0  0  0  0  0  0  0  0  0  0  0  0
  -26.1780  -11.7330   20.3290 N   0  0  0  0  0  0  0  0  0  0  0  0
  -24.0880  -10.6800   20.9040 C   0  0  0  0  0  0  0  0  0  0  0  0
  -24.4760   -9.6820   21.8240 C   0  0  0  0  0  3  0  0  0  0  0  0
  -23.6650   -8.5450   22.0330 C   0  0  0  0  0  3  0  0  0  0  0  0
  -22.4540   -8.3960   21.3210 C   0  0  0  0  0  0  0  0  0  0  0  0
  -22.0840   -9.3840   20.3920 C   0  0  0  0  0  3  0  0  0  0  0  0
  -22.8900  -10.5130   20.1810 C   0  0  0  0  0  3  0  0  0  0  0  0
  -21.6130   -7.3170   21.4390 O   0  0  0  0  0  0  0  0  0  0  0  0
  -21.5490   -6.5800   22.5940 C   0  0  0  0  0  0  0  0  0  0  0  0
  -21.2460   -7.1710   23.8400 C   0  0  0  0  0  3  0  0  0  0  0  0
  -21.1260   -6.3640   24.9890 C   0  0  0  0  0  3  0  0  0  0  0  0
  -21.2950   -4.9710   24.8930 C   0  0  0  0  0  0  0  0  0  0  0  0
  -21.5910   -4.3810   23.6530 C   0  0  0  0  0  3  0  0  0  0  0  0
  -21.7180   -5.1840   22.5060 C   0  0  0  0  0  0  0  0  0  0  0  0
  -21.9850   -4.6100   21.3050 F   0  0  0  0  0  0  0  0  0  0  0  0
  -21.1710   -4.1940   25.9930 F   0  0  0  0  0  0  0  0  0  0  0  0
  -23.2140  -13.8530   21.0360 C   0  0  0  0  0  0  0  0  0  0  0  0
  -22.4650  -13.2280   21.9370 N   0  0  0  0  0  0  0  0  0  0  0  0
  -22.8360  -14.9000   20.5080 O   0  0  0  0  0  0  0  0  0  0  0  0
  -22.7840  -12.3810   22.3890 H   0  0  0  0  0  0  0  0  0  0  0  0
  -21.5630  -13.6110   22.1850 H   0  0  0  0  0  0  0  0  0  0  0  0
  -25.9610  -15.2910   20.1320 N   0  0  0  0  0  0  0  0  0  0  0  0
  -25.2690  -16.0230   20.2500 H   0  0  0  0  0  0  0  0  0  0  0  0
  -26.8610  -15.6310   19.8220 H   0  0  0  0  0  0  0  0  0  0  0  0
  1  3  1  0
  1  4  1  0
  2  5  1  0
  3  6  1  0
  4 56  1  0
  4  2  1  0
  5 13  1  0
  6  7  1  0
  6  5  1  0
  8  7  1  0
  9  8  1  0
  9 12  1  0
 10  9  1  0
 11  9  1  0
 13 14  1  0
 14 15  1  0
 16 27  2  0
 17 15  1  0
 17 22  1  0
 18 26  1  0
 18 28  1  0
 19 25  1  0
 19 21  1  0
 20 26  1  0
 21 22  2  0
 21 20  1  0
 23 24  1  0
 23 17  2  0
 24 19  2  0
 25 18  1  0
 26 16  1  0
 28 30  2  0
 29 28  1  0
 31 29  1  0
 32 41  2  0
 32 37  1  0
 33 29  1  0
 33 37  1  0
 34 33  1  0
 35 36  1  0
 35 34  1  0
 36 32  1  0
 37 38  2  0
 38 39  1  0
 40 39  2  0
 41 40  1  0
 42 16  1  0
 42 43  1  0
 42 52  1  0
 43 46  1  0
 44 48  1  0
 44 43  1  0
 45 44  2  0
 48 47  1  0
 50 48  1  0
 50 51  1  0
 50 49  1  0
 52 55  1  1
 52 53  1  0
 54 52  1  0
 57 56  1  0
 58 57  1  0
 58 59  1  0
 59 60  1  0
 60 63  1  0
 60 62  1  0
 60 61  1  0
 63 64  1  0
 64 65  1  0
 65 66  1  0
 66 67  1  0
 68 67  1  0
 69 77  1  0
 70 75  1  0
 71 72  1  0
 71 70  1  0
 73 72  1  0
 73 82  1  0
 73 74  1  0
 75 69  1  0
 75 74  1  0
 76 69  2  0
 77 68  1  0
 78 77  1  0
 79 80  2  0
 80 99  1  0
 81 80  1  0
 81 84  1  0
 82 79  1  0
 82 83  1  0
 83 81  2  0
 84 85  1  0
 85 86  2  0
 87 90  1  0
 87 86  1  0
 88 87  2  0
 89 88  1  0
 89 84  2  0
 90 91  1  0
 91 92  1  0
 92 93  2  0
 94 93  1  0
 94 98  1  0
 95 94  2  0
 96 91  2  0
 96 95  1  0
 97 96  1  0
 99100  1  0
100103  1  0
100102  1  0
101 99  2  0
104105  1  0
104 79  1  0
106104  1  0
M  ISO  4  14 101  15 101  69 100  77 100
M  END
>  <TORSDO>  (45) 
F 32

>  <SCORE>  (45) 
-10.087

>  <name>  (45) 
44

>  <ligand_id>  (45) 
44

>  <original_smiles>  (45) 
[H]c1c([H])c([H])c2c(c1[H])C([H])([H])C([H])([H])C([H])([H])C2([H])N([H])C(=O)C1([H])N(C(=O)C([H])(N([H])C(=O)C([H])(N([H])C([H])([H])[H])C([H])([H])[H])C(C([H])([H])[H])(C([H])([H])[H])C([H])([H])[H])C([H])([H])c2c([H])c(OC([H])([H])C([H])([H])C3([H])N(C([H])([H])C([H])([H])[N+]([H])([H])[H])C([H])([H])C([H])([H])C([H])(C([H])([H])C([H])([H])C([H])([H])C([H])([H])[N+]([H])([H])C([H])([H])C([H])([H])C([H])([H])C([H])([H])C([H])([H])C([H])([H])N([H])C(=O)N4C([H])([H])C([H])([H])C([H])([H])C([H])(n5nc(-c6c([H])c([H])c(Oc7c([H])c([H])c(F)c([H])c7F)c([H])c6[H])c(C(=O)N([H])[H])c5N([H])[H])C4([H])[H])C3([H])[H])c([H])c([H])c2C1([H])[H]

>  <smiles>  (45) 
[H]c1c([H])c([H])c2c(c1[H])C([H])([H])C([H])([H])C([H])([H])C2([H])N([H])C(=O)C1([H])N(C(=O)C([H])(N([H])C(=O)C([H])(N([H])C([H])([H])[H])C([H])([H])[H])C(C([H])([H])[H])(C([H])([H])[H])C([H])([H])[H])C([H])([H])c2c([H])c(OC([H])([H])C([H])([H])C3([H])N(C([H])([H])C([H])([H])[N+]([H])([H])[H])C([H])([H])C([H])([H])C([H])(C([H])([H])C([H])([H])C([H])([H])C([H])([H])[N+]([H])([H])C([H])([H])C([H])([H])C([H])([H])C([H])([H])C([H])([H])C([H])([H])N([H])C(=O)N4C([H])([H])C([H])([H])C([H])([H])C([H])(n5nc(-c6c([H])c([H])c(Oc7c([H])c([H])c(F)c([H])c7F)c([H])c6[H])c(C(=O)N([H])[H])c5N([H])[H])C4([H])[H])C3([H])[H])c([H])c([H])c2C1([H])[H]

$$$$
45:0:0
     RDKit          3D

 97102  0  0  1  0  0  0  0  0999 V2000
  -23.0350  -25.2760   19.0720 C   0  0  0  0  0  2  0  0  0  0  0  0
  -20.8870  -26.7530   20.7890 C   0  0  0  0  0  1  0  0  0  0  0  0
  -22.1380  -23.8080   18.7000 C   0  0  0  0  0  2  0  0  0  0  0  0
  -20.0750  -22.7330   20.4170 C   0  0  0  0  0  1  0  0  0  0  0  0
  -19.3240  -24.2140   21.6560 C   0  0  0  0  0  1  0  0  0  0  0  0
  -22.8910  -26.4840   20.3300 C   0  0  0  0  0  2  0  0  0  0  0  0
  -21.7150  -22.5870   19.6740 N   0  0  1  0  0  4  0  0  0  0  0  0
  -22.2100  -22.9030   20.4920 H   0  0  0  0  0  0  0  0  0  0  0  0
  -24.5270  -26.3480   21.1410 O   0  0  0  0  0  0  0  0  0  0  0  0
  -24.6090  -31.0060   24.3530 C   0  0  0  0  0  0  0  0  0  0  0  0
  -25.9340  -26.6120   20.8520 C   0  0  0  0  0  3  0  0  0  0  0  0
  -23.5320  -30.2250   22.3040 C   0  0  0  0  0  3  0  0  0  0  0  0
  -25.0100  -28.9870   20.5730 C   0  0  0  0  0  3  0  0  0  0  0  0
  -26.0590  -29.9930   22.5900 C   0  0  0  0  0  2  0  0  0  0  0  0
  -25.9320  -28.8490   21.6070 C   0  0  0  0  0  3  0  0  0  0  0  0
  -26.5720  -27.5960   21.6870 C   0  0  0  0  0  2  0  0  0  0  0  0
  -25.9130  -26.9660   19.5350 C   0  0  0  0  0  2  0  0  0  0  0  0
  -25.1690  -28.1530   19.4280 C   0  0  0  0  0  2  0  0  0  0  0  0
  -23.8590  -29.9340   20.7950 C   0  0  0  0  0  2  0  0  0  0  0  0
  -24.7590  -30.4720   23.1090 N   0  0  0  0  0  0  0  0  0  0  0  0
  -23.4970  -31.3680   24.7750 O   0  0  0  0  0  0  0  0  0  0  0  0
  -22.7410  -29.1320   23.0530 C   0  0  0  0  0  0  0  0  0  0  0  0
  -21.4480  -29.2980   23.2880 N   0  0  0  0  0  0  0  0  0  0  0  0
  -23.3430  -28.1880   23.5530 O   0  0  0  0  0  0  0  0  0  0  0  0
  -21.0300  -30.1650   22.9840 H   0  0  0  0  0  0  0  0  0  0  0  0
  -18.0830  -28.7020   22.3240 C   0  0  0  0  0  0  0  0  0  0  0  0
  -20.5040  -28.2100   23.6140 C   0  0  0  0  0  3  0  0  0  0  0  0
  -21.0160  -26.6830   22.9650 C   0  0  0  0  0  2  0  0  0  0  0  0
  -20.3700  -25.9650   21.4930 C   0  0  0  0  0  2  0  0  0  0  0  0
  -18.3510  -27.4220   20.9470 C   0  0  0  0  0  1  0  0  0  0  0  0
  -19.0890  -28.9490   23.4090 C   0  0  0  0  0  0  0  0  0  0  0  0
  -18.9520  -29.9760   24.4240 C   0  0  0  0  0  3  0  0  0  0  0  0
  -17.8030  -30.7390   24.6410 C   0  0  0  0  0  3  0  0  0  0  0  0
  -16.7240  -30.4230   23.8070 C   0  0  0  0  0  3  0  0  0  0  0  0
  -16.8660  -29.4690   22.7150 C   0  0  0  0  0  3  0  0  0  0  0  0
  -25.8290  -31.2100   25.2840 C   0  0  0  0  0  3  0  0  0  0  0  0
  -25.7590  -30.3640   26.6150 C   0  0  1  0  0  0  0  0  0  0  0  0
  -24.4130  -30.4880   27.3670 C   0  0  0  0  0  1  0  0  0  0  0  0
  -26.0010  -28.8630   26.3390 C   0  0  0  0  0  1  0  0  0  0  0  0
  -26.8900  -30.8210   27.5650 C   0  0  0  0  0  1  0  0  0  0  0  0
  -25.8670  -32.6440   25.5840 N   0  0  0  0  0  0  0  0  0  0  0  0
  -26.6290  -33.5270   24.9300 C   0  0  0  0  0  0  0  0  0  0  0  0
  -27.4540  -33.1930   24.0750 O   0  0  0  0  0  0  0  0  0  0  0  0
  -25.1760  -32.9940   26.2330 H   0  0  0  0  0  0  0  0  0  0  0  0
  -25.6250  -35.7160   24.2100 C   0  0  0  0  0  1  0  0  0  0  0  0
  -26.4570  -35.0130   25.2940 C   0  0  0  0  0  3  0  0  0  0  0  0
  -28.4860  -35.2610   26.6490 C   0  0  0  0  0  1  0  0  0  0  0  0
  -27.7420  -35.7210   25.4780 N   0  0  0  0  0  0  0  0  0  0  0  0
  -27.5910  -36.7220   25.5720 H   0  0  0  0  0  0  0  0  0  0  0  0
  -17.7940  -23.8140   21.7900 C   0  0  0  0  0  2  0  0  0  0  0  0
  -17.1090  -24.3430   22.9880 N   0  0  0  0  0  4  0  0  0  0  0  0
  -17.6300  -24.1600   23.8260 H   0  0  0  0  0  0  0  0  0  0  0  0
  -16.2050  -23.9090   23.0820 H   0  0  0  0  0  0  0  0  0  0  0  0
  -16.9770  -25.3380   22.8880 H   0  0  0  0  0  0  0  0  0  0  0  0
  -22.6730  -21.1910   19.4780 C   0  0  0  0  0  2  0  0  0  0  0  0
  -24.4210  -20.8900   18.9730 C   0  0  0  0  0  2  0  0  0  0  0  0
  -25.7430  -19.6780   19.4130 C   0  0  0  0  0  2  0  0  0  0  0  0
  -27.2950  -19.0100   18.6730 C   0  0  0  0  0  2  0  0  0  0  0  0
  -28.9120  -18.3610   19.2830 C   0  0  0  0  0  2  0  0  0  0  0  0
  -31.0240  -16.0950   19.3160 C   0  0  0  0  0  0  0  0  0  0  0  0
  -31.7570  -13.5800   19.1760 C   0  0  0  0  0  2  0  0  0  0  0  0
  -30.8820  -12.8550   18.1100 C   0  0  0  0  0  2  0  0  0  0  0  0
  -29.4510  -12.5870   18.6320 C   0  0  0  0  0  2  0  0  0  0  0  0
  -28.9030  -13.8100   19.4040 C   0  0  0  0  0  3  0  0  0  0  0  0
  -29.8830  -14.2560   20.4880 C   0  0  0  0  0  2  0  0  0  0  0  0
  -30.9850  -14.7540   19.7160 N   0  0  0  0  0  0  0  0  0  0  0  0
  -32.1760  -16.4210   18.9390 O   0  0  0  0  0  0  0  0  0  0  0  0
  -29.7180  -16.8670   19.2810 N   0  0  0  0  0  0  0  0  0  0  0  0
  -29.0260  -16.1800   19.5430 H   0  0  0  0  0  0  0  0  0  0  0  0
  -26.7260  -14.6030   20.4240 C   0  0  0  0  0  0  0  0  0  0  0  0
  -25.6330  -13.9170   20.8660 C   0  0  0  0  0  0  0  0  0  0  0  0
  -25.9410  -12.5320   20.6920 C   0  0  0  0  0  0  0  0  0  0  0  0
  -27.6070  -13.6320   19.9890 N   0  0  0  0  0  0  0  0  0  0  0  0
  -27.1680  -12.3790   20.2250 N   0  0  0  0  0  0  0  0  0  0  0  0
  -25.1150  -11.3420   20.8660 C   0  0  0  0  0  0  0  0  0  0  0  0
  -25.4430  -10.3520   21.8150 C   0  0  0  0  0  3  0  0  0  0  0  0
  -24.6200   -9.2170   21.9690 C   0  0  0  0  0  3  0  0  0  0  0  0
  -23.4590   -9.0730   21.1730 C   0  0  0  0  0  0  0  0  0  0  0  0
  -23.1530  -10.0520   20.2130 C   0  0  0  0  0  3  0  0  0  0  0  0
  -23.9750  -11.1780   20.0560 C   0  0  0  0  0  3  0  0  0  0  0  0
  -22.6120   -7.9950   21.2380 O   0  0  0  0  0  0  0  0  0  0  0  0
  -22.3380   -7.3690   22.4260 C   0  0  0  0  0  0  0  0  0  0  0  0
  -21.7640   -8.0590   23.5160 C   0  0  0  0  0  3  0  0  0  0  0  0
  -21.4340   -7.3610   24.6950 C   0  0  0  0  0  3  0  0  0  0  0  0
  -21.6660   -5.9740   24.7810 C   0  0  0  0  0  0  0  0  0  0  0  0
  -22.2330   -5.2850   23.6940 C   0  0  0  0  0  3  0  0  0  0  0  0
  -22.5660   -5.9820   22.5190 C   0  0  0  0  0  0  0  0  0  0  0  0
  -23.0920   -5.3120   21.4650 F   0  0  0  0  0  0  0  0  0  0  0  0
  -21.3420   -5.3000   25.9080 F   0  0  0  0  0  0  0  0  0  0  0  0
  -24.3360  -14.5180   21.3150 C   0  0  0  0  0  0  0  0  0  0  0  0
  -23.6280  -13.8400   22.2090 N   0  0  0  0  0  0  0  0  0  0  0  0
  -23.9680  -15.6180   20.9050 O   0  0  0  0  0  0  0  0  0  0  0  0
  -23.9450  -12.9480   22.5580 H   0  0  0  0  0  0  0  0  0  0  0  0
  -22.7580  -14.2200   22.5520 H   0  0  0  0  0  0  0  0  0  0  0  0
  -27.0280  -15.9580   20.3300 N   0  0  0  0  0  0  0  0  0  0  0  0
  -26.3060  -16.6390   20.5400 H   0  0  0  0  0  0  0  0  0  0  0  0
  -27.7660  -16.3440   19.7580 H   0  0  0  0  0  0  0  0  0  0  0  0
  1  6  1  0
  2 29  1  0
  3  1  1  0
  3  7  1  0
  5 50  1  0
  6  9  1  0
  7  4  1  0
  7  8  1  1
 10 21  2  0
 11  9  1  0
 11 16  1  0
 12 22  1  0
 12 20  1  0
 13 18  1  0
 13 19  1  0
 13 15  1  0
 14 20  1  0
 15 16  1  0
 15 14  1  0
 17 11  1  0
 18 17  1  0
 19 12  1  0
 20 10  1  0
 22 23  1  0
 22 24  2  0
 23 27  1  0
 25 23  1  0
 26 35  2  0
 26 31  1  0
 27 28  1  0
 29 28  1  0
 30 26  1  0
 31 27  1  0
 31 32  2  0
 32 33  1  0
 34 33  2  0
 35 34  1  0
 36 10  1  0
 36 41  1  0
 36 37  1  0
 37 38  1  1
 37 40  1  0
 39 37  1  0
 41 44  1  0
 42 46  1  0
 42 41  1  0
 43 42  2  0
 46 45  1  0
 46 48  1  0
 48 49  1  0
 48 47  1  0
 50 51  1  0
 51 53  1  0
 51 52  1  0
 54 51  1  0
 55  7  1  0
 56 57  1  0
 56 55  1  0
 58 59  1  0
 58 57  1  0
 60 66  1  0
 61 66  1  0
 62 63  1  0
 62 61  1  0
 64 63  1  0
 64 73  1  0
 64 65  1  0
 66 65  1  0
 67 60  2  0
 68 59  1  0
 68 60  1  0
 68 69  1  0
 70 71  2  0
 71 90  1  0
 72 75  1  0
 72 71  1  0
 73 74  1  0
 73 70  1  0
 74 72  2  0
 75 76  1  0
 76 77  2  0
 78 81  1  0
 78 77  1  0
 79 78  2  0
 80 79  1  0
 80 75  2  0
 81 82  1  0
 82 87  2  0
 82 83  1  0
 83 84  2  0
 84 85  1  0
 85 89  1  0
 86 85  2  0
 87 86  1  0
 88 87  1  0
 90 91  1  0
 91 94  1  0
 91 93  1  0
 92 90  2  0
 95 70  1  0
 95 96  1  0
 97 95  1  0
M  ISO  4   6 101   9 101  60 100  68 100
M  END
>  <TORSDO>  (46) 
F 23

>  <SCORE>  (46) 
-3.955

>  <name>  (46) 
45

>  <ligand_id>  (46) 
45

>  <original_smiles>  (46) 
[H]c1c([H])c([H])c2c(c1[H])C([H])([H])C([H])([H])C([H])([H])C2([H])N([H])C(=O)C1([H])N(C(=O)C([H])(N([H])C(=O)C([H])(N([H])C([H])([H])[H])C([H])([H])[H])C(C([H])([H])[H])(C([H])([H])[H])C([H])([H])[H])C([H])([H])c2c([H])c(OC3([H])C([H])([H])C([H])(C([H])([H])[N+]([H])([H])[H])C([H])([H])[N+]([H])(C([H])([H])C([H])([H])C([H])([H])C([H])([H])C([H])([H])N([H])C(=O)N4C([H])([H])C([H])([H])C([H])([H])C([H])(n5nc(-c6c([H])c([H])c(Oc7c([H])c([H])c(F)c([H])c7F)c([H])c6[H])c(C(=O)N([H])[H])c5N([H])[H])C4([H])[H])C([H])([H])C3([H])[H])c([H])c([H])c2C1([H])[H]

>  <smiles>  (46) 
[H]c1c([H])c([H])c2c(c1[H])C([H])([H])C([H])([H])C([H])([H])C2([H])N([H])C(=O)C1([H])N(C(=O)C([H])(N([H])C(=O)C([H])(N([H])C([H])([H])[H])C([H])([H])[H])C(C([H])([H])[H])(C([H])([H])[H])C([H])([H])[H])C([H])([H])c2c([H])c(OC3([H])C([H])([H])C([H])(C([H])([H])[N+]([H])([H])[H])C([H])([H])[N+]([H])(C([H])([H])C([H])([H])C([H])([H])C([H])([H])C([H])([H])N([H])C(=O)N4C([H])([H])C([H])([H])C([H])([H])C([H])(n5nc(-c6c([H])c([H])c(Oc7c([H])c([H])c(F)c([H])c7F)c([H])c6[H])c(C(=O)N([H])[H])c5N([H])[H])C4([H])[H])C([H])([H])C3([H])[H])c([H])c([H])c2C1([H])[H]

$$$$
46:0:0
     RDKit          3D

101110  0  0  1  0  0  0  0  0999 V2000
  -30.4980  -23.2010   14.2860 C   0  0  0  0  0  3  0  0  0  0  0  0
  -32.0810  -23.9650   15.9790 C   0  0  0  0  0  3  0  0  0  0  0  0
  -31.3770  -22.1670   13.9280 C   0  0  0  0  0  3  0  0  0  0  0  0
  -32.9630  -22.9340   15.6220 C   0  0  0  0  0  3  0  0  0  0  0  0
  -30.8150  -24.0610   15.3560 C   0  0  0  0  0  0  0  0  0  0  0  0
  -32.5720  -21.9870   14.6550 C   0  0  0  0  0  0  0  0  0  0  0  0
  -29.1990  -24.4230   17.2610 C   0  0  0  0  0  2  0  0  0  0  0  0
  -29.6930  -26.7570   17.5150 C   0  0  0  0  0  2  0  0  0  0  0  0
  -29.7460  -24.9730   15.9310 C   0  0  0  0  0  3  0  0  0  0  0  0
  -28.6960  -25.6760   17.9670 C   0  0  0  0  0  3  0  0  0  0  0  0
  -30.2470  -26.3220   16.2200 N   0  0  0  0  0  4  0  0  0  0  0  0
  -31.2500  -26.2890   16.2780 H   0  0  0  0  0  0  0  0  0  0  0  0
  -29.9950  -26.9470   15.4730 H   0  0  0  0  0  0  0  0  0  0  0  0
  -28.5660  -25.5270   19.4950 C   0  0  0  0  0  2  0  0  0  0  0  0
  -28.4430  -26.7990   20.1170 O   0  0  0  0  0  0  0  0  0  0  0  0
  -24.6280  -31.8850   23.2120 C   0  0  0  0  0  0  0  0  0  0  0  0
  -27.2340  -27.4640   20.1080 C   0  0  0  0  0  0  0  0  0  0  0  0
  -23.3970  -30.4860   21.5840 C   0  0  0  0  0  3  0  0  0  0  0  0
  -24.8310  -28.9530   20.1410 C   0  0  0  0  0  0  0  0  0  0  0  0
  -25.9150  -30.8530   21.3480 C   0  0  0  0  0  2  0  0  0  0  0  0
  -25.9920  -29.4820   20.7200 C   0  0  0  0  0  0  0  0  0  0  0  0
  -27.1910  -28.7360   20.7110 C   0  0  0  0  0  3  0  0  0  0  0  0
  -26.0520  -26.9400   19.5330 C   0  0  0  0  0  3  0  0  0  0  0  0
  -24.8570  -27.6800   19.5470 C   0  0  0  0  0  3  0  0  0  0  0  0
  -23.5890  -29.8130   20.1990 C   0  0  0  0  0  2  0  0  0  0  0  0
  -24.6650  -31.0880   22.1070 N   0  0  0  0  0  0  0  0  0  0  0  0
  -23.5540  -32.1540   23.7680 O   0  0  0  0  0  0  0  0  0  0  0  0
  -22.7630  -29.4590   22.5460 C   0  0  0  0  0  0  0  0  0  0  0  0
  -21.4400  -29.2740   22.4370 N   0  0  0  0  0  0  0  0  0  0  0  0
  -23.4600  -28.8330   23.3520 O   0  0  0  0  0  0  0  0  0  0  0  0
  -20.9370  -29.8290   21.7580 H   0  0  0  0  0  0  0  0  0  0  0  0
  -18.0750  -28.0690   22.9620 C   0  0  0  0  0  0  0  0  0  0  0  0
  -20.6350  -28.3370   23.2190 C   0  0  0  0  0  3  0  0  0  0  0  0
  -20.7390  -26.9040   22.6490 C   0  0  0  0  0  2  0  0  0  0  0  0
  -19.6340  -26.5750   21.6410 C   0  0  0  0  0  2  0  0  0  0  0  0
  -18.2550  -26.7180   22.2900 C   0  0  0  0  0  2  0  0  0  0  0  0
  -19.1970  -28.8360   23.3850 C   0  0  0  0  0  0  0  0  0  0  0  0
  -18.9770  -30.1000   23.9720 C   0  0  0  0  0  3  0  0  0  0  0  0
  -17.6740  -30.6010   24.1430 C   0  0  0  0  0  3  0  0  0  0  0  0
  -16.5680  -29.8320   23.7370 C   0  0  0  0  0  3  0  0  0  0  0  0
  -16.7720  -28.5700   23.1520 C   0  0  0  0  0  3  0  0  0  0  0  0
  -25.9230  -32.5130   23.8140 C   0  0  0  0  0  3  0  0  0  0  0  0
  -25.6140  -33.9040   24.1690 N   0  0  0  0  0  0  0  0  0  0  0  0
  -25.9250  -34.9680   23.4120 C   0  0  0  0  0  0  0  0  0  0  0  0
  -26.5760  -34.8790   22.3690 O   0  0  0  0  0  0  0  0  0  0  0  0
  -25.0360  -34.0460   24.9840 H   0  0  0  0  0  0  0  0  0  0  0  0
  -24.1770  -36.7470   23.1070 C   0  0  0  0  0  1  0  0  0  0  0  0
  -25.4340  -36.3450   23.8940 C   0  0  0  0  0  3  0  0  0  0  0  0
  -27.5810  -37.2340   24.6890 C   0  0  0  0  0  1  0  0  0  0  0  0
  -26.4550  -37.4080   23.7740 N   0  0  0  0  0  0  0  0  0  0  0  0
  -26.0450  -38.3230   23.9460 H   0  0  0  0  0  0  0  0  0  0  0  0
  -26.4730  -31.7220   25.0660 C   0  0  1  0  0  0  0  0  0  0  0  0
  -25.4060  -31.4680   26.1550 C   0  0  0  0  0  1  0  0  0  0  0  0
  -27.0480  -30.3530   24.6360 C   0  0  0  0  0  1  0  0  0  0  0  0
  -27.6390  -32.5080   25.7120 C   0  0  0  0  0  1  0  0  0  0  0  0
  -33.3810  -20.7230   14.4610 C   0  0  0  0  0  2  0  0  0  0  0  0
  -32.7520  -19.5350   15.0940 N   0  0  0  0  0  4  0  0  0  0  0  0
  -33.4360  -18.8010   15.0270 H   0  0  0  0  0  0  0  0  0  0  0  0
  -31.9710  -19.2640   14.5220 H   0  0  0  0  0  0  0  0  0  0  0  0
  -32.2460  -19.5990   16.4960 C   0  0  0  0  0  2  0  0  0  0  0  0
  -31.7100  -18.1760   16.8810 C   0  0  0  0  0  2  0  0  0  0  0  0
  -30.9880  -17.8300   18.2320 C   0  0  0  0  0  2  0  0  0  0  0  0
  -30.8700  -16.2680   18.3480 C   0  0  0  0  0  2  0  0  0  0  0  0
  -30.7980  -14.6760   20.3130 C   0  0  0  0  0  0  0  0  0  0  0  0
  -30.4230  -12.3840   19.6180 C   0  0  0  0  0  2  0  0  0  0  0  0
  -29.5720  -12.4810   18.3390 C   0  0  0  0  0  2  0  0  0  0  0  0
  -28.0680  -12.4670   18.6660 C   0  0  0  0  0  2  0  0  0  0  0  0
  -27.6680  -13.3920   19.8520 C   0  0  0  0  0  3  0  0  0  0  0  0
  -28.7090  -13.3860   21.0050 C   0  0  0  0  0  2  0  0  0  0  0  0
  -30.0520  -13.5430   20.4270 N   0  0  0  0  0  0  0  0  0  0  0  0
  -32.0240  -14.6700   20.3790 O   0  0  0  0  0  0  0  0  0  0  0  0
  -30.2260  -15.6410   19.5500 N   0  0  0  0  0  0  0  0  0  0  0  0
  -29.2230  -15.5750   19.4990 H   0  0  0  0  0  0  0  0  0  0  0  0
  -25.2560  -13.9640   20.5080 C   0  0  0  0  0  0  0  0  0  0  0  0
  -24.1840  -13.1830   20.8540 C   0  0  0  0  0  0  0  0  0  0  0  0
  -24.6660  -11.8380   20.8760 C   0  0  0  0  0  0  0  0  0  0  0  0
  -26.3170  -13.0940   20.3240 N   0  0  0  0  0  0  0  0  0  0  0  0
  -25.9640  -11.8090   20.6160 N   0  0  0  0  0  0  0  0  0  0  0  0
  -23.9410  -10.5740   21.0600 C   0  0  0  0  0  0  0  0  0  0  0  0
  -24.3590   -9.6130   22.0060 C   0  0  0  0  0  3  0  0  0  0  0  0
  -23.6310   -8.4150   22.1740 C   0  0  0  0  0  3  0  0  0  0  0  0
  -22.4690   -8.1720   21.3990 C   0  0  0  0  0  0  0  0  0  0  0  0
  -22.0770   -9.1210   20.4380 C   0  0  0  0  0  3  0  0  0  0  0  0
  -22.8050  -10.3090   20.2690 C   0  0  0  0  0  3  0  0  0  0  0  0
  -21.7020   -7.0370   21.4900 O   0  0  0  0  0  0  0  0  0  0  0  0
  -21.6490   -6.2900   22.6390 C   0  0  0  0  0  0  0  0  0  0  0  0
  -21.2530   -6.8480   23.8780 C   0  0  0  0  0  3  0  0  0  0  0  0
  -21.1540   -6.0250   25.0180 C   0  0  0  0  0  3  0  0  0  0  0  0
  -21.4370   -4.6490   24.9220 C   0  0  0  0  0  0  0  0  0  0  0  0
  -21.8240   -4.0920   23.6860 C   0  0  0  0  0  3  0  0  0  0  0  0
  -21.9250   -4.9140   22.5520 C   0  0  0  0  0  0  0  0  0  0  0  0
  -22.2820   -4.3670   21.3640 F   0  0  0  0  0  0  0  0  0  0  0  0
  -21.3300   -3.8540   26.0110 F   0  0  0  0  0  0  0  0  0  0  0  0
  -22.7740  -13.6510   21.0480 C   0  0  0  0  0  0  0  0  0  0  0  0
  -22.0130  -12.9720   21.9010 N   0  0  0  0  0  0  0  0  0  0  0  0
  -22.3510  -14.6610   20.4840 O   0  0  0  0  0  0  0  0  0  0  0  0
  -22.3710  -12.1660   22.3920 H   0  0  0  0  0  0  0  0  0  0  0  0
  -21.0590  -13.2650   22.0740 H   0  0  0  0  0  0  0  0  0  0  0  0
  -25.4120  -15.3280   20.3150 N   0  0  0  0  0  0  0  0  0  0  0  0
  -24.6280  -15.9740   20.3670 H   0  0  0  0  0  0  0  0  0  0  0  0
  -26.2860  -15.7760   20.0740 H   0  0  0  0  0  0  0  0  0  0  0  0
  1  5  1  0
  3  1  2  0
  3  6  1  0
  4  2  1  0
  5  2  2  0
  6  4  2  0
  7 10  1  0
  8 10  1  0
  9  5  1  0
  9 11  1  0
  9  7  1  0
 10 14  1  0
 11 12  1  0
 11  8  1  0
 13 11  1  0
 14 15  1  0
 16 27  2  0
 17 15  1  0
 17 22  1  0
 18 26  1  0
 18 28  1  0
 19 25  1  0
 19 21  1  0
 20 26  1  0
 21 20  1  0
 22 21  2  0
 23 24  1  0
 23 17  2  0
 24 19  2  0
 25 18  1  0
 26 16  1  0
 28 30  2  0
 29 28  1  0
 31 29  1  0
 32 41  2  0
 32 37  1  0
 33 29  1  0
 33 37  1  0
 34 33  1  0
 35 36  1  0
 35 34  1  0
 36 32  1  0
 37 38  2  0
 38 39  1  0
 40 39  2  0
 41 40  1  0
 42 16  1  0
 42 43  1  0
 42 52  1  0
 43 46  1  0
 44 48  1  0
 44 43  1  0
 45 44  2  0
 48 47  1  0
 50 48  1  0
 50 51  1  0
 50 49  1  0
 52 55  1  1
 52 53  1  0
 54 52  1  0
 56  6  1  0
 56 57  1  0
 57 60  1  0
 58 57  1  0
 59 57  1  0
 60 61  1  0
 61 62  1  0
 62 63  1  0
 63 72  1  0
 64 71  2  0
 64 70  1  0
 65 70  1  0
 66 67  1  0
 66 65  1  0
 68 67  1  0
 68 77  1  0
 68 69  1  0
 70 69  1  0
 72 64  1  0
 73 72  1  0
 74 75  2  0
 75 76  1  0
 75 94  1  0
 76 79  1  0
 77 74  1  0
 77 78  1  0
 78 76  2  0
 79 80  1  0
 80 81  2  0
 82 85  1  0
 82 81  1  0
 83 82  2  0
 84 83  1  0
 84 79  2  0
 85 86  1  0
 86 87  1  0
 87 88  2  0
 89 88  1  0
 89 93  1  0
 90 89  2  0
 91 86  2  0
 91 90  1  0
 92 91  1  0
 94 95  1  0
 95 98  1  0
 95 97  1  0
 96 94  2  0
 99100  1  0
 99 74  1  0
101 99  1  0
M  ISO  4  14 101  15 101  64 100  72 100
M  END
>  <TORSDO>  (47) 
F 24

>  <SCORE>  (47) 
-12.012

>  <name>  (47) 
46

>  <ligand_id>  (47) 
46

>  <original_smiles>  (47) 
[H]c1c([H])c([H])c2c(c1[H])C([H])([H])C([H])([H])C([H])([H])C2([H])N([H])C(=O)C1([H])N(C(=O)C([H])(N([H])C(=O)C([H])(N([H])C([H])([H])[H])C([H])([H])[H])C(C([H])([H])[H])(C([H])([H])[H])C([H])([H])[H])C([H])([H])c2c([H])c(OC([H])([H])C3([H])C([H])([H])C([H])(c4c([H])c([H])c(C([H])([H])[N+]([H])([H])C([H])([H])C([H])([H])C([H])([H])C([H])([H])N([H])C(=O)N5C([H])([H])C([H])([H])C([H])([H])C([H])(n6nc(-c7c([H])c([H])c(Oc8c([H])c([H])c(F)c([H])c8F)c([H])c7[H])c(C(=O)N([H])[H])c6N([H])[H])C5([H])[H])c([H])c4[H])[N+]([H])([H])C3([H])[H])c([H])c([H])c2C1([H])[H]

>  <smiles>  (47) 
[H]c1c([H])c([H])c2c(c1[H])C([H])([H])C([H])([H])C([H])([H])C2([H])N([H])C(=O)C1([H])N(C(=O)C([H])(N([H])C(=O)C([H])(N([H])C([H])([H])[H])C([H])([H])[H])C(C([H])([H])[H])(C([H])([H])[H])C([H])([H])[H])C([H])([H])c2c([H])c(OC([H])([H])C3([H])C([H])([H])C([H])(c4c([H])c([H])c(C([H])([H])[N+]([H])([H])C([H])([H])C([H])([H])C([H])([H])C([H])([H])N([H])C(=O)N5C([H])([H])C([H])([H])C([H])([H])C([H])(n6nc(-c7c([H])c([H])c(Oc8c([H])c([H])c(F)c([H])c8F)c([H])c7[H])c(C(=O)N([H])[H])c6N([H])[H])C5([H])[H])c([H])c4[H])[N+]([H])([H])C3([H])[H])c([H])c([H])c2C1([H])[H]

$$$$
47:0:0
     RDKit          3D

 98107  0  0  1  0  0  0  0  0999 V2000
  -27.6160  -20.7620   18.7170 C   0  0  0  0  0  3  0  0  0  0  0  0
  -28.4260  -19.6730   19.0850 C   0  0  0  0  0  3  0  0  0  0  0  0
  -27.8780  -22.0610   19.1860 C   0  0  0  0  0  3  0  0  0  0  0  0
  -29.7610  -21.1720   20.4460 C   0  0  0  0  0  3  0  0  0  0  0  0
  -29.5410  -19.8170   19.9450 C   0  0  0  0  0  0  0  0  0  0  0  0
  -28.9510  -22.3240   20.0620 C   0  0  0  0  0  0  0  0  0  0  0  0
  -32.7840  -19.6460   20.3020 C   0  0  0  0  0  2  0  0  0  0  0  0
  -31.9370  -18.8660   18.0660 C   0  0  0  0  0  2  0  0  0  0  0  0
  -31.7130  -18.7860   21.0060 C   0  0  0  0  0  2  0  0  0  0  0  0
  -30.9270  -17.9550   18.7890 C   0  0  0  0  0  2  0  0  0  0  0  0
  -33.1910  -19.0730   18.9350 C   0  0  0  0  0  3  0  0  0  0  0  0
  -30.4350  -18.4910   20.1680 C   0  0  2  0  0  0  0  0  0  0  0  0
  -34.1860  -19.9400   18.2790 N   0  0  0  0  0  4  0  0  0  0  0  0
  -33.8640  -20.8890   18.2230 H   0  0  0  0  0  0  0  0  0  0  0  0
  -34.3930  -19.6190   17.3480 H   0  0  0  0  0  0  0  0  0  0  0  0
  -35.0460  -19.9330   18.8000 H   0  0  0  0  0  0  0  0  0  0  0  0
  -29.6670  -17.2950   20.9390 C   0  0  0  0  0  2  0  0  0  0  0  0
  -30.5800  -14.7520   20.4440 C   0  0  0  0  0  0  0  0  0  0  0  0
  -30.4260  -12.4970   19.3710 C   0  0  0  0  0  2  0  0  0  0  0  0
  -29.4810  -12.5810   18.1510 C   0  0  0  0  0  2  0  0  0  0  0  0
  -28.0030  -12.4120   18.5660 C   0  0  0  0  0  2  0  0  0  0  0  0
  -27.6250  -13.2820   19.7940 C   0  0  0  0  0  3  0  0  0  0  0  0
  -28.6790  -13.1550   20.9160 C   0  0  0  0  0  2  0  0  0  0  0  0
  -29.9840  -13.5200   20.3400 N   0  0  0  0  0  0  0  0  0  0  0  0
  -31.7800  -14.9040   20.2070 O   0  0  0  0  0  0  0  0  0  0  0  0
  -29.7010  -15.8000   20.6090 N   0  0  0  0  0  0  0  0  0  0  0  0
  -28.7660  -15.4240   20.6250 H   0  0  0  0  0  0  0  0  0  0  0  0
  -25.2270  -13.8810   20.4930 C   0  0  0  0  0  0  0  0  0  0  0  0
  -24.1580  -13.1080   20.8550 C   0  0  0  0  0  0  0  0  0  0  0  0
  -24.6230  -11.7570   20.8360 C   0  0  0  0  0  0  0  0  0  0  0  0
  -26.2750  -12.9990   20.2730 N   0  0  0  0  0  0  0  0  0  0  0  0
  -25.9170  -11.7180   20.5440 N   0  0  0  0  0  0  0  0  0  0  0  0
  -23.8960  -10.4940   21.0250 C   0  0  0  0  0  0  0  0  0  0  0  0
  -24.3130   -9.5340   21.9730 C   0  0  0  0  0  3  0  0  0  0  0  0
  -23.5870   -8.3360   22.1460 C   0  0  0  0  0  3  0  0  0  0  0  0
  -22.4280   -8.0900   21.3720 C   0  0  0  0  0  0  0  0  0  0  0  0
  -22.0310   -9.0390   20.4120 C   0  0  0  0  0  3  0  0  0  0  0  0
  -22.7580  -10.2280   20.2360 C   0  0  0  0  0  3  0  0  0  0  0  0
  -21.6740   -6.9450   21.4560 O   0  0  0  0  0  0  0  0  0  0  0  0
  -21.5990   -6.2160   22.6160 C   0  0  0  0  0  0  0  0  0  0  0  0
  -21.1320   -6.7810   23.8220 C   0  0  0  0  0  3  0  0  0  0  0  0
  -21.0030   -5.9770   24.9720 C   0  0  0  0  0  3  0  0  0  0  0  0
  -21.3330   -4.6100   24.9170 C   0  0  0  0  0  0  0  0  0  0  0  0
  -21.7940   -4.0430   23.7170 C   0  0  0  0  0  3  0  0  0  0  0  0
  -21.9230   -4.8450   22.5670 C   0  0  0  0  0  0  0  0  0  0  0  0
  -22.3470   -4.2880   21.4060 F   0  0  0  0  0  0  0  0  0  0  0  0
  -21.2030   -3.8360   26.0210 F   0  0  0  0  0  0  0  0  0  0  0  0
  -22.7560  -13.5840   21.1050 C   0  0  0  0  0  0  0  0  0  0  0  0
  -22.0120  -12.8850   21.9560 N   0  0  0  0  0  0  0  0  0  0  0  0
  -22.3250  -14.6090   20.5790 O   0  0  0  0  0  0  0  0  0  0  0  0
  -22.3710  -12.0530   22.4030 H   0  0  0  0  0  0  0  0  0  0  0  0
  -21.0710  -13.1850   22.1670 H   0  0  0  0  0  0  0  0  0  0  0  0
  -25.3920  -15.2500   20.3080 N   0  0  0  0  0  0  0  0  0  0  0  0
  -24.6220  -15.9050   20.3990 H   0  0  0  0  0  0  0  0  0  0  0  0
  -26.2350  -15.6850   19.9530 H   0  0  0  0  0  0  0  0  0  0  0  0
  -29.1820  -23.8370   20.5190 C   0  0  0  0  0  3  0  0  0  0  0  0
  -28.1660  -24.9850   19.9970 C   0  0  0  0  0  3  0  0  0  0  0  0
  -28.3210  -26.4470   20.2760 O   0  0  0  0  0  0  0  0  0  0  0  0
  -24.5880  -31.8910   23.2320 C   0  0  0  0  0  0  0  0  0  0  0  0
  -27.1960  -27.3020   20.1910 C   0  0  0  0  0  0  0  0  0  0  0  0
  -23.3750  -30.4830   21.6060 C   0  0  0  0  0  3  0  0  0  0  0  0
  -24.8210  -28.9260   20.1770 C   0  0  0  0  0  0  0  0  0  0  0  0
  -25.9150  -30.8020   21.4060 C   0  0  0  0  0  2  0  0  0  0  0  0
  -25.9930  -29.4170   20.7650 C   0  0  0  0  0  0  0  0  0  0  0  0
  -27.1780  -28.6150   20.7640 C   0  0  0  0  0  3  0  0  0  0  0  0
  -26.0020  -26.8770   19.5590 C   0  0  0  0  0  3  0  0  0  0  0  0
  -24.8300  -27.6620   19.5650 C   0  0  0  0  0  3  0  0  0  0  0  0
  -23.5840  -29.7970   20.2300 C   0  0  0  0  0  2  0  0  0  0  0  0
  -24.6450  -31.0760   22.1380 N   0  0  0  0  0  0  0  0  0  0  0  0
  -23.5060  -32.1710   23.7730 O   0  0  0  0  0  0  0  0  0  0  0  0
  -22.7200  -29.4740   22.5770 C   0  0  0  0  0  0  0  0  0  0  0  0
  -21.3930  -29.2930   22.4520 N   0  0  0  0  0  0  0  0  0  0  0  0
  -23.3990  -28.8570   23.4000 O   0  0  0  0  0  0  0  0  0  0  0  0
  -20.9060  -29.8460   21.7600 H   0  0  0  0  0  0  0  0  0  0  0  0
  -18.0130  -28.1030   22.9660 C   0  0  0  0  0  0  0  0  0  0  0  0
  -20.5730  -28.3620   23.2300 C   0  0  0  0  0  3  0  0  0  0  0  0
  -20.6720  -26.9280   22.6620 C   0  0  0  0  0  2  0  0  0  0  0  0
  -19.5660  -26.6010   21.6540 C   0  0  0  0  0  2  0  0  0  0  0  0
  -18.1850  -26.7490   22.3000 C   0  0  0  0  0  2  0  0  0  0  0  0
  -19.1330  -28.8660   23.3880 C   0  0  0  0  0  0  0  0  0  0  0  0
  -18.9170  -30.1320   23.9740 C   0  0  0  0  0  3  0  0  0  0  0  0
  -17.6120  -30.6320   24.1450 C   0  0  0  0  0  3  0  0  0  0  0  0
  -16.5070  -29.8650   23.7400 C   0  0  0  0  0  3  0  0  0  0  0  0
  -16.7080  -28.6030   23.1540 C   0  0  0  0  0  3  0  0  0  0  0  0
  -25.8730  -32.5250   23.8470 C   0  0  0  0  0  3  0  0  0  0  0  0
  -25.5630  -33.9220   24.1810 N   0  0  0  0  0  0  0  0  0  0  0  0
  -25.8930  -34.9770   23.4230 C   0  0  0  0  0  0  0  0  0  0  0  0
  -26.5560  -34.8750   22.3870 O   0  0  0  0  0  0  0  0  0  0  0  0
  -24.9700  -34.0750   24.9820 H   0  0  0  0  0  0  0  0  0  0  0  0
  -24.1650  -36.7720   23.0790 C   0  0  0  0  0  1  0  0  0  0  0  0
  -25.4080  -36.3650   23.8850 C   0  0  0  0  0  3  0  0  0  0  0  0
  -27.5440  -37.2440   24.7160 C   0  0  0  0  0  1  0  0  0  0  0  0
  -26.4430  -37.4180   23.7730 N   0  0  0  0  0  0  0  0  0  0  0  0
  -26.0380  -38.3400   23.9160 H   0  0  0  0  0  0  0  0  0  0  0  0
  -26.3950  -31.7540   25.1200 C   0  0  1  0  0  0  0  0  0  0  0  0
  -25.3050  -31.5160   26.1920 C   0  0  0  0  0  1  0  0  0  0  0  0
  -26.9800  -30.3770   24.7240 C   0  0  0  0  0  1  0  0  0  0  0  0
  -27.5510  -32.5480   25.7730 C   0  0  0  0  0  1  0  0  0  0  0  0
  1  2  2  0
  1  3  1  0
  2  5  1  0
  3  6  2  0
  5 12  1  0
  5  4  2  0
  6  4  1  0
  6 56  1  0
  7  9  1  0
  8 10  1  0
  8 11  1  0
 10 12  1  0
 11 13  1  0
 11  7  1  0
 12 17  1  1
 12  9  1  0
 13 16  1  0
 14 13  1  0
 15 13  1  0
 18 26  1  0
 19 24  1  0
 20 21  1  0
 20 19  1  0
 22 21  1  0
 22 31  1  0
 22 23  1  0
 24 18  1  0
 24 23  1  0
 25 18  2  0
 26 27  1  0
 26 17  1  0
 28 29  2  0
 29 48  1  0
 30 29  1  0
 30 33  1  0
 31 28  1  0
 31 32  1  0
 32 30  2  0
 33 34  1  0
 34 35  2  0
 36 39  1  0
 36 35  1  0
 37 36  2  0
 38 37  1  0
 38 33  2  0
 39 40  1  0
 40 41  1  0
 41 42  2  0
 43 42  1  0
 43 47  1  0
 44 43  2  0
 45 40  2  0
 45 44  1  0
 46 45  1  0
 48 49  1  0
 49 52  1  0
 49 51  1  0
 50 48  2  0
 53 54  1  0
 53 28  1  0
 55 53  1  0
 57 58  1  0
 57 56  2  0
 59 70  2  0
 60 58  1  0
 60 65  1  0
 61 69  1  0
 61 71  1  0
 62 68  1  0
 62 64  1  0
 63 69  1  0
 64 63  1  0
 65 64  2  0
 66 67  1  0
 66 60  2  0
 67 62  2  0
 68 61  1  0
 69 59  1  0
 71 73  2  0
 72 71  1  0
 74 72  1  0
 75 84  2  0
 75 80  1  0
 76 72  1  0
 76 80  1  0
 77 76  1  0
 78 79  1  0
 78 77  1  0
 79 75  1  0
 80 81  2  0
 81 82  1  0
 83 82  2  0
 84 83  1  0
 85 59  1  0
 85 86  1  0
 85 95  1  0
 86 89  1  0
 87 91  1  0
 87 86  1  0
 88 87  2  0
 91 90  1  0
 93 91  1  0
 93 94  1  0
 93 92  1  0
 95 98  1  1
 95 96  1  0
 97 95  1  0
M  ISO  4  18 100  26 100  57 101  58 101
M  END
>  <TORSDO>  (48) 
F 21

>  <SCORE>  (48) 
-14.016

>  <name>  (48) 
47

>  <ligand_id>  (48) 
47

>  <original_smiles>  (48) 
[H]c1c([H])c([H])c2c(c1[H])C([H])([H])C([H])([H])C([H])([H])C2([H])N([H])C(=O)C1([H])N(C(=O)C([H])(N([H])C(=O)C([H])(N([H])C([H])([H])[H])C([H])([H])[H])C(C([H])([H])[H])(C([H])([H])[H])C([H])([H])[H])C([H])([H])c2c([H])c(OC([H])([H])C([H])([H])c3c([H])c([H])c([H])c(C4(C([H])([H])N([H])C(=O)N5C([H])([H])C([H])([H])C([H])([H])C([H])(n6nc(-c7c([H])c([H])c(Oc8c([H])c([H])c(F)c([H])c8F)c([H])c7[H])c(C(=O)N([H])[H])c6N([H])[H])C5([H])[H])C([H])([H])C([H])([H])C([H])([N+]([H])([H])[H])C([H])([H])C4([H])[H])c3[H])c([H])c([H])c2C1([H])[H]

>  <smiles>  (48) 
[H]c1c([H])c([H])c2c(c1[H])C([H])([H])C([H])([H])C([H])([H])C2([H])N([H])C(=O)C1([H])N(C(=O)C([H])(N([H])C(=O)C([H])(N([H])C([H])([H])[H])C([H])([H])[H])C(C([H])([H])[H])(C([H])([H])[H])C([H])([H])[H])C([H])([H])c2c([H])c(OC([H])([H])C([H])([H])c3c([H])c([H])c([H])c(C4(C([H])([H])N([H])C(=O)N5C([H])([H])C([H])([H])C([H])([H])C([H])(n6nc(-c7c([H])c([H])c(Oc8c([H])c([H])c(F)c([H])c8F)c([H])c7[H])c(C(=O)N([H])[H])c6N([H])[H])C5([H])[H])C([H])([H])C([H])([H])C([H])([N+]([H])([H])[H])C([H])([H])C4([H])[H])c3[H])c([H])c([H])c2C1([H])[H]

$$$$
48:0:0
     RDKit          3D

 93102  0  0  1  0  0  0  0  0999 V2000
  -29.3590  -21.7280   21.3250 N   0  0  0  0  0  4  0  0  0  0  0  0
  -30.2870  -22.0090   21.5970 H   0  0  0  0  0  0  0  0  0  0  0  0
  -28.7900  -21.7410   22.1560 H   0  0  0  0  0  0  0  0  0  0  0  0
  -30.9120  -14.7030   20.8620 C   0  0  0  0  0  0  0  0  0  0  0  0
  -30.7340  -12.4170   19.9630 C   0  0  0  0  0  2  0  0  0  0  0  0
  -29.8790  -12.4090   18.6750 C   0  0  0  0  0  2  0  0  0  0  0  0
  -28.3770  -12.3350   18.9970 C   0  0  0  0  0  2  0  0  0  0  0  0
  -27.9260  -13.2910   20.1350 C   0  0  0  0  0  3  0  0  0  0  0  0
  -28.9000  -13.2530   21.3320 C   0  0  0  0  0  2  0  0  0  0  0  0
  -30.2500  -13.5130   20.8170 N   0  0  0  0  0  0  0  0  0  0  0  0
  -32.1430  -14.7600   20.8300 O   0  0  0  0  0  0  0  0  0  0  0  0
  -28.3250  -18.6860   19.2590 C   0  0  0  0  0  3  0  0  0  0  0  0
  -28.9560  -17.5110   19.4290 C   0  0  0  0  0  0  0  0  0  0  0  0
  -28.1050  -19.7610   20.2970 C   0  0  0  0  0  2  0  0  0  0  0  0
  -29.3480  -16.6510   18.2650 C   0  0  0  0  0  2  0  0  0  0  0  0
  -30.5840  -17.9610   21.3290 C   0  0  0  0  0  2  0  0  0  0  0  0
  -30.0410  -19.3290   21.8530 C   0  0  0  0  0  2  0  0  0  0  0  0
  -30.5910  -15.9720   18.8080 C   0  0  0  0  0  2  0  0  0  0  0  0
  -29.5800  -16.9390   20.7010 C   0  0  0  0  0  3  0  0  0  0  0  0
  -29.4560  -20.3230   20.8000 C   0  0  0  0  0  3  0  0  0  0  0  0
  -30.2510  -15.7010   20.2090 N   0  0  0  0  0  0  0  0  0  0  0  0
  -25.4840  -13.8950   20.6630 C   0  0  0  0  0  0  0  0  0  0  0  0
  -24.3940  -13.1210   20.9570 C   0  0  0  0  0  0  0  0  0  0  0  0
  -24.8630  -11.7730   20.9920 C   0  0  0  0  0  0  0  0  0  0  0  0
  -26.5480  -13.0170   20.5330 N   0  0  0  0  0  0  0  0  0  0  0  0
  -26.1740  -11.7380   20.7980 N   0  0  0  0  0  0  0  0  0  0  0  0
  -24.1310  -10.5070   21.1430 C   0  0  0  0  0  0  0  0  0  0  0  0
  -24.4970   -9.5550   22.1180 C   0  0  0  0  0  3  0  0  0  0  0  0
  -23.7670   -8.3550   22.2580 C   0  0  0  0  0  3  0  0  0  0  0  0
  -22.6570   -8.0990   21.4190 C   0  0  0  0  0  0  0  0  0  0  0  0
  -22.3110   -9.0400   20.4330 C   0  0  0  0  0  3  0  0  0  0  0  0
  -23.0420  -10.2310   20.2930 C   0  0  0  0  0  3  0  0  0  0  0  0
  -21.9050   -6.9500   21.4660 O   0  0  0  0  0  0  0  0  0  0  0  0
  -21.7670   -6.2260   22.6230 C   0  0  0  0  0  0  0  0  0  0  0  0
  -21.2180   -6.7910   23.7940 C   0  0  0  0  0  3  0  0  0  0  0  0
  -21.0310   -5.9920   24.9400 C   0  0  0  0  0  3  0  0  0  0  0  0
  -21.3820   -4.6300   24.9150 C   0  0  0  0  0  0  0  0  0  0  0  0
  -21.9250   -4.0640   23.7480 C   0  0  0  0  0  3  0  0  0  0  0  0
  -22.1140   -4.8600   22.6040 C   0  0  0  0  0  0  0  0  0  0  0  0
  -22.6180   -4.3060   21.4760 F   0  0  0  0  0  0  0  0  0  0  0  0
  -21.1950   -3.8600   26.0130 F   0  0  0  0  0  0  0  0  0  0  0  0
  -22.9760  -13.5920   21.1020 C   0  0  0  0  0  0  0  0  0  0  0  0
  -22.1840  -12.9100   21.9210 N   0  0  0  0  0  0  0  0  0  0  0  0
  -22.5750  -14.6000   20.5220 O   0  0  0  0  0  0  0  0  0  0  0  0
  -22.5190  -12.0940   22.4120 H   0  0  0  0  0  0  0  0  0  0  0  0
  -21.2290  -13.2100   22.0620 H   0  0  0  0  0  0  0  0  0  0  0  0
  -25.6580  -15.2620   20.4700 N   0  0  0  0  0  0  0  0  0  0  0  0
  -24.8850  -15.9170   20.5010 H   0  0  0  0  0  0  0  0  0  0  0  0
  -26.5370  -15.6960   20.2130 H   0  0  0  0  0  0  0  0  0  0  0  0
  -28.8430  -22.7620   20.3690 C   0  0  0  0  0  2  0  0  0  0  0  0
  -29.1550  -24.2580   20.7190 C   0  0  0  0  0  2  0  0  0  0  0  0
  -28.2260  -25.2290   19.9350 C   0  0  0  0  0  2  0  0  0  0  0  0
  -28.4100  -26.6610   20.1180 O   0  0  0  0  0  0  0  0  0  0  0  0
  -24.5590  -31.8690   23.1330 C   0  0  0  0  0  0  0  0  0  0  0  0
  -27.2670  -27.4520   20.0330 C   0  0  0  0  0  0  0  0  0  0  0  0
  -23.3890  -30.4800   21.4590 C   0  0  0  0  0  3  0  0  0  0  0  0
  -24.8730  -28.9870   20.0210 C   0  0  0  0  0  0  0  0  0  0  0  0
  -25.9200  -30.8530   21.3040 C   0  0  0  0  0  2  0  0  0  0  0  0
  -26.0230  -29.4920   20.6410 C   0  0  0  0  0  0  0  0  0  0  0  0
  -27.2220  -28.7320   20.6460 C   0  0  0  0  0  3  0  0  0  0  0  0
  -26.1010  -27.0010   19.3650 C   0  0  0  0  0  3  0  0  0  0  0  0
  -24.9100  -27.7430   19.3770 C   0  0  0  0  0  3  0  0  0  0  0  0
  -23.6220  -29.8340   20.0690 C   0  0  0  0  0  2  0  0  0  0  0  0
  -24.6410  -31.0820   22.0230 N   0  0  0  0  0  0  0  0  0  0  0  0
  -23.4690  -32.1240   23.6610 O   0  0  0  0  0  0  0  0  0  0  0  0
  -22.7370  -29.4350   22.3950 C   0  0  0  0  0  0  0  0  0  0  0  0
  -21.4080  -29.2760   22.2840 N   0  0  0  0  0  0  0  0  0  0  0  0
  -23.4240  -28.7720   23.1780 O   0  0  0  0  0  0  0  0  0  0  0  0
  -20.9140  -29.8630   21.6260 H   0  0  0  0  0  0  0  0  0  0  0  0
  -18.0170  -28.1520   22.8400 C   0  0  0  0  0  0  0  0  0  0  0  0
  -20.5890  -28.3270   23.0390 C   0  0  0  0  0  3  0  0  0  0  0  0
  -20.6320  -26.9220   22.3970 C   0  0  0  0  0  2  0  0  0  0  0  0
  -19.4890  -26.6750   21.4060 C   0  0  0  0  0  2  0  0  0  0  0  0
  -18.1330  -26.8300   22.1010 C   0  0  0  0  0  2  0  0  0  0  0  0
  -19.1710  -28.8620   23.2670 C   0  0  0  0  0  0  0  0  0  0  0  0
  -19.0070  -30.1040   23.9190 C   0  0  0  0  0  3  0  0  0  0  0  0
  -17.7230  -30.6340   24.1480 C   0  0  0  0  0  3  0  0  0  0  0  0
  -16.5850  -29.9190   23.7370 C   0  0  0  0  0  3  0  0  0  0  0  0
  -16.7330  -28.6790   23.0890 C   0  0  0  0  0  3  0  0  0  0  0  0
  -25.8310  -32.5070   23.7740 C   0  0  0  0  0  3  0  0  0  0  0  0
  -26.3510  -31.7150   25.0370 C   0  0  1  0  0  0  0  0  0  0  0  0
  -25.2560  -31.4370   26.0910 C   0  0  0  0  0  1  0  0  0  0  0  0
  -26.9590  -30.3560   24.6170 C   0  0  0  0  0  1  0  0  0  0  0  0
  -27.4860  -32.5120   25.7220 C   0  0  0  0  0  1  0  0  0  0  0  0
  -25.4970  -33.8920   24.1300 N   0  0  0  0  0  0  0  0  0  0  0  0
  -25.8440  -34.9670   23.4090 C   0  0  0  0  0  0  0  0  0  0  0  0
  -26.5470  -34.8960   22.3970 O   0  0  0  0  0  0  0  0  0  0  0  0
  -24.8750  -34.0210   24.9150 H   0  0  0  0  0  0  0  0  0  0  0  0
  -24.1320  -36.7680   23.0200 C   0  0  0  0  0  1  0  0  0  0  0  0
  -25.3270  -36.3390   23.8850 C   0  0  0  0  0  3  0  0  0  0  0  0
  -27.4060  -37.1990   24.8680 C   0  0  0  0  0  1  0  0  0  0  0  0
  -26.3620  -37.3960   23.8660 N   0  0  0  0  0  0  0  0  0  0  0  0
  -25.9460  -38.3100   24.0160 H   0  0  0  0  0  0  0  0  0  0  0  0
  1  2  1  0
  1  3  1  0
  5 10  1  0
  6  7  1  0
  6  5  1  0
  8  7  1  0
  8 25  1  0
  8  9  1  0
 10  4  1  0
 10  9  1  0
 11  4  2  0
 12 13  2  0
 12 14  1  0
 13 19  1  0
 14 20  1  0
 15 18  1  0
 15 13  1  0
 16 17  1  0
 18 21  1  0
 19 16  1  0
 20  1  1  0
 20 17  1  0
 21 19  1  0
 21  4  1  0
 22 23  2  0
 23 24  1  0
 23 42  1  0
 24 27  1  0
 25 22  1  0
 25 26  1  0
 26 24  2  0
 27 28  1  0
 28 29  2  0
 30 33  1  0
 30 29  1  0
 31 30  2  0
 32 31  1  0
 32 27  2  0
 33 34  1  0
 34 35  1  0
 35 36  2  0
 37 36  1  0
 37 41  1  0
 38 37  2  0
 39 34  2  0
 39 38  1  0
 40 39  1  0
 42 43  1  0
 43 46  1  0
 43 45  1  0
 44 42  2  0
 47 48  1  0
 47 22  1  0
 49 47  1  0
 50 51  1  0
 50  1  1  0
 52 53  1  0
 52 51  1  0
 54 65  2  0
 55 53  1  0
 55 60  1  0
 56 64  1  0
 56 66  1  0
 57 63  1  0
 57 59  1  0
 58 64  1  0
 59 60  2  0
 59 58  1  0
 61 62  1  0
 61 55  2  0
 62 57  2  0
 63 56  1  0
 64 54  1  0
 66 68  2  0
 67 66  1  0
 69 67  1  0
 70 79  2  0
 70 75  1  0
 71 67  1  0
 71 75  1  0
 72 71  1  0
 73 74  1  0
 73 72  1  0
 74 70  1  0
 75 76  2  0
 76 77  1  0
 78 77  2  0
 79 78  1  0
 80 54  1  0
 80 85  1  0
 80 81  1  0
 81 84  1  1
 81 82  1  0
 83 81  1  0
 85 88  1  0
 86 90  1  0
 86 85  1  0
 87 86  2  0
 90 89  1  0
 92 90  1  0
 92 93  1  0
 92 91  1  0
M  ISO  4   4 100  21 100  52 101  53 101
M  END
>  <TORSDO>  (49) 
F 19

>  <SCORE>  (49) 
-13.376

>  <name>  (49) 
48

>  <ligand_id>  (49) 
48

>  <original_smiles>  (49) 
[H]C1=C2C([H])([H])C([H])([H])N(C(=O)N3C([H])([H])C([H])([H])C([H])([H])C([H])(n4nc(-c5c([H])c([H])c(Oc6c([H])c([H])c(F)c([H])c6F)c([H])c5[H])c(C(=O)N([H])[H])c4N([H])[H])C3([H])[H])C2([H])C([H])([H])C([H])([H])C([H])([N+]([H])([H])C([H])([H])C([H])([H])C([H])([H])Oc2c([H])c([H])c3c(c2[H])C([H])([H])N(C(=O)C([H])(N([H])C(=O)C([H])(N([H])C([H])([H])[H])C([H])([H])[H])C(C([H])([H])[H])(C([H])([H])[H])C([H])([H])[H])C([H])(C(=O)N([H])C2([H])c4c([H])c([H])c([H])c([H])c4C([H])([H])C([H])([H])C2([H])[H])C3([H])[H])C1([H])[H]

>  <smiles>  (49) 
[H]C1=C2C([H])([H])C([H])([H])N(C(=O)N3C([H])([H])C([H])([H])C([H])([H])C([H])(n4nc(-c5c([H])c([H])c(Oc6c([H])c([H])c(F)c([H])c6F)c([H])c5[H])c(C(=O)N([H])[H])c4N([H])[H])C3([H])[H])C2([H])C([H])([H])C([H])([H])C([H])([N+]([H])([H])C([H])([H])C([H])([H])C([H])([H])Oc2c([H])c([H])c3c(c2[H])C([H])([H])N(C(=O)C([H])(N([H])C(=O)C([H])(N([H])C([H])([H])[H])C([H])([H])[H])C(C([H])([H])[H])(C([H])([H])[H])C([H])([H])[H])C([H])(C(=O)N([H])C2([H])c4c([H])c([H])c([H])c([H])c4C([H])([H])C([H])([H])C2([H])[H])C3([H])[H])C1([H])[H]

$$$$
49:0:0
     RDKit          3D

 92100  0  0  1  0  0  0  0  0999 V2000
  -29.2680  -20.9130   16.6960 C   0  0  0  0  0  2  0  0  0  0  0  0
  -27.9480  -20.5120   17.4140 C   0  0  0  0  0  2  0  0  0  0  0  0
  -30.0690  -22.0690   17.3600 C   0  0  0  0  0  2  0  0  0  0  0  0
  -28.0800  -19.5210   18.6020 C   0  0  0  0  0  2  0  0  0  0  0  0
  -30.6400  -21.7710   18.7650 C   0  0  0  0  0  2  0  0  0  0  0  0
  -29.3380  -19.7370   19.4570 C   0  0  0  0  0  3  0  0  0  0  0  0
  -29.5310  -21.2650   19.6090 N   0  0  1  0  0  4  0  0  0  0  0  0
  -28.8230  -21.4640   18.9140 H   0  0  0  0  0  0  0  0  0  0  0  0
  -29.5600  -18.5950   20.5770 C   0  0  0  0  0  2  0  0  0  0  0  0
  -30.1300  -17.1850   19.9960 C   0  0  0  0  0  2  0  0  0  0  0  0
  -30.6110  -14.6740   20.3970 C   0  0  0  0  0  0  0  0  0  0  0  0
  -30.3690  -12.4190   19.3800 C   0  0  0  0  0  2  0  0  0  0  0  0
  -29.4500  -12.5460   18.1440 C   0  0  0  0  0  2  0  0  0  0  0  0
  -27.9720  -12.3900   18.5550 C   0  0  0  0  0  2  0  0  0  0  0  0
  -27.6020  -13.2610   19.7860 C   0  0  0  0  0  3  0  0  0  0  0  0
  -28.6470  -13.1390   20.9190 C   0  0  0  0  0  2  0  0  0  0  0  0
  -29.9600  -13.4640   20.3460 N   0  0  0  0  0  0  0  0  0  0  0  0
  -31.7810  -14.7650   20.0180 O   0  0  0  0  0  0  0  0  0  0  0  0
  -29.8670  -15.8200   20.6250 N   0  0  0  0  0  0  0  0  0  0  0  0
  -28.9370  -15.6640   20.9850 H   0  0  0  0  0  0  0  0  0  0  0  0
  -25.2060  -13.8690   20.4740 C   0  0  0  0  0  0  0  0  0  0  0  0
  -24.1330  -13.1030   20.8370 C   0  0  0  0  0  0  0  0  0  0  0  0
  -24.5890  -11.7500   20.8240 C   0  0  0  0  0  0  0  0  0  0  0  0
  -26.2490  -12.9840   20.2590 N   0  0  0  0  0  0  0  0  0  0  0  0
  -25.8840  -11.7040   20.5310 N   0  0  0  0  0  0  0  0  0  0  0  0
  -23.8530  -10.4920   21.0190 C   0  0  0  0  0  0  0  0  0  0  0  0
  -24.2760   -9.5300   21.9630 C   0  0  0  0  0  3  0  0  0  0  0  0
  -23.5440   -8.3360   22.1440 C   0  0  0  0  0  3  0  0  0  0  0  0
  -22.3750   -8.0970   21.3820 C   0  0  0  0  0  0  0  0  0  0  0  0
  -21.9720   -9.0480   20.4280 C   0  0  0  0  0  3  0  0  0  0  0  0
  -22.7040  -10.2330   20.2450 C   0  0  0  0  0  3  0  0  0  0  0  0
  -21.6140   -6.9570   21.4730 O   0  0  0  0  0  0  0  0  0  0  0  0
  -21.5590   -6.2190   22.6280 C   0  0  0  0  0  0  0  0  0  0  0  0
  -21.1320   -6.7810   23.8510 C   0  0  0  0  0  3  0  0  0  0  0  0
  -21.0240   -5.9680   24.9980 C   0  0  0  0  0  3  0  0  0  0  0  0
  -21.3310   -4.5970   24.9230 C   0  0  0  0  0  0  0  0  0  0  0  0
  -21.7490   -4.0340   23.7040 C   0  0  0  0  0  3  0  0  0  0  0  0
  -21.8600   -4.8420   22.5590 C   0  0  0  0  0  0  0  0  0  0  0  0
  -22.2440   -4.2920   21.3820 F   0  0  0  0  0  0  0  0  0  0  0  0
  -21.2190   -3.8150   26.0230 F   0  0  0  0  0  0  0  0  0  0  0  0
  -22.7330  -13.5890   21.0880 C   0  0  0  0  0  0  0  0  0  0  0  0
  -21.9900  -12.9040   21.9510 N   0  0  0  0  0  0  0  0  0  0  0  0
  -22.3060  -14.6130   20.5540 O   0  0  0  0  0  0  0  0  0  0  0  0
  -22.3470  -12.0780   22.4100 H   0  0  0  0  0  0  0  0  0  0  0  0
  -21.0520  -13.2150   22.1600 H   0  0  0  0  0  0  0  0  0  0  0  0
  -25.3770  -15.2370   20.2830 N   0  0  0  0  0  0  0  0  0  0  0  0
  -24.6050  -15.8910   20.3580 H   0  0  0  0  0  0  0  0  0  0  0  0
  -26.2250  -15.6660   19.9370 H   0  0  0  0  0  0  0  0  0  0  0  0
  -28.9330  -22.1980   20.6720 C   0  0  0  0  0  2  0  0  0  0  0  0
  -29.1490  -23.8260   20.6160 C   0  0  0  0  0  3  0  0  0  0  0  0
  -28.0650  -24.8870   20.0760 C   0  0  0  0  0  3  0  0  0  0  0  0
  -28.2960  -26.3620   20.2530 O   0  0  0  0  0  0  0  0  0  0  0  0
  -24.6120  -31.8420   23.2440 C   0  0  0  0  0  0  0  0  0  0  0  0
  -27.2000  -27.2510   20.1820 C   0  0  0  0  0  0  0  0  0  0  0  0
  -23.4050  -30.4520   21.6000 C   0  0  0  0  0  3  0  0  0  0  0  0
  -24.8500  -28.9010   20.1670 C   0  0  0  0  0  0  0  0  0  0  0  0
  -25.9490  -30.7540   21.4220 C   0  0  0  0  0  2  0  0  0  0  0  0
  -26.0230  -29.3750   20.7690 C   0  0  0  0  0  0  0  0  0  0  0  0
  -27.2020  -28.5620   20.7650 C   0  0  0  0  0  3  0  0  0  0  0  0
  -26.0050  -26.8460   19.5450 C   0  0  0  0  0  3  0  0  0  0  0  0
  -24.8460  -27.6440   19.5440 C   0  0  0  0  0  3  0  0  0  0  0  0
  -23.6200  -29.7860   20.2150 C   0  0  0  0  0  2  0  0  0  0  0  0
  -24.6750  -31.0340   22.1440 N   0  0  0  0  0  0  0  0  0  0  0  0
  -23.5290  -32.1220   23.7770 O   0  0  0  0  0  0  0  0  0  0  0  0
  -22.7380  -29.4360   22.5570 C   0  0  0  0  0  0  0  0  0  0  0  0
  -21.4110  -29.2640   22.4330 N   0  0  0  0  0  0  0  0  0  0  0  0
  -23.4140  -28.8040   23.3740 O   0  0  0  0  0  0  0  0  0  0  0  0
  -20.9230  -29.8260   21.7480 H   0  0  0  0  0  0  0  0  0  0  0  0
  -18.0280  -28.0780   22.9360 C   0  0  0  0  0  0  0  0  0  0  0  0
  -20.5880  -28.3290   23.2040 C   0  0  0  0  0  3  0  0  0  0  0  0
  -20.6850  -26.8970   22.6260 C   0  0  0  0  0  2  0  0  0  0  0  0
  -19.5800  -26.5810   21.6140 C   0  0  0  0  0  2  0  0  0  0  0  0
  -18.1990  -26.7290   22.2590 C   0  0  0  0  0  2  0  0  0  0  0  0
  -19.1500  -28.8350   23.3680 C   0  0  0  0  0  0  0  0  0  0  0  0
  -18.9360  -30.0960   23.9630 C   0  0  0  0  0  3  0  0  0  0  0  0
  -17.6330  -30.6020   24.1320 C   0  0  0  0  0  3  0  0  0  0  0  0
  -16.5260  -29.8430   23.7160 C   0  0  0  0  0  3  0  0  0  0  0  0
  -16.7250  -28.5810   23.1250 C   0  0  0  0  0  3  0  0  0  0  0  0
  -25.8960  -32.4710   23.8660 C   0  0  0  0  0  3  0  0  0  0  0  0
  -25.5870  -33.8680   24.2050 N   0  0  0  0  0  0  0  0  0  0  0  0
  -25.9130  -34.9250   23.4480 C   0  0  0  0  0  0  0  0  0  0  0  0
  -26.5750  -34.8270   22.4120 O   0  0  0  0  0  0  0  0  0  0  0  0
  -25.0000  -34.0180   25.0100 H   0  0  0  0  0  0  0  0  0  0  0  0
  -24.1830  -36.7210   23.1150 C   0  0  0  0  0  1  0  0  0  0  0  0
  -25.4300  -36.3120   23.9160 C   0  0  0  0  0  3  0  0  0  0  0  0
  -27.5700  -37.1930   24.7360 C   0  0  0  0  0  1  0  0  0  0  0  0
  -26.4620  -37.3650   23.8010 N   0  0  0  0  0  0  0  0  0  0  0  0
  -26.0570  -38.2850   23.9550 H   0  0  0  0  0  0  0  0  0  0  0  0
  -26.4130  -31.6940   25.1390 C   0  0  1  0  0  0  0  0  0  0  0  0
  -25.3210  -31.4550   26.2090 C   0  0  0  0  0  1  0  0  0  0  0  0
  -26.9920  -30.3150   24.7430 C   0  0  0  0  0  1  0  0  0  0  0  0
  -27.5650  -32.4830   25.8020 C   0  0  0  0  0  1  0  0  0  0  0  0
  1  3  1  0
  1  2  1  0
  2  4  1  0
  3  5  1  0
  4  6  1  0
  5  7  1  0
  6  7  1  0
  6  9  1  0
  7 49  1  0
  7  8  1  6
 10  9  1  0
 10 19  1  0
 11 19  1  0
 12 17  1  0
 13 14  1  0
 13 12  1  0
 15 14  1  0
 15 24  1  0
 15 16  1  0
 17 11  1  0
 17 16  1  0
 18 11  2  0
 19 20  1  0
 21 22  2  0
 22 41  1  0
 23 22  1  0
 23 26  1  0
 24 21  1  0
 24 25  1  0
 25 23  2  0
 26 27  1  0
 27 28  2  0
 29 32  1  0
 29 28  1  0
 30 29  2  0
 31 30  1  0
 31 26  2  0
 32 33  1  0
 33 34  1  0
 34 35  2  0
 36 35  1  0
 36 40  1  0
 37 36  2  0
 38 33  2  0
 38 37  1  0
 39 38  1  0
 41 42  1  0
 42 45  1  0
 42 44  1  0
 43 41  2  0
 46 47  1  0
 46 21  1  0
 48 46  1  0
 50 49  1  0
 51 52  1  0
 51 50  2  0
 53 64  2  0
 54 52  1  0
 54 59  1  0
 55 63  1  0
 55 65  1  0
 56 62  1  0
 56 58  1  0
 57 63  1  0
 58 57  1  0
 59 58  2  0
 60 54  2  0
 61 60  1  0
 61 56  2  0
 62 55  1  0
 63 53  1  0
 65 67  2  0
 66 65  1  0
 68 66  1  0
 69 78  2  0
 69 74  1  0
 70 66  1  0
 70 74  1  0
 71 70  1  0
 72 73  1  0
 72 71  1  0
 73 69  1  0
 74 75  2  0
 75 76  1  0
 77 76  2  0
 78 77  1  0
 79 53  1  0
 79 80  1  0
 79 89  1  0
 80 83  1  0
 81 85  1  0
 81 80  1  0
 82 81  2  0
 85 84  1  0
 87 85  1  0
 87 88  1  0
 87 86  1  0
 89 92  1  1
 89 90  1  0
 91 89  1  0
M  ISO  4  11 100  19 100  51 101  52 101
M  END
>  <TORSDO>  (50) 
F 21

>  <SCORE>  (50) 
-13.430

>  <name>  (50) 
49

>  <ligand_id>  (50) 
49

>  <original_smiles>  (50) 
[H]c1c([H])c([H])c2c(c1[H])C([H])([H])C([H])([H])C([H])([H])C2([H])N([H])C(=O)C1([H])N(C(=O)C([H])(N([H])C(=O)C([H])(N([H])C([H])([H])[H])C([H])([H])[H])C(C([H])([H])[H])(C([H])([H])[H])C([H])([H])[H])C([H])([H])c2c([H])c(OC([H])([H])C([H])([H])C([H])([H])[N+]3([H])C([H])([H])C([H])([H])C([H])([H])C([H])([H])C([H])([H])C3([H])C([H])([H])C([H])([H])N([H])C(=O)N3C([H])([H])C([H])([H])C([H])([H])C([H])(n4nc(-c5c([H])c([H])c(Oc6c([H])c([H])c(F)c([H])c6F)c([H])c5[H])c(C(=O)N([H])[H])c4N([H])[H])C3([H])[H])c([H])c([H])c2C1([H])[H]

>  <smiles>  (50) 
[H]c1c([H])c([H])c2c(c1[H])C([H])([H])C([H])([H])C([H])([H])C2([H])N([H])C(=O)C1([H])N(C(=O)C([H])(N([H])C(=O)C([H])(N([H])C([H])([H])[H])C([H])([H])[H])C(C([H])([H])[H])(C([H])([H])[H])C([H])([H])[H])C([H])([H])c2c([H])c(OC([H])([H])C([H])([H])C([H])([H])[N+]3([H])C([H])([H])C([H])([H])C([H])([H])C([H])([H])C([H])([H])C3([H])C([H])([H])C([H])([H])N([H])C(=O)N3C([H])([H])C([H])([H])C([H])([H])C([H])(n4nc(-c5c([H])c([H])c(Oc6c([H])c([H])c(F)c([H])c6F)c([H])c5[H])c(C(=O)N([H])[H])c4N([H])[H])C3([H])[H])c([H])c([H])c2C1([H])[H]

$$$$
50:0:0
     RDKit          3D

 95103  0  0  1  0  0  0  0  0999 V2000
  -25.5920  -23.3550   18.5780 C   0  0  0  0  0  2  0  0  0  0  0  0
  -26.5780  -24.0760   17.6230 C   0  0  0  0  0  2  0  0  0  0  0  0
  -28.7690  -22.9290   18.1990 C   0  0  0  0  0  2  0  0  0  0  0  0
  -26.1820  -22.5360   19.7640 C   0  0  0  0  0  2  0  0  0  0  0  0
  -27.9360  -21.6250   18.2000 C   0  0  0  0  0  2  0  0  0  0  0  0
  -27.9830  -24.2700   18.2370 C   0  0  0  0  0  3  0  0  0  0  0  0
  -27.0970  -21.4100   19.4140 N   0  0  1  0  0  4  0  0  0  0  0  0
  -26.4800  -20.6500   19.1640 H   0  0  0  0  0  0  0  0  0  0  0  0
  -28.8220  -25.3810   17.5700 C   0  0  0  0  0  2  0  0  0  0  0  0
  -28.2220  -26.8040   17.6010 C   0  0  0  0  0  2  0  0  0  0  0  0
  -28.0000  -27.2640   18.9370 O   0  0  0  0  0  0  0  0  0  0  0  0
  -24.5890  -31.7720   23.2390 C   0  0  0  0  0  0  0  0  0  0  0  0
  -26.8320  -27.9460   19.1900 C   0  0  0  0  0  0  0  0  0  0  0  0
  -23.1940  -30.6710   21.5230 C   0  0  0  0  0  3  0  0  0  0  0  0
  -24.4670  -29.4090   19.7130 C   0  0  0  0  0  0  0  0  0  0  0  0
  -25.6880  -31.0720   21.1160 C   0  0  0  0  0  2  0  0  0  0  0  0
  -25.6850  -29.8210   20.2630 C   0  0  0  0  0  0  0  0  0  0  0  0
  -26.8670  -29.0880   20.0170 C   0  0  0  0  0  3  0  0  0  0  0  0
  -25.5880  -27.5320   18.6680 C   0  0  0  0  0  3  0  0  0  0  0  0
  -24.4110  -28.2570   18.9120 C   0  0  0  0  0  3  0  0  0  0  0  0
  -23.2480  -30.2450   20.0310 C   0  0  0  0  0  2  0  0  0  0  0  0
  -24.5170  -31.1700   22.0190 N   0  0  0  0  0  0  0  0  0  0  0  0
  -23.5740  -31.9510   23.9260 O   0  0  0  0  0  0  0  0  0  0  0  0
  -22.6330  -29.4950   22.3520 C   0  0  0  0  0  0  0  0  0  0  0  0
  -21.3070  -29.2950   22.2820 N   0  0  0  0  0  0  0  0  0  0  0  0
  -23.3840  -28.7770   23.0190 O   0  0  0  0  0  0  0  0  0  0  0  0
  -20.7610  -29.9370   21.7210 H   0  0  0  0  0  0  0  0  0  0  0  0
  -18.0210  -27.8590   22.6850 C   0  0  0  0  0  0  0  0  0  0  0  0
  -20.5620  -28.2300   22.9510 C   0  0  0  0  0  3  0  0  0  0  0  0
  -20.7340  -26.8770   22.2230 C   0  0  0  0  0  2  0  0  0  0  0  0
  -19.6350  -26.5980   21.1960 C   0  0  0  0  0  2  0  0  0  0  0  0
  -18.2580  -26.6010   21.8660 C   0  0  0  0  0  2  0  0  0  0  0  0
  -19.1020  -28.6310   23.1820 C   0  0  0  0  0  0  0  0  0  0  0  0
  -18.8260  -29.8090   23.9100 C   0  0  0  0  0  3  0  0  0  0  0  0
  -17.5000  -30.2180   24.1430 C   0  0  0  0  0  3  0  0  0  0  0  0
  -16.4320  -29.4440   23.6590 C   0  0  0  0  0  3  0  0  0  0  0  0
  -16.6930  -28.2650   22.9380 C   0  0  0  0  0  3  0  0  0  0  0  0
  -25.9410  -32.2900   23.8180 C   0  0  0  0  0  3  0  0  0  0  0  0
  -25.7090  -33.6360   24.3520 N   0  0  0  0  0  0  0  0  0  0  0  0
  -26.0320  -34.7710   23.7150 C   0  0  0  0  0  0  0  0  0  0  0  0
  -26.6270  -34.7860   22.6340 O   0  0  0  0  0  0  0  0  0  0  0  0
  -25.1720  -33.6980   25.2030 H   0  0  0  0  0  0  0  0  0  0  0  0
  -24.3510  -36.6430   23.7130 C   0  0  0  0  0  1  0  0  0  0  0  0
  -25.6240  -36.0980   24.3810 C   0  0  0  0  0  3  0  0  0  0  0  0
  -27.8410  -36.7980   25.1720 C   0  0  0  0  0  1  0  0  0  0  0  0
  -26.6870  -37.1270   24.3390 N   0  0  0  0  0  0  0  0  0  0  0  0
  -26.3280  -38.0310   24.6310 H   0  0  0  0  0  0  0  0  0  0  0  0
  -26.5470  -31.3400   24.9200 C   0  0  1  0  0  0  0  0  0  0  0  0
  -25.5510  -30.9830   26.0480 C   0  0  0  0  0  1  0  0  0  0  0  0
  -27.0390  -30.0170   24.2840 C   0  0  0  0  0  1  0  0  0  0  0  0
  -27.7830  -32.0090   25.5650 C   0  0  0  0  0  1  0  0  0  0  0  0
  -27.8360  -20.9180   20.6180 C   0  0  0  0  0  2  0  0  0  0  0  0
  -28.3220  -19.4510   20.5360 C   0  0  0  0  0  2  0  0  0  0  0  0
  -29.8420  -19.2900   20.2890 C   0  0  0  0  0  2  0  0  0  0  0  0
  -30.2990  -17.8190   20.3610 C   0  0  0  0  0  2  0  0  0  0  0  0
  -31.6990  -17.6140   19.7530 C   0  0  0  0  0  2  0  0  0  0  0  0
  -32.4050  -16.2850   20.1000 C   0  0  0  0  0  2  0  0  0  0  0  0
  -31.9900  -13.9250   19.4090 C   0  0  0  0  0  0  0  0  0  0  0  0
  -31.4180  -11.5790   18.9160 C   0  0  0  0  0  2  0  0  0  0  0  0
  -30.3810  -11.4760   17.7820 C   0  0  0  0  0  2  0  0  0  0  0  0
  -28.9530  -11.5800   18.3420 C   0  0  0  0  0  2  0  0  0  0  0  0
  -28.7740  -12.7990   19.2820 C   0  0  0  0  0  3  0  0  0  0  0  0
  -29.9000  -12.8650   20.3360 C   0  0  0  0  0  2  0  0  0  0  0  0
  -31.1880  -12.8510   19.6230 N   0  0  0  0  0  0  0  0  0  0  0  0
  -33.0330  -13.8640   18.7560 O   0  0  0  0  0  0  0  0  0  0  0  0
  -31.5800  -15.0830   19.9530 N   0  0  0  0  0  0  0  0  0  0  0  0
  -30.6880  -15.0700   20.4200 H   0  0  0  0  0  0  0  0  0  0  0  0
  -26.6650  -13.8770   20.2850 C   0  0  0  0  0  0  0  0  0  0  0  0
  -25.4860  -13.3400   20.7250 C   0  0  0  0  0  0  0  0  0  0  0  0
  -25.6140  -11.9270   20.5690 C   0  0  0  0  0  0  0  0  0  0  0  0
  -27.4480  -12.8010   19.8960 N   0  0  0  0  0  0  0  0  0  0  0  0
  -26.8230  -11.6200   20.1200 N   0  0  0  0  0  0  0  0  0  0  0  0
  -24.6350  -10.8490   20.7640 C   0  0  0  0  0  0  0  0  0  0  0  0
  -24.9140   -9.7430   21.5960 C   0  0  0  0  0  3  0  0  0  0  0  0
  -23.9510   -8.7260   21.7830 C   0  0  0  0  0  3  0  0  0  0  0  0
  -22.6930   -8.8130   21.1380 C   0  0  0  0  0  0  0  0  0  0  0  0
  -22.4310   -9.9050   20.2900 C   0  0  0  0  0  3  0  0  0  0  0  0
  -23.3930  -10.9120   20.1020 C   0  0  0  0  0  3  0  0  0  0  0  0
  -21.7080   -7.8610   21.2410 O   0  0  0  0  0  0  0  0  0  0  0  0
  -21.5820   -7.0740   22.3590 C   0  0  0  0  0  0  0  0  0  0  0  0
  -21.3900   -7.6290   23.6440 C   0  0  0  0  0  3  0  0  0  0  0  0
  -21.1920   -6.7810   24.7550 C   0  0  0  0  0  3  0  0  0  0  0  0
  -21.1780   -5.3840   24.5820 C   0  0  0  0  0  0  0  0  0  0  0  0
  -21.3630   -4.8300   23.3020 C   0  0  0  0  0  3  0  0  0  0  0  0
  -21.5620   -5.6750   22.1940 C   0  0  0  0  0  0  0  0  0  0  0  0
  -21.7170   -5.1370   20.9610 F   0  0  0  0  0  0  0  0  0  0  0  0
  -20.9820   -4.5710   25.6460 F   0  0  0  0  0  0  0  0  0  0  0  0
  -24.2700  -14.0950   21.1800 C   0  0  0  0  0  0  0  0  0  0  0  0
  -23.4940  -13.5160   22.0890 N   0  0  0  0  0  0  0  0  0  0  0  0
  -24.0250  -15.2270   20.7630 O   0  0  0  0  0  0  0  0  0  0  0  0
  -23.7060  -12.5960   22.4470 H   0  0  0  0  0  0  0  0  0  0  0  0
  -22.6790  -13.9980   22.4380 H   0  0  0  0  0  0  0  0  0  0  0  0
  -27.1270  -15.1830   20.1710 N   0  0  0  0  0  0  0  0  0  0  0  0
  -26.5440  -15.9810   20.4000 H   0  0  0  0  0  0  0  0  0  0  0  0
  -28.0250  -15.4430   19.7810 H   0  0  0  0  0  0  0  0  0  0  0  0
  1  4  1  0
  2  6  1  0
  2  1  1  0
  3  5  1  0
  3  6  1  0
  5  7  1  0
  6  9  1  0
  7  4  1  0
  7 52  1  0
  7  8  1  6
  9 10  1  0
 10 11  1  0
 11 13  1  0
 12 23  2  0
 13 18  1  0
 14 22  1  0
 14 24  1  0
 15 21  1  0
 15 17  1  0
 16 22  1  0
 17 16  1  0
 18 17  2  0
 19 20  1  0
 19 13  2  0
 20 15  2  0
 21 14  1  0
 22 12  1  0
 24 26  2  0
 25 24  1  0
 27 25  1  0
 28 37  2  0
 28 33  1  0
 29 25  1  0
 29 33  1  0
 30 29  1  0
 31 32  1  0
 31 30  1  0
 32 28  1  0
 33 34  2  0
 34 35  1  0
 36 35  2  0
 37 36  1  0
 38 12  1  0
 38 39  1  0
 38 48  1  0
 39 42  1  0
 40 39  1  0
 40 44  1  0
 41 40  2  0
 44 43  1  0
 46 44  1  0
 46 47  1  0
 46 45  1  0
 48 51  1  1
 48 49  1  0
 50 48  1  0
 53 52  1  0
 54 55  1  0
 54 53  1  0
 56 57  1  0
 56 55  1  0
 58 64  1  0
 58 66  1  0
 59 64  1  0
 60 61  1  0
 60 59  1  0
 62 61  1  0
 62 71  1  0
 62 63  1  0
 64 63  1  0
 65 58  2  0
 66 57  1  0
 66 67  1  0
 68 69  2  0
 69 88  1  0
 70 69  1  0
 70 73  1  0
 71 72  1  0
 71 68  1  0
 72 70  2  0
 73 74  1  0
 74 75  2  0
 76 79  1  0
 76 75  1  0
 77 76  2  0
 78 77  1  0
 78 73  2  0
 79 80  1  0
 80 81  1  0
 81 82  2  0
 83 82  1  0
 83 87  1  0
 84 83  2  0
 85 80  2  0
 85 84  1  0
 86 85  1  0
 88 89  1  0
 89 92  1  0
 89 91  1  0
 90 88  2  0
 93 68  1  0
 93 94  1  0
 95 93  1  0
M  ISO  4  10 101  11 101  58 100  66 100
M  END
>  <TORSDO>  (51) 
F 24

>  <SCORE>  (51) 
-10.358

>  <name>  (51) 
50

>  <ligand_id>  (51) 
50

>  <original_smiles>  (51) 
[H]c1c([H])c([H])c2c(c1[H])C([H])([H])C([H])([H])C([H])([H])C2([H])N([H])C(=O)C1([H])N(C(=O)C([H])(N([H])C(=O)C([H])(N([H])C([H])([H])[H])C([H])([H])[H])C(C([H])([H])[H])(C([H])([H])[H])C([H])([H])[H])C([H])([H])c2c([H])c(OC([H])([H])C([H])([H])C3([H])C([H])([H])C([H])([H])C([H])([H])[N+]([H])(C([H])([H])C([H])([H])C([H])([H])C([H])([H])C([H])([H])C([H])([H])N([H])C(=O)N4C([H])([H])C([H])([H])C([H])([H])C([H])(n5nc(-c6c([H])c([H])c(Oc7c([H])c([H])c(F)c([H])c7F)c([H])c6[H])c(C(=O)N([H])[H])c5N([H])[H])C4([H])[H])C([H])([H])C3([H])[H])c([H])c([H])c2C1([H])[H]

>  <smiles>  (51) 
[H]c1c([H])c([H])c2c(c1[H])C([H])([H])C([H])([H])C([H])([H])C2([H])N([H])C(=O)C1([H])N(C(=O)C([H])(N([H])C(=O)C([H])(N([H])C([H])([H])[H])C([H])([H])[H])C(C([H])([H])[H])(C([H])([H])[H])C([H])([H])[H])C([H])([H])c2c([H])c(OC([H])([H])C([H])([H])C3([H])C([H])([H])C([H])([H])C([H])([H])[N+]([H])(C([H])([H])C([H])([H])C([H])([H])C([H])([H])C([H])([H])C([H])([H])N([H])C(=O)N4C([H])([H])C([H])([H])C([H])([H])C([H])(n5nc(-c6c([H])c([H])c(Oc7c([H])c([H])c(F)c([H])c7F)c([H])c6[H])c(C(=O)N([H])[H])c5N([H])[H])C4([H])[H])C([H])([H])C3([H])[H])c([H])c([H])c2C1([H])[H]

$$$$
51:0:0
     RDKit          3D

 95104  0  0  1  0  0  0  0  0999 V2000
  -30.7200  -14.7970   20.4280 C   0  0  0  0  0  0  0  0  0  0  0  0
  -30.4360  -12.5240   19.4640 C   0  0  0  0  0  2  0  0  0  0  0  0
  -29.5040  -12.5410   18.2360 C   0  0  0  0  0  2  0  0  0  0  0  0
  -28.0360  -12.3990   18.6670 C   0  0  0  0  0  2  0  0  0  0  0  0
  -27.6520  -13.3350   19.8450 C   0  0  0  0  0  3  0  0  0  0  0  0
  -28.7140  -13.3230   20.9670 C   0  0  0  0  0  2  0  0  0  0  0  0
  -30.0000  -13.6320   20.3350 N   0  0  0  0  0  0  0  0  0  0  0  0
  -31.9490  -14.7270   20.4390 O   0  0  0  0  0  0  0  0  0  0  0  0
  -28.3350  -19.1280   19.1910 C   0  0  0  0  0  2  0  0  0  0  0  0
  -29.8570  -18.3410   20.9180 C   0  0  0  0  0  2  0  0  0  0  0  0
  -29.9740  -17.5410   17.9850 C   0  0  0  0  0  2  0  0  0  0  0  0
  -28.9240  -19.5780   20.5430 C   0  0  0  0  0  3  0  0  0  0  0  0
  -28.7750  -17.6610   18.9260 C   0  0  0  0  0  3  0  0  0  0  0  0
  -29.2830  -17.0290   20.2250 C   0  0  0  0  0  3  0  0  0  0  0  0
  -30.9370  -16.5170   18.6240 C   0  0  0  0  0  3  0  0  0  0  0  0
  -30.2070  -15.9150   19.7740 N   0  0  0  0  0  0  0  0  0  0  0  0
  -25.2600  -13.9200   20.5590 C   0  0  0  0  0  0  0  0  0  0  0  0
  -24.1900  -13.1430   20.9100 C   0  0  0  0  0  0  0  0  0  0  0  0
  -24.6590  -11.7930   20.8920 C   0  0  0  0  0  0  0  0  0  0  0  0
  -26.3100  -13.0440   20.3400 N   0  0  0  0  0  0  0  0  0  0  0  0
  -25.9550  -11.7610   20.6100 N   0  0  0  0  0  0  0  0  0  0  0  0
  -23.9340  -10.5280   21.0700 C   0  0  0  0  0  0  0  0  0  0  0  0
  -24.3540   -9.5610   22.0080 C   0  0  0  0  0  3  0  0  0  0  0  0
  -23.6290   -8.3610   22.1750 C   0  0  0  0  0  3  0  0  0  0  0  0
  -22.4690   -8.1190   21.4000 C   0  0  0  0  0  0  0  0  0  0  0  0
  -22.0700   -9.0740   20.4480 C   0  0  0  0  0  3  0  0  0  0  0  0
  -22.7960  -10.2650   20.2810 C   0  0  0  0  0  3  0  0  0  0  0  0
  -21.7170   -6.9710   21.4770 O   0  0  0  0  0  0  0  0  0  0  0  0
  -21.6460   -6.2320   22.6290 C   0  0  0  0  0  0  0  0  0  0  0  0
  -21.1740   -6.7830   23.8410 C   0  0  0  0  0  3  0  0  0  0  0  0
  -21.0530   -5.9700   24.9850 C   0  0  0  0  0  3  0  0  0  0  0  0
  -21.3920   -4.6050   24.9180 C   0  0  0  0  0  0  0  0  0  0  0  0
  -21.8560   -4.0520   23.7110 C   0  0  0  0  0  3  0  0  0  0  0  0
  -21.9790   -4.8640   22.5700 C   0  0  0  0  0  0  0  0  0  0  0  0
  -22.4070   -4.3210   21.4040 F   0  0  0  0  0  0  0  0  0  0  0  0
  -21.2680   -3.8200   26.0150 F   0  0  0  0  0  0  0  0  0  0  0  0
  -22.7860  -13.6160   21.1500 C   0  0  0  0  0  0  0  0  0  0  0  0
  -22.0480  -12.9280   22.0140 N   0  0  0  0  0  0  0  0  0  0  0  0
  -22.3510  -14.6300   20.6060 O   0  0  0  0  0  0  0  0  0  0  0  0
  -22.4120  -12.1100   22.4790 H   0  0  0  0  0  0  0  0  0  0  0  0
  -21.1030  -13.2260   22.2150 H   0  0  0  0  0  0  0  0  0  0  0  0
  -25.4190  -15.2900   20.3800 N   0  0  0  0  0  0  0  0  0  0  0  0
  -24.6440  -15.9370   20.4740 H   0  0  0  0  0  0  0  0  0  0  0  0
  -26.2720  -15.7370   20.0720 H   0  0  0  0  0  0  0  0  0  0  0  0
  -29.4980  -21.0700   20.5410 C   0  0  0  0  0  0  0  0  0  0  0  0
  -30.6940  -21.2600   20.7760 O   0  0  0  0  0  0  0  0  0  0  0  0
  -28.5580  -22.3200   20.2580 C   0  0  0  0  0  2  0  0  0  0  0  0
  -29.0800  -23.8330   20.4840 C   0  0  0  0  0  3  0  0  0  0  0  0
  -28.0710  -25.0210   20.0990 C   0  0  0  0  0  3  0  0  0  0  0  0
  -28.3370  -26.4730   20.3570 O   0  0  0  0  0  0  0  0  0  0  0  0
  -24.6180  -31.9560   23.3100 C   0  0  0  0  0  0  0  0  0  0  0  0
  -27.2420  -27.3650   20.2830 C   0  0  0  0  0  0  0  0  0  0  0  0
  -23.4260  -30.5560   21.6670 C   0  0  0  0  0  3  0  0  0  0  0  0
  -24.8840  -29.0040   20.2520 C   0  0  0  0  0  0  0  0  0  0  0  0
  -25.9690  -30.8630   21.5040 C   0  0  0  0  0  2  0  0  0  0  0  0
  -26.0520  -29.4830   20.8580 C   0  0  0  0  0  0  0  0  0  0  0  0
  -27.2360  -28.6760   20.8640 C   0  0  0  0  0  3  0  0  0  0  0  0
  -26.0470  -26.9580   19.6410 C   0  0  0  0  0  3  0  0  0  0  0  0
  -24.8860  -27.7480   19.6330 C   0  0  0  0  0  3  0  0  0  0  0  0
  -23.6490  -29.8810   20.2890 C   0  0  0  0  0  2  0  0  0  0  0  0
  -24.6900  -31.1430   22.2160 N   0  0  0  0  0  0  0  0  0  0  0  0
  -23.5310  -32.2350   23.8370 O   0  0  0  0  0  0  0  0  0  0  0  0
  -22.7560  -29.5400   22.6230 C   0  0  0  0  0  0  0  0  0  0  0  0
  -21.4310  -29.3590   22.4840 N   0  0  0  0  0  0  0  0  0  0  0  0
  -23.4270  -28.9200   23.4530 O   0  0  0  0  0  0  0  0  0  0  0  0
  -20.9480  -29.9090   21.7870 H   0  0  0  0  0  0  0  0  0  0  0  0
  -18.0480  -28.1710   22.9660 C   0  0  0  0  0  0  0  0  0  0  0  0
  -20.6050  -28.4250   23.2510 C   0  0  0  0  0  3  0  0  0  0  0  0
  -20.7090  -26.9930   22.6770 C   0  0  0  0  0  2  0  0  0  0  0  0
  -19.6120  -26.6730   21.6570 C   0  0  0  0  0  2  0  0  0  0  0  0
  -18.2270  -26.8210   22.2920 C   0  0  0  0  0  2  0  0  0  0  0  0
  -19.1660  -28.9320   23.4020 C   0  0  0  0  0  0  0  0  0  0  0  0
  -18.9460  -30.1960   23.9900 C   0  0  0  0  0  3  0  0  0  0  0  0
  -17.6400  -30.6980   24.1500 C   0  0  0  0  0  3  0  0  0  0  0  0
  -16.5370  -29.9350   23.7300 C   0  0  0  0  0  3  0  0  0  0  0  0
  -16.7420  -28.6740   23.1430 C   0  0  0  0  0  3  0  0  0  0  0  0
  -25.8960  -32.5890   23.9400 C   0  0  0  0  0  3  0  0  0  0  0  0
  -25.5860  -33.9910   24.2580 N   0  0  0  0  0  0  0  0  0  0  0  0
  -25.9060  -35.0360   23.4830 C   0  0  0  0  0  0  0  0  0  0  0  0
  -26.5620  -34.9220   22.4440 O   0  0  0  0  0  0  0  0  0  0  0  0
  -25.0060  -34.1540   25.0670 H   0  0  0  0  0  0  0  0  0  0  0  0
  -24.1600  -36.8150   23.1440 C   0  0  0  0  0  1  0  0  0  0  0  0
  -25.4220  -36.4280   23.9330 C   0  0  0  0  0  3  0  0  0  0  0  0
  -27.5670  -37.3410   24.7050 C   0  0  0  0  0  1  0  0  0  0  0  0
  -26.4460  -37.4860   23.7800 N   0  0  0  0  0  0  0  0  0  0  0  0
  -26.0370  -38.4060   23.9170 H   0  0  0  0  0  0  0  0  0  0  0  0
  -26.3980  -31.8260   25.2280 C   0  0  1  0  0  0  0  0  0  0  0  0
  -25.2910  -31.5990   26.2830 C   0  0  0  0  0  1  0  0  0  0  0  0
  -26.9840  -30.4430   24.8550 C   0  0  0  0  0  1  0  0  0  0  0  0
  -27.5400  -32.6240   25.8980 C   0  0  0  0  0  1  0  0  0  0  0  0
  -31.5290  -15.5480   17.5560 C   0  0  0  0  0  2  0  0  0  0  0  0
  -32.4250  -16.2410   16.6110 N   0  0  0  0  0  4  0  0  0  0  0  0
  -31.9420  -16.9600   16.1070 H   0  0  0  0  0  0  0  0  0  0  0  0
  -32.7940  -15.5860   15.9440 H   0  0  0  0  0  0  0  0  0  0  0  0
  -33.2030  -16.6490   17.0970 H   0  0  0  0  0  0  0  0  0  0  0  0
  1  8  2  0
  2  7  1  0
  3  4  1  0
  3  2  1  0
  5  4  1  0
  5 20  1  0
  5  6  1  0
  7  1  1  0
  7  6  1  0
  9 12  1  0
 11 15  1  0
 12 45  1  0
 12 10  1  0
 13 11  1  0
 13  9  1  0
 13 14  1  0
 14 10  1  0
 15 91  1  0
 15 16  1  0
 16 14  1  0
 16  1  1  0
 17 18  2  0
 18 37  1  0
 19 18  1  0
 19 22  1  0
 20 17  1  0
 20 21  1  0
 21 19  2  0
 22 23  1  0
 23 24  2  0
 25 28  1  0
 25 24  1  0
 26 25  2  0
 27 26  1  0
 27 22  2  0
 28 29  1  0
 29 30  1  0
 30 31  2  0
 32 31  1  0
 32 36  1  0
 33 32  2  0
 34 29  2  0
 34 33  1  0
 35 34  1  0
 37 38  1  0
 38 41  1  0
 38 40  1  0
 39 37  2  0
 42 43  1  0
 42 17  1  0
 44 42  1  0
 45 46  2  0
 47 48  1  0
 47 45  1  0
 49 50  1  0
 49 48  2  0
 51 62  2  0
 52 50  1  0
 52 57  1  0
 53 61  1  0
 53 63  1  0
 54 60  1  0
 54 56  1  0
 55 61  1  0
 56 57  2  0
 56 55  1  0
 58 52  2  0
 59 58  1  0
 59 54  2  0
 60 53  1  0
 61 51  1  0
 63 65  2  0
 64 63  1  0
 66 64  1  0
 67 76  2  0
 67 72  1  0
 68 64  1  0
 68 72  1  0
 69 68  1  0
 70 71  1  0
 70 69  1  0
 71 67  1  0
 72 73  2  0
 73 74  1  0
 75 74  2  0
 76 75  1  0
 77 51  1  0
 77 78  1  0
 77 87  1  0
 78 81  1  0
 79 83  1  0
 79 78  1  0
 80 79  2  0
 83 82  1  0
 85 86  1  0
 85 83  1  0
 85 84  1  0
 87 90  1  1
 87 88  1  0
 89 87  1  0
 92 95  1  0
 92 91  1  0
 93 92  1  0
 94 92  1  0
M  ISO  4   1 100  16 100  49 101  50 101
M  END
>  <TORSDO>  (52) 
F 21

>  <SCORE>  (52) 
-13.577

>  <name>  (52) 
51

>  <ligand_id>  (52) 
51

>  <original_smiles>  (52) 
[H]c1c([H])c([H])c2c(c1[H])C([H])([H])C([H])([H])C([H])([H])C2([H])N([H])C(=O)C1([H])N(C(=O)C([H])(N([H])C(=O)C([H])(N([H])C([H])([H])[H])C([H])([H])[H])C(C([H])([H])[H])(C([H])([H])[H])C([H])([H])[H])C([H])([H])c2c([H])c(OC([H])([H])C([H])([H])C([H])([H])C(=O)C3([H])C([H])([H])C4([H])N(C(=O)N5C([H])([H])C([H])([H])C([H])([H])C([H])(n6nc(-c7c([H])c([H])c(Oc8c([H])c([H])c(F)c([H])c8F)c([H])c7[H])c(C(=O)N([H])[H])c6N([H])[H])C5([H])[H])C([H])(C([H])([H])[N+]([H])([H])[H])C([H])([H])C4([H])C3([H])[H])c([H])c([H])c2C1([H])[H]

>  <smiles>  (52) 
[H]c1c([H])c([H])c2c(c1[H])C([H])([H])C([H])([H])C([H])([H])C2([H])N([H])C(=O)C1([H])N(C(=O)C([H])(N([H])C(=O)C([H])(N([H])C([H])([H])[H])C([H])([H])[H])C(C([H])([H])[H])(C([H])([H])[H])C([H])([H])[H])C([H])([H])c2c([H])c(OC([H])([H])C([H])([H])C([H])([H])C(=O)C3([H])C([H])([H])C4([H])N(C(=O)N5C([H])([H])C([H])([H])C([H])([H])C([H])(n6nc(-c7c([H])c([H])c(Oc8c([H])c([H])c(F)c([H])c8F)c([H])c7[H])c(C(=O)N([H])[H])c6N([H])[H])C5([H])[H])C([H])(C([H])([H])[N+]([H])([H])[H])C([H])([H])C4([H])C3([H])[H])c([H])c([H])c2C1([H])[H]

$$$$
52:0:0
     RDKit          3D

 91 99  0  0  1  0  0  0  0  0999 V2000
  -29.2780  -21.0710   20.0290 N   0  0  0  0  0  4  0  0  0  0  0  0
  -28.6240  -20.9170   19.2760 H   0  0  0  0  0  0  0  0  0  0  0  0
  -30.1710  -21.2440   19.5990 H   0  0  0  0  0  0  0  0  0  0  0  0
  -29.3000  -18.4300   19.8840 C   0  0  0  0  0  0  0  0  0  0  0  0
  -30.8480  -17.9280   21.6860 C   0  0  0  0  0  2  0  0  0  0  0  0
  -30.6670  -19.4750   21.5710 C   0  0  0  0  0  2  0  0  0  0  0  0
  -30.3200  -17.3230   20.3710 C   0  0  0  0  0  3  0  0  0  0  0  0
  -29.3620  -19.7350   20.7820 C   0  0  0  0  0  3  0  0  0  0  0  0
  -28.5430  -18.2900   18.9210 O   0  0  0  0  0  0  0  0  0  0  0  0
  -30.6310  -14.7280   20.1700 C   0  0  0  0  0  0  0  0  0  0  0  0
  -30.3700  -12.4810   19.1220 C   0  0  0  0  0  2  0  0  0  0  0  0
  -29.3980  -12.5860   17.9270 C   0  0  0  0  0  2  0  0  0  0  0  0
  -27.9410  -12.4190   18.3990 C   0  0  0  0  0  2  0  0  0  0  0  0
  -27.6090  -13.2910   19.6390 C   0  0  0  0  0  3  0  0  0  0  0  0
  -28.6990  -13.1750   20.7270 C   0  0  0  0  0  2  0  0  0  0  0  0
  -29.9820  -13.5180   20.1030 N   0  0  0  0  0  0  0  0  0  0  0  0
  -31.8020  -14.8270   19.7960 O   0  0  0  0  0  0  0  0  0  0  0  0
  -29.8920  -15.8590   20.4550 N   0  0  0  0  0  0  0  0  0  0  0  0
  -28.9240  -15.6960   20.6890 H   0  0  0  0  0  0  0  0  0  0  0  0
  -25.2410  -13.8820   20.4300 C   0  0  0  0  0  0  0  0  0  0  0  0
  -24.1840  -13.1060   20.8260 C   0  0  0  0  0  0  0  0  0  0  0  0
  -24.6460  -11.7550   20.7760 C   0  0  0  0  0  0  0  0  0  0  0  0
  -26.2770  -13.0030   20.1630 N   0  0  0  0  0  0  0  0  0  0  0  0
  -25.9280  -11.7190   20.4340 N   0  0  0  0  0  0  0  0  0  0  0  0
  -23.9240  -10.4930   20.9760 C   0  0  0  0  0  0  0  0  0  0  0  0
  -24.3670   -9.5280   21.9090 C   0  0  0  0  0  3  0  0  0  0  0  0
  -23.6440   -8.3300   22.0980 C   0  0  0  0  0  3  0  0  0  0  0  0
  -22.4630   -8.0880   21.3550 C   0  0  0  0  0  0  0  0  0  0  0  0
  -22.0400   -9.0420   20.4120 C   0  0  0  0  0  3  0  0  0  0  0  0
  -22.7630  -10.2310   20.2210 C   0  0  0  0  0  3  0  0  0  0  0  0
  -21.7110   -6.9430   21.4540 O   0  0  0  0  0  0  0  0  0  0  0  0
  -21.6610   -6.2120   22.6140 C   0  0  0  0  0  0  0  0  0  0  0  0
  -21.2150   -6.7730   23.8310 C   0  0  0  0  0  3  0  0  0  0  0  0
  -21.1150   -5.9680   24.9830 C   0  0  0  0  0  3  0  0  0  0  0  0
  -21.4500   -4.6030   24.9180 C   0  0  0  0  0  0  0  0  0  0  0  0
  -21.8900   -4.0410   23.7070 C   0  0  0  0  0  3  0  0  0  0  0  0
  -21.9920   -4.8430   22.5570 C   0  0  0  0  0  0  0  0  0  0  0  0
  -22.3960   -4.2930   21.3880 F   0  0  0  0  0  0  0  0  0  0  0  0
  -21.3470   -3.8260   26.0220 F   0  0  0  0  0  0  0  0  0  0  0  0
  -22.7950  -13.5830   21.1330 C   0  0  0  0  0  0  0  0  0  0  0  0
  -22.0860  -12.8810   22.0090 N   0  0  0  0  0  0  0  0  0  0  0  0
  -22.3460  -14.6140   20.6310 O   0  0  0  0  0  0  0  0  0  0  0  0
  -22.4620  -12.0460   22.4360 H   0  0  0  0  0  0  0  0  0  0  0  0
  -21.1550  -13.1810   22.2590 H   0  0  0  0  0  0  0  0  0  0  0  0
  -25.3990  -15.2530   20.2520 N   0  0  0  0  0  0  0  0  0  0  0  0
  -24.6240  -15.8980   20.3650 H   0  0  0  0  0  0  0  0  0  0  0  0
  -26.2150  -15.6870   19.8390 H   0  0  0  0  0  0  0  0  0  0  0  0
  -28.8180  -22.3310   20.7790 C   0  0  0  0  0  2  0  0  0  0  0  0
  -28.8660  -23.7780   20.0440 C   0  0  0  0  0  3  0  0  0  0  0  0
  -28.1980  -25.0510   20.7790 C   0  0  0  0  0  3  0  0  0  0  0  0
  -28.3900  -26.4560   20.3010 O   0  0  0  0  0  0  0  0  0  0  0  0
  -24.6150  -31.8950   23.2700 C   0  0  0  0  0  0  0  0  0  0  0  0
  -27.2750  -27.3160   20.2750 C   0  0  0  0  0  0  0  0  0  0  0  0
  -23.4330  -30.4770   21.6310 C   0  0  0  0  0  3  0  0  0  0  0  0
  -24.9040  -28.9220   20.2290 C   0  0  0  0  0  0  0  0  0  0  0  0
  -25.9720  -30.8080   21.4630 C   0  0  0  0  0  2  0  0  0  0  0  0
  -26.0660  -29.4230   20.8280 C   0  0  0  0  0  0  0  0  0  0  0  0
  -27.2590  -28.6340   20.8370 C   0  0  0  0  0  3  0  0  0  0  0  0
  -26.0930  -26.8720   19.6480 C   0  0  0  0  0  3  0  0  0  0  0  0
  -24.9200  -27.6530   19.6270 C   0  0  0  0  0  3  0  0  0  0  0  0
  -23.6620  -29.7900   20.2580 C   0  0  0  0  0  2  0  0  0  0  0  0
  -24.6920  -31.0780   22.1780 N   0  0  0  0  0  0  0  0  0  0  0  0
  -23.5250  -32.1680   23.7950 O   0  0  0  0  0  0  0  0  0  0  0  0
  -22.7680  -29.4640   22.5940 C   0  0  0  0  0  0  0  0  0  0  0  0
  -21.4420  -29.2830   22.4640 N   0  0  0  0  0  0  0  0  0  0  0  0
  -23.4440  -28.8430   23.4180 O   0  0  0  0  0  0  0  0  0  0  0  0
  -20.9540  -29.8360   21.7710 H   0  0  0  0  0  0  0  0  0  0  0  0
  -18.0650  -28.0840   22.9580 C   0  0  0  0  0  0  0  0  0  0  0  0
  -20.6230  -28.3490   23.2360 C   0  0  0  0  0  3  0  0  0  0  0  0
  -20.7280  -26.9150   22.6660 C   0  0  0  0  0  2  0  0  0  0  0  0
  -19.6310  -26.5860   21.6490 C   0  0  0  0  0  2  0  0  0  0  0  0
  -18.2470  -26.7330   22.2880 C   0  0  0  0  0  2  0  0  0  0  0  0
  -19.1810  -28.8500   23.3890 C   0  0  0  0  0  0  0  0  0  0  0  0
  -18.9580  -30.1150   23.9740 C   0  0  0  0  0  3  0  0  0  0  0  0
  -17.6510  -30.6140   24.1350 C   0  0  0  0  0  3  0  0  0  0  0  0
  -16.5490  -29.8450   23.7200 C   0  0  0  0  0  3  0  0  0  0  0  0
  -16.7570  -28.5820   23.1380 C   0  0  0  0  0  3  0  0  0  0  0  0
  -25.8880  -32.5400   23.8980 C   0  0  0  0  0  3  0  0  0  0  0  0
  -26.3960  -31.7840   25.1860 C   0  0  1  0  0  0  0  0  0  0  0  0
  -25.2940  -31.5490   26.2450 C   0  0  0  0  0  1  0  0  0  0  0  0
  -26.9910  -30.4060   24.8120 C   0  0  0  0  0  1  0  0  0  0  0  0
  -27.5360  -32.5890   25.8520 C   0  0  0  0  0  1  0  0  0  0  0  0
  -25.5690  -33.9400   24.2140 N   0  0  0  0  0  0  0  0  0  0  0  0
  -25.8990  -34.9890   23.4500 C   0  0  0  0  0  0  0  0  0  0  0  0
  -26.5750  -34.8810   22.4240 O   0  0  0  0  0  0  0  0  0  0  0  0
  -24.9690  -34.0980   25.0120 H   0  0  0  0  0  0  0  0  0  0  0  0
  -24.1650  -36.7710   23.0710 C   0  0  0  0  0  1  0  0  0  0  0  0
  -25.4030  -36.3790   23.8940 C   0  0  0  0  0  3  0  0  0  0  0  0
  -27.5260  -37.2810   24.7340 C   0  0  0  0  0  1  0  0  0  0  0  0
  -26.4310  -37.4360   23.7800 N   0  0  0  0  0  0  0  0  0  0  0  0
  -26.0180  -38.3550   23.9170 H   0  0  0  0  0  0  0  0  0  0  0  0
  1 48  1  0
  2  1  1  0
  3  1  1  0
  4  7  1  0
  4  8  1  0
  6  5  1  0
  7 18  1  0
  7  5  1  0
  8  1  1  0
  8  6  1  0
  9  4  2  0
 10 18  1  0
 11 16  1  0
 12 13  1  0
 12 11  1  0
 14 13  1  0
 14 23  1  0
 14 15  1  0
 16 10  1  0
 16 15  1  0
 17 10  2  0
 18 19  1  0
 20 21  2  0
 21 40  1  0
 22 21  1  0
 22 25  1  0
 23 20  1  0
 23 24  1  0
 24 22  2  0
 25 26  1  0
 26 27  2  0
 28 31  1  0
 28 27  1  0
 29 28  2  0
 30 29  1  0
 30 25  2  0
 31 32  1  0
 32 33  1  0
 33 34  2  0
 35 34  1  0
 35 39  1  0
 36 35  2  0
 37 32  2  0
 37 36  1  0
 38 37  1  0
 40 41  1  0
 41 44  1  0
 41 43  1  0
 42 40  2  0
 45 46  1  0
 45 20  1  0
 47 45  1  0
 49 50  2  0
 49 48  1  0
 51 50  1  0
 52 63  2  0
 53 51  1  0
 53 58  1  0
 54 62  1  0
 54 64  1  0
 55 61  1  0
 55 57  1  0
 56 62  1  0
 57 58  2  0
 57 56  1  0
 59 53  2  0
 60 59  1  0
 60 55  2  0
 61 54  1  0
 62 52  1  0
 64 66  2  0
 65 64  1  0
 67 65  1  0
 68 77  2  0
 68 73  1  0
 69 65  1  0
 69 73  1  0
 70 69  1  0
 71 72  1  0
 71 70  1  0
 72 68  1  0
 73 74  2  0
 74 75  1  0
 76 75  2  0
 77 76  1  0
 78 52  1  0
 78 83  1  0
 78 79  1  0
 79 82  1  1
 79 80  1  0
 81 79  1  0
 83 86  1  0
 84 88  1  0
 84 83  1  0
 85 84  2  0
 88 87  1  0
 90 88  1  0
 90 91  1  0
 90 89  1  0
M  ISO  4  10 100  18 100  50 101  51 101
M  END
>  <TORSDO>  (53) 
F 20

>  <SCORE>  (53) 
-13.868

>  <name>  (53) 
52

>  <ligand_id>  (53) 
52

>  <original_smiles>  (53) 
[H]c1c([H])c([H])c2c(c1[H])C([H])([H])C([H])([H])C([H])([H])C2([H])N([H])C(=O)C1([H])N(C(=O)C([H])(N([H])C(=O)C([H])(N([H])C([H])([H])[H])C([H])([H])[H])C(C([H])([H])[H])(C([H])([H])[H])C([H])([H])[H])C([H])([H])c2c([H])c(OC([H])([H])C([H])([H])C([H])([H])[N+]([H])([H])C3([H])C(=O)C([H])(N([H])C(=O)N4C([H])([H])C([H])([H])C([H])([H])C([H])(n5nc(-c6c([H])c([H])c(Oc7c([H])c([H])c(F)c([H])c7F)c([H])c6[H])c(C(=O)N([H])[H])c5N([H])[H])C4([H])[H])C([H])([H])C3([H])[H])c([H])c([H])c2C1([H])[H]

>  <smiles>  (53) 
[H]c1c([H])c([H])c2c(c1[H])C([H])([H])C([H])([H])C([H])([H])C2([H])N([H])C(=O)C1([H])N(C(=O)C([H])(N([H])C(=O)C([H])(N([H])C([H])([H])[H])C([H])([H])[H])C(C([H])([H])[H])(C([H])([H])[H])C([H])([H])[H])C([H])([H])c2c([H])c(OC([H])([H])C([H])([H])C([H])([H])[N+]([H])([H])C3([H])C(=O)C([H])(N([H])C(=O)N4C([H])([H])C([H])([H])C([H])([H])C([H])(n5nc(-c6c([H])c([H])c(Oc7c([H])c([H])c(F)c([H])c7F)c([H])c6[H])c(C(=O)N([H])[H])c5N([H])[H])C4([H])[H])C([H])([H])C3([H])[H])c([H])c([H])c2C1([H])[H]

$$$$
53:0:0
     RDKit          3D

 93101  0  0  1  0  0  0  0  0999 V2000
  -29.8790  -22.2370   17.3360 C   0  0  0  0  0  2  0  0  0  0  0  0
  -28.4930  -22.8760   17.2960 C   0  0  0  0  0  2  0  0  0  0  0  0
  -30.1510  -21.9460   18.8150 C   0  0  0  0  0  2  0  0  0  0  0  0
  -28.2510  -23.3670   18.7270 C   0  0  0  0  0  3  0  0  0  0  0  0
  -28.9580  -22.3840   19.5860 N   0  0  1  0  0  4  0  0  0  0  0  0
  -29.3030  -22.8520   20.4110 H   0  0  0  0  0  0  0  0  0  0  0  0
  -28.7790  -24.8010   18.9090 C   0  0  0  0  0  2  0  0  0  0  0  0
  -28.4870  -25.3930   20.2910 C   0  0  0  0  0  2  0  0  0  0  0  0
  -28.5170  -26.8060   20.2010 O   0  0  0  0  0  0  0  0  0  0  0  0
  -24.5560  -31.8290   23.1710 C   0  0  0  0  0  0  0  0  0  0  0  0
  -27.3100  -27.4610   20.1380 C   0  0  0  0  0  0  0  0  0  0  0  0
  -23.3920  -30.4180   21.5030 C   0  0  0  0  0  3  0  0  0  0  0  0
  -24.8840  -28.9030   20.0990 C   0  0  0  0  0  0  0  0  0  0  0  0
  -25.9070  -30.8190   21.3400 C   0  0  0  0  0  2  0  0  0  0  0  0
  -26.0190  -29.4520   20.7060 C   0  0  0  0  0  0  0  0  0  0  0  0
  -27.2330  -28.7390   20.7210 C   0  0  0  0  0  3  0  0  0  0  0  0
  -26.1610  -26.9150   19.5190 C   0  0  0  0  0  3  0  0  0  0  0  0
  -24.9480  -27.6300   19.5030 C   0  0  0  0  0  3  0  0  0  0  0  0
  -23.6270  -29.7420   20.1250 C   0  0  0  0  0  2  0  0  0  0  0  0
  -24.6360  -31.0370   22.0630 N   0  0  0  0  0  0  0  0  0  0  0  0
  -23.4650  -32.0880   23.6950 O   0  0  0  0  0  0  0  0  0  0  0  0
  -22.7380  -29.3880   22.4510 C   0  0  0  0  0  0  0  0  0  0  0  0
  -21.4180  -29.1960   22.3030 N   0  0  0  0  0  0  0  0  0  0  0  0
  -23.4150  -28.7660   23.2740 O   0  0  0  0  0  0  0  0  0  0  0  0
  -20.9330  -29.7500   21.6110 H   0  0  0  0  0  0  0  0  0  0  0  0
  -18.0480  -27.9780   22.7420 C   0  0  0  0  0  0  0  0  0  0  0  0
  -20.5980  -28.2480   23.0580 C   0  0  0  0  0  3  0  0  0  0  0  0
  -20.7200  -26.8220   22.4740 C   0  0  0  0  0  2  0  0  0  0  0  0
  -19.6360  -26.4960   21.4420 C   0  0  0  0  0  2  0  0  0  0  0  0
  -18.2430  -26.6320   22.0650 C   0  0  0  0  0  2  0  0  0  0  0  0
  -19.1540  -28.7430   23.1940 C   0  0  0  0  0  0  0  0  0  0  0  0
  -18.9210  -30.0040   23.7850 C   0  0  0  0  0  3  0  0  0  0  0  0
  -17.6110  -30.4980   23.9340 C   0  0  0  0  0  3  0  0  0  0  0  0
  -16.5180  -29.7290   23.4990 C   0  0  0  0  0  3  0  0  0  0  0  0
  -16.7360  -28.4720   22.9080 C   0  0  0  0  0  3  0  0  0  0  0  0
  -25.8280  -32.4710   23.8120 C   0  0  0  0  0  3  0  0  0  0  0  0
  -25.5010  -33.8620   24.1460 N   0  0  0  0  0  0  0  0  0  0  0  0
  -25.8350  -34.9220   23.3990 C   0  0  0  0  0  0  0  0  0  0  0  0
  -26.5220  -34.8340   22.3780 O   0  0  0  0  0  0  0  0  0  0  0  0
  -24.8930  -34.0070   24.9380 H   0  0  0  0  0  0  0  0  0  0  0  0
  -24.0940  -36.6980   23.0260 C   0  0  0  0  0  1  0  0  0  0  0  0
  -25.3240  -36.3010   23.8570 C   0  0  0  0  0  3  0  0  0  0  0  0
  -27.4320  -37.2010   24.7380 C   0  0  0  0  0  1  0  0  0  0  0  0
  -26.3470  -37.3650   23.7730 N   0  0  0  0  0  0  0  0  0  0  0  0
  -25.9280  -38.2800   23.9170 H   0  0  0  0  0  0  0  0  0  0  0  0
  -26.3420  -31.6940   25.0850 C   0  0  1  0  0  0  0  0  0  0  0  0
  -25.2430  -31.4450   26.1440 C   0  0  0  0  0  1  0  0  0  0  0  0
  -26.9320  -30.3230   24.6830 C   0  0  0  0  0  1  0  0  0  0  0  0
  -27.4840  -32.4900   25.7610 C   0  0  0  0  0  1  0  0  0  0  0  0
  -28.0270  -21.3330   20.1010 C   0  0  0  0  0  2  0  0  0  0  0  0
  -28.6400  -19.9550   20.4250 C   0  0  0  0  0  2  0  0  0  0  0  0
  -29.8330  -19.9400   21.4120 C   0  0  0  0  0  2  0  0  0  0  0  0
  -30.9610  -18.9660   20.9980 C   0  0  0  0  0  2  0  0  0  0  0  0
  -30.5150  -17.5390   20.5910 C   0  0  0  0  0  2  0  0  0  0  0  0
  -30.9540  -16.4280   21.5590 C   0  0  0  0  0  2  0  0  0  0  0  0
  -30.9770  -14.2930   20.2310 C   0  0  0  0  0  0  0  0  0  0  0  0
  -30.5660  -12.2280   18.9380 C   0  0  0  0  0  2  0  0  0  0  0  0
  -29.5840  -12.5030   17.7810 C   0  0  0  0  0  2  0  0  0  0  0  0
  -28.1230  -12.3900   18.2580 C   0  0  0  0  0  2  0  0  0  0  0  0
  -27.8610  -13.2150   19.5450 C   0  0  0  0  0  3  0  0  0  0  0  0
  -28.9260  -12.8840   20.6090 C   0  0  0  0  0  2  0  0  0  0  0  0
  -30.2530  -13.1620   20.0270 N   0  0  0  0  0  0  0  0  0  0  0  0
  -32.0210  -14.5540   19.6260 O   0  0  0  0  0  0  0  0  0  0  0  0
  -30.4420  -15.1280   21.1320 N   0  0  0  0  0  0  0  0  0  0  0  0
  -29.5810  -14.8150   21.5550 H   0  0  0  0  0  0  0  0  0  0  0  0
  -25.5010  -13.9090   20.3090 C   0  0  0  0  0  0  0  0  0  0  0  0
  -24.4210  -13.1750   20.7150 C   0  0  0  0  0  0  0  0  0  0  0  0
  -24.8380  -11.8090   20.6820 C   0  0  0  0  0  0  0  0  0  0  0  0
  -26.5110  -12.9950   20.0540 N   0  0  0  0  0  0  0  0  0  0  0  0
  -26.1150  -11.7280   20.3330 N   0  0  0  0  0  0  0  0  0  0  0  0
  -24.0790  -10.5720   20.9010 C   0  0  0  0  0  0  0  0  0  0  0  0
  -24.5050   -9.6030   21.8370 C   0  0  0  0  0  3  0  0  0  0  0  0
  -23.7510   -8.4280   22.0480 C   0  0  0  0  0  3  0  0  0  0  0  0
  -22.5570   -8.2120   21.3190 C   0  0  0  0  0  0  0  0  0  0  0  0
  -22.1490   -9.1690   20.3730 C   0  0  0  0  0  3  0  0  0  0  0  0
  -22.9030  -10.3360   20.1610 C   0  0  0  0  0  3  0  0  0  0  0  0
  -21.7740   -7.0910   21.4330 O   0  0  0  0  0  0  0  0  0  0  0  0
  -21.7170   -6.3690   22.5980 C   0  0  0  0  0  0  0  0  0  0  0  0
  -21.3210   -6.9570   23.8190 C   0  0  0  0  0  3  0  0  0  0  0  0
  -21.2120   -6.1630   24.9790 C   0  0  0  0  0  3  0  0  0  0  0  0
  -21.4870   -4.7840   24.9180 C   0  0  0  0  0  0  0  0  0  0  0  0
  -21.8750   -4.1970   23.7010 C   0  0  0  0  0  3  0  0  0  0  0  0
  -21.9890   -4.9880   22.5450 C   0  0  0  0  0  0  0  0  0  0  0  0
  -22.3440   -4.4140   21.3700 F   0  0  0  0  0  0  0  0  0  0  0  0
  -21.3750   -4.0200   26.0290 F   0  0  0  0  0  0  0  0  0  0  0  0
  -23.0470  -13.6950   21.0240 C   0  0  0  0  0  0  0  0  0  0  0  0
  -22.3240  -13.0290   21.9190 N   0  0  0  0  0  0  0  0  0  0  0  0
  -22.6240  -14.7280   20.5070 O   0  0  0  0  0  0  0  0  0  0  0  0
  -22.6760  -12.1920   22.3590 H   0  0  0  0  0  0  0  0  0  0  0  0
  -21.4030  -13.3630   22.1660 H   0  0  0  0  0  0  0  0  0  0  0  0
  -25.7040  -15.2740   20.1190 N   0  0  0  0  0  0  0  0  0  0  0  0
  -24.9560  -15.9490   20.2400 H   0  0  0  0  0  0  0  0  0  0  0  0
  -26.5600  -15.6890   19.7760 H   0  0  0  0  0  0  0  0  0  0  0  0
  1  3  1  0
  2  1  1  0
  2  4  1  0
  3  5  1  0
  4  7  1  0
  4  5  1  0
  5 50  1  0
  5  6  1  1
  7  8  1  0
  9  8  1  0
 10 21  2  0
 11  9  1  0
 11 16  1  0
 12 20  1  0
 12 22  1  0
 13 19  1  0
 13 15  1  0
 14 20  1  0
 15 16  2  0
 15 14  1  0
 17 11  2  0
 18 17  1  0
 18 13  2  0
 19 12  1  0
 20 10  1  0
 22 24  2  0
 23 22  1  0
 25 23  1  0
 26 35  2  0
 26 31  1  0
 27 23  1  0
 27 31  1  0
 28 27  1  0
 29 30  1  0
 29 28  1  0
 30 26  1  0
 31 32  2  0
 32 33  1  0
 34 33  2  0
 35 34  1  0
 36 10  1  0
 36 37  1  0
 36 46  1  0
 37 40  1  0
 38 42  1  0
 38 37  1  0
 39 38  2  0
 42 41  1  0
 44 42  1  0
 44 45  1  0
 44 43  1  0
 46 49  1  1
 46 47  1  0
 48 46  1  0
 50 51  1  0
 51 52  1  0
 53 52  1  0
 54 53  1  0
 54 55  1  0
 56 64  1  0
 57 62  1  0
 58 59  1  0
 58 57  1  0
 60 59  1  0
 60 69  1  0
 60 61  1  0
 62 56  1  0
 62 61  1  0
 63 56  2  0
 64 65  1  0
 64 55  1  0
 66 67  2  0
 67 86  1  0
 68 67  1  0
 68 71  1  0
 69 66  1  0
 69 70  1  0
 70 68  2  0
 71 72  1  0
 72 73  2  0
 74 77  1  0
 74 73  1  0
 75 74  2  0
 76 75  1  0
 76 71  2  0
 77 78  1  0
 78 79  1  0
 79 80  2  0
 81 80  1  0
 81 85  1  0
 82 81  2  0
 83 78  2  0
 83 82  1  0
 84 83  1  0
 86 87  1  0
 87 90  1  0
 87 89  1  0
 88 86  2  0
 91 92  1  0
 91 66  1  0
 93 91  1  0
M  ISO  4   8 101   9 101  56 100  64 100
M  END
>  <TORSDO>  (54) 
F 24

>  <SCORE>  (54) 
-12.320

>  <name>  (54) 
53

>  <ligand_id>  (54) 
53

>  <original_smiles>  (54) 
[H]c1c([H])c([H])c2c(c1[H])C([H])([H])C([H])([H])C([H])([H])C2([H])N([H])C(=O)C1([H])N(C(=O)C([H])(N([H])C(=O)C([H])(N([H])C([H])([H])[H])C([H])([H])[H])C(C([H])([H])[H])(C([H])([H])[H])C([H])([H])[H])C([H])([H])c2c([H])c(OC([H])([H])C([H])([H])C3([H])C([H])([H])C([H])([H])C([H])([H])[N+]3([H])C([H])([H])C([H])([H])C([H])([H])C([H])([H])C([H])([H])C([H])([H])N([H])C(=O)N3C([H])([H])C([H])([H])C([H])([H])C([H])(n4nc(-c5c([H])c([H])c(Oc6c([H])c([H])c(F)c([H])c6F)c([H])c5[H])c(C(=O)N([H])[H])c4N([H])[H])C3([H])[H])c([H])c([H])c2C1([H])[H]

>  <smiles>  (54) 
[H]c1c([H])c([H])c2c(c1[H])C([H])([H])C([H])([H])C([H])([H])C2([H])N([H])C(=O)C1([H])N(C(=O)C([H])(N([H])C(=O)C([H])(N([H])C([H])([H])[H])C([H])([H])[H])C(C([H])([H])[H])(C([H])([H])[H])C([H])([H])[H])C([H])([H])c2c([H])c(OC([H])([H])C([H])([H])C3([H])C([H])([H])C([H])([H])C([H])([H])[N+]3([H])C([H])([H])C([H])([H])C([H])([H])C([H])([H])C([H])([H])C([H])([H])N([H])C(=O)N3C([H])([H])C([H])([H])C([H])([H])C([H])(n4nc(-c5c([H])c([H])c(Oc6c([H])c([H])c(F)c([H])c6F)c([H])c5[H])c(C(=O)N([H])[H])c4N([H])[H])C3([H])[H])c([H])c([H])c2C1([H])[H]

$$$$
54:0:0
     RDKit          3D

 94103  0  0  1  0  0  0  0  0999 V2000
  -30.8980  -18.7540   19.1760 C   0  0  0  0  0  0  0  0  0  0  0  0
  -30.3980  -17.3280   19.3510 C   0  0  0  0  0  2  0  0  0  0  0  0
  -30.2910  -20.1200   22.7810 C   0  0  0  0  0  2  0  0  0  0  0  0
  -30.9170  -21.5170   22.6130 C   0  0  0  0  0  2  0  0  0  0  0  0
  -31.1810  -21.1040   20.1340 C   0  0  0  0  0  2  0  0  0  0  0  0
  -30.1870  -17.7240   21.8580 C   0  0  0  0  0  2  0  0  0  0  0  0
  -30.5040  -19.7320   20.2920 C   0  0  0  0  0  3  0  0  0  0  0  0
  -30.7860  -19.1420   21.6970 C   0  0  0  0  0  3  0  0  0  0  0  0
  -30.6780  -22.0880   21.2000 C   0  0  0  0  0  3  0  0  0  0  0  0
  -30.7440  -16.7940   20.7620 C   0  0  0  0  0  3  0  0  0  0  0  0
  -31.5500  -19.0920   18.1840 O   0  0  0  0  0  0  0  0  0  0  0  0
  -30.9230  -14.3870   20.3100 C   0  0  0  0  0  0  0  0  0  0  0  0
  -30.5150  -12.3040   19.0850 C   0  0  0  0  0  2  0  0  0  0  0  0
  -29.5490  -12.5970   17.9200 C   0  0  0  0  0  2  0  0  0  0  0  0
  -28.0860  -12.4690   18.3880 C   0  0  0  0  0  2  0  0  0  0  0  0
  -27.8030  -13.2580   19.6960 C   0  0  0  0  0  3  0  0  0  0  0  0
  -28.8850  -12.9740   20.7630 C   0  0  0  0  0  2  0  0  0  0  0  0
  -30.2020  -13.2480   20.1660 N   0  0  0  0  0  0  0  0  0  0  0  0
  -32.0230  -14.5610   19.7770 O   0  0  0  0  0  0  0  0  0  0  0  0
  -30.2920  -15.4080   20.9080 N   0  0  0  0  0  0  0  0  0  0  0  0
  -29.3900  -15.2270   21.3220 H   0  0  0  0  0  0  0  0  0  0  0  0
  -25.4210  -13.8600   20.4650 C   0  0  0  0  0  0  0  0  0  0  0  0
  -24.3620  -13.0840   20.8540 C   0  0  0  0  0  0  0  0  0  0  0  0
  -24.8220  -11.7320   20.7990 C   0  0  0  0  0  0  0  0  0  0  0  0
  -26.4610  -12.9810   20.2020 N   0  0  0  0  0  0  0  0  0  0  0  0
  -26.1040  -11.6950   20.4590 N   0  0  0  0  0  0  0  0  0  0  0  0
  -24.1010  -10.4680   20.9960 C   0  0  0  0  0  0  0  0  0  0  0  0
  -24.5400   -9.5050   21.9330 C   0  0  0  0  0  3  0  0  0  0  0  0
  -23.8200   -8.3060   22.1170 C   0  0  0  0  0  3  0  0  0  0  0  0
  -22.6470   -8.0590   21.3650 C   0  0  0  0  0  0  0  0  0  0  0  0
  -22.2280   -9.0090   20.4180 C   0  0  0  0  0  3  0  0  0  0  0  0
  -22.9490  -10.2010   20.2320 C   0  0  0  0  0  3  0  0  0  0  0  0
  -21.8980   -6.9110   21.4590 O   0  0  0  0  0  0  0  0  0  0  0  0
  -21.8310   -6.1880   22.6230 C   0  0  0  0  0  0  0  0  0  0  0  0
  -21.3540   -6.7540   23.8250 C   0  0  0  0  0  3  0  0  0  0  0  0
  -21.2370   -5.9550   24.9810 C   0  0  0  0  0  3  0  0  0  0  0  0
  -21.5880   -4.5920   24.9350 C   0  0  0  0  0  0  0  0  0  0  0  0
  -22.0580   -4.0270   23.7360 C   0  0  0  0  0  3  0  0  0  0  0  0
  -22.1760   -4.8220   22.5830 C   0  0  0  0  0  0  0  0  0  0  0  0
  -22.6100   -4.2660   21.4260 F   0  0  0  0  0  0  0  0  0  0  0  0
  -21.4680   -3.8240   26.0420 F   0  0  0  0  0  0  0  0  0  0  0  0
  -22.9720  -13.5570   21.1670 C   0  0  0  0  0  0  0  0  0  0  0  0
  -22.2670  -12.8510   22.0440 N   0  0  0  0  0  0  0  0  0  0  0  0
  -22.5210  -14.5880   20.6690 O   0  0  0  0  0  0  0  0  0  0  0  0
  -22.6440  -12.0170   22.4680 H   0  0  0  0  0  0  0  0  0  0  0  0
  -21.3350  -13.1500   22.2950 H   0  0  0  0  0  0  0  0  0  0  0  0
  -25.5820  -15.2310   20.2940 N   0  0  0  0  0  0  0  0  0  0  0  0
  -24.8200  -15.8880   20.4280 H   0  0  0  0  0  0  0  0  0  0  0  0
  -26.4270  -15.6710   19.9490 H   0  0  0  0  0  0  0  0  0  0  0  0
  -31.3160  -23.4730   20.9930 C   0  0  0  0  0  2  0  0  0  0  0  0
  -30.4370  -24.6200   21.5070 C   0  0  0  0  0  2  0  0  0  0  0  0
  -30.9050  -25.9900   20.9900 C   0  0  0  0  0  2  0  0  0  0  0  0
  -29.8080  -27.0540   21.0770 C   0  0  0  0  0  2  0  0  0  0  0  0
  -28.7270  -26.6480   20.2410 O   0  0  0  0  0  0  0  0  0  0  0  0
  -24.7990  -31.7760   23.2710 C   0  0  0  0  0  0  0  0  0  0  0  0
  -27.5700  -27.3910   20.2750 C   0  0  0  0  0  0  0  0  0  0  0  0
  -23.6350  -30.3490   21.6140 C   0  0  0  0  0  3  0  0  0  0  0  0
  -25.1340  -28.8190   20.2300 C   0  0  0  0  0  0  0  0  0  0  0  0
  -26.1490  -30.7530   21.4520 C   0  0  0  0  0  2  0  0  0  0  0  0
  -26.2650  -29.3780   20.8360 C   0  0  0  0  0  0  0  0  0  0  0  0
  -27.4810  -28.6710   20.8660 C   0  0  0  0  0  3  0  0  0  0  0  0
  -26.4250  -26.8370   19.6670 C   0  0  0  0  0  3  0  0  0  0  0  0
  -25.2050  -27.5420   19.6460 C   0  0  0  0  0  3  0  0  0  0  0  0
  -23.8760  -29.6560   20.2450 C   0  0  0  0  0  2  0  0  0  0  0  0
  -24.8770  -30.9740   22.1720 N   0  0  0  0  0  0  0  0  0  0  0  0
  -23.7070  -32.0390   23.7930 O   0  0  0  0  0  0  0  0  0  0  0  0
  -22.9800  -29.3290   22.5720 C   0  0  0  0  0  0  0  0  0  0  0  0
  -21.6590  -29.1390   22.4280 N   0  0  0  0  0  0  0  0  0  0  0  0
  -23.6580  -28.7090   23.3960 O   0  0  0  0  0  0  0  0  0  0  0  0
  -21.1750  -29.6900   21.7330 H   0  0  0  0  0  0  0  0  0  0  0  0
  -18.2840  -27.9400   22.8850 C   0  0  0  0  0  0  0  0  0  0  0  0
  -20.8370  -28.2010   23.1900 C   0  0  0  0  0  3  0  0  0  0  0  0
  -20.9500  -26.7690   22.6170 C   0  0  0  0  0  2  0  0  0  0  0  0
  -19.8610  -26.4450   21.5880 C   0  0  0  0  0  2  0  0  0  0  0  0
  -18.4710  -26.5890   22.2150 C   0  0  0  0  0  2  0  0  0  0  0  0
  -19.3970  -28.7030   23.3290 C   0  0  0  0  0  0  0  0  0  0  0  0
  -19.1700  -29.9690   23.9130 C   0  0  0  0  0  3  0  0  0  0  0  0
  -17.8630  -30.4700   24.0590 C   0  0  0  0  0  3  0  0  0  0  0  0
  -16.7650  -29.7030   23.6330 C   0  0  0  0  0  3  0  0  0  0  0  0
  -16.9760  -28.4400   23.0520 C   0  0  0  0  0  3  0  0  0  0  0  0
  -26.0710  -32.4220   23.9080 C   0  0  0  0  0  3  0  0  0  0  0  0
  -26.5860  -31.6510   25.1850 C   0  0  1  0  0  0  0  0  0  0  0  0
  -25.4870  -31.3930   26.2410 C   0  0  0  0  0  1  0  0  0  0  0  0
  -27.1910  -30.2840   24.7880 C   0  0  0  0  0  1  0  0  0  0  0  0
  -27.7200  -32.4570   25.8620 C   0  0  0  0  0  1  0  0  0  0  0  0
  -25.7420  -33.8150   24.2350 N   0  0  0  0  0  0  0  0  0  0  0  0
  -26.0540  -34.8680   23.4680 C   0  0  0  0  0  0  0  0  0  0  0  0
  -26.7210  -34.7710   22.4340 O   0  0  0  0  0  0  0  0  0  0  0  0
  -25.1480  -33.9630   25.0380 H   0  0  0  0  0  0  0  0  0  0  0  0
  -24.2870  -36.6230   23.1180 C   0  0  0  0  0  1  0  0  0  0  0  0
  -25.5440  -36.2490   23.9200 C   0  0  0  0  0  3  0  0  0  0  0  0
  -27.6670  -37.1830   24.7260 C   0  0  0  0  0  1  0  0  0  0  0  0
  -26.5560  -37.3220   23.7900 N   0  0  0  0  0  0  0  0  0  0  0  0
  -26.1330  -38.2350   23.9320 H   0  0  0  0  0  0  0  0  0  0  0  0
  1  2  1  0
  1  7  1  0
  2 10  1  0
  4  3  1  0
  5  9  1  0
  7  5  1  0
  7  8  1  0
  8  6  1  0
  8  3  1  0
  9 50  1  0
  9  4  1  0
 10 20  1  0
 10  6  1  0
 11  1  2  0
 12 20  1  0
 13 18  1  0
 14 15  1  0
 14 13  1  0
 16 15  1  0
 16 25  1  0
 16 17  1  0
 18 12  1  0
 18 17  1  0
 19 12  2  0
 20 21  1  0
 22 23  2  0
 23 42  1  0
 24 23  1  0
 24 27  1  0
 25 26  1  0
 25 22  1  0
 26 24  2  0
 27 28  1  0
 28 29  2  0
 30 33  1  0
 30 29  1  0
 31 30  2  0
 32 31  1  0
 32 27  2  0
 33 34  1  0
 34 35  1  0
 35 36  2  0
 37 36  1  0
 37 41  1  0
 38 37  2  0
 39 34  2  0
 39 38  1  0
 40 39  1  0
 42 43  1  0
 43 46  1  0
 43 45  1  0
 44 42  2  0
 47 48  1  0
 47 22  1  0
 49 47  1  0
 50 51  1  0
 52 53  1  0
 52 51  1  0
 54 56  1  0
 54 53  1  0
 55 66  2  0
 56 61  1  0
 57 65  1  0
 57 67  1  0
 58 64  1  0
 58 60  1  0
 59 65  1  0
 60 61  2  0
 60 59  1  0
 62 56  2  0
 63 62  1  0
 63 58  2  0
 64 57  1  0
 65 55  1  0
 67 69  2  0
 68 67  1  0
 70 68  1  0
 71 80  2  0
 71 76  1  0
 72 68  1  0
 72 76  1  0
 73 72  1  0
 74 75  1  0
 74 73  1  0
 75 71  1  0
 76 77  2  0
 77 78  1  0
 79 78  2  0
 80 79  1  0
 81 55  1  0
 81 86  1  0
 81 82  1  0
 82 85  1  1
 82 83  1  0
 84 82  1  0
 86 89  1  0
 87 91  1  0
 87 86  1  0
 88 87  2  0
 91 90  1  0
 93 91  1  0
 93 94  1  0
 93 92  1  0
M  ISO  4  12 100  20 100  53 101  54 101
M  END
>  <TORSDO>  (55) 
F 20

>  <SCORE>  (55) 
-13.419

>  <name>  (55) 
54

>  <ligand_id>  (55) 
54

>  <original_smiles>  (55) 
[H]c1c([H])c([H])c2c(c1[H])C([H])([H])C([H])([H])C([H])([H])C2([H])N([H])C(=O)C1([H])N(C(=O)C([H])(N([H])C(=O)C([H])(N([H])C([H])([H])[H])C([H])([H])[H])C(C([H])([H])[H])(C([H])([H])[H])C([H])([H])[H])C([H])([H])c2c([H])c(OC([H])([H])C([H])([H])C([H])([H])C([H])([H])C3([H])C([H])([H])C([H])([H])C4([H])C([H])([H])C([H])(N([H])C(=O)N5C([H])([H])C([H])([H])C([H])([H])C([H])(n6nc(-c7c([H])c([H])c(Oc8c([H])c([H])c(F)c([H])c8F)c([H])c7[H])c(C(=O)N([H])[H])c6N([H])[H])C5([H])[H])C([H])([H])C(=O)C4([H])C3([H])[H])c([H])c([H])c2C1([H])[H]

>  <smiles>  (55) 
[H]c1c([H])c([H])c2c(c1[H])C([H])([H])C([H])([H])C([H])([H])C2([H])N([H])C(=O)C1([H])N(C(=O)C([H])(N([H])C(=O)C([H])(N([H])C([H])([H])[H])C([H])([H])[H])C(C([H])([H])[H])(C([H])([H])[H])C([H])([H])[H])C([H])([H])c2c([H])c(OC([H])([H])C([H])([H])C([H])([H])C([H])([H])C3([H])C([H])([H])C([H])([H])C4([H])C([H])([H])C([H])(N([H])C(=O)N5C([H])([H])C([H])([H])C([H])([H])C([H])(n6nc(-c7c([H])c([H])c(Oc8c([H])c([H])c(F)c([H])c8F)c([H])c7[H])c(C(=O)N([H])[H])c6N([H])[H])C5([H])[H])C([H])([H])C(=O)C4([H])C3([H])[H])c([H])c([H])c2C1([H])[H]

$$$$
55:0:0
     RDKit          3D

 97105  0  0  1  0  0  0  0  0999 V2000
  -27.6210  -19.6010   18.3440 C   0  0  0  0  0  3  0  0  0  0  0  0
  -29.9740  -19.4390   17.6010 C   0  0  0  0  0  2  0  0  0  0  0  0
  -30.3090  -19.4820   19.1020 C   0  0  0  0  0  3  0  0  0  0  0  0
  -29.4000  -20.5280   19.8000 C   0  0  0  0  0  3  0  0  0  0  0  0
  -27.9990  -20.2090   19.4880 N   0  0  0  0  0  0  0  0  0  0  0  0
  -28.5330  -19.2170   17.4260 N   0  0  0  0  0  0  0  0  0  0  0  0
  -27.3000  -20.4910   20.1640 H   0  0  0  0  0  0  0  0  0  0  0  0
  -28.2340  -18.7730   16.5660 H   0  0  0  0  0  0  0  0  0  0  0  0
  -26.1700  -19.3170   18.1020 C   0  0  0  0  0  2  0  0  0  0  0  0
  -24.1050  -18.3750   19.2880 C   0  0  0  0  0  1  0  0  0  0  0  0
  -25.6370  -18.4570   19.2550 C   0  0  0  0  0  2  0  0  0  0  0  0
  -30.2600  -18.0530   19.7130 C   0  0  0  0  0  2  0  0  0  0  0  0
  -30.4560  -17.9850   21.2430 C   0  0  0  0  0  2  0  0  0  0  0  0
  -31.2120  -16.7360   21.7500 C   0  0  0  0  0  2  0  0  0  0  0  0
  -31.1640  -14.5180   20.5940 C   0  0  0  0  0  0  0  0  0  0  0  0
  -30.8350  -12.3460   19.4710 C   0  0  0  0  0  2  0  0  0  0  0  0
  -29.9200  -12.5110   18.2430 C   0  0  0  0  0  2  0  0  0  0  0  0
  -28.4380  -12.4040   18.6480 C   0  0  0  0  0  2  0  0  0  0  0  0
  -28.0850  -13.3040   19.8630 C   0  0  0  0  0  3  0  0  0  0  0  0
  -29.1090  -13.1110   21.0030 C   0  0  0  0  0  2  0  0  0  0  0  0
  -30.4550  -13.3670   20.4590 N   0  0  0  0  0  0  0  0  0  0  0  0
  -32.2460  -14.7100   20.0330 O   0  0  0  0  0  0  0  0  0  0  0  0
  -30.5990  -15.4620   21.3630 N   0  0  0  0  0  0  0  0  0  0  0  0
  -29.7060  -15.2320   21.7750 H   0  0  0  0  0  0  0  0  0  0  0  0
  -25.6990  -13.9820   20.5490 C   0  0  0  0  0  0  0  0  0  0  0  0
  -24.6010  -13.2410   20.8930 C   0  0  0  0  0  0  0  0  0  0  0  0
  -25.0170  -11.8760   20.8500 C   0  0  0  0  0  0  0  0  0  0  0  0
  -26.7170  -13.0700   20.3200 N   0  0  0  0  0  0  0  0  0  0  0  0
  -26.3090  -11.7970   20.5560 N   0  0  0  0  0  0  0  0  0  0  0  0
  -24.2470  -10.6360   21.0160 C   0  0  0  0  0  0  0  0  0  0  0  0
  -24.5960   -9.6760   21.9910 C   0  0  0  0  0  3  0  0  0  0  0  0
  -23.8300   -8.5000   22.1440 C   0  0  0  0  0  3  0  0  0  0  0  0
  -22.7010   -8.2770   21.3200 C   0  0  0  0  0  0  0  0  0  0  0  0
  -22.3720   -9.2250   20.3360 C   0  0  0  0  0  3  0  0  0  0  0  0
  -23.1390  -10.3920   20.1810 C   0  0  0  0  0  3  0  0  0  0  0  0
  -21.9140   -7.1530   21.3790 O   0  0  0  0  0  0  0  0  0  0  0  0
  -21.7070   -6.4800   22.5570 C   0  0  0  0  0  0  0  0  0  0  0  0
  -21.1420   -7.1090   23.6860 C   0  0  0  0  0  3  0  0  0  0  0  0
  -20.8840   -6.3620   24.8540 C   0  0  0  0  0  3  0  0  0  0  0  0
  -21.1810   -4.9870   24.8900 C   0  0  0  0  0  0  0  0  0  0  0  0
  -21.7380   -4.3570   23.7640 C   0  0  0  0  0  3  0  0  0  0  0  0
  -21.9980   -5.1000   22.5990 C   0  0  0  0  0  0  0  0  0  0  0  0
  -22.5170   -4.4840   21.5100 F   0  0  0  0  0  0  0  0  0  0  0  0
  -20.9250   -4.2670   26.0080 F   0  0  0  0  0  0  0  0  0  0  0  0
  -23.2160  -13.7620   21.1570 C   0  0  0  0  0  0  0  0  0  0  0  0
  -22.4620  -13.0870   22.0180 N   0  0  0  0  0  0  0  0  0  0  0  0
  -22.8130  -14.8000   20.6340 O   0  0  0  0  0  0  0  0  0  0  0  0
  -22.8010  -12.2460   22.4610 H   0  0  0  0  0  0  0  0  0  0  0  0
  -21.5330  -13.4160   22.2360 H   0  0  0  0  0  0  0  0  0  0  0  0
  -25.9140  -15.3460   20.3980 N   0  0  0  0  0  0  0  0  0  0  0  0
  -25.1680  -16.0260   20.4980 H   0  0  0  0  0  0  0  0  0  0  0  0
  -26.7910  -15.7570   20.1040 H   0  0  0  0  0  0  0  0  0  0  0  0
  -29.7200  -21.9870   19.3740 C   0  0  0  0  0  2  0  0  0  0  0  0
  -29.0830  -23.0670   20.2740 C   0  0  0  0  0  2  0  0  0  0  0  0
  -29.2460  -24.5020   19.7200 C   0  0  0  0  0  2  0  0  0  0  0  0
  -28.6880  -25.5750   20.6720 C   0  0  0  0  0  2  0  0  0  0  0  0
  -28.7180  -26.8780   20.0760 O   0  0  0  0  0  0  0  0  0  0  0  0
  -24.6150  -31.7370   23.2550 C   0  0  0  0  0  0  0  0  0  0  0  0
  -27.5160  -27.5480   20.0730 C   0  0  0  0  0  0  0  0  0  0  0  0
  -23.5030  -30.3390   21.5430 C   0  0  0  0  0  3  0  0  0  0  0  0
  -25.0500  -28.9240   20.0910 C   0  0  0  0  0  0  0  0  0  0  0  0
  -26.0090  -30.8290   21.4000 C   0  0  0  0  0  2  0  0  0  0  0  0
  -26.1710  -29.4880   20.7150 C   0  0  0  0  0  0  0  0  0  0  0  0
  -27.4100  -28.8090   20.6990 C   0  0  0  0  0  3  0  0  0  0  0  0
  -26.3820  -26.9970   19.4380 C   0  0  0  0  0  3  0  0  0  0  0  0
  -25.1490  -27.6770   19.4500 C   0  0  0  0  0  3  0  0  0  0  0  0
  -23.7650  -29.7180   20.1450 C   0  0  0  0  0  2  0  0  0  0  0  0
  -24.7260  -30.9820   22.1260 N   0  0  0  0  0  0  0  0  0  0  0  0
  -23.5140  -31.9380   23.7860 O   0  0  0  0  0  0  0  0  0  0  0  0
  -22.8860  -29.2550   22.4550 C   0  0  0  0  0  0  0  0  0  0  0  0
  -21.5710  -29.0270   22.3080 N   0  0  0  0  0  0  0  0  0  0  0  0
  -23.5880  -28.6240   23.2500 O   0  0  0  0  0  0  0  0  0  0  0  0
  -21.0650  -29.5920   21.6410 H   0  0  0  0  0  0  0  0  0  0  0  0
  -18.2460  -27.6720   22.7050 C   0  0  0  0  0  0  0  0  0  0  0  0
  -20.7860  -28.0270   23.0310 C   0  0  0  0  0  3  0  0  0  0  0  0
  -20.9590  -26.6240   22.4040 C   0  0  0  0  0  2  0  0  0  0  0  0
  -19.8870  -26.2920   21.3610 C   0  0  0  0  0  2  0  0  0  0  0  0
  -18.4910  -26.3560   21.9860 C   0  0  0  0  0  2  0  0  0  0  0  0
  -19.3240  -28.4640   23.1820 C   0  0  0  0  0  0  0  0  0  0  0  0
  -19.0430  -29.6960   23.8120 C   0  0  0  0  0  3  0  0  0  0  0  0
  -17.7160  -30.1370   23.9710 C   0  0  0  0  0  3  0  0  0  0  0  0
  -16.6520  -29.3410   23.5140 C   0  0  0  0  0  3  0  0  0  0  0  0
  -16.9180  -28.1110   22.8860 C   0  0  0  0  0  3  0  0  0  0  0  0
  -25.8600  -32.4040   23.9190 C   0  0  0  0  0  3  0  0  0  0  0  0
  -26.3800  -31.6250   25.1890 C   0  0  1  0  0  0  0  0  0  0  0  0
  -25.2770  -31.3300   26.2330 C   0  0  0  0  0  1  0  0  0  0  0  0
  -27.0130  -30.2750   24.7780 C   0  0  0  0  0  1  0  0  0  0  0  0
  -27.4920  -32.4410   25.8870 C   0  0  0  0  0  1  0  0  0  0  0  0
  -25.4900  -33.7810   24.2690 N   0  0  0  0  0  0  0  0  0  0  0  0
  -25.8170  -34.8620   23.5500 C   0  0  0  0  0  0  0  0  0  0  0  0
  -26.5340  -34.8070   22.5460 O   0  0  0  0  0  0  0  0  0  0  0  0
  -24.8570  -33.8960   25.0480 H   0  0  0  0  0  0  0  0  0  0  0  0
  -24.0450  -36.6030   23.1580 C   0  0  0  0  0  1  0  0  0  0  0  0
  -25.2610  -36.2220   24.0160 C   0  0  0  0  0  3  0  0  0  0  0  0
  -27.3230  -37.1580   24.9670 C   0  0  0  0  0  1  0  0  0  0  0  0
  -26.2610  -37.3110   23.9760 N   0  0  0  0  0  0  0  0  0  0  0  0
  -25.8170  -38.2130   24.1240 H   0  0  0  0  0  0  0  0  0  0  0  0
  1  9  1  0
  1  5  1  0
  2  3  1  0
  3 12  1  0
  3  4  1  0
  4 53  1  0
  5  4  1  0
  5  7  1  0
  6  2  1  0
  6  1  1  0
  8  6  1  0
  9 11  1  0
 11 10  1  0
 12 13  1  0
 13 14  1  0
 15 23  1  0
 16 21  1  0
 17 18  1  0
 17 16  1  0
 19 18  1  0
 19 28  1  0
 19 20  1  0
 21 15  1  0
 21 20  1  0
 22 15  2  0
 23 14  1  0
 23 24  1  0
 25 26  2  0
 26 45  1  0
 27 26  1  0
 27 30  1  0
 28 25  1  0
 28 29  1  0
 29 27  2  0
 30 31  1  0
 31 32  2  0
 33 36  1  0
 33 32  1  0
 34 33  2  0
 35 34  1  0
 35 30  2  0
 36 37  1  0
 37 42  2  0
 37 38  1  0
 38 39  2  0
 39 40  1  0
 40 44  1  0
 41 40  2  0
 42 41  1  0
 43 42  1  0
 45 46  1  0
 46 49  1  0
 46 48  1  0
 47 45  2  0
 50 51  1  0
 50 25  1  0
 52 50  1  0
 53 54  1  0
 55 54  1  0
 55 56  1  0
 57 56  1  0
 58 69  2  0
 59 57  1  0
 59 64  1  0
 60 68  1  0
 60 70  1  0
 61 67  1  0
 61 63  1  0
 62 68  1  0
 63 62  1  0
 64 63  2  0
 65 66  1  0
 65 59  2  0
 66 61  2  0
 67 60  1  0
 68 58  1  0
 70 72  2  0
 71 70  1  0
 73 71  1  0
 74 83  2  0
 74 79  1  0
 75 71  1  0
 75 79  1  0
 76 75  1  0
 77 78  1  0
 77 76  1  0
 78 74  1  0
 79 80  2  0
 80 81  1  0
 82 81  2  0
 83 82  1  0
 84 58  1  0
 84 89  1  0
 84 85  1  0
 85 88  1  1
 85 86  1  0
 87 85  1  0
 89 92  1  0
 90 94  1  0
 90 89  1  0
 91 90  2  0
 94 93  1  0
 96 94  1  0
 96 97  1  0
 96 95  1  0
M  ISO  4  15 100  23 100  56 101  57 101
M  END
>  <TORSDO>  (56) 
F 25

>  <SCORE>  (56) 
-10.096

>  <name>  (56) 
55

>  <ligand_id>  (56) 
55

>  <original_smiles>  (56) 
[H]c1c([H])c([H])c2c(c1[H])C([H])([H])C([H])([H])C([H])([H])C2([H])N([H])C(=O)C1([H])N(C(=O)C([H])(N([H])C(=O)C([H])(N([H])C([H])([H])[H])C([H])([H])[H])C(C([H])([H])[H])(C([H])([H])[H])C([H])([H])[H])C([H])([H])c2c([H])c(OC([H])([H])C([H])([H])C([H])([H])C([H])([H])C3([H])N([H])C(C([H])([H])C([H])([H])C([H])([H])[H])=[N+]([H])C([H])([H])C3([H])C([H])([H])C([H])([H])C([H])([H])N([H])C(=O)N3C([H])([H])C([H])([H])C([H])([H])C([H])(n4nc(-c5c([H])c([H])c(Oc6c([H])c([H])c(F)c([H])c6F)c([H])c5[H])c(C(=O)N([H])[H])c4N([H])[H])C3([H])[H])c([H])c([H])c2C1([H])[H]

>  <smiles>  (56) 
[H]c1c([H])c([H])c2c(c1[H])C([H])([H])C([H])([H])C([H])([H])C2([H])N([H])C(=O)C1([H])N(C(=O)C([H])(N([H])C(=O)C([H])(N([H])C([H])([H])[H])C([H])([H])[H])C(C([H])([H])[H])(C([H])([H])[H])C([H])([H])[H])C([H])([H])c2c([H])c(OC([H])([H])C([H])([H])C([H])([H])C([H])([H])C3([H])N([H])C(C([H])([H])C([H])([H])C([H])([H])[H])=[N+]([H])C([H])([H])C3([H])C([H])([H])C([H])([H])C([H])([H])N([H])C(=O)N3C([H])([H])C([H])([H])C([H])([H])C([H])(n4nc(-c5c([H])c([H])c(Oc6c([H])c([H])c(F)c([H])c6F)c([H])c5[H])c(C(=O)N([H])[H])c4N([H])[H])C3([H])[H])c([H])c([H])c2C1([H])[H]

$$$$
56:0:0
     RDKit          3D

 94102  0  0  1  0  0  0  0  0999 V2000
  -32.3610  -22.0800   21.3010 C   0  0  0  0  0  0  0  0  0  0  0  0
  -32.3810  -20.8680   22.2100 C   0  0  0  0  0  2  0  0  0  0  0  0
  -30.9820  -20.3740   20.4130 C   0  0  0  0  0  2  0  0  0  0  0  0
  -31.2710  -21.8900   20.2720 C   0  0  0  0  0  3  0  0  0  0  0  0
  -31.2570  -20.0070   21.8140 N   0  0  0  0  0  0  0  0  0  0  0  0
  -33.0990  -23.0610   21.4390 O   0  0  0  0  0  0  0  0  0  0  0  0
  -30.1350  -22.7540   20.6760 N   0  0  0  0  0  4  0  0  0  0  0  0
  -30.1340  -22.7780   21.6840 H   0  0  0  0  0  0  0  0  0  0  0  0
  -29.2790  -22.3190   20.3800 H   0  0  0  0  0  0  0  0  0  0  0  0
  -30.1820  -24.1400   20.1330 C   0  0  0  0  0  2  0  0  0  0  0  0
  -29.8940  -25.2250   21.1960 C   0  0  0  0  0  2  0  0  0  0  0  0
  -28.4730  -25.8140   21.1670 C   0  0  0  0  0  2  0  0  0  0  0  0
  -28.3310  -26.7040   20.0620 O   0  0  0  0  0  0  0  0  0  0  0  0
  -24.5910  -31.8520   23.2510 C   0  0  0  0  0  0  0  0  0  0  0  0
  -27.1720  -27.4370   20.1080 C   0  0  0  0  0  0  0  0  0  0  0  0
  -23.3540  -30.4720   21.6100 C   0  0  0  0  0  3  0  0  0  0  0  0
  -24.7830  -28.9310   20.1600 C   0  0  0  0  0  0  0  0  0  0  0  0
  -25.8770  -30.8200   21.3840 C   0  0  0  0  0  2  0  0  0  0  0  0
  -25.9480  -29.4520   20.7400 C   0  0  0  0  0  0  0  0  0  0  0  0
  -27.1470  -28.7100   20.7140 C   0  0  0  0  0  3  0  0  0  0  0  0
  -25.9960  -26.9190   19.5300 C   0  0  0  0  0  3  0  0  0  0  0  0
  -24.7990  -27.6620   19.5560 C   0  0  0  0  0  3  0  0  0  0  0  0
  -23.5430  -29.7950   20.2250 C   0  0  0  0  0  2  0  0  0  0  0  0
  -24.6260  -31.0620   22.1410 N   0  0  0  0  0  0  0  0  0  0  0  0
  -23.5180  -32.1290   23.8060 O   0  0  0  0  0  0  0  0  0  0  0  0
  -22.7060  -29.4510   22.5710 C   0  0  0  0  0  0  0  0  0  0  0  0
  -21.3810  -29.2720   22.4470 N   0  0  0  0  0  0  0  0  0  0  0  0
  -23.3910  -28.8210   23.3820 O   0  0  0  0  0  0  0  0  0  0  0  0
  -20.8910  -29.8320   21.7640 H   0  0  0  0  0  0  0  0  0  0  0  0
  -18.0070  -28.0830   22.9400 C   0  0  0  0  0  0  0  0  0  0  0  0
  -20.5650  -28.3340   23.2160 C   0  0  0  0  0  3  0  0  0  0  0  0
  -20.6650  -26.9040   22.6360 C   0  0  0  0  0  2  0  0  0  0  0  0
  -19.5620  -26.5860   21.6200 C   0  0  0  0  0  2  0  0  0  0  0  0
  -18.1810  -26.7340   22.2640 C   0  0  0  0  0  2  0  0  0  0  0  0
  -19.1270  -28.8400   23.3740 C   0  0  0  0  0  0  0  0  0  0  0  0
  -18.9110  -30.1050   23.9640 C   0  0  0  0  0  3  0  0  0  0  0  0
  -17.6080  -30.6100   24.1290 C   0  0  0  0  0  3  0  0  0  0  0  0
  -16.5020  -29.8490   23.7140 C   0  0  0  0  0  3  0  0  0  0  0  0
  -16.7020  -28.5870   23.1250 C   0  0  0  0  0  3  0  0  0  0  0  0
  -25.8890  -32.4660   23.8620 C   0  0  0  0  0  3  0  0  0  0  0  0
  -25.6060  -33.8700   24.1840 N   0  0  0  0  0  0  0  0  0  0  0  0
  -25.9640  -34.9110   23.4220 C   0  0  0  0  0  0  0  0  0  0  0  0
  -26.6380  -34.7900   22.3960 O   0  0  0  0  0  0  0  0  0  0  0  0
  -25.0060  -34.0390   24.9790 H   0  0  0  0  0  0  0  0  0  0  0  0
  -24.2790  -36.7380   23.0370 C   0  0  0  0  0  1  0  0  0  0  0  0
  -25.4990  -36.3110   23.8690 C   0  0  0  0  0  3  0  0  0  0  0  0
  -27.6390  -37.1510   24.7280 C   0  0  0  0  0  1  0  0  0  0  0  0
  -26.5560  -37.3410   23.7690 N   0  0  0  0  0  0  0  0  0  0  0  0
  -26.1670  -38.2700   23.9070 H   0  0  0  0  0  0  0  0  0  0  0  0
  -26.4030  -31.6910   25.1370 C   0  0  1  0  0  0  0  0  0  0  0  0
  -25.3130  -31.4760   26.2140 C   0  0  0  0  0  1  0  0  0  0  0  0
  -26.9610  -30.3040   24.7430 C   0  0  0  0  0  1  0  0  0  0  0  0
  -27.5690  -32.4700   25.7890 C   0  0  0  0  0  1  0  0  0  0  0  0
  -31.6230  -18.5990   22.0350 C   0  0  0  0  0  2  0  0  0  0  0  0
  -30.5880  -17.5480   21.5720 C   0  0  0  0  0  2  0  0  0  0  0  0
  -31.0580  -16.1250   21.9590 C   0  0  0  0  0  2  0  0  0  0  0  0
  -30.5940  -14.3500   20.2630 C   0  0  0  0  0  0  0  0  0  0  0  0
  -30.1410  -12.3420   18.8980 C   0  0  0  0  0  2  0  0  0  0  0  0
  -29.1190  -12.6230   17.7820 C   0  0  0  0  0  2  0  0  0  0  0  0
  -27.6810  -12.4490   18.3050 C   0  0  0  0  0  2  0  0  0  0  0  0
  -27.4360  -13.2130   19.6330 C   0  0  0  0  0  3  0  0  0  0  0  0
  -28.5540  -12.9140   20.6540 C   0  0  0  0  0  2  0  0  0  0  0  0
  -29.8520  -13.2350   20.0310 N   0  0  0  0  0  0  0  0  0  0  0  0
  -31.5550  -14.6790   19.5590 O   0  0  0  0  0  0  0  0  0  0  0  0
  -30.2650  -15.0430   21.3640 N   0  0  0  0  0  0  0  0  0  0  0  0
  -29.4870  -14.6900   21.9030 H   0  0  0  0  0  0  0  0  0  0  0  0
  -25.0650  -13.7810   20.4630 C   0  0  0  0  0  0  0  0  0  0  0  0
  -24.0330  -12.9910   20.8930 C   0  0  0  0  0  0  0  0  0  0  0  0
  -24.5180  -11.6470   20.8430 C   0  0  0  0  0  0  0  0  0  0  0  0
  -26.1140  -12.9170   20.1820 N   0  0  0  0  0  0  0  0  0  0  0  0
  -25.7880  -11.6290   20.4640 N   0  0  0  0  0  0  0  0  0  0  0  0
  -23.8280  -10.3730   21.0810 C   0  0  0  0  0  0  0  0  0  0  0  0
  -24.3020   -9.4430   22.0330 C   0  0  0  0  0  3  0  0  0  0  0  0
  -23.6130   -8.2310   22.2560 C   0  0  0  0  0  3  0  0  0  0  0  0
  -22.4330   -7.9410   21.5280 C   0  0  0  0  0  0  0  0  0  0  0  0
  -21.9790   -8.8610   20.5660 C   0  0  0  0  0  3  0  0  0  0  0  0
  -22.6700  -10.0640   20.3420 C   0  0  0  0  0  3  0  0  0  0  0  0
  -21.7130   -6.7800   21.6580 O   0  0  0  0  0  0  0  0  0  0  0  0
  -21.6780   -6.0830   22.8390 C   0  0  0  0  0  0  0  0  0  0  0  0
  -21.2270   -6.6740   24.0400 C   0  0  0  0  0  3  0  0  0  0  0  0
  -21.1430   -5.9010   25.2150 C   0  0  0  0  0  3  0  0  0  0  0  0
  -21.4980   -4.5400   25.1910 C   0  0  0  0  0  0  0  0  0  0  0  0
  -21.9420   -3.9490   23.9950 C   0  0  0  0  0  3  0  0  0  0  0  0
  -22.0290   -4.7180   22.8210 C   0  0  0  0  0  0  0  0  0  0  0  0
  -22.4370   -4.1380   21.6670 F   0  0  0  0  0  0  0  0  0  0  0  0
  -21.4100   -3.7960   26.3180 F   0  0  0  0  0  0  0  0  0  0  0  0
  -22.6450  -13.4420   21.2410 C   0  0  0  0  0  0  0  0  0  0  0  0
  -21.9800  -12.7340   22.1470 N   0  0  0  0  0  0  0  0  0  0  0  0
  -22.1580  -14.4550   20.7420 O   0  0  0  0  0  0  0  0  0  0  0  0
  -22.3860  -11.9140   22.5720 H   0  0  0  0  0  0  0  0  0  0  0  0
  -21.0480  -13.0180   22.4200 H   0  0  0  0  0  0  0  0  0  0  0  0
  -25.1960  -15.1530   20.2680 N   0  0  0  0  0  0  0  0  0  0  0  0
  -24.4280  -15.8000   20.4130 H   0  0  0  0  0  0  0  0  0  0  0  0
  -26.0280  -15.6020   19.9050 H   0  0  0  0  0  0  0  0  0  0  0  0
  1  6  2  0
  1  2  1  0
  3  5  1  0
  4  3  1  0
  4  7  1  0
  4  1  1  0
  5 54  1  0
  5  2  1  0
  7  8  1  0
  9  7  1  0
 10  7  1  0
 10 11  1  0
 12 11  1  0
 13 15  1  0
 13 12  1  0
 14 25  2  0
 15 20  1  0
 16 24  1  0
 16 26  1  0
 17 23  1  0
 17 19  1  0
 18 24  1  0
 19 18  1  0
 20 19  2  0
 21 22  1  0
 21 15  2  0
 22 17  2  0
 23 16  1  0
 24 14  1  0
 26 28  2  0
 27 26  1  0
 29 27  1  0
 30 39  2  0
 30 35  1  0
 31 27  1  0
 31 35  1  0
 32 31  1  0
 33 34  1  0
 33 32  1  0
 34 30  1  0
 35 36  2  0
 36 37  1  0
 38 37  2  0
 39 38  1  0
 40 14  1  0
 40 41  1  0
 40 50  1  0
 41 44  1  0
 42 46  1  0
 42 41  1  0
 43 42  2  0
 46 45  1  0
 48 46  1  0
 48 49  1  0
 48 47  1  0
 50 53  1  1
 50 51  1  0
 52 50  1  0
 55 56  1  0
 55 54  1  0
 57 65  1  0
 58 63  1  0
 59 60  1  0
 59 58  1  0
 61 60  1  0
 61 70  1  0
 61 62  1  0
 63 57  1  0
 63 62  1  0
 64 57  2  0
 65 66  1  0
 65 56  1  0
 67 68  2  0
 68 87  1  0
 69 68  1  0
 69 72  1  0
 70 67  1  0
 70 71  1  0
 71 69  2  0
 72 73  1  0
 73 74  2  0
 75 78  1  0
 75 74  1  0
 76 75  2  0
 77 76  1  0
 77 72  2  0
 78 79  1  0
 79 80  1  0
 80 81  2  0
 82 81  1  0
 82 86  1  0
 83 82  2  0
 84 79  2  0
 84 83  1  0
 85 84  1  0
 87 88  1  0
 88 91  1  0
 88 90  1  0
 89 87  2  0
 92 93  1  0
 92 67  1  0
 94 92  1  0
M  ISO  4  12 101  13 101  57 100  65 100
M  END
>  <TORSDO>  (57) 
F 23

>  <SCORE>  (57) 
-11.305

>  <name>  (57) 
56

>  <ligand_id>  (57) 
56

>  <original_smiles>  (57) 
[H]c1c([H])c([H])c2c(c1[H])C([H])([H])C([H])([H])C([H])([H])C2([H])N([H])C(=O)C1([H])N(C(=O)C([H])(N([H])C(=O)C([H])(N([H])C([H])([H])[H])C([H])([H])[H])C(C([H])([H])[H])(C([H])([H])[H])C([H])([H])[H])C([H])([H])c2c([H])c(OC([H])([H])C([H])([H])C([H])([H])[N+]([H])([H])C3([H])C(=O)C([H])([H])N(C([H])([H])C([H])([H])C([H])([H])N([H])C(=O)N4C([H])([H])C([H])([H])C([H])([H])C([H])(n5nc(-c6c([H])c([H])c(Oc7c([H])c([H])c(F)c([H])c7F)c([H])c6[H])c(C(=O)N([H])[H])c5N([H])[H])C4([H])[H])C3([H])[H])c([H])c([H])c2C1([H])[H]

>  <smiles>  (57) 
[H]c1c([H])c([H])c2c(c1[H])C([H])([H])C([H])([H])C([H])([H])C2([H])N([H])C(=O)C1([H])N(C(=O)C([H])(N([H])C(=O)C([H])(N([H])C([H])([H])[H])C([H])([H])[H])C(C([H])([H])[H])(C([H])([H])[H])C([H])([H])[H])C([H])([H])c2c([H])c(OC([H])([H])C([H])([H])C([H])([H])[N+]([H])([H])C3([H])C(=O)C([H])([H])N(C([H])([H])C([H])([H])C([H])([H])N([H])C(=O)N4C([H])([H])C([H])([H])C([H])([H])C([H])(n5nc(-c6c([H])c([H])c(Oc7c([H])c([H])c(F)c([H])c7F)c([H])c6[H])c(C(=O)N([H])[H])c5N([H])[H])C4([H])[H])C3([H])[H])c([H])c([H])c2C1([H])[H]

$$$$
57:0:0
     RDKit          3D

 95103  0  0  1  0  0  0  0  0999 V2000
  -28.3360  -20.0340   20.3800 C   0  0  0  0  0  0  0  0  0  0  0  0
  -28.0270  -19.9330   18.8860 C   0  0  0  0  0  2  0  0  0  0  0  0
  -27.7140  -21.2850   18.2120 C   0  0  0  0  0  2  0  0  0  0  0  0
  -27.9870  -22.3900   20.4060 C   0  0  0  0  0  2  0  0  0  0  0  0
  -28.3710  -22.4910   18.9170 C   0  0  0  0  0  3  0  0  0  0  0  0
  -28.4050  -21.1350   21.0270 N   0  0  0  0  0  0  0  0  0  0  0  0
  -29.8460  -22.5160   18.7680 N   0  0  0  0  0  4  0  0  0  0  0  0
  -30.0930  -22.0010   17.9370 H   0  0  0  0  0  0  0  0  0  0  0  0
  -30.2360  -22.0160   19.5550 H   0  0  0  0  0  0  0  0  0  0  0  0
  -30.4940  -23.8500   18.6540 C   0  0  0  0  0  2  0  0  0  0  0  0
  -30.0960  -24.8630   19.7550 C   0  0  0  0  0  2  0  0  0  0  0  0
  -30.6560  -26.2820   19.5140 C   0  0  0  0  0  2  0  0  0  0  0  0
  -30.1900  -27.2280   20.4870 O   0  0  0  0  0  0  0  0  0  0  0  0
  -25.1960  -31.2800   23.5650 C   0  0  0  0  0  0  0  0  0  0  0  0
  -28.8960  -27.7090   20.4140 C   0  0  0  0  0  0  0  0  0  0  0  0
  -24.4390  -29.8930   21.6630 C   0  0  0  0  0  3  0  0  0  0  0  0
  -26.2810  -28.7900   20.2910 C   0  0  0  0  0  0  0  0  0  0  0  0
  -26.8720  -30.6730   21.8260 C   0  0  0  0  0  2  0  0  0  0  0  0
  -27.2600  -29.4160   21.0710 C   0  0  0  0  0  0  0  0  0  0  0  0
  -28.5640  -28.8740   21.1420 C   0  0  0  0  0  3  0  0  0  0  0  0
  -27.8880  -27.0910   19.6350 C   0  0  0  0  0  3  0  0  0  0  0  0
  -26.5900  -27.6230   19.5740 C   0  0  0  0  0  3  0  0  0  0  0  0
  -24.9090  -29.4220   20.2610 C   0  0  0  0  0  2  0  0  0  0  0  0
  -25.5110  -30.6260   22.4110 N   0  0  0  0  0  0  0  0  0  0  0  0
  -24.0320  -31.3120   23.9880 O   0  0  0  0  0  0  0  0  0  0  0  0
  -23.8770  -28.6770   22.4340 C   0  0  0  0  0  0  0  0  0  0  0  0
  -22.6670  -28.2300   22.0560 N   0  0  0  0  0  0  0  0  0  0  0  0
  -24.5340  -28.1410   23.3290 O   0  0  0  0  0  0  0  0  0  0  0  0
  -22.1850  -28.7240   21.3180 H   0  0  0  0  0  0  0  0  0  0  0  0
  -19.6550  -26.2460   21.7950 C   0  0  0  0  0  0  0  0  0  0  0  0
  -21.9620  -27.0760   22.6170 C   0  0  0  0  0  3  0  0  0  0  0  0
  -22.5210  -25.7500   22.0520 C   0  0  0  0  0  2  0  0  0  0  0  0
  -21.7640  -25.2540   20.8160 C   0  0  0  0  0  2  0  0  0  0  0  0
  -20.2870  -25.0220   21.1500 C   0  0  0  0  0  2  0  0  0  0  0  0
  -20.4430  -27.2170   22.4690 C   0  0  0  0  0  0  0  0  0  0  0  0
  -19.8110  -28.3540   23.0170 C   0  0  0  0  0  3  0  0  0  0  0  0
  -18.4200  -28.5280   22.9020 C   0  0  0  0  0  3  0  0  0  0  0  0
  -17.6420  -27.5580   22.2440 C   0  0  0  0  0  3  0  0  0  0  0  0
  -18.2580  -26.4180   21.6970 C   0  0  0  0  0  3  0  0  0  0  0  0
  -26.2770  -32.0420   24.3910 C   0  0  0  0  0  3  0  0  0  0  0  0
  -25.8100  -33.4220   24.5610 N   0  0  0  0  0  0  0  0  0  0  0  0
  -26.2150  -34.4610   23.8160 C   0  0  0  0  0  0  0  0  0  0  0  0
  -27.0860  -34.3610   22.9480 O   0  0  0  0  0  0  0  0  0  0  0  0
  -25.0470  -33.5650   25.2070 H   0  0  0  0  0  0  0  0  0  0  0  0
  -24.4540  -36.0730   23.0170 C   0  0  0  0  0  1  0  0  0  0  0  0
  -25.5450  -35.8260   24.0730 C   0  0  0  0  0  3  0  0  0  0  0  0
  -27.4160  -36.9280   25.2150 C   0  0  0  0  0  1  0  0  0  0  0  0
  -26.4990  -36.9550   24.0790 N   0  0  0  0  0  0  0  0  0  0  0  0
  -26.0060  -37.8450   24.0910 H   0  0  0  0  0  0  0  0  0  0  0  0
  -26.5750  -31.3720   25.7900 C   0  0  1  0  0  0  0  0  0  0  0  0
  -25.3080  -31.1060   26.6350 C   0  0  0  0  0  1  0  0  0  0  0  0
  -27.3120  -30.0240   25.6100 C   0  0  0  0  0  1  0  0  0  0  0  0
  -27.5160  -32.2830   26.6140 C   0  0  0  0  0  1  0  0  0  0  0  0
  -28.5740  -18.7170   21.1040 C   0  0  0  0  0  2  0  0  0  0  0  0
  -29.4300  -17.6660   20.3650 C   0  0  0  0  0  2  0  0  0  0  0  0
  -30.8430  -18.1310   19.9370 C   0  0  0  0  0  2  0  0  0  0  0  0
  -31.9620  -17.1280   20.2840 C   0  0  0  0  0  2  0  0  0  0  0  0
  -32.0620  -14.6780   19.8270 C   0  0  0  0  0  0  0  0  0  0  0  0
  -31.6200  -12.4030   18.9980 C   0  0  0  0  0  2  0  0  0  0  0  0
  -30.6550  -12.5060   17.8010 C   0  0  0  0  0  2  0  0  0  0  0  0
  -29.1900  -12.4990   18.2830 C   0  0  0  0  0  2  0  0  0  0  0  0
  -28.9370  -13.5140   19.4320 C   0  0  0  0  0  3  0  0  0  0  0  0
  -30.0170  -13.3860   20.5300 C   0  0  0  0  0  2  0  0  0  0  0  0
  -31.3370  -13.5340   19.8900 N   0  0  0  0  0  0  0  0  0  0  0  0
  -33.1420  -14.7680   19.2290 O   0  0  0  0  0  0  0  0  0  0  0  0
  -31.4740  -15.7500   20.3670 N   0  0  0  0  0  0  0  0  0  0  0  0
  -30.6040  -15.5900   20.8540 H   0  0  0  0  0  0  0  0  0  0  0  0
  -26.6840  -14.3470   20.3560 C   0  0  0  0  0  0  0  0  0  0  0  0
  -25.5570  -13.6840   20.7560 C   0  0  0  0  0  0  0  0  0  0  0  0
  -25.8390  -12.2940   20.5910 C   0  0  0  0  0  0  0  0  0  0  0  0
  -27.5930  -13.3690   19.9860 N   0  0  0  0  0  0  0  0  0  0  0  0
  -27.0900  -12.1240   20.1810 N   0  0  0  0  0  0  0  0  0  0  0  0
  -24.9760  -11.1160   20.7450 C   0  0  0  0  0  0  0  0  0  0  0  0
  -25.3080  -10.0710   21.6350 C   0  0  0  0  0  3  0  0  0  0  0  0
  -24.4520   -8.9570   21.7780 C   0  0  0  0  0  3  0  0  0  0  0  0
  -23.2510   -8.8810   21.0350 C   0  0  0  0  0  0  0  0  0  0  0  0
  -22.9390   -9.9140   20.1350 C   0  0  0  0  0  3  0  0  0  0  0  0
  -23.7920  -11.0200   19.9890 C   0  0  0  0  0  3  0  0  0  0  0  0
  -22.3740   -7.8260   21.0910 O   0  0  0  0  0  0  0  0  0  0  0  0
  -22.1550   -7.1350   22.2540 C   0  0  0  0  0  0  0  0  0  0  0  0
  -21.6690   -7.7700   23.4190 C   0  0  0  0  0  3  0  0  0  0  0  0
  -21.3910   -7.0080   24.5710 C   0  0  0  0  0  3  0  0  0  0  0  0
  -21.5890   -5.6140   24.5580 C   0  0  0  0  0  0  0  0  0  0  0  0
  -22.0670   -4.9790   23.3980 C   0  0  0  0  0  3  0  0  0  0  0  0
  -22.3440   -5.7380   22.2470 C   0  0  0  0  0  0  0  0  0  0  0  0
  -22.7870   -5.1210   21.1250 F   0  0  0  0  0  0  0  0  0  0  0  0
  -21.3110   -4.8800   25.6610 F   0  0  0  0  0  0  0  0  0  0  0  0
  -24.2550  -14.3020   21.1740 C   0  0  0  0  0  0  0  0  0  0  0  0
  -23.5290  -13.6470   22.0720 N   0  0  0  0  0  0  0  0  0  0  0  0
  -23.9010  -15.3970   20.7400 O   0  0  0  0  0  0  0  0  0  0  0  0
  -23.8360  -12.7570   22.4380 H   0  0  0  0  0  0  0  0  0  0  0  0
  -22.6580  -14.0390   22.4000 H   0  0  0  0  0  0  0  0  0  0  0  0
  -27.0070  -15.6950   20.2540 N   0  0  0  0  0  0  0  0  0  0  0  0
  -26.3130  -16.4160   20.4150 H   0  0  0  0  0  0  0  0  0  0  0  0
  -27.8460  -16.0430   19.8090 H   0  0  0  0  0  0  0  0  0  0  0  0
  1  6  2  0
  1 54  1  0
  2  1  1  0
  3  2  1  0
  3  5  1  0
  4  6  1  0
  5  7  1  0
  5  4  1  0
  7  9  1  0
  8  7  1  0
 10  7  1  0
 10 11  1  0
 12 11  1  0
 12 13  1  0
 14 25  2  0
 15 13  1  0
 15 20  1  0
 16 24  1  0
 16 26  1  0
 17 19  1  0
 18 24  1  0
 19 20  2  0
 19 18  1  0
 21 15  2  0
 22 21  1  0
 22 17  2  0
 23 17  1  0
 23 16  1  0
 24 14  1  0
 26 28  2  0
 27 26  1  0
 29 27  1  0
 30 35  1  0
 31 27  1  0
 32 31  1  0
 33 34  1  0
 33 32  1  0
 34 30  1  0
 35 31  1  0
 35 36  2  0
 37 36  1  0
 38 37  2  0
 39 30  2  0
 39 38  1  0
 40 14  1  0
 40 41  1  0
 40 50  1  0
 41 44  1  0
 42 46  1  0
 42 41  1  0
 43 42  2  0
 46 45  1  0
 46 48  1  0
 48 49  1  0
 48 47  1  0
 50 53  1  1
 50 51  1  0
 52 50  1  0
 55 54  1  0
 56 57  1  0
 56 55  1  0
 57 66  1  0
 58 64  1  0
 58 66  1  0
 59 64  1  0
 60 61  1  0
 60 59  1  0
 62 61  1  0
 62 71  1  0
 62 63  1  0
 64 63  1  0
 65 58  2  0
 66 67  1  0
 68 69  2  0
 69 88  1  0
 70 73  1  0
 70 69  1  0
 71 72  1  0
 71 68  1  0
 72 70  2  0
 73 74  1  0
 74 75  2  0
 76 79  1  0
 76 75  1  0
 77 76  2  0
 78 77  1  0
 78 73  2  0
 79 80  1  0
 80 81  1  0
 81 82  2  0
 83 82  1  0
 83 87  1  0
 84 83  2  0
 85 80  2  0
 85 84  1  0
 86 85  1  0
 88 89  1  0
 89 92  1  0
 89 91  1  0
 90 88  2  0
 93 68  1  0
 93 94  1  0
 95 93  1  0
M  ISO  4  12 101  13 101  58 100  66 100
M  END
>  <TORSDO>  (58) 
F 24

>  <SCORE>  (58) 
-8.943

>  <name>  (58) 
57

>  <ligand_id>  (58) 
57

>  <original_smiles>  (58) 
[H]c1c([H])c([H])c2c(c1[H])C([H])([H])C([H])([H])C([H])([H])C2([H])N([H])C(=O)C1([H])N(C(=O)C([H])(N([H])C(=O)C([H])(N([H])C([H])([H])[H])C([H])([H])[H])C(C([H])([H])[H])(C([H])([H])[H])C([H])([H])[H])C([H])([H])c2c([H])c(OC([H])([H])C([H])([H])C([H])([H])[N+]([H])([H])C3([H])C([H])([H])N=C(C([H])([H])C([H])([H])C([H])([H])C([H])([H])N([H])C(=O)N4C([H])([H])C([H])([H])C([H])([H])C([H])(n5nc(-c6c([H])c([H])c(Oc7c([H])c([H])c(F)c([H])c7F)c([H])c6[H])c(C(=O)N([H])[H])c5N([H])[H])C4([H])[H])C([H])([H])C3([H])[H])c([H])c([H])c2C1([H])[H]

>  <smiles>  (58) 
[H]c1c([H])c([H])c2c(c1[H])C([H])([H])C([H])([H])C([H])([H])C2([H])N([H])C(=O)C1([H])N(C(=O)C([H])(N([H])C(=O)C([H])(N([H])C([H])([H])[H])C([H])([H])[H])C(C([H])([H])[H])(C([H])([H])[H])C([H])([H])[H])C([H])([H])c2c([H])c(OC([H])([H])C([H])([H])C([H])([H])[N+]([H])([H])C3([H])C([H])([H])N=C(C([H])([H])C([H])([H])C([H])([H])C([H])([H])N([H])C(=O)N4C([H])([H])C([H])([H])C([H])([H])C([H])(n5nc(-c6c([H])c([H])c(Oc7c([H])c([H])c(F)c([H])c7F)c([H])c6[H])c(C(=O)N([H])[H])c5N([H])[H])C4([H])[H])C([H])([H])C3([H])[H])c([H])c([H])c2C1([H])[H]

$$$$
58:0:0
     RDKit          3D

 99109  0  0  1  0  0  0  0  0999 V2000
  -28.1330  -22.7390   21.7570 C   0  0  0  0  0  2  0  0  0  0  0  0
  -30.4510  -22.5240   22.7290 C   0  0  0  0  0  2  0  0  0  0  0  0
  -28.4770  -24.1100   21.1180 C   0  0  0  0  0  2  0  0  0  0  0  0
  -30.4150  -24.0730   22.6290 C   0  0  0  0  0  2  0  0  0  0  0  0
  -29.3590  -21.8010   21.8790 C   0  0  0  0  0  3  0  0  0  0  0  0
  -29.9160  -24.4570   21.2900 N   0  0  2  0  0  4  0  0  0  0  0  0
  -30.3940  -23.7850   20.7090 H   0  0  0  0  0  0  0  0  0  0  0  0
  -29.8780  -21.3760   20.4700 C   0  0  0  0  0  2  0  0  0  0  0  0
  -32.3270  -19.4840   21.0940 C   0  0  0  0  0  2  0  0  0  0  0  0
  -32.9380  -19.4220   19.6740 C   0  0  0  0  0  2  0  0  0  0  0  0
  -30.6560  -19.7420   18.7030 C   0  0  0  0  0  2  0  0  0  0  0  0
  -30.8610  -18.9890   21.1280 C   0  0  0  0  0  3  0  0  0  0  0  0
  -30.0440  -19.8590   20.1270 C   0  0  0  0  0  3  0  0  0  0  0  0
  -32.0930  -20.1210   18.6770 N   0  0  0  0  0  4  0  0  0  0  0  0
  -32.4660  -19.9350   17.7590 H   0  0  0  0  0  0  0  0  0  0  0  0
  -32.1770  -21.1150   18.8180 H   0  0  0  0  0  0  0  0  0  0  0  0
  -30.6600  -14.4950   20.3560 C   0  0  0  0  0  0  0  0  0  0  0  0
  -30.2510  -12.3770   19.1450 C   0  0  0  0  0  2  0  0  0  0  0  0
  -29.2770  -12.5910   17.9700 C   0  0  0  0  0  2  0  0  0  0  0  0
  -27.8200  -12.4340   18.4430 C   0  0  0  0  0  2  0  0  0  0  0  0
  -27.5200  -13.2670   19.7170 C   0  0  0  0  0  3  0  0  0  0  0  0
  -28.6090  -13.0720   20.7980 C   0  0  0  0  0  2  0  0  0  0  0  0
  -29.9230  -13.3560   20.1980 N   0  0  0  0  0  0  0  0  0  0  0  0
  -31.7330  -14.6620   19.7710 O   0  0  0  0  0  0  0  0  0  0  0  0
  -29.4890  -16.6830   20.6140 C   0  0  0  0  0  2  0  0  0  0  0  0
  -31.0310  -16.4010   21.9300 C   0  0  0  0  0  2  0  0  0  0  0  0
  -30.7820  -17.4580   20.8490 C   0  0  0  0  0  3  0  0  0  0  0  0
  -30.1600  -15.4760   21.1600 N   0  0  0  0  0  0  0  0  0  0  0  0
  -25.1360  -13.8510   20.4820 C   0  0  0  0  0  0  0  0  0  0  0  0
  -24.0820  -13.0700   20.8730 C   0  0  0  0  0  0  0  0  0  0  0  0
  -24.5540  -11.7220   20.8300 C   0  0  0  0  0  0  0  0  0  0  0  0
  -26.1830  -12.9800   20.2320 N   0  0  0  0  0  0  0  0  0  0  0  0
  -25.8370  -11.6920   20.4980 N   0  0  0  0  0  0  0  0  0  0  0  0
  -23.8400  -10.4530   21.0320 C   0  0  0  0  0  0  0  0  0  0  0  0
  -24.3050   -9.4780   21.9400 C   0  0  0  0  0  3  0  0  0  0  0  0
  -23.5890   -8.2770   22.1300 C   0  0  0  0  0  3  0  0  0  0  0  0
  -22.3940   -8.0390   21.4110 C   0  0  0  0  0  0  0  0  0  0  0  0
  -21.9490   -9.0010   20.4900 C   0  0  0  0  0  3  0  0  0  0  0  0
  -22.6640  -10.1960   20.2990 C   0  0  0  0  0  3  0  0  0  0  0  0
  -21.6440   -6.8920   21.5160 O   0  0  0  0  0  0  0  0  0  0  0  0
  -21.6490   -6.1290   22.6570 C   0  0  0  0  0  0  0  0  0  0  0  0
  -21.2850   -6.6630   23.9130 C   0  0  0  0  0  3  0  0  0  0  0  0
  -21.2370   -5.8260   25.0460 C   0  0  0  0  0  3  0  0  0  0  0  0
  -21.5430   -4.4570   24.9260 C   0  0  0  0  0  0  0  0  0  0  0  0
  -21.9000   -3.9230   23.6750 C   0  0  0  0  0  3  0  0  0  0  0  0
  -21.9480   -4.7580   22.5440 C   0  0  0  0  0  0  0  0  0  0  0  0
  -22.2730   -4.2320   21.3380 F   0  0  0  0  0  0  0  0  0  0  0  0
  -21.4890   -3.6520   26.0120 F   0  0  0  0  0  0  0  0  0  0  0  0
  -22.6900  -13.5330   21.1780 C   0  0  0  0  0  0  0  0  0  0  0  0
  -21.9880  -12.8260   22.0610 N   0  0  0  0  0  0  0  0  0  0  0  0
  -22.2320  -14.5550   20.6710 O   0  0  0  0  0  0  0  0  0  0  0  0
  -22.3670  -11.9960   22.4920 H   0  0  0  0  0  0  0  0  0  0  0  0
  -21.0550  -13.1220   22.3090 H   0  0  0  0  0  0  0  0  0  0  0  0
  -25.2880  -15.2240   20.3050 N   0  0  0  0  0  0  0  0  0  0  0  0
  -24.5270  -15.8810   20.4370 H   0  0  0  0  0  0  0  0  0  0  0  0
  -26.1410  -15.6680   19.9840 H   0  0  0  0  0  0  0  0  0  0  0  0
  -30.4010  -25.7580   20.7220 C   0  0  0  0  0  2  0  0  0  0  0  0
  -29.4340  -26.9630   20.7850 C   0  0  0  0  0  2  0  0  0  0  0  0
  -28.2890  -26.7070   19.9710 O   0  0  0  0  0  0  0  0  0  0  0  0
  -24.5430  -31.9150   23.2220 C   0  0  0  0  0  0  0  0  0  0  0  0
  -27.1630  -27.4920   20.0880 C   0  0  0  0  0  0  0  0  0  0  0  0
  -23.3120  -30.5150   21.5920 C   0  0  0  0  0  3  0  0  0  0  0  0
  -24.7510  -28.9650   20.1600 C   0  0  0  0  0  0  0  0  0  0  0  0
  -25.8330  -30.8700   21.3670 C   0  0  0  0  0  2  0  0  0  0  0  0
  -25.9130  -29.4950   20.7380 C   0  0  0  0  0  0  0  0  0  0  0  0
  -27.1200  -28.7620   20.7100 C   0  0  0  0  0  3  0  0  0  0  0  0
  -25.9860  -26.9810   19.5010 C   0  0  0  0  0  3  0  0  0  0  0  0
  -24.7780  -27.7030   19.5470 C   0  0  0  0  0  3  0  0  0  0  0  0
  -23.5020  -29.8170   20.2180 C   0  0  0  0  0  2  0  0  0  0  0  0
  -24.5810  -31.1170   22.1170 N   0  0  0  0  0  0  0  0  0  0  0  0
  -23.4700  -32.1940   23.7730 O   0  0  0  0  0  0  0  0  0  0  0  0
  -22.6600  -29.5050   22.5630 C   0  0  0  0  0  0  0  0  0  0  0  0
  -21.3350  -29.3300   22.4420 N   0  0  0  0  0  0  0  0  0  0  0  0
  -23.3460  -28.8790   23.3770 O   0  0  0  0  0  0  0  0  0  0  0  0
  -20.8450  -29.8850   21.7530 H   0  0  0  0  0  0  0  0  0  0  0  0
  -17.9600  -28.1450   22.9450 C   0  0  0  0  0  0  0  0  0  0  0  0
  -20.5160  -28.4010   23.2180 C   0  0  0  0  0  3  0  0  0  0  0  0
  -20.6190  -26.9670   22.6500 C   0  0  0  0  0  2  0  0  0  0  0  0
  -19.5170  -26.6390   21.6360 C   0  0  0  0  0  2  0  0  0  0  0  0
  -18.1360  -26.7910   22.2790 C   0  0  0  0  0  2  0  0  0  0  0  0
  -19.0790  -28.9100   23.3700 C   0  0  0  0  0  0  0  0  0  0  0  0
  -18.8650  -30.1760   23.9520 C   0  0  0  0  0  3  0  0  0  0  0  0
  -17.5620  -30.6820   24.1170 C   0  0  0  0  0  3  0  0  0  0  0  0
  -16.4550  -29.9150   23.7110 C   0  0  0  0  0  3  0  0  0  0  0  0
  -16.6550  -28.6500   23.1320 C   0  0  0  0  0  3  0  0  0  0  0  0
  -25.8410  -32.5360   23.8290 C   0  0  0  0  0  3  0  0  0  0  0  0
  -26.3730  -31.7510   25.0900 C   0  0  1  0  0  0  0  0  0  0  0  0
  -25.2930  -31.5110   26.1690 C   0  0  0  0  0  1  0  0  0  0  0  0
  -26.9420  -30.3740   24.6780 C   0  0  0  0  0  1  0  0  0  0  0  0
  -27.5430  -32.5270   25.7390 C   0  0  0  0  0  1  0  0  0  0  0  0
  -25.5460  -33.9350   24.1680 N   0  0  0  0  0  0  0  0  0  0  0  0
  -25.8850  -34.9890   23.4130 C   0  0  0  0  0  0  0  0  0  0  0  0
  -26.5490  -34.8850   22.3780 O   0  0  0  0  0  0  0  0  0  0  0  0
  -24.9480  -34.0900   24.9670 H   0  0  0  0  0  0  0  0  0  0  0  0
  -24.1690  -36.7990   23.0720 C   0  0  0  0  0  1  0  0  0  0  0  0
  -25.4080  -36.3790   23.8780 C   0  0  0  0  0  3  0  0  0  0  0  0
  -27.5570  -37.2360   24.7020 C   0  0  0  0  0  1  0  0  0  0  0  0
  -26.4500  -37.4250   23.7680 N   0  0  0  0  0  0  0  0  0  0  0  0
  -26.0520  -38.3450   23.9360 H   0  0  0  0  0  0  0  0  0  0  0  0
  1  5  1  0
  3  6  1  0
  3  1  1  0
  4  2  1  0
  5  8  1  0
  5  2  1  0
  6  4  1  0
  6  7  1  6
 10  9  1  0
 11 13  1  0
 12  9  1  0
 13  8  1  0
 13 12  1  0
 14 11  1  0
 14 16  1  0
 14 10  1  0
 15 14  1  0
 17 28  1  0
 18 23  1  0
 19 20  1  0
 19 18  1  0
 21 20  1  0
 21 32  1  0
 21 22  1  0
 23 17  1  0
 23 22  1  0
 24 17  2  0
 25 28  1  0
 27 25  1  0
 27 12  1  0
 27 26  1  0
 28 26  1  0
 29 30  2  0
 30 49  1  0
 31 30  1  0
 31 34  1  0
 32 29  1  0
 32 33  1  0
 33 31  2  0
 34 35  1  0
 35 36  2  0
 37 40  1  0
 37 36  1  0
 38 37  2  0
 39 38  1  0
 39 34  2  0
 40 41  1  0
 41 42  1  0
 42 43  2  0
 44 43  1  0
 44 48  1  0
 45 44  2  0
 46 41  2  0
 46 45  1  0
 47 46  1  0
 49 50  1  0
 50 53  1  0
 50 52  1  0
 51 49  2  0
 54 55  1  0
 54 29  1  0
 56 54  1  0
 57 58  1  0
 57  6  1  0
 59 61  1  0
 59 58  1  0
 60 71  2  0
 61 66  1  0
 62 70  1  0
 62 72  1  0
 63 69  1  0
 63 65  1  0
 64 70  1  0
 65 64  1  0
 66 65  2  0
 67 68  1  0
 67 61  2  0
 68 63  2  0
 69 62  1  0
 70 60  1  0
 72 74  2  0
 73 72  1  0
 75 73  1  0
 76 85  2  0
 76 81  1  0
 77 73  1  0
 77 81  1  0
 78 77  1  0
 79 80  1  0
 79 78  1  0
 80 76  1  0
 81 82  2  0
 82 83  1  0
 84 83  2  0
 85 84  1  0
 86 60  1  0
 86 91  1  0
 86 87  1  0
 87 90  1  1
 87 88  1  0
 89 87  1  0
 91 94  1  0
 92 96  1  0
 92 91  1  0
 93 92  2  0
 96 95  1  0
 98 96  1  0
 98 99  1  0
 98 97  1  0
M  ISO  4  17 100  28 100  58 101  59 101
M  END
>  <TORSDO>  (59) 
F 20

>  <SCORE>  (59) 
-14.152

>  <name>  (59) 
58

>  <ligand_id>  (59) 
58

>  <original_smiles>  (59) 
[H]c1c([H])c([H])c2c(c1[H])C([H])([H])C([H])([H])C([H])([H])C2([H])N([H])C(=O)C1([H])N(C(=O)C([H])(N([H])C(=O)C([H])(N([H])C([H])([H])[H])C([H])([H])[H])C(C([H])([H])[H])(C([H])([H])[H])C([H])([H])[H])C([H])([H])c2c([H])c(OC([H])([H])C([H])([H])[N+]3([H])C([H])([H])C([H])([H])C([H])(C([H])([H])C4([H])C([H])(C5([H])C([H])([H])N(C(=O)N6C([H])([H])C([H])([H])C([H])([H])C([H])(n7nc(-c8c([H])c([H])c(Oc9c([H])c([H])c(F)c([H])c9F)c([H])c8[H])c(C(=O)N([H])[H])c7N([H])[H])C6([H])[H])C5([H])[H])C([H])([H])C([H])([H])[N+]([H])([H])C4([H])[H])C([H])([H])C3([H])[H])c([H])c([H])c2C1([H])[H]

>  <smiles>  (59) 
[H]c1c([H])c([H])c2c(c1[H])C([H])([H])C([H])([H])C([H])([H])C2([H])N([H])C(=O)C1([H])N(C(=O)C([H])(N([H])C(=O)C([H])(N([H])C([H])([H])[H])C([H])([H])[H])C(C([H])([H])[H])(C([H])([H])[H])C([H])([H])[H])C([H])([H])c2c([H])c(OC([H])([H])C([H])([H])[N+]3([H])C([H])([H])C([H])([H])C([H])(C([H])([H])C4([H])C([H])(C5([H])C([H])([H])N(C(=O)N6C([H])([H])C([H])([H])C([H])([H])C([H])(n7nc(-c8c([H])c([H])c(Oc9c([H])c([H])c(F)c([H])c9F)c([H])c8[H])c(C(=O)N([H])[H])c7N([H])[H])C6([H])[H])C5([H])[H])C([H])([H])C([H])([H])[N+]([H])([H])C4([H])[H])C([H])([H])C3([H])[H])c([H])c([H])c2C1([H])[H]

$$$$
59:0:0
     RDKit          3D

 98106  0  0  1  0  0  0  0  0999 V2000
  -28.3390  -22.4150   18.3300 C   0  0  0  0  0  0  0  0  0  0  0  0
  -29.5660  -22.2200   18.8360 N   0  0  0  0  0  4  0  0  0  0  0  0
  -27.8580  -23.6650   18.1560 N   0  0  0  0  0  0  0  0  0  0  0  0
  -29.9830  -21.3020   18.8560 H   0  0  0  0  0  0  0  0  0  0  0  0
  -30.1840  -22.9790   19.0700 H   0  0  0  0  0  0  0  0  0  0  0  0
  -26.9480  -23.7490   17.7240 H   0  0  0  0  0  0  0  0  0  0  0  0
  -25.1480  -21.8360   17.9910 C   0  0  0  0  0  2  0  0  0  0  0  0
  -26.3180  -21.5620   17.0500 C   0  0  0  0  0  2  0  0  0  0  0  0
  -25.3970  -20.8450   19.1270 C   0  0  0  0  0  2  0  0  0  0  0  0
  -27.4890  -21.2050   17.9880 C   0  0  0  0  0  3  0  0  0  0  0  0
  -26.8700  -20.6690   19.2330 N   0  0  2  0  0  4  0  0  0  0  0  0
  -27.1800  -21.2770   19.9790 H   0  0  0  0  0  0  0  0  0  0  0  0
  -27.2470  -19.2800   19.6150 C   0  0  0  0  0  2  0  0  0  0  0  0
  -28.7400  -19.1100   19.9710 C   0  0  0  0  0  2  0  0  0  0  0  0
  -29.0560  -17.7620   20.6440 C   0  0  0  0  0  2  0  0  0  0  0  0
  -30.5640  -17.5860   20.9020 C   0  0  0  0  0  2  0  0  0  0  0  0
  -30.9180  -16.4160   21.8390 C   0  0  0  0  0  2  0  0  0  0  0  0
  -30.8370  -14.3120   20.4940 C   0  0  0  0  0  0  0  0  0  0  0  0
  -30.4630  -12.2190   19.2420 C   0  0  0  0  0  2  0  0  0  0  0  0
  -29.5260  -12.4540   18.0420 C   0  0  0  0  0  2  0  0  0  0  0  0
  -28.0480  -12.3460   18.4690 C   0  0  0  0  0  2  0  0  0  0  0  0
  -27.7290  -13.1890   19.7310 C   0  0  0  0  0  3  0  0  0  0  0  0
  -28.7650  -12.9150   20.8400 C   0  0  0  0  0  2  0  0  0  0  0  0
  -30.1110  -13.1840   20.2940 N   0  0  0  0  0  0  0  0  0  0  0  0
  -31.8830  -14.5660   19.8880 O   0  0  0  0  0  0  0  0  0  0  0  0
  -30.3360  -15.1470   21.4110 N   0  0  0  0  0  0  0  0  0  0  0  0
  -29.4850  -14.8530   21.8670 H   0  0  0  0  0  0  0  0  0  0  0  0
  -25.3350  -13.8590   20.4060 C   0  0  0  0  0  0  0  0  0  0  0  0
  -24.2470  -13.1140   20.7780 C   0  0  0  0  0  0  0  0  0  0  0  0
  -24.6820  -11.7530   20.7690 C   0  0  0  0  0  0  0  0  0  0  0  0
  -26.3640  -12.9540   20.1980 N   0  0  0  0  0  0  0  0  0  0  0  0
  -25.9720  -11.6820   20.4710 N   0  0  0  0  0  0  0  0  0  0  0  0
  -23.9300  -10.5080   20.9720 C   0  0  0  0  0  0  0  0  0  0  0  0
  -24.3400   -9.5430   21.9180 C   0  0  0  0  0  3  0  0  0  0  0  0
  -23.5910   -8.3610   22.1070 C   0  0  0  0  0  3  0  0  0  0  0  0
  -22.4170   -8.1380   21.3500 C   0  0  0  0  0  0  0  0  0  0  0  0
  -22.0250   -9.0910   20.3940 C   0  0  0  0  0  3  0  0  0  0  0  0
  -22.7740  -10.2630   20.2030 C   0  0  0  0  0  3  0  0  0  0  0  0
  -21.6410   -7.0090   21.4480 O   0  0  0  0  0  0  0  0  0  0  0  0
  -21.5770   -6.2760   22.6060 C   0  0  0  0  0  0  0  0  0  0  0  0
  -21.1720   -6.8510   23.8300 C   0  0  0  0  0  3  0  0  0  0  0  0
  -21.0540   -6.0470   24.9820 C   0  0  0  0  0  3  0  0  0  0  0  0
  -21.3310   -4.6680   24.9090 C   0  0  0  0  0  0  0  0  0  0  0  0
  -21.7300   -4.0940   23.6900 C   0  0  0  0  0  3  0  0  0  0  0  0
  -21.8500   -4.8940   22.5410 C   0  0  0  0  0  0  0  0  0  0  0  0
  -22.2140   -4.3320   21.3640 F   0  0  0  0  0  0  0  0  0  0  0  0
  -21.2110   -3.8940   26.0130 F   0  0  0  0  0  0  0  0  0  0  0  0
  -22.8580  -13.6230   21.0340 C   0  0  0  0  0  0  0  0  0  0  0  0
  -22.1110  -12.9530   21.9050 N   0  0  0  0  0  0  0  0  0  0  0  0
  -22.4430  -14.6490   20.4970 O   0  0  0  0  0  0  0  0  0  0  0  0
  -22.4580  -12.1220   22.3620 H   0  0  0  0  0  0  0  0  0  0  0  0
  -21.1780  -13.2760   22.1180 H   0  0  0  0  0  0  0  0  0  0  0  0
  -25.5300  -15.2240   20.2100 N   0  0  0  0  0  0  0  0  0  0  0  0
  -24.7780  -15.8970   20.3060 H   0  0  0  0  0  0  0  0  0  0  0  0
  -26.3990  -15.6340   19.8950 H   0  0  0  0  0  0  0  0  0  0  0  0
  -28.5180  -24.9470   18.4680 C   0  0  0  0  0  2  0  0  0  0  0  0
  -28.3550  -25.3300   19.9530 C   0  0  0  0  0  2  0  0  0  0  0  0
  -28.3730  -26.7450   20.1530 O   0  0  0  0  0  0  0  0  0  0  0  0
  -24.5650  -31.8880   23.2230 C   0  0  0  0  0  0  0  0  0  0  0  0
  -27.1770  -27.4290   20.1510 C   0  0  0  0  0  0  0  0  0  0  0  0
  -23.3430  -30.4820   21.5960 C   0  0  0  0  0  3  0  0  0  0  0  0
  -24.7810  -28.9310   20.1750 C   0  0  0  0  0  0  0  0  0  0  0  0
  -25.8670  -30.8340   21.3800 C   0  0  0  0  0  2  0  0  0  0  0  0
  -25.9430  -29.4590   20.7490 C   0  0  0  0  0  0  0  0  0  0  0  0
  -27.1440  -28.7170   20.7300 C   0  0  0  0  0  3  0  0  0  0  0  0
  -25.9880  -26.9060   19.5870 C   0  0  0  0  0  3  0  0  0  0  0  0
  -24.7970  -27.6530   19.5940 C   0  0  0  0  0  3  0  0  0  0  0  0
  -23.5410  -29.7940   20.2200 C   0  0  0  0  0  2  0  0  0  0  0  0
  -24.6110  -31.0810   22.1250 N   0  0  0  0  0  0  0  0  0  0  0  0
  -23.4880  -32.1680   23.7660 O   0  0  0  0  0  0  0  0  0  0  0  0
  -22.6920  -29.4690   22.5640 C   0  0  0  0  0  0  0  0  0  0  0  0
  -21.3660  -29.2960   22.4450 N   0  0  0  0  0  0  0  0  0  0  0  0
  -23.3770  -28.8410   23.3760 O   0  0  0  0  0  0  0  0  0  0  0  0
  -20.8770  -29.8560   21.7610 H   0  0  0  0  0  0  0  0  0  0  0  0
  -17.9840  -28.1390   22.9670 C   0  0  0  0  0  0  0  0  0  0  0  0
  -20.5460  -28.3690   23.2230 C   0  0  0  0  0  3  0  0  0  0  0  0
  -20.6300  -26.9360   22.6490 C   0  0  0  0  0  2  0  0  0  0  0  0
  -19.5180  -26.6240   21.6430 C   0  0  0  0  0  2  0  0  0  0  0  0
  -18.1410  -26.7850   22.2950 C   0  0  0  0  0  2  0  0  0  0  0  0
  -19.1140  -28.8900   23.3880 C   0  0  0  0  0  0  0  0  0  0  0  0
  -18.9130  -30.1570   23.9750 C   0  0  0  0  0  3  0  0  0  0  0  0
  -17.6160  -30.6750   24.1470 C   0  0  0  0  0  3  0  0  0  0  0  0
  -16.5010  -29.9210   23.7440 C   0  0  0  0  0  3  0  0  0  0  0  0
  -16.6850  -28.6550   23.1590 C   0  0  0  0  0  3  0  0  0  0  0  0
  -25.8580  -32.5150   23.8340 C   0  0  0  0  0  3  0  0  0  0  0  0
  -25.5550  -33.9110   24.1690 N   0  0  0  0  0  0  0  0  0  0  0  0
  -25.8890  -34.9640   23.4100 C   0  0  0  0  0  0  0  0  0  0  0  0
  -26.5570  -34.8610   22.3770 O   0  0  0  0  0  0  0  0  0  0  0  0
  -24.9650  -34.0670   24.9730 H   0  0  0  0  0  0  0  0  0  0  0  0
  -24.1690  -36.7630   23.0590 C   0  0  0  0  0  1  0  0  0  0  0  0
  -25.4060  -36.3510   23.8720 C   0  0  0  0  0  3  0  0  0  0  0  0
  -27.5420  -37.2250   24.7110 C   0  0  0  0  0  1  0  0  0  0  0  0
  -26.4420  -37.4020   23.7670 N   0  0  0  0  0  0  0  0  0  0  0  0
  -26.0380  -38.3220   23.9210 H   0  0  0  0  0  0  0  0  0  0  0  0
  -26.3880  -31.7360   25.1010 C   0  0  1  0  0  0  0  0  0  0  0  0
  -25.3060  -31.4950   26.1790 C   0  0  0  0  0  1  0  0  0  0  0  0
  -26.9650  -30.3600   24.6930 C   0  0  0  0  0  1  0  0  0  0  0  0
  -27.5470  -32.5270   25.7540 C   0  0  0  0  0  1  0  0  0  0  0  0
  1  2  2  0
  2  4  1  0
  2  5  1  0
  3  1  1  0
  3 56  1  0
  6  3  1  0
  7  9  1  0
  8 10  1  0
  8  7  1  0
  9 11  1  0
 10  1  1  0
 10 11  1  0
 11 13  1  0
 11 12  1  1
 13 14  1  0
 14 15  1  0
 15 16  1  0
 16 17  1  0
 18 26  1  0
 19 24  1  0
 20 21  1  0
 20 19  1  0
 22 21  1  0
 22 31  1  0
 22 23  1  0
 24 18  1  0
 24 23  1  0
 25 18  2  0
 26 17  1  0
 26 27  1  0
 28 29  2  0
 29 48  1  0
 30 29  1  0
 30 33  1  0
 31 28  1  0
 31 32  1  0
 32 30  2  0
 33 34  1  0
 34 35  2  0
 36 39  1  0
 36 35  1  0
 37 36  2  0
 38 37  1  0
 38 33  2  0
 39 40  1  0
 40 41  1  0
 41 42  2  0
 43 42  1  0
 43 47  1  0
 44 43  2  0
 45 40  2  0
 45 44  1  0
 46 45  1  0
 48 49  1  0
 49 52  1  0
 49 51  1  0
 50 48  2  0
 53 54  1  0
 53 28  1  0
 55 53  1  0
 56 57  1  0
 57 58  1  0
 59 70  2  0
 60 58  1  0
 60 65  1  0
 61 69  1  0
 61 71  1  0
 62 68  1  0
 62 64  1  0
 63 69  1  0
 64 63  1  0
 65 64  2  0
 66 67  1  0
 66 60  2  0
 67 62  2  0
 68 61  1  0
 69 59  1  0
 71 73  2  0
 72 71  1  0
 74 72  1  0
 75 84  2  0
 75 80  1  0
 76 72  1  0
 76 80  1  0
 77 76  1  0
 78 79  1  0
 78 77  1  0
 79 75  1  0
 80 81  2  0
 81 82  1  0
 83 82  2  0
 84 83  1  0
 85 59  1  0
 85 86  1  0
 85 95  1  0
 86 89  1  0
 87 91  1  0
 87 86  1  0
 88 87  2  0
 91 90  1  0
 93 91  1  0
 93 94  1  0
 93 92  1  0
 95 98  1  1
 95 96  1  0
 97 95  1  0
M  ISO  4  18 100  26 100  57 101  58 101
M  END
>  <TORSDO>  (60) 
F 24

>  <SCORE>  (60) 
-11.725

>  <name>  (60) 
59

>  <ligand_id>  (60) 
59

>  <original_smiles>  (60) 
[H]c1c([H])c([H])c2c(c1[H])C([H])([H])C([H])([H])C([H])([H])C2([H])N([H])C(=O)C1([H])N(C(=O)C([H])(N([H])C(=O)C([H])(N([H])C([H])([H])[H])C([H])([H])[H])C(C([H])([H])[H])(C([H])([H])[H])C([H])([H])[H])C([H])([H])c2c([H])c(OC([H])([H])C([H])([H])[N+]([H])=C(N([H])[H])C3([H])C([H])([H])C([H])([H])C([H])([H])[N+]3([H])C([H])([H])C([H])([H])C([H])([H])C([H])([H])C([H])([H])N([H])C(=O)N3C([H])([H])C([H])([H])C([H])([H])C([H])(n4nc(-c5c([H])c([H])c(Oc6c([H])c([H])c(F)c([H])c6F)c([H])c5[H])c(C(=O)N([H])[H])c4N([H])[H])C3([H])[H])c([H])c([H])c2C1([H])[H]

>  <smiles>  (60) 
[H]c1c([H])c([H])c2c(c1[H])C([H])([H])C([H])([H])C([H])([H])C2([H])N([H])C(=O)C1([H])N(C(=O)C([H])(N([H])C(=O)C([H])(N([H])C([H])([H])[H])C([H])([H])[H])C(C([H])([H])[H])(C([H])([H])[H])C([H])([H])[H])C([H])([H])c2c([H])c(OC([H])([H])C([H])([H])[N+]([H])=C(N([H])[H])C3([H])C([H])([H])C([H])([H])C([H])([H])[N+]3([H])C([H])([H])C([H])([H])C([H])([H])C([H])([H])C([H])([H])N([H])C(=O)N3C([H])([H])C([H])([H])C([H])([H])C([H])(n4nc(-c5c([H])c([H])c(Oc6c([H])c([H])c(F)c([H])c6F)c([H])c5[H])c(C(=O)N([H])[H])c4N([H])[H])C3([H])[H])c([H])c([H])c2C1([H])[H]

$$$$
60:0:0
     RDKit          3D

 89 97  0  0  1  0  0  0  0  0999 V2000
  -29.2820  -20.6620   20.2750 C   0  0  0  0  0  0  0  0  0  0  0  0
  -29.7500  -21.9190   19.5880 C   0  0  0  0  0  2  0  0  0  0  0  0
  -27.9880  -22.2410   21.1510 C   0  0  0  0  0  2  0  0  0  0  0  0
  -29.1560  -22.9990   20.4910 C   0  0  0  0  0  3  0  0  0  0  0  0
  -28.3330  -20.8270   21.1010 N   0  0  0  0  0  2  0  0  0  0  0  0
  -30.0110  -19.3580   19.9570 C   0  0  0  0  0  3  0  0  0  0  0  0
  -29.4410  -18.0600   20.5910 C   0  0  0  0  0  2  0  0  0  0  0  0
  -30.4730  -16.9150   20.4610 C   0  0  0  0  0  2  0  0  0  0  0  0
  -30.6850  -14.4710   20.4220 C   0  0  0  0  0  0  0  0  0  0  0  0
  -30.3390  -12.3220   19.2890 C   0  0  0  0  0  2  0  0  0  0  0  0
  -29.3910  -12.5580   18.0940 C   0  0  0  0  0  2  0  0  0  0  0  0
  -27.9210  -12.4350   18.5400 C   0  0  0  0  0  2  0  0  0  0  0  0
  -27.6020  -13.2580   19.8190 C   0  0  0  0  0  3  0  0  0  0  0  0
  -28.6710  -13.0300   20.9140 C   0  0  0  0  0  2  0  0  0  0  0  0
  -29.9900  -13.3070   20.3240 N   0  0  0  0  0  0  0  0  0  0  0  0
  -31.8380  -14.5960   20.0030 O   0  0  0  0  0  0  0  0  0  0  0  0
  -29.9730  -15.5630   20.7590 N   0  0  0  0  0  0  0  0  0  0  0  0
  -29.0190  -15.4450   21.0620 H   0  0  0  0  0  0  0  0  0  0  0  0
  -25.2120  -13.8650   20.5480 C   0  0  0  0  0  0  0  0  0  0  0  0
  -24.1430  -13.0950   20.9220 C   0  0  0  0  0  0  0  0  0  0  0  0
  -24.6010  -11.7430   20.8830 C   0  0  0  0  0  0  0  0  0  0  0  0
  -26.2540  -12.9820   20.3070 N   0  0  0  0  0  0  0  0  0  0  0  0
  -25.8890  -11.6990   20.5640 N   0  0  0  0  0  0  0  0  0  0  0  0
  -23.8720  -10.4810   21.0710 C   0  0  0  0  0  0  0  0  0  0  0  0
  -24.3120   -9.5040   21.9910 C   0  0  0  0  0  3  0  0  0  0  0  0
  -23.5840   -8.3090   22.1700 C   0  0  0  0  0  3  0  0  0  0  0  0
  -22.4020   -8.0810   21.4270 C   0  0  0  0  0  0  0  0  0  0  0  0
  -21.9800   -9.0470   20.4950 C   0  0  0  0  0  3  0  0  0  0  0  0
  -22.7090  -10.2340   20.3160 C   0  0  0  0  0  3  0  0  0  0  0  0
  -21.6450   -6.9390   21.5140 O   0  0  0  0  0  0  0  0  0  0  0  0
  -21.6130   -6.1810   22.6570 C   0  0  0  0  0  0  0  0  0  0  0  0
  -21.2110   -6.7230   23.8970 C   0  0  0  0  0  3  0  0  0  0  0  0
  -21.1270   -5.8940   25.0340 C   0  0  0  0  0  3  0  0  0  0  0  0
  -21.4340   -4.5230   24.9300 C   0  0  0  0  0  0  0  0  0  0  0  0
  -21.8270   -3.9820   23.6950 C   0  0  0  0  0  3  0  0  0  0  0  0
  -21.9140   -4.8090   22.5620 C   0  0  0  0  0  0  0  0  0  0  0  0
  -22.2750   -4.2750   21.3690 F   0  0  0  0  0  0  0  0  0  0  0  0
  -21.3450   -3.7260   26.0210 F   0  0  0  0  0  0  0  0  0  0  0  0
  -22.7490  -13.5760   21.2060 C   0  0  0  0  0  0  0  0  0  0  0  0
  -22.0260  -12.8800   22.0740 N   0  0  0  0  0  0  0  0  0  0  0  0
  -22.3130  -14.6070   20.6940 O   0  0  0  0  0  0  0  0  0  0  0  0
  -22.3920  -12.0480   22.5120 H   0  0  0  0  0  0  0  0  0  0  0  0
  -21.0880  -13.1800   22.2990 H   0  0  0  0  0  0  0  0  0  0  0  0
  -25.3800  -15.2340   20.3700 N   0  0  0  0  0  0  0  0  0  0  0  0
  -24.6160  -15.8910   20.4830 H   0  0  0  0  0  0  0  0  0  0  0  0
  -26.2250  -15.6680   20.0230 H   0  0  0  0  0  0  0  0  0  0  0  0
  -28.8030  -24.3340   19.7880 C   0  0  0  0  0  2  0  0  0  0  0  0
  -28.4190  -25.4600   20.7730 C   0  0  0  0  0  2  0  0  0  0  0  0
  -28.4380  -26.7540   20.1590 O   0  0  0  0  0  0  0  0  0  0  0  0
  -24.6010  -31.8960   23.2490 C   0  0  0  0  0  0  0  0  0  0  0  0
  -27.2570  -27.4600   20.1850 C   0  0  0  0  0  0  0  0  0  0  0  0
  -23.3970  -30.4860   21.6130 C   0  0  0  0  0  3  0  0  0  0  0  0
  -24.8520  -28.9410   20.1950 C   0  0  0  0  0  0  0  0  0  0  0  0
  -25.9180  -30.8570   21.4020 C   0  0  0  0  0  2  0  0  0  0  0  0
  -26.0080  -29.4820   20.7740 C   0  0  0  0  0  0  0  0  0  0  0  0
  -27.2170  -28.7510   20.7580 C   0  0  0  0  0  3  0  0  0  0  0  0
  -26.0860  -26.9270   19.6090 C   0  0  0  0  0  3  0  0  0  0  0  0
  -24.8850  -27.6640   19.6090 C   0  0  0  0  0  3  0  0  0  0  0  0
  -23.6060  -29.7960   20.2370 C   0  0  0  0  0  2  0  0  0  0  0  0
  -24.6570  -31.0950   22.1480 N   0  0  0  0  0  0  0  0  0  0  0  0
  -23.5200  -32.1650   23.7920 O   0  0  0  0  0  0  0  0  0  0  0  0
  -22.7470  -29.4680   22.5780 C   0  0  0  0  0  0  0  0  0  0  0  0
  -21.4230  -29.2830   22.4520 N   0  0  0  0  0  0  0  0  0  0  0  0
  -23.4330  -28.8480   23.3940 O   0  0  0  0  0  0  0  0  0  0  0  0
  -20.9310  -29.8370   21.7660 H   0  0  0  0  0  0  0  0  0  0  0  0
  -18.0520  -28.0790   22.9450 C   0  0  0  0  0  0  0  0  0  0  0  0
  -20.6080  -28.3450   23.2240 C   0  0  0  0  0  3  0  0  0  0  0  0
  -20.7160  -26.9120   22.6530 C   0  0  0  0  0  2  0  0  0  0  0  0
  -19.6180  -26.5810   21.6380 C   0  0  0  0  0  2  0  0  0  0  0  0
  -18.2350  -26.7250   22.2770 C   0  0  0  0  0  2  0  0  0  0  0  0
  -19.1670  -28.8460   23.3760 C   0  0  0  0  0  0  0  0  0  0  0  0
  -18.9430  -30.1110   23.9600 C   0  0  0  0  0  3  0  0  0  0  0  0
  -17.6380  -30.6120   24.1170 C   0  0  0  0  0  3  0  0  0  0  0  0
  -16.5370  -29.8410   23.7040 C   0  0  0  0  0  3  0  0  0  0  0  0
  -16.7450  -28.5770   23.1240 C   0  0  0  0  0  3  0  0  0  0  0  0
  -25.8860  -32.5310   23.8660 C   0  0  0  0  0  3  0  0  0  0  0  0
  -25.5770  -33.9310   24.1920 N   0  0  0  0  0  0  0  0  0  0  0  0
  -25.9140  -34.9800   23.4310 C   0  0  0  0  0  0  0  0  0  0  0  0
  -26.5880  -34.8730   22.4030 O   0  0  0  0  0  0  0  0  0  0  0  0
  -24.9860  -34.0890   24.9940 H   0  0  0  0  0  0  0  0  0  0  0  0
  -24.1910  -36.7710   23.0530 C   0  0  0  0  0  1  0  0  0  0  0  0
  -25.4230  -36.3690   23.8790 C   0  0  0  0  0  3  0  0  0  0  0  0
  -27.5520  -37.2520   24.7270 C   0  0  0  0  0  1  0  0  0  0  0  0
  -26.4590  -37.4200   23.7730 N   0  0  0  0  0  0  0  0  0  0  0  0
  -26.0540  -38.3410   23.9150 H   0  0  0  0  0  0  0  0  0  0  0  0
  -26.4070  -31.7630   25.1430 C   0  0  1  0  0  0  0  0  0  0  0  0
  -25.3170  -31.5270   26.2140 C   0  0  0  0  0  1  0  0  0  0  0  0
  -26.9870  -30.3840   24.7460 C   0  0  0  0  0  1  0  0  0  0  0  0
  -27.5620  -32.5550   25.8000 C   0  0  0  0  0  1  0  0  0  0  0  0
  1  5  1  0
  2  1  1  0
  2  4  1  0
  4 47  1  0
  4  3  1  0
  5  3  1  0
  6  1  2  0
  6  7  1  0
  8  7  1  0
  8 17  1  0
  9 17  1  0
 10 15  1  0
 11 12  1  0
 11 10  1  0
 13 12  1  0
 13 22  1  0
 13 14  1  0
 15  9  1  0
 15 14  1  0
 16  9  2  0
 17 18  1  0
 19 20  2  0
 20 39  1  0
 21 20  1  0
 21 24  1  0
 22 19  1  0
 22 23  1  0
 23 21  2  0
 24 25  1  0
 25 26  2  0
 27 30  1  0
 27 26  1  0
 28 27  2  0
 29 28  1  0
 29 24  2  0
 30 31  1  0
 31 32  1  0
 32 33  2  0
 34 33  1  0
 34 38  1  0
 35 34  2  0
 36 31  2  0
 36 35  1  0
 37 36  1  0
 39 40  1  0
 40 43  1  0
 40 42  1  0
 41 39  2  0
 44 45  1  0
 44 19  1  0
 46 44  1  0
 47 48  1  0
 49 51  1  0
 49 48  1  0
 50 61  2  0
 51 56  1  0
 52 60  1  0
 52 62  1  0
 53 59  1  0
 53 55  1  0
 54 60  1  0
 55 54  1  0
 56 55  2  0
 57 51  2  0
 58 57  1  0
 58 53  2  0
 59 52  1  0
 60 50  1  0
 62 64  2  0
 63 62  1  0
 65 63  1  0
 66 75  2  0
 66 71  1  0
 67 63  1  0
 67 71  1  0
 68 67  1  0
 69 70  1  0
 69 68  1  0
 70 66  1  0
 71 72  2  0
 72 73  1  0
 74 73  2  0
 75 74  1  0
 76 50  1  0
 76 77  1  0
 76 86  1  0
 77 80  1  0
 78 82  1  0
 78 77  1  0
 79 78  2  0
 82 81  1  0
 84 82  1  0
 84 85  1  0
 84 83  1  0
 86 89  1  1
 86 87  1  0
 88 86  1  0
M  ISO  4   9 100  17 100  48 101  49 101
M  END
>  <TORSDO>  (61) 
F 21

>  <SCORE>  (61) 
-13.460

>  <name>  (61) 
60

>  <ligand_id>  (61) 
60

>  <original_smiles>  (61) 
[H]c1c([H])c([H])c2c(c1[H])C([H])([H])C([H])([H])C([H])([H])C2([H])N([H])C(=O)C1([H])N(C(=O)C([H])(N([H])C(=O)C([H])(N([H])C([H])([H])[H])C([H])([H])[H])C(C([H])([H])[H])(C([H])([H])[H])C([H])([H])[H])C([H])([H])c2c([H])c(OC([H])([H])C([H])([H])C3([H])C([H])([H])N=C(C([H])([H])C([H])([H])C([H])([H])N([H])C(=O)N4C([H])([H])C([H])([H])C([H])([H])C([H])(n5nc(-c6c([H])c([H])c(Oc7c([H])c([H])c(F)c([H])c7F)c([H])c6[H])c(C(=O)N([H])[H])c5N([H])[H])C4([H])[H])C3([H])[H])c([H])c([H])c2C1([H])[H]

>  <smiles>  (61) 
[H]c1c([H])c([H])c2c(c1[H])C([H])([H])C([H])([H])C([H])([H])C2([H])N([H])C(=O)C1([H])N(C(=O)C([H])(N([H])C(=O)C([H])(N([H])C([H])([H])[H])C([H])([H])[H])C(C([H])([H])[H])(C([H])([H])[H])C([H])([H])[H])C([H])([H])c2c([H])c(OC([H])([H])C([H])([H])C3([H])C([H])([H])N=C(C([H])([H])C([H])([H])C([H])([H])N([H])C(=O)N4C([H])([H])C([H])([H])C([H])([H])C([H])(n5nc(-c6c([H])c([H])c(Oc7c([H])c([H])c(F)c([H])c7F)c([H])c6[H])c(C(=O)N([H])[H])c5N([H])[H])C4([H])[H])C3([H])[H])c([H])c([H])c2C1([H])[H]

$$$$
61:0:0
     RDKit          3D

 97106  0  0  1  0  0  0  0  0999 V2000
  -29.3560  -19.4870   20.5420 C   0  0  0  0  0  3  0  0  0  0  0  0
  -31.3090  -20.8790   20.9400 C   0  0  0  0  0  3  0  0  0  0  0  0
  -31.5460  -18.4460   20.7390 C   0  0  0  0  0  3  0  0  0  0  0  0
  -29.9110  -20.7830   20.7460 C   0  0  0  0  0  0  0  0  0  0  0  0
  -30.1630  -18.3130   20.5200 C   0  0  0  0  0  0  0  0  0  0  0  0
  -32.1210  -19.7210   20.9160 C   0  0  0  0  0  0  0  0  0  0  0  0
  -28.2500  -22.3390   21.9960 C   0  0  0  0  0  2  0  0  0  0  0  0
  -27.7530  -23.8000   21.8740 C   0  0  0  0  0  2  0  0  0  0  0  0
  -29.5900  -23.4350   20.3470 C   0  0  0  0  0  2  0  0  0  0  0  0
  -29.0000  -22.0400   20.6980 C   0  0  0  0  0  3  0  0  0  0  0  0
  -28.4060  -24.4180   20.6190 C   0  0  0  0  0  3  0  0  0  0  0  0
  -28.7050  -25.9580   20.7650 C   0  0  0  0  0  2  0  0  0  0  0  0
  -28.2570  -26.7950   19.6740 O   0  0  0  0  0  0  0  0  0  0  0  0
  -24.5610  -31.8910   23.1440 C   0  0  0  0  0  0  0  0  0  0  0  0
  -27.0940  -27.5280   19.8410 C   0  0  0  0  0  0  0  0  0  0  0  0
  -23.2910  -30.5340   21.5130 C   0  0  0  0  0  3  0  0  0  0  0  0
  -24.6940  -29.0370   19.9870 C   0  0  0  0  0  0  0  0  0  0  0  0
  -25.8060  -30.9050   21.2190 C   0  0  0  0  0  2  0  0  0  0  0  0
  -25.8730  -29.5450   20.5510 C   0  0  0  0  0  0  0  0  0  0  0  0
  -27.0790  -28.7970   20.4780 C   0  0  0  0  0  3  0  0  0  0  0  0
  -25.9020  -27.0490   19.2610 C   0  0  0  0  0  3  0  0  0  0  0  0
  -24.7040  -27.7890   19.3360 C   0  0  0  0  0  3  0  0  0  0  0  0
  -23.4510  -29.8950   20.1070 C   0  0  0  0  0  2  0  0  0  0  0  0
  -24.5730  -31.1250   22.0170 N   0  0  0  0  0  0  0  0  0  0  0  0
  -23.5010  -32.1460   23.7340 O   0  0  0  0  0  0  0  0  0  0  0  0
  -22.6800  -29.4830   22.4710 C   0  0  0  0  0  0  0  0  0  0  0  0
  -21.3540  -29.2870   22.3820 N   0  0  0  0  0  0  0  0  0  0  0  0
  -23.3970  -28.8490   23.2520 O   0  0  0  0  0  0  0  0  0  0  0  0
  -20.8360  -29.8550   21.7250 H   0  0  0  0  0  0  0  0  0  0  0  0
  -18.0210  -27.9950   22.9200 C   0  0  0  0  0  0  0  0  0  0  0  0
  -20.5770  -28.3180   23.1520 C   0  0  0  0  0  3  0  0  0  0  0  0
  -20.7080  -26.8970   22.5580 C   0  0  0  0  0  2  0  0  0  0  0  0
  -19.5970  -26.5580   21.5590 C   0  0  0  0  0  2  0  0  0  0  0  0
  -18.2220  -26.6580   22.2270 C   0  0  0  0  0  2  0  0  0  0  0  0
  -19.1270  -28.7810   23.3420 C   0  0  0  0  0  0  0  0  0  0  0  0
  -18.8830  -30.0310   23.9510 C   0  0  0  0  0  3  0  0  0  0  0  0
  -17.5690  -30.4960   24.1430 C   0  0  0  0  0  3  0  0  0  0  0  0
  -16.4790  -29.7070   23.7390 C   0  0  0  0  0  3  0  0  0  0  0  0
  -16.7070  -28.4590   23.1320 C   0  0  0  0  0  3  0  0  0  0  0  0
  -25.8680  -32.5110   23.7280 C   0  0  0  0  0  3  0  0  0  0  0  0
  -25.5780  -33.9010   24.1050 N   0  0  0  0  0  0  0  0  0  0  0  0
  -25.9010  -34.9700   23.3670 C   0  0  0  0  0  0  0  0  0  0  0  0
  -26.5460  -34.8900   22.3180 O   0  0  0  0  0  0  0  0  0  0  0  0
  -25.0130  -34.0370   24.9300 H   0  0  0  0  0  0  0  0  0  0  0  0
  -24.1790  -36.7820   23.0920 C   0  0  0  0  0  1  0  0  0  0  0  0
  -25.4310  -36.3480   23.8720 C   0  0  0  0  0  3  0  0  0  0  0  0
  -27.5830  -37.1920   24.6980 C   0  0  0  0  0  1  0  0  0  0  0  0
  -26.4710  -37.3970   23.7750 N   0  0  0  0  0  0  0  0  0  0  0  0
  -26.0740  -38.3150   23.9570 H   0  0  0  0  0  0  0  0  0  0  0  0
  -26.4370  -31.7080   24.9610 C   0  0  1  0  0  0  0  0  0  0  0  0
  -25.3920  -31.4440   26.0700 C   0  0  0  0  0  1  0  0  0  0  0  0
  -27.0000  -30.3410   24.5060 C   0  0  0  0  0  1  0  0  0  0  0  0
  -27.6220  -32.4810   25.5890 C   0  0  0  0  0  1  0  0  0  0  0  0
  -29.5970  -16.9470   20.0880 C   0  0  0  0  0  2  0  0  0  0  0  0
  -30.6730  -14.7490   20.6690 C   0  0  0  0  0  0  0  0  0  0  0  0
  -30.5880  -12.4450   19.7770 C   0  0  0  0  0  2  0  0  0  0  0  0
  -29.7180  -12.4970   18.5030 C   0  0  0  0  0  2  0  0  0  0  0  0
  -28.2210  -12.3480   18.8450 C   0  0  0  0  0  2  0  0  0  0  0  0
  -27.7780  -13.2770   20.0070 C   0  0  0  0  0  3  0  0  0  0  0  0
  -28.7700  -13.1840   21.1920 C   0  0  0  0  0  2  0  0  0  0  0  0
  -30.1140  -13.5060   20.6840 N   0  0  0  0  0  0  0  0  0  0  0  0
  -31.8050  -14.9600   20.2210 O   0  0  0  0  0  0  0  0  0  0  0  0
  -29.8170  -15.7600   20.9470 N   0  0  0  0  0  0  0  0  0  0  0  0
  -28.9860  -15.4530   21.4310 H   0  0  0  0  0  0  0  0  0  0  0  0
  -25.3430  -13.8870   20.5950 C   0  0  0  0  0  0  0  0  0  0  0  0
  -24.2620  -13.1180   20.9270 C   0  0  0  0  0  0  0  0  0  0  0  0
  -24.7280  -11.7670   20.9280 C   0  0  0  0  0  0  0  0  0  0  0  0
  -26.4020  -13.0090   20.4240 N   0  0  0  0  0  0  0  0  0  0  0  0
  -26.0310  -11.7270   20.6760 N   0  0  0  0  0  0  0  0  0  0  0  0
  -23.9990  -10.5040   21.0960 C   0  0  0  0  0  0  0  0  0  0  0  0
  -24.3950   -9.5450   22.0550 C   0  0  0  0  0  3  0  0  0  0  0  0
  -23.6680   -8.3450   22.2110 C   0  0  0  0  0  3  0  0  0  0  0  0
  -22.5280   -8.0960   21.4080 C   0  0  0  0  0  0  0  0  0  0  0  0
  -22.1550   -9.0420   20.4350 C   0  0  0  0  0  3  0  0  0  0  0  0
  -22.8840  -10.2330   20.2790 C   0  0  0  0  0  3  0  0  0  0  0  0
  -21.7750   -6.9500   21.4710 O   0  0  0  0  0  0  0  0  0  0  0  0
  -21.6690   -6.2220   22.6300 C   0  0  0  0  0  0  0  0  0  0  0  0
  -21.1630   -6.7870   23.8210 C   0  0  0  0  0  3  0  0  0  0  0  0
  -21.0090   -5.9830   24.9680 C   0  0  0  0  0  3  0  0  0  0  0  0
  -21.3480   -4.6170   24.9220 C   0  0  0  0  0  0  0  0  0  0  0  0
  -21.8470   -4.0540   23.7350 C   0  0  0  0  0  3  0  0  0  0  0  0
  -22.0030   -4.8540   22.5910 C   0  0  0  0  0  0  0  0  0  0  0  0
  -22.4640   -4.3020   21.4430 F   0  0  0  0  0  0  0  0  0  0  0  0
  -21.1920   -3.8450   26.0220 F   0  0  0  0  0  0  0  0  0  0  0  0
  -22.8520  -13.5900   21.1320 C   0  0  0  0  0  0  0  0  0  0  0  0
  -22.0920  -12.9020   21.9750 N   0  0  0  0  0  0  0  0  0  0  0  0
  -22.4330  -14.6080   20.5810 O   0  0  0  0  0  0  0  0  0  0  0  0
  -22.4430  -12.0810   22.4450 H   0  0  0  0  0  0  0  0  0  0  0  0
  -21.1460  -13.2060   22.1570 H   0  0  0  0  0  0  0  0  0  0  0  0
  -25.5090  -15.2560   20.4050 N   0  0  0  0  0  0  0  0  0  0  0  0
  -24.7320  -15.9020   20.4660 H   0  0  0  0  0  0  0  0  0  0  0  0
  -26.3560  -15.6890   20.0630 H   0  0  0  0  0  0  0  0  0  0  0  0
  -33.6330  -19.8260   21.0150 C   0  0  0  0  0  2  0  0  0  0  0  0
  -34.0680  -19.9350   22.4100 N   0  0  0  0  0  4  0  0  0  0  0  0
  -33.8300  -20.8390   22.7740 H   0  0  0  0  0  0  0  0  0  0  0  0
  -35.0620  -19.8130   22.4610 H   0  0  0  0  0  0  0  0  0  0  0  0
  -33.6300  -19.2260   22.9660 H   0  0  0  0  0  0  0  0  0  0  0  0
  1  4  1  0
  3  6  2  0
  4  2  2  0
  5  1  2  0
  5  3  1  0
  6  2  1  0
  6 93  1  0
  8  7  1  0
  9 11  1  0
  9 10  1  0
 10  4  1  0
 10  7  1  0
 11 12  1  0
 11  8  1  0
 13 15  1  0
 13 12  1  0
 14 25  2  0
 15 20  1  0
 16 24  1  0
 16 26  1  0
 17 23  1  0
 17 19  1  0
 18 24  1  0
 19 18  1  0
 20 19  2  0
 21 22  1  0
 21 15  2  0
 22 17  2  0
 23 16  1  0
 24 14  1  0
 26 28  2  0
 27 26  1  0
 29 27  1  0
 30 39  2  0
 30 35  1  0
 31 27  1  0
 31 35  1  0
 32 31  1  0
 33 34  1  0
 33 32  1  0
 34 30  1  0
 35 36  2  0
 36 37  1  0
 38 37  2  0
 39 38  1  0
 40 14  1  0
 40 41  1  0
 40 50  1  0
 41 44  1  0
 42 46  1  0
 42 41  1  0
 43 42  2  0
 46 45  1  0
 48 46  1  0
 48 49  1  0
 48 47  1  0
 50 53  1  1
 50 51  1  0
 52 50  1  0
 54  5  1  0
 54 63  1  0
 55 61  1  0
 55 63  1  0
 56 61  1  0
 57 58  1  0
 57 56  1  0
 59 58  1  0
 59 68  1  0
 59 60  1  0
 61 60  1  0
 62 55  2  0
 63 64  1  0
 65 66  2  0
 66 67  1  0
 66 85  1  0
 67 70  1  0
 68 65  1  0
 68 69  1  0
 69 67  2  0
 70 71  1  0
 71 72  2  0
 73 76  1  0
 73 72  1  0
 74 73  2  0
 75 74  1  0
 75 70  2  0
 76 77  1  0
 77 78  1  0
 78 79  2  0
 80 79  1  0
 80 84  1  0
 81 80  2  0
 82 77  2  0
 82 81  1  0
 83 82  1  0
 85 86  1  0
 86 89  1  0
 86 88  1  0
 87 85  2  0
 90 91  1  0
 90 65  1  0
 92 90  1  0
 93 94  1  0
 94 96  1  0
 94 95  1  0
 94 97  1  0
M  ISO  4  12 101  13 101  55 100  63 100
M  END
>  <TORSDO>  (62) 
F 21

>  <SCORE>  (62) 
-13.709

>  <name>  (62) 
61

>  <ligand_id>  (62) 
61

>  <original_smiles>  (62) 
[H]c1c([H])c([H])c2c(c1[H])C([H])([H])C([H])([H])C([H])([H])C2([H])N([H])C(=O)C1([H])N(C(=O)C([H])(N([H])C(=O)C([H])(N([H])C([H])([H])[H])C([H])([H])[H])C(C([H])([H])[H])(C([H])([H])[H])C([H])([H])[H])C([H])([H])c2c([H])c(OC([H])([H])C3([H])C([H])([H])C([H])([H])C([H])(c4c([H])c(C([H])([H])N([H])C(=O)N5C([H])([H])C([H])([H])C([H])([H])C([H])(n6nc(-c7c([H])c([H])c(Oc8c([H])c([H])c(F)c([H])c8F)c([H])c7[H])c(C(=O)N([H])[H])c6N([H])[H])C5([H])[H])c([H])c(C([H])([H])[N+]([H])([H])[H])c4[H])C3([H])[H])c([H])c([H])c2C1([H])[H]

>  <smiles>  (62) 
[H]c1c([H])c([H])c2c(c1[H])C([H])([H])C([H])([H])C([H])([H])C2([H])N([H])C(=O)C1([H])N(C(=O)C([H])(N([H])C(=O)C([H])(N([H])C([H])([H])[H])C([H])([H])[H])C(C([H])([H])[H])(C([H])([H])[H])C([H])([H])[H])C([H])([H])c2c([H])c(OC([H])([H])C3([H])C([H])([H])C([H])([H])C([H])(c4c([H])c(C([H])([H])N([H])C(=O)N5C([H])([H])C([H])([H])C([H])([H])C([H])(n6nc(-c7c([H])c([H])c(Oc8c([H])c([H])c(F)c([H])c8F)c([H])c7[H])c(C(=O)N([H])[H])c6N([H])[H])C5([H])[H])c([H])c(C([H])([H])[N+]([H])([H])[H])c4[H])C3([H])[H])c([H])c([H])c2C1([H])[H]

$$$$
62:0:0
     RDKit          3D

103110  0  0  1  0  0  0  0  0999 V2000
  -25.7300   -9.7050   19.6840 C   0  0  0  0  0  2  0  0  0  0  0  0
  -26.9510   -9.8800   20.8320 C   0  0  0  0  0  3  0  0  0  0  0  0
  -24.7500  -10.8440   18.9230 C   0  0  0  0  0  3  0  0  0  0  0  0
  -27.4210  -11.3800   21.4570 C   0  0  0  0  0  3  0  0  0  0  0  0
  -24.6980  -12.5200   18.9770 C   0  0  0  0  0  0  0  0  0  0  0  0
  -25.7240  -13.4510   19.9190 C   0  0  0  0  0  3  0  0  0  0  0  0
  -25.8710  -16.8470   20.5110 C   0  0  0  0  0  2  0  0  0  0  0  0
  -27.6350  -16.2410   19.2680 C   0  0  0  0  0  2  0  0  0  0  0  0
  -26.9040  -18.1950   21.0820 C   0  0  0  0  0  2  0  0  0  0  0  0
  -27.9330  -18.0110   19.0830 C   0  0  0  0  0  2  0  0  0  0  0  0
  -26.1780  -15.3680   19.6500 C   0  0  0  0  0  2  0  0  0  0  0  0
  -28.0090  -19.0680   20.2930 N   0  0  1  0  0  4  0  0  0  0  0  0
  -28.8620  -18.7560   20.7370 H   0  0  0  0  0  0  0  0  0  0  0  0
  -28.2850  -20.8760   20.5120 C   0  0  0  0  0  1  0  0  0  0  0  0
  -29.4830  -22.4620   20.1490 C   0  0  0  0  0  1  0  0  0  0  0  0
  -30.0720  -24.1680   20.5410 O   0  0  0  0  0  0  0  0  0  0  0  0
  -27.3030  -30.5450   24.1510 C   0  0  0  0  0  0  0  0  0  0  0  0
  -29.5260  -25.6230   20.6130 C   0  0  0  0  0  0  0  0  0  0  0  0
  -26.2000  -29.4200   22.2850 C   0  0  0  0  0  3  0  0  0  0  0  0
  -27.6360  -27.9390   20.7230 C   0  0  0  0  0  0  0  0  0  0  0  0
  -28.7850  -29.3770   22.3800 C   0  0  0  0  0  2  0  0  0  0  0  0
  -28.7850  -28.0470   21.5110 C   0  0  0  0  0  0  0  0  0  0  0  0
  -29.7440  -26.8950   21.4420 C   0  0  0  0  0  3  0  0  0  0  0  0
  -28.4580  -25.8190   19.7510 C   0  0  0  0  0  3  0  0  0  0  0  0
  -27.5300  -26.8740   19.8280 C   0  0  0  0  0  3  0  0  0  0  0  0
  -26.5080  -28.9600   20.8410 C   0  0  0  0  0  2  0  0  0  0  0  0
  -27.4580  -29.8140   22.9930 N   0  0  0  0  0  0  0  0  0  0  0  0
  -26.1780  -30.8240   24.6060 O   0  0  0  0  0  0  0  0  0  0  0  0
  -25.4030  -28.3270   23.0500 C   0  0  0  0  0  0  0  0  0  0  0  0
  -24.1400  -28.0740   22.6560 N   0  0  0  0  0  0  0  0  0  0  0  0
  -25.9310  -27.7180   23.9840 O   0  0  0  0  0  0  0  0  0  0  0  0
  -23.7570  -28.6240   21.9000 H   0  0  0  0  0  0  0  0  0  0  0  0
  -20.8930  -26.4810   22.3440 C   0  0  0  0  0  0  0  0  0  0  0  0
  -23.2580  -27.0480   23.2260 C   0  0  0  0  0  3  0  0  0  0  0  0
  -23.6620  -25.6370   22.7390 C   0  0  0  0  0  2  0  0  0  0  0  0
  -22.8950  -25.1880   21.4920 C   0  0  0  0  0  2  0  0  0  0  0  0
  -21.3890  -25.1640   21.7670 C   0  0  0  0  0  2  0  0  0  0  0  0
  -21.7730  -27.3710   23.0150 C   0  0  0  0  0  0  0  0  0  0  0  0
  -21.2650  -28.5920   23.5080 C   0  0  0  0  0  3  0  0  0  0  0  0
  -19.9100  -28.9300   23.3370 C   0  0  0  0  0  3  0  0  0  0  0  0
  -19.0400  -28.0400   22.6820 C   0  0  0  0  0  3  0  0  0  0  0  0
  -19.5310  -26.8160   22.1920 C   0  0  0  0  0  3  0  0  0  0  0  0
  -28.5210  -31.0820   24.9560 C   0  0  0  0  0  3  0  0  0  0  0  0
  -28.1780  -32.4280   25.4640 N   0  0  0  0  0  0  0  0  0  0  0  0
  -28.5170  -33.5870   24.8860 C   0  0  0  0  0  0  0  0  0  0  0  0
  -29.2140  -33.6400   23.8690 O   0  0  0  0  0  0  0  0  0  0  0  0
  -27.5620  -32.4590   26.2620 H   0  0  0  0  0  0  0  0  0  0  0  0
  -26.7670  -35.4010   24.7850 C   0  0  0  0  0  1  0  0  0  0  0  0
  -28.0120  -34.8950   25.5330 C   0  0  0  0  0  3  0  0  0  0  0  0
  -30.1250  -35.6940   26.5000 C   0  0  0  0  0  1  0  0  0  0  0  0
  -29.0290  -35.9700   25.5750 N   0  0  0  0  0  0  0  0  0  0  0  0
  -28.6070  -36.8560   25.8400 H   0  0  0  0  0  0  0  0  0  0  0  0
  -28.9180  -30.1490   26.1680 C   0  0  1  0  0  0  0  0  0  0  0  0
  -27.7390  -29.8100   27.1120 C   0  0  0  0  0  1  0  0  0  0  0  0
  -29.5120  -28.8130   25.6760 C   0  0  0  0  0  1  0  0  0  0  0  0
  -30.0230  -30.8300   27.0120 C   0  0  0  0  0  1  0  0  0  0  0  0
  -23.7940  -13.2070   18.0760 C   0  0  0  0  0  0  0  0  0  0  0  0
  -23.9090  -13.0430   16.7620 N   0  0  0  0  0  4  0  0  0  0  0  0
  -22.8470  -14.0050   18.5610 N   0  0  0  0  0  0  0  0  0  0  0  0
  -24.6700  -12.4720   16.4220 H   0  0  0  0  0  0  0  0  0  0  0  0
  -23.3790  -13.5790   16.0940 H   0  0  0  0  0  0  0  0  0  0  0  0
  -22.7540  -14.0950   19.5630 H   0  0  0  0  0  0  0  0  0  0  0  0
  -22.1500  -14.4380   17.9760 H   0  0  0  0  0  0  0  0  0  0  0  0
  -28.7840  -11.5190   22.3670 C   0  0  0  0  0  3  0  0  0  0  0  0
  -30.0550  -12.0070   22.2250 N   0  0  0  0  0  0  0  0  0  0  0  0
  -31.5090  -12.3440   19.8810 C   0  0  0  0  0  0  0  0  0  0  0  0
  -30.7610  -11.1160   17.7890 C   0  0  0  0  0  2  0  0  0  0  0  0
  -29.7100  -11.9640   16.9860 C   0  0  0  0  0  2  0  0  0  0  0  0
  -28.4930  -12.5150   17.7570 C   0  0  0  0  0  2  0  0  0  0  0  0
  -28.9130  -12.8520   19.2400 C   0  0  0  0  0  3  0  0  0  0  0  0
  -29.4270  -11.4000   19.5560 C   0  0  0  0  0  2  0  0  0  0  0  0
  -30.7620  -11.4630   19.2040 N   0  0  0  0  0  0  0  0  0  0  0  0
  -32.4570  -12.8790   19.2580 O   0  0  0  0  0  0  0  0  0  0  0  0
  -31.0070  -12.6220   21.1980 N   0  0  0  0  0  0  0  0  0  0  0  0
  -31.6270  -13.2790   21.6530 H   0  0  0  0  0  0  0  0  0  0  0  0
  -27.4310  -13.8390   21.7880 C   0  0  0  0  0  3  0  0  0  0  0  0
  -25.9200  -13.2950   22.3510 C   0  0  0  0  0  3  0  0  0  0  0  0
  -25.1370  -12.2790   21.2250 C   0  0  0  0  0  3  0  0  0  0  0  0
  -27.9120  -13.2730   20.1090 N   0  0  0  0  0  0  0  0  0  0  0  0
  -26.7270  -12.3400   19.4390 N   0  0  0  0  0  2  0  0  0  0  0  0
  -24.1300  -11.1400   21.7070 C   0  0  0  0  0  0  0  0  0  0  0  0
  -24.4720   -9.9020   22.3900 C   0  0  0  0  0  3  0  0  0  0  0  0
  -23.5840   -8.8010   22.4970 C   0  0  0  0  0  3  0  0  0  0  0  0
  -22.2530   -8.9580   22.0620 C   0  0  0  0  0  0  0  0  0  0  0  0
  -21.8890  -10.1740   21.4580 C   0  0  0  0  0  3  0  0  0  0  0  0
  -22.8040  -11.2250   21.2730 C   0  0  0  0  0  3  0  0  0  0  0  0
  -21.2590   -8.0100   22.1590 O   0  0  0  0  0  0  0  0  0  0  0  0
  -21.2320   -7.0510   23.1420 C   0  0  0  0  0  0  0  0  0  0  0  0
  -21.2310   -7.3690   24.5200 C   0  0  0  0  0  3  0  0  0  0  0  0
  -21.1300   -6.3410   25.4790 C   0  0  0  0  0  3  0  0  0  0  0  0
  -21.0180   -4.9990   25.0670 C   0  0  0  0  0  0  0  0  0  0  0  0
  -21.0050   -4.6820   23.6980 C   0  0  0  0  0  3  0  0  0  0  0  0
  -21.1050   -5.7060   22.7400 C   0  0  0  0  0  0  0  0  0  0  0  0
  -21.0640   -5.3990   21.4220 F   0  0  0  0  0  0  0  0  0  0  0  0
  -20.9190   -4.0100   25.9860 F   0  0  0  0  0  0  0  0  0  0  0  0
  -24.8210  -14.0440   23.0390 C   0  0  0  0  0  0  0  0  0  0  0  0
  -24.0250  -13.3210   23.8180 N   0  0  0  0  0  0  0  0  0  0  0  0
  -24.4960  -15.1760   22.6880 O   0  0  0  0  0  0  0  0  0  0  0  0
  -24.2430  -12.3620   24.0430 H   0  0  0  0  0  0  0  0  0  0  0  0
  -23.1980  -13.7440   24.2180 H   0  0  0  0  0  0  0  0  0  0  0  0
  -28.2090  -14.8280   22.2370 N   0  0  0  0  0  0  0  0  0  0  0  0
  -28.1550  -15.0240   23.2290 H   0  0  0  0  0  0  0  0  0  0  0  0
  -29.1630  -14.8320   21.9040 H   0  0  0  0  0  0  0  0  0  0  0  0
  1  2  1  0
  2  4  2  0
  3  5  2  0
  3  1  1  0
  4 64  1  0
  6  5  1  0
  6 78  1  0
  7  9  1  0
  8 11  1  0
 10  8  1  0
 10 12  1  0
 11  7  1  0
 12 14  1  0
 12 13  1  1
 12  9  1  0
 15 16  1  0
 16 18  1  0
 17 28  2  0
 18 23  1  0
 19 27  1  0
 19 29  1  0
 20 26  1  0
 20 22  1  0
 21 27  1  0
 22 21  1  0
 23 22  2  0
 24 25  1  0
 24 18  2  0
 25 20  2  0
 26 19  1  0
 27 17  1  0
 29 31  2  0
 30 29  1  0
 32 30  1  0
 33 38  1  0
 34 30  1  0
 35 34  1  0
 36 37  1  0
 36 35  1  0
 37 33  1  0
 38 34  1  0
 38 39  2  0
 40 39  1  0
 41 40  2  0
 42 33  2  0
 42 41  1  0
 43 17  1  0
 43 44  1  0
 43 53  1  0
 44 47  1  0
 45 44  1  0
 45 49  1  0
 46 45  2  0
 49 48  1  0
 49 51  1  0
 51 52  1  0
 51 50  1  0
 53 56  1  1
 53 54  1  0
 55 53  1  0
 57 59  1  0
 57  5  1  0
 58 57  2  0
 59 62  1  0
 60 58  1  0
 61 58  1  0
 63 59  1  0
 65 64  2  0
 66 74  1  0
 67 72  1  0
 68 69  1  0
 68 67  1  0
 70 69  1  0
 70 71  1  0
 70 79  1  0
 72 71  1  0
 72 66  1  0
 73 66  2  0
 74 75  1  0
 74 65  1  0
 76101  1  0
 76 77  1  0
 77 96  1  0
 78 81  1  0
 78 77  1  0
 79 80  1  0
 79 76  1  0
 80  6  1  0
 81 82  1  0
 82 83  2  0
 84 87  1  0
 84 83  1  0
 85 84  2  0
 86 85  1  0
 86 81  2  0
 87 88  1  0
 88 89  1  0
 89 90  2  0
 91 90  1  0
 91 95  1  0
 92 91  2  0
 93 88  2  0
 93 92  1  0
 94 93  1  0
 96 97  1  0
 97 99  1  0
 97100  1  0
 98 96  2  0
101102  1  0
103101  1  0
M  ISO  4  15 101  16 101  66 100  74 100
M  END
>  <TORSDO>  (63) 
F 21

>  <SCORE>  (63) 
16.778

>  <name>  (63) 
62

>  <ligand_id>  (63) 
62

>  <original_smiles>  (63) 
[H]C(=NN([H])C(=O)N1C([H])([H])C([H])([H])C([H])([H])C([H])(n2nc(-c3c([H])c([H])c(Oc4c([H])c([H])c(F)c([H])c4F)c([H])c3[H])c(C(=O)N([H])[H])c2N([H])[H])C1([H])[H])c1c([H])c([H])c([H])c(C(N([H])[H])=[N+]([H])[H])c1C1([H])C([H])([H])C([H])([H])[N+]([H])(C([H])([H])C([H])([H])Oc2c([H])c([H])c3c(c2[H])C([H])([H])N(C(=O)C([H])(N([H])C(=O)C([H])(N([H])C([H])([H])[H])C([H])([H])[H])C(C([H])([H])[H])(C([H])([H])[H])C([H])([H])[H])C([H])(C(=O)N([H])C2([H])c4c([H])c([H])c([H])c([H])c4C([H])([H])C([H])([H])C2([H])[H])C3([H])[H])C([H])([H])C1([H])[H]

>  <smiles>  (63) 
[H]C(=NN([H])C(=O)N1C([H])([H])C([H])([H])C([H])([H])C([H])(n2nc(-c3c([H])c([H])c(Oc4c([H])c([H])c(F)c([H])c4F)c([H])c3[H])c(C(=O)N([H])[H])c2N([H])[H])C1([H])[H])c1c([H])c([H])c([H])c(C(N([H])[H])=[N+]([H])[H])c1C1([H])C([H])([H])C([H])([H])[N+]([H])(C([H])([H])C([H])([H])Oc2c([H])c([H])c3c(c2[H])C([H])([H])N(C(=O)C([H])(N([H])C(=O)C([H])(N([H])C([H])([H])[H])C([H])([H])[H])C(C([H])([H])[H])(C([H])([H])[H])C([H])([H])[H])C([H])(C(=O)N([H])C2([H])c4c([H])c([H])c([H])c([H])c4C([H])([H])C([H])([H])C2([H])[H])C3([H])[H])C([H])([H])C1([H])[H]

$$$$
63:0:0
     RDKit          3D

 94 97  0  0  1  0  0  0  0  0999 V2000
  -19.1320  -24.7040   20.2220 C   0  0  0  0  0  2  0  0  0  0  0  0
  -19.8990  -24.9990   18.5480 C   0  0  0  0  0  2  0  0  0  0  0  0
  -21.2670  -27.9720   18.5980 C   0  0  0  0  0  2  0  0  0  0  0  0
  -19.0910  -25.9400   21.6550 C   0  0  0  0  0  2  0  0  0  0  0  0
  -20.6510  -28.9150   20.1290 C   0  0  0  0  0  2  0  0  0  0  0  0
  -21.1420  -26.2290   17.9830 C   0  0  0  0  0  3  0  0  0  0  0  0
  -20.4820  -28.2070   21.6990 N   0  0  2  0  0  4  0  0  0  0  0  0
  -21.3350  -27.8490   21.2600 H   0  0  0  0  0  0  0  0  0  0  0  0
  -22.6020  -25.3250   18.0340 C   0  0  0  0  0  2  0  0  0  0  0  0
  -24.2310  -25.5470   18.4010 C   0  0  0  0  0  3  0  0  0  0  0  0
  -25.1410  -25.6850   19.8540 C   0  0  0  0  0  3  0  0  0  0  0  0
  -26.6660  -26.0980   20.1020 O   0  0  0  0  0  0  0  0  0  0  0  0
  -24.5380  -32.0300   23.0660 C   0  0  0  0  0  0  0  0  0  0  0  0
  -26.8520  -27.4360   19.9190 C   0  0  0  0  0  0  0  0  0  0  0  0
  -23.5310  -30.3450   21.4400 C   0  0  0  0  0  3  0  0  0  0  0  0
  -24.9820  -29.4050   19.8040 C   0  0  0  0  0  0  0  0  0  0  0  0
  -26.0170  -30.8070   21.5240 C   0  0  0  0  0  2  0  0  0  0  0  0
  -26.0340  -29.5430   20.7130 C   0  0  0  0  0  0  0  0  0  0  0  0
  -26.9360  -28.4660   20.8920 C   0  0  0  0  0  3  0  0  0  0  0  0
  -26.2250  -27.7060   18.7370 C   0  0  0  0  0  3  0  0  0  0  0  0
  -25.0630  -28.4670   18.8000 C   0  0  0  0  0  3  0  0  0  0  0  0
  -23.8470  -30.3490   19.9490 C   0  0  0  0  0  2  0  0  0  0  0  0
  -24.6800  -31.0890   22.0820 N   0  0  0  0  0  0  0  0  0  0  0  0
  -23.4300  -32.4160   23.4660 O   0  0  0  0  0  0  0  0  0  0  0  0
  -23.2200  -28.8610   22.1070 C   0  0  0  0  0  0  0  0  0  0  0  0
  -22.3470  -27.6430   21.7220 N   0  0  0  0  0  0  0  0  0  0  0  0
  -23.7730  -28.9270   23.1850 O   0  0  0  0  0  0  0  0  0  0  0  0
  -22.3140  -27.5790   20.7070 H   0  0  0  0  0  0  0  0  0  0  0  0
  -17.7250  -28.7960   22.8690 C   0  0  0  0  0  0  0  0  0  0  0  0
  -20.7540  -26.5570   22.5180 C   0  0  0  0  0  3  0  0  0  0  0  0
  -20.4820  -26.5800   21.0370 C   0  0  0  0  0  3  0  0  0  0  0  0
  -18.8000  -27.7050   20.2760 C   0  0  0  0  0  1  0  0  0  0  0  0
  -17.7180  -28.6300   21.2480 C   0  0  0  0  0  3  0  0  0  0  0  0
  -18.9160  -28.2520   23.8200 C   0  0  0  0  0  2  0  0  0  0  0  0
  -19.0330  -29.8270   24.0820 C   0  0  0  0  0  3  0  0  0  0  0  0
  -18.1650  -31.0520   23.8390 C   0  0  0  0  0  3  0  0  0  0  0  0
  -16.8400  -30.9420   23.3720 C   0  0  0  0  0  2  0  0  0  0  0  0
  -16.5660  -29.6280   23.0550 C   0  0  0  0  0  2  0  0  0  0  0  0
  -25.8020  -32.6340   23.7580 C   0  0  0  0  0  3  0  0  0  0  0  0
  -25.4990  -34.0120   24.1730 N   0  0  0  0  0  0  0  0  0  0  0  0
  -25.8820  -35.1190   23.5180 C   0  0  0  0  0  0  0  0  0  0  0  0
  -26.5770  -35.0860   22.4990 O   0  0  0  0  0  0  0  0  0  0  0  0
  -24.8880  -34.1180   24.9680 H   0  0  0  0  0  0  0  0  0  0  0  0
  -24.1830  -36.9650   23.3050 C   0  0  0  0  0  1  0  0  0  0  0  0
  -25.4170  -36.4770   24.0810 C   0  0  0  0  0  3  0  0  0  0  0  0
  -27.5600  -37.2700   24.9810 C   0  0  0  0  0  1  0  0  0  0  0  0
  -26.4640  -37.5210   24.0500 N   0  0  0  0  0  0  0  0  0  0  0  0
  -26.0710  -38.4330   24.2610 H   0  0  0  0  0  0  0  0  0  0  0  0
  -26.2740  -31.7700   24.9940 C   0  0  1  0  0  0  0  0  0  0  0  0
  -25.1270  -31.4390   25.9750 C   0  0  0  0  0  1  0  0  0  0  0  0
  -26.9020  -30.4220   24.5630 C   0  0  0  0  0  1  0  0  0  0  0  0
  -27.3770  -32.5240   25.7690 C   0  0  0  0  0  1  0  0  0  0  0  0
  -22.1990  -27.4520   23.4440 C   0  0  0  0  0  2  0  0  0  0  0  0
  -24.4030  -26.0600   22.9200 C   0  0  0  0  0 15  0  0  0  0  0  0
  -26.1600  -24.1680   22.3940 C   0  0  0  0  0 15  0  0  0  0  0  0
  -28.4490  -22.9680   21.8950 C   0  0  0  0  0 15  0  0  0  0  0  0
  -31.6720  -20.3400   21.0670 C   0  0  0  0  0  2  0  0  0  0  0  0
  -33.6960  -18.3230   19.9390 C   0  0  0  0  0  2  0  0  0  0  0  0
  -33.7110  -17.3250   18.6540 C   0  0  0  0  0  2  0  0  0  0  0  0
  -32.7220  -16.1710   18.7990 C   0  0  0  0  0  2  0  0  0  0  0  0
  -31.5820  -16.7640   19.6260 C   0  0  0  0  0  3  0  0  0  0  0  0
  -31.9400  -17.4670   20.9660 C   0  0  0  0  0  2  0  0  0  0  0  0
  -32.2810  -18.8790   20.6310 N   0  0  0  0  0  0  0  0  0  0  0  0
  -32.9120  -20.7480   20.9990 O   0  0  0  0  0  1  0  0  0  0  0  0
  -30.0540  -21.3390   21.4370 N   0  0  0  0  0  1  0  0  0  0  0  0
  -30.7350  -22.0720   21.5920 H   0  0  0  0  0  0  0  0  0  0  0  0
  -29.1720  -16.3960   19.8840 C   0  0  0  0  0  0  0  0  0  0  0  0
  -28.4190  -15.2980   20.1260 C   0  0  0  0  0  0  0  0  0  0  0  0
  -29.3310  -14.2000   20.2370 C   0  0  0  0  0  0  0  0  0  0  0  0
  -30.4620  -15.9320   19.8480 N   0  0  0  0  0  0  0  0  0  0  0  0
  -30.5870  -14.6160   20.1290 N   0  0  0  0  0  0  0  0  0  0  0  0
  -29.0650  -12.7700   20.3700 C   0  0  0  0  0  0  0  0  0  0  0  0
  -29.8660  -11.9360   21.1800 C   0  0  0  0  0  3  0  0  0  0  0  0
  -29.5600  -10.5660   21.3060 C   0  0  0  0  0  3  0  0  0  0  0  0
  -28.4470  -10.0230   20.6220 C   0  0  0  0  0  0  0  0  0  0  0  0
  -27.6690  -10.8560   19.7980 C   0  0  0  0  0  3  0  0  0  0  0  0
  -27.9770  -12.2170   19.6680 C   0  0  0  0  0  3  0  0  0  0  0  0
  -28.0840   -8.6990   20.6660 O   0  0  0  0  0  0  0  0  0  0  0  0
  -28.6300   -7.8370   21.5800 C   0  0  0  0  0  0  0  0  0  0  0  0
  -28.7370   -8.1710   22.9480 C   0  0  0  0  0  3  0  0  0  0  0  0
  -29.2380   -7.2260   23.8650 C   0  0  0  0  0  3  0  0  0  0  0  0
  -29.6270   -5.9490   23.4190 C   0  0  0  0  0  0  0  0  0  0  0  0
  -29.5180   -5.6140   22.0580 C   0  0  0  0  0  3  0  0  0  0  0  0
  -29.0180   -6.5550   21.1420 C   0  0  0  0  0  0  0  0  0  0  0  0
  -28.8960   -6.2220   19.8340 F   0  0  0  0  0  0  0  0  0  0  0  0
  -30.1010   -5.0390   24.3010 F   0  0  0  0  0  0  0  0  0  0  0  0
  -26.9270  -15.2740   20.1450 C   0  0  0  0  0  0  0  0  0  0  0  0
  -26.3420  -14.3810   20.9300 N   0  0  0  0  0  0  0  0  0  0  0  0
  -26.2740  -16.0970   19.5020 O   0  0  0  0  0  0  0  0  0  0  0  0
  -26.8850  -13.7290   21.4740 H   0  0  0  0  0  0  0  0  0  0  0  0
  -25.3340  -14.3530   20.9890 H   0  0  0  0  0  0  0  0  0  0  0  0
  -28.8740  -17.7440   19.6800 N   0  0  0  0  0  0  0  0  0  0  0  0
  -27.9160  -18.0730   19.6390 H   0  0  0  0  0  0  0  0  0  0  0  0
  -29.5490  -18.4480   19.4180 H   0  0  0  0  0  0  0  0  0  0  0  0
  1  4  1  0
  2  1  1  0
  3  5  1  0
  5  7  1  0
  6  9  1  0
  6  2  1  0
  6  3  1  0
  7  8  1  1
  7 30  1  0
  9 10  1  0
 10 11  2  0
 11 12  1  0
 13 24  2  0
 14 12  1  0
 14 19  1  0
 15 22  1  0
 15 23  1  0
 15 25  1  0
 16 22  1  0
 16 18  1  0
 17 23  1  0
 18 19  2  0
 18 17  1  0
 20 21  1  0
 20 14  2  0
 21 16  2  0
 23 13  1  0
 25 27  2  0
 26 25  1  0
 26 53  1  0
 28 26  1  0
 29 38  1  0
 29 34  1  0
 30 53  1  0
 31  4  1  0
 31  7  1  0
 31 30  1  0
 32 33  1  0
 33 29  2  0
 34 35  1  0
 36 35  2  0
 37 36  1  0
 38 37  1  0
 39 13  1  0
 39 40  1  0
 39 49  1  0
 40 43  1  0
 41 45  1  0
 41 40  1  0
 42 41  2  0
 45 44  1  0
 47 45  1  0
 47 48  1  0
 47 46  1  0
 49 52  1  1
 49 50  1  0
 51 49  1  0
 58 63  1  0
 59 60  1  0
 59 58  1  0
 61 60  1  0
 61 70  1  0
 61 62  1  0
 63 62  1  0
 63 57  1  0
 64 57  1  0
 65 66  1  0
 67 68  2  0
 68 87  1  0
 68 69  1  0
 69 72  1  0
 70 67  1  0
 70 71  1  0
 71 69  2  0
 72 73  1  0
 73 74  2  0
 75 78  1  0
 75 74  1  0
 76 75  2  0
 77 76  1  0
 77 72  2  0
 78 79  1  0
 79 80  1  0
 80 81  2  0
 82 81  1  0
 82 86  1  0
 83 82  2  0
 84 79  2  0
 84 83  1  0
 85 84  1  0
 87 88  1  0
 88 91  1  0
 88 90  1  0
 89 87  2  0
 92 67  1  0
 93 92  1  0
 94 92  1  0
M  ISO  4  11 101  12 101  57 100  65 100
M  END
>  <TORSDO>  (64) 
F 23

>  <SCORE>  (64) 
-7.431

>  <name>  (64) 
63

>  <ligand_id>  (64) 
63

>  <original_smiles>  (64) 
[H]c1c([H])c([H])c2c(c1[H])C([H])([H])C([H])([H])C([H])([H])C2([H])N([H])C(=O)C1([H])N(C(=O)C([H])(N([H])C(=O)C([H])(N([H])C([H])([H])[H])C([H])([H])[H])C(C([H])([H])[H])(C([H])([H])[H])C([H])([H])[H])C([H])([H])c2c([H])c(OC([H])([H])C([H])([H])C([H])([H])C3([H])C([H])([H])C([H])([H])C([H])([H])[N+]([H])(C([H])([H])C([H])([H])C([H])([H])C([H])([H])N([H])C(=O)N4C([H])([H])C([H])([H])C([H])([H])C([H])(n5nc(-c6c([H])c([H])c(Oc7c([H])c([H])c(F)c([H])c7F)c([H])c6[H])c(C(=O)N([H])[H])c5N([H])[H])C4([H])[H])C([H])([H])C3([H])[H])c([H])c([H])c2C1([H])[H]

>  <smiles>  (64) 
[H]c1c([H])c([H])c2c(c1[H])C([H])([H])C([H])([H])C([H])([H])C2([H])N([H])C(=O)C1([H])N(C(=O)C([H])(N([H])C(=O)C([H])(N([H])C([H])([H])[H])C([H])([H])[H])C(C([H])([H])[H])(C([H])([H])[H])C([H])([H])[H])C([H])([H])c2c([H])c(OC([H])([H])C([H])([H])C([H])([H])C3([H])C([H])([H])C([H])([H])C([H])([H])[N+]([H])(C([H])([H])C([H])([H])C([H])([H])C([H])([H])N([H])C(=O)N4C([H])([H])C([H])([H])C([H])([H])C([H])(n5nc(-c6c([H])c([H])c(Oc7c([H])c([H])c(F)c([H])c7F)c([H])c6[H])c(C(=O)N([H])[H])c5N([H])[H])C4([H])[H])C([H])([H])C3([H])[H])c([H])c([H])c2C1([H])[H]

$$$$
64:0:0
     RDKit          3D

 91 99  0  0  1  0  0  0  0  0999 V2000
  -29.8780  -19.1740   20.0810 C   0  0  0  0  0  0  0  0  0  0  0  0
  -31.2080  -19.3220   20.1350 N   0  0  0  0  0  4  0  0  0  0  0  0
  -29.1150  -20.4050   20.1060 N   0  0  0  0  0  0  0  0  0  0  0  0
  -31.8180  -18.5430   19.9410 H   0  0  0  0  0  0  0  0  0  0  0  0
  -31.6390  -20.2360   20.1740 H   0  0  0  0  0  0  0  0  0  0  0  0
  -28.1140  -20.2500   20.0490 H   0  0  0  0  0  0  0  0  0  0  0  0
  -30.6080  -15.0650   19.5390 C   0  0  0  0  0  0  0  0  0  0  0  0
  -30.2250  -12.7840   18.4500 C   0  0  0  0  0  2  0  0  0  0  0  0
  -29.1000  -12.7990   17.3800 C   0  0  0  0  0  2  0  0  0  0  0  0
  -27.7270  -12.5640   18.0410 C   0  0  0  0  0  2  0  0  0  0  0  0
  -27.5320  -13.4270   19.3160 C   0  0  0  0  0  3  0  0  0  0  0  0
  -28.7660  -13.3780   20.2510 C   0  0  0  0  0  2  0  0  0  0  0  0
  -29.9300  -13.8340   19.4780 N   0  0  0  0  0  0  0  0  0  0  0  0
  -31.6940  -15.1070   18.9500 O   0  0  0  0  0  0  0  0  0  0  0  0
  -28.9730  -16.7290   22.2070 C   0  0  0  0  0  2  0  0  0  0  0  0
  -28.3000  -17.5120   21.0670 C   0  0  0  0  0  2  0  0  0  0  0  0
  -30.3220  -16.2590   21.6680 C   0  0  0  0  0  2  0  0  0  0  0  0
  -29.3390  -17.6050   19.9360 C   0  0  0  0  0  3  0  0  0  0  0  0
  -30.1150  -16.2290   20.2280 N   0  0  0  0  0  0  0  0  0  0  0  0
  -25.3150  -13.9840   20.4730 C   0  0  0  0  0  0  0  0  0  0  0  0
  -24.3060  -13.1970   20.9580 C   0  0  0  0  0  0  0  0  0  0  0  0
  -24.7200  -11.8510   20.7400 C   0  0  0  0  0  0  0  0  0  0  0  0
  -26.2870  -13.1130   20.0100 N   0  0  0  0  0  0  0  0  0  0  0  0
  -25.9490  -11.8170   20.2360 N   0  0  0  0  0  0  0  0  0  0  0  0
  -23.9880  -10.5890   20.9360 C   0  0  0  0  0  0  0  0  0  0  0  0
  -24.4920   -9.5710   21.7750 C   0  0  0  0  0  3  0  0  0  0  0  0
  -23.7620   -8.3790   21.9730 C   0  0  0  0  0  3  0  0  0  0  0  0
  -22.5130   -8.1960   21.3300 C   0  0  0  0  0  0  0  0  0  0  0  0
  -22.0290   -9.2030   20.4740 C   0  0  0  0  0  3  0  0  0  0  0  0
  -22.7610  -10.3860   20.2740 C   0  0  0  0  0  3  0  0  0  0  0  0
  -21.7490   -7.0600   21.4380 O   0  0  0  0  0  0  0  0  0  0  0  0
  -21.7290   -6.3130   22.5880 C   0  0  0  0  0  0  0  0  0  0  0  0
  -21.3610   -6.8700   23.8330 C   0  0  0  0  0  3  0  0  0  0  0  0
  -21.2890   -6.0500   24.9770 C   0  0  0  0  0  3  0  0  0  0  0  0
  -21.5730   -4.6760   24.8760 C   0  0  0  0  0  0  0  0  0  0  0  0
  -21.9280   -4.1160   23.6360 C   0  0  0  0  0  3  0  0  0  0  0  0
  -22.0050   -4.9330   22.4950 C   0  0  0  0  0  0  0  0  0  0  0  0
  -22.3300   -4.3890   21.2970 F   0  0  0  0  0  0  0  0  0  0  0  0
  -21.4930   -3.8820   25.9710 F   0  0  0  0  0  0  0  0  0  0  0  0
  -22.9870  -13.6820   21.4800 C   0  0  0  0  0  0  0  0  0  0  0  0
  -22.3940  -12.9440   22.4140 N   0  0  0  0  0  0  0  0  0  0  0  0
  -22.4960  -14.7430   21.0980 O   0  0  0  0  0  0  0  0  0  0  0  0
  -22.8150  -12.0910   22.7520 H   0  0  0  0  0  0  0  0  0  0  0  0
  -21.5100  -13.2440   22.8000 H   0  0  0  0  0  0  0  0  0  0  0  0
  -25.4560  -15.3580   20.3570 N   0  0  0  0  0  0  0  0  0  0  0  0
  -24.7060  -15.9830   20.6300 H   0  0  0  0  0  0  0  0  0  0  0  0
  -26.2180  -15.8270   19.8870 H   0  0  0  0  0  0  0  0  0  0  0  0
  -29.4560  -21.9400   20.4600 C   0  0  0  0  0  2  0  0  0  0  0  0
  -28.7770  -23.3750   19.8400 C   0  0  0  0  0  2  0  0  0  0  0  0
  -28.6260  -24.8390   20.6900 C   0  0  0  0  0  2  0  0  0  0  0  0
  -28.6560  -26.3090   20.1830 O   0  0  0  0  0  0  0  0  0  0  0  0
  -24.5890  -31.7130   23.1330 C   0  0  0  0  0  0  0  0  0  0  0  0
  -27.5220  -27.1900   20.1760 C   0  0  0  0  0  0  0  0  0  0  0  0
  -23.5150  -30.2580   21.4570 C   0  0  0  0  0  3  0  0  0  0  0  0
  -25.0920  -28.7730   20.0760 C   0  0  0  0  0  0  0  0  0  0  0  0
  -26.0480  -30.6820   21.3550 C   0  0  0  0  0  2  0  0  0  0  0  0
  -26.2260  -29.2980   20.7090 C   0  0  0  0  0  0  0  0  0  0  0  0
  -27.4460  -28.5300   20.7320 C   0  0  0  0  0  3  0  0  0  0  0  0
  -26.3610  -26.7540   19.5100 C   0  0  0  0  0  3  0  0  0  0  0  0
  -25.1710  -27.5140   19.4620 C   0  0  0  0  0  3  0  0  0  0  0  0
  -23.8090  -29.5950   20.0860 C   0  0  0  0  0  2  0  0  0  0  0  0
  -24.7350  -30.9070   22.0380 N   0  0  0  0  0  0  0  0  0  0  0  0
  -23.4770  -31.9300   23.6370 O   0  0  0  0  0  0  0  0  0  0  0  0
  -22.8750  -29.2060   22.3960 C   0  0  0  0  0  0  0  0  0  0  0  0
  -21.5630  -28.9550   22.2280 N   0  0  0  0  0  0  0  0  0  0  0  0
  -23.5580  -28.6190   23.2390 O   0  0  0  0  0  0  0  0  0  0  0  0
  -21.0640  -29.4860   21.5260 H   0  0  0  0  0  0  0  0  0  0  0  0
  -18.2480  -27.5550   22.6140 C   0  0  0  0  0  0  0  0  0  0  0  0
  -20.7760  -27.9670   22.9690 C   0  0  0  0  0  3  0  0  0  0  0  0
  -20.9820  -26.5440   22.3970 C   0  0  0  0  0  2  0  0  0  0  0  0
  -19.9350  -26.1590   21.3460 C   0  0  0  0  0  2  0  0  0  0  0  0
  -18.5270  -26.2190   21.9450 C   0  0  0  0  0  2  0  0  0  0  0  0
  -19.3040  -28.3810   23.0820 C   0  0  0  0  0  0  0  0  0  0  0  0
  -18.9900  -29.6260   23.6710 C   0  0  0  0  0  3  0  0  0  0  0  0
  -17.6540  -30.0490   23.7950 C   0  0  0  0  0  3  0  0  0  0  0  0
  -16.6110  -29.2210   23.3440 C   0  0  0  0  0  3  0  0  0  0  0  0
  -16.9090  -27.9740   22.7610 C   0  0  0  0  0  3  0  0  0  0  0  0
  -25.8120  -32.4150   23.7980 C   0  0  0  0  0  3  0  0  0  0  0  0
  -26.3220  -31.6780   25.0980 C   0  0  1  0  0  0  0  0  0  0  0  0
  -25.2010  -31.3910   26.1260 C   0  0  0  0  0  1  0  0  0  0  0  0
  -26.9910  -30.3320   24.7400 C   0  0  0  0  0  1  0  0  0  0  0  0
  -27.4070  -32.5330   25.7930 C   0  0  0  0  0  1  0  0  0  0  0  0
  -25.4170  -33.7970   24.1140 N   0  0  0  0  0  0  0  0  0  0  0  0
  -25.7080  -34.8660   23.3590 C   0  0  0  0  0  0  0  0  0  0  0  0
  -26.3980  -34.7950   22.3380 O   0  0  0  0  0  0  0  0  0  0  0  0
  -24.8000  -33.9230   24.9030 H   0  0  0  0  0  0  0  0  0  0  0  0
  -23.8800  -36.5570   22.9830 C   0  0  0  0  0  1  0  0  0  0  0  0
  -25.1390  -36.2290   23.8020 C   0  0  0  0  0  3  0  0  0  0  0  0
  -27.2140  -37.2430   24.6370 C   0  0  0  0  0  1  0  0  0  0  0  0
  -26.1100  -37.3390   23.6840 N   0  0  0  0  0  0  0  0  0  0  0  0
  -25.6510  -38.2340   23.8220 H   0  0  0  0  0  0  0  0  0  0  0  0
  1  3  1  0
  1  2  2  0
  2  5  1  0
  3 48  1  0
  4  2  1  0
  6  3  1  0
  7 19  1  0
  8 13  1  0
  9 10  1  0
  9  8  1  0
 11 10  1  0
 11 23  1  0
 11 12  1  0
 13  7  1  0
 13 12  1  0
 14  7  2  0
 16 15  1  0
 17 15  1  0
 18  1  1  0
 18 19  1  0
 18 16  1  0
 19 17  1  0
 20 21  2  0
 21 40  1  0
 22 25  1  0
 22 21  1  0
 23 24  1  0
 23 20  1  0
 24 22  2  0
 25 26  1  0
 26 27  2  0
 28 31  1  0
 28 27  1  0
 29 28  2  0
 30 29  1  0
 30 25  2  0
 31 32  1  0
 32 33  1  0
 33 34  2  0
 35 34  1  0
 35 39  1  0
 36 35  2  0
 37 32  2  0
 37 36  1  0
 38 37  1  0
 40 41  1  0
 41 43  1  0
 41 44  1  0
 42 40  2  0
 45 20  1  0
 45 46  1  0
 47 45  1  0
 49 48  1  0
 49 50  1  0
 51 50  1  0
 52 63  2  0
 53 51  1  0
 53 58  1  0
 54 62  1  0
 54 64  1  0
 55 61  1  0
 55 57  1  0
 56 62  1  0
 57 58  2  0
 57 56  1  0
 59 53  2  0
 60 59  1  0
 60 55  2  0
 61 54  1  0
 62 52  1  0
 64 66  2  0
 65 64  1  0
 67 65  1  0
 68 77  2  0
 68 73  1  0
 69 65  1  0
 69 73  1  0
 70 69  1  0
 71 72  1  0
 71 70  1  0
 72 68  1  0
 73 74  2  0
 74 75  1  0
 76 75  2  0
 77 76  1  0
 78 52  1  0
 78 83  1  0
 78 79  1  0
 79 82  1  1
 79 80  1  0
 81 79  1  0
 83 86  1  0
 84 88  1  0
 84 83  1  0
 85 84  2  0
 88 87  1  0
 90 88  1  0
 90 91  1  0
 90 89  1  0
M  ISO  4   7 100  19 100  50 101  51 101
M  END
>  <TORSDO>  (65) 
F 19

>  <SCORE>  (65) 
-11.423

>  <name>  (65) 
64

>  <ligand_id>  (65) 
64

>  <original_smiles>  (65) 
[H]c1c([H])c([H])c2c(c1[H])C([H])([H])C([H])([H])C([H])([H])C2([H])N([H])C(=O)C1([H])N(C(=O)C([H])(N([H])C(=O)C([H])(N([H])C([H])([H])[H])C([H])([H])[H])C(C([H])([H])[H])(C([H])([H])[H])C([H])([H])[H])C([H])([H])c2c([H])c(OC([H])([H])C([H])([H])C([H])([H])[N+]([H])=C(N([H])[H])C3([H])N(C(=O)N4C([H])([H])C([H])([H])C([H])([H])C([H])(n5nc(-c6c([H])c([H])c(Oc7c([H])c([H])c(F)c([H])c7F)c([H])c6[H])c(C(=O)N([H])[H])c5N([H])[H])C4([H])[H])C([H])([H])C([H])([H])C3([H])[H])c([H])c([H])c2C1([H])[H]

>  <smiles>  (65) 
[H]c1c([H])c([H])c2c(c1[H])C([H])([H])C([H])([H])C([H])([H])C2([H])N([H])C(=O)C1([H])N(C(=O)C([H])(N([H])C(=O)C([H])(N([H])C([H])([H])[H])C([H])([H])[H])C(C([H])([H])[H])(C([H])([H])[H])C([H])([H])[H])C([H])([H])c2c([H])c(OC([H])([H])C([H])([H])C([H])([H])[N+]([H])=C(N([H])[H])C3([H])N(C(=O)N4C([H])([H])C([H])([H])C([H])([H])C([H])(n5nc(-c6c([H])c([H])c(Oc7c([H])c([H])c(F)c([H])c7F)c([H])c6[H])c(C(=O)N([H])[H])c5N([H])[H])C4([H])[H])C([H])([H])C([H])([H])C3([H])[H])c([H])c([H])c2C1([H])[H]

$$$$
65:0:0
     RDKit          3D

 94102  0  0  1  0  0  0  0  0999 V2000
  -29.1370  -22.6950   16.9660 C   0  0  0  0  0  2  0  0  0  0  0  0
  -27.7460  -22.1020   17.2600 C   0  0  0  0  0  2  0  0  0  0  0  0
  -29.2830  -24.1610   17.3910 C   0  0  0  0  0  2  0  0  0  0  0  0
  -27.4030  -21.9320   18.7600 C   0  0  0  0  0  2  0  0  0  0  0  0
  -28.8710  -23.5670   19.8900 C   0  0  0  0  0  2  0  0  0  0  0  0
  -28.5720  -24.5630   18.7090 C   0  0  0  0  0  3  0  0  0  0  0  0
  -28.5810  -22.1260   19.6180 N   0  0  0  0  0  0  0  0  0  0  0  0
  -28.9160  -26.0690   18.9530 C   0  0  0  0  0  2  0  0  0  0  0  0
  -28.4560  -26.7380   20.1360 O   0  0  0  0  0  0  0  0  0  0  0  0
  -24.6300  -31.8960   23.2230 C   0  0  0  0  0  0  0  0  0  0  0  0
  -27.2900  -27.4780   20.0950 C   0  0  0  0  0  0  0  0  0  0  0  0
  -23.4250  -30.4910   21.5840 C   0  0  0  0  0  3  0  0  0  0  0  0
  -24.8810  -28.9730   20.1370 C   0  0  0  0  0  0  0  0  0  0  0  0
  -25.9480  -30.8620   21.3790 C   0  0  0  0  0  2  0  0  0  0  0  0
  -26.0370  -29.4940   20.7300 C   0  0  0  0  0  0  0  0  0  0  0  0
  -27.2390  -28.7470   20.7200 C   0  0  0  0  0  3  0  0  0  0  0  0
  -26.1130  -26.9700   19.5040 C   0  0  0  0  0  3  0  0  0  0  0  0
  -24.9130  -27.7070   19.5280 C   0  0  0  0  0  3  0  0  0  0  0  0
  -23.6310  -29.8220   20.1980 C   0  0  0  0  0  2  0  0  0  0  0  0
  -24.6860  -31.1000   22.1200 N   0  0  0  0  0  0  0  0  0  0  0  0
  -23.5500  -32.1610   23.7700 O   0  0  0  0  0  0  0  0  0  0  0  0
  -22.7860  -29.4630   22.5440 C   0  0  0  0  0  0  0  0  0  0  0  0
  -21.4640  -29.2620   22.4130 N   0  0  0  0  0  0  0  0  0  0  0  0
  -23.4780  -28.8490   23.3610 O   0  0  0  0  0  0  0  0  0  0  0  0
  -20.9700  -29.8030   21.7180 H   0  0  0  0  0  0  0  0  0  0  0  0
  -18.1080  -28.0160   22.9000 C   0  0  0  0  0  0  0  0  0  0  0  0
  -20.6600  -28.3160   23.1850 C   0  0  0  0  0  3  0  0  0  0  0  0
  -20.7920  -26.8850   22.6140 C   0  0  0  0  0  2  0  0  0  0  0  0
  -19.7010  -26.5420   21.5950 C   0  0  0  0  0  2  0  0  0  0  0  0
  -18.3130  -26.6680   22.2300 C   0  0  0  0  0  2  0  0  0  0  0  0
  -19.2120  -28.7970   23.3340 C   0  0  0  0  0  0  0  0  0  0  0  0
  -18.9720  -30.0590   23.9180 C   0  0  0  0  0  3  0  0  0  0  0  0
  -17.6580  -30.5400   24.0770 C   0  0  0  0  0  3  0  0  0  0  0  0
  -16.5680  -29.7560   23.6600 C   0  0  0  0  0  3  0  0  0  0  0  0
  -16.7940  -28.4970   23.0760 C   0  0  0  0  0  3  0  0  0  0  0  0
  -25.9170  -32.5330   23.8370 C   0  0  0  0  0  3  0  0  0  0  0  0
  -25.5990  -33.9270   24.1740 N   0  0  0  0  0  0  0  0  0  0  0  0
  -25.9250  -34.9850   23.4200 C   0  0  0  0  0  0  0  0  0  0  0  0
  -26.5940  -34.8920   22.3870 O   0  0  0  0  0  0  0  0  0  0  0  0
  -25.0030  -34.0740   24.9750 H   0  0  0  0  0  0  0  0  0  0  0  0
  -24.1880  -36.7690   23.0720 C   0  0  0  0  0  1  0  0  0  0  0  0
  -25.4280  -36.3670   23.8850 C   0  0  0  0  0  3  0  0  0  0  0  0
  -27.5510  -37.2580   24.7340 C   0  0  0  0  0  1  0  0  0  0  0  0
  -26.4540  -37.4270   23.7840 N   0  0  0  0  0  0  0  0  0  0  0  0
  -26.0420  -38.3430   23.9360 H   0  0  0  0  0  0  0  0  0  0  0  0
  -26.4520  -31.7580   25.1030 C   0  0  1  0  0  0  0  0  0  0  0  0
  -25.3680  -31.5050   26.1770 C   0  0  0  0  0  1  0  0  0  0  0  0
  -27.0420  -30.3870   24.6990 C   0  0  0  0  0  1  0  0  0  0  0  0
  -27.6010  -32.5580   25.7600 C   0  0  0  0  0  1  0  0  0  0  0  0
  -28.4540  -21.2970   20.8330 C   0  0  0  0  0  2  0  0  0  0  0  0
  -29.7960  -20.7190   21.3310 C   0  0  0  0  0  2  0  0  0  0  0  0
  -30.2890  -19.5460   20.5570 N   0  0  0  0  0  4  0  0  0  0  0  0
  -31.2530  -19.4400   20.8260 H   0  0  0  0  0  0  0  0  0  0  0  0
  -30.2830  -19.7840   19.5770 H   0  0  0  0  0  0  0  0  0  0  0  0
  -29.6360  -18.2190   20.7800 C   0  0  0  0  0  2  0  0  0  0  0  0
  -30.6770  -17.0540   20.7920 C   0  0  0  0  0  2  0  0  0  0  0  0
  -30.8340  -14.5810   20.5030 C   0  0  0  0  0  0  0  0  0  0  0  0
  -30.5240  -12.4160   19.3730 C   0  0  0  0  0  2  0  0  0  0  0  0
  -29.6130  -12.6290   18.1460 C   0  0  0  0  0  2  0  0  0  0  0  0
  -28.1260  -12.5240   18.5400 C   0  0  0  0  0  2  0  0  0  0  0  0
  -27.7740  -13.3520   19.8060 C   0  0  0  0  0  3  0  0  0  0  0  0
  -28.8070  -13.1410   20.9340 C   0  0  0  0  0  2  0  0  0  0  0  0
  -30.1390  -13.4190   20.3790 N   0  0  0  0  0  0  0  0  0  0  0  0
  -31.9980  -14.7000   20.1140 O   0  0  0  0  0  0  0  0  0  0  0  0
  -30.1380  -15.6760   20.8840 N   0  0  0  0  0  0  0  0  0  0  0  0
  -29.1780  -15.5390   21.1670 H   0  0  0  0  0  0  0  0  0  0  0  0
  -25.3650  -13.9750   20.4460 C   0  0  0  0  0  0  0  0  0  0  0  0
  -24.2870  -13.2140   20.8070 C   0  0  0  0  0  0  0  0  0  0  0  0
  -24.7420  -11.8590   20.8110 C   0  0  0  0  0  0  0  0  0  0  0  0
  -26.4120  -13.0870   20.2570 N   0  0  0  0  0  0  0  0  0  0  0  0
  -26.0410  -11.8090   20.5350 N   0  0  0  0  0  0  0  0  0  0  0  0
  -24.0050  -10.6030   21.0030 C   0  0  0  0  0  0  0  0  0  0  0  0
  -24.4090   -9.6530   21.9660 C   0  0  0  0  0  3  0  0  0  0  0  0
  -23.6730   -8.4640   22.1490 C   0  0  0  0  0  3  0  0  0  0  0  0
  -22.5180   -8.2170   21.3690 C   0  0  0  0  0  0  0  0  0  0  0  0
  -22.1320   -9.1600   20.3980 C   0  0  0  0  0  3  0  0  0  0  0  0
  -22.8690  -10.3410   20.2120 C   0  0  0  0  0  3  0  0  0  0  0  0
  -21.7530   -7.0790   21.4590 O   0  0  0  0  0  0  0  0  0  0  0  0
  -21.6720   -6.3590   22.6250 C   0  0  0  0  0  0  0  0  0  0  0  0
  -21.2190   -6.9350   23.8300 C   0  0  0  0  0  3  0  0  0  0  0  0
  -21.0830   -6.1380   24.9880 C   0  0  0  0  0  3  0  0  0  0  0  0
  -21.3920   -4.7650   24.9360 C   0  0  0  0  0  0  0  0  0  0  0  0
  -21.8390   -4.1880   23.7350 C   0  0  0  0  0  3  0  0  0  0  0  0
  -21.9790   -4.9820   22.5820 C   0  0  0  0  0  0  0  0  0  0  0  0
  -22.3860   -4.4150   21.4220 F   0  0  0  0  0  0  0  0  0  0  0  0
  -21.2590   -3.9960   26.0430 F   0  0  0  0  0  0  0  0  0  0  0  0
  -22.8860  -13.7020   21.0360 C   0  0  0  0  0  0  0  0  0  0  0  0
  -22.1320  -13.0270   21.8950 N   0  0  0  0  0  0  0  0  0  0  0  0
  -22.4700  -14.7210   20.4870 O   0  0  0  0  0  0  0  0  0  0  0  0
  -22.4840  -12.2050   22.3610 H   0  0  0  0  0  0  0  0  0  0  0  0
  -21.1900  -13.3390   22.0850 H   0  0  0  0  0  0  0  0  0  0  0  0
  -25.5360  -15.3430   20.2430 N   0  0  0  0  0  0  0  0  0  0  0  0
  -24.7520  -15.9860   20.3110 H   0  0  0  0  0  0  0  0  0  0  0  0
  -26.3740  -15.7790   19.8830 H   0  0  0  0  0  0  0  0  0  0  0  0
  1  2  1  0
  1  3  1  0
  2  4  1  0
  3  6  1  0
  4  7  1  0
  6  8  1  0
  6  5  1  0
  7  5  1  0
  7 50  1  0
  8  9  1  0
 10 21  2  0
 11  9  1  0
 11 16  1  0
 12 20  1  0
 12 22  1  0
 13 19  1  0
 13 15  1  0
 14 20  1  0
 15 14  1  0
 16 15  2  0
 17 18  1  0
 17 11  2  0
 18 13  2  0
 19 12  1  0
 20 10  1  0
 22 24  2  0
 23 22  1  0
 25 23  1  0
 26 35  2  0
 26 31  1  0
 27 23  1  0
 27 31  1  0
 28 27  1  0
 29 30  1  0
 29 28  1  0
 30 26  1  0
 31 32  2  0
 32 33  1  0
 34 33  2  0
 35 34  1  0
 36 10  1  0
 36 37  1  0
 36 46  1  0
 37 40  1  0
 38 42  1  0
 38 37  1  0
 39 38  2  0
 42 41  1  0
 44 42  1  0
 44 45  1  0
 44 43  1  0
 46 49  1  1
 46 47  1  0
 48 46  1  0
 50 51  1  0
 52 55  1  0
 52 53  1  0
 52 51  1  0
 54 52  1  0
 55 56  1  0
 56 65  1  0
 57 65  1  0
 58 63  1  0
 59 60  1  0
 59 58  1  0
 61 60  1  0
 61 70  1  0
 61 62  1  0
 63 57  1  0
 63 62  1  0
 64 57  2  0
 65 66  1  0
 67 68  2  0
 68 69  1  0
 68 87  1  0
 69 72  1  0
 70 67  1  0
 70 71  1  0
 71 69  2  0
 72 73  1  0
 73 74  2  0
 75 78  1  0
 75 74  1  0
 76 75  2  0
 77 76  1  0
 77 72  2  0
 78 79  1  0
 79 80  1  0
 80 81  2  0
 82 81  1  0
 82 86  1  0
 83 82  2  0
 84 79  2  0
 84 83  1  0
 85 84  1  0
 87 88  1  0
 88 91  1  0
 88 90  1  0
 89 87  2  0
 92 93  1  0
 92 67  1  0
 94 92  1  0
M  ISO  4   8 101   9 101  57 100  65 100
M  END
>  <TORSDO>  (66) 
F 22

>  <SCORE>  (66) 
-12.793

>  <name>  (66) 
65

>  <ligand_id>  (66) 
65

>  <original_smiles>  (66) 
[H]c1c([H])c([H])c2c(c1[H])C([H])([H])C([H])([H])C([H])([H])C2([H])N([H])C(=O)C1([H])N(C(=O)C([H])(N([H])C(=O)C([H])(N([H])C([H])([H])[H])C([H])([H])[H])C(C([H])([H])[H])(C([H])([H])[H])C([H])([H])[H])C([H])([H])c2c([H])c(OC([H])([H])C3([H])C([H])([H])N(C([H])([H])C([H])([H])[N+]([H])([H])C([H])([H])C([H])([H])N([H])C(=O)N4C([H])([H])C([H])([H])C([H])([H])C([H])(n5nc(-c6c([H])c([H])c(Oc7c([H])c([H])c(F)c([H])c7F)c([H])c6[H])c(C(=O)N([H])[H])c5N([H])[H])C4([H])[H])C([H])([H])C([H])([H])C([H])([H])C3([H])[H])c([H])c([H])c2C1([H])[H]

>  <smiles>  (66) 
[H]c1c([H])c([H])c2c(c1[H])C([H])([H])C([H])([H])C([H])([H])C2([H])N([H])C(=O)C1([H])N(C(=O)C([H])(N([H])C(=O)C([H])(N([H])C([H])([H])[H])C([H])([H])[H])C(C([H])([H])[H])(C([H])([H])[H])C([H])([H])[H])C([H])([H])c2c([H])c(OC([H])([H])C3([H])C([H])([H])N(C([H])([H])C([H])([H])[N+]([H])([H])C([H])([H])C([H])([H])N([H])C(=O)N4C([H])([H])C([H])([H])C([H])([H])C([H])(n5nc(-c6c([H])c([H])c(Oc7c([H])c([H])c(F)c([H])c7F)c([H])c6[H])c(C(=O)N([H])[H])c5N([H])[H])C4([H])[H])C([H])([H])C([H])([H])C([H])([H])C3([H])[H])c([H])c([H])c2C1([H])[H]

$$$$
66:0:0
     RDKit          3D

102111  0  0  1  0  0  0  0  0999 V2000
  -28.6160  -21.1220   19.6280 C   0  0  0  0  0  3  0  0  0  0  0  0
  -28.5990  -19.9610   20.4120 C   0  0  0  0  0  3  0  0  0  0  0  0
  -29.5340  -18.7090   18.5470 C   0  0  0  0  0  3  0  0  0  0  0  0
  -29.5320  -19.8680   17.7370 C   0  0  0  0  0  0  0  0  0  0  0  0
  -29.1310  -21.1120   18.3090 C   0  0  0  0  0  0  0  0  0  0  0  0
  -29.0980  -18.7580   19.8860 C   0  0  0  0  0  0  0  0  0  0  0  0
  -28.0590  -23.3290   17.6010 C   0  0  0  0  0  2  0  0  0  0  0  0
  -30.5180  -23.2040   18.3260 C   0  0  0  0  0  2  0  0  0  0  0  0
  -28.3350  -24.7860   17.1830 C   0  0  0  0  0  2  0  0  0  0  0  0
  -30.6690  -24.6600   17.8780 C   0  0  0  0  0  2  0  0  0  0  0  0
  -29.3460  -22.4700   17.6260 C   0  0  0  0  0  3  0  0  0  0  0  0
  -29.3790  -25.3600   18.0650 N   0  0  1  0  0  4  0  0  0  0  0  0
  -29.0740  -25.1550   19.0090 H   0  0  0  0  0  0  0  0  0  0  0  0
  -29.4760  -26.8380   18.0710 C   0  0  0  0  0  2  0  0  0  0  0  0
  -29.6960  -27.3220   19.5150 C   0  0  0  0  0  2  0  0  0  0  0  0
  -28.6880  -26.7440   20.3520 O   0  0  0  0  0  0  0  0  0  0  0  0
  -24.6550  -31.8520   23.2630 C   0  0  0  0  0  0  0  0  0  0  0  0
  -27.5030  -27.4330   20.3640 C   0  0  0  0  0  0  0  0  0  0  0  0
  -23.5380  -30.4000   21.5970 C   0  0  0  0  0  3  0  0  0  0  0  0
  -25.0740  -28.8550   20.2740 C   0  0  0  0  0  0  0  0  0  0  0  0
  -26.0630  -30.8010   21.5030 C   0  0  0  0  0  2  0  0  0  0  0  0
  -26.1940  -29.4220   20.8940 C   0  0  0  0  0  0  0  0  0  0  0  0
  -27.4130  -28.7160   20.9420 C   0  0  0  0  0  3  0  0  0  0  0  0
  -26.3600  -26.8490   19.7810 C   0  0  0  0  0  3  0  0  0  0  0  0
  -25.1480  -27.5640   19.7200 C   0  0  0  0  0  3  0  0  0  0  0  0
  -23.8140  -29.6910   20.2450 C   0  0  0  0  0  2  0  0  0  0  0  0
  -24.7660  -31.0330   22.1800 N   0  0  0  0  0  0  0  0  0  0  0  0
  -23.5480  -32.1200   23.7500 O   0  0  0  0  0  0  0  0  0  0  0  0
  -22.8600  -29.3890   22.5490 C   0  0  0  0  0  0  0  0  0  0  0  0
  -21.5430  -29.1960   22.3740 N   0  0  0  0  0  0  0  0  0  0  0  0
  -23.5170  -28.7790   23.3960 O   0  0  0  0  0  0  0  0  0  0  0  0
  -21.0760  -29.7340   21.6560 H   0  0  0  0  0  0  0  0  0  0  0  0
  -18.1470  -28.0500   22.8120 C   0  0  0  0  0  0  0  0  0  0  0  0
  -20.7020  -28.2660   23.1270 C   0  0  0  0  0  3  0  0  0  0  0  0
  -20.7950  -26.8380   22.5440 C   0  0  0  0  0  2  0  0  0  0  0  0
  -19.7050  -26.5370   21.5110 C   0  0  0  0  0  2  0  0  0  0  0  0
  -18.3140  -26.7010   22.1330 C   0  0  0  0  0  2  0  0  0  0  0  0
  -19.2700  -28.7920   23.2640 C   0  0  0  0  0  0  0  0  0  0  0  0
  -19.0610  -30.0560   23.8560 C   0  0  0  0  0  3  0  0  0  0  0  0
  -17.7620  -30.5770   24.0020 C   0  0  0  0  0  3  0  0  0  0  0  0
  -16.6530  -29.8300   23.5710 C   0  0  0  0  0  3  0  0  0  0  0  0
  -16.8460  -28.5700   22.9800 C   0  0  0  0  0  3  0  0  0  0  0  0
  -25.9070  -32.5090   23.9260 C   0  0  0  0  0  3  0  0  0  0  0  0
  -25.5640  -33.9030   24.2280 N   0  0  0  0  0  0  0  0  0  0  0  0
  -25.9040  -34.9510   23.4660 C   0  0  0  0  0  0  0  0  0  0  0  0
  -26.6090  -34.8470   22.4580 O   0  0  0  0  0  0  0  0  0  0  0  0
  -24.9460  -34.0590   25.0120 H   0  0  0  0  0  0  0  0  0  0  0  0
  -24.1620  -36.7060   23.0240 C   0  0  0  0  0  1  0  0  0  0  0  0
  -25.3770  -36.3350   23.8890 C   0  0  0  0  0  3  0  0  0  0  0  0
  -27.4500  -37.2740   24.8080 C   0  0  0  0  0  1  0  0  0  0  0  0
  -26.3970  -37.4020   23.8010 N   0  0  0  0  0  0  0  0  0  0  0  0
  -25.9720  -38.3200   23.9000 H   0  0  0  0  0  0  0  0  0  0  0  0
  -26.3930  -31.7560   25.2250 C   0  0  1  0  0  0  0  0  0  0  0  0
  -25.2630  -31.4960   26.2480 C   0  0  0  0  0  1  0  0  0  0  0  0
  -27.0280  -30.3940   24.8620 C   0  0  0  0  0  1  0  0  0  0  0  0
  -27.4960  -32.5830   25.9240 C   0  0  0  0  0  1  0  0  0  0  0  0
  -30.0030  -19.7290   16.3180 C   0  0  0  0  0  0  0  0  0  0  0  0
  -29.1080  -20.0150   15.3830 N   0  0  0  0  0  0  0  0  0  0  0  0
  -31.1280  -19.3130   16.0470 O   0  0  0  0  0  0  0  0  0  0  0  0
  -28.1760  -20.2850   15.6550 H   0  0  0  0  0  0  0  0  0  0  0  0
  -29.3340  -19.9050   14.4060 H   0  0  0  0  0  0  0  0  0  0  0  0
  -29.2370  -17.5500   20.7860 C   0  0  0  0  0  2  0  0  0  0  0  0
  -30.6850  -17.4350   21.3030 C   0  0  0  0  0  2  0  0  0  0  0  0
  -30.9510  -16.2150   22.2010 C   0  0  0  0  0  2  0  0  0  0  0  0
  -30.7830  -14.3480   20.5480 C   0  0  0  0  0  0  0  0  0  0  0  0
  -30.3270  -12.4340   19.0600 C   0  0  0  0  0  2  0  0  0  0  0  0
  -29.3420  -12.8080   17.9370 C   0  0  0  0  0  2  0  0  0  0  0  0
  -27.8840  -12.6550   18.4090 C   0  0  0  0  0  2  0  0  0  0  0  0
  -27.6240  -13.3540   19.7670 C   0  0  0  0  0  3  0  0  0  0  0  0
  -28.7010  -12.9500   20.7970 C   0  0  0  0  0  2  0  0  0  0  0  0
  -30.0290  -13.2650   20.2340 N   0  0  0  0  0  0  0  0  0  0  0  0
  -31.7680  -14.7100   19.8990 O   0  0  0  0  0  0  0  0  0  0  0  0
  -30.3870  -14.9880   21.6530 N   0  0  0  0  0  0  0  0  0  0  0  0
  -29.5990  -14.5870   22.1400 H   0  0  0  0  0  0  0  0  0  0  0  0
  -25.2330  -13.9500   20.5250 C   0  0  0  0  0  0  0  0  0  0  0  0
  -24.1730  -13.1680   20.9000 C   0  0  0  0  0  0  0  0  0  0  0  0
  -24.6360  -11.8190   20.8380 C   0  0  0  0  0  0  0  0  0  0  0  0
  -26.2760  -13.0740   20.2610 N   0  0  0  0  0  0  0  0  0  0  0  0
  -25.9190  -11.7860   20.5030 N   0  0  0  0  0  0  0  0  0  0  0  0
  -23.9170  -10.5510   21.0210 C   0  0  0  0  0  0  0  0  0  0  0  0
  -24.3420   -9.5920   21.9660 C   0  0  0  0  0  3  0  0  0  0  0  0
  -23.6250   -8.3880   22.1370 C   0  0  0  0  0  3  0  0  0  0  0  0
  -22.4690   -8.1350   21.3610 C   0  0  0  0  0  0  0  0  0  0  0  0
  -22.0630   -9.0840   20.4070 C   0  0  0  0  0  3  0  0  0  0  0  0
  -22.7810  -10.2790   20.2350 C   0  0  0  0  0  3  0  0  0  0  0  0
  -21.7230   -6.9840   21.4400 O   0  0  0  0  0  0  0  0  0  0  0  0
  -21.6340   -6.2640   22.6040 C   0  0  0  0  0  0  0  0  0  0  0  0
  -21.1050   -6.8220   23.7880 C   0  0  0  0  0  3  0  0  0  0  0  0
  -20.9660   -6.0250   24.9430 C   0  0  0  0  0  3  0  0  0  0  0  0
  -21.3460   -4.6710   24.9130 C   0  0  0  0  0  0  0  0  0  0  0  0
  -21.8670   -4.1100   23.7340 C   0  0  0  0  0  3  0  0  0  0  0  0
  -22.0080   -4.9040   22.5810 C   0  0  0  0  0  0  0  0  0  0  0  0
  -22.4920   -4.3550   21.4420 F   0  0  0  0  0  0  0  0  0  0  0  0
  -21.2040   -3.9020   26.0180 F   0  0  0  0  0  0  0  0  0  0  0  0
  -22.7790  -13.6360   21.2080 C   0  0  0  0  0  0  0  0  0  0  0  0
  -22.0670  -12.9170   22.0680 N   0  0  0  0  0  0  0  0  0  0  0  0
  -22.3320  -14.6740   20.7220 O   0  0  0  0  0  0  0  0  0  0  0  0
  -22.4410  -12.0740   22.4810 H   0  0  0  0  0  0  0  0  0  0  0  0
  -21.1330  -13.2110   22.3130 H   0  0  0  0  0  0  0  0  0  0  0  0
  -25.3920  -15.3230   20.3690 N   0  0  0  0  0  0  0  0  0  0  0  0
  -24.6280  -15.9750   20.5080 H   0  0  0  0  0  0  0  0  0  0  0  0
  -26.2380  -15.7690   20.0390 H   0  0  0  0  0  0  0  0  0  0  0  0
  1  2  1  0
  3  6  1  0
  4  5  1  0
  4  3  2  0
  5  1  2  0
  6  2  2  0
  6 62  1  0
  7 11  1  0
  9  7  1  0
  9 12  1  0
 10 12  1  0
 10  8  1  0
 11  5  1  0
 11  8  1  0
 12 14  1  0
 12 13  1  1
 14 15  1  0
 15 16  1  0
 16 18  1  0
 17 28  2  0
 18 23  1  0
 19 27  1  0
 19 29  1  0
 20 22  1  0
 21 27  1  0
 22 23  2  0
 22 21  1  0
 24 18  2  0
 25 24  1  0
 25 20  2  0
 26 20  1  0
 26 19  1  0
 27 17  1  0
 29 31  2  0
 30 29  1  0
 32 30  1  0
 33 42  2  0
 33 38  1  0
 34 30  1  0
 34 38  1  0
 35 34  1  0
 36 37  1  0
 36 35  1  0
 37 33  1  0
 38 39  2  0
 39 40  1  0
 41 40  2  0
 42 41  1  0
 43 17  1  0
 43 44  1  0
 43 53  1  0
 44 47  1  0
 45 49  1  0
 45 44  1  0
 46 45  2  0
 49 48  1  0
 51 49  1  0
 51 52  1  0
 51 50  1  0
 53 56  1  1
 53 54  1  0
 55 53  1  0
 57  4  1  0
 58 60  1  0
 58 57  1  0
 59 57  2  0
 61 58  1  0
 62 63  1  0
 63 64  1  0
 65 73  1  0
 66 71  1  0
 67 68  1  0
 67 66  1  0
 69 68  1  0
 69 78  1  0
 69 70  1  0
 71 65  1  0
 71 70  1  0
 72 65  2  0
 73 74  1  0
 73 64  1  0
 75 76  2  0
 76 95  1  0
 77 76  1  0
 77 80  1  0
 78 79  1  0
 78 75  1  0
 79 77  2  0
 80 81  1  0
 81 82  2  0
 83 86  1  0
 83 82  1  0
 84 83  2  0
 85 84  1  0
 85 80  2  0
 86 87  1  0
 87 88  1  0
 88 89  2  0
 90 89  1  0
 90 94  1  0
 91 90  2  0
 92 87  2  0
 92 91  1  0
 93 92  1  0
 95 96  1  0
 96 99  1  0
 96 98  1  0
 97 95  2  0
100101  1  0
100 75  1  0
102100  1  0
M  ISO  4  15 101  16 101  65 100  73 100
M  END
>  <TORSDO>  (67) 
F 23

>  <SCORE>  (67) 
-12.960

>  <name>  (67) 
66

>  <ligand_id>  (67) 
66

>  <original_smiles>  (67) 
[H]c1c([H])c([H])c2c(c1[H])C([H])([H])C([H])([H])C([H])([H])C2([H])N([H])C(=O)C1([H])N(C(=O)C([H])(N([H])C(=O)C([H])(N([H])C([H])([H])[H])C([H])([H])[H])C(C([H])([H])[H])(C([H])([H])[H])C([H])([H])[H])C([H])([H])c2c([H])c(OC([H])([H])C([H])([H])[N+]3([H])C([H])([H])C([H])([H])C([H])(c4c([H])c([H])c(C([H])([H])C([H])([H])C([H])([H])N([H])C(=O)N5C([H])([H])C([H])([H])C([H])([H])C([H])(n6nc(-c7c([H])c([H])c(Oc8c([H])c([H])c(F)c([H])c8F)c([H])c7[H])c(C(=O)N([H])[H])c6N([H])[H])C5([H])[H])c([H])c4C(=O)N([H])[H])C([H])([H])C3([H])[H])c([H])c([H])c2C1([H])[H]

>  <smiles>  (67) 
[H]c1c([H])c([H])c2c(c1[H])C([H])([H])C([H])([H])C([H])([H])C2([H])N([H])C(=O)C1([H])N(C(=O)C([H])(N([H])C(=O)C([H])(N([H])C([H])([H])[H])C([H])([H])[H])C(C([H])([H])[H])(C([H])([H])[H])C([H])([H])[H])C([H])([H])c2c([H])c(OC([H])([H])C([H])([H])[N+]3([H])C([H])([H])C([H])([H])C([H])(c4c([H])c([H])c(C([H])([H])C([H])([H])C([H])([H])N([H])C(=O)N5C([H])([H])C([H])([H])C([H])([H])C([H])(n6nc(-c7c([H])c([H])c(Oc8c([H])c([H])c(F)c([H])c8F)c([H])c7[H])c(C(=O)N([H])[H])c6N([H])[H])C5([H])[H])c([H])c4C(=O)N([H])[H])C([H])([H])C3([H])[H])c([H])c([H])c2C1([H])[H]

$$$$
67:0:0
     RDKit          3D

 93101  0  0  1  0  0  0  0  0999 V2000
  -32.5900  -21.5450   18.7210 C   0  0  0  0  0  2  0  0  0  0  0  0
  -31.8770  -22.6460   19.4960 C   0  0  0  0  0  2  0  0  0  0  0  0
  -31.9440  -20.2370   19.1600 C   0  0  0  0  0  2  0  0  0  0  0  0
  -30.7310  -21.9860   20.2970 C   0  0  0  0  0  3  0  0  0  0  0  0
  -30.6620  -20.5480   19.8430 N   0  0  2  0  0  4  0  0  0  0  0  0
  -29.9430  -20.5260   19.1350 H   0  0  0  0  0  0  0  0  0  0  0  0
  -29.4100  -22.8050   20.1640 C   0  0  0  0  0  0  0  0  0  0  0  0
  -28.3230  -22.2700   19.7860 N   0  0  0  0  0  0  0  0  0  0  0  0
  -28.3690  -21.2790   19.5870 H   0  0  0  0  0  0  0  0  0  0  0  0
  -29.4660  -24.3220   20.5290 C   0  0  0  0  0  3  0  0  0  0  0  0
  -28.2680  -25.1890   20.0130 C   0  0  0  0  0  3  0  0  0  0  0  0
  -28.3860  -26.6230   20.2280 O   0  0  0  0  0  0  0  0  0  0  0  0
  -24.6070  -31.8720   23.2600 C   0  0  0  0  0  0  0  0  0  0  0  0
  -27.2240  -27.3880   20.1760 C   0  0  0  0  0  0  0  0  0  0  0  0
  -23.3920  -30.4780   21.6200 C   0  0  0  0  0  3  0  0  0  0  0  0
  -24.8350  -28.9370   20.1840 C   0  0  0  0  0  0  0  0  0  0  0  0
  -25.9210  -30.8200   21.4140 C   0  0  0  0  0  2  0  0  0  0  0  0
  -26.0000  -29.4470   20.7710 C   0  0  0  0  0  0  0  0  0  0  0  0
  -27.1960  -28.6840   20.7570 C   0  0  0  0  0  3  0  0  0  0  0  0
  -26.0350  -26.9100   19.5720 C   0  0  0  0  0  3  0  0  0  0  0  0
  -24.8510  -27.6700   19.5800 C   0  0  0  0  0  3  0  0  0  0  0  0
  -23.5930  -29.8010   20.2380 C   0  0  0  0  0  2  0  0  0  0  0  0
  -24.6590  -31.0700   22.1570 N   0  0  0  0  0  0  0  0  0  0  0  0
  -23.5290  -32.1480   23.8030 O   0  0  0  0  0  0  0  0  0  0  0  0
  -22.7350  -29.4610   22.5800 C   0  0  0  0  0  0  0  0  0  0  0  0
  -21.4100  -29.2860   22.4540 N   0  0  0  0  0  0  0  0  0  0  0  0
  -23.4150  -28.8320   23.3940 O   0  0  0  0  0  0  0  0  0  0  0  0
  -20.9210  -29.8450   21.7710 H   0  0  0  0  0  0  0  0  0  0  0  0
  -18.0300  -28.0990   22.9480 C   0  0  0  0  0  0  0  0  0  0  0  0
  -20.5890  -28.3500   23.2230 C   0  0  0  0  0  3  0  0  0  0  0  0
  -20.6870  -26.9190   22.6460 C   0  0  0  0  0  2  0  0  0  0  0  0
  -19.5850  -26.6010   21.6310 C   0  0  0  0  0  2  0  0  0  0  0  0
  -18.2040  -26.7490   22.2730 C   0  0  0  0  0  2  0  0  0  0  0  0
  -19.1500  -28.8560   23.3810 C   0  0  0  0  0  0  0  0  0  0  0  0
  -18.9350  -30.1210   23.9720 C   0  0  0  0  0  3  0  0  0  0  0  0
  -17.6310  -30.6280   24.1320 C   0  0  0  0  0  3  0  0  0  0  0  0
  -16.5260  -29.8660   23.7180 C   0  0  0  0  0  3  0  0  0  0  0  0
  -16.7260  -28.6030   23.1320 C   0  0  0  0  0  3  0  0  0  0  0  0
  -25.8960  -32.4950   23.8790 C   0  0  0  0  0  3  0  0  0  0  0  0
  -25.5940  -33.8910   24.2230 N   0  0  0  0  0  0  0  0  0  0  0  0
  -25.9210  -34.9480   23.4670 C   0  0  0  0  0  0  0  0  0  0  0  0
  -26.5810  -34.8490   22.4290 O   0  0  0  0  0  0  0  0  0  0  0  0
  -25.0080  -34.0410   25.0320 H   0  0  0  0  0  0  0  0  0  0  0  0
  -24.1890  -36.7410   23.1420 C   0  0  0  0  0  1  0  0  0  0  0  0
  -25.4400  -36.3350   23.9370 C   0  0  0  0  0  3  0  0  0  0  0  0
  -27.5880  -37.2120   24.7430 C   0  0  0  0  0  1  0  0  0  0  0  0
  -26.4720  -37.3870   23.8160 N   0  0  0  0  0  0  0  0  0  0  0  0
  -26.0700  -38.3070   23.9740 H   0  0  0  0  0  0  0  0  0  0  0  0
  -26.4180  -31.7100   25.1440 C   0  0  1  0  0  0  0  0  0  0  0  0
  -25.3320  -31.4650   26.2170 C   0  0  0  0  0  1  0  0  0  0  0  0
  -26.9910  -30.3340   24.7300 C   0  0  0  0  0  1  0  0  0  0  0  0
  -27.5810  -32.4890   25.8050 C   0  0  0  0  0  1  0  0  0  0  0  0
  -30.3380  -19.5180   20.8950 C   0  0  0  0  0  2  0  0  0  0  0  0
  -30.1390  -18.0410   20.3730 C   0  0  0  0  0  3  0  0  0  0  0  0
  -30.4160  -16.9190   21.4280 C   0  0  0  0  0  3  0  0  0  0  0  0
  -30.6490  -14.5340   20.5240 C   0  0  0  0  0  0  0  0  0  0  0  0
  -30.3720  -12.3660   19.3610 C   0  0  0  0  0  2  0  0  0  0  0  0
  -29.4290  -12.5440   18.1510 C   0  0  0  0  0  2  0  0  0  0  0  0
  -27.9530  -12.4000   18.5760 C   0  0  0  0  0  2  0  0  0  0  0  0
  -27.6070  -13.2380   19.8360 C   0  0  0  0  0  3  0  0  0  0  0  0
  -28.6590  -13.0310   20.9460 C   0  0  0  0  0  2  0  0  0  0  0  0
  -29.9810  -13.3530   20.3810 N   0  0  0  0  0  0  0  0  0  0  0  0
  -31.7810  -14.7160   20.0690 O   0  0  0  0  0  0  0  0  0  0  0  0
  -29.9500  -15.5510   21.0820 N   0  0  0  0  0  0  0  0  0  0  0  0
  -29.0180  -15.3090   21.3840 H   0  0  0  0  0  0  0  0  0  0  0  0
  -25.2040  -13.8400   20.5330 C   0  0  0  0  0  0  0  0  0  0  0  0
  -24.1360  -13.0680   20.9010 C   0  0  0  0  0  0  0  0  0  0  0  0
  -24.5990  -11.7160   20.8780 C   0  0  0  0  0  0  0  0  0  0  0  0
  -26.2520  -12.9590   20.3110 N   0  0  0  0  0  0  0  0  0  0  0  0
  -25.8910  -11.6780   20.5760 N   0  0  0  0  0  0  0  0  0  0  0  0
  -23.8740  -10.4540   21.0700 C   0  0  0  0  0  0  0  0  0  0  0  0
  -24.3150   -9.4810   21.9930 C   0  0  0  0  0  3  0  0  0  0  0  0
  -23.5900   -8.2840   22.1730 C   0  0  0  0  0  3  0  0  0  0  0  0
  -22.4100   -8.0490   21.4280 C   0  0  0  0  0  0  0  0  0  0  0  0
  -21.9870   -9.0110   20.4940 C   0  0  0  0  0  3  0  0  0  0  0  0
  -22.7130  -10.2000   20.3120 C   0  0  0  0  0  3  0  0  0  0  0  0
  -21.6560   -6.9050   21.5180 O   0  0  0  0  0  0  0  0  0  0  0  0
  -21.6310   -6.1450   22.6600 C   0  0  0  0  0  0  0  0  0  0  0  0
  -21.2460   -6.6870   23.9080 C   0  0  0  0  0  3  0  0  0  0  0  0
  -21.1680   -5.8550   25.0410 C   0  0  0  0  0  3  0  0  0  0  0  0
  -21.4680   -4.4830   24.9320 C   0  0  0  0  0  0  0  0  0  0  0  0
  -21.8470   -3.9420   23.6910 C   0  0  0  0  0  3  0  0  0  0  0  0
  -21.9270   -4.7710   22.5590 C   0  0  0  0  0  0  0  0  0  0  0  0
  -22.2720   -4.2390   21.3610 F   0  0  0  0  0  0  0  0  0  0  0  0
  -21.3850   -3.6830   26.0210 F   0  0  0  0  0  0  0  0  0  0  0  0
  -22.7360  -13.5440   21.1650 C   0  0  0  0  0  0  0  0  0  0  0  0
  -22.0060  -12.8510   22.0310 N   0  0  0  0  0  0  0  0  0  0  0  0
  -22.2990  -14.5660   20.6370 O   0  0  0  0  0  0  0  0  0  0  0  0
  -22.3720  -12.0260   22.4820 H   0  0  0  0  0  0  0  0  0  0  0  0
  -21.0660  -13.1520   22.2490 H   0  0  0  0  0  0  0  0  0  0  0  0
  -25.3710  -15.2100   20.3490 N   0  0  0  0  0  0  0  0  0  0  0  0
  -24.6070  -15.8690   20.4460 H   0  0  0  0  0  0  0  0  0  0  0  0
  -26.2250  -15.6410   20.0180 H   0  0  0  0  0  0  0  0  0  0  0  0
  1  3  1  0
  1  2  1  0
  2  4  1  0
  3  5  1  0
  4  7  1  0
  5  4  1  0
  5 53  1  0
  5  6  1  6
  7 10  1  0
  8  7  2  0
  9  8  1  0
 11 12  1  0
 11 10  2  0
 13 24  2  0
 14 12  1  0
 14 19  1  0
 15 23  1  0
 15 25  1  0
 16 22  1  0
 16 18  1  0
 17 23  1  0
 18 17  1  0
 19 18  2  0
 20 21  1  0
 20 14  2  0
 21 16  2  0
 22 15  1  0
 23 13  1  0
 25 27  2  0
 26 25  1  0
 28 26  1  0
 29 38  2  0
 29 34  1  0
 30 26  1  0
 30 34  1  0
 31 30  1  0
 32 33  1  0
 32 31  1  0
 33 29  1  0
 34 35  2  0
 35 36  1  0
 37 36  2  0
 38 37  1  0
 39 13  1  0
 39 40  1  0
 39 49  1  0
 40 43  1  0
 41 45  1  0
 41 40  1  0
 42 41  2  0
 45 44  1  0
 47 45  1  0
 47 48  1  0
 47 46  1  0
 49 52  1  1
 49 50  1  0
 51 49  1  0
 54 53  1  0
 54 55  2  0
 56 64  1  0
 57 62  1  0
 58 59  1  0
 58 57  1  0
 60 59  1  0
 60 69  1  0
 60 61  1  0
 62 56  1  0
 62 61  1  0
 63 56  2  0
 64 65  1  0
 64 55  1  0
 66 67  2  0
 67 86  1  0
 68 67  1  0
 68 71  1  0
 69 66  1  0
 69 70  1  0
 70 68  2  0
 71 72  1  0
 72 73  2  0
 74 77  1  0
 74 73  1  0
 75 74  2  0
 76 75  1  0
 76 71  2  0
 77 78  1  0
 78 79  1  0
 79 80  2  0
 81 80  1  0
 81 85  1  0
 82 81  2  0
 83 78  2  0
 83 82  1  0
 84 83  1  0
 86 87  1  0
 87 90  1  0
 87 89  1  0
 88 86  2  0
 91 92  1  0
 91 66  1  0
 93 91  1  0
M  ISO  4  11 101  12 101  56 100  64 100
M  END
>  <TORSDO>  (68) 
F 22

>  <SCORE>  (68) 
-13.137

>  <name>  (68) 
67

>  <ligand_id>  (68) 
67

>  <original_smiles>  (68) 
[H]N=C(C([H])([H])C([H])([H])Oc1c([H])c([H])c2c(c1[H])C([H])([H])N(C(=O)C([H])(N([H])C(=O)C([H])(N([H])C([H])([H])[H])C([H])([H])[H])C(C([H])([H])[H])(C([H])([H])[H])C([H])([H])[H])C([H])(C(=O)N([H])C1([H])c3c([H])c([H])c([H])c([H])c3C([H])([H])C([H])([H])C1([H])[H])C2([H])[H])C1([H])C([H])([H])C([H])([H])C([H])([H])[N+]1([H])C([H])([H])C([H])([H])C([H])([H])N([H])C(=O)N1C([H])([H])C([H])([H])C([H])([H])C([H])(n2nc(-c3c([H])c([H])c(Oc4c([H])c([H])c(F)c([H])c4F)c([H])c3[H])c(C(=O)N([H])[H])c2N([H])[H])C1([H])[H]

>  <smiles>  (68) 
[H]N=C(C([H])([H])C([H])([H])Oc1c([H])c([H])c2c(c1[H])C([H])([H])N(C(=O)C([H])(N([H])C(=O)C([H])(N([H])C([H])([H])[H])C([H])([H])[H])C(C([H])([H])[H])(C([H])([H])[H])C([H])([H])[H])C([H])(C(=O)N([H])C1([H])c3c([H])c([H])c([H])c([H])c3C([H])([H])C([H])([H])C1([H])[H])C2([H])[H])C1([H])C([H])([H])C([H])([H])C([H])([H])[N+]1([H])C([H])([H])C([H])([H])C([H])([H])N([H])C(=O)N1C([H])([H])C([H])([H])C([H])([H])C([H])(n2nc(-c3c([H])c([H])c(Oc4c([H])c([H])c(F)c([H])c4F)c([H])c3[H])c(C(=O)N([H])[H])c2N([H])[H])C1([H])[H]

$$$$
68:0:0
     RDKit          3D

 93102  0  0  1  0  0  0  0  0999 V2000
  -29.7340  -21.8670   21.9060 C   0  0  0  0  0  2  0  0  0  0  0  0
  -29.5730  -22.0520   19.4290 C   0  0  0  0  0  2  0  0  0  0  0  0
  -28.8920  -23.1680   22.0360 C   0  0  0  0  0  2  0  0  0  0  0  0
  -28.7250  -23.3520   19.5580 C   0  0  0  0  0  2  0  0  0  0  0  0
  -29.4310  -21.0570   20.6210 C   0  0  0  0  0  3  0  0  0  0  0  0
  -29.0310  -24.1570   20.8430 C   0  0  0  0  0  3  0  0  0  0  0  0
  -30.3530  -19.7830   20.4380 C   0  0  0  0  0  2  0  0  0  0  0  0
  -29.8210  -18.4510   20.9060 N   0  0  0  0  0  4  0  0  0  0  0  0
  -29.8460  -18.4380   21.9130 H   0  0  0  0  0  0  0  0  0  0  0  0
  -28.8540  -18.3950   20.6350 H   0  0  0  0  0  0  0  0  0  0  0  0
  -30.6620  -14.6580   20.4310 C   0  0  0  0  0  0  0  0  0  0  0  0
  -30.3820  -12.4130   19.4420 C   0  0  0  0  0  2  0  0  0  0  0  0
  -29.4680  -12.5020   18.2020 C   0  0  0  0  0  2  0  0  0  0  0  0
  -27.9810  -12.4090   18.6050 C   0  0  0  0  0  2  0  0  0  0  0  0
  -27.6050  -13.2920   19.8270 C   0  0  0  0  0  3  0  0  0  0  0  0
  -28.6540  -13.2000   20.9570 C   0  0  0  0  0  2  0  0  0  0  0  0
  -29.9710  -13.4790   20.3720 N   0  0  0  0  0  0  0  0  0  0  0  0
  -31.8800  -14.6950   20.2520 O   0  0  0  0  0  0  0  0  0  0  0  0
  -30.3470  -17.1590   18.8950 C   0  0  0  0  0  0  0  0  0  0  0  0
  -31.0140  -17.6070   17.8200 C   0  0  0  0  0  2  0  0  0  0  0  0
  -29.2580  -16.1680   19.0870 C   0  0  0  0  0  2  0  0  0  0  0  0
  -30.5470  -17.2310   20.3780 C   0  0  0  0  0  3  0  0  0  0  0  0
  -29.9350  -15.8280   20.3730 N   0  0  0  0  0  0  0  0  0  0  0  0
  -25.2080  -13.9150   20.5040 C   0  0  0  0  0  0  0  0  0  0  0  0
  -24.1310  -13.1500   20.8570 C   0  0  0  0  0  0  0  0  0  0  0  0
  -24.5910  -11.7970   20.8530 C   0  0  0  0  0  0  0  0  0  0  0  0
  -26.2530  -13.0250   20.3010 N   0  0  0  0  0  0  0  0  0  0  0  0
  -25.8870  -11.7490   20.5770 N   0  0  0  0  0  0  0  0  0  0  0  0
  -23.8580  -10.5400   21.0410 C   0  0  0  0  0  0  0  0  0  0  0  0
  -24.2750   -9.5780   21.9870 C   0  0  0  0  0  3  0  0  0  0  0  0
  -23.5430   -8.3840   22.1610 C   0  0  0  0  0  3  0  0  0  0  0  0
  -22.3840   -8.1430   21.3870 C   0  0  0  0  0  0  0  0  0  0  0  0
  -21.9880   -9.0930   20.4300 C   0  0  0  0  0  3  0  0  0  0  0  0
  -22.7190  -10.2800   20.2540 C   0  0  0  0  0  3  0  0  0  0  0  0
  -21.6240   -7.0010   21.4710 O   0  0  0  0  0  0  0  0  0  0  0  0
  -21.5600   -6.2630   22.6260 C   0  0  0  0  0  0  0  0  0  0  0  0
  -21.1260   -6.8250   23.8460 C   0  0  0  0  0  3  0  0  0  0  0  0
  -21.0080   -6.0150   24.9930 C   0  0  0  0  0  3  0  0  0  0  0  0
  -21.3160   -4.6430   24.9200 C   0  0  0  0  0  0  0  0  0  0  0  0
  -21.7450   -4.0810   23.7050 C   0  0  0  0  0  3  0  0  0  0  0  0
  -21.8640   -4.8880   22.5610 C   0  0  0  0  0  0  0  0  0  0  0  0
  -22.2570   -4.3380   21.3870 F   0  0  0  0  0  0  0  0  0  0  0  0
  -21.1950   -3.8620   26.0190 F   0  0  0  0  0  0  0  0  0  0  0  0
  -22.7300  -13.6350   21.0910 C   0  0  0  0  0  0  0  0  0  0  0  0
  -21.9810  -12.9510   21.9480 N   0  0  0  0  0  0  0  0  0  0  0  0
  -22.3080  -14.6560   20.5490 O   0  0  0  0  0  0  0  0  0  0  0  0
  -22.3350  -12.1260   22.4080 H   0  0  0  0  0  0  0  0  0  0  0  0
  -21.0400  -13.2570   22.1480 H   0  0  0  0  0  0  0  0  0  0  0  0
  -25.3820  -15.2830   20.3140 N   0  0  0  0  0  0  0  0  0  0  0  0
  -24.6150  -15.9420   20.4020 H   0  0  0  0  0  0  0  0  0  0  0  0
  -26.2460  -15.7170   20.0200 H   0  0  0  0  0  0  0  0  0  0  0  0
  -28.1090  -25.4140   21.0520 C   0  0  0  0  0  2  0  0  0  0  0  0
  -28.3180  -26.5980   20.2310 O   0  0  0  0  0  0  0  0  0  0  0  0
  -24.5750  -31.9060   23.2420 C   0  0  0  0  0  0  0  0  0  0  0  0
  -27.2040  -27.4230   20.1810 C   0  0  0  0  0  0  0  0  0  0  0  0
  -23.3680  -30.5020   21.6050 C   0  0  0  0  0  3  0  0  0  0  0  0
  -24.8220  -28.9650   20.1740 C   0  0  0  0  0  0  0  0  0  0  0  0
  -25.8980  -30.8530   21.4050 C   0  0  0  0  0  2  0  0  0  0  0  0
  -25.9850  -29.4800   20.7630 C   0  0  0  0  0  0  0  0  0  0  0  0
  -27.1830  -28.7180   20.7600 C   0  0  0  0  0  3  0  0  0  0  0  0
  -26.0290  -26.9420   19.5640 C   0  0  0  0  0  3  0  0  0  0  0  0
  -24.8420  -27.6980   19.5660 C   0  0  0  0  0  3  0  0  0  0  0  0
  -23.5770  -29.8230   20.2250 C   0  0  0  0  0  2  0  0  0  0  0  0
  -24.6320  -31.1020   22.1420 N   0  0  0  0  0  0  0  0  0  0  0  0
  -23.4950  -32.1780   23.7830 O   0  0  0  0  0  0  0  0  0  0  0  0
  -22.7170  -29.4830   22.5680 C   0  0  0  0  0  0  0  0  0  0  0  0
  -21.3910  -29.3000   22.4430 N   0  0  0  0  0  0  0  0  0  0  0  0
  -23.4010  -28.8580   23.3830 O   0  0  0  0  0  0  0  0  0  0  0  0
  -20.9000  -29.8570   21.7570 H   0  0  0  0  0  0  0  0  0  0  0  0
  -18.0180  -28.1010   22.9460 C   0  0  0  0  0  0  0  0  0  0  0  0
  -20.5750  -28.3630   23.2170 C   0  0  0  0  0  3  0  0  0  0  0  0
  -20.6800  -26.9320   22.6450 C   0  0  0  0  0  2  0  0  0  0  0  0
  -19.5790  -26.6050   21.6300 C   0  0  0  0  0  2  0  0  0  0  0  0
  -18.1960  -26.7510   22.2740 C   0  0  0  0  0  2  0  0  0  0  0  0
  -19.1360  -28.8650   23.3740 C   0  0  0  0  0  0  0  0  0  0  0  0
  -18.9150  -30.1310   23.9620 C   0  0  0  0  0  3  0  0  0  0  0  0
  -17.6090  -30.6310   24.1250 C   0  0  0  0  0  3  0  0  0  0  0  0
  -16.5070  -29.8640   23.7140 C   0  0  0  0  0  3  0  0  0  0  0  0
  -16.7120  -28.6000   23.1300 C   0  0  0  0  0  3  0  0  0  0  0  0
  -25.8610  -32.5380   23.8600 C   0  0  0  0  0  3  0  0  0  0  0  0
  -26.3860  -31.7660   25.1310 C   0  0  1  0  0  0  0  0  0  0  0  0
  -25.2990  -31.5240   26.2040 C   0  0  0  0  0  1  0  0  0  0  0  0
  -26.9700  -30.3910   24.7330 C   0  0  0  0  0  1  0  0  0  0  0  0
  -27.5380  -32.5610   25.7900 C   0  0  0  0  0  1  0  0  0  0  0  0
  -25.5510  -33.9360   24.1920 N   0  0  0  0  0  0  0  0  0  0  0  0
  -25.8820  -34.9900   23.4340 C   0  0  0  0  0  0  0  0  0  0  0  0
  -26.5510  -34.8880   22.4020 O   0  0  0  0  0  0  0  0  0  0  0  0
  -24.9570  -34.0890   24.9940 H   0  0  0  0  0  0  0  0  0  0  0  0
  -24.1540  -36.7830   23.0780 C   0  0  0  0  0  1  0  0  0  0  0  0
  -25.3920  -36.3770   23.8940 C   0  0  0  0  0  3  0  0  0  0  0  0
  -27.5240  -37.2570   24.7330 C   0  0  0  0  0  1  0  0  0  0  0  0
  -26.4250  -37.4300   23.7880 N   0  0  0  0  0  0  0  0  0  0  0  0
  -26.0180  -38.3490   23.9400 H   0  0  0  0  0  0  0  0  0  0  0  0
  1  3  1  0
  2  4  1  0
  2  5  1  0
  4  6  1  0
  5  7  1  0
  5  1  1  0
  6 52  1  0
  6  3  1  0
  7  8  1  0
  8  9  1  0
 10  8  1  0
 12 17  1  0
 13 14  1  0
 13 12  1  0
 15 14  1  0
 15 27  1  0
 15 16  1  0
 17 11  1  0
 17 16  1  0
 18 11  2  0
 19 21  1  0
 19 22  1  0
 20 19  2  0
 21 23  1  0
 22  8  1  0
 23 22  1  0
 23 11  1  0
 24 25  2  0
 25 44  1  0
 26 25  1  0
 26 29  1  0
 27 24  1  0
 27 28  1  0
 28 26  2  0
 29 30  1  0
 30 31  2  0
 32 35  1  0
 32 31  1  0
 33 32  2  0
 34 33  1  0
 34 29  2  0
 35 36  1  0
 36 37  1  0
 37 38  2  0
 39 38  1  0
 39 43  1  0
 40 39  2  0
 41 36  2  0
 41 40  1  0
 42 41  1  0
 44 45  1  0
 45 48  1  0
 45 47  1  0
 46 44  2  0
 49 50  1  0
 49 24  1  0
 51 49  1  0
 53 52  1  0
 54 65  2  0
 55 53  1  0
 55 60  1  0
 56 64  1  0
 56 66  1  0
 57 63  1  0
 57 59  1  0
 58 64  1  0
 59 58  1  0
 60 59  2  0
 61 62  1  0
 61 55  2  0
 62 57  2  0
 63 56  1  0
 64 54  1  0
 66 68  2  0
 67 66  1  0
 69 67  1  0
 70 79  2  0
 70 75  1  0
 71 67  1  0
 71 75  1  0
 72 71  1  0
 73 74  1  0
 73 72  1  0
 74 70  1  0
 75 76  2  0
 76 77  1  0
 78 77  2  0
 79 78  1  0
 80 54  1  0
 80 85  1  0
 80 81  1  0
 81 84  1  1
 81 82  1  0
 83 81  1  0
 85 88  1  0
 86 90  1  0
 86 85  1  0
 87 86  2  0
 90 89  1  0
 92 90  1  0
 92 93  1  0
 92 91  1  0
M  ISO  4  11 100  23 100  52 101  53 101
M  END
>  <TORSDO>  (69) 
F 19

>  <SCORE>  (69) 
-14.353

>  <name>  (69) 
68

>  <ligand_id>  (69) 
68

>  <original_smiles>  (69) 
[H]C([H])=C1C([H])([H])N(C(=O)N2C([H])([H])C([H])([H])C([H])([H])C([H])(n3nc(-c4c([H])c([H])c(Oc5c([H])c([H])c(F)c([H])c5F)c([H])c4[H])c(C(=O)N([H])[H])c3N([H])[H])C2([H])[H])C1([H])[N+]([H])([H])C([H])([H])C1([H])C([H])([H])C([H])([H])C([H])(C([H])([H])Oc2c([H])c([H])c3c(c2[H])C([H])([H])N(C(=O)C([H])(N([H])C(=O)C([H])(N([H])C([H])([H])[H])C([H])([H])[H])C(C([H])([H])[H])(C([H])([H])[H])C([H])([H])[H])C([H])(C(=O)N([H])C2([H])c4c([H])c([H])c([H])c([H])c4C([H])([H])C([H])([H])C2([H])[H])C3([H])[H])C([H])([H])C1([H])[H]

>  <smiles>  (69) 
[H]C([H])=C1C([H])([H])N(C(=O)N2C([H])([H])C([H])([H])C([H])([H])C([H])(n3nc(-c4c([H])c([H])c(Oc5c([H])c([H])c(F)c([H])c5F)c([H])c4[H])c(C(=O)N([H])[H])c3N([H])[H])C2([H])[H])C1([H])[N+]([H])([H])C([H])([H])C1([H])C([H])([H])C([H])([H])C([H])(C([H])([H])Oc2c([H])c([H])c3c(c2[H])C([H])([H])N(C(=O)C([H])(N([H])C(=O)C([H])(N([H])C([H])([H])[H])C([H])([H])[H])C(C([H])([H])[H])(C([H])([H])[H])C([H])([H])[H])C([H])(C(=O)N([H])C2([H])c4c([H])c([H])c([H])c([H])c4C([H])([H])C([H])([H])C2([H])[H])C3([H])[H])C([H])([H])C1([H])[H]

$$$$
69:0:0
     RDKit          3D

100109  0  0  1  0  0  0  0  0999 V2000
  -27.5430  -20.7520   20.0580 N   0  0  0  0  0  4  0  0  0  0  0  0
  -26.6790  -20.3210   19.7690 H   0  0  0  0  0  0  0  0  0  0  0  0
  -27.9540  -21.1550   19.2270 H   0  0  0  0  0  0  0  0  0  0  0  0
  -28.4960  -19.6920   20.5320 C   0  0  0  0  0  2  0  0  0  0  0  0
  -28.6220  -19.3920   17.2370 C   0  0  0  0  0  2  0  0  0  0  0  0
  -28.6190  -18.0090   17.5780 C   0  0  0  0  0  2  0  0  0  0  0  0
  -29.2800  -20.0560   18.1900 C   0  0  0  0  0  2  0  0  0  0  0  0
  -29.2710  -17.8230   18.7480 C   0  0  0  0  0  3  0  0  0  0  0  0
  -29.5060  -19.1930   19.4270 C   0  0  0  0  0  3  0  0  0  0  0  0
  -31.2960  -15.1120   20.5890 C   0  0  0  0  0  0  0  0  0  0  0  0
  -31.2870  -12.6890   20.0870 C   0  0  0  0  0  2  0  0  0  0  0  0
  -30.5390  -12.5030   18.7550 C   0  0  0  0  0  2  0  0  0  0  0  0
  -29.0050  -12.4600   18.9570 C   0  0  0  0  0  2  0  0  0  0  0  0
  -28.4700  -13.5470   19.9300 C   0  0  0  0  0  3  0  0  0  0  0  0
  -29.3490  -13.6670   21.1960 C   0  0  0  0  0  2  0  0  0  0  0  0
  -30.7330  -13.8850   20.7530 N   0  0  0  0  0  0  0  0  0  0  0  0
  -32.4870  -15.2870   20.3200 O   0  0  0  0  0  0  0  0  0  0  0  0
  -29.9570  -16.5860   19.0750 C   0  0  0  0  0  0  0  0  0  0  0  0
  -30.3640  -16.2000   20.3240 N   0  0  0  0  0  0  0  0  0  0  0  0
  -30.2280  -15.8190   17.9870 N   0  0  0  0  0  4  0  0  0  0  0  0
  -29.9710  -16.7140   21.0870 H   0  0  0  0  0  0  0  0  0  0  0  0
  -30.1520  -16.2560   17.0850 H   0  0  0  0  0  0  0  0  0  0  0  0
  -30.6470  -14.9060   18.0170 H   0  0  0  0  0  0  0  0  0  0  0  0
  -26.0410  -14.2530   20.3790 C   0  0  0  0  0  0  0  0  0  0  0  0
  -24.9220  -13.5350   20.6800 C   0  0  0  0  0  0  0  0  0  0  0  0
  -25.3370  -12.1640   20.7350 C   0  0  0  0  0  0  0  0  0  0  0  0
  -27.0720  -13.3290   20.2780 N   0  0  0  0  0  0  0  0  0  0  0  0
  -26.6480  -12.0690   20.5550 N   0  0  0  0  0  0  0  0  0  0  0  0
  -24.5550  -10.9390   20.8970 C   0  0  0  0  0  0  0  0  0  0  0  0
  -24.8230  -10.0230   21.9420 C   0  0  0  0  0  3  0  0  0  0  0  0
  -24.0400   -8.8570   22.0850 C   0  0  0  0  0  3  0  0  0  0  0  0
  -22.9790   -8.6010   21.1820 C   0  0  0  0  0  0  0  0  0  0  0  0
  -22.7380   -9.5010   20.1290 C   0  0  0  0  0  3  0  0  0  0  0  0
  -23.5200  -10.6570   19.9840 C   0  0  0  0  0  3  0  0  0  0  0  0
  -22.1850   -7.4770   21.2280 O   0  0  0  0  0  0  0  0  0  0  0  0
  -21.8880   -6.8530   22.4140 C   0  0  0  0  0  0  0  0  0  0  0  0
  -21.2160   -7.5220   23.4610 C   0  0  0  0  0  3  0  0  0  0  0  0
  -20.8680   -6.8220   24.6340 C   0  0  0  0  0  3  0  0  0  0  0  0
  -21.1820   -5.4560   24.7570 C   0  0  0  0  0  0  0  0  0  0  0  0
  -21.8390   -4.7860   23.7120 C   0  0  0  0  0  3  0  0  0  0  0  0
  -22.1890   -5.4820   22.5430 C   0  0  0  0  0  0  0  0  0  0  0  0
  -22.8080   -4.8270   21.5310 F   0  0  0  0  0  0  0  0  0  0  0  0
  -20.8370   -4.7830   25.8790 F   0  0  0  0  0  0  0  0  0  0  0  0
  -23.5210  -14.0620   20.7830 C   0  0  0  0  0  0  0  0  0  0  0  0
  -22.6900  -13.4240   21.5970 N   0  0  0  0  0  0  0  0  0  0  0  0
  -23.1750  -15.0830   20.1870 O   0  0  0  0  0  0  0  0  0  0  0  0
  -22.9740  -12.5990   22.1000 H   0  0  0  0  0  0  0  0  0  0  0  0
  -21.7470  -13.7540   21.7150 H   0  0  0  0  0  0  0  0  0  0  0  0
  -26.2670  -15.6090   20.1560 N   0  0  0  0  0  0  0  0  0  0  0  0
  -25.4450  -16.1920   20.0290 H   0  0  0  0  0  0  0  0  0  0  0  0
  -27.0250  -15.9010   19.5560 H   0  0  0  0  0  0  0  0  0  0  0  0
  -27.3030  -21.9360   20.9230 C   0  0  0  0  0  2  0  0  0  0  0  0
  -28.8650  -23.0400   19.1060 C   0  0  0  0  0  2  0  0  0  0  0  0
  -26.9860  -24.4410   20.1130 C   0  0  0  0  0  2  0  0  0  0  0  0
  -28.1660  -23.5160   17.8150 C   0  0  0  0  0  2  0  0  0  0  0  0
  -27.6270  -25.5440   19.2080 C   0  0  0  0  0  2  0  0  0  0  0  0
  -27.9650  -23.2470   20.3570 C   0  0  0  0  0  3  0  0  0  0  0  0
  -27.9860  -25.0480   17.7700 C   0  0  0  0  0  3  0  0  0  0  0  0
  -26.9460  -25.4260   16.6660 C   0  0  0  0  0  2  0  0  0  0  0  0
  -26.9320  -26.7840   16.0950 O   0  0  0  0  0  0  0  0  0  0  0  0
  -25.3210  -29.3010   22.5190 C   0  0  0  0  0  0  0  0  0  0  0  0
  -26.1690  -27.6930   16.7900 C   0  0  0  0  0  0  0  0  0  0  0  0
  -23.5750  -29.4690   20.7710 C   0  0  0  0  0  3  0  0  0  0  0  0
  -24.3720  -29.1830   18.3730 C   0  0  0  0  0  0  0  0  0  0  0  0
  -26.0680  -29.5830   20.1550 C   0  0  0  0  0  2  0  0  0  0  0  0
  -25.6890  -28.9880   18.8120 C   0  0  0  0  0  0  0  0  0  0  0  0
  -26.6040  -28.2400   18.0240 C   0  0  0  0  0  3  0  0  0  0  0  0
  -24.8950  -28.0490   16.3030 C   0  0  0  0  0  3  0  0  0  0  0  0
  -23.9750  -28.7320   17.1090 C   0  0  0  0  0  3  0  0  0  0  0  0
  -23.4290  -29.9110   19.2980 C   0  0  0  0  0  2  0  0  0  0  0  0
  -25.0200  -29.4230   21.1930 N   0  0  0  0  0  0  0  0  0  0  0  0
  -24.4370  -29.2530   23.3860 O   0  0  0  0  0  0  0  0  0  0  0  0
  -22.8160  -28.1410   21.0150 C   0  0  0  0  0  0  0  0  0  0  0  0
  -21.4690  -28.1900   21.0220 N   0  0  0  0  0  0  0  0  0  0  0  0
  -23.4440  -27.0870   21.1810 O   0  0  0  0  0  0  0  0  0  0  0  0
  -21.0330  -29.0890   20.8690 H   0  0  0  0  0  0  0  0  0  0  0  0
  -17.9800  -27.2770   21.1570 C   0  0  0  0  0  0  0  0  0  0  0  0
  -20.5630  -27.0830   21.2740 C   0  0  0  0  0  3  0  0  0  0  0  0
  -20.4000  -26.1830   20.0300 C   0  0  0  0  0  2  0  0  0  0  0  0
  -19.2800  -26.6590   19.1040 C   0  0  0  0  0  2  0  0  0  0  0  0
  -17.9650  -26.4640   19.8710 C   0  0  0  0  0  2  0  0  0  0  0  0
  -19.2050  -27.5700   21.8100 C   0  0  0  0  0  0  0  0  0  0  0  0
  -19.1830  -28.2990   23.0210 C   0  0  0  0  0  3  0  0  0  0  0  0
  -17.9730  -28.7540   23.5600 C   0  0  0  0  0  3  0  0  0  0  0  0
  -16.7610  -28.4470   22.9160 C   0  0  0  0  0  3  0  0  0  0  0  0
  -16.7650  -27.7010   21.7240 C   0  0  0  0  0  3  0  0  0  0  0  0
  -26.7980  -29.2240   23.0100 C   0  0  0  0  0  3  0  0  0  0  0  0
  -26.8380  -29.7180   24.3910 N   0  0  0  0  0  0  0  0  0  0  0  0
  -27.3220  -30.9130   24.7630 C   0  0  0  0  0  0  0  0  0  0  0  0
  -27.8750  -31.6840   23.9700 O   0  0  0  0  0  0  0  0  0  0  0  0
  -26.3430  -29.1680   25.0790 H   0  0  0  0  0  0  0  0  0  0  0  0
  -26.0590  -32.3370   26.4030 C   0  0  0  0  0  1  0  0  0  0  0  0
  -27.1910  -31.3120   26.2440 C   0  0  0  0  0  3  0  0  0  0  0  0
  -29.4920  -30.8550   26.9670 C   0  0  0  0  0  1  0  0  0  0  0  0
  -28.4400  -31.8580   26.8210 N   0  0  0  0  0  0  0  0  0  0  0  0
  -28.2690  -32.2660   27.7360 H   0  0  0  0  0  0  0  0  0  0  0  0
  -27.4030  -27.7660   22.9310 C   0  0  1  0  0  0  0  0  0  0  0  0
  -26.5080  -26.6880   23.5860 C   0  0  0  0  0  1  0  0  0  0  0  0
  -27.6280  -27.3520   21.4570 C   0  0  0  0  0  1  0  0  0  0  0  0
  -28.7870  -27.7250   23.6250 C   0  0  0  0  0  1  0  0  0  0  0  0
  1  4  1  0
  1 52  1  0
  2  1  1  0
  3  1  1  0
  5  6  1  0
  5  7  1  0
  6  8  1  0
  7  9  1  0
  8 18  1  0
  8  9  1  0
  9  4  1  0
 10 16  1  0
 11 16  1  0
 12 13  1  0
 12 11  1  0
 14 13  1  0
 14 27  1  0
 14 15  1  0
 16 15  1  0
 17 10  2  0
 18 19  1  0
 19 10  1  0
 19 21  1  0
 20 23  1  0
 20 18  2  0
 22 20  1  0
 24 25  2  0
 25 26  1  0
 25 44  1  0
 26 29  1  0
 27 24  1  0
 27 28  1  0
 28 26  2  0
 29 30  1  0
 30 31  2  0
 32 35  1  0
 32 31  1  0
 33 32  2  0
 34 33  1  0
 34 29  2  0
 35 36  1  0
 36 41  2  0
 36 37  1  0
 37 38  2  0
 38 39  1  0
 39 43  1  0
 40 39  2  0
 41 40  1  0
 42 41  1  0
 44 45  1  0
 45 48  1  0
 45 47  1  0
 46 44  2  0
 49 24  1  0
 50 49  1  0
 51 49  1  0
 53 57  1  0
 54 57  1  0
 55 53  1  0
 56 54  1  0
 57 52  1  0
 58 59  1  0
 58 55  1  0
 58 56  1  0
 60 59  1  0
 60 62  1  0
 61 72  2  0
 62 67  1  0
 63 73  1  0
 63 71  1  0
 64 66  1  0
 64 70  1  0
 65 71  1  0
 66 65  1  0
 67 66  2  0
 68 62  2  0
 68 69  1  0
 69 64  2  0
 70 63  1  0
 71 61  1  0
 73 74  1  0
 73 75  2  0
 76 74  1  0
 77 86  2  0
 77 82  1  0
 78 74  1  0
 78 82  1  0
 79 78  1  0
 80 81  1  0
 80 79  1  0
 81 77  1  0
 82 83  2  0
 83 84  1  0
 85 84  2  0
 86 85  1  0
 87 61  1  0
 87 88  1  0
 88 89  1  0
 88 91  1  0
 89 93  1  0
 90 89  2  0
 93 92  1  0
 93 95  1  0
 95 94  1  0
 95 96  1  0
 97 87  1  0
 97 98  1  1
 97100  1  0
 99 97  1  0
M  ISO  4  10 100  19 100  59 101  60 101
M  END
>  <TORSDO>  (70) 
F 21

>  <SCORE>  (70) 
-9.325

>  <name>  (70) 
69

>  <ligand_id>  (70) 
69

>  <original_smiles>  (70) 
[H]C1=C([H])C([H])(C([H])([H])[N+]([H])([H])C([H])([H])C2([H])C([H])([H])C([H])([H])C([H])(C([H])([H])Oc3c([H])c([H])c4c(c3[H])C([H])([H])N(C(=O)C([H])(N([H])C(=O)C([H])(N([H])C([H])([H])[H])C([H])([H])[H])C(C([H])([H])[H])(C([H])([H])[H])C([H])([H])[H])C([H])(C(=O)N([H])C3([H])c5c([H])c([H])c([H])c([H])c5C([H])([H])C([H])([H])C3([H])[H])C4([H])[H])C([H])([H])C2([H])[H])C(C(N([H])C(=O)N2C([H])([H])C([H])([H])C([H])([H])C([H])(n3nc(-c4c([H])c([H])c(Oc5c([H])c([H])c(F)c([H])c5F)c([H])c4[H])c(C(=O)N([H])[H])c3N([H])[H])C2([H])[H])=[N+]([H])[H])=C1[H]

>  <smiles>  (70) 
[H]C1=C([H])C([H])(C([H])([H])[N+]([H])([H])C([H])([H])C2([H])C([H])([H])C([H])([H])C([H])(C([H])([H])Oc3c([H])c([H])c4c(c3[H])C([H])([H])N(C(=O)C([H])(N([H])C(=O)C([H])(N([H])C([H])([H])[H])C([H])([H])[H])C(C([H])([H])[H])(C([H])([H])[H])C([H])([H])[H])C([H])(C(=O)N([H])C3([H])c5c([H])c([H])c([H])c([H])c5C([H])([H])C([H])([H])C3([H])[H])C4([H])[H])C([H])([H])C2([H])[H])C(C(N([H])C(=O)N2C([H])([H])C([H])([H])C([H])([H])C([H])(n3nc(-c4c([H])c([H])c(Oc5c([H])c([H])c(F)c([H])c5F)c([H])c4[H])c(C(=O)N([H])[H])c3N([H])[H])C2([H])[H])=[N+]([H])[H])=C1[H]

$$$$
70:0:0
     RDKit          3D

 91100  0  0  1  0  0  0  0  0999 V2000
  -30.6270  -14.8740   20.3340 C   0  0  0  0  0  0  0  0  0  0  0  0
  -30.4060  -12.5580   19.3760 C   0  0  0  0  0  2  0  0  0  0  0  0
  -29.4590  -12.5470   18.1560 C   0  0  0  0  0  2  0  0  0  0  0  0
  -27.9880  -12.3770   18.5980 C   0  0  0  0  0  2  0  0  0  0  0  0
  -27.6060  -13.2800   19.8010 C   0  0  0  0  0  3  0  0  0  0  0  0
  -28.6860  -13.2900   20.9040 C   0  0  0  0  0  2  0  0  0  0  0  0
  -29.9640  -13.6570   20.2700 N   0  0  0  0  0  0  0  0  0  0  0  0
  -31.8540  -14.8780   20.1940 O   0  0  0  0  0  0  0  0  0  0  0  0
  -29.6390  -19.8580   19.5900 C   0  0  0  0  0  3  0  0  0  0  0  0
  -29.8280  -18.4950   19.5200 C   0  0  0  0  0  0  0  0  0  0  0  0
  -29.3790  -17.6110   18.4070 C   0  0  0  0  0  2  0  0  0  0  0  0
  -29.7930  -18.2260   21.9100 C   0  0  0  0  0  2  0  0  0  0  0  0
  -29.9630  -19.8140   22.0540 C   0  0  0  0  0  2  0  0  0  0  0  0
  -29.0350  -16.2910   19.1130 C   0  0  0  0  0  2  0  0  0  0  0  0
  -30.3440  -17.5500   20.6150 C   0  0  0  0  0  3  0  0  0  0  0  0
  -30.0010  -20.7900   20.7810 C   0  0  1  0  0  0  0  0  0  0  0  0
  -29.9060  -16.0950   20.2940 N   0  0  0  0  0  0  0  0  0  0  0  0
  -25.2400  -13.9040   20.5610 C   0  0  0  0  0  0  0  0  0  0  0  0
  -24.1630  -13.1420   20.9240 C   0  0  0  0  0  0  0  0  0  0  0  0
  -24.6100  -11.7850   20.8810 C   0  0  0  0  0  0  0  0  0  0  0  0
  -26.2690  -13.0100   20.3120 N   0  0  0  0  0  0  0  0  0  0  0  0
  -25.9000  -11.7310   20.5700 N   0  0  0  0  0  0  0  0  0  0  0  0
  -23.8690  -10.5310   21.0640 C   0  0  0  0  0  0  0  0  0  0  0  0
  -24.2940   -9.5540   21.9910 C   0  0  0  0  0  3  0  0  0  0  0  0
  -23.5580   -8.3630   22.1610 C   0  0  0  0  0  3  0  0  0  0  0  0
  -22.3820   -8.1420   21.4070 C   0  0  0  0  0  0  0  0  0  0  0  0
  -21.9770   -9.1060   20.4670 C   0  0  0  0  0  3  0  0  0  0  0  0
  -22.7140  -10.2890   20.2950 C   0  0  0  0  0  3  0  0  0  0  0  0
  -21.6150   -7.0040   21.4870 O   0  0  0  0  0  0  0  0  0  0  0  0
  -21.5510   -6.2610   22.6390 C   0  0  0  0  0  0  0  0  0  0  0  0
  -21.1270   -6.8210   23.8630 C   0  0  0  0  0  3  0  0  0  0  0  0
  -21.0020   -6.0070   25.0050 C   0  0  0  0  0  3  0  0  0  0  0  0
  -21.2970   -4.6320   24.9250 C   0  0  0  0  0  0  0  0  0  0  0  0
  -21.7190   -4.0720   23.7070 C   0  0  0  0  0  3  0  0  0  0  0  0
  -21.8400   -4.8850   22.5660 C   0  0  0  0  0  0  0  0  0  0  0  0
  -22.2230   -4.3350   21.3890 F   0  0  0  0  0  0  0  0  0  0  0  0
  -21.1750   -3.8490   26.0230 F   0  0  0  0  0  0  0  0  0  0  0  0
  -22.7720  -13.6350   21.2040 C   0  0  0  0  0  0  0  0  0  0  0  0
  -22.0380  -12.9450   22.0680 N   0  0  0  0  0  0  0  0  0  0  0  0
  -22.3470  -14.6680   20.6910 O   0  0  0  0  0  0  0  0  0  0  0  0
  -22.3960  -12.1060   22.5000 H   0  0  0  0  0  0  0  0  0  0  0  0
  -21.1040  -13.2570   22.2970 H   0  0  0  0  0  0  0  0  0  0  0  0
  -25.4270  -15.2740   20.3970 N   0  0  0  0  0  0  0  0  0  0  0  0
  -24.6860  -15.9480   20.5560 H   0  0  0  0  0  0  0  0  0  0  0  0
  -26.2990  -15.7030   20.1180 H   0  0  0  0  0  0  0  0  0  0  0  0
  -32.2020  -22.0060   21.6440 C   0  0  0  0  0  1  0  0  0  0  0  0
  -31.4670  -21.2430   20.5190 C   0  0  0  0  0  2  0  0  0  0  0  0
  -29.0530  -22.1430   20.9680 C   0  0  0  0  0  2  0  0  0  0  0  0
  -29.2500  -23.6380   20.2950 C   0  0  0  0  0  3  0  0  0  0  0  0
  -28.2670  -24.8980   20.7020 C   0  0  0  0  0  3  0  0  0  0  0  0
  -28.4450  -26.3450   20.2540 O   0  0  0  0  0  0  0  0  0  0  0  0
  -24.6820  -31.8690   23.2060 C   0  0  0  0  0  0  0  0  0  0  0  0
  -27.3350  -27.2380   20.2220 C   0  0  0  0  0  0  0  0  0  0  0  0
  -23.4940  -30.4540   21.5670 C   0  0  0  0  0  3  0  0  0  0  0  0
  -24.9650  -28.8890   20.1620 C   0  0  0  0  0  0  0  0  0  0  0  0
  -26.0350  -30.7720   21.3950 C   0  0  0  0  0  2  0  0  0  0  0  0
  -26.1320  -29.3800   20.7650 C   0  0  0  0  0  0  0  0  0  0  0  0
  -27.3180  -28.5670   20.7790 C   0  0  0  0  0  3  0  0  0  0  0  0
  -26.1450  -26.8270   19.5810 C   0  0  0  0  0  3  0  0  0  0  0  0
  -24.9790  -27.6230   19.5560 C   0  0  0  0  0  3  0  0  0  0  0  0
  -23.7250  -29.7650   20.1950 C   0  0  0  0  0  2  0  0  0  0  0  0
  -24.7570  -31.0510   22.1120 N   0  0  0  0  0  0  0  0  0  0  0  0
  -23.5950  -32.1440   23.7340 O   0  0  0  0  0  0  0  0  0  0  0  0
  -22.8280  -29.4450   22.5350 C   0  0  0  0  0  0  0  0  0  0  0  0
  -21.5000  -29.2700   22.4160 N   0  0  0  0  0  0  0  0  0  0  0  0
  -23.5070  -28.8200   23.3540 O   0  0  0  0  0  0  0  0  0  0  0  0
  -21.0100  -29.8270   21.7280 H   0  0  0  0  0  0  0  0  0  0  0  0
  -18.1220  -28.0770   22.9310 C   0  0  0  0  0  0  0  0  0  0  0  0
  -20.6820  -28.3340   23.1910 C   0  0  0  0  0  3  0  0  0  0  0  0
  -20.7790  -26.9020   22.6160 C   0  0  0  0  0  2  0  0  0  0  0  0
  -19.6730  -26.5810   21.6060 C   0  0  0  0  0  2  0  0  0  0  0  0
  -18.2940  -26.7270   22.2540 C   0  0  0  0  0  2  0  0  0  0  0  0
  -19.2430  -28.8380   23.3570 C   0  0  0  0  0  0  0  0  0  0  0  0
  -19.0270  -30.1000   23.9520 C   0  0  0  0  0  3  0  0  0  0  0  0
  -17.7240  -30.6020   24.1230 C   0  0  0  0  0  3  0  0  0  0  0  0
  -16.6170  -29.8380   23.7140 C   0  0  0  0  0  3  0  0  0  0  0  0
  -16.8170  -28.5780   23.1230 C   0  0  0  0  0  3  0  0  0  0  0  0
  -25.9580  -32.5140   23.8310 C   0  0  0  0  0  3  0  0  0  0  0  0
  -26.4850  -31.7400   25.1020 C   0  0  1  0  0  0  0  0  0  0  0  0
  -25.3970  -31.4900   26.1720 C   0  0  0  0  0  1  0  0  0  0  0  0
  -27.0780  -30.3690   24.7020 C   0  0  0  0  0  1  0  0  0  0  0  0
  -27.6280  -32.5400   25.7660 C   0  0  0  0  0  1  0  0  0  0  0  0
  -25.6310  -33.9070   24.1750 N   0  0  0  0  0  0  0  0  0  0  0  0
  -25.9400  -34.9700   23.4220 C   0  0  0  0  0  0  0  0  0  0  0  0
  -26.5970  -34.8840   22.3810 O   0  0  0  0  0  0  0  0  0  0  0  0
  -25.0440  -34.0450   24.9850 H   0  0  0  0  0  0  0  0  0  0  0  0
  -24.1770  -36.7410   23.1170 C   0  0  0  0  0  1  0  0  0  0  0  0
  -25.4400  -36.3490   23.8990 C   0  0  0  0  0  3  0  0  0  0  0  0
  -27.5810  -37.2600   24.6870 C   0  0  0  0  0  1  0  0  0  0  0  0
  -26.4530  -37.4190   23.7720 N   0  0  0  0  0  0  0  0  0  0  0  0
  -26.0360  -38.3300   23.9410 H   0  0  0  0  0  0  0  0  0  0  0  0
  2  7  1  0
  3  4  1  0
  3  2  1  0
  5  4  1  0
  5 21  1  0
  5  6  1  0
  7  1  1  0
  7  6  1  0
  8  1  2  0
  9 16  1  0
 10  9  2  0
 10 15  1  0
 11 14  1  0
 11 10  1  0
 12 13  1  0
 14 17  1  0
 15 12  1  0
 16 47  1  6
 16 48  1  0
 16 13  1  0
 17  1  1  0
 17 15  1  0
 18 19  2  0
 19 38  1  0
 20 19  1  0
 20 23  1  0
 21 18  1  0
 21 22  1  0
 22 20  2  0
 23 24  1  0
 24 25  2  0
 26 29  1  0
 26 25  1  0
 27 26  2  0
 28 27  1  0
 28 23  2  0
 29 30  1  0
 30 31  1  0
 31 32  2  0
 33 32  1  0
 33 37  1  0
 34 33  2  0
 35 30  2  0
 35 34  1  0
 36 35  1  0
 38 39  1  0
 39 42  1  0
 39 41  1  0
 40 38  2  0
 43 44  1  0
 43 18  1  0
 45 43  1  0
 47 46  1  0
 49 50  2  0
 49 48  1  0
 51 50  1  0
 52 63  2  0
 53 51  1  0
 53 58  1  0
 54 62  1  0
 54 64  1  0
 55 61  1  0
 55 57  1  0
 56 62  1  0
 57 58  2  0
 57 56  1  0
 59 53  2  0
 60 59  1  0
 60 55  2  0
 61 54  1  0
 62 52  1  0
 64 66  2  0
 65 64  1  0
 67 65  1  0
 68 77  2  0
 68 73  1  0
 69 65  1  0
 69 73  1  0
 70 69  1  0
 71 72  1  0
 71 70  1  0
 72 68  1  0
 73 74  2  0
 74 75  1  0
 76 75  2  0
 77 76  1  0
 78 52  1  0
 78 83  1  0
 78 79  1  0
 79 82  1  1
 79 80  1  0
 81 79  1  0
 83 86  1  0
 84 88  1  0
 84 83  1  0
 85 84  2  0
 88 87  1  0
 90 88  1  0
 90 91  1  0
 90 89  1  0
M  ISO  4   1 100  17 100  50 101  51 101
M  END
>  <TORSDO>  (71) 
F 19

>  <SCORE>  (71) 
-12.999

>  <name>  (71) 
70

>  <ligand_id>  (71) 
70

>  <original_smiles>  (71) 
[H]C1=C2C([H])([H])C([H])([H])N(C(=O)N3C([H])([H])C([H])([H])C([H])([H])C([H])(n4nc(-c5c([H])c([H])c(Oc6c([H])c([H])c(F)c([H])c6F)c([H])c5[H])c(C(=O)N([H])[H])c4N([H])[H])C3([H])[H])C2([H])C([H])([H])C([H])([H])C1(C([H])([H])C([H])([H])[H])C([H])([H])C([H])([H])C([H])([H])Oc1c([H])c([H])c2c(c1[H])C([H])([H])N(C(=O)C([H])(N([H])C(=O)C([H])(N([H])C([H])([H])[H])C([H])([H])[H])C(C([H])([H])[H])(C([H])([H])[H])C([H])([H])[H])C([H])(C(=O)N([H])C1([H])c3c([H])c([H])c([H])c([H])c3C([H])([H])C([H])([H])C1([H])[H])C2([H])[H]

>  <smiles>  (71) 
[H]C1=C2C([H])([H])C([H])([H])N(C(=O)N3C([H])([H])C([H])([H])C([H])([H])C([H])(n4nc(-c5c([H])c([H])c(Oc6c([H])c([H])c(F)c([H])c6F)c([H])c5[H])c(C(=O)N([H])[H])c4N([H])[H])C3([H])[H])C2([H])C([H])([H])C([H])([H])C1(C([H])([H])C([H])([H])[H])C([H])([H])C([H])([H])C([H])([H])Oc1c([H])c([H])c2c(c1[H])C([H])([H])N(C(=O)C([H])(N([H])C(=O)C([H])(N([H])C([H])([H])[H])C([H])([H])[H])C(C([H])([H])[H])(C([H])([H])[H])C([H])([H])[H])C([H])(C(=O)N([H])C1([H])c3c([H])c([H])c([H])c([H])c3C([H])([H])C([H])([H])C1([H])[H])C2([H])[H]

$$$$
71:0:0
     RDKit          3D

 96104  0  0  1  0  0  0  0  0999 V2000
  -31.3500  -24.2210   17.9850 C   0  0  0  0  0  2  0  0  0  0  0  0
  -31.0590  -25.8160   19.9000 C   0  0  0  0  0  2  0  0  0  0  0  0
  -29.1360  -24.2180   19.3420 C   0  0  0  0  0  2  0  0  0  0  0  0
  -30.3630  -26.1220   21.2370 C   0  0  0  0  0  2  0  0  0  0  0  0
  -28.4550  -24.5980   20.6690 C   0  0  0  0  0  2  0  0  0  0  0  0
  -30.6820  -24.4170   19.3660 C   0  0  0  0  0  3  0  0  0  0  0  0
  -28.8380  -26.0230   21.0770 C   0  0  0  0  0  3  0  0  0  0  0  0
  -28.4580  -26.8670   20.0030 O   0  0  0  0  0  0  0  0  0  0  0  0
  -24.6210  -31.8860   23.2300 C   0  0  0  0  0  0  0  0  0  0  0  0
  -27.2590  -27.5020   20.1230 C   0  0  0  0  0  0  0  0  0  0  0  0
  -23.3970  -30.4740   21.5990 C   0  0  0  0  0  3  0  0  0  0  0  0
  -24.8440  -28.9400   20.1680 C   0  0  0  0  0  0  0  0  0  0  0  0
  -25.9120  -30.8570   21.3720 C   0  0  0  0  0  2  0  0  0  0  0  0
  -25.9970  -29.4850   20.7500 C   0  0  0  0  0  0  0  0  0  0  0  0
  -27.2080  -28.7670   20.7340 C   0  0  0  0  0  3  0  0  0  0  0  0
  -26.1010  -26.9540   19.5330 C   0  0  0  0  0  3  0  0  0  0  0  0
  -24.8870  -27.6700   19.5620 C   0  0  0  0  0  3  0  0  0  0  0  0
  -23.5960  -29.7880   20.2190 C   0  0  0  0  0  2  0  0  0  0  0  0
  -24.6600  -31.0890   22.1250 N   0  0  0  0  0  0  0  0  0  0  0  0
  -23.5480  -32.1550   23.7850 O   0  0  0  0  0  0  0  0  0  0  0  0
  -22.7640  -29.4520   22.5690 C   0  0  0  0  0  0  0  0  0  0  0  0
  -21.4390  -29.2710   22.4560 N   0  0  0  0  0  0  0  0  0  0  0  0
  -23.4580  -28.8260   23.3730 O   0  0  0  0  0  0  0  0  0  0  0  0
  -20.9410  -29.8350   21.7820 H   0  0  0  0  0  0  0  0  0  0  0  0
  -18.0720  -28.0750   22.9650 C   0  0  0  0  0  0  0  0  0  0  0  0
  -20.6290  -28.3330   23.2310 C   0  0  0  0  0  3  0  0  0  0  0  0
  -20.7280  -26.8980   22.6560 C   0  0  0  0  0  2  0  0  0  0  0  0
  -19.6220  -26.5730   21.6440 C   0  0  0  0  0  2  0  0  0  0  0  0
  -18.2450  -26.7190   22.2970 C   0  0  0  0  0  2  0  0  0  0  0  0
  -19.1920  -28.8370   23.3890 C   0  0  0  0  0  0  0  0  0  0  0  0
  -18.9750  -30.1040   23.9700 C   0  0  0  0  0  3  0  0  0  0  0  0
  -17.6710  -30.6090   24.1360 C   0  0  0  0  0  3  0  0  0  0  0  0
  -16.5650  -29.8400   23.7330 C   0  0  0  0  0  3  0  0  0  0  0  0
  -16.7660  -28.5750   23.1520 C   0  0  0  0  0  3  0  0  0  0  0  0
  -25.9170  -32.5150   23.8300 C   0  0  0  0  0  3  0  0  0  0  0  0
  -26.4640  -31.7280   25.0840 C   0  0  1  0  0  0  0  0  0  0  0  0
  -25.3980  -31.4660   26.1750 C   0  0  0  0  0  1  0  0  0  0  0  0
  -27.0450  -30.3630   24.6490 C   0  0  0  0  0  1  0  0  0  0  0  0
  -27.6220  -32.5220   25.7320 C   0  0  0  0  0  1  0  0  0  0  0  0
  -25.6110  -33.9080   24.1810 N   0  0  0  0  0  0  0  0  0  0  0  0
  -25.9320  -34.9660   23.4260 C   0  0  0  0  0  0  0  0  0  0  0  0
  -26.5890  -34.8740   22.3870 O   0  0  0  0  0  0  0  0  0  0  0  0
  -25.0200  -34.0450   24.9880 H   0  0  0  0  0  0  0  0  0  0  0  0
  -24.1900  -36.7490   23.1080 C   0  0  0  0  0  1  0  0  0  0  0  0
  -25.4450  -36.3490   23.8990 C   0  0  0  0  0  3  0  0  0  0  0  0
  -27.5930  -37.2310   24.6970 C   0  0  0  0  0  1  0  0  0  0  0  0
  -26.4700  -37.4090   23.7820 N   0  0  0  0  0  0  0  0  0  0  0  0
  -26.0600  -38.3230   23.9560 H   0  0  0  0  0  0  0  0  0  0  0  0
  -31.1170  -22.8370   17.3590 C   0  0  0  0  0  2  0  0  0  0  0  0
  -32.3690  -21.9380   17.3570 C   0  0  0  0  0  2  0  0  0  0  0  0
  -32.0110  -20.4600   17.1090 C   0  0  0  0  0  2  0  0  0  0  0  0
  -31.1410  -19.9620   18.2020 N   0  0  0  0  0  4  0  0  0  0  0  0
  -30.5080  -20.7170   18.4040 H   0  0  0  0  0  0  0  0  0  0  0  0
  -31.6910  -19.7880   19.0280 H   0  0  0  0  0  0  0  0  0  0  0  0
  -30.3050  -18.7840   17.8950 C   0  0  0  0  0  2  0  0  0  0  0  0
  -29.1380  -18.6170   18.9150 C   0  0  0  0  0  2  0  0  0  0  0  0
  -29.4160  -17.8120   20.2050 C   0  0  0  0  0  2  0  0  0  0  0  0
  -30.1260  -16.5100   19.8790 C   0  0  0  0  0  2  0  0  0  0  0  0
  -30.7030  -14.3810   20.6700 C   0  0  0  0  0  0  0  0  0  0  0  0
  -30.3560  -12.2420   19.5430 C   0  0  0  0  0  2  0  0  0  0  0  0
  -29.4670  -12.4840   18.3020 C   0  0  0  0  0  2  0  0  0  0  0  0
  -27.9670  -12.4220   18.6670 C   0  0  0  0  0  2  0  0  0  0  0  0
  -27.6120  -13.2500   19.9330 C   0  0  0  0  0  3  0  0  0  0  0  0
  -28.6320  -12.9820   21.0690 C   0  0  0  0  0  2  0  0  0  0  0  0
  -29.9880  -13.2370   20.5540 N   0  0  0  0  0  0  0  0  0  0  0  0
  -31.8650  -14.5070   20.2710 O   0  0  0  0  0  0  0  0  0  0  0  0
  -29.9640  -15.4660   20.8800 N   0  0  0  0  0  0  0  0  0  0  0  0
  -29.0470  -15.3330   21.2830 H   0  0  0  0  0  0  0  0  0  0  0  0
  -25.1910  -13.8740   20.5600 C   0  0  0  0  0  0  0  0  0  0  0  0
  -24.1140  -13.1080   20.9150 C   0  0  0  0  0  0  0  0  0  0  0  0
  -24.5740  -11.7530   20.9170 C   0  0  0  0  0  0  0  0  0  0  0  0
  -26.2410  -12.9890   20.3720 N   0  0  0  0  0  0  0  0  0  0  0  0
  -25.8720  -11.7100   20.6440 N   0  0  0  0  0  0  0  0  0  0  0  0
  -23.8460  -10.4930   21.1020 C   0  0  0  0  0  0  0  0  0  0  0  0
  -24.2830   -9.5200   22.0310 C   0  0  0  0  0  3  0  0  0  0  0  0
  -23.5560   -8.3210   22.2040 C   0  0  0  0  0  3  0  0  0  0  0  0
  -22.3810   -8.0890   21.4490 C   0  0  0  0  0  0  0  0  0  0  0  0
  -21.9680   -9.0490   20.5090 C   0  0  0  0  0  3  0  0  0  0  0  0
  -22.6930  -10.2380   20.3330 C   0  0  0  0  0  3  0  0  0  0  0  0
  -21.6250   -6.9430   21.5360 O   0  0  0  0  0  0  0  0  0  0  0  0
  -21.5990   -6.1790   22.6730 C   0  0  0  0  0  0  0  0  0  0  0  0
  -21.2290   -6.7170   23.9270 C   0  0  0  0  0  3  0  0  0  0  0  0
  -21.1520   -5.8800   25.0570 C   0  0  0  0  0  3  0  0  0  0  0  0
  -21.4370   -4.5060   24.9380 C   0  0  0  0  0  0  0  0  0  0  0  0
  -21.7990   -3.9670   23.6900 C   0  0  0  0  0  3  0  0  0  0  0  0
  -21.8780   -4.8020   22.5620 C   0  0  0  0  0  0  0  0  0  0  0  0
  -22.2070   -4.2740   21.3580 F   0  0  0  0  0  0  0  0  0  0  0  0
  -21.3540   -3.6990   26.0220 F   0  0  0  0  0  0  0  0  0  0  0  0
  -22.7080  -13.5810   21.1430 C   0  0  0  0  0  0  0  0  0  0  0  0
  -21.9600  -12.9000   22.0040 N   0  0  0  0  0  0  0  0  0  0  0  0
  -22.2820  -14.5950   20.5910 O   0  0  0  0  0  0  0  0  0  0  0  0
  -22.3140  -12.0790   22.4760 H   0  0  0  0  0  0  0  0  0  0  0  0
  -21.0150  -13.2050   22.1910 H   0  0  0  0  0  0  0  0  0  0  0  0
  -25.3700  -15.2410   20.3630 N   0  0  0  0  0  0  0  0  0  0  0  0
  -24.6160  -15.9160   20.4100 H   0  0  0  0  0  0  0  0  0  0  0  0
  -26.2430  -15.6480   20.0520 H   0  0  0  0  0  0  0  0  0  0  0  0
  2  4  1  0
  3  6  1  0
  3  5  1  0
  5  7  1  0
  6  1  1  0
  6  2  1  0
  7  8  1  0
  7  4  1  0
  8 10  1  0
  9 20  2  0
 10 15  1  0
 11 19  1  0
 11 21  1  0
 12 18  1  0
 12 14  1  0
 13 19  1  0
 14 13  1  0
 15 14  2  0
 16 17  1  0
 16 10  2  0
 17 12  2  0
 18 11  1  0
 19  9  1  0
 21 23  2  0
 22 21  1  0
 24 22  1  0
 25 34  2  0
 25 30  1  0
 26 22  1  0
 26 30  1  0
 27 26  1  0
 28 29  1  0
 28 27  1  0
 29 25  1  0
 30 31  2  0
 31 32  1  0
 33 32  2  0
 34 33  1  0
 35  9  1  0
 35 40  1  0
 35 36  1  0
 36 39  1  1
 36 37  1  0
 38 36  1  0
 40 43  1  0
 41 45  1  0
 41 40  1  0
 42 41  2  0
 45 44  1  0
 47 45  1  0
 47 48  1  0
 47 46  1  0
 49  1  1  0
 50 49  1  0
 51 50  1  0
 51 52  1  0
 52 53  1  0
 52 54  1  0
 55 52  1  0
 55 56  1  0
 56 57  1  0
 58 57  1  0
 58 67  1  0
 59 67  1  0
 60 65  1  0
 61 62  1  0
 61 60  1  0
 63 62  1  0
 63 72  1  0
 63 64  1  0
 65 59  1  0
 65 64  1  0
 66 59  2  0
 67 68  1  0
 69 70  2  0
 70 71  1  0
 70 89  1  0
 71 74  1  0
 72 69  1  0
 72 73  1  0
 73 71  2  0
 74 75  1  0
 75 76  2  0
 77 80  1  0
 77 76  1  0
 78 77  2  0
 79 78  1  0
 79 74  2  0
 80 81  1  0
 81 82  1  0
 82 83  2  0
 84 83  1  0
 84 88  1  0
 85 84  2  0
 86 81  2  0
 86 85  1  0
 87 86  1  0
 89 90  1  0
 90 93  1  0
 90 92  1  0
 91 89  2  0
 94 95  1  0
 94 69  1  0
 96 94  1  0
M  ISO  4   7 101   8 101  59 100  67 100
M  END
>  <TORSDO>  (72) 
F 25

>  <SCORE>  (72) 
-12.072

>  <name>  (72) 
71

>  <ligand_id>  (72) 
71

>  <original_smiles>  (72) 
[H]c1c([H])c([H])c2c(c1[H])C([H])([H])C([H])([H])C([H])([H])C2([H])N([H])C(=O)C1([H])N(C(=O)C([H])(N([H])C(=O)C([H])(N([H])C([H])([H])[H])C([H])([H])[H])C(C([H])([H])[H])(C([H])([H])[H])C([H])([H])[H])C([H])([H])c2c([H])c(OC3([H])C([H])([H])C([H])([H])C([H])(C([H])([H])C([H])([H])C([H])([H])C([H])([H])[N+]([H])([H])C([H])([H])C([H])([H])C([H])([H])C([H])([H])N([H])C(=O)N4C([H])([H])C([H])([H])C([H])([H])C([H])(n5nc(-c6c([H])c([H])c(Oc7c([H])c([H])c(F)c([H])c7F)c([H])c6[H])c(C(=O)N([H])[H])c5N([H])[H])C4([H])[H])C([H])([H])C3([H])[H])c([H])c([H])c2C1([H])[H]

>  <smiles>  (72) 
[H]c1c([H])c([H])c2c(c1[H])C([H])([H])C([H])([H])C([H])([H])C2([H])N([H])C(=O)C1([H])N(C(=O)C([H])(N([H])C(=O)C([H])(N([H])C([H])([H])[H])C([H])([H])[H])C(C([H])([H])[H])(C([H])([H])[H])C([H])([H])[H])C([H])([H])c2c([H])c(OC3([H])C([H])([H])C([H])([H])C([H])(C([H])([H])C([H])([H])C([H])([H])C([H])([H])[N+]([H])([H])C([H])([H])C([H])([H])C([H])([H])C([H])([H])N([H])C(=O)N4C([H])([H])C([H])([H])C([H])([H])C([H])(n5nc(-c6c([H])c([H])c(Oc7c([H])c([H])c(F)c([H])c7F)c([H])c6[H])c(C(=O)N([H])[H])c5N([H])[H])C4([H])[H])C([H])([H])C3([H])[H])c([H])c([H])c2C1([H])[H]

$$$$
72:0:0
     RDKit          3D

102111  0  0  1  0  0  0  0  0999 V2000
  -28.2870  -16.6220   21.2860 C   0  0  0  0  0  2  0  0  0  0  0  0
  -26.9110  -17.3230   21.1340 C   0  0  0  0  0  2  0  0  0  0  0  0
  -29.1740  -18.0440   19.4460 C   0  0  0  0  0  2  0  0  0  0  0  0
  -29.4520  -17.5410   20.8660 C   0  0  0  0  0  3  0  0  0  0  0  0
  -26.6300  -17.7900   19.6830 C   0  0  0  0  0  3  0  0  0  0  0  0
  -27.7950  -18.7090   19.2460 C   0  0  0  0  0  3  0  0  0  0  0  0
  -27.6750  -19.1660   17.7810 C   0  0  0  0  0  2  0  0  0  0  0  0
  -27.4940  -21.6550   17.3650 C   0  0  0  0  0  2  0  0  0  0  0  0
  -29.4440  -20.3740   16.3480 C   0  0  0  0  0  2  0  0  0  0  0  0
  -28.0150  -22.6860   16.3550 C   0  0  0  0  0  2  0  0  0  0  0  0
  -30.2760  -21.6750   16.2400 C   0  0  0  0  0  2  0  0  0  0  0  0
  -28.4540  -20.4610   17.5260 C   0  0  0  0  0  3  0  0  0  0  0  0
  -29.4780  -22.9140   16.5190 N   0  0  2  0  0  4  0  0  0  0  0  0
  -29.7430  -23.5490   15.7810 H   0  0  0  0  0  0  0  0  0  0  0  0
  -29.8180  -23.6020   17.8100 C   0  0  0  0  0  2  0  0  0  0  0  0
  -30.4790  -24.9950   17.6020 C   0  0  0  0  0  2  0  0  0  0  0  0
  -30.4140  -25.8480   18.7630 O   0  0  0  0  0  0  0  0  0  0  0  0
  -26.4190  -29.1440   23.6930 C   0  0  0  0  0  0  0  0  0  0  0  0
  -29.2220  -26.4910   19.0540 C   0  0  0  0  0  0  0  0  0  0  0  0
  -25.2870  -28.6020   21.5640 C   0  0  0  0  0  3  0  0  0  0  0  0
  -26.8030  -27.8350   19.6710 C   0  0  0  0  0  0  0  0  0  0  0  0
  -27.8150  -28.9780   21.6390 C   0  0  0  0  0  2  0  0  0  0  0  0
  -27.9310  -28.0180   20.4770 C   0  0  0  0  0  0  0  0  0  0  0  0
  -29.1350  -27.3320   20.1890 C   0  0  0  0  0  3  0  0  0  0  0  0
  -28.0750  -26.3590   18.2370 C   0  0  0  0  0  3  0  0  0  0  0  0
  -26.8670  -26.9970   18.5510 C   0  0  0  0  0  3  0  0  0  0  0  0
  -25.5530  -28.5960   20.0400 C   0  0  0  0  0  2  0  0  0  0  0  0
  -26.5220  -28.8980   22.3580 N   0  0  0  0  0  0  0  0  0  0  0  0
  -25.3170  -29.1600   24.2570 O   0  0  0  0  0  0  0  0  0  0  0  0
  -24.6150  -27.2660   21.9570 C   0  0  0  0  0  0  0  0  0  0  0  0
  -23.3210  -27.1270   21.6230 N   0  0  0  0  0  0  0  0  0  0  0  0
  -25.2560  -26.3750   22.5220 O   0  0  0  0  0  0  0  0  0  0  0  0
  -22.8600  -27.9040   21.1660 H   0  0  0  0  0  0  0  0  0  0  0  0
  -20.0180  -25.7340   21.1530 C   0  0  0  0  0  0  0  0  0  0  0  0
  -22.4960  -25.9420   21.8560 C   0  0  0  0  0  3  0  0  0  0  0  0
  -22.7790  -24.8480   20.8000 C   0  0  0  0  0  2  0  0  0  0  0  0
  -21.8330  -24.9060   19.5970 C   0  0  0  0  0  2  0  0  0  0  0  0
  -20.3800  -24.7460   20.0560 C   0  0  0  0  0  2  0  0  0  0  0  0
  -21.0120  -26.3090   21.9880 C   0  0  0  0  0  0  0  0  0  0  0  0
  -20.6250  -27.2420   22.9720 C   0  0  0  0  0  3  0  0  0  0  0  0
  -19.2720  -27.5990   23.1300 C   0  0  0  0  0  3  0  0  0  0  0  0
  -18.2910  -27.0210   22.3070 C   0  0  0  0  0  3  0  0  0  0  0  0
  -18.6640  -26.0870   21.3240 C   0  0  0  0  0  3  0  0  0  0  0  0
  -27.6770  -29.4390   24.5680 C   0  0  0  0  0  3  0  0  0  0  0  0
  -28.1520  -28.1910   25.4050 C   0  0  1  0  0  0  0  0  0  0  0  0
  -27.0230  -27.5320   26.2330 C   0  0  0  0  0  1  0  0  0  0  0  0
  -28.7540  -27.1100   24.4790 C   0  0  0  0  0  1  0  0  0  0  0  0
  -29.2740  -28.6160   26.3820 C   0  0  0  0  0  1  0  0  0  0  0  0
  -27.3440  -30.5610   25.4550 N   0  0  0  0  0  0  0  0  0  0  0  0
  -27.7740  -31.8190   25.2840 C   0  0  0  0  0  0  0  0  0  0  0  0
  -28.5590  -32.1450   24.3890 O   0  0  0  0  0  0  0  0  0  0  0  0
  -26.6670  -30.3740   26.1800 H   0  0  0  0  0  0  0  0  0  0  0  0
  -26.1370  -33.7100   25.5710 C   0  0  0  0  0  1  0  0  0  0  0  0
  -27.2430  -32.8910   26.2590 C   0  0  0  0  0  3  0  0  0  0  0  0
  -29.2480  -33.1380   27.6530 C   0  0  0  0  0  1  0  0  0  0  0  0
  -28.2950  -33.7980   26.7660 N   0  0  0  0  0  0  0  0  0  0  0  0
  -27.8850  -34.5820   27.2680 H   0  0  0  0  0  0  0  0  0  0  0  0
  -30.8760  -16.9190   20.8760 C   0  0  0  0  0  2  0  0  0  0  0  0
  -31.1820  -15.8810   21.9740 C   0  0  0  0  0  2  0  0  0  0  0  0
  -30.9750  -13.9860   20.3940 C   0  0  0  0  0  0  0  0  0  0  0  0
  -30.3990  -12.1850   18.8070 C   0  0  0  0  0  2  0  0  0  0  0  0
  -29.3990  -12.7050   17.7580 C   0  0  0  0  0  2  0  0  0  0  0  0
  -27.9460  -12.5690   18.2590 C   0  0  0  0  0  2  0  0  0  0  0  0
  -27.7610  -13.1650   19.6850 C   0  0  0  0  0  3  0  0  0  0  0  0
  -28.8660  -12.6520   20.6370 C   0  0  0  0  0  2  0  0  0  0  0  0
  -30.1880  -12.9400   20.0530 N   0  0  0  0  0  0  0  0  0  0  0  0
  -31.9120  -14.3860   19.6870 O   0  0  0  0  0  0  0  0  0  0  0  0
  -30.6940  -14.5620   21.5700 N   0  0  0  0  0  0  0  0  0  0  0  0
  -29.9990  -14.1160   22.1560 H   0  0  0  0  0  0  0  0  0  0  0  0
  -25.4450  -13.7620   20.6620 C   0  0  0  0  0  0  0  0  0  0  0  0
  -24.3830  -12.9910   21.0370 C   0  0  0  0  0  0  0  0  0  0  0  0
  -24.7750  -11.6390   20.7980 C   0  0  0  0  0  0  0  0  0  0  0  0
  -26.4350  -12.8850   20.2380 N   0  0  0  0  0  0  0  0  0  0  0  0
  -26.0300  -11.5940   20.3610 N   0  0  0  0  0  0  0  0  0  0  0  0
  -24.0030  -10.3950   20.8890 C   0  0  0  0  0  0  0  0  0  0  0  0
  -24.5120   -9.2540   21.5450 C   0  0  0  0  0  3  0  0  0  0  0  0
  -23.7420   -8.0740   21.6250 C   0  0  0  0  0  3  0  0  0  0  0  0
  -22.4460   -8.0270   21.0580 C   0  0  0  0  0  0  0  0  0  0  0  0
  -21.9540   -9.1610   20.3890 C   0  0  0  0  0  3  0  0  0  0  0  0
  -22.7260  -10.3310   20.3020 C   0  0  0  0  0  3  0  0  0  0  0  0
  -21.6390   -6.9150   21.0690 O   0  0  0  0  0  0  0  0  0  0  0  0
  -21.7650   -5.9370   22.0220 C   0  0  0  0  0  0  0  0  0  0  0  0
  -21.6840   -6.2270   23.4020 C   0  0  0  0  0  3  0  0  0  0  0  0
  -21.7650   -5.1830   24.3460 C   0  0  0  0  0  3  0  0  0  0  0  0
  -21.9050   -3.8510   23.9120 C   0  0  0  0  0  0  0  0  0  0  0  0
  -21.9750   -3.5630   22.5370 C   0  0  0  0  0  3  0  0  0  0  0  0
  -21.9020   -4.6020   21.5950 C   0  0  0  0  0  0  0  0  0  0  0  0
  -21.9530   -4.3200   20.2700 F   0  0  0  0  0  0  0  0  0  0  0  0
  -21.9740   -2.8430   24.8130 F   0  0  0  0  0  0  0  0  0  0  0  0
  -23.0370  -13.4860   21.4840 C   0  0  0  0  0  0  0  0  0  0  0  0
  -22.3440  -12.7370   22.3320 N   0  0  0  0  0  0  0  0  0  0  0  0
  -22.6210  -14.5850   21.1200 O   0  0  0  0  0  0  0  0  0  0  0  0
  -22.6800  -11.8460   22.6750 H   0  0  0  0  0  0  0  0  0  0  0  0
  -21.4470  -13.0710   22.6530 H   0  0  0  0  0  0  0  0  0  0  0  0
  -25.6250  -15.1370   20.6180 N   0  0  0  0  0  0  0  0  0  0  0  0
  -24.8170  -15.7370   20.7250 H   0  0  0  0  0  0  0  0  0  0  0  0
  -26.4210  -15.5950   20.1960 H   0  0  0  0  0  0  0  0  0  0  0  0
  -25.2290  -18.4770   19.5360 C   0  0  0  0  0  2  0  0  0  0  0  0
  -24.5460  -18.1590   18.2600 N   0  0  0  0  0  4  0  0  0  0  0  0
  -24.1870  -17.2200   18.2710 H   0  0  0  0  0  0  0  0  0  0  0  0
  -25.1490  -18.2650   17.4620 H   0  0  0  0  0  0  0  0  0  0  0  0
  -23.7650  -18.7800   18.1290 H   0  0  0  0  0  0  0  0  0  0  0  0
  2  1  1  0
  3  4  1  0
  4 58  1  0
  4  1  1  0
  5 98  1  0
  5  2  1  0
  6  7  1  0
  6  3  1  0
  6  5  1  0
  8 12  1  0
  9 12  1  0
 10 13  1  0
 10  8  1  0
 11  9  1  0
 11 13  1  0
 12  7  1  0
 13 15  1  0
 13 14  1  6
 16 15  1  0
 16 17  1  0
 17 19  1  0
 18 29  2  0
 19 24  1  0
 20 30  1  0
 20 28  1  0
 21 27  1  0
 21 23  1  0
 22 28  1  0
 23 22  1  0
 24 23  2  0
 25 26  1  0
 25 19  2  0
 26 21  2  0
 27 20  1  0
 28 18  1  0
 30 32  2  0
 31 30  1  0
 33 31  1  0
 34 43  2  0
 34 39  1  0
 35 31  1  0
 35 39  1  0
 36 35  1  0
 37 38  1  0
 37 36  1  0
 38 34  1  0
 39 40  2  0
 40 41  1  0
 42 41  2  0
 43 42  1  0
 44 18  1  0
 44 45  1  0
 44 49  1  0
 45 46  1  1
 45 48  1  0
 47 45  1  0
 49 52  1  0
 50 49  1  0
 50 54  1  0
 51 50  2  0
 54 53  1  0
 54 56  1  0
 56 57  1  0
 56 55  1  0
 58 59  1  0
 60 68  1  0
 61 66  1  0
 62 63  1  0
 62 61  1  0
 64 63  1  0
 64 73  1  0
 64 65  1  0
 66 60  1  0
 66 65  1  0
 67 60  2  0
 68 59  1  0
 68 69  1  0
 70 71  2  0
 71 90  1  0
 72 75  1  0
 72 71  1  0
 73 74  1  0
 73 70  1  0
 74 72  2  0
 75 76  1  0
 76 77  2  0
 78 81  1  0
 78 77  1  0
 79 78  2  0
 80 79  1  0
 80 75  2  0
 81 82  1  0
 82 83  1  0
 83 84  2  0
 85 84  1  0
 85 89  1  0
 86 85  2  0
 87 82  2  0
 87 86  1  0
 88 87  1  0
 90 91  1  0
 91 94  1  0
 91 93  1  0
 92 90  2  0
 95 70  1  0
 95 96  1  0
 97 95  1  0
 99100  1  0
 99 98  1  0
101 99  1  0
102 99  1  0
M  ISO  4  16 101  17 101  60 100  68 100
M  END
>  <TORSDO>  (73) 
F 24

>  <SCORE>  (73) 
-4.022

>  <name>  (73) 
72

>  <ligand_id>  (73) 
72

>  <original_smiles>  (73) 
[H]c1c([H])c([H])c2c(c1[H])C([H])([H])C([H])([H])C([H])([H])C2([H])N([H])C(=O)C1([H])N(C(=O)C([H])(N([H])C(=O)C([H])(N([H])C([H])([H])[H])C([H])([H])[H])C(C([H])([H])[H])(C([H])([H])[H])C([H])([H])[H])C([H])([H])c2c([H])c(OC([H])([H])C([H])([H])[N+]3([H])C([H])([H])C([H])([H])C([H])(C([H])([H])C4([H])C([H])([H])C([H])(C([H])([H])C([H])([H])N([H])C(=O)N5C([H])([H])C([H])([H])C([H])([H])C([H])(n6nc(-c7c([H])c([H])c(Oc8c([H])c([H])c(F)c([H])c8F)c([H])c7[H])c(C(=O)N([H])[H])c6N([H])[H])C5([H])[H])C([H])([H])C([H])([H])C4([H])C([H])([H])[N+]([H])([H])[H])C([H])([H])C3([H])[H])c([H])c([H])c2C1([H])[H]

>  <smiles>  (73) 
[H]c1c([H])c([H])c2c(c1[H])C([H])([H])C([H])([H])C([H])([H])C2([H])N([H])C(=O)C1([H])N(C(=O)C([H])(N([H])C(=O)C([H])(N([H])C([H])([H])[H])C([H])([H])[H])C(C([H])([H])[H])(C([H])([H])[H])C([H])([H])[H])C([H])([H])c2c([H])c(OC([H])([H])C([H])([H])[N+]3([H])C([H])([H])C([H])([H])C([H])(C([H])([H])C4([H])C([H])([H])C([H])(C([H])([H])C([H])([H])N([H])C(=O)N5C([H])([H])C([H])([H])C([H])([H])C([H])(n6nc(-c7c([H])c([H])c(Oc8c([H])c([H])c(F)c([H])c8F)c([H])c7[H])c(C(=O)N([H])[H])c6N([H])[H])C5([H])[H])C([H])([H])C([H])([H])C4([H])C([H])([H])[N+]([H])([H])[H])C([H])([H])C3([H])[H])c([H])c([H])c2C1([H])[H]

$$$$
73:0:0
     RDKit          3D

 94103  0  0  1  0  0  0  0  0999 V2000
  -30.5470  -21.8710   21.2810 C   0  0  0  0  0  2  0  0  0  0  0  0
  -28.6930  -21.4430   19.6840 C   0  0  0  0  0  2  0  0  0  0  0  0
  -30.8070  -23.2280   20.5950 C   0  0  0  0  0  2  0  0  0  0  0  0
  -28.9750  -22.7990   19.0050 C   0  0  0  0  0  2  0  0  0  0  0  0
  -29.9680  -20.8380   20.2950 C   0  0  0  0  0  3  0  0  0  0  0  0
  -29.5920  -23.7870   19.9370 N   0  0  2  0  0  4  0  0  0  0  0  0
  -28.9230  -23.9690   20.6730 H   0  0  0  0  0  0  0  0  0  0  0  0
  -29.7100  -19.4580   20.9440 C   0  0  0  0  0  2  0  0  0  0  0  0
  -30.7990  -17.2720   21.8000 C   0  0  0  0  0  0  0  0  0  0  0  0
  -31.1350  -17.5230   19.7400 C   0  0  0  0  0  2  0  0  0  0  0  0
  -30.9290  -18.5260   20.9040 C   0  0  0  0  0  3  0  0  0  0  0  0
  -31.5760  -16.4420   20.7600 C   0  0  0  0  0  3  0  0  0  0  0  0
  -30.1810  -16.9900   22.8290 O   0  0  0  0  0  0  0  0  0  0  0  0
  -31.4770  -14.1150   19.8660 C   0  0  0  0  0  0  0  0  0  0  0  0
  -31.0170  -11.8770   18.9300 C   0  0  0  0  0  2  0  0  0  0  0  0
  -30.0390  -11.9830   17.7440 C   0  0  0  0  0  2  0  0  0  0  0  0
  -28.5770  -11.9700   18.2310 C   0  0  0  0  0  2  0  0  0  0  0  0
  -28.3280  -12.9730   19.3900 C   0  0  0  0  0  3  0  0  0  0  0  0
  -29.4040  -12.8190   20.4860 C   0  0  0  0  0  2  0  0  0  0  0  0
  -30.7270  -12.9830   19.8560 N   0  0  0  0  0  0  0  0  0  0  0  0
  -32.5340  -14.2370   19.2410 O   0  0  0  0  0  0  0  0  0  0  0  0
  -30.9650  -15.1290   20.5730 N   0  0  0  0  0  0  0  0  0  0  0  0
  -30.0940  -14.9640   21.0570 H   0  0  0  0  0  0  0  0  0  0  0  0
  -26.0380  -13.8130   20.2180 C   0  0  0  0  0  0  0  0  0  0  0  0
  -24.9180  -13.1480   20.6390 C   0  0  0  0  0  0  0  0  0  0  0  0
  -25.2400  -11.7570   20.5800 C   0  0  0  0  0  0  0  0  0  0  0  0
  -26.9780  -12.8330   19.9330 N   0  0  0  0  0  0  0  0  0  0  0  0
  -26.5020  -11.5910   20.2050 N   0  0  0  0  0  0  0  0  0  0  0  0
  -24.4020  -10.5710   20.8030 C   0  0  0  0  0  0  0  0  0  0  0  0
  -24.7330   -9.6060   21.7800 C   0  0  0  0  0  3  0  0  0  0  0  0
  -23.9030   -8.4840   21.9880 C   0  0  0  0  0  3  0  0  0  0  0  0
  -22.7260   -8.3200   21.2190 C   0  0  0  0  0  0  0  0  0  0  0  0
  -22.4130   -9.2720   20.2330 C   0  0  0  0  0  3  0  0  0  0  0  0
  -23.2430  -10.3850   20.0230 C   0  0  0  0  0  3  0  0  0  0  0  0
  -21.8730   -7.2500   21.3330 O   0  0  0  0  0  0  0  0  0  0  0  0
  -21.6630   -6.6210   22.5350 C   0  0  0  0  0  0  0  0  0  0  0  0
  -21.1770   -7.3160   23.6640 C   0  0  0  0  0  3  0  0  0  0  0  0
  -20.9110   -6.6180   24.8580 C   0  0  0  0  0  3  0  0  0  0  0  0
  -21.1200   -5.2280   24.9240 C   0  0  0  0  0  0  0  0  0  0  0  0
  -21.5980   -4.5340   23.8000 C   0  0  0  0  0  3  0  0  0  0  0  0
  -21.8660   -5.2280   22.6070 C   0  0  0  0  0  0  0  0  0  0  0  0
  -22.3070   -4.5510   21.5190 F   0  0  0  0  0  0  0  0  0  0  0  0
  -20.8560   -4.5550   26.0690 F   0  0  0  0  0  0  0  0  0  0  0  0
  -23.5920  -13.7590   20.9880 C   0  0  0  0  0  0  0  0  0  0  0  0
  -22.8540  -13.1410   21.9020 N   0  0  0  0  0  0  0  0  0  0  0  0
  -23.2240  -14.8190   20.4840 O   0  0  0  0  0  0  0  0  0  0  0  0
  -23.1650  -12.2820   22.3320 H   0  0  0  0  0  0  0  0  0  0  0  0
  -21.9640  -13.5320   22.1790 H   0  0  0  0  0  0  0  0  0  0  0  0
  -26.3310  -15.1610   20.0360 N   0  0  0  0  0  0  0  0  0  0  0  0
  -25.6410  -15.8900   20.1840 H   0  0  0  0  0  0  0  0  0  0  0  0
  -27.2060  -15.5130   19.6700 H   0  0  0  0  0  0  0  0  0  0  0  0
  -29.8920  -25.1040   19.2980 C   0  0  0  0  0  2  0  0  0  0  0  0
  -28.6540  -25.9790   19.0110 C   0  0  0  0  0  2  0  0  0  0  0  0
  -28.2620  -26.6630   20.2050 O   0  0  0  0  0  0  0  0  0  0  0  0
  -24.5020  -31.8730   23.2460 C   0  0  0  0  0  0  0  0  0  0  0  0
  -27.0810  -27.3720   20.1910 C   0  0  0  0  0  0  0  0  0  0  0  0
  -23.2600  -30.4420   21.6570 C   0  0  0  0  0  3  0  0  0  0  0  0
  -24.6820  -28.8720   20.2360 C   0  0  0  0  0  0  0  0  0  0  0  0
  -25.7820  -30.7900   21.4030 C   0  0  0  0  0  2  0  0  0  0  0  0
  -25.8500  -29.4050   20.7940 C   0  0  0  0  0  0  0  0  0  0  0  0
  -27.0480  -28.6560   20.7800 C   0  0  0  0  0  3  0  0  0  0  0  0
  -25.8840  -26.8420   19.6520 C   0  0  0  0  0  3  0  0  0  0  0  0
  -24.6910  -27.5870   19.6700 C   0  0  0  0  0  3  0  0  0  0  0  0
  -23.4400  -29.7340   20.2880 C   0  0  0  0  0  2  0  0  0  0  0  0
  -24.5340  -31.0510   22.1610 N   0  0  0  0  0  0  0  0  0  0  0  0
  -23.4330  -32.1610   23.8010 O   0  0  0  0  0  0  0  0  0  0  0  0
  -22.6260  -29.4420   22.6510 C   0  0  0  0  0  0  0  0  0  0  0  0
  -21.3080  -29.2230   22.5190 N   0  0  0  0  0  0  0  0  0  0  0  0
  -23.3170  -28.8640   23.4940 O   0  0  0  0  0  0  0  0  0  0  0  0
  -20.8120  -29.7430   21.8090 H   0  0  0  0  0  0  0  0  0  0  0  0
  -17.9690  -27.9280   22.9870 C   0  0  0  0  0  0  0  0  0  0  0  0
  -20.5050  -28.2970   23.3170 C   0  0  0  0  0  3  0  0  0  0  0  0
  -20.6780  -26.8430   22.8230 C   0  0  0  0  0  2  0  0  0  0  0  0
  -19.6200  -26.4240   21.7980 C   0  0  0  0  0  2  0  0  0  0  0  0
  -18.2140  -26.5510   22.3940 C   0  0  0  0  0  2  0  0  0  0  0  0
  -19.0450  -28.7550   23.4070 C   0  0  0  0  0  0  0  0  0  0  0  0
  -18.7630  -30.0400   23.9180 C   0  0  0  0  0  3  0  0  0  0  0  0
  -17.4370  -30.5000   24.0170 C   0  0  0  0  0  3  0  0  0  0  0  0
  -16.3730  -29.6710   23.6170 C   0  0  0  0  0  3  0  0  0  0  0  0
  -16.6400  -28.3880   23.1080 C   0  0  0  0  0  3  0  0  0  0  0  0
  -25.8040  -32.5120   23.8270 C   0  0  0  0  0  3  0  0  0  0  0  0
  -26.3440  -31.7640   25.1070 C   0  0  1  0  0  0  0  0  0  0  0  0
  -25.2690  -31.5310   26.1920 C   0  0  0  0  0  1  0  0  0  0  0  0
  -26.9360  -30.3880   24.7250 C   0  0  0  0  0  1  0  0  0  0  0  0
  -27.4960  -32.5790   25.7430 C   0  0  0  0  0  1  0  0  0  0  0  0
  -25.5090  -33.9180   24.1310 N   0  0  0  0  0  0  0  0  0  0  0  0
  -25.8400  -34.9510   23.3460 C   0  0  0  0  0  0  0  0  0  0  0  0
  -26.5000  -34.8210   22.3110 O   0  0  0  0  0  0  0  0  0  0  0  0
  -24.9230  -34.0940   24.9340 H   0  0  0  0  0  0  0  0  0  0  0  0
  -24.1170  -36.7420   22.9690 C   0  0  0  0  0  1  0  0  0  0  0  0
  -25.3640  -36.3510   23.7760 C   0  0  0  0  0  3  0  0  0  0  0  0
  -27.5140  -37.2390   24.5650 C   0  0  0  0  0  1  0  0  0  0  0  0
  -26.4010  -37.3960   23.6330 N   0  0  0  0  0  0  0  0  0  0  0  0
  -26.0000  -38.3200   23.7740 H   0  0  0  0  0  0  0  0  0  0  0  0
  2  5  1  0
  3  1  1  0
  4  2  1  0
  4  6  1  0
  5  8  1  0
  5  1  1  0
  6  3  1  0
  6  7  1  1
  9 13  2  0
 10 12  1  0
 10 11  1  0
 11  8  1  0
 11  9  1  0
 12 22  1  0
 12  9  1  0
 14 22  1  0
 15 20  1  0
 16 17  1  0
 16 15  1  0
 18 17  1  0
 18 27  1  0
 18 19  1  0
 20 14  1  0
 20 19  1  0
 21 14  2  0
 22 23  1  0
 24 25  2  0
 25 44  1  0
 26 25  1  0
 26 29  1  0
 27 28  1  0
 27 24  1  0
 28 26  2  0
 29 30  1  0
 30 31  2  0
 32 35  1  0
 32 31  1  0
 33 32  2  0
 34 33  1  0
 34 29  2  0
 35 36  1  0
 36 41  2  0
 36 37  1  0
 37 38  2  0
 38 39  1  0
 39 43  1  0
 40 39  2  0
 41 40  1  0
 42 41  1  0
 44 45  1  0
 45 48  1  0
 45 47  1  0
 46 44  2  0
 49 50  1  0
 49 24  1  0
 51 49  1  0
 52  6  1  0
 53 52  1  0
 53 54  1  0
 55 66  2  0
 56 54  1  0
 56 61  1  0
 57 65  1  0
 57 67  1  0
 58 64  1  0
 58 60  1  0
 59 65  1  0
 60 59  1  0
 61 60  2  0
 62 63  1  0
 62 56  2  0
 63 58  2  0
 64 57  1  0
 65 55  1  0
 67 69  2  0
 68 67  1  0
 70 68  1  0
 71 80  2  0
 71 76  1  0
 72 68  1  0
 72 76  1  0
 73 72  1  0
 74 75  1  0
 74 73  1  0
 75 71  1  0
 76 77  2  0
 77 78  1  0
 79 78  2  0
 80 79  1  0
 81 55  1  0
 81 86  1  0
 81 82  1  0
 82 85  1  1
 82 83  1  0
 84 82  1  0
 86 89  1  0
 87 91  1  0
 87 86  1  0
 88 87  2  0
 91 90  1  0
 93 94  1  0
 93 91  1  0
 93 92  1  0
M  ISO  4  14 100  22 100  53 101  54 101
M  END
>  <TORSDO>  (74) 
F 20

>  <SCORE>  (74) 
-13.301

>  <name>  (74) 
73

>  <ligand_id>  (74) 
73

>  <original_smiles>  (74) 
[H]c1c([H])c([H])c2c(c1[H])C([H])([H])C([H])([H])C([H])([H])C2([H])N([H])C(=O)C1([H])N(C(=O)C([H])(N([H])C(=O)C([H])(N([H])C([H])([H])[H])C([H])([H])[H])C(C([H])([H])[H])(C([H])([H])[H])C([H])([H])[H])C([H])([H])c2c([H])c(OC([H])([H])C([H])([H])[N+]3([H])C([H])([H])C([H])([H])C([H])(C([H])([H])C4([H])C(=O)C([H])(N([H])C(=O)N5C([H])([H])C([H])([H])C([H])([H])C([H])(n6nc(-c7c([H])c([H])c(Oc8c([H])c([H])c(F)c([H])c8F)c([H])c7[H])c(C(=O)N([H])[H])c6N([H])[H])C5([H])[H])C4([H])[H])C([H])([H])C3([H])[H])c([H])c([H])c2C1([H])[H]

>  <smiles>  (74) 
[H]c1c([H])c([H])c2c(c1[H])C([H])([H])C([H])([H])C([H])([H])C2([H])N([H])C(=O)C1([H])N(C(=O)C([H])(N([H])C(=O)C([H])(N([H])C([H])([H])[H])C([H])([H])[H])C(C([H])([H])[H])(C([H])([H])[H])C([H])([H])[H])C([H])([H])c2c([H])c(OC([H])([H])C([H])([H])[N+]3([H])C([H])([H])C([H])([H])C([H])(C([H])([H])C4([H])C(=O)C([H])(N([H])C(=O)N5C([H])([H])C([H])([H])C([H])([H])C([H])(n6nc(-c7c([H])c([H])c(Oc8c([H])c([H])c(F)c([H])c8F)c([H])c7[H])c(C(=O)N([H])[H])c6N([H])[H])C5([H])[H])C4([H])[H])C([H])([H])C3([H])[H])c([H])c([H])c2C1([H])[H]

$$$$
74:0:0
     RDKit          3D

 96105  0  0  1  0  0  0  0  0999 V2000
  -28.6220  -18.9910   21.3730 C   0  0  0  0  0  3  0  0  0  0  0  0
  -29.4190  -17.8570   21.1210 C   0  0  0  0  0  3  0  0  0  0  0  0
  -30.5940  -20.4030   21.1880 C   0  0  0  0  0  3  0  0  0  0  0  0
  -31.4010  -19.2780   20.9130 C   0  0  0  0  0  0  0  0  0  0  0  0
  -29.2120  -20.2700   21.4210 C   0  0  0  0  0  0  0  0  0  0  0  0
  -30.8120  -17.9880   20.9020 C   0  0  0  0  0  0  0  0  0  0  0  0
  -33.4000  -20.7300   19.9840 C   0  0  0  0  0  2  0  0  0  0  0  0
  -33.4190  -19.4150   19.2450 C   0  0  0  0  0  2  0  0  0  0  0  0
  -32.8690  -19.4790   20.6530 C   0  0  0  0  0  3  0  0  0  0  0  0
  -31.6980  -16.7620   20.6710 C   0  0  0  0  0  2  0  0  0  0  0  0
  -31.2740  -14.6000   19.5100 C   0  0  0  0  0  0  0  0  0  0  0  0
  -30.8680  -12.2970   18.7290 C   0  0  0  0  0  2  0  0  0  0  0  0
  -29.8420  -12.2450   17.5820 C   0  0  0  0  0  2  0  0  0  0  0  0
  -28.4100  -12.1750   18.1390 C   0  0  0  0  0  2  0  0  0  0  0  0
  -28.1370  -13.2610   19.2120 C   0  0  0  0  0  3  0  0  0  0  0  0
  -29.2610  -13.2830   20.2720 C   0  0  0  0  0  2  0  0  0  0  0  0
  -30.5570  -13.4500   19.5850 N   0  0  0  0  0  0  0  0  0  0  0  0
  -32.1910  -14.7750   18.7010 O   0  0  0  0  0  0  0  0  0  0  0  0
  -30.9880  -15.5040   20.4520 N   0  0  0  0  0  0  0  0  0  0  0  0
  -30.2630  -15.2640   21.1120 H   0  0  0  0  0  0  0  0  0  0  0  0
  -25.8920  -14.0370   20.2100 C   0  0  0  0  0  0  0  0  0  0  0  0
  -24.8040  -13.3400   20.6640 C   0  0  0  0  0  0  0  0  0  0  0  0
  -25.1330  -11.9580   20.5220 C   0  0  0  0  0  0  0  0  0  0  0  0
  -26.8220  -13.0830   19.8260 N   0  0  0  0  0  0  0  0  0  0  0  0
  -26.3730  -11.8230   20.0670 N   0  0  0  0  0  0  0  0  0  0  0  0
  -24.3200  -10.7540   20.7390 C   0  0  0  0  0  0  0  0  0  0  0  0
  -24.7130   -9.7530   21.6560 C   0  0  0  0  0  3  0  0  0  0  0  0
  -23.9060   -8.6140   21.8600 C   0  0  0  0  0  3  0  0  0  0  0  0
  -22.6920   -8.4660   21.1470 C   0  0  0  0  0  0  0  0  0  0  0  0
  -22.3180   -9.4530   20.2190 C   0  0  0  0  0  3  0  0  0  0  0  0
  -23.1250  -10.5850   20.0140 C   0  0  0  0  0  3  0  0  0  0  0  0
  -21.8580   -7.3810   21.2620 O   0  0  0  0  0  0  0  0  0  0  0  0
  -21.7200   -6.7000   22.4450 C   0  0  0  0  0  0  0  0  0  0  0  0
  -21.2870   -7.3390   23.6270 C   0  0  0  0  0  3  0  0  0  0  0  0
  -21.0930   -6.5880   24.8030 C   0  0  0  0  0  3  0  0  0  0  0  0
  -21.3210   -5.1980   24.7980 C   0  0  0  0  0  0  0  0  0  0  0  0
  -21.7470   -4.5590   23.6200 C   0  0  0  0  0  3  0  0  0  0  0  0
  -21.9430   -5.3080   22.4470 C   0  0  0  0  0  0  0  0  0  0  0  0
  -22.3330   -4.6840   21.3090 F   0  0  0  0  0  0  0  0  0  0  0  0
  -21.1270   -4.4750   25.9260 F   0  0  0  0  0  0  0  0  0  0  0  0
  -23.4940  -13.9200   21.1160 C   0  0  0  0  0  0  0  0  0  0  0  0
  -22.8140  -13.2510   22.0400 N   0  0  0  0  0  0  0  0  0  0  0  0
  -23.0890  -14.9990   20.6840 O   0  0  0  0  0  0  0  0  0  0  0  0
  -23.1570  -12.3770   22.4110 H   0  0  0  0  0  0  0  0  0  0  0  0
  -21.9380  -13.6200   22.3830 H   0  0  0  0  0  0  0  0  0  0  0  0
  -26.1620  -15.3960   20.0740 N   0  0  0  0  0  0  0  0  0  0  0  0
  -25.4750  -16.1090   20.2930 H   0  0  0  0  0  0  0  0  0  0  0  0
  -27.0100  -15.7710   19.6710 H   0  0  0  0  0  0  0  0  0  0  0  0
  -28.3830  -21.5060   21.7260 C   0  0  0  0  0  2  0  0  0  0  0  0
  -28.2730  -22.3720   20.5390 N   0  0  0  0  0  4  0  0  0  0  0  0
  -29.0580  -22.1690   19.9400 H   0  0  0  0  0  0  0  0  0  0  0  0
  -27.4350  -22.1160   20.0440 H   0  0  0  0  0  0  0  0  0  0  0  0
  -28.2700  -23.8190   20.8470 C   0  0  0  0  0  2  0  0  0  0  0  0
  -28.0430  -24.6920   19.6000 C   0  0  0  0  0  2  0  0  0  0  0  0
  -28.2690  -26.1850   19.8830 C   0  0  0  0  0  2  0  0  0  0  0  0
  -27.8570  -26.9670   18.7650 O   0  0  0  0  0  0  0  0  0  0  0  0
  -24.3930  -31.5710   22.9140 C   0  0  0  0  0  0  0  0  0  0  0  0
  -26.7000  -27.6620   18.9950 C   0  0  0  0  0  0  0  0  0  0  0  0
  -23.0160  -30.3760   21.2420 C   0  0  0  0  0  3  0  0  0  0  0  0
  -24.3090  -29.0690   19.4730 C   0  0  0  0  0  0  0  0  0  0  0  0
  -25.4960  -30.8180   20.8130 C   0  0  0  0  0  2  0  0  0  0  0  0
  -25.5180  -29.5450   19.9960 C   0  0  0  0  0  0  0  0  0  0  0  0
  -26.7190  -28.8470   19.7590 C   0  0  0  0  0  3  0  0  0  0  0  0
  -25.4820  -27.1880   18.4700 C   0  0  0  0  0  3  0  0  0  0  0  0
  -24.2830  -27.8860   18.7110 C   0  0  0  0  0  3  0  0  0  0  0  0
  -23.0710  -29.8850   19.7690 C   0  0  0  0  0  2  0  0  0  0  0  0
  -24.3260  -30.9280   21.7140 N   0  0  0  0  0  0  0  0  0  0  0  0
  -23.3790  -31.7480   23.6040 O   0  0  0  0  0  0  0  0  0  0  0  0
  -22.4820  -29.2250   22.1230 C   0  0  0  0  0  0  0  0  0  0  0  0
  -21.1630  -28.9820   22.0530 N   0  0  0  0  0  0  0  0  0  0  0  0
  -23.2470  -28.5580   22.8240 O   0  0  0  0  0  0  0  0  0  0  0  0
  -20.6030  -29.5790   21.4600 H   0  0  0  0  0  0  0  0  0  0  0  0
  -17.9100  -27.4810   22.5140 C   0  0  0  0  0  0  0  0  0  0  0  0
  -20.4440  -27.9250   22.7630 C   0  0  0  0  0  3  0  0  0  0  0  0
  -20.6480  -26.5550   22.0750 C   0  0  0  0  0  2  0  0  0  0  0  0
  -19.5520  -26.2210   21.0580 C   0  0  0  0  0  2  0  0  0  0  0  0
  -18.1790  -26.2050   21.7350 C   0  0  0  0  0  2  0  0  0  0  0  0
  -18.9740  -28.2960   22.9830 C   0  0  0  0  0  0  0  0  0  0  0  0
  -18.6700  -29.4910   23.6710 C   0  0  0  0  0  3  0  0  0  0  0  0
  -17.3330  -29.8720   23.8960 C   0  0  0  0  0  3  0  0  0  0  0  0
  -16.2840  -29.0530   23.4430 C   0  0  0  0  0  3  0  0  0  0  0  0
  -16.5740  -27.8590   22.7590 C   0  0  0  0  0  3  0  0  0  0  0  0
  -25.7400  -32.1360   23.4680 C   0  0  0  0  0  3  0  0  0  0  0  0
  -25.4720  -33.4790   23.9980 N   0  0  0  0  0  0  0  0  0  0  0  0
  -25.7560  -34.6200   23.3560 C   0  0  0  0  0  0  0  0  0  0  0  0
  -26.3460  -34.6510   22.2740 O   0  0  0  0  0  0  0  0  0  0  0  0
  -24.9420  -33.5280   24.8560 H   0  0  0  0  0  0  0  0  0  0  0  0
  -24.0270  -36.4440   23.3580 C   0  0  0  0  0  1  0  0  0  0  0  0
  -25.3160  -35.9370   24.0240 C   0  0  0  0  0  3  0  0  0  0  0  0
  -27.5110  -36.7030   24.8140 C   0  0  0  0  0  1  0  0  0  0  0  0
  -26.3500  -36.9940   23.9780 N   0  0  0  0  0  0  0  0  0  0  0  0
  -25.9640  -37.8880   24.2700 H   0  0  0  0  0  0  0  0  0  0  0  0
  -26.3950  -31.2180   24.5720 C   0  0  1  0  0  0  0  0  0  0  0  0
  -25.4280  -30.8390   25.7180 C   0  0  0  0  0  1  0  0  0  0  0  0
  -26.9230  -29.9070   23.9450 C   0  0  0  0  0  1  0  0  0  0  0  0
  -27.6170  -31.9350   25.1940 C   0  0  0  0  0  1  0  0  0  0  0  0
  1  5  1  0
  2  1  2  0
  3  5  2  0
  4  3  1  0
  5 49  1  0
  6  4  2  0
  6  2  1  0
  7  9  1  0
  8  7  1  0
  8  9  1  0
  9  4  1  0
 10  6  1  0
 11 17  1  0
 11 19  1  0
 12 17  1  0
 13 14  1  0
 13 12  1  0
 15 14  1  0
 15 24  1  0
 15 16  1  0
 17 16  1  0
 18 11  2  0
 19 10  1  0
 19 20  1  0
 21 22  2  0
 22 41  1  0
 23 22  1  0
 23 26  1  0
 24 25  1  0
 24 21  1  0
 25 23  2  0
 26 27  1  0
 27 28  2  0
 29 32  1  0
 29 28  1  0
 30 29  2  0
 31 30  1  0
 31 26  2  0
 32 33  1  0
 33 38  2  0
 33 34  1  0
 34 35  2  0
 36 35  1  0
 36 40  1  0
 37 36  2  0
 38 37  1  0
 39 38  1  0
 41 42  1  0
 42 45  1  0
 42 44  1  0
 43 41  2  0
 46 21  1  0
 46 47  1  0
 48 46  1  0
 50 53  1  0
 50 49  1  0
 51 50  1  0
 52 50  1  0
 54 55  1  0
 54 53  1  0
 56 58  1  0
 56 55  1  0
 57 68  2  0
 58 63  1  0
 59 67  1  0
 59 69  1  0
 60 66  1  0
 60 62  1  0
 61 67  1  0
 62 61  1  0
 63 62  2  0
 64 65  1  0
 64 58  2  0
 65 60  2  0
 66 59  1  0
 67 57  1  0
 69 71  2  0
 70 69  1  0
 72 70  1  0
 73 82  2  0
 73 78  1  0
 74 70  1  0
 74 78  1  0
 75 74  1  0
 76 77  1  0
 76 75  1  0
 77 73  1  0
 78 79  2  0
 79 80  1  0
 81 80  2  0
 82 81  1  0
 83 57  1  0
 83 84  1  0
 83 93  1  0
 84 87  1  0
 85 84  1  0
 85 89  1  0
 86 85  2  0
 89 88  1  0
 91 89  1  0
 91 92  1  0
 91 90  1  0
 93 96  1  1
 93 94  1  0
 95 93  1  0
M  ISO  4  11 100  19 100  55 101  56 101
M  END
>  <TORSDO>  (75) 
F 23

>  <SCORE>  (75) 
-10.227

>  <name>  (75) 
74

>  <ligand_id>  (75) 
74

>  <original_smiles>  (75) 
[H]c1c([H])c([H])c2c(c1[H])C([H])([H])C([H])([H])C([H])([H])C2([H])N([H])C(=O)C1([H])N(C(=O)C([H])(N([H])C(=O)C([H])(N([H])C([H])([H])[H])C([H])([H])[H])C(C([H])([H])[H])(C([H])([H])[H])C([H])([H])[H])C([H])([H])c2c([H])c(OC([H])([H])C([H])([H])C([H])([H])[N+]([H])([H])C([H])([H])c3c([H])c([H])c(C([H])([H])N([H])C(=O)N4C([H])([H])C([H])([H])C([H])([H])C([H])(n5nc(-c6c([H])c([H])c(Oc7c([H])c([H])c(F)c([H])c7F)c([H])c6[H])c(C(=O)N([H])[H])c5N([H])[H])C4([H])[H])c(C4([H])C([H])([H])C4([H])[H])c3[H])c([H])c([H])c2C1([H])[H]

>  <smiles>  (75) 
[H]c1c([H])c([H])c2c(c1[H])C([H])([H])C([H])([H])C([H])([H])C2([H])N([H])C(=O)C1([H])N(C(=O)C([H])(N([H])C(=O)C([H])(N([H])C([H])([H])[H])C([H])([H])[H])C(C([H])([H])[H])(C([H])([H])[H])C([H])([H])[H])C([H])([H])c2c([H])c(OC([H])([H])C([H])([H])C([H])([H])[N+]([H])([H])C([H])([H])c3c([H])c([H])c(C([H])([H])N([H])C(=O)N4C([H])([H])C([H])([H])C([H])([H])C([H])(n5nc(-c6c([H])c([H])c(Oc7c([H])c([H])c(F)c([H])c7F)c([H])c6[H])c(C(=O)N([H])[H])c5N([H])[H])C4([H])[H])c(C4([H])C([H])([H])C4([H])[H])c3[H])c([H])c([H])c2C1([H])[H]

$$$$
75:0:0
     RDKit          3D

105113  0  0  1  0  0  0  0  0999 V2000
  -29.9360  -21.2190   20.1040 N   0  0  1  0  0  4  0  0  0  0  0  0
  -29.5140  -21.0700   19.1980 H   0  0  0  0  0  0  0  0  0  0  0  0
  -31.4120  -21.4130   19.8930 C   0  0  0  0  0  2  0  0  0  0  0  0
  -32.7220  -22.6710   15.8940 C   0  0  0  0  0  3  0  0  0  0  0  0
  -32.5570  -21.3000   16.1630 C   0  0  0  0  0  3  0  0  0  0  0  0
  -32.1180  -23.1690   18.1960 C   0  0  0  0  0  3  0  0  0  0  0  0
  -32.5510  -23.6150   16.9270 C   0  0  0  0  0  0  0  0  0  0  0  0
  -32.1970  -20.8440   17.4530 C   0  0  0  0  0  0  0  0  0  0  0  0
  -31.8810  -21.8020   18.4710 C   0  0  0  0  0  0  0  0  0  0  0  0
  -32.8370  -25.0350   16.6910 C   0  0  0  0  0  0  0  0  0  0  0  0
  -33.8440  -25.4060   15.9010 N   0  0  0  0  0  4  0  0  0  0  0  0
  -32.0950  -25.9760   17.2740 N   0  0  0  0  0  0  0  0  0  0  0  0
  -34.4450  -24.7000   15.5050 H   0  0  0  0  0  0  0  0  0  0  0  0
  -34.0490  -26.3670   15.6790 H   0  0  0  0  0  0  0  0  0  0  0  0
  -31.3010  -25.6990   17.8280 H   0  0  0  0  0  0  0  0  0  0  0  0
  -32.3010  -26.9600   17.1880 H   0  0  0  0  0  0  0  0  0  0  0  0
  -32.2640  -19.3790   17.6800 C   0  0  0  0  0  0  0  0  0  0  0  0
  -33.3540  -18.8820   18.6120 C   0  0  0  0  0  1  0  0  0  0  0  0
  -31.5280  -18.5470   17.0770 N   0  0  0  0  0  0  0  0  0  0  0  0
  -30.8770  -18.9880   16.4360 H   0  0  0  0  0  0  0  0  0  0  0  0
  -29.7050  -19.9210   20.9080 C   0  0  0  0  0  2  0  0  0  0  0  0
  -29.7230  -18.4700   20.2020 C   0  0  0  0  0  2  0  0  0  0  0  0
  -30.2080  -17.2110   21.0790 C   0  0  0  0  0  2  0  0  0  0  0  0
  -30.5960  -14.7010   20.3820 C   0  0  0  0  0  0  0  0  0  0  0  0
  -30.3890  -12.4730   19.2850 C   0  0  0  0  0  2  0  0  0  0  0  0
  -29.4390  -12.5830   18.0730 C   0  0  0  0  0  2  0  0  0  0  0  0
  -27.9690  -12.4060   18.5100 C   0  0  0  0  0  2  0  0  0  0  0  0
  -27.6050  -13.2710   19.7470 C   0  0  0  0  0  3  0  0  0  0  0  0
  -28.6660  -13.1280   20.8580 C   0  0  0  0  0  2  0  0  0  0  0  0
  -29.9670  -13.4880   20.2740 N   0  0  0  0  0  0  0  0  0  0  0  0
  -31.7730  -14.8390   20.0410 O   0  0  0  0  0  0  0  0  0  0  0  0
  -29.8180  -15.7890   20.7150 N   0  0  0  0  0  0  0  0  0  0  0  0
  -28.8580  -15.5460   20.9160 H   0  0  0  0  0  0  0  0  0  0  0  0
  -25.2120  -13.8550   20.4770 C   0  0  0  0  0  0  0  0  0  0  0  0
  -24.1510  -13.0790   20.8520 C   0  0  0  0  0  0  0  0  0  0  0  0
  -24.6200  -11.7290   20.8230 C   0  0  0  0  0  0  0  0  0  0  0  0
  -26.2600  -12.9800   20.2400 N   0  0  0  0  0  0  0  0  0  0  0  0
  -25.9090  -11.6970   20.5070 N   0  0  0  0  0  0  0  0  0  0  0  0
  -23.8980  -10.4650   21.0160 C   0  0  0  0  0  0  0  0  0  0  0  0
  -24.3350   -9.5040   21.9580 C   0  0  0  0  0  3  0  0  0  0  0  0
  -23.6160   -8.3040   22.1410 C   0  0  0  0  0  3  0  0  0  0  0  0
  -22.4480   -8.0540   21.3820 C   0  0  0  0  0  0  0  0  0  0  0  0
  -22.0280   -9.0020   20.4320 C   0  0  0  0  0  3  0  0  0  0  0  0
  -22.7470  -10.1950   20.2470 C   0  0  0  0  0  3  0  0  0  0  0  0
  -21.6990   -6.9040   21.4710 O   0  0  0  0  0  0  0  0  0  0  0  0
  -21.6520   -6.1660   22.6270 C   0  0  0  0  0  0  0  0  0  0  0  0
  -21.2060   -6.7210   23.8460 C   0  0  0  0  0  3  0  0  0  0  0  0
  -21.1070   -5.9090   24.9930 C   0  0  0  0  0  3  0  0  0  0  0  0
  -21.4420   -4.5430   24.9220 C   0  0  0  0  0  0  0  0  0  0  0  0
  -21.8800   -3.9880   23.7060 C   0  0  0  0  0  3  0  0  0  0  0  0
  -21.9820   -4.7980   22.5620 C   0  0  0  0  0  0  0  0  0  0  0  0
  -22.3850   -4.2550   21.3880 F   0  0  0  0  0  0  0  0  0  0  0  0
  -21.3380   -3.7620   26.0220 F   0  0  0  0  0  0  0  0  0  0  0  0
  -22.7510  -13.5510   21.1240 C   0  0  0  0  0  0  0  0  0  0  0  0
  -22.0270  -12.8530   21.9920 N   0  0  0  0  0  0  0  0  0  0  0  0
  -22.3080  -14.5740   20.6030 O   0  0  0  0  0  0  0  0  0  0  0  0
  -22.3960  -12.0280   22.4390 H   0  0  0  0  0  0  0  0  0  0  0  0
  -21.0890  -13.1510   22.2150 H   0  0  0  0  0  0  0  0  0  0  0  0
  -25.3680  -15.2260   20.2970 N   0  0  0  0  0  0  0  0  0  0  0  0
  -24.5830  -15.8640   20.3740 H   0  0  0  0  0  0  0  0  0  0  0  0
  -26.1970  -15.6620   19.9180 H   0  0  0  0  0  0  0  0  0  0  0  0
  -29.2260  -22.4450   20.7330 C   0  0  0  0  0  2  0  0  0  0  0  0
  -29.2710  -23.9180   20.0690 C   0  0  0  0  0  3  0  0  0  0  0  0
  -28.2350  -25.0410   20.5860 C   0  0  0  0  0  3  0  0  0  0  0  0
  -28.3950  -26.4820   20.2220 O   0  0  0  0  0  0  0  0  0  0  0  0
  -24.6090  -31.9050   23.2400 C   0  0  0  0  0  0  0  0  0  0  0  0
  -27.2610  -27.3240   20.2170 C   0  0  0  0  0  0  0  0  0  0  0  0
  -23.4170  -30.4910   21.5990 C   0  0  0  0  0  3  0  0  0  0  0  0
  -24.8820  -28.9340   20.1890 C   0  0  0  0  0  0  0  0  0  0  0  0
  -25.9570  -30.8120   21.4340 C   0  0  0  0  0  2  0  0  0  0  0  0
  -26.0470  -29.4260   20.7930 C   0  0  0  0  0  0  0  0  0  0  0  0
  -27.2390  -28.6340   20.7950 C   0  0  0  0  0  3  0  0  0  0  0  0
  -26.0730  -26.8900   19.5870 C   0  0  0  0  0  3  0  0  0  0  0  0
  -24.9000  -27.6740   19.5710 C   0  0  0  0  0  3  0  0  0  0  0  0
  -23.6450  -29.8080   20.2260 C   0  0  0  0  0  2  0  0  0  0  0  0
  -24.6780  -31.0900   22.1470 N   0  0  0  0  0  0  0  0  0  0  0  0
  -23.5250  -32.1820   23.7700 O   0  0  0  0  0  0  0  0  0  0  0  0
  -22.7530  -29.4790   22.5660 C   0  0  0  0  0  0  0  0  0  0  0  0
  -21.4300  -29.2940   22.4290 N   0  0  0  0  0  0  0  0  0  0  0  0
  -23.4290  -28.8610   23.3950 O   0  0  0  0  0  0  0  0  0  0  0  0
  -20.9460  -29.8480   21.7370 H   0  0  0  0  0  0  0  0  0  0  0  0
  -18.0550  -28.0780   22.8970 C   0  0  0  0  0  0  0  0  0  0  0  0
  -20.6070  -28.3560   23.1980 C   0  0  0  0  0  3  0  0  0  0  0  0
  -20.7290  -26.9230   22.6340 C   0  0  0  0  0  2  0  0  0  0  0  0
  -19.6430  -26.5850   21.6070 C   0  0  0  0  0  2  0  0  0  0  0  0
  -18.2510  -26.7250   22.2330 C   0  0  0  0  0  2  0  0  0  0  0  0
  -19.1640  -28.8510   23.3350 C   0  0  0  0  0  0  0  0  0  0  0  0
  -18.9260  -30.1160   23.9160 C   0  0  0  0  0  3  0  0  0  0  0  0
  -17.6150  -30.6080   24.0620 C   0  0  0  0  0  3  0  0  0  0  0  0
  -16.5210  -29.8300   23.6400 C   0  0  0  0  0  3  0  0  0  0  0  0
  -16.7440  -28.5660   23.0620 C   0  0  0  0  0  3  0  0  0  0  0  0
  -25.8900  -32.5360   23.8670 C   0  0  0  0  0  3  0  0  0  0  0  0
  -26.3960  -31.7740   25.1550 C   0  0  1  0  0  0  0  0  0  0  0  0
  -25.2860  -31.5610   26.2100 C   0  0  0  0  0  1  0  0  0  0  0  0
  -26.9730  -30.3890   24.7820 C   0  0  0  0  0  1  0  0  0  0  0  0
  -27.5450  -32.5690   25.8200 C   0  0  0  0  0  1  0  0  0  0  0  0
  -25.5870  -33.9380   24.1880 N   0  0  0  0  0  0  0  0  0  0  0  0
  -25.9240  -34.9850   23.4230 C   0  0  0  0  0  0  0  0  0  0  0  0
  -26.5960  -34.8710   22.3950 O   0  0  0  0  0  0  0  0  0  0  0  0
  -25.0020  -34.0960   24.9950 H   0  0  0  0  0  0  0  0  0  0  0  0
  -24.2040  -36.7780   23.0410 C   0  0  0  0  0  1  0  0  0  0  0  0
  -25.4370  -36.3770   23.8690 C   0  0  0  0  0  3  0  0  0  0  0  0
  -27.5670  -37.2600   24.7140 C   0  0  0  0  0  1  0  0  0  0  0  0
  -26.4760  -37.4230   23.7580 N   0  0  0  0  0  0  0  0  0  0  0  0
  -26.0750  -38.3470   23.8950 H   0  0  0  0  0  0  0  0  0  0  0  0
  1 62  1  0
  1 21  1  0
  1  2  1  6
  3  1  1  0
  4  5  2  0
  4  7  1  0
  5  8  1  0
  6  9  1  0
  7  6  2  0
  8 17  1  0
  8  9  2  0
  9  3  1  0
 10  7  1  0
 10 12  1  0
 11 10  2  0
 12 15  1  0
 13 11  1  0
 14 11  1  0
 16 12  1  0
 17 18  1  0
 19 17  2  0
 20 19  1  0
 22 21  1  0
 22 23  1  0
 24 32  1  0
 25 30  1  0
 26 27  1  0
 26 25  1  0
 28 27  1  0
 28 37  1  0
 28 29  1  0
 30 24  1  0
 30 29  1  0
 31 24  2  0
 32 33  1  0
 32 23  1  0
 34 35  2  0
 35 54  1  0
 36 35  1  0
 36 39  1  0
 37 34  1  0
 37 38  1  0
 38 36  2  0
 39 40  1  0
 40 41  2  0
 42 45  1  0
 42 41  1  0
 43 42  2  0
 44 43  1  0
 44 39  2  0
 45 46  1  0
 46 47  1  0
 47 48  2  0
 49 48  1  0
 49 53  1  0
 50 49  2  0
 51 46  2  0
 51 50  1  0
 52 51  1  0
 54 55  1  0
 55 58  1  0
 55 57  1  0
 56 54  2  0
 59 60  1  0
 59 34  1  0
 61 59  1  0
 63 64  2  0
 63 62  1  0
 65 64  1  0
 66 77  2  0
 67 65  1  0
 67 72  1  0
 68 76  1  0
 68 78  1  0
 69 75  1  0
 69 71  1  0
 70 76  1  0
 71 72  2  0
 71 70  1  0
 73 67  2  0
 74 73  1  0
 74 69  2  0
 75 68  1  0
 76 66  1  0
 78 80  2  0
 79 78  1  0
 81 79  1  0
 82 91  2  0
 82 87  1  0
 83 79  1  0
 83 87  1  0
 84 83  1  0
 85 86  1  0
 85 84  1  0
 86 82  1  0
 87 88  2  0
 88 89  1  0
 90 89  2  0
 91 90  1  0
 92 66  1  0
 92 97  1  0
 92 93  1  0
 93 96  1  1
 93 94  1  0
 95 93  1  0
 97100  1  0
 98102  1  0
 98 97  1  0
 99 98  2  0
102101  1  0
104102  1  0
104105  1  0
104103  1  0
M  ISO  4  24 100  32 100  64 101  65 101
M  END
>  <TORSDO>  (76) 
F 26

>  <SCORE>  (76) 
-11.973

>  <name>  (76) 
75

>  <ligand_id>  (76) 
75

>  <original_smiles>  (76) 
[H]N=C(c1c([H])c([H])c(C(N([H])[H])=[N+]([H])[H])c([H])c1C([H])([H])[N+]([H])(C([H])([H])C([H])([H])C([H])([H])Oc1c([H])c([H])c2c(c1[H])C([H])([H])N(C(=O)C([H])(N([H])C(=O)C([H])(N([H])C([H])([H])[H])C([H])([H])[H])C(C([H])([H])[H])(C([H])([H])[H])C([H])([H])[H])C([H])(C(=O)N([H])C1([H])c3c([H])c([H])c([H])c([H])c3C([H])([H])C([H])([H])C1([H])[H])C2([H])[H])C([H])([H])C([H])([H])C([H])([H])N([H])C(=O)N1C([H])([H])C([H])([H])C([H])([H])C([H])(n2nc(-c3c([H])c([H])c(Oc4c([H])c([H])c(F)c([H])c4F)c([H])c3[H])c(C(=O)N([H])[H])c2N([H])[H])C1([H])[H])C([H])([H])[H]

>  <smiles>  (76) 
[H]N=C(c1c([H])c([H])c(C(N([H])[H])=[N+]([H])[H])c([H])c1C([H])([H])[N+]([H])(C([H])([H])C([H])([H])C([H])([H])Oc1c([H])c([H])c2c(c1[H])C([H])([H])N(C(=O)C([H])(N([H])C(=O)C([H])(N([H])C([H])([H])[H])C([H])([H])[H])C(C([H])([H])[H])(C([H])([H])[H])C([H])([H])[H])C([H])(C(=O)N([H])C1([H])c3c([H])c([H])c([H])c([H])c3C([H])([H])C([H])([H])C1([H])[H])C2([H])[H])C([H])([H])C([H])([H])C([H])([H])N([H])C(=O)N1C([H])([H])C([H])([H])C([H])([H])C([H])(n2nc(-c3c([H])c([H])c(Oc4c([H])c([H])c(F)c([H])c4F)c([H])c3[H])c(C(=O)N([H])[H])c2N([H])[H])C1([H])[H])C([H])([H])[H]

$$$$
76:0:0
     RDKit          3D

 94102  0  0  1  0  0  0  0  0999 V2000
  -28.5940  -18.8420   20.7670 C   0  0  0  0  0  2  0  0  0  0  0  0
  -28.2650  -20.2370   20.1220 C   0  0  0  0  0  2  0  0  0  0  0  0
  -30.9520  -19.5590   21.0170 C   0  0  0  0  0  2  0  0  0  0  0  0
  -30.0580  -18.3750   20.5460 C   0  0  0  0  0  3  0  0  0  0  0  0
  -30.6380  -20.9530   20.3820 C   0  0  0  0  0  3  0  0  0  0  0  0
  -29.1660  -21.4260   20.5890 C   0  0  0  0  0  3  0  0  0  0  0  0
  -31.5690  -21.9030   20.9750 N   0  0  0  0  0  0  0  0  0  0  0  0
  -31.3600  -22.0240   21.9620 H   0  0  0  0  0  0  0  0  0  0  0  0
  -31.4700  -22.8300   20.5790 H   0  0  0  0  0  0  0  0  0  0  0  0
  -28.8750  -22.7010   19.8250 N   0  0  0  0  0  4  0  0  0  0  0  0
  -28.0360  -22.5400   19.2900 H   0  0  0  0  0  0  0  0  0  0  0  0
  -29.6200  -22.8050   19.1550 H   0  0  0  0  0  0  0  0  0  0  0  0
  -28.6950  -24.0100   20.5730 C   0  0  0  0  0  2  0  0  0  0  0  0
  -28.6510  -25.3020   19.6550 C   0  0  0  0  0  2  0  0  0  0  0  0
  -28.5000  -26.6170   20.3000 O   0  0  0  0  0  0  0  0  0  0  0  0
  -24.6180  -31.8910   23.2490 C   0  0  0  0  0  0  0  0  0  0  0  0
  -27.3280  -27.3770   20.2310 C   0  0  0  0  0  0  0  0  0  0  0  0
  -23.4540  -30.4860   21.5840 C   0  0  0  0  0  3  0  0  0  0  0  0
  -24.9390  -28.9470   20.1880 C   0  0  0  0  0  0  0  0  0  0  0  0
  -25.9910  -30.8290   21.4460 C   0  0  0  0  0  2  0  0  0  0  0  0
  -26.0900  -29.4520   20.8030 C   0  0  0  0  0  0  0  0  0  0  0  0
  -27.2840  -28.6770   20.8170 C   0  0  0  0  0  3  0  0  0  0  0  0
  -26.1430  -26.9050   19.6180 C   0  0  0  0  0  3  0  0  0  0  0  0
  -24.9660  -27.6760   19.5930 C   0  0  0  0  0  3  0  0  0  0  0  0
  -23.6960  -29.8100   20.2090 C   0  0  0  0  0  2  0  0  0  0  0  0
  -24.7050  -31.0850   22.1510 N   0  0  0  0  0  0  0  0  0  0  0  0
  -23.5240  -32.1610   23.7630 O   0  0  0  0  0  0  0  0  0  0  0  0
  -22.7810  -29.4630   22.5310 C   0  0  0  0  0  0  0  0  0  0  0  0
  -21.4560  -29.2950   22.3900 N   0  0  0  0  0  0  0  0  0  0  0  0
  -23.4500  -28.8260   23.3470 O   0  0  0  0  0  0  0  0  0  0  0  0
  -20.9770  -29.8610   21.7040 H   0  0  0  0  0  0  0  0  0  0  0  0
  -18.0580  -28.1630   22.8920 C   0  0  0  0  0  0  0  0  0  0  0  0
  -20.6240  -28.3570   23.1460 C   0  0  0  0  0  3  0  0  0  0  0  0
  -20.6890  -26.9380   22.5340 C   0  0  0  0  0  2  0  0  0  0  0  0
  -19.5710  -26.6650   21.5230 C   0  0  0  0  0  2  0  0  0  0  0  0
  -18.1980  -26.8260   22.1830 C   0  0  0  0  0  2  0  0  0  0  0  0
  -19.1980  -28.8890   23.3300 C   0  0  0  0  0  0  0  0  0  0  0  0
  -19.0140  -30.1420   23.9530 C   0  0  0  0  0  3  0  0  0  0  0  0
  -17.7220  -30.6680   24.1430 C   0  0  0  0  0  3  0  0  0  0  0  0
  -16.5970  -29.9380   23.7220 C   0  0  0  0  0  3  0  0  0  0  0  0
  -16.7660  -28.6880   23.1020 C   0  0  0  0  0  3  0  0  0  0  0  0
  -25.8860  -32.5290   23.8970 C   0  0  0  0  0  3  0  0  0  0  0  0
  -25.5650  -33.9270   24.2160 N   0  0  0  0  0  0  0  0  0  0  0  0
  -25.9160  -34.9790   23.4650 C   0  0  0  0  0  0  0  0  0  0  0  0
  -26.6130  -34.8750   22.4530 O   0  0  0  0  0  0  0  0  0  0  0  0
  -24.9490  -34.0810   25.0010 H   0  0  0  0  0  0  0  0  0  0  0  0
  -24.2060  -36.7750   23.0480 C   0  0  0  0  0  1  0  0  0  0  0  0
  -25.4130  -36.3670   23.9060 C   0  0  0  0  0  3  0  0  0  0  0  0
  -27.5120  -37.2510   24.8250 C   0  0  0  0  0  1  0  0  0  0  0  0
  -26.4510  -37.4180   23.8360 N   0  0  0  0  0  0  0  0  0  0  0  0
  -26.0410  -38.3390   23.9640 H   0  0  0  0  0  0  0  0  0  0  0  0
  -26.3770  -31.7620   25.1870 C   0  0  1  0  0  0  0  0  0  0  0  0
  -25.2600  -31.5180   26.2280 C   0  0  0  0  0  1  0  0  0  0  0  0
  -26.9780  -30.3880   24.8110 C   0  0  0  0  0  1  0  0  0  0  0  0
  -27.5050  -32.5650   25.8750 C   0  0  0  0  0  1  0  0  0  0  0  0
  -30.4930  -17.0370   21.2880 C   0  0  0  0  0  2  0  0  0  0  0  0
  -30.6400  -14.6290   20.4340 C   0  0  0  0  0  0  0  0  0  0  0  0
  -30.3490  -12.4480   19.2830 C   0  0  0  0  0  2  0  0  0  0  0  0
  -29.4020  -12.6280   18.0790 C   0  0  0  0  0  2  0  0  0  0  0  0
  -27.9310  -12.4770   18.5170 C   0  0  0  0  0  2  0  0  0  0  0  0
  -27.5930  -13.3140   19.7810 C   0  0  0  0  0  3  0  0  0  0  0  0
  -28.6570  -13.1220   20.8840 C   0  0  0  0  0  2  0  0  0  0  0  0
  -29.9640  -13.4480   20.2960 N   0  0  0  0  0  0  0  0  0  0  0  0
  -31.8030  -14.7520   20.0430 O   0  0  0  0  0  0  0  0  0  0  0  0
  -29.9340  -15.7100   20.8770 N   0  0  0  0  0  0  0  0  0  0  0  0
  -28.9650  -15.5420   21.1000 H   0  0  0  0  0  0  0  0  0  0  0  0
  -25.2050  -13.9160   20.5090 C   0  0  0  0  0  0  0  0  0  0  0  0
  -24.1370  -13.1430   20.8760 C   0  0  0  0  0  0  0  0  0  0  0  0
  -24.5960  -11.7910   20.8390 C   0  0  0  0  0  0  0  0  0  0  0  0
  -26.2470  -13.0340   20.2680 N   0  0  0  0  0  0  0  0  0  0  0  0
  -25.8850  -11.7510   20.5280 N   0  0  0  0  0  0  0  0  0  0  0  0
  -23.8670  -10.5290   21.0240 C   0  0  0  0  0  0  0  0  0  0  0  0
  -24.2890   -9.5630   21.9620 C   0  0  0  0  0  3  0  0  0  0  0  0
  -23.5610   -8.3660   22.1350 C   0  0  0  0  0  3  0  0  0  0  0  0
  -22.3950   -8.1280   21.3680 C   0  0  0  0  0  0  0  0  0  0  0  0
  -21.9920   -9.0830   20.4190 C   0  0  0  0  0  3  0  0  0  0  0  0
  -22.7220  -10.2710   20.2450 C   0  0  0  0  0  3  0  0  0  0  0  0
  -21.6390   -6.9840   21.4500 O   0  0  0  0  0  0  0  0  0  0  0  0
  -21.5660   -6.2500   22.6070 C   0  0  0  0  0  0  0  0  0  0  0  0
  -21.0990   -6.8100   23.8160 C   0  0  0  0  0  3  0  0  0  0  0  0
  -20.9750   -6.0020   24.9640 C   0  0  0  0  0  3  0  0  0  0  0  0
  -21.3070   -4.6350   24.9050 C   0  0  0  0  0  0  0  0  0  0  0  0
  -21.7670   -4.0760   23.7000 C   0  0  0  0  0  3  0  0  0  0  0  0
  -21.8930   -4.8800   22.5540 C   0  0  0  0  0  0  0  0  0  0  0  0
  -22.3170   -4.3310   21.3900 F   0  0  0  0  0  0  0  0  0  0  0  0
  -21.1800   -3.8580   26.0050 F   0  0  0  0  0  0  0  0  0  0  0  0
  -22.7410  -13.6230   21.1530 C   0  0  0  0  0  0  0  0  0  0  0  0
  -22.0090  -12.9180   22.0080 N   0  0  0  0  0  0  0  0  0  0  0  0
  -22.3080  -14.6570   20.6450 O   0  0  0  0  0  0  0  0  0  0  0  0
  -22.3720  -12.0820   22.4400 H   0  0  0  0  0  0  0  0  0  0  0  0
  -21.0720  -13.2200   22.2350 H   0  0  0  0  0  0  0  0  0  0  0  0
  -25.3720  -15.2870   20.3350 N   0  0  0  0  0  0  0  0  0  0  0  0
  -24.6050  -15.9400   20.4450 H   0  0  0  0  0  0  0  0  0  0  0  0
  -26.2160  -15.7230   19.9860 H   0  0  0  0  0  0  0  0  0  0  0  0
  2  6  1  0
  2  1  1  0
  4  1  1  0
  4  3  1  0
  4 56  1  0
  5  6  1  0
  5  7  1  0
  5  3  1  0
  6 10  1  0
  7  8  1  0
  9  7  1  0
 10 13  1  0
 11 10  1  0
 12 10  1  0
 14 15  1  0
 14 13  1  0
 16 27  2  0
 17 15  1  0
 17 22  1  0
 18 26  1  0
 18 28  1  0
 19 25  1  0
 19 21  1  0
 20 26  1  0
 21 22  2  0
 21 20  1  0
 23 17  2  0
 24 23  1  0
 24 19  2  0
 25 18  1  0
 26 16  1  0
 28 30  2  0
 29 28  1  0
 31 29  1  0
 32 41  2  0
 32 37  1  0
 33 29  1  0
 33 37  1  0
 34 33  1  0
 35 36  1  0
 35 34  1  0
 36 32  1  0
 37 38  2  0
 38 39  1  0
 40 39  2  0
 41 40  1  0
 42 16  1  0
 42 43  1  0
 42 52  1  0
 43 46  1  0
 44 48  1  0
 44 43  1  0
 45 44  2  0
 48 47  1  0
 50 48  1  0
 50 51  1  0
 50 49  1  0
 52 55  1  1
 52 53  1  0
 54 52  1  0
 57 65  1  0
 58 63  1  0
 59 60  1  0
 59 58  1  0
 61 60  1  0
 61 70  1  0
 61 62  1  0
 63 57  1  0
 63 62  1  0
 64 57  2  0
 65 66  1  0
 65 56  1  0
 67 68  2  0
 68 87  1  0
 69 68  1  0
 69 72  1  0
 70 67  1  0
 70 71  1  0
 71 69  2  0
 72 73  1  0
 73 74  2  0
 75 78  1  0
 75 74  1  0
 76 75  2  0
 77 76  1  0
 77 72  2  0
 78 79  1  0
 79 80  1  0
 80 81  2  0
 82 81  1  0
 82 86  1  0
 83 82  2  0
 84 79  2  0
 84 83  1  0
 85 84  1  0
 87 88  1  0
 88 91  1  0
 88 90  1  0
 89 87  2  0
 92 93  1  0
 92 67  1  0
 94 92  1  0
M  ISO  4  14 101  15 101  57 100  65 100
M  END
>  <TORSDO>  (77) 
F 21

>  <SCORE>  (77) 
-13.717

>  <name>  (77) 
76

>  <ligand_id>  (77) 
76

>  <original_smiles>  (77) 
[H]c1c([H])c([H])c2c(c1[H])C([H])([H])C([H])([H])C([H])([H])C2([H])N([H])C(=O)C1([H])N(C(=O)C([H])(N([H])C(=O)C([H])(N([H])C([H])([H])[H])C([H])([H])[H])C(C([H])([H])[H])(C([H])([H])[H])C([H])([H])[H])C([H])([H])c2c([H])c(OC([H])([H])C([H])([H])[N+]([H])([H])C3([H])C([H])([H])C([H])([H])C([H])(C([H])([H])N([H])C(=O)N4C([H])([H])C([H])([H])C([H])([H])C([H])(n5nc(-c6c([H])c([H])c(Oc7c([H])c([H])c(F)c([H])c7F)c([H])c6[H])c(C(=O)N([H])[H])c5N([H])[H])C4([H])[H])C([H])([H])C3([H])N([H])[H])c([H])c([H])c2C1([H])[H]

>  <smiles>  (77) 
[H]c1c([H])c([H])c2c(c1[H])C([H])([H])C([H])([H])C([H])([H])C2([H])N([H])C(=O)C1([H])N(C(=O)C([H])(N([H])C(=O)C([H])(N([H])C([H])([H])[H])C([H])([H])[H])C(C([H])([H])[H])(C([H])([H])[H])C([H])([H])[H])C([H])([H])c2c([H])c(OC([H])([H])C([H])([H])[N+]([H])([H])C3([H])C([H])([H])C([H])([H])C([H])(C([H])([H])N([H])C(=O)N4C([H])([H])C([H])([H])C([H])([H])C([H])(n5nc(-c6c([H])c([H])c(Oc7c([H])c([H])c(F)c([H])c7F)c([H])c6[H])c(C(=O)N([H])[H])c5N([H])[H])C4([H])[H])C([H])([H])C3([H])N([H])[H])c([H])c([H])c2C1([H])[H]

$$$$
77:0:0
     RDKit          3D

 93102  0  0  1  0  0  0  0  0999 V2000
  -29.9550  -19.6150   23.3270 C   0  0  0  0  0  3  0  0  0  0  0  0
  -29.7200  -19.0250   20.9760 C   0  0  0  0  0  3  0  0  0  0  0  0
  -29.5840  -20.9410   23.0340 C   0  0  0  0  0  3  0  0  0  0  0  0
  -29.3480  -20.3560   20.6820 C   0  0  0  0  0  3  0  0  0  0  0  0
  -30.0340  -18.6500   22.3000 C   0  0  0  0  0  0  0  0  0  0  0  0
  -29.2800  -21.3210   21.7100 C   0  0  0  0  0  0  0  0  0  0  0  0
  -31.7180  -17.0660   23.5220 C   0  0  0  0  0  2  0  0  0  0  0  0
  -32.0420  -15.7790   22.7680 C   0  0  0  0  0  2  0  0  0  0  0  0
  -30.4640  -17.2280   22.6430 C   0  0  0  0  0  3  0  0  0  0  0  0
  -31.1740  -16.3130   21.6220 C   0  0  0  0  0  3  0  0  0  0  0  0
  -30.5650  -14.6170   19.9220 C   0  0  0  0  0  0  0  0  0  0  0  0
  -29.9900  -12.6660   18.5260 C   0  0  0  0  0  2  0  0  0  0  0  0
  -28.9400  -13.0260   17.4590 C   0  0  0  0  0  2  0  0  0  0  0  0
  -27.5170  -12.8780   18.0300 C   0  0  0  0  0  2  0  0  0  0  0  0
  -27.3440  -13.6020   19.3920 C   0  0  0  0  0  3  0  0  0  0  0  0
  -28.4940  -13.2400   20.3570 C   0  0  0  0  0  2  0  0  0  0  0  0
  -29.7770  -13.5350   19.6920 N   0  0  0  0  0  0  0  0  0  0  0  0
  -31.4950  -14.9490   19.1800 O   0  0  0  0  0  0  0  0  0  0  0  0
  -30.3210  -15.2650   21.0660 N   0  0  0  0  0  0  0  0  0  0  0  0
  -29.5540  -14.9290   21.6270 H   0  0  0  0  0  0  0  0  0  0  0  0
  -25.0300  -14.2030   20.3500 C   0  0  0  0  0  0  0  0  0  0  0  0
  -23.9920  -13.4250   20.7900 C   0  0  0  0  0  0  0  0  0  0  0  0
  -24.4300  -12.0720   20.6580 C   0  0  0  0  0  0  0  0  0  0  0  0
  -26.0370  -13.3230   19.9840 N   0  0  0  0  0  0  0  0  0  0  0  0
  -25.6830  -12.0340   20.2240 N   0  0  0  0  0  0  0  0  0  0  0  0
  -23.7100  -10.8100   20.8690 C   0  0  0  0  0  0  0  0  0  0  0  0
  -24.1940   -9.8230   21.7570 C   0  0  0  0  0  3  0  0  0  0  0  0
  -23.4750   -8.6240   21.9550 C   0  0  0  0  0  3  0  0  0  0  0  0
  -22.2580   -8.4040   21.2660 C   0  0  0  0  0  0  0  0  0  0  0  0
  -21.7930   -9.3790   20.3670 C   0  0  0  0  0  3  0  0  0  0  0  0
  -22.5120  -10.5680   20.1660 C   0  0  0  0  0  3  0  0  0  0  0  0
  -21.5050   -7.2590   21.3770 O   0  0  0  0  0  0  0  0  0  0  0  0
  -21.4980   -6.5100   22.5250 C   0  0  0  0  0  0  0  0  0  0  0  0
  -21.1340   -7.0620   23.7730 C   0  0  0  0  0  3  0  0  0  0  0  0
  -21.0750   -6.2380   24.9150 C   0  0  0  0  0  3  0  0  0  0  0  0
  -21.3680   -4.8660   24.8120 C   0  0  0  0  0  0  0  0  0  0  0  0
  -21.7250   -4.3140   23.5690 C   0  0  0  0  0  3  0  0  0  0  0  0
  -21.7880   -5.1340   22.4290 C   0  0  0  0  0  0  0  0  0  0  0  0
  -22.1120   -4.5930   21.2300 F   0  0  0  0  0  0  0  0  0  0  0  0
  -21.3030   -4.0720   25.9070 F   0  0  0  0  0  0  0  0  0  0  0  0
  -22.6340  -13.9020   21.2170 C   0  0  0  0  0  0  0  0  0  0  0  0
  -21.9880  -13.1830   22.1280 N   0  0  0  0  0  0  0  0  0  0  0  0
  -22.1580  -14.9490   20.7780 O   0  0  0  0  0  0  0  0  0  0  0  0
  -22.3870  -12.3360   22.5050 H   0  0  0  0  0  0  0  0  0  0  0  0
  -21.0790  -13.4840   22.4530 H   0  0  0  0  0  0  0  0  0  0  0  0
  -25.1940  -15.5780   20.2170 N   0  0  0  0  0  0  0  0  0  0  0  0
  -24.4540  -16.2340   20.4400 H   0  0  0  0  0  0  0  0  0  0  0  0
  -26.0250  -16.0260   19.8510 H   0  0  0  0  0  0  0  0  0  0  0  0
  -28.8930  -22.7630   21.4070 C   0  0  0  0  0  2  0  0  0  0  0  0
  -30.0560  -23.5650   20.7920 C   0  0  0  0  0  2  0  0  0  0  0  0
  -29.8230  -25.0870   20.7070 C   0  0  0  0  0  2  0  0  0  0  0  0
  -28.6660  -25.5350   19.7990 C   0  0  0  0  0  2  0  0  0  0  0  0
  -28.6340  -26.9640   19.8290 O   0  0  0  0  0  0  0  0  0  0  0  0
  -24.6090  -31.7520   23.1690 C   0  0  0  0  0  0  0  0  0  0  0  0
  -27.4100  -27.5920   19.8610 C   0  0  0  0  0  0  0  0  0  0  0  0
  -23.4430  -30.3710   21.4790 C   0  0  0  0  0  3  0  0  0  0  0  0
  -24.9420  -28.9690   19.9680 C   0  0  0  0  0  0  0  0  0  0  0  0
  -25.9430  -30.8610   21.2630 C   0  0  0  0  0  2  0  0  0  0  0  0
  -26.0820  -29.5260   20.5620 C   0  0  0  0  0  0  0  0  0  0  0  0
  -27.3170  -28.8480   20.5010 C   0  0  0  0  0  3  0  0  0  0  0  0
  -26.2520  -27.0420   19.2630 C   0  0  0  0  0  3  0  0  0  0  0  0
  -25.0230  -27.7250   19.3160 C   0  0  0  0  0  3  0  0  0  0  0  0
  -23.6600  -29.7650   20.0680 C   0  0  0  0  0  2  0  0  0  0  0  0
  -24.6830  -31.0070   22.0300 N   0  0  0  0  0  0  0  0  0  0  0  0
  -23.5250  -31.9480   23.7360 O   0  0  0  0  0  0  0  0  0  0  0  0
  -22.8540  -29.2780   22.4010 C   0  0  0  0  0  0  0  0  0  0  0  0
  -21.5390  -29.0340   22.2760 N   0  0  0  0  0  0  0  0  0  0  0  0
  -23.5780  -28.6540   23.1820 O   0  0  0  0  0  0  0  0  0  0  0  0
  -21.0160  -29.5920   21.6160 H   0  0  0  0  0  0  0  0  0  0  0  0
  -18.2330  -27.6580   22.7480 C   0  0  0  0  0  0  0  0  0  0  0  0
  -20.7780  -28.0260   23.0140 C   0  0  0  0  0  3  0  0  0  0  0  0
  -20.9440  -26.6270   22.3780 C   0  0  0  0  0  2  0  0  0  0  0  0
  -19.8510  -26.2960   21.3570 C   0  0  0  0  0  2  0  0  0  0  0  0
  -18.4680  -26.3480   22.0140 C   0  0  0  0  0  2  0  0  0  0  0  0
  -19.3180  -28.4540   23.2040 C   0  0  0  0  0  0  0  0  0  0  0  0
  -19.0450  -29.6800   23.8470 C   0  0  0  0  0  3  0  0  0  0  0  0
  -17.7200  -30.1110   24.0430 C   0  0  0  0  0  3  0  0  0  0  0  0
  -16.6500  -29.3120   23.6070 C   0  0  0  0  0  3  0  0  0  0  0  0
  -16.9060  -28.0890   22.9640 C   0  0  0  0  0  3  0  0  0  0  0  0
  -25.8740  -32.4140   23.7970 C   0  0  0  0  0  3  0  0  0  0  0  0
  -25.5260  -33.8000   24.1410 N   0  0  0  0  0  0  0  0  0  0  0  0
  -25.8320  -34.8680   23.3930 C   0  0  0  0  0  0  0  0  0  0  0  0
  -26.5100  -34.7940   22.3650 O   0  0  0  0  0  0  0  0  0  0  0  0
  -24.9280  -33.9300   24.9440 H   0  0  0  0  0  0  0  0  0  0  0  0
  -24.0610  -36.6150   23.0320 C   0  0  0  0  0  1  0  0  0  0  0  0
  -25.3000  -36.2370   23.8590 C   0  0  0  0  0  3  0  0  0  0  0  0
  -27.3970  -37.1660   24.7350 C   0  0  0  0  0  1  0  0  0  0  0  0
  -26.3070  -37.3180   23.7760 N   0  0  0  0  0  0  0  0  0  0  0  0
  -25.8730  -38.2260   23.9310 H   0  0  0  0  0  0  0  0  0  0  0  0
  -26.4140  -31.6440   25.0640 C   0  0  1  0  0  0  0  0  0  0  0  0
  -25.3240  -31.3460   26.1200 C   0  0  0  0  0  1  0  0  0  0  0  0
  -27.0540  -30.2980   24.6550 C   0  0  0  0  0  1  0  0  0  0  0  0
  -27.5300  -32.4710   25.7460 C   0  0  0  0  0  1  0  0  0  0  0  0
  2  5  1  0
  3  1  1  0
  4  2  2  0
  4  6  1  0
  5  1  2  0
  6  3  2  0
  8  7  1  0
  9  5  1  0
  9  7  1  0
 10 19  1  0
 10  9  1  0
 10  8  1  0
 11 19  1  0
 12 17  1  0
 13 14  1  0
 13 12  1  0
 15 14  1  0
 15 24  1  0
 15 16  1  0
 17 11  1  0
 17 16  1  0
 18 11  2  0
 19 20  1  0
 21 22  2  0
 22 41  1  0
 23 22  1  0
 23 26  1  0
 24 25  1  0
 24 21  1  0
 25 23  2  0
 26 27  1  0
 27 28  2  0
 29 32  1  0
 29 28  1  0
 30 29  2  0
 31 30  1  0
 31 26  2  0
 32 33  1  0
 33 34  1  0
 34 35  2  0
 36 35  1  0
 36 40  1  0
 37 36  2  0
 38 33  2  0
 38 37  1  0
 39 38  1  0
 41 42  1  0
 42 45  1  0
 42 44  1  0
 43 41  2  0
 46 21  1  0
 46 47  1  0
 48 46  1  0
 49  6  1  0
 50 49  1  0
 51 50  1  0
 52 53  1  0
 52 51  1  0
 53 55  1  0
 54 65  2  0
 55 60  1  0
 56 64  1  0
 56 66  1  0
 57 63  1  0
 57 59  1  0
 58 64  1  0
 59 58  1  0
 60 59  2  0
 61 62  1  0
 61 55  2  0
 62 57  2  0
 63 56  1  0
 64 54  1  0
 66 68  2  0
 67 66  1  0
 69 67  1  0
 70 79  2  0
 70 75  1  0
 71 67  1  0
 71 75  1  0
 72 71  1  0
 73 74  1  0
 73 72  1  0
 74 70  1  0
 75 76  2  0
 76 77  1  0
 78 77  2  0
 79 78  1  0
 80 54  1  0
 80 81  1  0
 80 90  1  0
 81 84  1  0
 82 86  1  0
 82 81  1  0
 83 82  2  0
 86 85  1  0
 88 86  1  0
 88 89  1  0
 88 87  1  0
 90 93  1  1
 90 91  1  0
 92 90  1  0
M  ISO  4  11 100  19 100  52 101  53 101
M  END
>  <TORSDO>  (78) 
F 21

>  <SCORE>  (78) 
-5.329

>  <name>  (78) 
77

>  <ligand_id>  (78) 
77

>  <original_smiles>  (78) 
[H]c1c([H])c([H])c2c(c1[H])C([H])([H])C([H])([H])C([H])([H])C2([H])N([H])C(=O)C1([H])N(C(=O)C([H])(N([H])C(=O)C([H])(N([H])C([H])([H])[H])C([H])([H])[H])C(C([H])([H])[H])(C([H])([H])[H])C([H])([H])[H])C([H])([H])c2c([H])c(OC([H])([H])C([H])([H])C([H])([H])C([H])([H])c3c([H])c([H])c(C4([H])C([H])([H])C([H])([H])C4([H])N([H])C(=O)N4C([H])([H])C([H])([H])C([H])([H])C([H])(n5nc(-c6c([H])c([H])c(Oc7c([H])c([H])c(F)c([H])c7F)c([H])c6[H])c(C(=O)N([H])[H])c5N([H])[H])C4([H])[H])c([H])c3[H])c([H])c([H])c2C1([H])[H]

>  <smiles>  (78) 
[H]c1c([H])c([H])c2c(c1[H])C([H])([H])C([H])([H])C([H])([H])C2([H])N([H])C(=O)C1([H])N(C(=O)C([H])(N([H])C(=O)C([H])(N([H])C([H])([H])[H])C([H])([H])[H])C(C([H])([H])[H])(C([H])([H])[H])C([H])([H])[H])C([H])([H])c2c([H])c(OC([H])([H])C([H])([H])C([H])([H])C([H])([H])c3c([H])c([H])c(C4([H])C([H])([H])C([H])([H])C4([H])N([H])C(=O)N4C([H])([H])C([H])([H])C([H])([H])C([H])(n5nc(-c6c([H])c([H])c(Oc7c([H])c([H])c(F)c([H])c7F)c([H])c6[H])c(C(=O)N([H])[H])c5N([H])[H])C4([H])[H])c([H])c3[H])c([H])c([H])c2C1([H])[H]

$$$$
78:0:0
     RDKit          3D

 96104  0  0  1  0  0  0  0  0999 V2000
  -28.9000  -18.5700   21.1320 N   0  0  0  0  0  4  0  0  0  0  0  0
  -29.7980  -18.7070   21.5650 H   0  0  0  0  0  0  0  0  0  0  0  0
  -28.2740  -18.2400   21.8480 H   0  0  0  0  0  0  0  0  0  0  0  0
  -29.0010  -17.4870   20.1280 C   0  0  0  0  0  2  0  0  0  0  0  0
  -26.6150  -14.0830   21.4350 C   0  0  0  0  0  3  0  0  0  0  0  0
  -26.0280  -15.3430   21.2340 C   0  0  0  0  0  3  0  0  0  0  0  0
  -27.9900  -13.9040   21.2060 C   0  0  0  0  0  3  0  0  0  0  0  0
  -26.8210  -16.4240   20.8060 C   0  0  0  0  0  3  0  0  0  0  0  0
  -28.7950  -14.9770   20.7630 C   0  0  0  0  0  0  0  0  0  0  0  0
  -28.2050  -16.2610   20.5730 C   0  0  0  0  0  0  0  0  0  0  0  0
  -30.2630  -14.6820   20.4730 C   0  0  0  0  0  2  0  0  0  0  0  0
  -31.1430  -12.4450   20.9480 C   0  0  0  0  0  0  0  0  0  0  0  0
  -30.9140  -10.3380   22.2050 C   0  0  0  0  0  2  0  0  0  0  0  0
  -30.4600   -9.2190   21.2460 C   0  0  0  0  0  2  0  0  0  0  0  0
  -28.9220   -9.1860   21.1320 C   0  0  0  0  0  2  0  0  0  0  0  0
  -28.3170  -10.5880   20.8470 C   0  0  0  0  0  3  0  0  0  0  0  0
  -28.9060  -11.6380   21.8110 C   0  0  0  0  0  2  0  0  0  0  0  0
  -30.3740  -11.6070   21.6930 N   0  0  0  0  0  0  0  0  0  0  0  0
  -32.3640  -12.3260   20.8340 O   0  0  0  0  0  0  0  0  0  0  0  0
  -30.4980  -13.2820   20.1290 N   0  0  0  0  0  0  0  0  0  0  0  0
  -30.9540  -13.2460   19.2290 H   0  0  0  0  0  0  0  0  0  0  0  0
  -25.9420  -11.5000   20.4470 C   0  0  0  0  0  0  0  0  0  0  0  0
  -24.7040  -10.9580   20.6750 C   0  0  0  0  0  0  0  0  0  0  0  0
  -24.9360   -9.6780   21.2630 C   0  0  0  0  0  0  0  0  0  0  0  0
  -26.8560  -10.5610   20.9020 N   0  0  0  0  0  0  0  0  0  0  0  0
  -26.2360   -9.4790   21.4390 N   0  0  0  0  0  0  0  0  0  0  0  0
  -23.9960   -8.6020   21.6110 C   0  0  0  0  0  0  0  0  0  0  0  0
  -23.7730   -8.2250   22.9530 C   0  0  0  0  0  3  0  0  0  0  0  0
  -22.8520   -7.2020   23.2670 C   0  0  0  0  0  3  0  0  0  0  0  0
  -22.1390   -6.5490   22.2330 C   0  0  0  0  0  0  0  0  0  0  0  0
  -22.3810   -6.9130   20.8970 C   0  0  0  0  0  3  0  0  0  0  0  0
  -23.3030   -7.9270   20.5870 C   0  0  0  0  0  3  0  0  0  0  0  0
  -21.2440   -5.5280   22.4420 O   0  0  0  0  0  0  0  0  0  0  0  0
  -20.3810   -5.5340   23.5080 C   0  0  0  0  0  0  0  0  0  0  0  0
  -19.4590   -6.5830   23.7180 C   0  0  0  0  0  3  0  0  0  0  0  0
  -18.5470   -6.5140   24.7890 C   0  0  0  0  0  3  0  0  0  0  0  0
  -18.5460   -5.3950   25.6430 C   0  0  0  0  0  0  0  0  0  0  0  0
  -19.4560   -4.3460   25.4310 C   0  0  0  0  0  3  0  0  0  0  0  0
  -20.3710   -4.4150   24.3660 C   0  0  0  0  0  0  0  0  0  0  0  0
  -21.2360   -3.3930   24.1550 F   0  0  0  0  0  0  0  0  0  0  0  0
  -17.6630   -5.3250   26.6670 F   0  0  0  0  0  0  0  0  0  0  0  0
  -23.3830  -11.5510   20.2780 C   0  0  0  0  0  0  0  0  0  0  0  0
  -22.3320  -11.2760   21.0450 N   0  0  0  0  0  0  0  0  0  0  0  0
  -23.2830  -12.3000   19.3090 O   0  0  0  0  0  0  0  0  0  0  0  0
  -22.4180  -10.6880   21.8600 H   0  0  0  0  0  0  0  0  0  0  0  0
  -21.4300  -11.6680   20.8170 H   0  0  0  0  0  0  0  0  0  0  0  0
  -26.3640  -12.6940   19.8700 N   0  0  0  0  0  0  0  0  0  0  0  0
  -25.7150  -13.3380   19.4320 H   0  0  0  0  0  0  0  0  0  0  0  0
  -27.3340  -12.9180   19.6910 H   0  0  0  0  0  0  0  0  0  0  0  0
  -28.3910  -19.8660   20.6280 C   0  0  0  0  0  2  0  0  0  0  0  0
  -29.4780  -20.7010   19.9160 C   0  0  0  0  0  2  0  0  0  0  0  0
  -30.2070  -21.6770   20.8580 C   0  0  0  0  0  2  0  0  0  0  0  0
  -31.0560  -22.7210   20.1150 C   0  0  0  0  0  2  0  0  0  0  0  0
  -31.2660  -24.0020   20.9380 C   0  0  0  0  0  2  0  0  0  0  0  0
  -32.1040  -25.0630   20.2030 C   0  0  0  0  0  2  0  0  0  0  0  0
  -32.0140  -26.3240   20.8660 O   0  0  0  0  0  0  0  0  0  0  0  0
  -27.6550  -30.5110   24.5940 C   0  0  0  0  0  0  0  0  0  0  0  0
  -30.8180  -27.0150   20.8590 C   0  0  0  0  0  0  0  0  0  0  0  0
  -26.7550  -29.6810   22.4470 C   0  0  0  0  0  3  0  0  0  0  0  0
  -28.4360  -28.5400   20.9100 C   0  0  0  0  0  0  0  0  0  0  0  0
  -29.2750  -29.9750   22.7750 C   0  0  0  0  0  2  0  0  0  0  0  0
  -29.4750  -28.8330   21.8020 C   0  0  0  0  0  0  0  0  0  0  0  0
  -30.6680  -28.0800   21.7740 C   0  0  0  0  0  3  0  0  0  0  0  0
  -29.7550  -26.7270   19.9710 C   0  0  0  0  0  3  0  0  0  0  0  0
  -28.5700  -27.4850   19.9910 C   0  0  0  0  0  3  0  0  0  0  0  0
  -27.1990  -29.4040   20.9860 C   0  0  0  0  0  2  0  0  0  0  0  0
  -27.9040  -30.0520   23.3350 N   0  0  0  0  0  0  0  0  0  0  0  0
  -26.4960  -30.6690   25.0030 O   0  0  0  0  0  0  0  0  0  0  0  0
  -25.9530  -28.4610   22.9550 C   0  0  0  0  0  0  0  0  0  0  0  0
  -24.6830  -28.3660   22.5350 N   0  0  0  0  0  0  0  0  0  0  0  0
  -26.4800  -27.6160   23.6830 O   0  0  0  0  0  0  0  0  0  0  0  0
  -24.3250  -29.1030   21.9440 H   0  0  0  0  0  0  0  0  0  0  0  0
  -21.2950  -27.2090   22.0460 C   0  0  0  0  0  0  0  0  0  0  0  0
  -23.7490  -27.2860   22.8520 C   0  0  0  0  0  3  0  0  0  0  0  0
  -23.9810  -26.0630   21.9340 C   0  0  0  0  0  2  0  0  0  0  0  0
  -23.0980  -26.0680   20.6840 C   0  0  0  0  0  2  0  0  0  0  0  0
  -21.6170  -26.0860   21.0740 C   0  0  0  0  0  2  0  0  0  0  0  0
  -22.3000  -27.7820   22.8700 C   0  0  0  0  0  0  0  0  0  0  0  0
  -21.9540  -28.8460   23.7310 C   0  0  0  0  0  3  0  0  0  0  0  0
  -20.6350  -29.3330   23.7800 C   0  0  0  0  0  3  0  0  0  0  0  0
  -19.6410  -28.7520   22.9730 C   0  0  0  0  0  3  0  0  0  0  0  0
  -19.9710  -27.6890   22.1130 C   0  0  0  0  0  3  0  0  0  0  0  0
  -28.8140  -30.8820   25.5730 C   0  0  0  0  0  3  0  0  0  0  0  0
  -29.0490  -29.7990   26.6960 C   0  0  1  0  0  0  0  0  0  0  0  0
  -27.7580  -29.3880   27.4440 C   0  0  0  0  0  1  0  0  0  0  0  0
  -29.6720  -28.5190   26.0920 C   0  0  0  0  0  1  0  0  0  0  0  0
  -30.0600  -30.3350   27.7380 C   0  0  0  0  0  1  0  0  0  0  0  0
  -28.4880  -32.1850   26.1680 N   0  0  0  0  0  0  0  0  0  0  0  0
  -29.0250  -33.3510   25.7820 C   0  0  0  0  0  0  0  0  0  0  0  0
  -29.9120  -33.4300   24.9280 O   0  0  0  0  0  0  0  0  0  0  0  0
  -27.7290  -32.2010   26.8340 H   0  0  0  0  0  0  0  0  0  0  0  0
  -27.4980  -35.3300   25.5160 C   0  0  0  0  0  1  0  0  0  0  0  0
  -28.4960  -34.6330   26.4530 C   0  0  0  0  0  3  0  0  0  0  0  0
  -30.4140  -35.0870   27.9200 C   0  0  0  0  0  1  0  0  0  0  0  0
  -29.5660  -35.5800   26.8370 N   0  0  0  0  0  0  0  0  0  0  0  0
  -29.1720  -36.4730   27.1230 H   0  0  0  0  0  0  0  0  0  0  0  0
  1  2  1  0
  1  3  1  0
  4 10  1  0
  4  1  1  0
  6  5  1  0
  7  5  2  0
  8  6  2  0
  9  7  1  0
 10  9  2  0
 10  8  1  0
 11  9  1  0
 12 18  1  0
 14 13  1  0
 15 14  1  0
 16 25  1  0
 16 15  1  0
 16 17  1  0
 18 17  1  0
 18 13  1  0
 19 12  2  0
 20 11  1  0
 20 12  1  0
 21 20  1  0
 22 23  2  0
 22 25  1  0
 23 24  1  0
 24 26  2  0
 24 27  1  0
 25 26  1  0
 27 28  1  0
 28 29  2  0
 30 33  1  0
 30 29  1  0
 31 30  2  0
 32 31  1  0
 32 27  2  0
 33 34  1  0
 34 35  2  0
 34 39  1  0
 35 36  1  0
 36 37  2  0
 37 41  1  0
 38 37  1  0
 39 38  2  0
 40 39  1  0
 42 23  1  0
 42 43  1  0
 43 45  1  0
 44 42  2  0
 46 43  1  0
 47 22  1  0
 48 47  1  0
 49 47  1  0
 50  1  1  0
 51 50  1  0
 51 52  1  0
 53 52  1  0
 53 54  1  0
 55 56  1  0
 55 54  1  0
 57 68  2  0
 58 56  1  0
 58 63  1  0
 59 69  1  0
 59 67  1  0
 60 66  1  0
 60 62  1  0
 61 67  1  0
 62 61  1  0
 63 62  2  0
 64 65  1  0
 64 58  2  0
 65 60  2  0
 66 59  1  0
 67 57  1  0
 69 71  2  0
 70 69  1  0
 72 70  1  0
 73 82  2  0
 73 78  1  0
 74 70  1  0
 74 78  1  0
 75 74  1  0
 76 77  1  0
 76 75  1  0
 77 73  1  0
 78 79  2  0
 79 80  1  0
 81 80  2  0
 82 81  1  0
 83 57  1  0
 83 88  1  0
 83 84  1  0
 84 85  1  1
 84 87  1  0
 86 84  1  0
 88 91  1  0
 89 88  1  0
 89 93  1  0
 90 89  2  0
 93 92  1  0
 93 95  1  0
 95 96  1  0
 95 94  1  0
M  ISO  4  12 100  20 100  55 101  56 101
M  END
>  <TORSDO>  (79) 
F 25

>  <SCORE>  (79) 
-4.687

>  <name>  (79) 
78

>  <ligand_id>  (79) 
78

>  <original_smiles>  (79) 
[H]c1c([H])c([H])c(C([H])([H])[N+]([H])([H])C([H])([H])C([H])([H])C([H])([H])C([H])([H])C([H])([H])C([H])([H])Oc2c([H])c([H])c3c(c2[H])C([H])([H])N(C(=O)C([H])(N([H])C(=O)C([H])(N([H])C([H])([H])[H])C([H])([H])[H])C(C([H])([H])[H])(C([H])([H])[H])C([H])([H])[H])C([H])(C(=O)N([H])C2([H])c4c([H])c([H])c([H])c([H])c4C([H])([H])C([H])([H])C2([H])[H])C3([H])[H])c(C([H])([H])N([H])C(=O)N2C([H])([H])C([H])([H])C([H])([H])C([H])(n3nc(-c4c([H])c([H])c(Oc5c([H])c([H])c(F)c([H])c5F)c([H])c4[H])c(C(=O)N([H])[H])c3N([H])[H])C2([H])[H])c1[H]

>  <smiles>  (79) 
[H]c1c([H])c([H])c(C([H])([H])[N+]([H])([H])C([H])([H])C([H])([H])C([H])([H])C([H])([H])C([H])([H])C([H])([H])Oc2c([H])c([H])c3c(c2[H])C([H])([H])N(C(=O)C([H])(N([H])C(=O)C([H])(N([H])C([H])([H])[H])C([H])([H])[H])C(C([H])([H])[H])(C([H])([H])[H])C([H])([H])[H])C([H])(C(=O)N([H])C2([H])c4c([H])c([H])c([H])c([H])c4C([H])([H])C([H])([H])C2([H])[H])C3([H])[H])c(C([H])([H])N([H])C(=O)N2C([H])([H])C([H])([H])C([H])([H])C([H])(n3nc(-c4c([H])c([H])c(Oc5c([H])c([H])c(F)c([H])c5F)c([H])c4[H])c(C(=O)N([H])[H])c3N([H])[H])C2([H])[H])c1[H]

$$$$
79:0:0
     RDKit          3D

 93101  0  0  1  0  0  0  0  0999 V2000
  -30.9550  -20.3400   24.8250 C   0  0  0  0  0  2  0  0  0  0  0  0
  -29.8330  -21.3530   24.5660 C   0  0  0  0  0  2  0  0  0  0  0  0
  -31.9420  -20.3220   23.6470 C   0  0  0  0  0  2  0  0  0  0  0  0
  -29.1610  -21.1290   23.1930 C   0  0  0  0  0  2  0  0  0  0  0  0
  -31.2330  -20.0920   22.2910 C   0  0  0  0  0  3  0  0  0  0  0  0
  -30.1450  -21.1020   22.0700 N   0  0  2  0  0  4  0  0  0  0  0  0
  -29.6460  -20.7720   21.2570 H   0  0  0  0  0  0  0  0  0  0  0  0
  -30.7380  -18.6230   22.1650 C   0  0  0  0  0  2  0  0  0  0  0  0
  -30.2070  -18.2410   20.7670 C   0  0  0  0  0  2  0  0  0  0  0  0
  -31.0180  -17.1260   20.0780 C   0  0  0  0  0  2  0  0  0  0  0  0
  -31.3640  -14.6870   20.1460 C   0  0  0  0  0  0  0  0  0  0  0  0
  -30.9380  -12.5420   19.0340 C   0  0  0  0  0  2  0  0  0  0  0  0
  -29.9880  -12.8000   17.8460 C   0  0  0  0  0  2  0  0  0  0  0  0
  -28.5170  -12.7460   18.2990 C   0  0  0  0  0  2  0  0  0  0  0  0
  -28.2440  -13.5920   19.5690 C   0  0  0  0  0  3  0  0  0  0  0  0
  -29.3070  -13.3200   20.6600 C   0  0  0  0  0  2  0  0  0  0  0  0
  -30.6370  -13.5430   20.0690 N   0  0  0  0  0  0  0  0  0  0  0  0
  -32.4960  -14.8020   19.6710 O   0  0  0  0  0  0  0  0  0  0  0  0
  -30.6850  -15.7760   20.5480 N   0  0  0  0  0  0  0  0  0  0  0  0
  -29.7620  -15.6190   20.9250 H   0  0  0  0  0  0  0  0  0  0  0  0
  -25.9010  -14.3150   20.3510 C   0  0  0  0  0  0  0  0  0  0  0  0
  -24.7950  -13.5930   20.7100 C   0  0  0  0  0  0  0  0  0  0  0  0
  -25.1700  -12.2190   20.6160 C   0  0  0  0  0  0  0  0  0  0  0  0
  -26.8860  -13.3810   20.0650 N   0  0  0  0  0  0  0  0  0  0  0  0
  -26.4500  -12.1130   20.2810 N   0  0  0  0  0  0  0  0  0  0  0  0
  -24.3730  -10.9950   20.7680 C   0  0  0  0  0  0  0  0  0  0  0  0
  -24.7600   -9.9650   21.6520 C   0  0  0  0  0  3  0  0  0  0  0  0
  -23.9660   -8.8060   21.7940 C   0  0  0  0  0  3  0  0  0  0  0  0
  -22.7690   -8.6690   21.0530 C   0  0  0  0  0  0  0  0  0  0  0  0
  -22.4010   -9.6860   20.1550 C   0  0  0  0  0  3  0  0  0  0  0  0
  -23.1950  -10.8350   20.0090 C   0  0  0  0  0  3  0  0  0  0  0  0
  -21.9470   -7.5690   21.1090 O   0  0  0  0  0  0  0  0  0  0  0  0
  -21.8520   -6.8010   22.2420 C   0  0  0  0  0  0  0  0  0  0  0  0
  -21.4660   -7.3490   23.4850 C   0  0  0  0  0  3  0  0  0  0  0  0
  -21.3130   -6.5100   24.6060 C   0  0  0  0  0  3  0  0  0  0  0  0
  -21.5360   -5.1240   24.4870 C   0  0  0  0  0  0  0  0  0  0  0  0
  -21.9150   -4.5760   23.2490 C   0  0  0  0  0  3  0  0  0  0  0  0
  -22.0690   -5.4140   22.1300 C   0  0  0  0  0  0  0  0  0  0  0  0
  -22.4130   -4.8760   20.9340 F   0  0  0  0  0  0  0  0  0  0  0  0
  -21.3800   -4.3180   25.5620 F   0  0  0  0  0  0  0  0  0  0  0  0
  -23.4340  -14.1380   21.0330 C   0  0  0  0  0  0  0  0  0  0  0  0
  -22.6910  -13.4570   21.8990 N   0  0  0  0  0  0  0  0  0  0  0  0
  -23.0430  -15.2000   20.5540 O   0  0  0  0  0  0  0  0  0  0  0  0
  -23.0220  -12.5930   22.3030 H   0  0  0  0  0  0  0  0  0  0  0  0
  -21.7770  -13.8030   22.1600 H   0  0  0  0  0  0  0  0  0  0  0  0
  -26.1520  -15.6790   20.2250 N   0  0  0  0  0  0  0  0  0  0  0  0
  -25.4390  -16.3840   20.3650 H   0  0  0  0  0  0  0  0  0  0  0  0
  -27.0270  -16.0690   19.8970 H   0  0  0  0  0  0  0  0  0  0  0  0
  -30.6420  -22.4620   21.6840 C   0  0  0  0  0  2  0  0  0  0  0  0
  -29.6240  -23.2910   20.8550 C   0  0  0  0  0  2  0  0  0  0  0  0
  -29.9090  -24.8150   20.8230 C   0  0  0  0  0  2  0  0  0  0  0  0
  -28.8980  -25.5910   19.9480 C   0  0  0  0  0  2  0  0  0  0  0  0
  -28.9020  -27.0050   20.2090 O   0  0  0  0  0  0  0  0  0  0  0  0
  -24.5900  -31.7950   23.2120 C   0  0  0  0  0  0  0  0  0  0  0  0
  -27.6860  -27.6610   20.1240 C   0  0  0  0  0  0  0  0  0  0  0  0
  -23.5680  -30.3790   21.4590 C   0  0  0  0  0  3  0  0  0  0  0  0
  -25.1960  -29.0070   20.0540 C   0  0  0  0  0  0  0  0  0  0  0  0
  -26.0710  -30.9160   21.4090 C   0  0  0  0  0  2  0  0  0  0  0  0
  -26.2830  -29.5820   20.7220 C   0  0  0  0  0  0  0  0  0  0  0  0
  -27.5310  -28.9180   20.7530 C   0  0  0  0  0  3  0  0  0  0  0  0
  -26.5810  -27.1120   19.4300 C   0  0  0  0  0  3  0  0  0  0  0  0
  -25.3410  -27.7740   19.3990 C   0  0  0  0  0  3  0  0  0  0  0  0
  -23.8940  -29.7730   20.0680 C   0  0  0  0  0  2  0  0  0  0  0  0
  -24.7570  -31.0440   22.0850 N   0  0  0  0  0  0  0  0  0  0  0  0
  -23.4670  -31.9690   23.7060 O   0  0  0  0  0  0  0  0  0  0  0  0
  -22.9450  -29.2770   22.3470 C   0  0  0  0  0  0  0  0  0  0  0  0
  -21.6340  -29.0420   22.1810 N   0  0  0  0  0  0  0  0  0  0  0  0
  -23.6400  -28.6390   23.1420 O   0  0  0  0  0  0  0  0  0  0  0  0
  -21.1310  -29.6170   21.5200 H   0  0  0  0  0  0  0  0  0  0  0  0
  -18.2980  -27.7120   22.5760 C   0  0  0  0  0  0  0  0  0  0  0  0
  -20.8440  -28.0290   22.8810 C   0  0  0  0  0  3  0  0  0  0  0  0
  -20.9940  -26.6450   22.2080 C   0  0  0  0  0  2  0  0  0  0  0  0
  -19.9080  -26.3580   21.1670 C   0  0  0  0  0  2  0  0  0  0  0  0
  -18.5210  -26.4170   21.8100 C   0  0  0  0  0  2  0  0  0  0  0  0
  -19.3890  -28.4760   23.0640 C   0  0  0  0  0  0  0  0  0  0  0  0
  -19.1280  -29.6910   23.7360 C   0  0  0  0  0  3  0  0  0  0  0  0
  -17.8090  -30.1390   23.9270 C   0  0  0  0  0  3  0  0  0  0  0  0
  -16.7310  -29.3700   23.4560 C   0  0  0  0  0  3  0  0  0  0  0  0
  -16.9750  -28.1580   22.7850 C   0  0  0  0  0  3  0  0  0  0  0  0
  -25.7970  -32.4890   23.9180 C   0  0  0  0  0  3  0  0  0  0  0  0
  -25.4130  -33.8790   24.1940 N   0  0  0  0  0  0  0  0  0  0  0  0
  -25.7470  -34.9270   23.4300 C   0  0  0  0  0  0  0  0  0  0  0  0
  -26.4850  -34.8290   22.4450 O   0  0  0  0  0  0  0  0  0  0  0  0
  -24.7680  -34.0280   24.9570 H   0  0  0  0  0  0  0  0  0  0  0  0
  -23.9650  -36.6270   22.9250 C   0  0  0  0  0  1  0  0  0  0  0  0
  -25.1710  -36.3000   23.8210 C   0  0  0  0  0  3  0  0  0  0  0  0
  -27.2130  -37.2990   24.7510 C   0  0  0  0  0  1  0  0  0  0  0  0
  -26.1580  -37.3980   23.7460 N   0  0  0  0  0  0  0  0  0  0  0  0
  -25.7030  -38.3000   23.8550 H   0  0  0  0  0  0  0  0  0  0  0  0
  -26.2450  -31.7590   25.2440 C   0  0  1  0  0  0  0  0  0  0  0  0
  -25.0870  -31.4990   26.2330 C   0  0  0  0  0  1  0  0  0  0  0  0
  -26.9040  -30.3970   24.9210 C   0  0  0  0  0  1  0  0  0  0  0  0
  -27.3160  -32.6040   25.9730 C   0  0  0  0  0  1  0  0  0  0  0  0
  2  1  1  0
  3  1  1  0
  4  2  1  0
  5  8  1  0
  5  3  1  0
  6  5  1  0
  6  4  1  0
  6  7  1  6
  9  8  1  0
 10 19  1  0
 10  9  1  0
 11 19  1  0
 12 17  1  0
 13 14  1  0
 13 12  1  0
 15 14  1  0
 15 24  1  0
 15 16  1  0
 17 11  1  0
 17 16  1  0
 18 11  2  0
 19 20  1  0
 21 22  2  0
 22 41  1  0
 23 22  1  0
 23 26  1  0
 24 25  1  0
 24 21  1  0
 25 23  2  0
 26 27  1  0
 27 28  2  0
 29 32  1  0
 29 28  1  0
 30 29  2  0
 31 30  1  0
 31 26  2  0
 32 33  1  0
 33 34  1  0
 34 35  2  0
 36 35  1  0
 36 40  1  0
 37 36  2  0
 38 33  2  0
 38 37  1  0
 39 38  1  0
 41 42  1  0
 42 45  1  0
 42 44  1  0
 43 41  2  0
 46 21  1  0
 46 47  1  0
 48 46  1  0
 49  6  1  0
 50 49  1  0
 51 50  1  0
 52 53  1  0
 52 51  1  0
 54 65  2  0
 55 53  1  0
 55 60  1  0
 56 64  1  0
 56 66  1  0
 57 63  1  0
 57 59  1  0
 58 64  1  0
 59 60  2  0
 59 58  1  0
 61 55  2  0
 62 61  1  0
 62 57  2  0
 63 56  1  0
 64 54  1  0
 66 68  2  0
 67 66  1  0
 69 67  1  0
 70 79  2  0
 70 75  1  0
 71 67  1  0
 71 75  1  0
 72 71  1  0
 73 74  1  0
 73 72  1  0
 74 70  1  0
 75 76  2  0
 76 77  1  0
 78 77  2  0
 79 78  1  0
 80 54  1  0
 80 81  1  0
 80 90  1  0
 81 84  1  0
 82 86  1  0
 82 81  1  0
 83 82  2  0
 86 85  1  0
 88 86  1  0
 88 89  1  0
 88 87  1  0
 90 93  1  1
 90 91  1  0
 92 90  1  0
M  ISO  4  11 100  19 100  52 101  53 101
M  END
>  <TORSDO>  (80) 
F 23

>  <SCORE>  (80) 
-10.898

>  <name>  (80) 
79

>  <ligand_id>  (80) 
79

>  <original_smiles>  (80) 
[H]c1c([H])c([H])c2c(c1[H])C([H])([H])C([H])([H])C([H])([H])C2([H])N([H])C(=O)C1([H])N(C(=O)C([H])(N([H])C(=O)C([H])(N([H])C([H])([H])[H])C([H])([H])[H])C(C([H])([H])[H])(C([H])([H])[H])C([H])([H])[H])C([H])([H])c2c([H])c(OC([H])([H])C([H])([H])C([H])([H])C([H])([H])[N+]3([H])C([H])([H])C([H])([H])C([H])([H])C([H])([H])C3([H])C([H])([H])C([H])([H])C([H])([H])N([H])C(=O)N3C([H])([H])C([H])([H])C([H])([H])C([H])(n4nc(-c5c([H])c([H])c(Oc6c([H])c([H])c(F)c([H])c6F)c([H])c5[H])c(C(=O)N([H])[H])c4N([H])[H])C3([H])[H])c([H])c([H])c2C1([H])[H]

>  <smiles>  (80) 
[H]c1c([H])c([H])c2c(c1[H])C([H])([H])C([H])([H])C([H])([H])C2([H])N([H])C(=O)C1([H])N(C(=O)C([H])(N([H])C(=O)C([H])(N([H])C([H])([H])[H])C([H])([H])[H])C(C([H])([H])[H])(C([H])([H])[H])C([H])([H])[H])C([H])([H])c2c([H])c(OC([H])([H])C([H])([H])C([H])([H])C([H])([H])[N+]3([H])C([H])([H])C([H])([H])C([H])([H])C([H])([H])C3([H])C([H])([H])C([H])([H])C([H])([H])N([H])C(=O)N3C([H])([H])C([H])([H])C([H])([H])C([H])(n4nc(-c5c([H])c([H])c(Oc6c([H])c([H])c(F)c([H])c6F)c([H])c5[H])c(C(=O)N([H])[H])c4N([H])[H])C3([H])[H])c([H])c([H])c2C1([H])[H]

$$$$
80:0:0
     RDKit          3D

103112  0  0  1  0  0  0  0  0999 V2000
  -30.7370  -21.3920   23.5620 C   0  0  0  0  0  2  0  0  0  0  0  0
  -30.2730  -22.7550   21.4600 C   0  0  0  0  0  2  0  0  0  0  0  0
  -30.3900  -22.6250   24.4170 C   0  0  0  0  0  2  0  0  0  0  0  0
  -29.9390  -23.9610   22.3410 C   0  0  0  0  0  2  0  0  0  0  0  0
  -31.2430  -21.7820   22.1510 C   0  0  0  0  0  3  0  0  0  0  0  0
  -29.3540  -23.5110   23.6970 C   0  0  0  0  0  3  0  0  0  0  0  0
  -31.7530  -20.8740   19.8520 C   0  0  0  0  0  3  0  0  0  0  0  0
  -31.8700  -19.8180   18.9340 C   0  0  0  0  0  3  0  0  0  0  0  0
  -31.4030  -19.2680   21.6430 C   0  0  0  0  0  3  0  0  0  0  0  0
  -31.5060  -20.6090   21.2130 C   0  0  0  0  0  0  0  0  0  0  0  0
  -31.7470  -18.4770   19.3570 C   0  0  0  0  0  0  0  0  0  0  0  0
  -31.5200  -18.1980   20.7310 C   0  0  0  0  0  0  0  0  0  0  0  0
  -31.8580  -17.3850   18.3030 C   0  0  0  0  0  2  0  0  0  0  0  0
  -30.6120  -15.5210   19.3690 C   0  0  0  0  0  0  0  0  0  0  0  0
  -29.3800  -13.4700   18.8420 C   0  0  0  0  0  2  0  0  0  0  0  0
  -28.8500  -12.6590   20.0300 C   0  0  0  0  0  2  0  0  0  0  0  0
  -29.9290  -11.6930   20.5440 C   0  0  0  0  0  2  0  0  0  0  0  0
  -31.2720  -12.4100   20.8260 C   0  0  0  0  0  3  0  0  0  0  0  0
  -31.7040  -13.2800   19.6230 C   0  0  0  0  0  2  0  0  0  0  0  0
  -30.5980  -14.1780   19.2460 N   0  0  0  0  0  0  0  0  0  0  0  0
  -29.6130  -16.2120   19.5940 O   0  0  0  0  0  0  0  0  0  0  0  0
  -31.7350  -16.0390   18.8560 N   0  0  0  0  0  0  0  0  0  0  0  0
  -32.4060  -15.3560   18.5400 H   0  0  0  0  0  0  0  0  0  0  0  0
  -33.0800  -11.3930   22.3550 C   0  0  0  0  0  0  0  0  0  0  0  0
  -33.8430  -10.2610   22.2430 C   0  0  0  0  0  0  0  0  0  0  0  0
  -33.4830   -9.6650   20.9960 C   0  0  0  0  0  0  0  0  0  0  0  0
  -32.3120  -11.4510   21.2030 N   0  0  0  0  0  0  0  0  0  0  0  0
  -32.6000  -10.4260   20.3600 N   0  0  0  0  0  0  0  0  0  0  0  0
  -33.8830   -8.3850   20.3950 C   0  0  0  0  0  0  0  0  0  0  0  0
  -34.4740   -8.3230   19.1130 C   0  0  0  0  0  3  0  0  0  0  0  0
  -34.8680   -7.0840   18.5670 C   0  0  0  0  0  3  0  0  0  0  0  0
  -34.6780   -5.8910   19.3010 C   0  0  0  0  0  0  0  0  0  0  0  0
  -34.0690   -5.9540   20.5670 C   0  0  0  0  0  3  0  0  0  0  0  0
  -33.6710   -7.1890   21.1100 C   0  0  0  0  0  3  0  0  0  0  0  0
  -35.0050   -4.6390   18.8390 O   0  0  0  0  0  0  0  0  0  0  0  0
  -36.0190   -4.4490   17.9340 C   0  0  0  0  0  0  0  0  0  0  0  0
  -37.3370   -4.8850   18.1880 C   0  0  0  0  0  3  0  0  0  0  0  0
  -38.3610   -4.6080   17.2610 C   0  0  0  0  0  3  0  0  0  0  0  0
  -38.0730   -3.8880   16.0860 C   0  0  0  0  0  0  0  0  0  0  0  0
  -36.7610   -3.4480   15.8340 C   0  0  0  0  0  3  0  0  0  0  0  0
  -35.7380   -3.7240   16.7570 C   0  0  0  0  0  0  0  0  0  0  0  0
  -34.4810   -3.2800   16.5190 F   0  0  0  0  0  0  0  0  0  0  0  0
  -39.0580   -3.6140   15.1990 F   0  0  0  0  0  0  0  0  0  0  0  0
  -34.7820   -9.7070   23.2760 C   0  0  0  0  0  0  0  0  0  0  0  0
  -35.8810   -9.1000   22.8430 N   0  0  0  0  0  0  0  0  0  0  0  0
  -34.5690   -9.8550   24.4790 O   0  0  0  0  0  0  0  0  0  0  0  0
  -36.0670   -8.9970   21.8560 H   0  0  0  0  0  0  0  0  0  0  0  0
  -36.5460   -8.7310   23.5080 H   0  0  0  0  0  0  0  0  0  0  0  0
  -32.9640  -12.3640   23.3450 N   0  0  0  0  0  0  0  0  0  0  0  0
  -33.4660  -12.3010   24.2240 H   0  0  0  0  0  0  0  0  0  0  0  0
  -32.3000  -13.1290   23.3220 H   0  0  0  0  0  0  0  0  0  0  0  0
  -31.3750  -16.7790   21.2780 C   0  0  0  0  0  2  0  0  0  0  0  0
  -30.0170  -16.5470   21.7850 N   0  0  0  0  0  4  0  0  0  0  0  0
  -29.8330  -17.1500   22.5650 H   0  0  0  0  0  0  0  0  0  0  0  0
  -29.9260  -15.5950   22.0930 H   0  0  0  0  0  0  0  0  0  0  0  0
  -29.3380  -16.7310   21.0720 H   0  0  0  0  0  0  0  0  0  0  0  0
  -28.8990  -24.7150   24.5420 C   0  0  0  0  0  2  0  0  0  0  0  0
  -27.5070  -25.0640   24.1900 N   0  0  0  0  0  4  0  0  0  0  0  0
  -26.9120  -24.9080   24.9890 H   0  0  0  0  0  0  0  0  0  0  0  0
  -27.2240  -24.3990   23.4870 H   0  0  0  0  0  0  0  0  0  0  0  0
  -27.2780  -26.4220   23.6440 C   0  0  0  0  0  2  0  0  0  0  0  0
  -25.9380  -26.4880   22.8830 C   0  0  0  0  0  2  0  0  0  0  0  0
  -25.6710  -27.8150   22.4470 O   0  0  0  0  0  0  0  0  0  0  0  0
  -28.1850  -33.6300   25.6300 C   0  0  0  0  0  0  0  0  0  0  0  0
  -25.5200  -28.7200   23.4640 C   0  0  0  0  0  0  0  0  0  0  0  0
  -26.4040  -32.4220   26.8510 C   0  0  0  0  0  3  0  0  0  0  0  0
  -25.2000  -30.6010   25.5330 C   0  0  0  0  0  0  0  0  0  0  0  0
  -26.5410  -32.3180   24.3000 C   0  0  0  0  0  2  0  0  0  0  0  0
  -25.9310  -30.9380   24.3860 C   0  0  0  0  0  0  0  0  0  0  0  0
  -26.0860  -30.0050   23.3430 C   0  0  0  0  0  3  0  0  0  0  0  0
  -24.7870  -28.3870   24.6220 C   0  0  0  0  0  3  0  0  0  0  0  0
  -24.6250  -29.3250   25.6580 C   0  0  0  0  0  3  0  0  0  0  0  0
  -25.0700  -31.6700   26.5940 C   0  0  0  0  0  2  0  0  0  0  0  0
  -27.1040  -32.8020   25.5820 N   0  0  0  0  0  0  0  0  0  0  0  0
  -28.5730  -34.1130   26.7030 O   0  0  0  0  0  0  0  0  0  0  0  0
  -27.2750  -31.5670   27.7990 C   0  0  0  0  0  0  0  0  0  0  0  0
  -27.0590  -31.7300   29.1140 N   0  0  0  0  0  0  0  0  0  0  0  0
  -28.0950  -30.7630   27.3520 O   0  0  0  0  0  0  0  0  0  0  0  0
  -26.3700  -32.4110   29.3990 H   0  0  0  0  0  0  0  0  0  0  0  0
  -27.2160  -31.3490   32.7040 C   0  0  0  0  0  0  0  0  0  0  0  0
  -27.7320  -31.0090   30.1930 C   0  0  0  0  0  3  0  0  0  0  0  0
  -27.1410  -29.5900   30.3660 C   0  0  0  0  0  2  0  0  0  0  0  0
  -26.0220  -29.5290   31.4110 C   0  0  0  0  0  2  0  0  0  0  0  0
  -26.5350  -29.9920   32.7780 C   0  0  0  0  0  2  0  0  0  0  0  0
  -27.7630  -31.8320   31.4860 C   0  0  0  0  0  0  0  0  0  0  0  0
  -28.3510  -33.1160   31.4620 C   0  0  0  0  0  3  0  0  0  0  0  0
  -28.4050  -33.9060   32.6250 C   0  0  0  0  0  3  0  0  0  0  0  0
  -27.8750  -33.4150   33.8310 C   0  0  0  0  0  3  0  0  0  0  0  0
  -27.2860  -32.1390   33.8710 C   0  0  0  0  0  3  0  0  0  0  0  0
  -28.9700  -34.0290   24.3420 C   0  0  0  0  0  3  0  0  0  0  0  0
  -29.7750  -35.2140   24.6660 N   0  0  0  0  0  0  0  0  0  0  0  0
  -29.3230  -36.4750   24.6210 C   0  0  0  0  0  0  0  0  0  0  0  0
  -28.1910  -36.7670   24.2280 O   0  0  0  0  0  0  0  0  0  0  0  0
  -30.6950  -35.0470   25.0480 H   0  0  0  0  0  0  0  0  0  0  0  0
  -29.9800  -37.9470   26.5510 C   0  0  0  0  0  1  0  0  0  0  0  0
  -30.2810  -37.5880   25.0870 C   0  0  0  0  0  3  0  0  0  0  0  0
  -30.7360  -38.6080   22.9000 C   0  0  0  0  0  1  0  0  0  0  0  0
  -30.2160  -38.8060   24.2500 N   0  0  0  0  0  0  0  0  0  0  0  0
  -30.7370  -39.5670   24.6810 H   0  0  0  0  0  0  0  0  0  0  0  0
  -29.8800  -32.8680   23.7820 C   0  0  1  0  0  0  0  0  0  0  0  0
  -30.8430  -32.2740   24.8360 C   0  0  0  0  0  1  0  0  0  0  0  0
  -29.0110  -31.7150   23.2280 C   0  0  0  0  0  1  0  0  0  0  0  0
  -30.7270  -33.3930   22.5970 C   0  0  0  0  0  1  0  0  0  0  0  0
  1  3  1  0
  2  5  1  0
  2  4  1  0
  4  6  1  0
  5 10  1  0
  5  1  1  0
  6  3  1  0
  6 57  1  0
  7 10  1  0
  8 11  1  0
  8  7  2  0
 10  9  2  0
 11 12  2  0
 12 52  1  0
 12  9  1  0
 13 22  1  0
 13 11  1  0
 14 21  2  0
 15 20  1  0
 15 16  1  0
 16 17  1  0
 17 18  1  0
 18 19  1  0
 18 27  1  0
 20 14  1  0
 20 19  1  0
 22 14  1  0
 23 22  1  0
 24 49  1  0
 25 24  2  0
 25 44  1  0
 26 25  1  0
 27 24  1  0
 28 26  2  0
 28 27  1  0
 29 26  1  0
 29 34  1  0
 30 29  2  0
 31 30  1  0
 31 32  2  0
 32 33  1  0
 33 34  2  0
 35 32  1  0
 36 37  1  0
 36 35  1  0
 38 37  2  0
 39 38  1  0
 40 39  2  0
 40 41  1  0
 41 36  2  0
 42 41  1  0
 43 39  1  0
 44 46  2  0
 45 44  1  0
 45 48  1  0
 47 45  1  0
 49 50  1  0
 51 49  1  0
 52 53  1  0
 53 55  1  0
 53 54  1  0
 56 53  1  0
 58 57  1  0
 58 59  1  0
 60 58  1  0
 61 58  1  0
 62 61  1  0
 63 62  1  0
 63 65  1  0
 64 75  2  0
 65 71  1  0
 66 76  1  0
 67 72  1  0
 67 73  1  0
 68 69  1  0
 68 74  1  0
 69 67  2  0
 70 65  2  0
 70 69  1  0
 71 72  2  0
 73 66  1  0
 74 64  1  0
 74 66  1  0
 76 77  1  0
 77 79  1  0
 78 76  2  0
 80 84  1  0
 80 89  1  0
 81 77  1  0
 81 82  1  0
 81 85  1  0
 82 83  1  0
 83 84  1  0
 85 80  2  0
 86 85  1  0
 86 87  2  0
 87 88  1  0
 88 89  2  0
 90 91  1  0
 90 64  1  0
 91 94  1  0
 92 91  1  0
 92 96  1  0
 93 92  2  0
 96 95  1  0
 97 98  1  0
 98 99  1  0
 98 96  1  0
100 90  1  0
100101  1  1
102100  1  0
103100  1  0
M  ISO  4  14 100  22 100  62 101  63 101
M  END
>  <TORSDO>  (81) 
F 24

>  <SCORE>  (81) 
-3.732

>  <name>  (81) 
80

>  <ligand_id>  (81) 
80

>  <original_smiles>  (81) 
[H]c1c([H])c([H])c2c(c1[H])C([H])([H])C([H])([H])C([H])([H])C2([H])N([H])C(=O)C1([H])N(C(=O)C([H])(N([H])C(=O)C([H])(N([H])C([H])([H])[H])C([H])([H])[H])C(C([H])([H])[H])(C([H])([H])[H])C([H])([H])[H])C([H])([H])c2c([H])c(OC([H])([H])C([H])([H])[N+]([H])([H])C([H])([H])C3([H])C([H])([H])C([H])([H])C([H])(c4c([H])c([H])c(C([H])([H])N([H])C(=O)N5C([H])([H])C([H])([H])C([H])([H])C([H])(n6nc(-c7c([H])c([H])c(Oc8c([H])c([H])c(F)c([H])c8F)c([H])c7[H])c(C(=O)N([H])[H])c6N([H])[H])C5([H])[H])c(C([H])([H])[N+]([H])([H])[H])c4[H])C([H])([H])C3([H])[H])c([H])c([H])c2C1([H])[H]

>  <smiles>  (81) 
[H]c1c([H])c([H])c2c(c1[H])C([H])([H])C([H])([H])C([H])([H])C2([H])N([H])C(=O)C1([H])N(C(=O)C([H])(N([H])C(=O)C([H])(N([H])C([H])([H])[H])C([H])([H])[H])C(C([H])([H])[H])(C([H])([H])[H])C([H])([H])[H])C([H])([H])c2c([H])c(OC([H])([H])C([H])([H])[N+]([H])([H])C([H])([H])C3([H])C([H])([H])C([H])([H])C([H])(c4c([H])c([H])c(C([H])([H])N([H])C(=O)N5C([H])([H])C([H])([H])C([H])([H])C([H])(n6nc(-c7c([H])c([H])c(Oc8c([H])c([H])c(F)c([H])c8F)c([H])c7[H])c(C(=O)N([H])[H])c6N([H])[H])C5([H])[H])c(C([H])([H])[N+]([H])([H])[H])c4[H])C([H])([H])C3([H])[H])c([H])c([H])c2C1([H])[H]

$$$$
81:0:0
     RDKit          3D

 96105  0  0  1  0  0  0  0  0999 V2000
  -26.8530  -20.2800   19.1990 C   0  0  0  0  0  2  0  0  0  0  0  0
  -29.1410  -20.3190   20.3360 C   0  0  0  0  0  2  0  0  0  0  0  0
  -26.4550  -21.4570   20.1130 C   0  0  0  0  0  2  0  0  0  0  0  0
  -28.6450  -21.4960   21.1750 C   0  0  0  0  0  2  0  0  0  0  0  0
  -28.0040  -19.4290   19.7800 C   0  0  0  0  0  3  0  0  0  0  0  0
  -27.6550  -22.2780   20.4050 N   0  0  2  0  0  4  0  0  0  0  0  0
  -28.0630  -22.4630   19.5020 H   0  0  0  0  0  0  0  0  0  0  0  0
  -28.5350  -18.4630   18.7010 C   0  0  0  0  0  2  0  0  0  0  0  0
  -30.9410  -14.7240   20.9620 C   0  0  0  0  0  0  0  0  0  0  0  0
  -30.7240  -12.4700   20.0860 C   0  0  0  0  0  2  0  0  0  0  0  0
  -29.9000  -12.5260   18.7840 C   0  0  0  0  0  2  0  0  0  0  0  0
  -28.4010  -12.4030   19.0880 C   0  0  0  0  0  2  0  0  0  0  0  0
  -27.9240  -13.3660   20.2030 C   0  0  0  0  0  3  0  0  0  0  0  0
  -28.8770  -13.3590   21.4240 C   0  0  0  0  0  2  0  0  0  0  0  0
  -30.2510  -13.5590   20.9450 N   0  0  0  0  0  0  0  0  0  0  0  0
  -32.1560  -14.7720   21.1310 O   0  0  0  0  0  0  0  0  0  0  0  0
  -31.2660  -15.8760   18.8220 C   0  0  0  0  0  2  0  0  0  0  0  0
  -29.5450  -16.6680   20.2640 C   0  0  0  0  0  2  0  0  0  0  0  0
  -30.4170  -16.8420   18.0060 C   0  0  0  0  0  3  0  0  0  0  0  0
  -29.7890  -17.6720   19.1240 C   0  0  0  0  0  3  0  0  0  0  0  0
  -30.4670  -15.5620   20.0170 N   0  0  0  0  0  0  0  0  0  0  0  0
  -25.4690  -13.9750   20.6660 C   0  0  0  0  0  0  0  0  0  0  0  0
  -24.3740  -13.2000   20.9360 C   0  0  0  0  0  0  0  0  0  0  0  0
  -24.8470  -11.8540   21.0010 C   0  0  0  0  0  0  0  0  0  0  0  0
  -26.5380  -13.0980   20.5760 N   0  0  0  0  0  0  0  0  0  0  0  0
  -26.1630  -11.8230   20.8460 N   0  0  0  0  0  0  0  0  0  0  0  0
  -24.1180  -10.5850   21.1400 C   0  0  0  0  0  0  0  0  0  0  0  0
  -24.4870   -9.6230   22.1080 C   0  0  0  0  0  3  0  0  0  0  0  0
  -23.7590   -8.4200   22.2340 C   0  0  0  0  0  3  0  0  0  0  0  0
  -22.6510   -8.1690   21.3910 C   0  0  0  0  0  0  0  0  0  0  0  0
  -22.3040   -9.1180   20.4130 C   0  0  0  0  0  3  0  0  0  0  0  0
  -23.0330  -10.3130   20.2860 C   0  0  0  0  0  3  0  0  0  0  0  0
  -21.9000   -7.0210   21.4290 O   0  0  0  0  0  0  0  0  0  0  0  0
  -21.7810   -6.2790   22.5770 C   0  0  0  0  0  0  0  0  0  0  0  0
  -21.2660   -6.8300   23.7690 C   0  0  0  0  0  3  0  0  0  0  0  0
  -21.0920   -6.0120   24.9050 C   0  0  0  0  0  3  0  0  0  0  0  0
  -21.4270   -4.6470   24.8490 C   0  0  0  0  0  0  0  0  0  0  0  0
  -21.9410   -4.0970   23.6620 C   0  0  0  0  0  3  0  0  0  0  0  0
  -22.1130   -4.9100   22.5290 C   0  0  0  0  0  0  0  0  0  0  0  0
  -22.5860   -4.3680   21.3790 F   0  0  0  0  0  0  0  0  0  0  0  0
  -21.2500   -3.8600   25.9370 F   0  0  0  0  0  0  0  0  0  0  0  0
  -22.9500  -13.6610   21.0360 C   0  0  0  0  0  0  0  0  0  0  0  0
  -22.1510  -12.9920   21.8570 N   0  0  0  0  0  0  0  0  0  0  0  0
  -22.5540  -14.6550   20.4260 O   0  0  0  0  0  0  0  0  0  0  0  0
  -22.4840  -12.1800   22.3580 H   0  0  0  0  0  0  0  0  0  0  0  0
  -21.1950  -13.2920   21.9880 H   0  0  0  0  0  0  0  0  0  0  0  0
  -25.6450  -15.3400   20.4640 N   0  0  0  0  0  0  0  0  0  0  0  0
  -24.8720  -15.9960   20.4590 H   0  0  0  0  0  0  0  0  0  0  0  0
  -26.5310  -15.7660   20.2270 H   0  0  0  0  0  0  0  0  0  0  0  0
  -31.2370  -17.6490   17.0040 C   0  0  0  0  0  3  0  0  0  0  0  0
  -31.3070  -17.3710   15.7720 N   0  0  0  0  0  0  0  0  0  0  0  0
  -30.7470  -16.5600   15.5320 H   0  0  0  0  0  0  0  0  0  0  0  0
  -27.4020  -23.6200   20.9780 C   0  0  0  0  0  2  0  0  0  0  0  0
  -28.4700  -24.5990   20.4560 C   0  0  0  0  0  2  0  0  0  0  0  0
  -28.4480  -25.9740   21.1280 C   0  0  0  0  0  2  0  0  0  0  0  0
  -28.4280  -26.9780   20.1170 O   0  0  0  0  0  0  0  0  0  0  0  0
  -24.6020  -31.9970   23.3040 C   0  0  0  0  0  0  0  0  0  0  0  0
  -27.2600  -27.6910   20.1080 C   0  0  0  0  0  0  0  0  0  0  0  0
  -23.3920  -30.6270   21.6340 C   0  0  0  0  0  3  0  0  0  0  0  0
  -24.8490  -29.1380   20.1600 C   0  0  0  0  0  0  0  0  0  0  0  0
  -25.9080  -31.0240   21.4220 C   0  0  0  0  0  2  0  0  0  0  0  0
  -26.0010  -29.6710   20.7550 C   0  0  0  0  0  0  0  0  0  0  0  0
  -27.2120  -28.9520   20.7310 C   0  0  0  0  0  3  0  0  0  0  0  0
  -26.1010  -27.1560   19.5130 C   0  0  0  0  0  3  0  0  0  0  0  0
  -24.8920  -27.8770   19.5360 C   0  0  0  0  0  3  0  0  0  0  0  0
  -23.5950  -29.9790   20.2380 C   0  0  0  0  0  2  0  0  0  0  0  0
  -24.6520  -31.2290   22.1790 N   0  0  0  0  0  0  0  0  0  0  0  0
  -23.5240  -32.2510   23.8570 O   0  0  0  0  0  0  0  0  0  0  0  0
  -22.7550  -29.5800   22.5750 C   0  0  0  0  0  0  0  0  0  0  0  0
  -21.4430  -29.3520   22.4070 N   0  0  0  0  0  0  0  0  0  0  0  0
  -23.4370  -28.9740   23.4060 O   0  0  0  0  0  0  0  0  0  0  0  0
  -20.9570  -29.8920   21.7060 H   0  0  0  0  0  0  0  0  0  0  0  0
  -18.1150  -27.9840   22.7430 C   0  0  0  0  0  0  0  0  0  0  0  0
  -20.6370  -28.3860   23.1510 C   0  0  0  0  0  3  0  0  0  0  0  0
  -20.8490  -26.9530   22.6110 C   0  0  0  0  0  2  0  0  0  0  0  0
  -19.8240  -26.5530   21.5440 C   0  0  0  0  0  2  0  0  0  0  0  0
  -18.4020  -26.6340   22.1070 C   0  0  0  0  0  2  0  0  0  0  0  0
  -19.1660  -28.8120   23.2180 C   0  0  0  0  0  0  0  0  0  0  0  0
  -18.8490  -30.0720   23.7720 C   0  0  0  0  0  3  0  0  0  0  0  0
  -17.5130  -30.5070   23.8540 C   0  0  0  0  0  3  0  0  0  0  0  0
  -16.4750  -29.6770   23.3960 C   0  0  0  0  0  3  0  0  0  0  0  0
  -16.7760  -28.4180   22.8470 C   0  0  0  0  0  3  0  0  0  0  0  0
  -25.8900  -32.6160   23.9320 C   0  0  0  0  0  3  0  0  0  0  0  0
  -25.5920  -34.0170   24.2570 N   0  0  0  0  0  0  0  0  0  0  0  0
  -25.9280  -35.0630   23.4910 C   0  0  0  0  0  0  0  0  0  0  0  0
  -26.5940  -34.9490   22.4580 O   0  0  0  0  0  0  0  0  0  0  0  0
  -25.0000  -34.1820   25.0590 H   0  0  0  0  0  0  0  0  0  0  0  0
  -24.1900  -36.8520   23.1530 C   0  0  0  0  0  1  0  0  0  0  0  0
  -25.4470  -36.4550   23.9440 C   0  0  0  0  0  3  0  0  0  0  0  0
  -27.5940  -37.3480   24.7240 C   0  0  0  0  0  1  0  0  0  0  0  0
  -26.4740  -37.5090   23.8020 N   0  0  0  0  0  0  0  0  0  0  0  0
  -26.0690  -38.4290   23.9520 H   0  0  0  0  0  0  0  0  0  0  0  0
  -26.3990  -31.8370   25.2060 C   0  0  1  0  0  0  0  0  0  0  0  0
  -25.2980  -31.5920   26.2640 C   0  0  0  0  0  1  0  0  0  0  0  0
  -26.9850  -30.4630   24.8070 C   0  0  0  0  0  1  0  0  0  0  0  0
  -27.5460  -32.6280   25.8820 C   0  0  0  0  0  1  0  0  0  0  0  0
  1  5  1  0
  1  3  1  0
  2  4  1  0
  3  6  1  0
  5  8  1  0
  5  2  1  0
  6 53  1  0
  6  4  1  0
  6  7  1  6
  9 16  2  0
 10 15  1  0
 11 12  1  0
 11 10  1  0
 13 12  1  0
 13 25  1  0
 13 14  1  0
 15  9  1  0
 15 14  1  0
 17 21  1  0
 19 50  1  0
 19 17  1  0
 19 20  1  0
 20  8  1  0
 20 18  1  0
 21 18  1  0
 21  9  1  0
 22 23  2  0
 23 24  1  0
 23 42  1  0
 24 27  1  0
 25 22  1  0
 25 26  1  0
 26 24  2  0
 27 28  1  0
 28 29  2  0
 30 33  1  0
 30 29  1  0
 31 30  2  0
 32 31  1  0
 32 27  2  0
 33 34  1  0
 34 35  1  0
 35 36  2  0
 37 36  1  0
 37 41  1  0
 38 37  2  0
 39 34  2  0
 39 38  1  0
 40 39  1  0
 42 43  1  0
 43 46  1  0
 43 45  1  0
 44 42  2  0
 47 22  1  0
 48 47  1  0
 49 47  1  0
 51 50  2  0
 52 51  1  0
 54 53  1  0
 54 55  1  0
 56 55  1  0
 57 68  2  0
 58 56  1  0
 58 63  1  0
 59 67  1  0
 59 69  1  0
 60 66  1  0
 60 62  1  0
 61 67  1  0
 62 61  1  0
 63 62  2  0
 64 65  1  0
 64 58  2  0
 65 60  2  0
 66 59  1  0
 67 57  1  0
 69 71  2  0
 70 69  1  0
 72 70  1  0
 73 82  2  0
 73 78  1  0
 74 70  1  0
 74 78  1  0
 75 74  1  0
 76 77  1  0
 76 75  1  0
 77 73  1  0
 78 79  2  0
 79 80  1  0
 81 80  2  0
 82 81  1  0
 83 57  1  0
 83 84  1  0
 83 93  1  0
 84 87  1  0
 85 89  1  0
 85 84  1  0
 86 85  2  0
 89 88  1  0
 91 89  1  0
 91 92  1  0
 91 90  1  0
 93 96  1  1
 93 94  1  0
 95 93  1  0
M  ISO  4   9 100  21 100  55 101  56 101
M  END
>  <TORSDO>  (82) 
F 21

>  <SCORE>  (82) 
-12.321

>  <name>  (82) 
81

>  <ligand_id>  (82) 
81

>  <original_smiles>  (82) 
[H]N=C([H])C1([H])C([H])([H])N(C(=O)N2C([H])([H])C([H])([H])C([H])([H])C([H])(n3nc(-c4c([H])c([H])c(Oc5c([H])c([H])c(F)c([H])c5F)c([H])c4[H])c(C(=O)N([H])[H])c3N([H])[H])C2([H])[H])C([H])([H])C1([H])C([H])([H])C1([H])C([H])([H])C([H])([H])[N+]([H])(C([H])([H])C([H])([H])C([H])([H])Oc2c([H])c([H])c3c(c2[H])C([H])([H])N(C(=O)C([H])(N([H])C(=O)C([H])(N([H])C([H])([H])[H])C([H])([H])[H])C(C([H])([H])[H])(C([H])([H])[H])C([H])([H])[H])C([H])(C(=O)N([H])C2([H])c4c([H])c([H])c([H])c([H])c4C([H])([H])C([H])([H])C2([H])[H])C3([H])[H])C([H])([H])C1([H])[H]

>  <smiles>  (82) 
[H]N=C([H])C1([H])C([H])([H])N(C(=O)N2C([H])([H])C([H])([H])C([H])([H])C([H])(n3nc(-c4c([H])c([H])c(Oc5c([H])c([H])c(F)c([H])c5F)c([H])c4[H])c(C(=O)N([H])[H])c3N([H])[H])C2([H])[H])C([H])([H])C1([H])C([H])([H])C1([H])C([H])([H])C([H])([H])[N+]([H])(C([H])([H])C([H])([H])C([H])([H])Oc2c([H])c([H])c3c(c2[H])C([H])([H])N(C(=O)C([H])(N([H])C(=O)C([H])(N([H])C([H])([H])[H])C([H])([H])[H])C(C([H])([H])[H])(C([H])([H])[H])C([H])([H])[H])C([H])(C(=O)N([H])C2([H])c4c([H])c([H])c([H])c([H])c4C([H])([H])C([H])([H])C2([H])[H])C3([H])[H])C([H])([H])C1([H])[H]

$$$$
82:0:0
     RDKit          3D

 90 98  0  0  1  0  0  0  0  0999 V2000
  -29.6750  -21.0680   20.3360 C   0  0  0  0  0  3  0  0  0  0  0  0
  -29.2040  -19.6850   20.7950 N   0  0  0  0  0  4  0  0  0  0  0  0
  -29.2040  -19.6890   21.8010 H   0  0  0  0  0  0  0  0  0  0  0  0
  -28.2490  -19.5700   20.4940 H   0  0  0  0  0  0  0  0  0  0  0  0
  -30.5930  -14.7190   20.3960 C   0  0  0  0  0  0  0  0  0  0  0  0
  -30.3670  -12.4610   19.3770 C   0  0  0  0  0  2  0  0  0  0  0  0
  -29.4330  -12.5580   18.1520 C   0  0  0  0  0  2  0  0  0  0  0  0
  -27.9590  -12.3990   18.5770 C   0  0  0  0  0  2  0  0  0  0  0  0
  -27.5840  -13.2770   19.8000 C   0  0  0  0  0  3  0  0  0  0  0  0
  -28.6420  -13.1840   20.9220 C   0  0  0  0  0  2  0  0  0  0  0  0
  -29.9430  -13.5120   20.3250 N   0  0  0  0  0  0  0  0  0  0  0  0
  -31.8040  -14.7990   20.1800 O   0  0  0  0  0  0  0  0  0  0  0  0
  -29.3400  -17.8930   19.0500 C   0  0  0  0  0  0  0  0  0  0  0  0
  -29.5720  -16.3870   18.9360 C   0  0  0  0  0  2  0  0  0  0  0  0
  -29.8560  -17.0830   21.1900 C   0  0  0  0  0  2  0  0  0  0  0  0
  -29.9310  -18.4190   20.3310 C   0  0  0  0  0  3  0  0  0  0  0  0
  -29.8150  -15.8610   20.2980 N   0  0  0  0  0  0  0  0  0  0  0  0
  -28.7220  -18.5470   18.2050 O   0  0  0  0  0  0  0  0  0  0  0  0
  -25.1910  -13.8780   20.5020 C   0  0  0  0  0  0  0  0  0  0  0  0
  -24.1200  -13.1060   20.8610 C   0  0  0  0  0  0  0  0  0  0  0  0
  -24.5840  -11.7550   20.8450 C   0  0  0  0  0  0  0  0  0  0  0  0
  -26.2370  -12.9960   20.2830 N   0  0  0  0  0  0  0  0  0  0  0  0
  -25.8780  -11.7150   20.5530 N   0  0  0  0  0  0  0  0  0  0  0  0
  -23.8570  -10.4930   21.0310 C   0  0  0  0  0  0  0  0  0  0  0  0
  -24.2780   -9.5300   21.9750 C   0  0  0  0  0  3  0  0  0  0  0  0
  -23.5490   -8.3340   22.1500 C   0  0  0  0  0  3  0  0  0  0  0  0
  -22.3870   -8.0930   21.3810 C   0  0  0  0  0  0  0  0  0  0  0  0
  -21.9860   -9.0430   20.4270 C   0  0  0  0  0  3  0  0  0  0  0  0
  -22.7150  -10.2310   20.2490 C   0  0  0  0  0  3  0  0  0  0  0  0
  -21.6320   -6.9470   21.4650 O   0  0  0  0  0  0  0  0  0  0  0  0
  -21.5660   -6.2130   22.6220 C   0  0  0  0  0  0  0  0  0  0  0  0
  -21.1120   -6.7740   23.8360 C   0  0  0  0  0  3  0  0  0  0  0  0
  -20.9940   -5.9660   24.9840 C   0  0  0  0  0  3  0  0  0  0  0  0
  -21.3180   -4.5980   24.9190 C   0  0  0  0  0  0  0  0  0  0  0  0
  -21.7640   -4.0370   23.7100 C   0  0  0  0  0  3  0  0  0  0  0  0
  -21.8850   -4.8410   22.5640 C   0  0  0  0  0  0  0  0  0  0  0  0
  -22.2950   -4.2910   21.3960 F   0  0  0  0  0  0  0  0  0  0  0  0
  -21.1970   -3.8190   26.0190 F   0  0  0  0  0  0  0  0  0  0  0  0
  -22.7190  -13.5850   21.1120 C   0  0  0  0  0  0  0  0  0  0  0  0
  -21.9810  -12.8920   21.9720 N   0  0  0  0  0  0  0  0  0  0  0  0
  -22.2880  -14.6080   20.5820 O   0  0  0  0  0  0  0  0  0  0  0  0
  -22.3420  -12.0640   22.4230 H   0  0  0  0  0  0  0  0  0  0  0  0
  -21.0410  -13.1940   22.1850 H   0  0  0  0  0  0  0  0  0  0  0  0
  -25.3580  -15.2480   20.3190 N   0  0  0  0  0  0  0  0  0  0  0  0
  -24.5910  -15.9040   20.4180 H   0  0  0  0  0  0  0  0  0  0  0  0
  -26.2160  -15.6840   20.0090 H   0  0  0  0  0  0  0  0  0  0  0  0
  -28.6670  -22.3090   20.5530 C   0  0  0  0  0  3  0  0  0  0  0  0
  -29.1400  -23.8360   20.3280 C   0  0  0  0  0  3  0  0  0  0  0  0
  -28.0020  -24.9590   20.2080 C   0  0  0  0  0  3  0  0  0  0  0  0
  -28.2850  -26.4280   20.2180 O   0  0  0  0  0  0  0  0  0  0  0  0
  -24.6060  -31.8910   23.2580 C   0  0  0  0  0  0  0  0  0  0  0  0
  -27.1800  -27.3070   20.1790 C   0  0  0  0  0  0  0  0  0  0  0  0
  -23.3880  -30.4990   21.6280 C   0  0  0  0  0  3  0  0  0  0  0  0
  -24.8230  -28.9490   20.1900 C   0  0  0  0  0  0  0  0  0  0  0  0
  -25.9300  -30.8040   21.4280 C   0  0  0  0  0  2  0  0  0  0  0  0
  -26.0020  -29.4250   20.7780 C   0  0  0  0  0  0  0  0  0  0  0  0
  -27.1840  -28.6180   20.7610 C   0  0  0  0  0  3  0  0  0  0  0  0
  -25.9720  -26.8970   19.5640 C   0  0  0  0  0  3  0  0  0  0  0  0
  -24.8130  -27.6900   19.5730 C   0  0  0  0  0  3  0  0  0  0  0  0
  -23.5900  -29.8260   20.2460 C   0  0  0  0  0  2  0  0  0  0  0  0
  -24.6610  -31.0820   22.1600 N   0  0  0  0  0  0  0  0  0  0  0  0
  -23.5260  -32.1730   23.7990 O   0  0  0  0  0  0  0  0  0  0  0  0
  -22.7280  -29.4830   22.5900 C   0  0  0  0  0  0  0  0  0  0  0  0
  -21.4020  -29.3010   22.4650 N   0  0  0  0  0  0  0  0  0  0  0  0
  -23.4090  -28.8590   23.4090 O   0  0  0  0  0  0  0  0  0  0  0  0
  -20.9130  -29.8550   21.7770 H   0  0  0  0  0  0  0  0  0  0  0  0
  -18.0280  -28.0960   22.9700 C   0  0  0  0  0  0  0  0  0  0  0  0
  -20.5850  -28.3660   23.2410 C   0  0  0  0  0  3  0  0  0  0  0  0
  -20.6930  -26.9310   22.6730 C   0  0  0  0  0  2  0  0  0  0  0  0
  -19.5920  -26.5990   21.6600 C   0  0  0  0  0  2  0  0  0  0  0  0
  -18.2090  -26.7430   22.3020 C   0  0  0  0  0  2  0  0  0  0  0  0
  -19.1440  -28.8640   23.3970 C   0  0  0  0  0  0  0  0  0  0  0  0
  -18.9200  -30.1300   23.9820 C   0  0  0  0  0  3  0  0  0  0  0  0
  -17.6130  -30.6270   24.1440 C   0  0  0  0  0  3  0  0  0  0  0  0
  -16.5120  -29.8550   23.7330 C   0  0  0  0  0  3  0  0  0  0  0  0
  -16.7210  -28.5920   23.1530 C   0  0  0  0  0  3  0  0  0  0  0  0
  -25.8940  -32.5210   23.8710 C   0  0  0  0  0  3  0  0  0  0  0  0
  -26.4140  -31.7520   25.1470 C   0  0  1  0  0  0  0  0  0  0  0  0
  -25.3250  -31.5210   26.2210 C   0  0  0  0  0  1  0  0  0  0  0  0
  -26.9890  -30.3700   24.7570 C   0  0  0  0  0  1  0  0  0  0  0  0
  -27.5710  -32.5420   25.8010 C   0  0  0  0  0  1  0  0  0  0  0  0
  -25.5900  -33.9220   24.2010 N   0  0  0  0  0  0  0  0  0  0  0  0
  -25.9150  -34.9720   23.4350 C   0  0  0  0  0  0  0  0  0  0  0  0
  -26.5710  -34.8640   22.3950 O   0  0  0  0  0  0  0  0  0  0  0  0
  -25.0060  -34.0790   25.0090 H   0  0  0  0  0  0  0  0  0  0  0  0
  -24.1830  -36.7660   23.1010 C   0  0  0  0  0  1  0  0  0  0  0  0
  -25.4360  -36.3630   23.8950 C   0  0  0  0  0  3  0  0  0  0  0  0
  -27.5830  -37.2470   24.6920 C   0  0  0  0  0  1  0  0  0  0  0  0
  -26.4680  -37.4140   23.7640 N   0  0  0  0  0  0  0  0  0  0  0  0
  -26.0660  -38.3350   23.9150 H   0  0  0  0  0  0  0  0  0  0  0  0
  1 47  2  0
  1  2  1  0
  2  3  1  0
  4  2  1  0
  6 11  1  0
  7  8  1  0
  7  6  1  0
  9  8  1  0
  9 22  1  0
  9 10  1  0
 11  5  1  0
 11 10  1  0
 12  5  2  0
 13 16  1  0
 14 13  1  0
 14 17  1  0
 16  2  1  0
 16 15  1  0
 17  5  1  0
 17 15  1  0
 18 13  2  0
 19 20  2  0
 20 39  1  0
 21 20  1  0
 21 24  1  0
 22 19  1  0
 22 23  1  0
 23 21  2  0
 24 25  1  0
 25 26  2  0
 27 30  1  0
 27 26  1  0
 28 27  2  0
 29 28  1  0
 29 24  2  0
 30 31  1  0
 31 32  1  0
 32 33  2  0
 34 33  1  0
 34 38  1  0
 35 34  2  0
 36 31  2  0
 36 35  1  0
 37 36  1  0
 39 40  1  0
 40 43  1  0
 40 42  1  0
 41 39  2  0
 44 45  1  0
 44 19  1  0
 46 44  1  0
 48 47  1  0
 49 50  1  0
 49 48  2  0
 51 62  2  0
 52 50  1  0
 52 57  1  0
 53 61  1  0
 53 63  1  0
 54 60  1  0
 54 56  1  0
 55 61  1  0
 56 55  1  0
 57 56  2  0
 58 59  1  0
 58 52  2  0
 59 54  2  0
 60 53  1  0
 61 51  1  0
 63 65  2  0
 64 63  1  0
 66 64  1  0
 67 76  2  0
 67 72  1  0
 68 64  1  0
 68 72  1  0
 69 68  1  0
 70 71  1  0
 70 69  1  0
 71 67  1  0
 72 73  2  0
 73 74  1  0
 75 74  2  0
 76 75  1  0
 77 51  1  0
 77 82  1  0
 77 78  1  0
 78 81  1  1
 78 79  1  0
 80 78  1  0
 82 85  1  0
 83 87  1  0
 83 82  1  0
 84 83  2  0
 87 86  1  0
 89 87  1  0
 89 90  1  0
 89 88  1  0
M  ISO  4   5 100  17 100  49 101  50 101
M  END
>  <TORSDO>  (83) 
F 20

>  <SCORE>  (83) 
-13.821

>  <name>  (83) 
82

>  <ligand_id>  (83) 
82

>  <original_smiles>  (83) 
[H]c1c([H])c([H])c2c(c1[H])C([H])([H])C([H])([H])C([H])([H])C2([H])N([H])C(=O)C1([H])N(C(=O)C([H])(N([H])C(=O)C([H])(N([H])C([H])([H])[H])C([H])([H])[H])C(C([H])([H])[H])(C([H])([H])[H])C([H])([H])[H])C([H])([H])c2c([H])c(OC([H])([H])C([H])([H])C([H])([H])C([H])([H])[N+]([H])([H])C3([H])C(=O)C([H])([H])N(C(=O)N4C([H])([H])C([H])([H])C([H])([H])C([H])(n5nc(-c6c([H])c([H])c(Oc7c([H])c([H])c(F)c([H])c7F)c([H])c6[H])c(C(=O)N([H])[H])c5N([H])[H])C4([H])[H])C3([H])[H])c([H])c([H])c2C1([H])[H]

>  <smiles>  (83) 
[H]c1c([H])c([H])c2c(c1[H])C([H])([H])C([H])([H])C([H])([H])C2([H])N([H])C(=O)C1([H])N(C(=O)C([H])(N([H])C(=O)C([H])(N([H])C([H])([H])[H])C([H])([H])[H])C(C([H])([H])[H])(C([H])([H])[H])C([H])([H])[H])C([H])([H])c2c([H])c(OC([H])([H])C([H])([H])C([H])([H])C([H])([H])[N+]([H])([H])C3([H])C(=O)C([H])([H])N(C(=O)N4C([H])([H])C([H])([H])C([H])([H])C([H])(n5nc(-c6c([H])c([H])c(Oc7c([H])c([H])c(F)c([H])c7F)c([H])c6[H])c(C(=O)N([H])[H])c5N([H])[H])C4([H])[H])C3([H])[H])c([H])c([H])c2C1([H])[H]

$$$$
83:0:0
     RDKit          3D

100109  0  0  1  0  0  0  0  0999 V2000
  -25.9810  -20.3720   18.9200 C   0  0  0  0  0  2  0  0  0  0  0  0
  -26.7060  -20.1010   20.2510 C   0  0  0  0  0  2  0  0  0  0  0  0
  -28.1660  -22.2060   20.3100 C   0  0  0  0  0  2  0  0  0  0  0  0
  -26.9090  -20.7450   17.7450 C   0  0  0  0  0  2  0  0  0  0  0  0
  -27.4230  -22.8650   19.1220 C   0  0  0  0  0  2  0  0  0  0  0  0
  -28.1430  -20.6630   20.3330 C   0  0  0  0  0  3  0  0  0  0  0  0
  -27.4310  -22.1380   17.8070 N   0  0  1  0  0  4  0  0  0  0  0  0
  -26.6900  -22.6170   17.3130 H   0  0  0  0  0  0  0  0  0  0  0  0
  -28.9460  -19.9990   21.4810 C   0  0  0  0  0  2  0  0  0  0  0  0
  -32.3890  -20.0800   19.6610 C   0  0  0  0  0  2  0  0  0  0  0  0
  -30.9680  -20.5190   20.0130 C   0  0  0  0  0  2  0  0  0  0  0  0
  -32.3660  -18.6510   19.0960 C   0  0  0  0  0  2  0  0  0  0  0  0
  -30.5530  -18.0670   20.7150 C   0  0  0  0  0  2  0  0  0  0  0  0
  -30.3940  -19.5790   21.0840 C   0  0  0  0  0  3  0  0  0  0  0  0
  -31.8630  -17.6780   20.1040 N   0  0  1  0  0  4  0  0  0  0  0  0
  -32.5290  -17.6890   20.8620 H   0  0  0  0  0  0  0  0  0  0  0  0
  -31.8060  -16.2750   19.5870 C   0  0  0  0  0  2  0  0  0  0  0  0
  -33.1450  -15.4820   19.6280 C   0  0  0  0  0  2  0  0  0  0  0  0
  -33.3280  -12.9840   20.1240 C   0  0  0  0  0  0  0  0  0  0  0  0
  -32.8440  -10.6650   20.8530 C   0  0  0  0  0  2  0  0  0  0  0  0
  -31.9600   -9.8910   19.8530 C   0  0  0  0  0  2  0  0  0  0  0  0
  -30.4670  -10.1750   20.1050 C   0  0  0  0  0  2  0  0  0  0  0  0
  -30.1660  -11.6940   20.1770 C   0  0  0  0  0  3  0  0  0  0  0  0
  -31.1320  -12.3710   21.1760 C   0  0  0  0  0  2  0  0  0  0  0  0
  -32.5260  -12.0930   20.7590 N   0  0  0  0  0  0  0  0  0  0  0  0
  -34.3110  -12.6810   19.4420 O   0  0  0  0  0  0  0  0  0  0  0  0
  -32.9670  -14.2470   20.3870 N   0  0  0  0  0  0  0  0  0  0  0  0
  -32.2830  -14.2980   21.1300 H   0  0  0  0  0  0  0  0  0  0  0  0
  -28.0880  -13.1510   20.6430 C   0  0  0  0  0  0  0  0  0  0  0  0
  -26.7880  -12.8230   20.9190 C   0  0  0  0  0  0  0  0  0  0  0  0
  -26.7370  -11.3930   20.9360 C   0  0  0  0  0  0  0  0  0  0  0  0
  -28.7670  -11.9470   20.5190 N   0  0  0  0  0  0  0  0  0  0  0  0
  -27.9500  -10.8890   20.7520 N   0  0  0  0  0  0  0  0  0  0  0  0
  -25.5970  -10.4770   21.0620 C   0  0  0  0  0  0  0  0  0  0  0  0
  -25.5920   -9.4330   22.0170 C   0  0  0  0  0  3  0  0  0  0  0  0
  -24.4780   -8.5750   22.1330 C   0  0  0  0  0  3  0  0  0  0  0  0
  -23.3520   -8.7530   21.2930 C   0  0  0  0  0  0  0  0  0  0  0  0
  -23.3730   -9.7770   20.3300 C   0  0  0  0  0  3  0  0  0  0  0  0
  -24.4840  -10.6280   20.2110 C   0  0  0  0  0  3  0  0  0  0  0  0
  -22.2360   -7.9550   21.3180 O   0  0  0  0  0  0  0  0  0  0  0  0
  -21.8610   -7.2760   22.4520 C   0  0  0  0  0  0  0  0  0  0  0  0
  -21.5630   -7.9460   23.6590 C   0  0  0  0  0  3  0  0  0  0  0  0
  -21.1150   -7.2140   24.7770 C   0  0  0  0  0  3  0  0  0  0  0  0
  -20.9570   -5.8190   24.6880 C   0  0  0  0  0  0  0  0  0  0  0  0
  -21.2410   -5.1520   23.4840 C   0  0  0  0  0  3  0  0  0  0  0  0
  -21.6900   -5.8810   22.3680 C   0  0  0  0  0  0  0  0  0  0  0  0
  -21.9470   -5.2330   21.2060 F   0  0  0  0  0  0  0  0  0  0  0  0
  -20.5140   -5.1170   25.7610 F   0  0  0  0  0  0  0  0  0  0  0  0
  -25.6300  -13.7660   21.0580 C   0  0  0  0  0  0  0  0  0  0  0  0
  -24.6580  -13.4340   21.8970 N   0  0  0  0  0  0  0  0  0  0  0  0
  -25.6040  -14.8380   20.4520 O   0  0  0  0  0  0  0  0  0  0  0  0
  -24.6790  -12.5620   22.4100 H   0  0  0  0  0  0  0  0  0  0  0  0
  -23.8720  -14.0550   22.0300 H   0  0  0  0  0  0  0  0  0  0  0  0
  -28.7500  -14.3660   20.4630 N   0  0  0  0  0  0  0  0  0  0  0  0
  -28.2320  -15.2350   20.4030 H   0  0  0  0  0  0  0  0  0  0  0  0
  -29.6750  -14.4300   20.0600 H   0  0  0  0  0  0  0  0  0  0  0  0
  -28.5970  -22.4190   16.9270 C   0  0  0  0  0  2  0  0  0  0  0  0
  -28.4430  -23.8470   16.3990 C   0  0  0  0  0  2  0  0  0  0  0  0
  -29.6580  -24.7980   16.4060 C   0  0  0  0  0  2  0  0  0  0  0  0
  -29.4110  -26.0270   15.7020 O   0  0  0  0  0  0  0  0  0  0  0  0
  -23.7460  -26.9960   19.9100 C   0  0  0  0  0  0  0  0  0  0  0  0
  -28.1480  -26.5550   15.8400 C   0  0  0  0  0  0  0  0  0  0  0  0
  -23.4190  -27.5090   17.5100 C   0  0  0  0  0  3  0  0  0  0  0  0
  -25.5390  -27.6010   16.1030 C   0  0  0  0  0  0  0  0  0  0  0  0
  -25.7310  -27.7020   18.5890 C   0  0  0  0  0  2  0  0  0  0  0  0
  -26.3180  -27.3570   17.2430 C   0  0  0  0  0  0  0  0  0  0  0  0
  -27.6190  -26.8220   17.1190 C   0  0  0  0  0  3  0  0  0  0  0  0
  -27.3830  -26.9020   14.7050 C   0  0  0  0  0  3  0  0  0  0  0  0
  -26.0680  -27.3700   14.8260 C   0  0  0  0  0  3  0  0  0  0  0  0
  -24.1560  -28.1630   16.3110 C   0  0  0  0  0  2  0  0  0  0  0  0
  -24.2940  -27.3680   18.7200 N   0  0  0  0  0  0  0  0  0  0  0  0
  -22.5250  -26.8090   20.0250 O   0  0  0  0  0  0  0  0  0  0  0  0
  -22.8110  -26.1660   17.0430 C   0  0  0  0  0  0  0  0  0  0  0  0
  -21.8490  -26.2380   16.1120 N   0  0  0  0  0  0  0  0  0  0  0  0
  -23.2180  -25.0930   17.5000 O   0  0  0  0  0  0  0  0  0  0  0  0
  -21.5700  -27.1540   15.7890 H   0  0  0  0  0  0  0  0  0  0  0  0
  -19.6130  -25.3120   13.4350 C   0  0  0  0  0  0  0  0  0  0  0  0
  -21.1560  -25.1010   15.5020 C   0  0  0  0  0  3  0  0  0  0  0  0
  -22.1050  -24.3020   14.5760 C   0  0  0  0  0  2  0  0  0  0  0  0
  -22.0730  -24.8050   13.1310 C   0  0  0  0  0  2  0  0  0  0  0  0
  -20.6650  -24.6600   12.5480 C   0  0  0  0  0  2  0  0  0  0  0  0
  -19.8570  -25.5420   14.8180 C   0  0  0  0  0  0  0  0  0  0  0  0
  -18.8750  -26.2090   15.5850 C   0  0  0  0  0  3  0  0  0  0  0  0
  -17.6710  -26.6320   14.9950 C   0  0  0  0  0  3  0  0  0  0  0  0
  -17.4200  -26.3760   13.6360 C   0  0  0  0  0  3  0  0  0  0  0  0
  -18.3890  -25.7170   12.8590 C   0  0  0  0  0  3  0  0  0  0  0  0
  -24.6180  -26.8130   21.1910 C   0  0  0  0  0  3  0  0  0  0  0  0
  -23.7650  -27.0950   22.3510 N   0  0  0  0  0  0  0  0  0  0  0  0
  -23.8620  -28.1940   23.1150 C   0  0  0  0  0  0  0  0  0  0  0  0
  -24.7360  -29.0500   22.9530 O   0  0  0  0  0  0  0  0  0  0  0  0
  -22.9840  -26.4730   22.5010 H   0  0  0  0  0  0  0  0  0  0  0  0
  -21.7750  -29.4210   23.8090 C   0  0  0  0  0  1  0  0  0  0  0  0
  -22.8160  -28.3710   24.2320 C   0  0  0  0  0  3  0  0  0  0  0  0
  -24.2000  -27.6850   26.1400 C   0  0  0  0  0  1  0  0  0  0  0  0
  -23.4080  -28.7510   25.5330 N   0  0  0  0  0  0  0  0  0  0  0  0
  -22.6850  -29.0240   26.1940 H   0  0  0  0  0  0  0  0  0  0  0  0
  -25.2660  -25.3780   21.3030 C   0  0  1  0  0  0  0  0  0  0  0  0
  -24.2530  -24.2240   21.1250 C   0  0  0  0  0  1  0  0  0  0  0  0
  -26.3780  -25.1950   20.2420 C   0  0  0  0  0  1  0  0  0  0  0  0
  -25.9370  -25.2150   22.6860 C   0  0  0  0  0  1  0  0  0  0  0  0
  1  2  1  0
  2  6  1  0
  3  6  1  0
  4  7  1  0
  4  1  1  0
  5  3  1  0
  6  9  1  0
  7  5  1  0
  7  8  1  6
 10 11  1  0
 11 14  1  0
 12 10  1  0
 12 15  1  0
 13 14  1  0
 14  9  1  0
 15 13  1  0
 15 16  1  1
 17 18  1  0
 17 15  1  0
 18 27  1  0
 19 27  1  0
 19 25  1  0
 21 22  1  0
 21 20  1  0
 23 22  1  0
 23 32  1  0
 23 24  1  0
 25 20  1  0
 25 24  1  0
 26 19  2  0
 27 28  1  0
 29 30  2  0
 30 31  1  0
 30 49  1  0
 31 34  1  0
 32 29  1  0
 32 33  1  0
 33 31  2  0
 34 35  1  0
 35 36  2  0
 37 40  1  0
 37 36  1  0
 38 37  2  0
 39 38  1  0
 39 34  2  0
 40 41  1  0
 41 42  1  0
 42 43  2  0
 44 43  1  0
 44 48  1  0
 45 44  2  0
 46 41  2  0
 46 45  1  0
 47 46  1  0
 49 50  1  0
 50 53  1  0
 50 52  1  0
 51 49  2  0
 54 29  1  0
 55 54  1  0
 56 54  1  0
 57  7  1  0
 58 59  1  0
 58 57  1  0
 60 62  1  0
 60 59  1  0
 61 72  2  0
 62 67  1  0
 63 73  1  0
 63 71  1  0
 64 70  1  0
 64 66  1  0
 65 71  1  0
 66 65  1  0
 67 66  2  0
 68 69  1  0
 68 62  2  0
 69 64  2  0
 70 63  1  0
 71 61  1  0
 73 75  2  0
 74 73  1  0
 76 74  1  0
 77 82  1  0
 78 74  1  0
 79 78  1  0
 80 79  1  0
 81 80  1  0
 81 77  1  0
 82 78  1  0
 82 83  2  0
 84 83  1  0
 85 84  2  0
 86 77  2  0
 86 85  1  0
 87 61  1  0
 87 97  1  0
 87 88  1  0
 88 91  1  0
 88 89  1  0
 89 93  1  0
 90 89  2  0
 93 92  1  0
 93 95  1  0
 95 94  1  0
 95 96  1  0
 97100  1  1
 98 97  1  0
 99 97  1  0
M  ISO  4  19 100  27 100  59 101  60 101
M  END
>  <TORSDO>  (84) 
F 23

>  <SCORE>  (84) 
-6.401

>  <name>  (84) 
83

>  <ligand_id>  (84) 
83

>  <original_smiles>  (84) 
[H]c1c([H])c([H])c2c(c1[H])C([H])([H])C([H])([H])C([H])([H])C2([H])N([H])C(=O)C1([H])N(C(=O)C([H])(N([H])C(=O)C([H])(N([H])C([H])([H])[H])C([H])([H])[H])C(C([H])([H])[H])(C([H])([H])[H])C([H])([H])[H])C([H])([H])c2c([H])c(OC([H])([H])C([H])([H])C([H])([H])[N+]3([H])C([H])([H])C([H])([H])C([H])([H])C([H])(C([H])([H])C4([H])C([H])([H])C([H])([H])C([H])([H])[N+]([H])(C([H])([H])C([H])([H])N([H])C(=O)N5C([H])([H])C([H])([H])C([H])([H])C([H])(n6nc(-c7c([H])c([H])c(Oc8c([H])c([H])c(F)c([H])c8F)c([H])c7[H])c(C(=O)N([H])[H])c6N([H])[H])C5([H])[H])C4([H])[H])C([H])([H])C3([H])[H])c([H])c([H])c2C1([H])[H]

>  <smiles>  (84) 
[H]c1c([H])c([H])c2c(c1[H])C([H])([H])C([H])([H])C([H])([H])C2([H])N([H])C(=O)C1([H])N(C(=O)C([H])(N([H])C(=O)C([H])(N([H])C([H])([H])[H])C([H])([H])[H])C(C([H])([H])[H])(C([H])([H])[H])C([H])([H])[H])C([H])([H])c2c([H])c(OC([H])([H])C([H])([H])C([H])([H])[N+]3([H])C([H])([H])C([H])([H])C([H])([H])C([H])(C([H])([H])C4([H])C([H])([H])C([H])([H])C([H])([H])[N+]([H])(C([H])([H])C([H])([H])N([H])C(=O)N5C([H])([H])C([H])([H])C([H])([H])C([H])(n6nc(-c7c([H])c([H])c(Oc8c([H])c([H])c(F)c([H])c8F)c([H])c7[H])c(C(=O)N([H])[H])c6N([H])[H])C5([H])[H])C4([H])[H])C([H])([H])C3([H])[H])c([H])c([H])c2C1([H])[H]

$$$$
84:0:0
     RDKit          3D

105114  0  0  1  0  0  0  0  0999 V2000
  -30.7770  -21.1280   20.0970 C   0  0  0  0  0  3  0  0  0  0  0  0
  -28.5420  -22.0050   20.2000 C   0  0  0  0  0  3  0  0  0  0  0  0
  -29.4310  -20.8180   20.3380 C   0  0  0  0  0  0  0  0  0  0  0  0
  -31.2240  -22.4040   19.6600 C   0  0  0  0  0  0  0  0  0  0  0  0
  -28.9310  -23.3890   19.7920 C   0  0  0  0  0  0  0  0  0  0  0  0
  -30.3170  -23.5110   19.4330 C   0  0  0  0  0  0  0  0  0  0  0  0
  -29.0560  -19.2480   20.7410 C   0  0  0  0  0  3  0  0  0  0  0  0
  -30.1330  -17.9280   20.8320 C   0  0  0  0  0  3  0  0  0  0  0  0
  -30.5400  -15.1890   20.9490 C   0  0  0  0  0  0  0  0  0  0  0  0
  -30.5440  -12.7960   20.1020 C   0  0  0  0  0  2  0  0  0  0  0  0
  -29.7440  -12.6640   18.7860 C   0  0  0  0  0  2  0  0  0  0  0  0
  -28.2490  -12.4410   19.0810 C   0  0  0  0  0  2  0  0  0  0  0  0
  -27.7070  -13.4140   20.1600 C   0  0  0  0  0  3  0  0  0  0  0  0
  -28.6400  -13.5120   21.3850 C   0  0  0  0  0  2  0  0  0  0  0  0
  -29.9570  -13.9220   20.8870 N   0  0  0  0  0  0  0  0  0  0  0  0
  -31.7650  -15.2450   20.8050 O   0  0  0  0  0  0  0  0  0  0  0  0
  -29.7560  -16.3840   20.9580 N   0  0  0  0  0  0  0  0  0  0  0  0
  -28.7650  -16.2090   21.0250 H   0  0  0  0  0  0  0  0  0  0  0  0
  -25.2700  -13.9900   20.6910 C   0  0  0  0  0  0  0  0  0  0  0  0
  -24.1760  -13.2130   20.9550 C   0  0  0  0  0  0  0  0  0  0  0  0
  -24.6410  -11.8610   20.9500 C   0  0  0  0  0  0  0  0  0  0  0  0
  -26.3310  -13.1130   20.5360 N   0  0  0  0  0  0  0  0  0  0  0  0
  -25.9550  -11.8270   20.7600 N   0  0  0  0  0  0  0  0  0  0  0  0
  -23.8980  -10.5970   21.0540 C   0  0  0  0  0  0  0  0  0  0  0  0
  -24.2530   -9.6070   21.9960 C   0  0  0  0  0  3  0  0  0  0  0  0
  -23.5100   -8.4110   22.0910 C   0  0  0  0  0  3  0  0  0  0  0  0
  -22.3970   -8.1970   21.2420 C   0  0  0  0  0  0  0  0  0  0  0  0
  -22.0630   -9.1760   20.2900 C   0  0  0  0  0  3  0  0  0  0  0  0
  -22.8080  -10.3640   20.1920 C   0  0  0  0  0  3  0  0  0  0  0  0
  -21.6330   -7.0550   21.2470 O   0  0  0  0  0  0  0  0  0  0  0  0
  -21.4910   -6.2870   22.3740 C   0  0  0  0  0  0  0  0  0  0  0  0
  -20.9890   -6.8210   23.5820 C   0  0  0  0  0  3  0  0  0  0  0  0
  -20.7920   -5.9790   24.6950 C   0  0  0  0  0  3  0  0  0  0  0  0
  -21.0910   -4.6070   24.6040 C   0  0  0  0  0  0  0  0  0  0  0  0
  -21.5850   -4.0730   23.4010 C   0  0  0  0  0  3  0  0  0  0  0  0
  -21.7830   -4.9110   22.2890 C   0  0  0  0  0  0  0  0  0  0  0  0
  -22.2390   -4.3860   21.1250 F   0  0  0  0  0  0  0  0  0  0  0  0
  -20.8960   -3.7970   25.6710 F   0  0  0  0  0  0  0  0  0  0  0  0
  -22.7590  -13.6880   21.0990 C   0  0  0  0  0  0  0  0  0  0  0  0
  -21.9550  -12.9890   21.8920 N   0  0  0  0  0  0  0  0  0  0  0  0
  -22.3720  -14.7140   20.5410 O   0  0  0  0  0  0  0  0  0  0  0  0
  -22.2790  -12.1610   22.3670 H   0  0  0  0  0  0  0  0  0  0  0  0
  -20.9980  -13.2880   22.0240 H   0  0  0  0  0  0  0  0  0  0  0  0
  -25.4500  -15.3630   20.5440 N   0  0  0  0  0  0  0  0  0  0  0  0
  -24.6750  -16.0160   20.5910 H   0  0  0  0  0  0  0  0  0  0  0  0
  -26.3160  -15.8000   20.2620 H   0  0  0  0  0  0  0  0  0  0  0  0
  -32.7530  -22.5120   19.5180 C   0  0  0  0  0  2  0  0  0  0  0  0
  -33.3120  -21.6020   18.5010 N   0  0  0  0  0  4  0  0  0  0  0  0
  -33.1810  -20.6430   18.7680 H   0  0  0  0  0  0  0  0  0  0  0  0
  -34.3000  -21.7630   18.4240 H   0  0  0  0  0  0  0  0  0  0  0  0
  -32.9020  -21.7350   17.5960 H   0  0  0  0  0  0  0  0  0  0  0  0
  -27.8540  -24.6630   19.6360 C   0  0  0  0  0  2  0  0  0  0  0  0
  -28.1250  -26.2120   19.6960 O   0  0  0  0  0  0  0  0  0  0  0  0
  -24.5860  -31.7900   23.0280 C   0  0  0  0  0  0  0  0  0  0  0  0
  -27.0580  -27.1910   19.7190 C   0  0  0  0  0  0  0  0  0  0  0  0
  -23.3190  -30.4220   21.4170 C   0  0  0  0  0  3  0  0  0  0  0  0
  -24.7080  -28.9130   19.8690 C   0  0  0  0  0  0  0  0  0  0  0  0
  -25.8570  -30.7310   21.1200 C   0  0  0  0  0  2  0  0  0  0  0  0
  -25.9160  -29.3570   20.4230 C   0  0  0  0  0  0  0  0  0  0  0  0
  -27.0900  -28.5150   20.3290 C   0  0  0  0  0  3  0  0  0  0  0  0
  -25.8170  -26.8560   19.1310 C   0  0  0  0  0  3  0  0  0  0  0  0
  -24.6710  -27.6790   19.2070 C   0  0  0  0  0  3  0  0  0  0  0  0
  -23.4750  -29.7920   20.0080 C   0  0  0  0  0  2  0  0  0  0  0  0
  -24.6100  -31.0020   21.9090 N   0  0  0  0  0  0  0  0  0  0  0  0
  -23.5270  -32.0390   23.6250 O   0  0  0  0  0  0  0  0  0  0  0  0
  -22.7090  -29.3750   22.3840 C   0  0  0  0  0  0  0  0  0  0  0  0
  -21.3800  -29.1770   22.3160 N   0  0  0  0  0  0  0  0  0  0  0  0
  -23.4320  -28.7470   23.1610 O   0  0  0  0  0  0  0  0  0  0  0  0
  -20.8520  -29.7350   21.6600 H   0  0  0  0  0  0  0  0  0  0  0  0
  -18.0570  -27.8640   22.9170 C   0  0  0  0  0  0  0  0  0  0  0  0
  -20.6140  -28.2060   23.1010 C   0  0  0  0  0  3  0  0  0  0  0  0
  -20.7420  -26.7860   22.5030 C   0  0  0  0  0  2  0  0  0  0  0  0
  -19.6170  -26.4410   21.5230 C   0  0  0  0  0  2  0  0  0  0  0  0
  -18.2530  -26.5310   22.2150 C   0  0  0  0  0  2  0  0  0  0  0  0
  -19.1650  -28.6570   23.3190 C   0  0  0  0  0  0  0  0  0  0  0  0
  -18.9260  -29.9020   23.9390 C   0  0  0  0  0  3  0  0  0  0  0  0
  -17.6120  -30.3580   24.1600 C   0  0  0  0  0  3  0  0  0  0  0  0
  -16.5190  -29.5620   23.7720 C   0  0  0  0  0  3  0  0  0  0  0  0
  -16.7420  -28.3170   23.1590 C   0  0  0  0  0  3  0  0  0  0  0  0
  -25.8860  -32.4290   23.6030 C   0  0  0  0  0  3  0  0  0  0  0  0
  -26.4970  -31.6120   24.8070 C   0  0  1  0  0  0  0  0  0  0  0  0
  -25.4800  -31.3060   25.9310 C   0  0  0  0  0  1  0  0  0  0  0  0
  -27.0770  -30.2660   24.3180 C   0  0  0  0  0  1  0  0  0  0  0  0
  -27.6760  -32.3970   25.4270 C   0  0  0  0  0  1  0  0  0  0  0  0
  -25.5630  -33.8000   24.0280 N   0  0  0  0  0  0  0  0  0  0  0  0
  -25.8410  -34.9040   23.3240 C   0  0  0  0  0  0  0  0  0  0  0  0
  -26.4670  -34.8770   22.2600 O   0  0  0  0  0  0  0  0  0  0  0  0
  -25.0060  -33.8920   24.8650 H   0  0  0  0  0  0  0  0  0  0  0  0
  -24.0650  -36.6780   23.1600 C   0  0  0  0  0  1  0  0  0  0  0  0
  -25.3520  -36.2530   23.8870 C   0  0  0  0  0  3  0  0  0  0  0  0
  -27.5070  -37.1300   24.6660 C   0  0  0  0  0  1  0  0  0  0  0  0
  -26.3570  -37.3340   23.7890 N   0  0  0  0  0  0  0  0  0  0  0  0
  -25.9430  -38.2340   24.0150 H   0  0  0  0  0  0  0  0  0  0  0  0
  -30.8060  -24.8320   18.7770 C   0  0  0  0  0  3  0  0  0  0  0  0
  -31.9790  -28.0590   21.4910 C   0  0  0  0  0  3  0  0  0  0  0  0
  -31.6680  -26.7930   22.0170 C   0  0  0  0  0  3  0  0  0  0  0  0
  -31.9030  -28.2780   20.1040 C   0  0  0  0  0  3  0  0  0  0  0  0
  -31.2930  -25.7420   21.1570 C   0  0  0  0  0  3  0  0  0  0  0  0
  -31.5310  -27.2260   19.2460 C   0  0  0  0  0  3  0  0  0  0  0  0
  -31.2420  -25.9370   19.7540 C   0  0  0  0  0  0  0  0  0  0  0  0
  -31.7420  -24.6450   17.5480 C   0  0  0  0  0  2  0  0  0  0  0  0
  -31.1370  -23.7950   16.5020 N   0  0  0  0  0  4  0  0  0  0  0  0
  -30.8880  -22.8880   16.8530 H   0  0  0  0  0  0  0  0  0  0  0  0
  -31.7800  -23.6780   15.7380 H   0  0  0  0  0  0  0  0  0  0  0  0
  -30.3070  -24.2290   16.1360 H   0  0  0  0  0  0  0  0  0  0  0  0
  1  3  1  0
  2  3  2  0
  3  7  1  0
  4  1  2  0
  5  2  1  0
  6  4  1  0
  6  5  2  0
  7  8  2  0
  8 17  1  0
  9 17  1  0
 10 15  1  0
 11 12  1  0
 11 10  1  0
 13 12  1  0
 13 22  1  0
 13 14  1  0
 15  9  1  0
 15 14  1  0
 16  9  2  0
 17 18  1  0
 19 20  2  0
 20 39  1  0
 21 20  1  0
 21 24  1  0
 22 19  1  0
 22 23  1  0
 23 21  2  0
 24 25  1  0
 25 26  2  0
 27 30  1  0
 27 26  1  0
 28 27  2  0
 29 28  1  0
 29 24  2  0
 30 31  1  0
 31 32  1  0
 32 33  2  0
 34 33  1  0
 34 38  1  0
 35 34  2  0
 36 31  2  0
 36 35  1  0
 37 36  1  0
 39 40  1  0
 40 43  1  0
 40 42  1  0
 41 39  2  0
 44 45  1  0
 44 19  1  0
 46 44  1  0
 47  4  1  0
 48 49  1  0
 48 47  1  0
 50 48  1  0
 51 48  1  0
 52 53  1  0
 52  5  1  0
 53 55  1  0
 54 65  2  0
 55 60  1  0
 56 64  1  0
 56 66  1  0
 57 63  1  0
 57 59  1  0
 58 64  1  0
 59 58  1  0
 60 59  2  0
 61 62  1  0
 61 55  2  0
 62 57  2  0
 63 56  1  0
 64 54  1  0
 66 68  2  0
 67 66  1  0
 69 67  1  0
 70 79  2  0
 70 75  1  0
 71 67  1  0
 71 75  1  0
 72 71  1  0
 73 74  1  0
 73 72  1  0
 74 70  1  0
 75 76  2  0
 76 77  1  0
 78 77  2  0
 79 78  1  0
 80 54  1  0
 80 85  1  0
 80 81  1  0
 81 84  1  1
 81 82  1  0
 83 81  1  0
 85 88  1  0
 86 90  1  0
 86 85  1  0
 87 86  2  0
 90 89  1  0
 92 90  1  0
 92 93  1  0
 92 91  1  0
 94101  1  0
 94  6  1  0
 94100  1  0
 95 96  1  0
 97 95  2  0
 98 96  2  0
 99100  2  0
 99 97  1  0
100 98  1  0
102103  1  0
102101  1  0
104102  1  0
105102  1  0
M  ISO  4   9 100  17 100  52 101  53 101
M  END
>  <TORSDO>  (85) 
F 25

>  <SCORE>  (85) 
-12.736

>  <name>  (85) 
84

>  <ligand_id>  (85) 
84

>  <original_smiles>  (85) 
[H]c1c([H])c([H])c(C([H])(c2c(C([H])([H])Oc3c([H])c([H])c4c(c3[H])C([H])([H])N(C(=O)C([H])(N([H])C(=O)C([H])(N([H])C([H])([H])[H])C([H])([H])[H])C(C([H])([H])[H])(C([H])([H])[H])C([H])([H])[H])C([H])(C(=O)N([H])C3([H])c5c([H])c([H])c([H])c([H])c5C([H])([H])C([H])([H])C3([H])[H])C4([H])[H])c([H])c(C([H])([H])C([H])([H])N([H])C(=O)N3C([H])([H])C([H])([H])C([H])([H])C([H])(n4nc(-c5c([H])c([H])c(Oc6c([H])c([H])c(F)c([H])c6F)c([H])c5[H])c(C(=O)N([H])[H])c4N([H])[H])C3([H])[H])c([H])c2C([H])([H])[N+]([H])([H])[H])C([H])([H])[N+]([H])([H])[H])c([H])c1[H]

>  <smiles>  (85) 
[H]c1c([H])c([H])c(C([H])(c2c(C([H])([H])Oc3c([H])c([H])c4c(c3[H])C([H])([H])N(C(=O)C([H])(N([H])C(=O)C([H])(N([H])C([H])([H])[H])C([H])([H])[H])C(C([H])([H])[H])(C([H])([H])[H])C([H])([H])[H])C([H])(C(=O)N([H])C3([H])c5c([H])c([H])c([H])c([H])c5C([H])([H])C([H])([H])C3([H])[H])C4([H])[H])c([H])c(C([H])([H])C([H])([H])N([H])C(=O)N3C([H])([H])C([H])([H])C([H])([H])C([H])(n4nc(-c5c([H])c([H])c(Oc6c([H])c([H])c(F)c([H])c6F)c([H])c5[H])c(C(=O)N([H])[H])c4N([H])[H])C3([H])[H])c([H])c2C([H])([H])[N+]([H])([H])[H])C([H])([H])[N+]([H])([H])[H])c([H])c1[H]

$$$$
85:0:0
     RDKit          3D

 97105  0  0  1  0  0  0  0  0999 V2000
  -30.2760  -22.0300   24.1090 C   0  0  0  0  0  2  0  0  0  0  0  0
  -30.8060  -21.7540   21.6560 C   0  0  0  0  0  2  0  0  0  0  0  0
  -29.8500  -23.4850   23.8540 C   0  0  0  0  0  2  0  0  0  0  0  0
  -30.3960  -23.2130   21.3950 C   0  0  0  0  0  2  0  0  0  0  0  0
  -30.0500  -21.1520   22.8640 C   0  0  0  0  0  3  0  0  0  0  0  0
  -30.5840  -24.1030   22.6460 C   0  0  0  0  0  3  0  0  0  0  0  0
  -30.0860  -25.4740   22.4090 N   0  0  0  0  0  4  0  0  0  0  0  0
  -30.0430  -25.9450   23.3010 H   0  0  0  0  0  0  0  0  0  0  0  0
  -29.1440  -25.4260   22.0510 H   0  0  0  0  0  0  0  0  0  0  0  0
  -30.8940  -26.3140   21.4940 C   0  0  0  0  0  2  0  0  0  0  0  0
  -30.0920  -27.5530   21.0870 C   0  0  0  0  0  2  0  0  0  0  0  0
  -28.9690  -27.0730   20.3470 O   0  0  0  0  0  0  0  0  0  0  0  0
  -24.6340  -31.9250   23.3150 C   0  0  0  0  0  0  0  0  0  0  0  0
  -27.7830  -27.7740   20.3500 C   0  0  0  0  0  0  0  0  0  0  0  0
  -23.6200  -30.4580   21.5970 C   0  0  0  0  0  3  0  0  0  0  0  0
  -25.2610  -29.0500   20.2450 C   0  0  0  0  0  0  0  0  0  0  0  0
  -26.1090  -31.0240   21.5270 C   0  0  0  0  0  2  0  0  0  0  0  0
  -26.3350  -29.6710   20.8900 C   0  0  0  0  0  0  0  0  0  0  0  0
  -27.5970  -29.0480   20.9380 C   0  0  0  0  0  3  0  0  0  0  0  0
  -26.6870  -27.1550   19.7120 C   0  0  0  0  0  3  0  0  0  0  0  0
  -25.4290  -27.7860   19.6520 C   0  0  0  0  0  3  0  0  0  0  0  0
  -23.9510  -29.8050   20.2270 C   0  0  0  0  0  2  0  0  0  0  0  0
  -24.8020  -31.1490   22.2080 N   0  0  0  0  0  0  0  0  0  0  0  0
  -23.5100  -32.1080   23.8020 O   0  0  0  0  0  0  0  0  0  0  0  0
  -22.9970  -29.3820   22.5140 C   0  0  0  0  0  0  0  0  0  0  0  0
  -21.6980  -29.1110   22.3170 N   0  0  0  0  0  0  0  0  0  0  0  0
  -23.6820  -28.7930   23.3540 O   0  0  0  0  0  0  0  0  0  0  0  0
  -21.2050  -29.6420   21.6130 H   0  0  0  0  0  0  0  0  0  0  0  0
  -18.3900  -27.6960   22.6290 C   0  0  0  0  0  0  0  0  0  0  0  0
  -20.9100  -28.1090   23.0320 C   0  0  0  0  0  3  0  0  0  0  0  0
  -21.1320  -26.6990   22.4400 C   0  0  0  0  0  2  0  0  0  0  0  0
  -20.1050  -26.3240   21.3680 C   0  0  0  0  0  2  0  0  0  0  0  0
  -18.6860  -26.3710   21.9450 C   0  0  0  0  0  2  0  0  0  0  0  0
  -19.4360  -28.5190   23.1250 C   0  0  0  0  0  0  0  0  0  0  0  0
  -19.1080  -29.7560   23.7200 C   0  0  0  0  0  3  0  0  0  0  0  0
  -17.7680  -30.1720   23.8270 C   0  0  0  0  0  3  0  0  0  0  0  0
  -16.7370  -29.3460   23.3500 C   0  0  0  0  0  3  0  0  0  0  0  0
  -17.0480  -28.1100   22.7550 C   0  0  0  0  0  3  0  0  0  0  0  0
  -25.8380  -32.6380   24.0090 C   0  0  0  0  0  3  0  0  0  0  0  0
  -25.4340  -34.0220   24.2820 N   0  0  0  0  0  0  0  0  0  0  0  0
  -25.7680  -35.0740   23.5220 C   0  0  0  0  0  0  0  0  0  0  0  0
  -26.5170  -34.9840   22.5450 O   0  0  0  0  0  0  0  0  0  0  0  0
  -24.7750  -34.1620   25.0330 H   0  0  0  0  0  0  0  0  0  0  0  0
  -23.9730  -36.7550   23.0030 C   0  0  0  0  0  1  0  0  0  0  0  0
  -25.1760  -36.4420   23.9070 C   0  0  0  0  0  3  0  0  0  0  0  0
  -27.2050  -37.4590   24.8440 C   0  0  0  0  0  1  0  0  0  0  0  0
  -26.1540  -37.5490   23.8330 N   0  0  0  0  0  0  0  0  0  0  0  0
  -25.6900  -38.4470   23.9380 H   0  0  0  0  0  0  0  0  0  0  0  0
  -26.3080  -31.9190   25.3330 C   0  0  1  0  0  0  0  0  0  0  0  0
  -25.1570  -31.6220   26.3210 C   0  0  0  0  0  1  0  0  0  0  0  0
  -27.0080  -30.5800   25.0030 C   0  0  0  0  0  1  0  0  0  0  0  0
  -27.3500  -32.7960   26.0650 C   0  0  0  0  0  1  0  0  0  0  0  0
  -30.4660  -19.7580   23.1270 N   0  0  0  0  0  4  0  0  0  0  0  0
  -30.2510  -19.5390   24.0870 H   0  0  0  0  0  0  0  0  0  0  0  0
  -31.4640  -19.6880   23.0170 H   0  0  0  0  0  0  0  0  0  0  0  0
  -29.8030  -18.7420   22.2820 C   0  0  0  0  0  2  0  0  0  0  0  0
  -30.4870  -17.3720   22.3910 C   0  0  0  0  0  2  0  0  0  0  0  0
  -31.7470  -17.2610   21.5090 C   0  0  0  0  0  2  0  0  0  0  0  0
  -32.3430  -15.8480   21.4890 C   0  0  0  0  0  2  0  0  0  0  0  0
  -31.3850  -14.3550   19.7430 C   0  0  0  0  0  0  0  0  0  0  0  0
  -30.7700  -12.2780   18.5770 C   0  0  0  0  0  2  0  0  0  0  0  0
  -29.7440  -12.4620   17.4500 C   0  0  0  0  0  2  0  0  0  0  0  0
  -28.3130  -12.4070   18.0080 C   0  0  0  0  0  2  0  0  0  0  0  0
  -28.1130  -13.3560   19.2170 C   0  0  0  0  0  3  0  0  0  0  0  0
  -29.2330  -13.1660   20.2640 C   0  0  0  0  0  2  0  0  0  0  0  0
  -30.5450  -13.3040   19.6030 N   0  0  0  0  0  0  0  0  0  0  0  0
  -32.2280  -14.6820   18.9020 O   0  0  0  0  0  0  0  0  0  0  0  0
  -31.3840  -14.8770   20.9740 N   0  0  0  0  0  0  0  0  0  0  0  0
  -30.7210  -14.4830   21.6280 H   0  0  0  0  0  0  0  0  0  0  0  0
  -25.8340  -14.1410   20.1290 C   0  0  0  0  0  0  0  0  0  0  0  0
  -24.7430  -13.4490   20.5860 C   0  0  0  0  0  0  0  0  0  0  0  0
  -25.0950  -12.0670   20.5110 C   0  0  0  0  0  0  0  0  0  0  0  0
  -26.7860  -13.1850   19.8090 N   0  0  0  0  0  0  0  0  0  0  0  0
  -26.3470  -11.9320   20.0930 N   0  0  0  0  0  0  0  0  0  0  0  0
  -24.2930  -10.8620   20.7600 C   0  0  0  0  0  0  0  0  0  0  0  0
  -24.7110   -9.8720   21.6780 C   0  0  0  0  0  3  0  0  0  0  0  0
  -23.9140   -8.7310   21.9130 C   0  0  0  0  0  3  0  0  0  0  0  0
  -22.6840   -8.5710   21.2310 C   0  0  0  0  0  0  0  0  0  0  0  0
  -22.2840   -9.5470   20.3020 C   0  0  0  0  0  3  0  0  0  0  0  0
  -23.0800  -10.6800   20.0650 C   0  0  0  0  0  3  0  0  0  0  0  0
  -21.8580   -7.4840   21.3770 O   0  0  0  0  0  0  0  0  0  0  0  0
  -21.7950   -6.7780   22.5520 C   0  0  0  0  0  0  0  0  0  0  0  0
  -21.4700   -7.4010   23.7770 C   0  0  0  0  0  3  0  0  0  0  0  0
  -21.3480   -6.6270   24.9480 C   0  0  0  0  0  3  0  0  0  0  0  0
  -21.5430   -5.2330   24.8960 C   0  0  0  0  0  0  0  0  0  0  0  0
  -21.8610   -4.6130   23.6770 C   0  0  0  0  0  3  0  0  0  0  0  0
  -21.9840   -5.3830   22.5070 C   0  0  0  0  0  0  0  0  0  0  0  0
  -22.2700   -4.7760   21.3300 F   0  0  0  0  0  0  0  0  0  0  0  0
  -21.4180   -4.4890   26.0200 F   0  0  0  0  0  0  0  0  0  0  0  0
  -23.4160  -14.0280   20.9800 C   0  0  0  0  0  0  0  0  0  0  0  0
  -22.7230  -13.3930   21.9200 N   0  0  0  0  0  0  0  0  0  0  0  0
  -23.0050  -15.0790   20.4910 O   0  0  0  0  0  0  0  0  0  0  0  0
  -23.0690  -12.5410   22.3380 H   0  0  0  0  0  0  0  0  0  0  0  0
  -21.8340  -13.7620   22.2250 H   0  0  0  0  0  0  0  0  0  0  0  0
  -26.0870  -15.4970   19.9420 N   0  0  0  0  0  0  0  0  0  0  0  0
  -25.3890  -16.2100   20.1200 H   0  0  0  0  0  0  0  0  0  0  0  0
  -26.9440  -15.8690   19.5530 H   0  0  0  0  0  0  0  0  0  0  0  0
  2  5  1  0
  3  1  1  0
  4  2  1  0
  4  6  1  0
  5 53  1  0
  5  1  1  0
  6  7  1  0
  6  3  1  0
  7  8  1  0
  9  7  1  0
 10  7  1  0
 11 10  1  0
 12 14  1  0
 12 11  1  0
 13 24  2  0
 14 19  1  0
 15 23  1  0
 15 25  1  0
 16 18  1  0
 17 23  1  0
 18 19  2  0
 18 17  1  0
 20 14  2  0
 21 20  1  0
 21 16  2  0
 22 16  1  0
 22 15  1  0
 23 13  1  0
 25 27  2  0
 26 25  1  0
 28 26  1  0
 29 38  2  0
 29 34  1  0
 30 26  1  0
 30 34  1  0
 31 30  1  0
 32 33  1  0
 32 31  1  0
 33 29  1  0
 34 35  2  0
 35 36  1  0
 37 36  2  0
 38 37  1  0
 39 13  1  0
 39 40  1  0
 39 49  1  0
 40 43  1  0
 41 45  1  0
 41 40  1  0
 42 41  2  0
 45 44  1  0
 47 45  1  0
 47 48  1  0
 47 46  1  0
 49 52  1  1
 49 50  1  0
 51 49  1  0
 53 54  1  0
 55 53  1  0
 56 57  1  0
 56 53  1  0
 58 57  1  0
 59 58  1  0
 60 68  1  0
 61 66  1  0
 62 63  1  0
 62 61  1  0
 64 63  1  0
 64 73  1  0
 64 65  1  0
 66 60  1  0
 66 65  1  0
 67 60  2  0
 68 59  1  0
 68 69  1  0
 70 71  2  0
 71 90  1  0
 72 71  1  0
 72 75  1  0
 73 74  1  0
 73 70  1  0
 74 72  2  0
 75 76  1  0
 76 77  2  0
 78 81  1  0
 78 77  1  0
 79 78  2  0
 80 79  1  0
 80 75  2  0
 81 82  1  0
 82 83  1  0
 83 84  2  0
 85 84  1  0
 85 89  1  0
 86 85  2  0
 87 82  2  0
 87 86  1  0
 88 87  1  0
 90 91  1  0
 91 94  1  0
 91 93  1  0
 92 90  2  0
 95 96  1  0
 95 70  1  0
 97 95  1  0
M  ISO  4  11 101  12 101  60 100  68 100
M  END
>  <TORSDO>  (86) 
F 24

>  <SCORE>  (86) 
-8.830

>  <name>  (86) 
85

>  <ligand_id>  (86) 
85

>  <original_smiles>  (86) 
[H]c1c([H])c([H])c2c(c1[H])C([H])([H])C([H])([H])C([H])([H])C2([H])N([H])C(=O)C1([H])N(C(=O)C([H])(N([H])C(=O)C([H])(N([H])C([H])([H])[H])C([H])([H])[H])C(C([H])([H])[H])(C([H])([H])[H])C([H])([H])[H])C([H])([H])c2c([H])c(OC([H])([H])C([H])([H])[N+]([H])([H])C3([H])C([H])([H])C([H])([H])C([H])([N+]([H])([H])C([H])([H])C([H])([H])C([H])([H])C([H])([H])N([H])C(=O)N4C([H])([H])C([H])([H])C([H])([H])C([H])(n5nc(-c6c([H])c([H])c(Oc7c([H])c([H])c(F)c([H])c7F)c([H])c6[H])c(C(=O)N([H])[H])c5N([H])[H])C4([H])[H])C([H])([H])C3([H])[H])c([H])c([H])c2C1([H])[H]

>  <smiles>  (86) 
[H]c1c([H])c([H])c2c(c1[H])C([H])([H])C([H])([H])C([H])([H])C2([H])N([H])C(=O)C1([H])N(C(=O)C([H])(N([H])C(=O)C([H])(N([H])C([H])([H])[H])C([H])([H])[H])C(C([H])([H])[H])(C([H])([H])[H])C([H])([H])[H])C([H])([H])c2c([H])c(OC([H])([H])C([H])([H])[N+]([H])([H])C3([H])C([H])([H])C([H])([H])C([H])([N+]([H])([H])C([H])([H])C([H])([H])C([H])([H])C([H])([H])N([H])C(=O)N4C([H])([H])C([H])([H])C([H])([H])C([H])(n5nc(-c6c([H])c([H])c(Oc7c([H])c([H])c(F)c([H])c7F)c([H])c6[H])c(C(=O)N([H])[H])c5N([H])[H])C4([H])[H])C([H])([H])C3([H])[H])c([H])c([H])c2C1([H])[H]

$$$$
86:0:0
     RDKit          3D

 98107  0  0  1  0  0  0  0  0999 V2000
  -28.7110  -22.1360   21.9890 C   0  0  0  0  0  2  0  0  0  0  0  0
  -29.7780  -23.2160   19.9260 C   0  0  0  0  0  2  0  0  0  0  0  0
  -27.4380  -22.9650   21.7460 C   0  0  0  0  0  2  0  0  0  0  0  0
  -28.4570  -23.9370   19.6700 C   0  0  0  0  0  2  0  0  0  0  0  0
  -29.5190  -21.9130   20.6910 C   0  0  0  0  0  3  0  0  0  0  0  0
  -27.7390  -24.2770   20.9940 C   0  0  0  0  0  3  0  0  0  0  0  0
  -30.8410  -21.1800   20.9660 C   0  0  0  0  0  2  0  0  0  0  0  0
  -30.7360  -18.9960   22.1690 C   0  0  0  0  0  3  0  0  0  0  0  0
  -30.6370  -19.6810   21.0110 C   0  0  0  0  0  0  0  0  0  0  0  0
  -30.5140  -17.5020   22.2940 C   0  0  0  0  0  2  0  0  0  0  0  0
  -29.8000  -17.5580   19.8710 C   0  0  0  0  0  2  0  0  0  0  0  0
  -30.2570  -19.0190   19.6830 C   0  0  0  0  0  3  0  0  0  0  0  0
  -30.6540  -16.8260   20.9240 C   0  0  0  0  0  3  0  0  0  0  0  0
  -30.8980  -14.4800   20.2260 C   0  0  0  0  0  0  0  0  0  0  0  0
  -30.5170  -12.3890   18.9990 C   0  0  0  0  0  2  0  0  0  0  0  0
  -29.5240  -12.6450   17.8480 C   0  0  0  0  0  2  0  0  0  0  0  0
  -28.0720  -12.4930   18.3410 C   0  0  0  0  0  2  0  0  0  0  0  0
  -27.7940  -13.3050   19.6360 C   0  0  0  0  0  3  0  0  0  0  0  0
  -28.8900  -13.0340   20.6940 C   0  0  0  0  0  2  0  0  0  0  0  0
  -30.2010  -13.3260   20.0860 N   0  0  0  0  0  0  0  0  0  0  0  0
  -31.9440  -14.7230   19.6170 O   0  0  0  0  0  0  0  0  0  0  0  0
  -30.3010  -15.4130   20.9730 N   0  0  0  0  0  0  0  0  0  0  0  0
  -29.4570  -15.1480   21.4590 H   0  0  0  0  0  0  0  0  0  0  0  0
  -25.4290  -13.9000   20.4730 C   0  0  0  0  0  0  0  0  0  0  0  0
  -24.3780  -13.1170   20.8660 C   0  0  0  0  0  0  0  0  0  0  0  0
  -24.8310  -11.7670   20.7660 C   0  0  0  0  0  0  0  0  0  0  0  0
  -26.4600  -13.0240   20.1630 N   0  0  0  0  0  0  0  0  0  0  0  0
  -26.1040  -11.7360   20.3950 N   0  0  0  0  0  0  0  0  0  0  0  0
  -24.1110  -10.5000   20.9460 C   0  0  0  0  0  0  0  0  0  0  0  0
  -24.5230   -9.5460   21.9020 C   0  0  0  0  0  3  0  0  0  0  0  0
  -23.8050   -8.3420   22.0680 C   0  0  0  0  0  3  0  0  0  0  0  0
  -22.6600   -8.0840   21.2780 C   0  0  0  0  0  0  0  0  0  0  0  0
  -22.2680   -9.0260   20.3120 C   0  0  0  0  0  3  0  0  0  0  0  0
  -22.9870  -10.2220   20.1440 C   0  0  0  0  0  3  0  0  0  0  0  0
  -21.9150   -6.9320   21.3520 O   0  0  0  0  0  0  0  0  0  0  0  0
  -21.7480   -6.2600   22.5360 C   0  0  0  0  0  0  0  0  0  0  0  0
  -21.1550   -6.8680   23.6640 C   0  0  0  0  0  3  0  0  0  0  0  0
  -20.9390   -6.1170   24.8360 C   0  0  0  0  0  3  0  0  0  0  0  0
  -21.3060   -4.7590   24.8820 C   0  0  0  0  0  0  0  0  0  0  0  0
  -21.8930   -4.1510   23.7590 C   0  0  0  0  0  3  0  0  0  0  0  0
  -22.1110   -4.8990   22.5890 C   0  0  0  0  0  0  0  0  0  0  0  0
  -22.6570   -4.3010   21.5030 F   0  0  0  0  0  0  0  0  0  0  0  0
  -21.0910   -4.0360   26.0070 F   0  0  0  0  0  0  0  0  0  0  0  0
  -22.9960  -13.5870   21.2200 C   0  0  0  0  0  0  0  0  0  0  0  0
  -22.3060  -12.8600   22.0930 N   0  0  0  0  0  0  0  0  0  0  0  0
  -22.5380  -14.6340   20.7620 O   0  0  0  0  0  0  0  0  0  0  0  0
  -22.6880  -12.0150   22.4900 H   0  0  0  0  0  0  0  0  0  0  0  0
  -21.3780  -13.1540   22.3680 H   0  0  0  0  0  0  0  0  0  0  0  0
  -25.5920  -15.2750   20.3350 N   0  0  0  0  0  0  0  0  0  0  0  0
  -24.8350  -15.9280   20.4970 H   0  0  0  0  0  0  0  0  0  0  0  0
  -26.4300  -15.7190   19.9830 H   0  0  0  0  0  0  0  0  0  0  0  0
  -31.3660  -19.1420   18.7180 N   0  0  0  0  0  4  0  0  0  0  0  0
  -32.1950  -18.6830   19.0480 H   0  0  0  0  0  0  0  0  0  0  0  0
  -31.5810  -20.1120   18.5700 H   0  0  0  0  0  0  0  0  0  0  0  0
  -31.1090  -18.7560   17.8260 H   0  0  0  0  0  0  0  0  0  0  0  0
  -28.4500  -25.3060   21.9170 C   0  0  0  0  0  2  0  0  0  0  0  0
  -29.1670  -26.4880   21.2350 C   0  0  0  0  0  2  0  0  0  0  0  0
  -28.5360  -26.8820   20.0280 O   0  0  0  0  0  0  0  0  0  0  0  0
  -24.6240  -31.8930   23.2400 C   0  0  0  0  0  0  0  0  0  0  0  0
  -27.3580  -27.5650   20.1340 C   0  0  0  0  0  0  0  0  0  0  0  0
  -23.4470  -30.4910   21.5700 C   0  0  0  0  0  3  0  0  0  0  0  0
  -24.9340  -28.9870   20.1480 C   0  0  0  0  0  0  0  0  0  0  0  0
  -25.9620  -30.8940   21.3980 C   0  0  0  0  0  2  0  0  0  0  0  0
  -26.0700  -29.5290   20.7630 C   0  0  0  0  0  0  0  0  0  0  0  0
  -27.2860  -28.8180   20.7700 C   0  0  0  0  0  3  0  0  0  0  0  0
  -26.2170  -27.0310   19.5010 C   0  0  0  0  0  3  0  0  0  0  0  0
  -24.9960  -27.7300   19.5220 C   0  0  0  0  0  3  0  0  0  0  0  0
  -23.6790  -29.8270   20.1850 C   0  0  0  0  0  2  0  0  0  0  0  0
  -24.6940  -31.1050   22.1290 N   0  0  0  0  0  0  0  0  0  0  0  0
  -23.5370  -32.1470   23.7730 O   0  0  0  0  0  0  0  0  0  0  0  0
  -22.8060  -29.4510   22.5140 C   0  0  0  0  0  0  0  0  0  0  0  0
  -21.4830  -29.2640   22.3850 N   0  0  0  0  0  0  0  0  0  0  0  0
  -23.4940  -28.8160   23.3180 O   0  0  0  0  0  0  0  0  0  0  0  0
  -20.9880  -29.8330   21.7110 H   0  0  0  0  0  0  0  0  0  0  0  0
  -18.1080  -28.0860   22.8950 C   0  0  0  0  0  0  0  0  0  0  0  0
  -20.6700  -28.3130   23.1420 C   0  0  0  0  0  3  0  0  0  0  0  0
  -20.7530  -26.8970   22.5260 C   0  0  0  0  0  2  0  0  0  0  0  0
  -19.6360  -26.6120   21.5180 C   0  0  0  0  0  2  0  0  0  0  0  0
  -18.2640  -26.7520   22.1840 C   0  0  0  0  0  2  0  0  0  0  0  0
  -19.2390  -28.8260   23.3310 C   0  0  0  0  0  0  0  0  0  0  0  0
  -19.0400  -30.0770   23.9540 C   0  0  0  0  0  3  0  0  0  0  0  0
  -17.7420  -30.5860   24.1490 C   0  0  0  0  0  3  0  0  0  0  0  0
  -16.6260  -29.8430   23.7290 C   0  0  0  0  0  3  0  0  0  0  0  0
  -16.8100  -28.5950   23.1070 C   0  0  0  0  0  3  0  0  0  0  0  0
  -25.9000  -32.5310   23.8730 C   0  0  0  0  0  3  0  0  0  0  0  0
  -25.5800  -33.9270   24.2000 N   0  0  0  0  0  0  0  0  0  0  0  0
  -25.9150  -34.9800   23.4430 C   0  0  0  0  0  0  0  0  0  0  0  0
  -26.5990  -34.8810   22.4190 O   0  0  0  0  0  0  0  0  0  0  0  0
  -24.9830  -34.0800   25.0000 H   0  0  0  0  0  0  0  0  0  0  0  0
  -24.1860  -36.7610   23.0490 C   0  0  0  0  0  1  0  0  0  0  0  0
  -25.4090  -36.3660   23.8900 C   0  0  0  0  0  3  0  0  0  0  0  0
  -27.5180  -37.2620   24.7750 C   0  0  0  0  0  1  0  0  0  0  0  0
  -26.4400  -37.4240   23.8020 N   0  0  0  0  0  0  0  0  0  0  0  0
  -26.0270  -38.3430   23.9380 H   0  0  0  0  0  0  0  0  0  0  0  0
  -26.4140  -31.7590   25.1490 C   0  0  1  0  0  0  0  0  0  0  0  0
  -25.3130  -31.4980   26.2030 C   0  0  0  0  0  1  0  0  0  0  0  0
  -27.0210  -30.3940   24.7510 C   0  0  0  0  0  1  0  0  0  0  0  0
  -27.5450  -32.5630   25.8310 C   0  0  0  0  0  1  0  0  0  0  0  0
  2  5  1  0
  3  1  1  0
  4  2  1  0
  4  6  1  0
  5  7  1  0
  5  1  1  0
  6  3  1  0
  6 56  1  0
  7  9  1  0
  8 10  1  0
  9  8  2  0
 11 13  1  0
 12 52  1  0
 12 11  1  0
 12  9  1  0
 13 22  1  0
 13 10  1  0
 14 22  1  0
 15 20  1  0
 16 17  1  0
 16 15  1  0
 18 17  1  0
 18 27  1  0
 18 19  1  0
 20 14  1  0
 20 19  1  0
 21 14  2  0
 22 23  1  0
 24 25  2  0
 25 44  1  0
 26 25  1  0
 26 29  1  0
 27 28  1  0
 27 24  1  0
 28 26  2  0
 29 30  1  0
 30 31  2  0
 32 35  1  0
 32 31  1  0
 33 32  2  0
 34 33  1  0
 34 29  2  0
 35 36  1  0
 36 41  2  0
 36 37  1  0
 37 38  2  0
 38 39  1  0
 39 43  1  0
 40 39  2  0
 41 40  1  0
 42 41  1  0
 44 45  1  0
 45 48  1  0
 45 47  1  0
 46 44  2  0
 49 24  1  0
 49 50  1  0
 51 49  1  0
 52 53  1  0
 54 52  1  0
 55 52  1  0
 57 56  1  0
 58 60  1  0
 58 57  1  0
 59 70  2  0
 60 65  1  0
 61 69  1  0
 61 71  1  0
 62 68  1  0
 62 64  1  0
 63 69  1  0
 64 65  2  0
 64 63  1  0
 66 67  1  0
 66 60  2  0
 67 62  2  0
 68 61  1  0
 69 59  1  0
 71 73  2  0
 72 71  1  0
 74 72  1  0
 75 84  2  0
 75 80  1  0
 76 72  1  0
 76 80  1  0
 77 76  1  0
 78 79  1  0
 78 77  1  0
 79 75  1  0
 80 81  2  0
 81 82  1  0
 83 82  2  0
 84 83  1  0
 85 59  1  0
 85 86  1  0
 85 95  1  0
 86 89  1  0
 87 91  1  0
 87 86  1  0
 88 87  2  0
 91 90  1  0
 93 91  1  0
 93 94  1  0
 93 92  1  0
 95 98  1  1
 95 96  1  0
 97 95  1  0
M  ISO  4  14 100  22 100  57 101  58 101
M  END
>  <TORSDO>  (87) 
F 21

>  <SCORE>  (87) 
-13.742

>  <name>  (87) 
86

>  <ligand_id>  (87) 
86

>  <original_smiles>  (87) 
[H]C1=C(C([H])([H])C2([H])C([H])([H])C([H])([H])C([H])(C([H])([H])C([H])([H])Oc3c([H])c([H])c4c(c3[H])C([H])([H])N(C(=O)C([H])(N([H])C(=O)C([H])(N([H])C([H])([H])[H])C([H])([H])[H])C(C([H])([H])[H])(C([H])([H])[H])C([H])([H])[H])C([H])(C(=O)N([H])C3([H])c5c([H])c([H])c([H])c([H])c5C([H])([H])C([H])([H])C3([H])[H])C4([H])[H])C([H])([H])C2([H])[H])C([H])([N+]([H])([H])[H])C([H])([H])C([H])(N([H])C(=O)N2C([H])([H])C([H])([H])C([H])([H])C([H])(n3nc(-c4c([H])c([H])c(Oc5c([H])c([H])c(F)c([H])c5F)c([H])c4[H])c(C(=O)N([H])[H])c3N([H])[H])C2([H])[H])C1([H])[H]

>  <smiles>  (87) 
[H]C1=C(C([H])([H])C2([H])C([H])([H])C([H])([H])C([H])(C([H])([H])C([H])([H])Oc3c([H])c([H])c4c(c3[H])C([H])([H])N(C(=O)C([H])(N([H])C(=O)C([H])(N([H])C([H])([H])[H])C([H])([H])[H])C(C([H])([H])[H])(C([H])([H])[H])C([H])([H])[H])C([H])(C(=O)N([H])C3([H])c5c([H])c([H])c([H])c([H])c5C([H])([H])C([H])([H])C3([H])[H])C4([H])[H])C([H])([H])C2([H])[H])C([H])([N+]([H])([H])[H])C([H])([H])C([H])(N([H])C(=O)N2C([H])([H])C([H])([H])C([H])([H])C([H])(n3nc(-c4c([H])c([H])c(Oc5c([H])c([H])c(F)c([H])c5F)c([H])c4[H])c(C(=O)N([H])[H])c3N([H])[H])C2([H])[H])C1([H])[H]

$$$$
87:0:0
     RDKit          3D

 97105  0  0  1  0  0  0  0  0999 V2000
  -28.5320  -21.2040   20.8440 C   0  0  0  0  0  2  0  0  0  0  0  0
  -29.0780  -22.3940   20.0380 C   0  0  0  0  0  2  0  0  0  0  0  0
  -30.7030  -21.0390   18.6500 C   0  0  0  0  0  2  0  0  0  0  0  0
  -28.1120  -19.9930   19.9890 C   0  0  0  0  0  2  0  0  0  0  0  0
  -30.5870  -19.6720   19.3580 C   0  0  0  0  0  2  0  0  0  0  0  0
  -30.5520  -22.2320   19.6170 C   0  0  0  0  0  3  0  0  0  0  0  0
  -29.2070  -19.1170   19.4750 N   0  0  1  0  0  4  0  0  0  0  0  0
  -28.9250  -18.9660   18.5160 H   0  0  0  0  0  0  0  0  0  0  0  0
  -31.1090  -23.5380   19.0100 C   0  0  0  0  0  2  0  0  0  0  0  0
  -31.1980  -24.6040   20.0330 N   0  0  0  0  0  4  0  0  0  0  0  0
  -32.0560  -24.5000   20.5520 H   0  0  0  0  0  0  0  0  0  0  0  0
  -30.4380  -24.4560   20.6720 H   0  0  0  0  0  0  0  0  0  0  0  0
  -31.0920  -25.9840   19.5080 C   0  0  0  0  0  2  0  0  0  0  0  0
  -30.7270  -27.0020   20.6060 C   0  0  0  0  0  2  0  0  0  0  0  0
  -29.3380  -26.7760   21.2290 C   0  0  0  0  0  2  0  0  0  0  0  0
  -28.3700  -26.6840   20.1870 O   0  0  0  0  0  0  0  0  0  0  0  0
  -24.5600  -31.9080   23.2350 C   0  0  0  0  0  0  0  0  0  0  0  0
  -27.2350  -27.4600   20.2380 C   0  0  0  0  0  0  0  0  0  0  0  0
  -23.3570  -30.4850   21.6050 C   0  0  0  0  0  3  0  0  0  0  0  0
  -24.8210  -28.9290   20.2100 C   0  0  0  0  0  0  0  0  0  0  0  0
  -25.8780  -30.8550   21.4060 C   0  0  0  0  0  2  0  0  0  0  0  0
  -25.9700  -29.4750   20.7950 C   0  0  0  0  0  0  0  0  0  0  0  0
  -27.1800  -28.7530   20.8050 C   0  0  0  0  0  3  0  0  0  0  0  0
  -26.0720  -26.9250   19.6480 C   0  0  0  0  0  3  0  0  0  0  0  0
  -24.8640  -27.6490   19.6320 C   0  0  0  0  0  3  0  0  0  0  0  0
  -23.5720  -29.7800   20.2370 C   0  0  0  0  0  2  0  0  0  0  0  0
  -24.6160  -31.0970   22.1410 N   0  0  0  0  0  0  0  0  0  0  0  0
  -23.4770  -32.1860   23.7700 O   0  0  0  0  0  0  0  0  0  0  0  0
  -22.7040  -29.4770   22.5760 C   0  0  0  0  0  0  0  0  0  0  0  0
  -21.3790  -29.2970   22.4490 N   0  0  0  0  0  0  0  0  0  0  0  0
  -23.3850  -28.8580   23.3980 O   0  0  0  0  0  0  0  0  0  0  0  0
  -20.8940  -29.8490   21.7550 H   0  0  0  0  0  0  0  0  0  0  0  0
  -17.9970  -28.1330   22.9510 C   0  0  0  0  0  0  0  0  0  0  0  0
  -20.5560  -28.3730   23.2270 C   0  0  0  0  0  3  0  0  0  0  0  0
  -20.6510  -26.9360   22.6620 C   0  0  0  0  0  2  0  0  0  0  0  0
  -19.5480  -26.6130   21.6500 C   0  0  0  0  0  2  0  0  0  0  0  0
  -18.1660  -26.7740   22.2900 C   0  0  0  0  0  2  0  0  0  0  0  0
  -19.1210  -28.8890   23.3760 C   0  0  0  0  0  0  0  0  0  0  0  0
  -18.9110  -30.1610   23.9530 C   0  0  0  0  0  3  0  0  0  0  0  0
  -17.6110  -30.6750   24.1110 C   0  0  0  0  0  3  0  0  0  0  0  0
  -16.5020  -29.9140   23.7030 C   0  0  0  0  0  3  0  0  0  0  0  0
  -16.6950  -28.6460   23.1280 C   0  0  0  0  0  3  0  0  0  0  0  0
  -25.8450  -32.5430   23.8500 C   0  0  0  0  0  3  0  0  0  0  0  0
  -25.5370  -33.9420   24.1750 N   0  0  0  0  0  0  0  0  0  0  0  0
  -25.8780  -34.9900   23.4150 C   0  0  0  0  0  0  0  0  0  0  0  0
  -26.5590  -34.8830   22.3900 O   0  0  0  0  0  0  0  0  0  0  0  0
  -24.9390  -34.0990   24.9730 H   0  0  0  0  0  0  0  0  0  0  0  0
  -24.1620  -36.7850   23.0280 C   0  0  0  0  0  1  0  0  0  0  0  0
  -25.3870  -36.3800   23.8630 C   0  0  0  0  0  3  0  0  0  0  0  0
  -27.5100  -37.2560   24.7290 C   0  0  0  0  0  1  0  0  0  0  0  0
  -26.4250  -37.4310   23.7670 N   0  0  0  0  0  0  0  0  0  0  0  0
  -26.0180  -38.3520   23.9120 H   0  0  0  0  0  0  0  0  0  0  0  0
  -26.3690  -31.7750   25.1240 C   0  0  1  0  0  0  0  0  0  0  0  0
  -25.2820  -31.5360   26.1980 C   0  0  0  0  0  1  0  0  0  0  0  0
  -26.9560  -30.4000   24.7270 C   0  0  0  0  0  1  0  0  0  0  0  0
  -27.5210  -32.5730   25.7800 C   0  0  0  0  0  1  0  0  0  0  0  0
  -29.1870  -17.7320   20.0280 C   0  0  0  0  0  2  0  0  0  0  0  0
  -29.7450  -17.5900   21.4710 C   0  0  0  0  0  2  0  0  0  0  0  0
  -30.8310  -16.5030   21.6070 C   0  0  0  0  0  2  0  0  0  0  0  0
  -30.8040  -14.3390   20.3470 C   0  0  0  0  0  0  0  0  0  0  0  0
  -30.3730  -12.2830   19.0560 C   0  0  0  0  0  2  0  0  0  0  0  0
  -29.4040  -12.5680   17.8920 C   0  0  0  0  0  2  0  0  0  0  0  0
  -27.9380  -12.4640   18.3570 C   0  0  0  0  0  2  0  0  0  0  0  0
  -27.6660  -13.2600   19.6610 C   0  0  0  0  0  3  0  0  0  0  0  0
  -28.7370  -12.9470   20.7290 C   0  0  0  0  0  2  0  0  0  0  0  0
  -30.0650  -13.2200   20.1460 N   0  0  0  0  0  0  0  0  0  0  0  0
  -31.8350  -14.5990   19.7180 O   0  0  0  0  0  0  0  0  0  0  0  0
  -30.3100  -15.1790   21.2620 N   0  0  0  0  0  0  0  0  0  0  0  0
  -29.4720  -14.8700   21.7320 H   0  0  0  0  0  0  0  0  0  0  0  0
  -25.2840  -13.9070   20.3950 C   0  0  0  0  0  0  0  0  0  0  0  0
  -24.2140  -13.1530   20.7910 C   0  0  0  0  0  0  0  0  0  0  0  0
  -24.6550  -11.7930   20.7610 C   0  0  0  0  0  0  0  0  0  0  0  0
  -26.3160  -13.0100   20.1600 N   0  0  0  0  0  0  0  0  0  0  0  0
  -25.9390  -11.7340   20.4300 N   0  0  0  0  0  0  0  0  0  0  0  0
  -23.9150  -10.5430   20.9700 C   0  0  0  0  0  0  0  0  0  0  0  0
  -24.3520   -9.5720   21.8990 C   0  0  0  0  0  3  0  0  0  0  0  0
  -23.6140   -8.3830   22.0890 C   0  0  0  0  0  3  0  0  0  0  0  0
  -22.4220   -8.1590   21.3590 C   0  0  0  0  0  0  0  0  0  0  0  0
  -22.0060   -9.1190   20.4190 C   0  0  0  0  0  3  0  0  0  0  0  0
  -22.7450  -10.2980   20.2220 C   0  0  0  0  0  3  0  0  0  0  0  0
  -21.6530   -7.0250   21.4650 O   0  0  0  0  0  0  0  0  0  0  0  0
  -21.6160   -6.2880   22.6210 C   0  0  0  0  0  0  0  0  0  0  0  0
  -21.2340   -6.8550   23.8570 C   0  0  0  0  0  3  0  0  0  0  0  0
  -21.1420   -6.0430   25.0050 C   0  0  0  0  0  3  0  0  0  0  0  0
  -21.4220   -4.6660   24.9190 C   0  0  0  0  0  0  0  0  0  0  0  0
  -21.7950   -4.0990   23.6880 C   0  0  0  0  0  3  0  0  0  0  0  0
  -21.8880   -4.9070   22.5420 C   0  0  0  0  0  0  0  0  0  0  0  0
  -22.2260   -4.3500   21.3540 F   0  0  0  0  0  0  0  0  0  0  0  0
  -21.3260   -3.8860   26.0220 F   0  0  0  0  0  0  0  0  0  0  0  0
  -22.8300  -13.6490   21.0900 C   0  0  0  0  0  0  0  0  0  0  0  0
  -22.1130  -12.9660   21.9750 N   0  0  0  0  0  0  0  0  0  0  0  0
  -22.3940  -14.6790   20.5730 O   0  0  0  0  0  0  0  0  0  0  0  0
  -22.4760  -12.1330   22.4150 H   0  0  0  0  0  0  0  0  0  0  0  0
  -21.1860  -13.2830   22.2170 H   0  0  0  0  0  0  0  0  0  0  0  0
  -25.4620  -15.2720   20.1930 N   0  0  0  0  0  0  0  0  0  0  0  0
  -24.6970  -15.9320   20.2710 H   0  0  0  0  0  0  0  0  0  0  0  0
  -26.2890  -15.6710   19.7690 H   0  0  0  0  0  0  0  0  0  0  0  0
  2  1  1  0
  3  5  1  0
  3  6  1  0
  4  1  1  0
  5  7  1  0
  6  9  1  0
  6  2  1  0
  7  4  1  0
  7 57  1  0
  7  8  1  6
  9 10  1  0
 10 11  1  0
 10 12  1  0
 13 10  1  0
 13 14  1  0
 14 15  1  0
 16 18  1  0
 16 15  1  0
 17 28  2  0
 18 23  1  0
 19 27  1  0
 19 29  1  0
 20 26  1  0
 20 22  1  0
 21 27  1  0
 22 23  2  0
 22 21  1  0
 24 18  2  0
 25 24  1  0
 25 20  2  0
 26 19  1  0
 27 17  1  0
 29 31  2  0
 30 29  1  0
 32 30  1  0
 33 42  2  0
 33 38  1  0
 34 30  1  0
 34 38  1  0
 35 34  1  0
 36 37  1  0
 36 35  1  0
 37 33  1  0
 38 39  2  0
 39 40  1  0
 41 40  2  0
 42 41  1  0
 43 17  1  0
 43 44  1  0
 43 53  1  0
 44 47  1  0
 45 49  1  0
 45 44  1  0
 46 45  2  0
 49 48  1  0
 51 49  1  0
 51 52  1  0
 51 50  1  0
 53 56  1  1
 53 54  1  0
 55 53  1  0
 57 58  1  0
 58 59  1  0
 60 68  1  0
 61 66  1  0
 62 63  1  0
 62 61  1  0
 64 63  1  0
 64 73  1  0
 64 65  1  0
 66 60  1  0
 66 65  1  0
 67 60  2  0
 68 59  1  0
 68 69  1  0
 70 71  2  0
 71 90  1  0
 72 71  1  0
 72 75  1  0
 73 70  1  0
 73 74  1  0
 74 72  2  0
 75 76  1  0
 76 77  2  0
 78 81  1  0
 78 77  1  0
 79 78  2  0
 80 79  1  0
 80 75  2  0
 81 82  1  0
 82 83  1  0
 83 84  2  0
 85 84  1  0
 85 89  1  0
 86 85  2  0
 87 82  2  0
 87 86  1  0
 88 87  1  0
 90 91  1  0
 91 94  1  0
 91 93  1  0
 92 90  2  0
 95 96  1  0
 95 70  1  0
 97 95  1  0
M  ISO  4  15 101  16 101  60 100  68 100
M  END
>  <TORSDO>  (88) 
F 24

>  <SCORE>  (88) 
-12.709

>  <name>  (88) 
87

>  <ligand_id>  (88) 
87

>  <original_smiles>  (88) 
[H]c1c([H])c([H])c2c(c1[H])C([H])([H])C([H])([H])C([H])([H])C2([H])N([H])C(=O)C1([H])N(C(=O)C([H])(N([H])C(=O)C([H])(N([H])C([H])([H])[H])C([H])([H])[H])C(C([H])([H])[H])(C([H])([H])[H])C([H])([H])[H])C([H])([H])c2c([H])c(OC([H])([H])C([H])([H])C([H])([H])[N+]([H])([H])C([H])([H])C3([H])C([H])([H])C([H])([H])C([H])([H])[N+]([H])(C([H])([H])C([H])([H])C([H])([H])N([H])C(=O)N4C([H])([H])C([H])([H])C([H])([H])C([H])(n5nc(-c6c([H])c([H])c(Oc7c([H])c([H])c(F)c([H])c7F)c([H])c6[H])c(C(=O)N([H])[H])c5N([H])[H])C4([H])[H])C([H])([H])C3([H])[H])c([H])c([H])c2C1([H])[H]

>  <smiles>  (88) 
[H]c1c([H])c([H])c2c(c1[H])C([H])([H])C([H])([H])C([H])([H])C2([H])N([H])C(=O)C1([H])N(C(=O)C([H])(N([H])C(=O)C([H])(N([H])C([H])([H])[H])C([H])([H])[H])C(C([H])([H])[H])(C([H])([H])[H])C([H])([H])[H])C([H])([H])c2c([H])c(OC([H])([H])C([H])([H])C([H])([H])[N+]([H])([H])C([H])([H])C3([H])C([H])([H])C([H])([H])C([H])([H])[N+]([H])(C([H])([H])C([H])([H])C([H])([H])N([H])C(=O)N4C([H])([H])C([H])([H])C([H])([H])C([H])(n5nc(-c6c([H])c([H])c(Oc7c([H])c([H])c(F)c([H])c7F)c([H])c6[H])c(C(=O)N([H])[H])c5N([H])[H])C4([H])[H])C([H])([H])C3([H])[H])c([H])c([H])c2C1([H])[H]

$$$$
88:0:0
     RDKit          3D

 95 96  0  0  1  0  0  0  0  0999 V2000
  -24.6360  -25.4750   19.3040 C   0  0  0  0  0  0  0  0  0  0  0  0
  -23.5150  -25.7120   18.2350 N   0  0  0  0  0  1  0  0  0  0  0  0
  -24.3070  -26.7770   23.2680 C   0  0  0  0  0  3  0  0  0  0  0  0
  -24.2160  -26.2050   21.9560 C   0  0  0  0  0  3  0  0  0  0  0  0
  -25.3560  -27.5920   23.8060 C   0  0  0  0  0  3  0  0  0  0  0  0
  -26.3170  -27.2910   21.6320 C   0  0  0  0  0  3  0  0  0  0  0  0
  -25.1690  -26.3490   20.9150 C   0  0  0  0  0  0  0  0  0  0  0  0
  -26.5270  -27.9890   23.1100 C   0  0  0  0  0  0  0  0  0  0  0  0
  -27.7360  -29.1080   24.1240 C   0  0  0  0  0  2  0  0  0  0  0  0
  -28.9120  -31.2870   26.3690 C   0  0  0  0  0  0  0  0  0  0  0  0
  -29.7530  -32.2140   28.7870 C   0  0  0  0  0  2  0  0  0  0  0  0
  -30.1540  -31.0920   29.7990 C   0  0  0  0  0  2  0  0  0  0  0  0
  -28.9090  -30.3880   30.3730 C   0  0  0  0  0  2  0  0  0  0  0  0
  -27.8530  -30.1970   29.2620 C   0  0  0  0  0  3  0  0  0  0  0  0
  -27.5370  -31.4850   28.5100 C   0  0  0  0  0  2  0  0  0  0  0  0
  -28.7380  -31.6930   27.7490 N   0  0  0  0  0  0  0  0  0  0  0  0
  -29.9270  -31.9340   25.9810 O   0  0  0  0  0  0  0  0  0  0  0  0
  -28.0630  -30.1740   25.5900 N   0  0  0  0  0  0  0  0  0  0  0  0
  -27.3430  -29.9210   26.2550 H   0  0  0  0  0  0  0  0  0  0  0  0
  -25.4980  -29.3980   28.9250 C   0  0  0  0  0  0  0  0  0  0  0  0
  -24.6120  -28.7930   29.7620 C   0  0  0  0  0  0  0  0  0  0  0  0
  -25.2650  -28.6980   31.0310 C   0  0  0  0  0  0  0  0  0  0  0  0
  -26.6250  -29.6050   29.6900 N   0  0  0  0  0  0  0  0  0  0  0  0
  -26.4610  -29.2610   30.9850 N   0  0  0  0  0  0  0  0  0  0  0  0
  -24.8550  -28.0340   32.2660 C   0  0  0  0  0  0  0  0  0  0  0  0
  -24.1960  -28.7350   33.2990 C   0  0  0  0  0  3  0  0  0  0  0  0
  -23.7970  -28.0610   34.4730 C   0  0  0  0  0  3  0  0  0  0  0  0
  -24.0550  -26.6770   34.6160 C   0  0  0  0  0  0  0  0  0  0  0  0
  -24.7360  -25.9930   33.5940 C   0  0  0  0  0  3  0  0  0  0  0  0
  -25.1360  -26.6650   32.4290 C   0  0  0  0  0  3  0  0  0  0  0  0
  -23.7230  -25.9430   35.7280 O   0  0  0  0  0  0  0  0  0  0  0  0
  -22.4170  -25.6930   36.0580 C   0  0  0  0  0  0  0  0  0  0  0  0
  -21.6180  -24.7950   35.3190 C   0  0  0  0  0  3  0  0  0  0  0  0
  -20.3010  -24.5150   35.7360 C   0  0  0  0  0  3  0  0  0  0  0  0
  -19.7860  -25.1240   36.8960 C   0  0  0  0  0  0  0  0  0  0  0  0
  -20.5830  -26.0150   37.6370 C   0  0  0  0  0  3  0  0  0  0  0  0
  -21.8960  -26.2960   37.2200 C   0  0  0  0  0  0  0  0  0  0  0  0
  -22.6660  -27.1400   37.9490 F   0  0  0  0  0  0  0  0  0  0  0  0
  -18.5260  -24.8500   37.3030 F   0  0  0  0  0  0  0  0  0  0  0  0
  -23.2810  -28.2290   29.3710 C   0  0  0  0  0  0  0  0  0  0  0  0
  -22.3440  -28.1700   30.3080 N   0  0  0  0  0  0  0  0  0  0  0  0
  -23.0570  -27.8800   28.2130 O   0  0  0  0  0  0  0  0  0  0  0  0
  -22.5280  -28.4750   31.2520 H   0  0  0  0  0  0  0  0  0  0  0  0
  -21.4270  -27.8150   30.0760 H   0  0  0  0  0  0  0  0  0  0  0  0
  -25.4620  -29.7590   27.5780 N   0  0  0  0  0  0  0  0  0  0  0  0
  -24.6880  -29.3880   27.0370 H   0  0  0  0  0  0  0  0  0  0  0  0
  -26.3250  -29.7480   27.0500 H   0  0  0  0  0  0  0  0  0  0  0  0
  -22.0580  -25.7720   15.6200 C   0  0  0  0  0  3  0  0  0  0  0  0
  -20.3450  -24.0390   15.4820 C   0  0  0  0  0  3  0  0  0  0  0  0
  -20.7630  -23.4960   16.0020 C   0  0  0  0  0  3  0  0  0  0  0  0
  -22.7550  -25.2160   16.5270 C   0  0  0  0  0  1  0  0  0  0  0  0
  -22.3200  -26.8570   15.0730 O   0  0  0  0  0  0  0  0  0  0  0  0
  -25.8110  -24.2970   19.0090 C   0  0  0  0  0  3  0  0  0  0  0  0
  -27.2960  -24.0760   19.7690 C   0  0  0  0  0  2  0  0  0  0  0  0
  -28.5210  -23.1710   19.3630 O   0  0  0  0  0  0  0  0  0  0  0  0
  -34.4820  -19.7180   20.2800 C   0  0  0  0  0  0  0  0  0  0  0  0
  -29.2900  -22.6950   20.4060 C   0  0  0  0  0  0  0  0  0  0  0  0
  -32.4510  -18.9770   21.3880 C   0  0  0  0  0  3  0  0  0  0  0  0
  -30.6020  -20.6730   21.7890 C   0  0  0  0  0  0  0  0  0  0  0  0
  -32.8900  -21.4600   21.1650 C   0  0  0  0  0  2  0  0  0  0  0  0
  -31.3740  -21.6480   21.1420 C   0  0  0  0  0  0  0  0  0  0  0  0
  -30.7170  -22.6940   20.4380 C   0  0  0  0  0  3  0  0  0  0  0  0
  -28.5820  -21.8970   21.3030 C   0  0  0  0  0  3  0  0  0  0  0  0
  -29.2190  -20.8340   21.9310 C   0  0  0  0  0  3  0  0  0  0  0  0
  -31.3150  -19.4570   22.3250 C   0  0  0  0  0  2  0  0  0  0  0  0
  -33.3370  -20.0650   20.9330 N   0  0  0  0  0  0  0  0  0  0  0  0
  -34.8040  -18.5300   20.1080 O   0  0  0  0  0  0  0  0  0  0  0  0
  -31.8760  -18.3340   20.1430 C   0  0  0  0  0  0  0  0  0  0  0  0
  -31.9560  -17.0370   20.1010 N   0  0  0  0  0  0  0  0  0  0  0  0
  -31.3840  -18.9960   19.2210 O   0  0  0  0  0  0  0  0  0  0  0  0
  -32.3870  -16.4980   20.8370 H   0  0  0  0  0  0  0  0  0  0  0  0
  -30.9740  -13.2140   18.3940 C   0  0  0  0  0  3  0  0  0  0  0  0
  -30.9130  -16.5050   19.3370 C   0  0  0  0  0  1  0  0  0  0  0  0
  -28.9630  -16.7400   20.8220 C   0  0  0  0  0 15  0  0  0  0  0  0
  -27.9200  -14.3830   20.4480 C   0  0  0  0  0 15  0  0  0  0  0  0
  -29.0590  -12.7330   19.1820 C   0  0  0  0  0 15  0  0  0  0  0  0
  -31.6870  -14.8050   18.5020 C   0  0  0  0  0  3  0  0  0  0  0  0
  -33.1220  -14.8120   18.4510 C   0  0  0  0  0  3  0  0  0  0  0  0
  -33.9320  -13.6560   18.3740 C   0  0  0  0  0  3  0  0  0  0  0  0
  -33.3630  -12.3710   18.3660 C   0  0  0  0  0  3  0  0  0  0  0  0
  -31.9570  -12.1700   18.3940 C   0  0  0  0  0  3  0  0  0  0  0  0
  -35.4430  -20.8020   19.7380 C   0  0  0  0  0  3  0  0  0  0  0  0
  -36.7480  -20.5310   20.3440 N   0  0  0  0  0  0  0  0  0  0  0  0
  -37.1120  -20.9530   21.5600 C   0  0  0  0  0  0  0  0  0  0  0  0
  -36.4010  -21.6900   22.2510 O   0  0  0  0  0  0  0  0  0  0  0  0
  -37.3550  -19.8890   19.8560 H   0  0  0  0  0  0  0  0  0  0  0  0
  -38.2870  -19.3770   23.1290 C   0  0  0  0  0  1  0  0  0  0  0  0
  -38.4810  -20.4920   22.0890 C   0  0  0  0  0  3  0  0  0  0  0  0
  -39.8180  -22.5070   21.6700 C   0  0  0  0  0  1  0  0  0  0  0  0
  -39.2810  -21.5890   22.6720 N   0  0  0  0  0  0  0  0  0  0  0  0
  -40.0590  -21.2190   23.2130 H   0  0  0  0  0  0  0  0  0  0  0  0
  -35.5430  -20.8180   18.1660 C   0  0  1  0  0  0  0  0  0  0  0  0
  -36.2450  -19.5760   17.5670 C   0  0  0  0  0  1  0  0  0  0  0  0
  -34.1400  -20.9190   17.5250 C   0  0  0  0  0  1  0  0  0  0  0  0
  -36.3260  -22.0750   17.7250 C   0  0  0  0  0  1  0  0  0  0  0  0
  1  7  1  0
  2  1  1  0
  3  5  1  0
  4  3  2  0
  6  8  1  0
  7  6  2  0
  7  4  1  0
  8  5  2  0
  8  9  1  0
  9 18  1  0
 10 16  1  0
 11 12  1  0
 12 13  1  0
 14 15  1  0
 14 23  1  0
 14 13  1  0
 16 15  1  0
 16 11  1  0
 17 10  2  0
 18 19  1  0
 18 10  1  0
 20 23  1  0
 20 21  2  0
 21 22  1  0
 22 25  1  0
 23 24  1  0
 24 22  2  0
 25 30  2  0
 25 26  1  0
 26 27  2  0
 27 28  1  0
 28 31  1  0
 29 28  2  0
 30 29  1  0
 31 32  1  0
 32 37  1  0
 33 34  1  0
 33 32  2  0
 34 35  2  0
 35 39  1  0
 35 36  1  0
 37 36  2  0
 37 38  1  0
 40 21  1  0
 40 41  1  0
 41 43  1  0
 42 40  2  0
 44 41  1  0
 45 20  1  0
 46 45  1  0
 47 45  1  0
 48 51  1  0
 49 50  3  0
 52 48  2  0
 53  1  2  0
 53 54  1  0
 55 54  1  0
 55 57  1  0
 56 66  1  0
 57 62  2  0
 57 63  1  0
 58 68  1  0
 58 65  1  0
 59 64  1  0
 59 65  1  0
 61 60  1  0
 61 59  2  0
 62 61  1  0
 63 64  2  0
 66 60  1  0
 66 58  1  0
 67 56  2  0
 69 68  1  0
 69 71  1  0
 70 68  2  0
 72 81  2  0
 72 77  1  0
 73 69  1  0
 78 77  2  0
 79 78  1  0
 80 79  2  0
 80 81  1  0
 82 56  1  0
 82 83  1  0
 83 84  1  0
 84 88  1  0
 84 85  2  0
 86 83  1  0
 88 90  1  0
 88 87  1  0
 89 90  1  0
 90 91  1  0
 92 82  1  0
 92 93  1  6
 94 92  1  0
 95 92  1  0
M  ISO  4  10 100  18 100  54 101  55 101
M  END
>  <TORSDO>  (89) 
F 21

>  <SCORE>  (89) 
-7.253

>  <name>  (89) 
88

>  <ligand_id>  (89) 
88

>  <original_smiles>  (89) 
[H]c1c([H])c(C(=NC2([H])C(=O)C([H])([H])C2([H])[H])C([H])([H])C([H])([H])Oc2c([H])c([H])c3c(c2[H])C([H])([H])N(C(=O)C([H])(N([H])C(=O)C([H])(N([H])C([H])([H])[H])C([H])([H])[H])C(C([H])([H])[H])(C([H])([H])[H])C([H])([H])[H])C([H])(C(=O)N([H])C2([H])c4c([H])c([H])c([H])c([H])c4C([H])([H])C([H])([H])C2([H])[H])C3([H])[H])c([H])c(C([H])([H])N([H])C(=O)N2C([H])([H])C([H])([H])C([H])([H])C([H])(n3nc(-c4c([H])c([H])c(Oc5c([H])c([H])c(F)c([H])c5F)c([H])c4[H])c(C(=O)N([H])[H])c3N([H])[H])C2([H])[H])c1[H]

>  <smiles>  (89) 
[H]c1c([H])c(C(=NC2([H])C(=O)C([H])([H])C2([H])[H])C([H])([H])C([H])([H])Oc2c([H])c([H])c3c(c2[H])C([H])([H])N(C(=O)C([H])(N([H])C(=O)C([H])(N([H])C([H])([H])[H])C([H])([H])[H])C(C([H])([H])[H])(C([H])([H])[H])C([H])([H])[H])C([H])(C(=O)N([H])C2([H])c4c([H])c([H])c([H])c([H])c4C([H])([H])C([H])([H])C2([H])[H])C3([H])[H])c([H])c(C([H])([H])N([H])C(=O)N2C([H])([H])C([H])([H])C([H])([H])C([H])(n3nc(-c4c([H])c([H])c(Oc5c([H])c([H])c(F)c([H])c5F)c([H])c4[H])c(C(=O)N([H])[H])c3N([H])[H])C2([H])[H])c1[H]

$$$$
89:0:0
     RDKit          3D

 93103  0  0  1  0  0  0  0  0999 V2000
  -28.3650  -22.0350   19.8700 N   0  0  2  0  0  4  0  0  0  0  0  0
  -27.7300  -21.8580   20.6350 H   0  0  0  0  0  0  0  0  0  0  0  0
  -28.0590  -18.6760   20.2790 C   0  0  0  0  0  2  0  0  0  0  0  0
  -29.9000  -18.2970   18.8850 C   0  0  0  0  0  2  0  0  0  0  0  0
  -29.7090  -20.0590   21.1990 C   0  0  0  0  0  2  0  0  0  0  0  0
  -28.8000  -19.4110   19.1600 C   0  0  0  0  0  3  0  0  0  0  0  0
  -29.3040  -18.5070   21.1280 C   0  0  0  0  0  3  0  0  0  0  0  0
  -30.2140  -17.5580   20.2360 C   0  0  0  0  0  3  0  0  0  0  0  0
  -29.3200  -20.7680   19.8360 C   0  0  0  0  0  3  0  0  0  0  0  0
  -30.6910  -14.9030   20.0050 C   0  0  0  0  0  0  0  0  0  0  0  0
  -30.4830  -12.6150   18.9890 C   0  0  0  0  0  2  0  0  0  0  0  0
  -29.4720  -12.6500   17.8200 C   0  0  0  0  0  2  0  0  0  0  0  0
  -28.0360  -12.4380   18.3360 C   0  0  0  0  0  2  0  0  0  0  0  0
  -27.7120  -13.3170   19.5720 C   0  0  0  0  0  3  0  0  0  0  0  0
  -28.8360  -13.2610   20.6300 C   0  0  0  0  0  2  0  0  0  0  0  0
  -30.0830  -13.6600   19.9630 N   0  0  0  0  0  0  0  0  0  0  0  0
  -31.8550  -15.0140   19.6120 O   0  0  0  0  0  0  0  0  0  0  0  0
  -29.9200  -16.0330   20.2930 N   0  0  0  0  0  0  0  0  0  0  0  0
  -28.9810  -15.8040   20.5830 H   0  0  0  0  0  0  0  0  0  0  0  0
  -25.3740  -13.8620   20.4710 C   0  0  0  0  0  0  0  0  0  0  0  0
  -24.3380  -13.0680   20.8800 C   0  0  0  0  0  0  0  0  0  0  0  0
  -24.8040  -11.7220   20.7710 C   0  0  0  0  0  0  0  0  0  0  0  0
  -26.4040  -12.9980   20.1380 N   0  0  0  0  0  0  0  0  0  0  0  0
  -26.0730  -11.7040   20.3830 N   0  0  0  0  0  0  0  0  0  0  0  0
  -24.0950  -10.4490   20.9610 C   0  0  0  0  0  0  0  0  0  0  0  0
  -24.5420   -9.4850   21.8910 C   0  0  0  0  0  3  0  0  0  0  0  0
  -23.8310   -8.2780   22.0690 C   0  0  0  0  0  3  0  0  0  0  0  0
  -22.6590   -8.0270   21.3150 C   0  0  0  0  0  0  0  0  0  0  0  0
  -22.2330   -8.9800   20.3740 C   0  0  0  0  0  3  0  0  0  0  0  0
  -22.9440  -10.1780   20.1950 C   0  0  0  0  0  3  0  0  0  0  0  0
  -21.9190   -6.8730   21.4020 O   0  0  0  0  0  0  0  0  0  0  0  0
  -21.8160   -6.1700   22.5770 C   0  0  0  0  0  0  0  0  0  0  0  0
  -21.2960   -6.7560   23.7510 C   0  0  0  0  0  3  0  0  0  0  0  0
  -21.1430   -5.9790   24.9160 C   0  0  0  0  0  3  0  0  0  0  0  0
  -21.4980   -4.6180   24.9080 C   0  0  0  0  0  0  0  0  0  0  0  0
  -22.0120   -4.0310   23.7370 C   0  0  0  0  0  3  0  0  0  0  0  0
  -22.1670   -4.8060   22.5740 C   0  0  0  0  0  0  0  0  0  0  0  0
  -22.6410   -4.2310   21.4430 F   0  0  0  0  0  0  0  0  0  0  0  0
  -21.3440   -3.8690   26.0260 F   0  0  0  0  0  0  0  0  0  0  0  0
  -22.9580  -13.5270   21.2530 C   0  0  0  0  0  0  0  0  0  0  0  0
  -22.2900  -12.8010   22.1420 N   0  0  0  0  0  0  0  0  0  0  0  0
  -22.4820  -14.5640   20.7910 O   0  0  0  0  0  0  0  0  0  0  0  0
  -22.6890  -11.9630   22.5370 H   0  0  0  0  0  0  0  0  0  0  0  0
  -21.3670  -13.0890   22.4350 H   0  0  0  0  0  0  0  0  0  0  0  0
  -25.5190  -15.2380   20.3280 N   0  0  0  0  0  0  0  0  0  0  0  0
  -24.7490  -15.8780   20.4960 H   0  0  0  0  0  0  0  0  0  0  0  0
  -26.3240  -15.6880   19.9140 H   0  0  0  0  0  0  0  0  0  0  0  0
  -26.2380  -21.2120   18.6920 C   0  0  0  0  0  2  0  0  0  0  0  0
  -26.1240  -22.7000   18.8180 C   0  0  0  0  0  2  0  0  0  0  0  0
  -27.4990  -22.0660   18.6500 C   0  0  0  0  0  3  0  0  0  0  0  0
  -28.9400  -23.4810   20.1270 C   0  0  0  0  0  3  0  0  0  0  0  0
  -27.9770  -24.8250   19.9410 C   0  0  0  0  0  3  0  0  0  0  0  0
  -28.2770  -26.3040   20.2170 O   0  0  0  0  0  0  0  0  0  0  0  0
  -24.5970  -31.8660   23.2610 C   0  0  0  0  0  0  0  0  0  0  0  0
  -27.2080  -27.2560   20.1600 C   0  0  0  0  0  0  0  0  0  0  0  0
  -23.4100  -30.4980   21.5880 C   0  0  0  0  0  3  0  0  0  0  0  0
  -24.8710  -28.9630   20.1480 C   0  0  0  0  0  0  0  0  0  0  0  0
  -25.9610  -30.7840   21.4450 C   0  0  0  0  0  2  0  0  0  0  0  0
  -26.0430  -29.4080   20.7720 C   0  0  0  0  0  0  0  0  0  0  0  0
  -27.2140  -28.5700   20.7640 C   0  0  0  0  0  3  0  0  0  0  0  0
  -26.0070  -26.9040   19.5000 C   0  0  0  0  0  3  0  0  0  0  0  0
  -24.8610  -27.7230   19.4990 C   0  0  0  0  0  3  0  0  0  0  0  0
  -23.6400  -29.8500   20.2000 C   0  0  0  0  0  2  0  0  0  0  0  0
  -24.6750  -31.0680   22.1550 N   0  0  0  0  0  0  0  0  0  0  0  0
  -23.5060  -32.1430   23.7840 O   0  0  0  0  0  0  0  0  0  0  0  0
  -22.7250  -29.4710   22.5250 C   0  0  0  0  0  0  0  0  0  0  0  0
  -21.3990  -29.3030   22.3800 N   0  0  0  0  0  0  0  0  0  0  0  0
  -23.3890  -28.8310   23.3430 O   0  0  0  0  0  0  0  0  0  0  0  0
  -20.9220  -29.8720   21.6960 H   0  0  0  0  0  0  0  0  0  0  0  0
  -18.0070  -28.1180   22.8350 C   0  0  0  0  0  0  0  0  0  0  0  0
  -20.5660  -28.3550   23.1250 C   0  0  0  0  0  3  0  0  0  0  0  0
  -20.6610  -26.9350   22.5190 C   0  0  0  0  0  2  0  0  0  0  0  0
  -19.5640  -26.6420   21.4920 C   0  0  0  0  0  2  0  0  0  0  0  0
  -18.1790  -26.7820   22.1320 C   0  0  0  0  0  2  0  0  0  0  0  0
  -19.1290  -28.8640   23.2860 C   0  0  0  0  0  0  0  0  0  0  0  0
  -18.9150  -30.1150   23.9050 C   0  0  0  0  0  3  0  0  0  0  0  0
  -17.6120  -30.6210   24.0760 C   0  0  0  0  0  3  0  0  0  0  0  0
  -16.5050  -29.8720   23.6410 C   0  0  0  0  0  3  0  0  0  0  0  0
  -16.7040  -28.6230   23.0260 C   0  0  0  0  0  3  0  0  0  0  0  0
  -25.8710  -32.4880   23.9090 C   0  0  0  0  0  3  0  0  0  0  0  0
  -26.3470  -31.7150   25.2010 C   0  0  1  0  0  0  0  0  0  0  0  0
  -25.2270  -31.4950   26.2440 C   0  0  0  0  0  1  0  0  0  0  0  0
  -26.9220  -30.3290   24.8290 C   0  0  0  0  0  1  0  0  0  0  0  0
  -27.4920  -32.4970   25.8870 C   0  0  0  0  0  1  0  0  0  0  0  0
  -25.5700  -33.8910   24.2310 N   0  0  0  0  0  0  0  0  0  0  0  0
  -25.9010  -34.9380   23.4630 C   0  0  0  0  0  0  0  0  0  0  0  0
  -26.5590  -34.8240   22.4260 O   0  0  0  0  0  0  0  0  0  0  0  0
  -24.9860  -34.0550   25.0390 H   0  0  0  0  0  0  0  0  0  0  0  0
  -24.1640  -36.7280   23.1340 C   0  0  0  0  0  1  0  0  0  0  0  0
  -25.4260  -36.3330   23.9180 C   0  0  0  0  0  3  0  0  0  0  0  0
  -27.5800  -37.2300   24.6850 C   0  0  0  0  0  1  0  0  0  0  0  0
  -26.4560  -37.3840   23.7650 N   0  0  0  0  0  0  0  0  0  0  0  0
  -26.0530  -38.3060   23.9090 H   0  0  0  0  0  0  0  0  0  0  0  0
  1 51  1  0
  1  2  1  1
  4  8  1  0
  6  4  1  0
  6  9  1  0
  6  3  1  0
  7  3  1  0
  7  5  1  0
  8 18  1  0
  8  7  1  0
  9  1  1  0
  9  5  1  0
 10 18  1  0
 11 16  1  0
 12 13  1  0
 12 11  1  0
 14 13  1  0
 14 23  1  0
 14 15  1  0
 16 10  1  0
 16 15  1  0
 17 10  2  0
 18 19  1  0
 20 21  2  0
 21 40  1  0
 22 21  1  0
 22 25  1  0
 23 24  1  0
 23 20  1  0
 24 22  2  0
 25 26  1  0
 26 27  2  0
 28 31  1  0
 28 27  1  0
 29 28  2  0
 30 29  1  0
 30 25  2  0
 31 32  1  0
 32 33  1  0
 33 34  2  0
 35 34  1  0
 35 39  1  0
 36 35  2  0
 37 32  2  0
 37 36  1  0
 38 37  1  0
 40 41  1  0
 41 44  1  0
 41 43  1  0
 42 40  2  0
 45 20  1  0
 45 46  1  0
 47 45  1  0
 48 49  1  0
 50 48  1  0
 50 49  1  0
 50  1  1  0
 52 51  2  0
 52 53  1  0
 54 65  2  0
 55 53  1  0
 55 60  1  0
 56 64  1  0
 56 66  1  0
 57 63  1  0
 57 59  1  0
 58 64  1  0
 59 58  1  0
 60 59  2  0
 61 55  2  0
 62 61  1  0
 62 57  2  0
 63 56  1  0
 64 54  1  0
 66 68  2  0
 67 66  1  0
 69 67  1  0
 70 79  2  0
 70 75  1  0
 71 67  1  0
 71 75  1  0
 72 71  1  0
 73 74  1  0
 73 72  1  0
 74 70  1  0
 75 76  2  0
 76 77  1  0
 78 77  2  0
 79 78  1  0
 80 54  1  0
 80 85  1  0
 80 81  1  0
 81 84  1  1
 81 82  1  0
 83 81  1  0
 85 88  1  0
 86 90  1  0
 86 85  1  0
 87 86  2  0
 90 89  1  0
 92 93  1  0
 92 90  1  0
 92 91  1  0
M  ISO  4  10 100  18 100  52 101  53 101
M  END
>  <TORSDO>  (90) 
F 20

>  <SCORE>  (90) 
-13.596

>  <name>  (90) 
89

>  <ligand_id>  (90) 
89

>  <original_smiles>  (90) 
[H]c1c([H])c([H])c2c(c1[H])C([H])([H])C([H])([H])C([H])([H])C2([H])N([H])C(=O)C1([H])N(C(=O)C([H])(N([H])C(=O)C([H])(N([H])C([H])([H])[H])C([H])([H])[H])C(C([H])([H])[H])(C([H])([H])[H])C([H])([H])[H])C([H])([H])c2c([H])c(OC([H])([H])C([H])([H])[N+]([H])(C3([H])C([H])([H])C3([H])[H])C3([H])C([H])([H])C4([H])C([H])([H])C3([H])C([H])([H])C4([H])N([H])C(=O)N3C([H])([H])C([H])([H])C([H])([H])C([H])(n4nc(-c5c([H])c([H])c(Oc6c([H])c([H])c(F)c([H])c6F)c([H])c5[H])c(C(=O)N([H])[H])c4N([H])[H])C3([H])[H])c([H])c([H])c2C1([H])[H]

>  <smiles>  (90) 
[H]c1c([H])c([H])c2c(c1[H])C([H])([H])C([H])([H])C([H])([H])C2([H])N([H])C(=O)C1([H])N(C(=O)C([H])(N([H])C(=O)C([H])(N([H])C([H])([H])[H])C([H])([H])[H])C(C([H])([H])[H])(C([H])([H])[H])C([H])([H])[H])C([H])([H])c2c([H])c(OC([H])([H])C([H])([H])[N+]([H])(C3([H])C([H])([H])C3([H])[H])C3([H])C([H])([H])C4([H])C([H])([H])C3([H])C([H])([H])C4([H])N([H])C(=O)N3C([H])([H])C([H])([H])C([H])([H])C([H])(n4nc(-c5c([H])c([H])c(Oc6c([H])c([H])c(F)c([H])c6F)c([H])c5[H])c(C(=O)N([H])[H])c4N([H])[H])C3([H])[H])c([H])c([H])c2C1([H])[H]

$$$$
90:0:0
     RDKit          3D

 96104  0  0  1  0  0  0  0  0999 V2000
  -28.8020  -21.2630   17.8580 C   0  0  0  0  0  2  0  0  0  0  0  0
  -28.2070  -22.5240   18.4810 C   0  0  0  0  0  2  0  0  0  0  0  0
  -28.8000  -20.1080   18.8630 C   0  0  0  0  0  2  0  0  0  0  0  0
  -29.1170  -21.7150   20.7460 C   0  0  0  0  0  3  0  0  0  0  0  0
  -28.9960  -22.9290   19.7410 C   0  0  0  0  0  3  0  0  0  0  0  0
  -29.5770  -20.4330   20.0890 N   0  0  1  0  0  4  0  0  0  0  0  0
  -30.5210  -20.6350   19.7920 H   0  0  0  0  0  0  0  0  0  0  0  0
  -30.0960  -22.0870   21.8810 C   0  0  0  0  0  0  0  0  0  0  0  0
  -29.6100  -22.3100   23.0960 N   0  0  0  0  0  0  0  0  0  0  0  0
  -31.3060  -22.1450   21.6620 O   0  0  0  0  0  0  0  0  0  0  0  0
  -28.6160  -22.2640   23.2790 H   0  0  0  0  0  0  0  0  0  0  0  0
  -30.2380  -22.5220   23.8600 H   0  0  0  0  0  0  0  0  0  0  0  0
  -28.3970  -24.2510   20.3410 C   0  0  0  0  0  2  0  0  0  0  0  0
  -28.5990  -25.5050   19.4490 C   0  0  0  0  0  2  0  0  0  0  0  0
  -28.4120  -26.7470   20.1450 O   0  0  0  0  0  0  0  0  0  0  0  0
  -24.5770  -31.8740   23.2290 C   0  0  0  0  0  0  0  0  0  0  0  0
  -27.2060  -27.4210   20.1300 C   0  0  0  0  0  0  0  0  0  0  0  0
  -23.3610  -30.4750   21.5910 C   0  0  0  0  0  3  0  0  0  0  0  0
  -24.8030  -28.9280   20.1620 C   0  0  0  0  0  0  0  0  0  0  0  0
  -25.8860  -30.8260   21.3830 C   0  0  0  0  0  2  0  0  0  0  0  0
  -25.9630  -29.4500   20.7460 C   0  0  0  0  0  0  0  0  0  0  0  0
  -27.1590  -28.7010   20.7330 C   0  0  0  0  0  3  0  0  0  0  0  0
  -26.0210  -26.9050   19.5550 C   0  0  0  0  0  3  0  0  0  0  0  0
  -24.8260  -27.6540   19.5700 C   0  0  0  0  0  3  0  0  0  0  0  0
  -23.5630  -29.7930   20.2120 C   0  0  0  0  0  2  0  0  0  0  0  0
  -24.6270  -31.0730   22.1280 N   0  0  0  0  0  0  0  0  0  0  0  0
  -23.4970  -32.1490   23.7740 O   0  0  0  0  0  0  0  0  0  0  0  0
  -22.7100  -29.4560   22.5540 C   0  0  0  0  0  0  0  0  0  0  0  0
  -21.3830  -29.2820   22.4340 N   0  0  0  0  0  0  0  0  0  0  0  0
  -23.3950  -28.8270   23.3640 O   0  0  0  0  0  0  0  0  0  0  0  0
  -20.8910  -29.8390   21.7500 H   0  0  0  0  0  0  0  0  0  0  0  0
  -18.0080  -28.1080   22.9500 C   0  0  0  0  0  0  0  0  0  0  0  0
  -20.5670  -28.3480   23.2090 C   0  0  0  0  0  3  0  0  0  0  0  0
  -20.6590  -26.9190   22.6290 C   0  0  0  0  0  2  0  0  0  0  0  0
  -19.5500  -26.6050   21.6200 C   0  0  0  0  0  2  0  0  0  0  0  0
  -18.1720  -26.7590   22.2700 C   0  0  0  0  0  2  0  0  0  0  0  0
  -19.1340  -28.8610   23.3760 C   0  0  0  0  0  0  0  0  0  0  0  0
  -18.9270  -30.1240   23.9710 C   0  0  0  0  0  3  0  0  0  0  0  0
  -17.6270  -30.6350   24.1440 C   0  0  0  0  0  3  0  0  0  0  0  0
  -16.5150  -29.8790   23.7340 C   0  0  0  0  0  3  0  0  0  0  0  0
  -16.7050  -28.6170   23.1430 C   0  0  0  0  0  3  0  0  0  0  0  0
  -25.8660  -32.5010   23.8430 C   0  0  0  0  0  3  0  0  0  0  0  0
  -25.5630  -33.8990   24.1740 N   0  0  0  0  0  0  0  0  0  0  0  0
  -25.9020  -34.9510   23.4180 C   0  0  0  0  0  0  0  0  0  0  0  0
  -26.5740  -34.8470   22.3880 O   0  0  0  0  0  0  0  0  0  0  0  0
  -24.9560  -34.0530   24.9670 H   0  0  0  0  0  0  0  0  0  0  0  0
  -24.1800  -36.7510   23.0650 C   0  0  0  0  0  1  0  0  0  0  0  0
  -25.4180  -36.3400   23.8770 C   0  0  0  0  0  3  0  0  0  0  0  0
  -27.5570  -37.2130   24.7140 C   0  0  0  0  0  1  0  0  0  0  0  0
  -26.4570  -37.3900   23.7690 N   0  0  0  0  0  0  0  0  0  0  0  0
  -26.0530  -38.3110   23.9260 H   0  0  0  0  0  0  0  0  0  0  0  0
  -26.3920  -31.7270   25.1140 C   0  0  1  0  0  0  0  0  0  0  0  0
  -25.3040  -31.4830   26.1860 C   0  0  0  0  0  1  0  0  0  0  0  0
  -26.9710  -30.3500   24.7140 C   0  0  0  0  0  1  0  0  0  0  0  0
  -27.5480  -32.5190   25.7710 C   0  0  0  0  0  1  0  0  0  0  0  0
  -29.7020  -19.2680   21.0380 C   0  0  0  0  0  2  0  0  0  0  0  0
  -29.8490  -17.8440   20.4180 C   0  0  0  0  0  2  0  0  0  0  0  0
  -30.3890  -16.7970   21.4290 C   0  0  0  0  0  2  0  0  0  0  0  0
  -30.6590  -14.4440   20.5360 C   0  0  0  0  0  0  0  0  0  0  0  0
  -30.3580  -12.2980   19.3520 C   0  0  0  0  0  2  0  0  0  0  0  0
  -29.4200  -12.5190   18.1470 C   0  0  0  0  0  2  0  0  0  0  0  0
  -27.9410  -12.3950   18.5690 C   0  0  0  0  0  2  0  0  0  0  0  0
  -27.6070  -13.2230   19.8380 C   0  0  0  0  0  3  0  0  0  0  0  0
  -28.6540  -12.9680   20.9450 C   0  0  0  0  0  2  0  0  0  0  0  0
  -29.9840  -13.2720   20.3870 N   0  0  0  0  0  0  0  0  0  0  0  0
  -31.7750  -14.6520   20.0550 O   0  0  0  0  0  0  0  0  0  0  0  0
  -29.9660  -15.4190   21.1470 N   0  0  0  0  0  0  0  0  0  0  0  0
  -29.0490  -15.1540   21.4770 H   0  0  0  0  0  0  0  0  0  0  0  0
  -25.2020  -13.8440   20.5200 C   0  0  0  0  0  0  0  0  0  0  0  0
  -24.1280  -13.0780   20.8820 C   0  0  0  0  0  0  0  0  0  0  0  0
  -24.5840  -11.7240   20.8650 C   0  0  0  0  0  0  0  0  0  0  0  0
  -26.2470  -12.9580   20.3060 N   0  0  0  0  0  0  0  0  0  0  0  0
  -25.8780  -11.6790   20.5690 N   0  0  0  0  0  0  0  0  0  0  0  0
  -23.8520  -10.4670   21.0570 C   0  0  0  0  0  0  0  0  0  0  0  0
  -24.2840   -9.4960   21.9890 C   0  0  0  0  0  3  0  0  0  0  0  0
  -23.5530   -8.3020   22.1670 C   0  0  0  0  0  3  0  0  0  0  0  0
  -22.3770   -8.0690   21.4150 C   0  0  0  0  0  0  0  0  0  0  0  0
  -21.9640   -9.0280   20.4730 C   0  0  0  0  0  3  0  0  0  0  0  0
  -22.6960  -10.2150   20.2920 C   0  0  0  0  0  3  0  0  0  0  0  0
  -21.6180   -6.9280   21.5030 O   0  0  0  0  0  0  0  0  0  0  0  0
  -21.5800   -6.1760   22.6500 C   0  0  0  0  0  0  0  0  0  0  0  0
  -21.1840   -6.7250   23.8890 C   0  0  0  0  0  3  0  0  0  0  0  0
  -21.0930   -5.9000   25.0290 C   0  0  0  0  0  3  0  0  0  0  0  0
  -21.3890   -4.5280   24.9290 C   0  0  0  0  0  0  0  0  0  0  0  0
  -21.7770   -3.9770   23.6950 C   0  0  0  0  0  3  0  0  0  0  0  0
  -21.8710   -4.7990   22.5580 C   0  0  0  0  0  0  0  0  0  0  0  0
  -22.2270   -4.2600   21.3670 F   0  0  0  0  0  0  0  0  0  0  0  0
  -21.2940   -3.7320   26.0220 F   0  0  0  0  0  0  0  0  0  0  0  0
  -22.7300  -13.5630   21.1390 C   0  0  0  0  0  0  0  0  0  0  0  0
  -21.9930  -12.8750   22.0050 N   0  0  0  0  0  0  0  0  0  0  0  0
  -22.3000  -14.5860   20.6090 O   0  0  0  0  0  0  0  0  0  0  0  0
  -22.3510  -12.0450   22.4530 H   0  0  0  0  0  0  0  0  0  0  0  0
  -21.0540  -13.1810   22.2220 H   0  0  0  0  0  0  0  0  0  0  0  0
  -25.3730  -15.2130   20.3350 N   0  0  0  0  0  0  0  0  0  0  0  0
  -24.6080  -15.8710   20.4370 H   0  0  0  0  0  0  0  0  0  0  0  0
  -26.2280  -15.6470   20.0110 H   0  0  0  0  0  0  0  0  0  0  0  0
  1  2  1  0
  1  3  1  0
  2  5  1  0
  3  6  1  0
  4  8  1  0
  5 13  1  0
  5  4  1  0
  6  4  1  0
  6 56  1  0
  6  7  1  6
  8  9  1  0
  9 11  1  0
  9 12  1  0
 10  8  2  0
 14 15  1  0
 14 13  1  0
 16 27  2  0
 17 15  1  0
 17 22  1  0
 18 26  1  0
 18 28  1  0
 19 25  1  0
 19 21  1  0
 20 26  1  0
 21 20  1  0
 22 21  2  0
 23 24  1  0
 23 17  2  0
 24 19  2  0
 25 18  1  0
 26 16  1  0
 28 30  2  0
 29 28  1  0
 31 29  1  0
 32 41  2  0
 32 37  1  0
 33 29  1  0
 33 37  1  0
 34 33  1  0
 35 36  1  0
 35 34  1  0
 36 32  1  0
 37 38  2  0
 38 39  1  0
 40 39  2  0
 41 40  1  0
 42 16  1  0
 42 43  1  0
 42 52  1  0
 43 46  1  0
 44 48  1  0
 44 43  1  0
 45 44  2  0
 48 47  1  0
 50 48  1  0
 50 51  1  0
 50 49  1  0
 52 55  1  1
 52 53  1  0
 54 52  1  0
 57 56  1  0
 57 58  1  0
 59 67  1  0
 60 65  1  0
 61 62  1  0
 61 60  1  0
 63 62  1  0
 63 72  1  0
 63 64  1  0
 65 59  1  0
 65 64  1  0
 66 59  2  0
 67 58  1  0
 67 68  1  0
 69 70  2  0
 70 89  1  0
 71 70  1  0
 71 74  1  0
 72 69  1  0
 72 73  1  0
 73 71  2  0
 74 75  1  0
 75 76  2  0
 77 80  1  0
 77 76  1  0
 78 77  2  0
 79 78  1  0
 79 74  2  0
 80 81  1  0
 81 82  1  0
 82 83  2  0
 84 83  1  0
 84 88  1  0
 85 84  2  0
 86 81  2  0
 86 85  1  0
 87 86  1  0
 89 90  1  0
 90 93  1  0
 90 92  1  0
 91 89  2  0
 94 95  1  0
 94 69  1  0
 96 94  1  0
M  ISO  4  14 101  15 101  59 100  67 100
M  END
>  <TORSDO>  (91) 
F 22

>  <SCORE>  (91) 
-13.502

>  <name>  (91) 
90

>  <ligand_id>  (91) 
90

>  <original_smiles>  (91) 
[H]c1c([H])c([H])c2c(c1[H])C([H])([H])C([H])([H])C([H])([H])C2([H])N([H])C(=O)C1([H])N(C(=O)C([H])(N([H])C(=O)C([H])(N([H])C([H])([H])[H])C([H])([H])[H])C(C([H])([H])[H])(C([H])([H])[H])C([H])([H])[H])C([H])([H])c2c([H])c(OC([H])([H])C([H])([H])C3([H])C([H])([H])C([H])([H])C([H])([H])[N+]([H])(C([H])([H])C([H])([H])C([H])([H])N([H])C(=O)N4C([H])([H])C([H])([H])C([H])([H])C([H])(n5nc(-c6c([H])c([H])c(Oc7c([H])c([H])c(F)c([H])c7F)c([H])c6[H])c(C(=O)N([H])[H])c5N([H])[H])C4([H])[H])C3([H])C(=O)N([H])[H])c([H])c([H])c2C1([H])[H]

>  <smiles>  (91) 
[H]c1c([H])c([H])c2c(c1[H])C([H])([H])C([H])([H])C([H])([H])C2([H])N([H])C(=O)C1([H])N(C(=O)C([H])(N([H])C(=O)C([H])(N([H])C([H])([H])[H])C([H])([H])[H])C(C([H])([H])[H])(C([H])([H])[H])C([H])([H])[H])C([H])([H])c2c([H])c(OC([H])([H])C([H])([H])C3([H])C([H])([H])C([H])([H])C([H])([H])[N+]([H])(C([H])([H])C([H])([H])C([H])([H])N([H])C(=O)N4C([H])([H])C([H])([H])C([H])([H])C([H])(n5nc(-c6c([H])c([H])c(Oc7c([H])c([H])c(F)c([H])c7F)c([H])c6[H])c(C(=O)N([H])[H])c5N([H])[H])C4([H])[H])C3([H])C(=O)N([H])[H])c([H])c([H])c2C1([H])[H]

$$$$
91:0:0
     RDKit          3D

 98107  0  0  1  0  0  0  0  0999 V2000
  -32.7560  -24.3210   19.5600 C   0  0  0  0  0  2  0  0  0  0  0  0
  -31.5240  -22.9830   21.2080 C   0  0  0  0  0  2  0  0  0  0  0  0
  -32.0420  -25.6000   20.0090 C   0  0  0  0  0  2  0  0  0  0  0  0
  -30.8790  -24.2460   21.8080 C   0  0  0  0  0  2  0  0  0  0  0  0
  -31.7800  -23.1490   19.7000 C   0  0  0  0  0  3  0  0  0  0  0  0
  -31.5310  -25.5350   21.4160 N   0  0  2  0  0  4  0  0  0  0  0  0
  -32.3560  -25.5450   21.9980 H   0  0  0  0  0  0  0  0  0  0  0  0
  -32.2600  -21.8670   18.9840 C   0  0  0  0  0  2  0  0  0  0  0  0
  -28.9940  -19.6240   18.8330 C   0  0  0  0  0  2  0  0  0  0  0  0
  -29.8740  -20.8880   18.8480 C   0  0  0  0  0  2  0  0  0  0  0  0
  -29.2450  -18.6790   20.0220 C   0  0  0  0  0  2  0  0  0  0  0  0
  -31.8850  -19.3740   18.5180 C   0  0  0  0  0  2  0  0  0  0  0  0
  -31.7660  -18.1400   19.4300 C   0  0  0  0  0  2  0  0  0  0  0  0
  -31.3540  -20.6370   19.2180 C   0  0  0  0  0  3  0  0  0  0  0  0
  -30.3490  -17.6140   19.7980 C   0  0  0  0  0  3  0  0  0  0  0  0
  -30.4540  -16.7090   21.0590 C   0  0  0  0  0  2  0  0  0  0  0  0
  -30.6310  -14.3980   20.1620 C   0  0  0  0  0  0  0  0  0  0  0  0
  -30.2740  -12.2720   18.9800 C   0  0  0  0  0  2  0  0  0  0  0  0
  -29.2870  -12.5160   17.8230 C   0  0  0  0  0  2  0  0  0  0  0  0
  -27.8300  -12.3850   18.3090 C   0  0  0  0  0  2  0  0  0  0  0  0
  -27.5500  -13.2080   19.5950 C   0  0  0  0  0  3  0  0  0  0  0  0
  -28.6420  -12.9360   20.6530 C   0  0  0  0  0  2  0  0  0  0  0  0
  -29.9490  -13.2320   20.0420 N   0  0  0  0  0  0  0  0  0  0  0  0
  -31.7170  -14.6160   19.6190 O   0  0  0  0  0  0  0  0  0  0  0  0
  -29.9800  -15.3500   20.8380 N   0  0  0  0  0  0  0  0  0  0  0  0
  -29.0830  -15.1010   21.2280 H   0  0  0  0  0  0  0  0  0  0  0  0
  -25.1780  -13.8300   20.3840 C   0  0  0  0  0  0  0  0  0  0  0  0
  -24.1240  -13.0630   20.7970 C   0  0  0  0  0  0  0  0  0  0  0  0
  -24.5830  -11.7090   20.7610 C   0  0  0  0  0  0  0  0  0  0  0  0
  -26.2130  -12.9460   20.1220 N   0  0  0  0  0  0  0  0  0  0  0  0
  -25.8600  -11.6660   20.4030 N   0  0  0  0  0  0  0  0  0  0  0  0
  -23.8640  -10.4490   20.9850 C   0  0  0  0  0  0  0  0  0  0  0  0
  -24.3330   -9.4880   21.9080 C   0  0  0  0  0  3  0  0  0  0  0  0
  -23.6170   -8.2910   22.1200 C   0  0  0  0  0  3  0  0  0  0  0  0
  -22.4170   -8.0460   21.4110 C   0  0  0  0  0  0  0  0  0  0  0  0
  -21.9670   -8.9950   20.4750 C   0  0  0  0  0  3  0  0  0  0  0  0
  -22.6840  -10.1840   20.2610 C   0  0  0  0  0  3  0  0  0  0  0  0
  -21.6690   -6.9010   21.5330 O   0  0  0  0  0  0  0  0  0  0  0  0
  -21.6640   -6.1630   22.6890 C   0  0  0  0  0  0  0  0  0  0  0  0
  -21.2900   -6.7250   23.9300 C   0  0  0  0  0  3  0  0  0  0  0  0
  -21.2340   -5.9130   25.0800 C   0  0  0  0  0  3  0  0  0  0  0  0
  -21.5410   -4.5420   24.9910 C   0  0  0  0  0  0  0  0  0  0  0  0
  -21.9100   -3.9810   23.7570 C   0  0  0  0  0  3  0  0  0  0  0  0
  -21.9680   -4.7900   22.6080 C   0  0  0  0  0  0  0  0  0  0  0  0
  -22.3020   -4.2400   21.4150 F   0  0  0  0  0  0  0  0  0  0  0  0
  -21.4790   -3.7600   26.0940 F   0  0  0  0  0  0  0  0  0  0  0  0
  -22.7360  -13.5400   21.1200 C   0  0  0  0  0  0  0  0  0  0  0  0
  -22.0430  -12.8500   22.0190 N   0  0  0  0  0  0  0  0  0  0  0  0
  -22.2800  -14.5630   20.6080 O   0  0  0  0  0  0  0  0  0  0  0  0
  -22.4260  -12.0230   22.4520 H   0  0  0  0  0  0  0  0  0  0  0  0
  -21.1120  -13.1540   22.2740 H   0  0  0  0  0  0  0  0  0  0  0  0
  -25.3400  -15.1990   20.1910 N   0  0  0  0  0  0  0  0  0  0  0  0
  -24.5810  -15.8580   20.3250 H   0  0  0  0  0  0  0  0  0  0  0  0
  -26.1770  -15.6320   19.8260 H   0  0  0  0  0  0  0  0  0  0  0  0
  -30.7480  -26.7400   21.8460 C   0  0  0  0  0  2  0  0  0  0  0  0
  -29.7200  -27.3000   20.8200 C   0  0  0  0  0  2  0  0  0  0  0  0
  -28.4430  -26.4600   20.6270 C   0  0  0  0  0  2  0  0  0  0  0  0
  -27.7620  -26.7930   19.4210 O   0  0  0  0  0  0  0  0  0  0  0  0
  -24.3360  -31.8110   23.1030 C   0  0  0  0  0  0  0  0  0  0  0  0
  -26.6390  -27.5590   19.5760 C   0  0  0  0  0  0  0  0  0  0  0  0
  -22.9710  -30.5610   21.4570 C   0  0  0  0  0  3  0  0  0  0  0  0
  -24.2840  -29.0810   19.8440 C   0  0  0  0  0  0  0  0  0  0  0  0
  -25.4860  -30.8760   21.1110 C   0  0  0  0  0  2  0  0  0  0  0  0
  -25.4900  -29.5540   20.3770 C   0  0  0  0  0  0  0  0  0  0  0  0
  -26.6700  -28.8020   20.2440 C   0  0  0  0  0  3  0  0  0  0  0  0
  -25.4250  -27.0920   19.0340 C   0  0  0  0  0  3  0  0  0  0  0  0
  -24.2420  -27.8450   19.1740 C   0  0  0  0  0  3  0  0  0  0  0  0
  -23.0660  -29.9570   20.0290 C   0  0  0  0  0  2  0  0  0  0  0  0
  -24.2860  -31.0930   21.9460 N   0  0  0  0  0  0  0  0  0  0  0  0
  -23.3030  -32.0800   23.7310 O   0  0  0  0  0  0  0  0  0  0  0  0
  -22.3560  -29.4970   22.3910 C   0  0  0  0  0  0  0  0  0  0  0  0
  -21.0200  -29.3660   22.3410 N   0  0  0  0  0  0  0  0  0  0  0  0
  -23.0700  -28.7970   23.1120 O   0  0  0  0  0  0  0  0  0  0  0  0
  -20.5090  -29.9820   21.7240 H   0  0  0  0  0  0  0  0  0  0  0  0
  -17.6410  -28.2630   22.9780 C   0  0  0  0  0  0  0  0  0  0  0  0
  -20.2190  -28.4090   23.1000 C   0  0  0  0  0  3  0  0  0  0  0  0
  -20.2260  -27.0170   22.4270 C   0  0  0  0  0  2  0  0  0  0  0  0
  -19.0510  -26.8040   21.4680 C   0  0  0  0  0  2  0  0  0  0  0  0
  -17.7190  -26.9570   22.2070 C   0  0  0  0  0  2  0  0  0  0  0  0
  -18.8140  -28.9530   23.3820 C   0  0  0  0  0  0  0  0  0  0  0  0
  -18.6840  -30.1820   24.0650 C   0  0  0  0  0  3  0  0  0  0  0  0
  -17.4130  -30.7210   24.3430 C   0  0  0  0  0  3  0  0  0  0  0  0
  -16.2550  -30.0240   23.9540 C   0  0  0  0  0  3  0  0  0  0  0  0
  -16.3710  -28.7960   23.2800 C   0  0  0  0  0  3  0  0  0  0  0  0
  -25.6860  -32.3500   23.6740 C   0  0  0  0  0  3  0  0  0  0  0  0
  -25.4550  -33.7330   24.1070 N   0  0  0  0  0  0  0  0  0  0  0  0
  -25.8070  -34.8200   23.4060 C   0  0  0  0  0  0  0  0  0  0  0  0
  -26.4350  -34.7580   22.3450 O   0  0  0  0  0  0  0  0  0  0  0  0
  -24.8970  -33.8610   24.9390 H   0  0  0  0  0  0  0  0  0  0  0  0
  -24.1440  -36.6970   23.2420 C   0  0  0  0  0  1  0  0  0  0  0  0
  -25.4000  -36.1940   23.9710 C   0  0  0  0  0  3  0  0  0  0  0  0
  -27.6050  -36.9310   24.7600 C   0  0  0  0  0  1  0  0  0  0  0  0
  -26.4710  -37.2120   23.8820 N   0  0  0  0  0  0  0  0  0  0  0  0
  -26.1130  -38.1350   24.1110 H   0  0  0  0  0  0  0  0  0  0  0  0
  -26.2620  -31.4760   24.8570 C   0  0  1  0  0  0  0  0  0  0  0  0
  -25.2310  -31.2090   25.9780 C   0  0  0  0  0  1  0  0  0  0  0  0
  -26.7620  -30.1080   24.3370 C   0  0  0  0  0  1  0  0  0  0  0  0
  -27.4820  -32.1890   25.4890 C   0  0  0  0  0  1  0  0  0  0  0  0
  1  5  1  0
  1  3  1  0
  2  4  1  0
  3  6  1  0
  5  8  1  0
  5  2  1  0
  6  4  1  0
  6 55  1  0
  6  7  1  1
  9 10  1  0
  9 11  1  0
 10 14  1  0
 12 14  1  0
 12 13  1  0
 13 15  1  0
 14  8  1  0
 15 11  1  0
 15 16  1  0
 17 25  1  0
 18 23  1  0
 19 20  1  0
 19 18  1  0
 21 20  1  0
 21 30  1  0
 21 22  1  0
 23 17  1  0
 23 22  1  0
 24 17  2  0
 25 16  1  0
 25 26  1  0
 27 28  2  0
 28 47  1  0
 29 28  1  0
 29 32  1  0
 30 27  1  0
 30 31  1  0
 31 29  2  0
 32 33  1  0
 33 34  2  0
 35 38  1  0
 35 34  1  0
 36 35  2  0
 37 36  1  0
 37 32  2  0
 38 39  1  0
 39 40  1  0
 40 41  2  0
 42 41  1  0
 42 46  1  0
 43 42  2  0
 44 39  2  0
 44 43  1  0
 45 44  1  0
 47 48  1  0
 48 51  1  0
 48 50  1  0
 49 47  2  0
 52 53  1  0
 52 27  1  0
 54 52  1  0
 56 55  1  0
 57 56  1  0
 58 60  1  0
 58 57  1  0
 59 70  2  0
 60 65  1  0
 61 69  1  0
 61 71  1  0
 62 68  1  0
 62 64  1  0
 63 69  1  0
 64 63  1  0
 65 64  2  0
 66 67  1  0
 66 60  2  0
 67 62  2  0
 68 61  1  0
 69 59  1  0
 71 73  2  0
 72 71  1  0
 74 72  1  0
 75 84  2  0
 75 80  1  0
 76 72  1  0
 76 80  1  0
 77 76  1  0
 78 79  1  0
 78 77  1  0
 79 75  1  0
 80 81  2  0
 81 82  1  0
 83 82  2  0
 84 83  1  0
 85 59  1  0
 85 86  1  0
 85 95  1  0
 86 89  1  0
 87 91  1  0
 87 86  1  0
 88 87  2  0
 91 90  1  0
 93 91  1  0
 93 94  1  0
 93 92  1  0
 95 98  1  1
 95 96  1  0
 97 95  1  0
M  ISO  4  17 100  25 100  57 101  58 101
M  END
>  <TORSDO>  (92) 
F 22

>  <SCORE>  (92) 
-12.369

>  <name>  (92) 
91

>  <ligand_id>  (92) 
91

>  <original_smiles>  (92) 
[H]c1c([H])c([H])c2c(c1[H])C([H])([H])C([H])([H])C([H])([H])C2([H])N([H])C(=O)C1([H])N(C(=O)C([H])(N([H])C(=O)C([H])(N([H])C([H])([H])[H])C([H])([H])[H])C(C([H])([H])[H])(C([H])([H])[H])C([H])([H])[H])C([H])([H])c2c([H])c(OC([H])([H])C([H])([H])C([H])([H])[N+]3([H])C([H])([H])C([H])([H])C([H])(C([H])([H])C4([H])C([H])([H])C([H])([H])C([H])([H])C([H])(C([H])([H])N([H])C(=O)N5C([H])([H])C([H])([H])C([H])([H])C([H])(n6nc(-c7c([H])c([H])c(Oc8c([H])c([H])c(F)c([H])c8F)c([H])c7[H])c(C(=O)N([H])[H])c6N([H])[H])C5([H])[H])C([H])([H])C4([H])[H])C([H])([H])C3([H])[H])c([H])c([H])c2C1([H])[H]

>  <smiles>  (92) 
[H]c1c([H])c([H])c2c(c1[H])C([H])([H])C([H])([H])C([H])([H])C2([H])N([H])C(=O)C1([H])N(C(=O)C([H])(N([H])C(=O)C([H])(N([H])C([H])([H])[H])C([H])([H])[H])C(C([H])([H])[H])(C([H])([H])[H])C([H])([H])[H])C([H])([H])c2c([H])c(OC([H])([H])C([H])([H])C([H])([H])[N+]3([H])C([H])([H])C([H])([H])C([H])(C([H])([H])C4([H])C([H])([H])C([H])([H])C([H])([H])C([H])(C([H])([H])N([H])C(=O)N5C([H])([H])C([H])([H])C([H])([H])C([H])(n6nc(-c7c([H])c([H])c(Oc8c([H])c([H])c(F)c([H])c8F)c([H])c7[H])c(C(=O)N([H])[H])c6N([H])[H])C5([H])[H])C([H])([H])C4([H])[H])C([H])([H])C3([H])[H])c([H])c([H])c2C1([H])[H]

$$$$
92:0:0
     RDKit          3D

 92100  0  0  1  0  0  0  0  0999 V2000
  -29.7380  -21.3460   20.4820 C   0  0  0  0  0  2  0  0  0  0  0  0
  -30.4810  -22.6840   20.6990 C   0  0  0  0  0  2  0  0  0  0  0  0
  -29.5310  -23.8770   20.9660 C   0  0  0  0  0  2  0  0  0  0  0  0
  -30.2750  -25.2110   21.2020 C   0  0  0  0  0  2  0  0  0  0  0  0
  -29.3600  -26.4500   21.3210 C   0  0  0  0  0  2  0  0  0  0  0  0
  -28.7240  -26.7010   20.0730 O   0  0  0  0  0  0  0  0  0  0  0  0
  -24.6970  -31.7530   23.1640 C   0  0  0  0  0  0  0  0  0  0  0  0
  -27.5610  -27.4340   20.1170 C   0  0  0  0  0  0  0  0  0  0  0  0
  -23.5750  -30.3240   21.4830 C   0  0  0  0  0  3  0  0  0  0  0  0
  -25.1140  -28.8450   20.0850 C   0  0  0  0  0  0  0  0  0  0  0  0
  -26.0890  -30.7680   21.3480 C   0  0  0  0  0  2  0  0  0  0  0  0
  -26.2360  -29.4030   20.7120 C   0  0  0  0  0  0  0  0  0  0  0  0
  -27.4620  -28.7010   20.7400 C   0  0  0  0  0  3  0  0  0  0  0  0
  -26.4290  -26.8920   19.4780 C   0  0  0  0  0  3  0  0  0  0  0  0
  -25.2030  -27.5840   19.4700 C   0  0  0  0  0  3  0  0  0  0  0  0
  -23.8400  -29.6600   20.1050 C   0  0  0  0  0  2  0  0  0  0  0  0
  -24.8040  -30.9630   22.0570 N   0  0  0  0  0  0  0  0  0  0  0  0
  -23.5950  -31.9870   23.6800 O   0  0  0  0  0  0  0  0  0  0  0  0
  -22.9350  -29.2760   22.4200 C   0  0  0  0  0  0  0  0  0  0  0  0
  -21.6180  -29.0600   22.2680 N   0  0  0  0  0  0  0  0  0  0  0  0
  -23.6210  -28.6600   23.2400 O   0  0  0  0  0  0  0  0  0  0  0  0
  -21.1250  -29.6140   21.5810 H   0  0  0  0  0  0  0  0  0  0  0  0
  -18.2590  -27.8210   22.7370 C   0  0  0  0  0  0  0  0  0  0  0  0
  -20.8140  -28.0930   23.0130 C   0  0  0  0  0  3  0  0  0  0  0  0
  -20.9280  -26.6790   22.3960 C   0  0  0  0  0  2  0  0  0  0  0  0
  -19.8270  -26.3760   21.3740 C   0  0  0  0  0  2  0  0  0  0  0  0
  -18.4450  -26.4910   22.0240 C   0  0  0  0  0  2  0  0  0  0  0  0
  -19.3710  -28.5790   23.1880 C   0  0  0  0  0  0  0  0  0  0  0  0
  -19.1430  -29.8240   23.8140 C   0  0  0  0  0  3  0  0  0  0  0  0
  -17.8340  -30.3100   23.9940 C   0  0  0  0  0  3  0  0  0  0  0  0
  -16.7370  -29.5480   23.5620 C   0  0  0  0  0  3  0  0  0  0  0  0
  -16.9490  -28.3040   22.9390 C   0  0  0  0  0  3  0  0  0  0  0  0
  -25.9490  -32.4180   23.8170 C   0  0  0  0  0  3  0  0  0  0  0  0
  -26.4710  -31.6480   25.0920 C   0  0  1  0  0  0  0  0  0  0  0  0
  -25.3660  -31.3490   26.1320 C   0  0  0  0  0  1  0  0  0  0  0  0
  -27.1170  -30.3020   24.6900 C   0  0  0  0  0  1  0  0  0  0  0  0
  -27.5720  -32.4780   25.7920 C   0  0  0  0  0  1  0  0  0  0  0  0
  -25.5880  -33.8010   24.1540 N   0  0  0  0  0  0  0  0  0  0  0  0
  -25.9030  -34.8710   23.4130 C   0  0  0  0  0  0  0  0  0  0  0  0
  -26.5990  -34.8010   22.3940 O   0  0  0  0  0  0  0  0  0  0  0  0
  -24.9720  -33.9290   24.9420 H   0  0  0  0  0  0  0  0  0  0  0  0
  -24.1290  -36.6120   23.0290 C   0  0  0  0  0  1  0  0  0  0  0  0
  -25.3590  -36.2380   23.8710 C   0  0  0  0  0  3  0  0  0  0  0  0
  -27.4370  -37.1790   24.7760 C   0  0  0  0  0  1  0  0  0  0  0  0
  -26.3590  -37.3240   23.8010 N   0  0  0  0  0  0  0  0  0  0  0  0
  -25.9190  -38.2280   23.9480 H   0  0  0  0  0  0  0  0  0  0  0  0
  -30.6480  -20.1650   20.0570 C   0  0  0  0  0  2  0  0  0  0  0  0
  -29.8730  -18.9110   19.8970 N   0  0  0  0  0  4  0  0  0  0  0  0
  -29.3170  -18.7970   20.7290 H   0  0  0  0  0  0  0  0  0  0  0  0
  -29.2380  -19.0100   19.1210 H   0  0  0  0  0  0  0  0  0  0  0  0
  -30.6540  -17.6620   19.7120 C   0  0  0  0  0  2  0  0  0  0  0  0
  -30.9900  -14.5030   19.4160 C   0  0  0  0  0  0  0  0  0  0  0  0
  -30.4680  -12.4410   18.1500 C   0  0  0  0  0  2  0  0  0  0  0  0
  -29.3320  -12.6600   17.1320 C   0  0  0  0  0  2  0  0  0  0  0  0
  -27.9560  -12.4670   17.7950 C   0  0  0  0  0  2  0  0  0  0  0  0
  -27.8190  -13.2590   19.1200 C   0  0  0  0  0  3  0  0  0  0  0  0
  -29.0410  -13.0180   20.0320 C   0  0  0  0  0  2  0  0  0  0  0  0
  -30.2700  -13.3540   19.2860 N   0  0  0  0  0  0  0  0  0  0  0  0
  -31.8120  -14.8860   18.5760 O   0  0  0  0  0  0  0  0  0  0  0  0
  -30.4440  -15.6180   22.8590 C   0  0  0  0  0  2  0  0  0  0  0  0
  -30.1950  -16.9250   22.1210 C   0  0  0  0  0  2  0  0  0  0  0  0
  -31.2280  -14.7830   21.8510 C   0  0  0  0  0  2  0  0  0  0  0  0
  -30.0950  -16.5390   20.6310 C   0  0  0  0  0  3  0  0  0  0  0  0
  -30.7490  -15.2180   20.5380 N   0  0  0  0  0  0  0  0  0  0  0  0
  -25.5730  -13.8000   20.2610 C   0  0  0  0  0  0  0  0  0  0  0  0
  -24.5870  -12.9970   20.7660 C   0  0  0  0  0  0  0  0  0  0  0  0
  -25.0390  -11.6540   20.5790 C   0  0  0  0  0  0  0  0  0  0  0  0
  -26.5660  -12.9460   19.8040 N   0  0  0  0  0  0  0  0  0  0  0  0
  -26.2550  -11.6470   20.0470 N   0  0  0  0  0  0  0  0  0  0  0  0
  -24.3590  -10.3750   20.8230 C   0  0  0  0  0  0  0  0  0  0  0  0
  -24.8060   -9.4800   21.8210 C   0  0  0  0  0  3  0  0  0  0  0  0
  -24.1260   -8.2640   22.0490 C   0  0  0  0  0  3  0  0  0  0  0  0
  -22.9860   -7.9340   21.2790 C   0  0  0  0  0  0  0  0  0  0  0  0
  -22.5590   -8.8170   20.2710 C   0  0  0  0  0  3  0  0  0  0  0  0
  -23.2400  -10.0240   20.0410 C   0  0  0  0  0  3  0  0  0  0  0  0
  -22.2770   -6.7650   21.4130 O   0  0  0  0  0  0  0  0  0  0  0  0
  -22.0540   -6.1920   22.6410 C   0  0  0  0  0  0  0  0  0  0  0  0
  -21.4400   -6.9050   23.6950 C   0  0  0  0  0  3  0  0  0  0  0  0
  -21.1670   -6.2580   24.9160 C   0  0  0  0  0  3  0  0  0  0  0  0
  -21.4990   -4.9000   25.0830 C   0  0  0  0  0  0  0  0  0  0  0  0
  -22.1060   -4.1880   24.0340 C   0  0  0  0  0  3  0  0  0  0  0  0
  -22.3790   -4.8320   22.8150 C   0  0  0  0  0  0  0  0  0  0  0  0
  -22.9450   -4.1360   21.7990 F   0  0  0  0  0  0  0  0  0  0  0  0
  -21.2300   -4.2750   26.2540 F   0  0  0  0  0  0  0  0  0  0  0  0
  -23.2580  -13.4390   21.3050 C   0  0  0  0  0  0  0  0  0  0  0  0
  -22.7330  -12.7350   22.3020 N   0  0  0  0  0  0  0  0  0  0  0  0
  -22.6960  -14.4450   20.8740 O   0  0  0  0  0  0  0  0  0  0  0  0
  -23.2040  -11.9220   22.6710 H   0  0  0  0  0  0  0  0  0  0  0  0
  -21.8470  -13.0110   22.7000 H   0  0  0  0  0  0  0  0  0  0  0  0
  -25.7010  -15.1810   20.1350 N   0  0  0  0  0  0  0  0  0  0  0  0
  -24.9670  -15.8210   20.4200 H   0  0  0  0  0  0  0  0  0  0  0  0
  -26.4750  -15.6470   19.6790 H   0  0  0  0  0  0  0  0  0  0  0  0
  1  2  1  0
  2  3  1  0
  3  4  1  0
  4  5  1  0
  6  8  1  0
  6  5  1  0
  7 18  2  0
  8 13  1  0
  9 17  1  0
  9 19  1  0
 10 16  1  0
 10 12  1  0
 11 17  1  0
 12 13  2  0
 12 11  1  0
 14  8  2  0
 15 14  1  0
 15 10  2  0
 16  9  1  0
 17  7  1  0
 19 21  2  0
 20 19  1  0
 22 20  1  0
 23 32  2  0
 23 28  1  0
 24 20  1  0
 24 28  1  0
 25 24  1  0
 26 27  1  0
 26 25  1  0
 27 23  1  0
 28 29  2  0
 29 30  1  0
 31 30  2  0
 32 31  1  0
 33  7  1  0
 33 38  1  0
 33 34  1  0
 34 37  1  1
 34 35  1  0
 36 34  1  0
 38 41  1  0
 39 43  1  0
 39 38  1  0
 40 39  2  0
 43 42  1  0
 45 43  1  0
 45 46  1  0
 45 44  1  0
 47  1  1  0
 48 47  1  0
 48 49  1  0
 50 48  1  0
 51 48  1  0
 52 64  1  0
 53 58  1  0
 54 55  1  0
 54 53  1  0
 56 55  1  0
 56 68  1  0
 56 57  1  0
 58 52  1  0
 58 57  1  0
 59 52  2  0
 61 60  1  0
 62 60  1  0
 63 51  1  0
 63 61  1  0
 64 63  1  0
 64 62  1  0
 65 66  2  0
 66 85  1  0
 67 66  1  0
 67 70  1  0
 68 69  1  0
 68 65  1  0
 69 67  2  0
 70 71  1  0
 71 72  2  0
 73 76  1  0
 73 72  1  0
 74 73  2  0
 75 74  1  0
 75 70  2  0
 76 77  1  0
 77 82  2  0
 77 78  1  0
 78 79  2  0
 79 80  1  0
 80 84  1  0
 81 80  2  0
 82 81  1  0
 83 82  1  0
 85 86  1  0
 86 88  1  0
 86 89  1  0
 87 85  2  0
 90 65  1  0
 90 91  1  0
 92 90  1  0
M  ISO  4   5 101   6 101  52 100  64 100
M  END
>  <TORSDO>  (93) 
F 23

>  <SCORE>  (93) 
-9.199

>  <name>  (93) 
92

>  <ligand_id>  (93) 
92

>  <original_smiles>  (93) 
[H]c1c([H])c([H])c2c(c1[H])C([H])([H])C([H])([H])C([H])([H])C2([H])N([H])C(=O)C1([H])N(C(=O)C([H])(N([H])C(=O)C([H])(N([H])C([H])([H])[H])C([H])([H])[H])C(C([H])([H])[H])(C([H])([H])[H])C([H])([H])[H])C([H])([H])c2c([H])c(OC([H])([H])C([H])([H])C([H])([H])C([H])([H])C([H])([H])C([H])([H])[N+]([H])([H])C([H])([H])C3([H])N(C(=O)N4C([H])([H])C([H])([H])C([H])([H])C([H])(n5nc(-c6c([H])c([H])c(Oc7c([H])c([H])c(F)c([H])c7F)c([H])c6[H])c(C(=O)N([H])[H])c5N([H])[H])C4([H])[H])C([H])([H])C([H])([H])C3([H])[H])c([H])c([H])c2C1([H])[H]

>  <smiles>  (93) 
[H]c1c([H])c([H])c2c(c1[H])C([H])([H])C([H])([H])C([H])([H])C2([H])N([H])C(=O)C1([H])N(C(=O)C([H])(N([H])C(=O)C([H])(N([H])C([H])([H])[H])C([H])([H])[H])C(C([H])([H])[H])(C([H])([H])[H])C([H])([H])[H])C([H])([H])c2c([H])c(OC([H])([H])C([H])([H])C([H])([H])C([H])([H])C([H])([H])C([H])([H])[N+]([H])([H])C([H])([H])C3([H])N(C(=O)N4C([H])([H])C([H])([H])C([H])([H])C([H])(n5nc(-c6c([H])c([H])c(Oc7c([H])c([H])c(F)c([H])c7F)c([H])c6[H])c(C(=O)N([H])[H])c5N([H])[H])C4([H])[H])C([H])([H])C([H])([H])C3([H])[H])c([H])c([H])c2C1([H])[H]

$$$$
93:0:0
     RDKit          3D

100109  0  0  1  0  0  0  0  0999 V2000
  -25.2500  -21.7220   19.5780 C   0  0  0  0  0  2  0  0  0  0  0  0
  -24.8370  -20.2920   19.9010 C   0  0  0  0  0  2  0  0  0  0  0  0
  -27.5810  -20.8130   19.1170 C   0  0  0  0  0  2  0  0  0  0  0  0
  -26.7550  -21.9300   19.8190 C   0  0  0  0  0  3  0  0  0  0  0  0
  -25.6670  -19.2760   19.0900 C   0  0  0  0  0  3  0  0  0  0  0  0
  -27.1210  -19.4200   19.4570 N   0  0  1  0  0  4  0  0  0  0  0  0
  -27.1560  -19.3890   20.4640 H   0  0  0  0  0  0  0  0  0  0  0  0
  -27.0980  -23.3640   19.3440 C   0  0  0  0  0  2  0  0  0  0  0  0
  -28.4490  -23.9570   19.7870 C   0  0  0  0  0  2  0  0  0  0  0  0
  -28.3790  -25.4930   19.9490 C   0  0  0  0  0  2  0  0  0  0  0  0
  -28.3340  -26.2790   18.6230 C   0  0  0  0  0  2  0  0  0  0  0  0
  -28.1750  -27.6800   18.8610 O   0  0  0  0  0  0  0  0  0  0  0  0
  -24.2990  -31.7380   23.2070 C   0  0  0  0  0  0  0  0  0  0  0  0
  -26.9230  -28.2090   19.0990 C   0  0  0  0  0  0  0  0  0  0  0  0
  -23.0250  -30.5450   21.4530 C   0  0  0  0  0  3  0  0  0  0  0  0
  -24.4230  -29.4360   19.6310 C   0  0  0  0  0  0  0  0  0  0  0  0
  -25.4740  -31.1830   21.0780 C   0  0  0  0  0  2  0  0  0  0  0  0
  -25.5920  -29.9620   20.1910 C   0  0  0  0  0  0  0  0  0  0  0  0
  -26.8380  -29.3550   19.9220 C   0  0  0  0  0  3  0  0  0  0  0  0
  -25.7300  -27.6880   18.5440 C   0  0  0  0  0  3  0  0  0  0  0  0
  -24.4880  -28.2980   18.8070 C   0  0  0  0  0  3  0  0  0  0  0  0
  -23.1260  -30.1420   19.9560 C   0  0  0  0  0  2  0  0  0  0  0  0
  -24.2900  -31.1600   21.9710 N   0  0  0  0  0  0  0  0  0  0  0  0
  -23.2690  -31.8010   23.8920 O   0  0  0  0  0  0  0  0  0  0  0  0
  -22.5660  -29.3120   22.2630 C   0  0  0  0  0  0  0  0  0  0  0  0
  -21.2720  -28.9690   22.1460 N   0  0  0  0  0  0  0  0  0  0  0  0
  -23.3660  -28.6720   22.9500 O   0  0  0  0  0  0  0  0  0  0  0  0
  -20.6810  -29.5420   21.5590 H   0  0  0  0  0  0  0  0  0  0  0  0
  -18.1620  -27.1530   22.3870 C   0  0  0  0  0  0  0  0  0  0  0  0
  -20.6250  -27.8240   22.7850 C   0  0  0  0  0  3  0  0  0  0  0  0
  -20.9960  -26.5080   22.0670 C   0  0  0  0  0  2  0  0  0  0  0  0
  -19.9900  -26.1090   20.9820 C   0  0  0  0  0  2  0  0  0  0  0  0
  -18.5930  -25.9380   21.5840 C   0  0  0  0  0  2  0  0  0  0  0  0
  -19.1170  -28.0480   22.9380 C   0  0  0  0  0  0  0  0  0  0  0  0
  -18.6650  -29.1820   23.6480 C   0  0  0  0  0  3  0  0  0  0  0  0
  -17.2890  -29.4240   23.8160 C   0  0  0  0  0  3  0  0  0  0  0  0
  -16.3480  -28.5250   23.2830 C   0  0  0  0  0  3  0  0  0  0  0  0
  -16.7850  -27.3910   22.5760 C   0  0  0  0  0  3  0  0  0  0  0  0
  -25.5960  -32.3650   23.8090 C   0  0  0  0  0  3  0  0  0  0  0  0
  -25.2810  -33.7450   24.1980 N   0  0  0  0  0  0  0  0  0  0  0  0
  -25.6060  -34.8300   23.4830 C   0  0  0  0  0  0  0  0  0  0  0  0
  -26.2740  -34.7720   22.4460 O   0  0  0  0  0  0  0  0  0  0  0  0
  -24.6850  -33.8640   25.0050 H   0  0  0  0  0  0  0  0  0  0  0  0
  -23.8560  -36.6150   23.2160 C   0  0  0  0  0  1  0  0  0  0  0  0
  -25.1120  -36.1950   23.9980 C   0  0  0  0  0  3  0  0  0  0  0  0
  -27.2420  -37.0720   24.8450 C   0  0  0  0  0  1  0  0  0  0  0  0
  -26.1330  -37.2620   23.9120 N   0  0  0  0  0  0  0  0  0  0  0  0
  -25.7210  -38.1730   24.0870 H   0  0  0  0  0  0  0  0  0  0  0  0
  -26.1650  -31.5550   25.0380 C   0  0  1  0  0  0  0  0  0  0  0  0
  -25.1130  -31.2750   26.1370 C   0  0  0  0  0  1  0  0  0  0  0  0
  -26.7370  -30.1950   24.5750 C   0  0  0  0  0  1  0  0  0  0  0  0
  -27.3420  -32.3280   25.6770 C   0  0  0  0  0  1  0  0  0  0  0  0
  -27.9870  -18.2580   19.0080 C   0  0  0  0  0  2  0  0  0  0  0  0
  -31.3930  -19.6930   17.7190 C   0  0  0  0  0  2  0  0  0  0  0  0
  -32.2240  -18.4290   17.5860 C   0  0  0  0  0  2  0  0  0  0  0  0
  -29.9160  -19.3060   17.7710 C   0  0  0  0  0  2  0  0  0  0  0  0
  -31.9170  -17.4570   18.7260 C   0  0  0  0  0  2  0  0  0  0  0  0
  -29.5480  -18.4110   18.9910 C   0  0  0  0  0  3  0  0  0  0  0  0
  -30.4020  -17.0770   18.8570 C   0  0  0  0  0  3  0  0  0  0  0  0
  -30.9310  -14.9430   20.1690 C   0  0  0  0  0  0  0  0  0  0  0  0
  -30.7130  -12.6900   19.2870 C   0  0  0  0  0  2  0  0  0  0  0  0
  -29.7580  -12.7860   18.0820 C   0  0  0  0  0  2  0  0  0  0  0  0
  -28.2960  -12.6190   18.5400 C   0  0  0  0  0  2  0  0  0  0  0  0
  -27.9300  -13.5010   19.7660 C   0  0  0  0  0  3  0  0  0  0  0  0
  -29.0180  -13.4490   20.8620 C   0  0  0  0  0  2  0  0  0  0  0  0
  -30.3050  -13.7420   20.2270 N   0  0  0  0  0  0  0  0  0  0  0  0
  -32.1440  -15.0130   20.0260 O   0  0  0  0  0  0  0  0  0  0  0  0
  -30.1220  -15.9940   19.8600 N   0  0  0  0  0  0  0  0  0  0  0  0
  -29.1520  -15.8030   20.0390 H   0  0  0  0  0  0  0  0  0  0  0  0
  -25.5930  -14.0130   20.6830 C   0  0  0  0  0  0  0  0  0  0  0  0
  -24.5270  -13.2110   20.9850 C   0  0  0  0  0  0  0  0  0  0  0  0
  -24.9790  -11.8720   20.7860 C   0  0  0  0  0  0  0  0  0  0  0  0
  -26.6100  -13.1650   20.2890 N   0  0  0  0  0  0  0  0  0  0  0  0
  -26.2540  -11.8630   20.4180 N   0  0  0  0  0  0  0  0  0  0  0  0
  -24.2570  -10.5990   20.8750 C   0  0  0  0  0  0  0  0  0  0  0  0
  -24.6810   -9.5670   21.7400 C   0  0  0  0  0  3  0  0  0  0  0  0
  -23.9550   -8.3610   21.8240 C   0  0  0  0  0  3  0  0  0  0  0  0
  -22.7920   -8.1790   21.0390 C   0  0  0  0  0  0  0  0  0  0  0  0
  -22.3860   -9.2010   20.1630 C   0  0  0  0  0  3  0  0  0  0  0  0
  -23.1140  -10.3990   20.0790 C   0  0  0  0  0  3  0  0  0  0  0  0
  -22.0380   -7.0310   21.0350 O   0  0  0  0  0  0  0  0  0  0  0  0
  -21.9360   -6.2320   22.1460 C   0  0  0  0  0  0  0  0  0  0  0  0
  -21.3670   -6.6990   23.3500 C   0  0  0  0  0  3  0  0  0  0  0  0
  -21.2230   -5.8250   24.4460 C   0  0  0  0  0  3  0  0  0  0  0  0
  -21.6360   -4.4830   24.3360 C   0  0  0  0  0  0  0  0  0  0  0  0
  -22.1970   -4.0140   23.1350 C   0  0  0  0  0  3  0  0  0  0  0  0
  -22.3440   -4.8860   22.0430 C   0  0  0  0  0  0  0  0  0  0  0  0
  -22.8680   -4.4250   20.8820 F   0  0  0  0  0  0  0  0  0  0  0  0
  -21.4890   -3.6400   25.3840 F   0  0  0  0  0  0  0  0  0  0  0  0
  -23.1490  -13.6630   21.3710 C   0  0  0  0  0  0  0  0  0  0  0  0
  -22.4570  -12.8740   22.1860 N   0  0  0  0  0  0  0  0  0  0  0  0
  -22.7000  -14.7430   20.9950 O   0  0  0  0  0  0  0  0  0  0  0  0
  -22.8410  -11.9990   22.5110 H   0  0  0  0  0  0  0  0  0  0  0  0
  -21.5330  -13.1480   22.4870 H   0  0  0  0  0  0  0  0  0  0  0  0
  -25.7910  -15.3850   20.7190 N   0  0  0  0  0  0  0  0  0  0  0  0
  -25.0740  -15.9410   21.1690 H   0  0  0  0  0  0  0  0  0  0  0  0
  -26.7220  -15.7150   20.9190 H   0  0  0  0  0  0  0  0  0  0  0  0
  -25.0400  -17.8670   19.2740 C   0  0  0  0  0  2  0  0  0  0  0  0
  -22.8750  -16.5880   19.7010 C   0  0  0  0  0  1  0  0  0  0  0  0
  -23.5090  -17.8420   19.0880 C   0  0  0  0  0  2  0  0  0  0  0  0
  1  4  1  0
  1  2  1  0
  3  6  1  0
  3  4  1  0
  4  8  1  0
  5 98  1  0
  5  6  1  0
  5  2  1  0
  6  7  1  1
  8  9  1  0
  9 10  1  0
 11 12  1  0
 11 10  1  0
 12 14  1  0
 13 24  2  0
 14 19  1  0
 15 23  1  0
 15 25  1  0
 16 22  1  0
 16 18  1  0
 17 23  1  0
 18 17  1  0
 19 18  2  0
 20 21  1  0
 20 14  2  0
 21 16  2  0
 22 15  1  0
 23 13  1  0
 25 27  2  0
 26 25  1  0
 28 26  1  0
 29 38  2  0
 29 34  1  0
 30 26  1  0
 30 34  1  0
 31 30  1  0
 32 33  1  0
 32 31  1  0
 33 29  1  0
 34 35  2  0
 35 36  1  0
 37 36  2  0
 38 37  1  0
 39 13  1  0
 39 40  1  0
 39 49  1  0
 40 43  1  0
 41 45  1  0
 41 40  1  0
 42 41  2  0
 45 44  1  0
 47 45  1  0
 47 48  1  0
 47 46  1  0
 49 52  1  1
 49 50  1  0
 51 49  1  0
 53  6  1  0
 54 56  1  0
 55 54  1  0
 55 57  1  0
 56 58  1  0
 57 59  1  0
 58 53  1  0
 59 58  1  0
 59 68  1  0
 60 66  1  0
 61 66  1  0
 62 63  1  0
 62 61  1  0
 64 63  1  0
 64 73  1  0
 64 65  1  0
 66 65  1  0
 67 60  2  0
 68 69  1  0
 68 60  1  0
 70 95  1  0
 70 71  2  0
 71 90  1  0
 72 75  1  0
 72 71  1  0
 73 74  1  0
 73 70  1  0
 74 72  2  0
 75 76  1  0
 76 77  2  0
 78 77  1  0
 79 78  2  0
 80 79  1  0
 80 75  2  0
 81 78  1  0
 81 82  1  0
 82 83  1  0
 83 84  2  0
 85 84  1  0
 85 89  1  0
 86 85  2  0
 87 82  2  0
 87 86  1  0
 88 87  1  0
 90 91  1  0
 91 94  1  0
 91 93  1  0
 92 90  2  0
 95 97  1  0
 95 96  1  0
100 98  1  0
100 99  1  0
M  ISO  4  11 101  12 101  60 100  68 100
M  END
>  <TORSDO>  (94) 
F 24

>  <SCORE>  (94) 
-2.943

>  <name>  (94) 
93

>  <ligand_id>  (94) 
93

>  <original_smiles>  (94) 
[H]c1c([H])c([H])c2c(c1[H])C([H])([H])C([H])([H])C([H])([H])C2([H])N([H])C(=O)C1([H])N(C(=O)C([H])(N([H])C(=O)C([H])(N([H])C([H])([H])[H])C([H])([H])[H])C(C([H])([H])[H])(C([H])([H])[H])C([H])([H])[H])C([H])([H])c2c([H])c(OC([H])([H])C([H])([H])C([H])([H])C([H])([H])C3([H])C([H])([H])C([H])([H])C([H])(C([H])([H])C([H])([H])C([H])([H])[H])[N+]([H])(C([H])([H])C4([H])C([H])([H])C([H])([H])C([H])([H])C([H])([H])C4([H])N([H])C(=O)N4C([H])([H])C([H])([H])C([H])([H])C([H])(n5nc(-c6c([H])c([H])c(Oc7c([H])c([H])c(F)c([H])c7F)c([H])c6[H])c(C(=O)N([H])[H])c5N([H])[H])C4([H])[H])C3([H])[H])c([H])c([H])c2C1([H])[H]

>  <smiles>  (94) 
[H]c1c([H])c([H])c2c(c1[H])C([H])([H])C([H])([H])C([H])([H])C2([H])N([H])C(=O)C1([H])N(C(=O)C([H])(N([H])C(=O)C([H])(N([H])C([H])([H])[H])C([H])([H])[H])C(C([H])([H])[H])(C([H])([H])[H])C([H])([H])[H])C([H])([H])c2c([H])c(OC([H])([H])C([H])([H])C([H])([H])C([H])([H])C3([H])C([H])([H])C([H])([H])C([H])(C([H])([H])C([H])([H])C([H])([H])[H])[N+]([H])(C([H])([H])C4([H])C([H])([H])C([H])([H])C([H])([H])C([H])([H])C4([H])N([H])C(=O)N4C([H])([H])C([H])([H])C([H])([H])C([H])(n5nc(-c6c([H])c([H])c(Oc7c([H])c([H])c(F)c([H])c7F)c([H])c6[H])c(C(=O)N([H])[H])c5N([H])[H])C4([H])[H])C3([H])[H])c([H])c([H])c2C1([H])[H]

$$$$
94:0:0
     RDKit          3D

 96105  0  0  1  0  0  0  0  0999 V2000
  -28.7770  -19.9890   21.0940 C   0  0  0  0  0  2  0  0  0  0  0  0
  -27.3460  -19.3890   19.1890 C   0  0  0  0  0  2  0  0  0  0  0  0
  -28.9910  -21.3960   20.5270 C   0  0  0  0  0  2  0  0  0  0  0  0
  -27.4110  -20.8670   18.6890 C   0  0  0  0  0  2  0  0  0  0  0  0
  -28.6200  -18.9590   19.9610 C   0  0  0  0  0  3  0  0  0  0  0  0
  -27.8390  -21.8670   19.7210 N   0  0  2  0  0  4  0  0  0  0  0  0
  -27.0550  -21.9750   20.3480 H   0  0  0  0  0  0  0  0  0  0  0  0
  -28.5880  -17.4870   20.4870 C   0  0  0  0  0  2  0  0  0  0  0  0
  -30.9220  -14.5250   20.1680 C   0  0  0  0  0  0  0  0  0  0  0  0
  -30.6270  -12.2680   19.3010 C   0  0  0  0  0  2  0  0  0  0  0  0
  -29.7120  -12.3990   18.0710 C   0  0  0  0  0  2  0  0  0  0  0  0
  -28.2240  -12.3770   18.4800 C   0  0  0  0  0  2  0  0  0  0  0  0
  -27.8860  -13.2840   19.7000 C   0  0  0  0  0  3  0  0  0  0  0  0
  -28.9340  -13.1380   20.8230 C   0  0  0  0  0  2  0  0  0  0  0  0
  -30.2520  -13.3500   20.2150 N   0  0  0  0  0  0  0  0  0  0  0  0
  -32.1400  -14.5840   19.9760 O   0  0  0  0  0  0  0  0  0  0  0  0
  -30.3550  -16.1670   18.4600 C   0  0  0  0  0  2  0  0  0  0  0  0
  -31.6040  -17.0860   18.3910 C   0  0  0  0  0  2  0  0  0  0  0  0
  -31.2670  -17.5100   20.8390 C   0  0  0  0  0  2  0  0  0  0  0  0
  -29.9360  -16.7030   20.7610 C   0  0  0  0  0  3  0  0  0  0  0  0
  -30.1530  -15.5960   19.8100 N   0  0  0  0  0  0  0  0  0  0  0  0
  -31.6700  -18.0500   19.5170 N   0  0  0  0  0  4  0  0  0  0  0  0
  -31.0760  -18.8310   19.2970 H   0  0  0  0  0  0  0  0  0  0  0  0
  -32.6130  -18.4050   19.5760 H   0  0  0  0  0  0  0  0  0  0  0  0
  -25.5070  -13.9480   20.4020 C   0  0  0  0  0  0  0  0  0  0  0  0
  -24.4200  -13.2060   20.7690 C   0  0  0  0  0  0  0  0  0  0  0  0
  -24.8500  -11.8430   20.7540 C   0  0  0  0  0  0  0  0  0  0  0  0
  -26.5310  -13.0440   20.1820 N   0  0  0  0  0  0  0  0  0  0  0  0
  -26.1400  -11.7750   20.4540 N   0  0  0  0  0  0  0  0  0  0  0  0
  -24.0930  -10.5990   20.9490 C   0  0  0  0  0  0  0  0  0  0  0  0
  -24.4900   -9.6390   21.9050 C   0  0  0  0  0  3  0  0  0  0  0  0
  -23.7360   -8.4610   22.0890 C   0  0  0  0  0  3  0  0  0  0  0  0
  -22.5720   -8.2350   21.3180 C   0  0  0  0  0  0  0  0  0  0  0  0
  -22.1960   -9.1840   20.3530 C   0  0  0  0  0  3  0  0  0  0  0  0
  -22.9470  -10.3560   20.1650 C   0  0  0  0  0  3  0  0  0  0  0  0
  -21.7960   -7.1040   21.4080 O   0  0  0  0  0  0  0  0  0  0  0  0
  -21.7030   -6.3870   22.5730 C   0  0  0  0  0  0  0  0  0  0  0  0
  -21.2310   -6.9690   23.7680 C   0  0  0  0  0  3  0  0  0  0  0  0
  -21.0830   -6.1810   24.9270 C   0  0  0  0  0  3  0  0  0  0  0  0
  -21.3970   -4.8090   24.8930 C   0  0  0  0  0  0  0  0  0  0  0  0
  -21.8610   -4.2250   23.6980 C   0  0  0  0  0  3  0  0  0  0  0  0
  -22.0100   -5.0110   22.5420 C   0  0  0  0  0  0  0  0  0  0  0  0
  -22.4370   -4.4390   21.3900 F   0  0  0  0  0  0  0  0  0  0  0  0
  -21.2480   -4.0490   26.0020 F   0  0  0  0  0  0  0  0  0  0  0  0
  -23.0310  -13.7170   21.0250 C   0  0  0  0  0  0  0  0  0  0  0  0
  -22.2910  -13.0530   21.9030 N   0  0  0  0  0  0  0  0  0  0  0  0
  -22.6180  -14.7430   20.4820 O   0  0  0  0  0  0  0  0  0  0  0  0
  -22.6390  -12.2170   22.3500 H   0  0  0  0  0  0  0  0  0  0  0  0
  -21.3610  -13.3730   22.1250 H   0  0  0  0  0  0  0  0  0  0  0  0
  -25.6980  -15.3130   20.2090 N   0  0  0  0  0  0  0  0  0  0  0  0
  -24.9530  -15.9890   20.3480 H   0  0  0  0  0  0  0  0  0  0  0  0
  -26.5680  -15.7260   19.8980 H   0  0  0  0  0  0  0  0  0  0  0  0
  -28.1280  -23.2020   19.1120 C   0  0  0  0  0  2  0  0  0  0  0  0
  -28.2360  -24.3840   20.1060 C   0  0  0  0  0  2  0  0  0  0  0  0
  -28.7330  -25.6710   19.4080 C   0  0  0  0  0  2  0  0  0  0  0  0
  -28.5720  -26.8420   20.2170 O   0  0  0  0  0  0  0  0  0  0  0  0
  -24.5890  -31.8980   23.2700 C   0  0  0  0  0  0  0  0  0  0  0  0
  -27.3620  -27.5100   20.2050 C   0  0  0  0  0  0  0  0  0  0  0  0
  -23.4420  -30.4940   21.5940 C   0  0  0  0  0  3  0  0  0  0  0  0
  -24.9420  -28.9860   20.1910 C   0  0  0  0  0  0  0  0  0  0  0  0
  -25.9650  -30.8800   21.4540 C   0  0  0  0  0  2  0  0  0  0  0  0
  -26.0800  -29.5110   20.8140 C   0  0  0  0  0  0  0  0  0  0  0  0
  -27.2890  -28.7780   20.8230 C   0  0  0  0  0  3  0  0  0  0  0  0
  -26.1980  -26.9940   19.5900 C   0  0  0  0  0  3  0  0  0  0  0  0
  -24.9960  -27.7220   19.5820 C   0  0  0  0  0  3  0  0  0  0  0  0
  -23.6890  -29.8300   20.2130 C   0  0  0  0  0  2  0  0  0  0  0  0
  -24.6840  -31.1050   22.1640 N   0  0  0  0  0  0  0  0  0  0  0  0
  -23.4940  -32.1550   23.7830 O   0  0  0  0  0  0  0  0  0  0  0  0
  -22.7840  -29.4560   22.5300 C   0  0  0  0  0  0  0  0  0  0  0  0
  -21.4600  -29.2770   22.3830 N   0  0  0  0  0  0  0  0  0  0  0  0
  -23.4580  -28.8180   23.3400 O   0  0  0  0  0  0  0  0  0  0  0  0
  -20.9750  -29.8440   21.7020 H   0  0  0  0  0  0  0  0  0  0  0  0
  -18.0740  -28.1190   22.8630 C   0  0  0  0  0  0  0  0  0  0  0  0
  -20.6370  -28.3300   23.1330 C   0  0  0  0  0  3  0  0  0  0  0  0
  -20.7170  -26.9170   22.5150 C   0  0  0  0  0  2  0  0  0  0  0  0
  -19.6060  -26.6390   21.4970 C   0  0  0  0  0  2  0  0  0  0  0  0
  -18.2270  -26.7870   22.1490 C   0  0  0  0  0  2  0  0  0  0  0  0
  -19.2060  -28.8500   23.3120 C   0  0  0  0  0  0  0  0  0  0  0  0
  -19.0060  -30.0980   23.9390 C   0  0  0  0  0  3  0  0  0  0  0  0
  -17.7100  -30.6160   24.1250 C   0  0  0  0  0  3  0  0  0  0  0  0
  -16.5930  -29.8820   23.6900 C   0  0  0  0  0  3  0  0  0  0  0  0
  -16.7770  -28.6350   23.0610 C   0  0  0  0  0  3  0  0  0  0  0  0
  -25.8530  -32.5370   23.9240 C   0  0  0  0  0  3  0  0  0  0  0  0
  -26.3240  -31.7840   25.2300 C   0  0  1  0  0  0  0  0  0  0  0  0
  -25.1870  -31.5540   26.2550 C   0  0  0  0  0  1  0  0  0  0  0  0
  -26.9280  -30.4040   24.8760 C   0  0  0  0  0  1  0  0  0  0  0  0
  -27.4480  -32.5910   25.9240 C   0  0  0  0  0  1  0  0  0  0  0  0
  -25.5300  -33.9390   24.2160 N   0  0  0  0  0  0  0  0  0  0  0  0
  -25.8940  -34.9770   23.4540 C   0  0  0  0  0  0  0  0  0  0  0  0
  -26.6080  -34.8570   22.4540 O   0  0  0  0  0  0  0  0  0  0  0  0
  -24.8700  -34.1020   24.9630 H   0  0  0  0  0  0  0  0  0  0  0  0
  -24.1840  -36.7660   22.9920 C   0  0  0  0  0  1  0  0  0  0  0  0
  -25.3880  -36.3720   23.8620 C   0  0  0  0  0  3  0  0  0  0  0  0
  -27.4820  -37.2690   24.7770 C   0  0  0  0  0  1  0  0  0  0  0  0
  -26.4240  -37.4230   23.7830 N   0  0  0  0  0  0  0  0  0  0  0  0
  -26.0130  -38.3440   23.9040 H   0  0  0  0  0  0  0  0  0  0  0  0
  2  5  1  0
  3  1  1  0
  4  2  1  0
  4  6  1  0
  5  8  1  0
  5  1  1  0
  6  7  1  1
  6  3  1  0
  9 15  1  0
 10 15  1  0
 11 12  1  0
 11 10  1  0
 13 12  1  0
 13 28  1  0
 13 14  1  0
 15 14  1  0
 16  9  2  0
 17 21  1  0
 18 17  1  0
 18 22  1  0
 20  8  1  0
 20 19  1  0
 21  9  1  0
 21 20  1  0
 22 24  1  0
 22 19  1  0
 23 22  1  0
 25 26  2  0
 26 45  1  0
 27 26  1  0
 27 30  1  0
 28 25  1  0
 28 29  1  0
 29 27  2  0
 30 31  1  0
 31 32  2  0
 33 36  1  0
 33 32  1  0
 34 33  2  0
 35 34  1  0
 35 30  2  0
 36 37  1  0
 37 38  1  0
 38 39  2  0
 40 39  1  0
 40 44  1  0
 41 40  2  0
 42 37  2  0
 42 41  1  0
 43 42  1  0
 45 46  1  0
 46 49  1  0
 46 48  1  0
 47 45  2  0
 50 51  1  0
 50 25  1  0
 52 50  1  0
 53  6  1  0
 53 54  1  0
 55 54  1  0
 55 56  1  0
 57 68  2  0
 58 56  1  0
 58 63  1  0
 59 67  1  0
 59 69  1  0
 60 66  1  0
 60 62  1  0
 61 67  1  0
 62 63  2  0
 62 61  1  0
 64 58  2  0
 65 64  1  0
 65 60  2  0
 66 59  1  0
 67 57  1  0
 69 71  2  0
 70 69  1  0
 72 70  1  0
 73 82  2  0
 73 78  1  0
 74 70  1  0
 74 78  1  0
 75 74  1  0
 76 77  1  0
 76 75  1  0
 77 73  1  0
 78 79  2  0
 79 80  1  0
 81 80  2  0
 82 81  1  0
 83 57  1  0
 83 88  1  0
 83 84  1  0
 84 87  1  1
 84 85  1  0
 86 84  1  0
 88 91  1  0
 89 93  1  0
 89 88  1  0
 90 89  2  0
 93 92  1  0
 95 93  1  0
 95 96  1  0
 95 94  1  0
M  ISO  4   9 100  21 100  55 101  56 101
M  END
>  <TORSDO>  (95) 
F 20

>  <SCORE>  (95) 
-13.729

>  <name>  (95) 
94

>  <ligand_id>  (95) 
94

>  <original_smiles>  (95) 
[H]c1c([H])c([H])c2c(c1[H])C([H])([H])C([H])([H])C([H])([H])C2([H])N([H])C(=O)C1([H])N(C(=O)C([H])(N([H])C(=O)C([H])(N([H])C([H])([H])[H])C([H])([H])[H])C(C([H])([H])[H])(C([H])([H])[H])C([H])([H])[H])C([H])([H])c2c([H])c(OC([H])([H])C([H])([H])C([H])([H])[N+]3([H])C([H])([H])C([H])([H])C([H])(C([H])([H])C4([H])N(C(=O)N5C([H])([H])C([H])([H])C([H])([H])C([H])(n6nc(-c7c([H])c([H])c(Oc8c([H])c([H])c(F)c([H])c8F)c([H])c7[H])c(C(=O)N([H])[H])c6N([H])[H])C5([H])[H])C([H])([H])C([H])([H])[N+]([H])([H])C4([H])[H])C([H])([H])C3([H])[H])c([H])c([H])c2C1([H])[H]

>  <smiles>  (95) 
[H]c1c([H])c([H])c2c(c1[H])C([H])([H])C([H])([H])C([H])([H])C2([H])N([H])C(=O)C1([H])N(C(=O)C([H])(N([H])C(=O)C([H])(N([H])C([H])([H])[H])C([H])([H])[H])C(C([H])([H])[H])(C([H])([H])[H])C([H])([H])[H])C([H])([H])c2c([H])c(OC([H])([H])C([H])([H])C([H])([H])[N+]3([H])C([H])([H])C([H])([H])C([H])(C([H])([H])C4([H])N(C(=O)N5C([H])([H])C([H])([H])C([H])([H])C([H])(n6nc(-c7c([H])c([H])c(Oc8c([H])c([H])c(F)c([H])c8F)c([H])c7[H])c(C(=O)N([H])[H])c6N([H])[H])C5([H])[H])C([H])([H])C([H])([H])[N+]([H])([H])C4([H])[H])C([H])([H])C3([H])[H])c([H])c([H])c2C1([H])[H]

$$$$
95:0:0
     RDKit          3D

 90 98  0  0  1  0  0  0  0  0999 V2000
  -29.5130  -20.2170   20.1160 C   0  0  0  0  0  0  0  0  0  0  0  0
  -29.2470  -20.0410   18.6080 C   0  0  0  0  0  2  0  0  0  0  0  0
  -29.7390  -18.7000   17.9960 C   0  0  0  0  0  2  0  0  0  0  0  0
  -30.5010  -17.8160   18.9980 C   0  0  0  0  0  2  0  0  0  0  0  0
  -29.7700  -17.8500   20.3480 C   0  0  0  0  0  3  0  0  0  0  0  0
  -29.7810  -19.2210   20.8850 N   0  0  0  0  0  0  0  0  0  0  0  0
  -29.4280  -21.6550   20.6970 C   0  0  0  0  0  3  0  0  0  0  0  0
  -29.3290  -22.8500   19.6930 C   0  0  0  0  0  3  0  0  0  0  0  0
  -29.3960  -24.2880   20.3110 C   0  0  0  0  0  2  0  0  0  0  0  0
  -28.2180  -25.2090   19.8910 C   0  0  0  0  0  2  0  0  0  0  0  0
  -28.3560  -26.6190   20.2020 O   0  0  0  0  0  0  0  0  0  0  0  0
  -24.5900  -31.8860   23.2340 C   0  0  0  0  0  0  0  0  0  0  0  0
  -27.2010  -27.3930   20.1560 C   0  0  0  0  0  0  0  0  0  0  0  0
  -23.3760  -30.4880   21.5980 C   0  0  0  0  0  3  0  0  0  0  0  0
  -24.8210  -28.9480   20.1690 C   0  0  0  0  0  0  0  0  0  0  0  0
  -25.9090  -30.8260   21.4020 C   0  0  0  0  0  2  0  0  0  0  0  0
  -25.9890  -29.4550   20.7550 C   0  0  0  0  0  0  0  0  0  0  0  0
  -27.1810  -28.6840   20.7490 C   0  0  0  0  0  3  0  0  0  0  0  0
  -26.0110  -26.9250   19.5510 C   0  0  0  0  0  3  0  0  0  0  0  0
  -24.8300  -27.6850   19.5650 C   0  0  0  0  0  3  0  0  0  0  0  0
  -23.5810  -29.8140   20.2180 C   0  0  0  0  0  2  0  0  0  0  0  0
  -24.6440  -31.0800   22.1360 N   0  0  0  0  0  0  0  0  0  0  0  0
  -23.5120  -32.1630   23.7770 O   0  0  0  0  0  0  0  0  0  0  0  0
  -22.7230  -29.4680   22.5590 C   0  0  0  0  0  0  0  0  0  0  0  0
  -21.3980  -29.2900   22.4340 N   0  0  0  0  0  0  0  0  0  0  0  0
  -23.4060  -28.8440   23.3750 O   0  0  0  0  0  0  0  0  0  0  0  0
  -20.9050  -29.8330   21.7400 H   0  0  0  0  0  0  0  0  0  0  0  0
  -18.0230  -28.1000   22.9450 C   0  0  0  0  0  0  0  0  0  0  0  0
  -20.5820  -28.3570   23.2120 C   0  0  0  0  0  3  0  0  0  0  0  0
  -20.6830  -26.9240   22.6420 C   0  0  0  0  0  2  0  0  0  0  0  0
  -19.5790  -26.5980   21.6300 C   0  0  0  0  0  2  0  0  0  0  0  0
  -18.1970  -26.7490   22.2740 C   0  0  0  0  0  2  0  0  0  0  0  0
  -19.1430  -28.8630   23.3710 C   0  0  0  0  0  0  0  0  0  0  0  0
  -18.9250  -30.1300   23.9560 C   0  0  0  0  0  3  0  0  0  0  0  0
  -17.6220  -30.6350   24.1180 C   0  0  0  0  0  3  0  0  0  0  0  0
  -16.5170  -29.8700   23.7090 C   0  0  0  0  0  3  0  0  0  0  0  0
  -16.7170  -28.6030   23.1290 C   0  0  0  0  0  3  0  0  0  0  0  0
  -25.8800  -32.5140   23.8480 C   0  0  0  0  0  3  0  0  0  0  0  0
  -25.5740  -33.9110   24.1850 N   0  0  0  0  0  0  0  0  0  0  0  0
  -25.9000  -34.9640   23.4260 C   0  0  0  0  0  0  0  0  0  0  0  0
  -26.5580  -34.8680   22.3860 O   0  0  0  0  0  0  0  0  0  0  0  0
  -24.9930  -34.0630   24.9970 H   0  0  0  0  0  0  0  0  0  0  0  0
  -24.1620  -36.7520   23.0960 C   0  0  0  0  0  1  0  0  0  0  0  0
  -25.4140  -36.3510   23.8950 C   0  0  0  0  0  3  0  0  0  0  0  0
  -27.5560  -37.2320   24.7020 C   0  0  0  0  0  1  0  0  0  0  0  0
  -26.4420  -37.4050   23.7720 N   0  0  0  0  0  0  0  0  0  0  0  0
  -26.0370  -38.3230   23.9360 H   0  0  0  0  0  0  0  0  0  0  0  0
  -26.4120  -31.7360   25.1140 C   0  0  1  0  0  0  0  0  0  0  0  0
  -25.3290  -31.4910   26.1890 C   0  0  0  0  0  1  0  0  0  0  0  0
  -26.9920  -30.3620   24.7070 C   0  0  0  0  0  1  0  0  0  0  0  0
  -27.5710  -32.5280   25.7640 C   0  0  0  0  0  1  0  0  0  0  0  0
  -30.3800  -16.8480   21.3710 C   0  0  0  0  0  2  0  0  0  0  0  0
  -30.6680  -14.4720   20.5320 C   0  0  0  0  0  0  0  0  0  0  0  0
  -30.3850  -12.3260   19.3390 C   0  0  0  0  0  2  0  0  0  0  0  0
  -29.4450  -12.5240   18.1310 C   0  0  0  0  0  2  0  0  0  0  0  0
  -27.9640  -12.4080   18.5560 C   0  0  0  0  0  2  0  0  0  0  0  0
  -27.6240  -13.2380   19.8250 C   0  0  0  0  0  3  0  0  0  0  0  0
  -28.6720  -12.9880   20.9340 C   0  0  0  0  0  2  0  0  0  0  0  0
  -29.9990  -13.2990   20.3740 N   0  0  0  0  0  0  0  0  0  0  0  0
  -31.7900  -14.6740   20.0590 O   0  0  0  0  0  0  0  0  0  0  0  0
  -29.9720  -15.4520   21.1370 N   0  0  0  0  0  0  0  0  0  0  0  0
  -29.0540  -15.1870   21.4690 H   0  0  0  0  0  0  0  0  0  0  0  0
  -25.2210  -13.8560   20.5170 C   0  0  0  0  0  0  0  0  0  0  0  0
  -24.1480  -13.0910   20.8840 C   0  0  0  0  0  0  0  0  0  0  0  0
  -24.6040  -11.7380   20.8670 C   0  0  0  0  0  0  0  0  0  0  0  0
  -26.2650  -12.9720   20.2970 N   0  0  0  0  0  0  0  0  0  0  0  0
  -25.8950  -11.6930   20.5620 N   0  0  0  0  0  0  0  0  0  0  0  0
  -23.8690  -10.4820   21.0650 C   0  0  0  0  0  0  0  0  0  0  0  0
  -24.3100   -9.5100   21.9860 C   0  0  0  0  0  3  0  0  0  0  0  0
  -23.5790   -8.3160   22.1710 C   0  0  0  0  0  3  0  0  0  0  0  0
  -22.3930   -8.0870   21.4340 C   0  0  0  0  0  0  0  0  0  0  0  0
  -21.9700   -9.0490   20.5000 C   0  0  0  0  0  3  0  0  0  0  0  0
  -22.7010  -10.2340   20.3150 C   0  0  0  0  0  3  0  0  0  0  0  0
  -21.6360   -6.9450   21.5250 O   0  0  0  0  0  0  0  0  0  0  0  0
  -21.6160   -6.1830   22.6660 C   0  0  0  0  0  0  0  0  0  0  0  0
  -21.2540   -6.7250   23.9190 C   0  0  0  0  0  3  0  0  0  0  0  0
  -21.1790   -5.8920   25.0530 C   0  0  0  0  0  3  0  0  0  0  0  0
  -21.4600   -4.5170   24.9360 C   0  0  0  0  0  0  0  0  0  0  0  0
  -21.8170   -3.9740   23.6890 C   0  0  0  0  0  3  0  0  0  0  0  0
  -21.8930   -4.8070   22.5570 C   0  0  0  0  0  0  0  0  0  0  0  0
  -22.2160   -4.2750   21.3530 F   0  0  0  0  0  0  0  0  0  0  0  0
  -21.3820   -3.7120   26.0220 F   0  0  0  0  0  0  0  0  0  0  0  0
  -22.7510  -13.5770   21.1440 C   0  0  0  0  0  0  0  0  0  0  0  0
  -22.0130  -12.8980   22.0140 N   0  0  0  0  0  0  0  0  0  0  0  0
  -22.3200  -14.5990   20.6120 O   0  0  0  0  0  0  0  0  0  0  0  0
  -22.3710  -12.0740   22.4740 H   0  0  0  0  0  0  0  0  0  0  0  0
  -21.0760  -13.2090   22.2270 H   0  0  0  0  0  0  0  0  0  0  0  0
  -25.3880  -15.2260   20.3400 N   0  0  0  0  0  0  0  0  0  0  0  0
  -24.6100  -15.8660   20.4490 H   0  0  0  0  0  0  0  0  0  0  0  0
  -26.2360  -15.6820   20.0280 H   0  0  0  0  0  0  0  0  0  0  0  0
  1  7  1  0
  1  6  2  0
  2  1  1  0
  3  2  1  0
  3  4  1  0
  4  5  1  0
  5  6  1  0
  5 52  1  0
  8  9  1  0
  8  7  2  0
 10 11  1  0
 10  9  1  0
 12 23  2  0
 13 11  1  0
 13 18  1  0
 14 22  1  0
 14 24  1  0
 15 21  1  0
 15 17  1  0
 16 22  1  0
 17 16  1  0
 18 17  2  0
 19 20  1  0
 19 13  2  0
 20 15  2  0
 21 14  1  0
 22 12  1  0
 24 26  2  0
 25 24  1  0
 27 25  1  0
 28 37  2  0
 28 33  1  0
 29 25  1  0
 29 33  1  0
 30 29  1  0
 31 32  1  0
 31 30  1  0
 32 28  1  0
 33 34  2  0
 34 35  1  0
 36 35  2  0
 37 36  1  0
 38 12  1  0
 38 39  1  0
 38 48  1  0
 39 42  1  0
 40 44  1  0
 40 39  1  0
 41 40  2  0
 44 43  1  0
 46 44  1  0
 46 47  1  0
 46 45  1  0
 48 51  1  1
 48 49  1  0
 50 48  1  0
 53 61  1  0
 54 59  1  0
 55 56  1  0
 55 54  1  0
 57 56  1  0
 57 66  1  0
 57 58  1  0
 59 53  1  0
 59 58  1  0
 60 53  2  0
 61 52  1  0
 61 62  1  0
 63 64  2  0
 64 83  1  0
 65 64  1  0
 65 68  1  0
 66 63  1  0
 66 67  1  0
 67 65  2  0
 68 69  1  0
 69 70  2  0
 71 74  1  0
 71 70  1  0
 72 71  2  0
 73 72  1  0
 73 68  2  0
 74 75  1  0
 75 76  1  0
 76 77  2  0
 78 77  1  0
 78 82  1  0
 79 78  2  0
 80 75  2  0
 80 79  1  0
 81 80  1  0
 83 84  1  0
 84 87  1  0
 84 86  1  0
 85 83  2  0
 88 89  1  0
 88 63  1  0
 90 88  1  0
M  ISO  4  10 101  11 101  53 100  61 100
M  END
>  <TORSDO>  (96) 
F 21

>  <SCORE>  (96) 
-13.587

>  <name>  (96) 
95

>  <ligand_id>  (96) 
95

>  <original_smiles>  (96) 
[H]c1c([H])c([H])c2c(c1[H])C([H])([H])C([H])([H])C([H])([H])C2([H])N([H])C(=O)C1([H])N(C(=O)C([H])(N([H])C(=O)C([H])(N([H])C([H])([H])[H])C([H])([H])[H])C(C([H])([H])[H])(C([H])([H])[H])C([H])([H])[H])C([H])([H])c2c([H])c(OC([H])([H])C([H])([H])C([H])([H])C([H])([H])C3=NC([H])(C([H])([H])N([H])C(=O)N4C([H])([H])C([H])([H])C([H])([H])C([H])(n5nc(-c6c([H])c([H])c(Oc7c([H])c([H])c(F)c([H])c7F)c([H])c6[H])c(C(=O)N([H])[H])c5N([H])[H])C4([H])[H])C([H])([H])C([H])([H])C3([H])[H])c([H])c([H])c2C1([H])[H]

>  <smiles>  (96) 
[H]c1c([H])c([H])c2c(c1[H])C([H])([H])C([H])([H])C([H])([H])C2([H])N([H])C(=O)C1([H])N(C(=O)C([H])(N([H])C(=O)C([H])(N([H])C([H])([H])[H])C([H])([H])[H])C(C([H])([H])[H])(C([H])([H])[H])C([H])([H])[H])C([H])([H])c2c([H])c(OC([H])([H])C([H])([H])C([H])([H])C([H])([H])C3=NC([H])(C([H])([H])N([H])C(=O)N4C([H])([H])C([H])([H])C([H])([H])C([H])(n5nc(-c6c([H])c([H])c(Oc7c([H])c([H])c(F)c([H])c7F)c([H])c6[H])c(C(=O)N([H])[H])c5N([H])[H])C4([H])[H])C([H])([H])C([H])([H])C3([H])[H])c([H])c([H])c2C1([H])[H]

$$$$
96:0:0
     RDKit          3D

106115  0  0  1  0  0  0  0  0999 V2000
  -27.2100  -19.0380   19.4140 C   0  0  0  0  0  2  0  0  0  0  0  0
  -27.9720  -20.9720   17.8830 C   0  0  0  0  0  2  0  0  0  0  0  0
  -26.9030  -19.8830   18.1490 C   0  0  0  0  0  3  0  0  0  0  0  0
  -28.6980  -18.6250   19.5350 C   0  0  0  0  0  3  0  0  0  0  0  0
  -29.6120  -19.8850   19.4020 C   0  0  0  0  0  3  0  0  0  0  0  0
  -29.3500  -20.4610   18.0590 N   0  0  0  0  0  4  0  0  0  0  0  0
  -30.0130  -21.1840   17.8370 H   0  0  0  0  0  0  0  0  0  0  0  0
  -29.4980  -19.7360   17.3730 H   0  0  0  0  0  0  0  0  0  0  0  0
  -25.4860  -20.4900   18.2770 C   0  0  0  0  0  2  0  0  0  0  0  0
  -25.0420  -21.4290   17.1390 C   0  0  0  0  0  2  0  0  0  0  0  0
  -23.6200  -21.9690   17.3900 C   0  0  0  0  0  2  0  0  0  0  0  0
  -23.1330  -23.0220   16.3760 C   0  0  0  0  0  2  0  0  0  0  0  0
  -22.7300  -22.4350   15.0880 N   0  0  0  0  0  4  0  0  0  0  0  0
  -23.4920  -21.9480   14.6520 H   0  0  0  0  0  0  0  0  0  0  0  0
  -22.4280  -23.1660   14.4670 H   0  0  0  0  0  0  0  0  0  0  0  0
  -21.9610  -21.8000   15.2110 H   0  0  0  0  0  0  0  0  0  0  0  0
  -28.9440  -17.7220   20.7740 C   0  0  0  0  0  2  0  0  0  0  0  0
  -30.2430  -16.8730   20.7270 C   0  0  0  0  0  2  0  0  0  0  0  0
  -30.6670  -14.4470   20.2450 C   0  0  0  0  0  0  0  0  0  0  0  0
  -30.3460  -12.3120   19.0590 C   0  0  0  0  0  2  0  0  0  0  0  0
  -29.3710  -12.5490   17.8870 C   0  0  0  0  0  2  0  0  0  0  0  0
  -27.9070  -12.4220   18.3510 C   0  0  0  0  0  2  0  0  0  0  0  0
  -27.6120  -13.2380   19.6370 C   0  0  0  0  0  3  0  0  0  0  0  0
  -28.6870  -12.9680   20.7160 C   0  0  0  0  0  2  0  0  0  0  0  0
  -30.0030  -13.2670   20.1250 N   0  0  0  0  0  0  0  0  0  0  0  0
  -31.7710  -14.6570   19.7320 O   0  0  0  0  0  0  0  0  0  0  0  0
  -29.9560  -15.4360   20.8120 N   0  0  0  0  0  0  0  0  0  0  0  0
  -29.0730  -15.1690   21.2200 H   0  0  0  0  0  0  0  0  0  0  0  0
  -25.2340  -13.8740   20.4000 C   0  0  0  0  0  0  0  0  0  0  0  0
  -24.1650  -13.1140   20.7940 C   0  0  0  0  0  0  0  0  0  0  0  0
  -24.6110  -11.7570   20.7540 C   0  0  0  0  0  0  0  0  0  0  0  0
  -26.2640  -12.9820   20.1430 N   0  0  0  0  0  0  0  0  0  0  0  0
  -25.8940  -11.7040   20.4150 N   0  0  0  0  0  0  0  0  0  0  0  0
  -23.8800  -10.5020   20.9640 C   0  0  0  0  0  0  0  0  0  0  0  0
  -24.3170   -9.5380   21.8980 C   0  0  0  0  0  3  0  0  0  0  0  0
  -23.5860   -8.3450   22.0910 C   0  0  0  0  0  3  0  0  0  0  0  0
  -22.4040   -8.1090   21.3470 C   0  0  0  0  0  0  0  0  0  0  0  0
  -21.9870   -9.0640   20.4020 C   0  0  0  0  0  3  0  0  0  0  0  0
  -22.7200  -10.2460   20.2070 C   0  0  0  0  0  3  0  0  0  0  0  0
  -21.6450   -6.9680   21.4470 O   0  0  0  0  0  0  0  0  0  0  0  0
  -21.5880   -6.2400   22.6100 C   0  0  0  0  0  0  0  0  0  0  0  0
  -21.1610   -6.8140   23.8260 C   0  0  0  0  0  3  0  0  0  0  0  0
  -21.0520   -6.0120   24.9810 C   0  0  0  0  0  3  0  0  0  0  0  0
  -21.3610   -4.6410   24.9190 C   0  0  0  0  0  0  0  0  0  0  0  0
  -21.7810   -4.0670   23.7060 C   0  0  0  0  0  3  0  0  0  0  0  0
  -21.8910   -4.8660   22.5550 C   0  0  0  0  0  0  0  0  0  0  0  0
  -22.2770   -4.3060   21.3820 F   0  0  0  0  0  0  0  0  0  0  0  0
  -21.2490   -3.8700   26.0270 F   0  0  0  0  0  0  0  0  0  0  0  0
  -22.7800  -13.6050   21.0990 C   0  0  0  0  0  0  0  0  0  0  0  0
  -22.0570  -12.9140   21.9790 N   0  0  0  0  0  0  0  0  0  0  0  0
  -22.3420  -14.6370   20.5920 O   0  0  0  0  0  0  0  0  0  0  0  0
  -22.4220  -12.0820   22.4210 H   0  0  0  0  0  0  0  0  0  0  0  0
  -21.1330  -13.2370   22.2260 H   0  0  0  0  0  0  0  0  0  0  0  0
  -25.4120  -15.2430   20.2190 N   0  0  0  0  0  0  0  0  0  0  0  0
  -24.6540  -15.9050   20.3410 H   0  0  0  0  0  0  0  0  0  0  0  0
  -26.2520  -15.6650   19.8510 H   0  0  0  0  0  0  0  0  0  0  0  0
  -29.4300  -20.9310   20.5560 C   0  0  0  0  0  2  0  0  0  0  0  0
  -30.1010  -22.3190   20.3680 C   0  0  0  0  0  2  0  0  0  0  0  0
  -30.1590  -24.8510   22.8900 C   0  0  0  0  0  2  0  0  0  0  0  0
  -30.3760  -25.5460   21.5470 C   0  0  0  0  0  2  0  0  0  0  0  0
  -29.6450  -23.4440   22.5540 C   0  0  0  0  0  2  0  0  0  0  0  0
  -29.5210  -24.7700   20.5320 C   0  0  0  0  0  3  0  0  0  0  0  0
  -29.3670  -23.3950   21.0960 N   0  0  1  0  0  4  0  0  0  0  0  0
  -28.3880  -23.1650   21.0010 H   0  0  0  0  0  0  0  0  0  0  0  0
  -28.1290  -25.3930   20.2670 C   0  0  0  0  0  2  0  0  0  0  0  0
  -28.2280  -26.7510   19.8320 O   0  0  0  0  0  0  0  0  0  0  0  0
  -24.5070  -31.8450   23.1070 C   0  0  0  0  0  0  0  0  0  0  0  0
  -27.0490  -27.4600   19.8730 C   0  0  0  0  0  0  0  0  0  0  0  0
  -23.2460  -30.4710   21.4800 C   0  0  0  0  0  3  0  0  0  0  0  0
  -24.6510  -28.9540   19.9870 C   0  0  0  0  0  0  0  0  0  0  0  0
  -25.7650  -30.8300   21.2120 C   0  0  0  0  0  2  0  0  0  0  0  0
  -25.8280  -29.4720   20.5420 C   0  0  0  0  0  0  0  0  0  0  0  0
  -27.0290  -28.7360   20.4780 C   0  0  0  0  0  3  0  0  0  0  0  0
  -25.8560  -26.9500   19.3130 C   0  0  0  0  0  3  0  0  0  0  0  0
  -24.6590  -27.6910   19.3670 C   0  0  0  0  0  3  0  0  0  0  0  0
  -23.4090  -29.8100   20.0850 C   0  0  0  0  0  2  0  0  0  0  0  0
  -24.5250  -31.0600   21.9910 N   0  0  0  0  0  0  0  0  0  0  0  0
  -23.4430  -32.1120   23.6830 O   0  0  0  0  0  0  0  0  0  0  0  0
  -22.6180  -29.4380   22.4420 C   0  0  0  0  0  0  0  0  0  0  0  0
  -21.2890  -29.2660   22.3500 N   0  0  0  0  0  0  0  0  0  0  0  0
  -23.3220  -28.7920   23.2230 O   0  0  0  0  0  0  0  0  0  0  0  0
  -20.7840  -29.8400   21.6880 H   0  0  0  0  0  0  0  0  0  0  0  0
  -17.9220  -28.0860   22.9090 C   0  0  0  0  0  0  0  0  0  0  0  0
  -20.4870  -28.3210   23.1230 C   0  0  0  0  0  3  0  0  0  0  0  0
  -20.5650  -26.8990   22.5200 C   0  0  0  0  0  2  0  0  0  0  0  0
  -19.4370  -26.6010   21.5280 C   0  0  0  0  0  2  0  0  0  0  0  0
  -18.0720  -26.7460   22.2090 C   0  0  0  0  0  2  0  0  0  0  0  0
  -19.0560  -28.8340   23.3230 C   0  0  0  0  0  0  0  0  0  0  0  0
  -18.8610  -30.0910   23.9360 C   0  0  0  0  0  3  0  0  0  0  0  0
  -17.5650  -30.5980   24.1410 C   0  0  0  0  0  3  0  0  0  0  0  0
  -16.4460  -29.8450   23.7470 C   0  0  0  0  0  3  0  0  0  0  0  0
  -16.6250  -28.5920   23.1360 C   0  0  0  0  0  3  0  0  0  0  0  0
  -25.8140  -32.4560   23.6990 C   0  0  0  0  0  3  0  0  0  0  0  0
  -26.3710  -31.6520   24.9380 C   0  0  1  0  0  0  0  0  0  0  0  0
  -25.3120  -31.3960   26.0360 C   0  0  0  0  0  1  0  0  0  0  0  0
  -26.9350  -30.2830   24.4910 C   0  0  0  0  0  1  0  0  0  0  0  0
  -27.5510  -32.4250   25.5760 C   0  0  0  0  0  1  0  0  0  0  0  0
  -25.5230  -33.8470   24.0690 N   0  0  0  0  0  0  0  0  0  0  0  0
  -25.8540  -34.9150   23.3310 C   0  0  0  0  0  0  0  0  0  0  0  0
  -26.5100  -34.8310   22.2880 O   0  0  0  0  0  0  0  0  0  0  0  0
  -24.9410  -33.9860   24.8830 H   0  0  0  0  0  0  0  0  0  0  0  0
  -24.1450  -36.7330   23.0330 C   0  0  0  0  0  1  0  0  0  0  0  0
  -25.3850  -36.2940   23.8290 C   0  0  0  0  0  3  0  0  0  0  0  0
  -27.5340  -37.1270   24.6740 C   0  0  0  0  0  1  0  0  0  0  0  0
  -26.4300  -37.3380   23.7420 N   0  0  0  0  0  0  0  0  0  0  0  0
  -26.0360  -38.2570   23.9210 H   0  0  0  0  0  0  0  0  0  0  0  0
  1  4  1  0
  2  6  1  0
  2  3  1  0
  3  9  1  0
  3  1  1  0
  4 17  1  0
  5  4  1  0
  5 57  1  0
  6  5  1  0
  7  6  1  0
  8  6  1  0
 10 11  1  0
 10  9  1  0
 12 11  1  0
 13 16  1  0
 13 12  1  0
 14 13  1  0
 15 13  1  0
 18 17  1  0
 18 27  1  0
 19 27  1  0
 20 25  1  0
 21 22  1  0
 21 20  1  0
 23 22  1  0
 23 32  1  0
 23 24  1  0
 25 19  1  0
 25 24  1  0
 26 19  2  0
 27 28  1  0
 29 30  2  0
 30 49  1  0
 31 30  1  0
 31 34  1  0
 32 29  1  0
 32 33  1  0
 33 31  2  0
 34 35  1  0
 35 36  2  0
 37 40  1  0
 37 36  1  0
 38 37  2  0
 39 38  1  0
 39 34  2  0
 40 41  1  0
 41 42  1  0
 42 43  2  0
 44 43  1  0
 44 48  1  0
 45 44  2  0
 46 41  2  0
 46 45  1  0
 47 46  1  0
 49 50  1  0
 50 53  1  0
 50 52  1  0
 51 49  2  0
 54 55  1  0
 54 29  1  0
 56 54  1  0
 58 57  1  0
 58 63  1  0
 60 59  1  0
 61 59  1  0
 62 65  1  0
 62 63  1  0
 62 60  1  0
 63 61  1  0
 63 64  1  1
 66 68  1  0
 66 65  1  0
 67 78  2  0
 68 73  1  0
 69 77  1  0
 69 79  1  0
 70 76  1  0
 70 72  1  0
 71 77  1  0
 72 71  1  0
 73 72  2  0
 74 75  1  0
 74 68  2  0
 75 70  2  0
 76 69  1  0
 77 67  1  0
 79 81  2  0
 80 79  1  0
 82 80  1  0
 83 92  2  0
 83 88  1  0
 84 80  1  0
 84 88  1  0
 85 84  1  0
 86 87  1  0
 86 85  1  0
 87 83  1  0
 88 89  2  0
 89 90  1  0
 91 90  2  0
 92 91  1  0
 93 67  1  0
 93 98  1  0
 93 94  1  0
 94 97  1  1
 94 95  1  0
 96 94  1  0
 98101  1  0
 99103  1  0
 99 98  1  0
100 99  2  0
103102  1  0
105103  1  0
105106  1  0
105104  1  0
M  ISO  4  19 100  27 100  65 101  66 101
M  END
>  <TORSDO>  (97) 
F 27

>  <SCORE>  (97) 
-11.650

>  <name>  (97) 
96

>  <ligand_id>  (97) 
96

>  <original_smiles>  (97) 
[H]c1c([H])c([H])c2c(c1[H])C([H])([H])C([H])([H])C([H])([H])C2([H])N([H])C(=O)C1([H])N(C(=O)C([H])(N([H])C(=O)C([H])(N([H])C([H])([H])[H])C([H])([H])[H])C(C([H])([H])[H])(C([H])([H])[H])C([H])([H])[H])C([H])([H])c2c([H])c(OC([H])([H])C3([H])C([H])([H])C([H])([H])C([H])([H])[N+]3([H])C([H])([H])C([H])([H])C3([H])C([H])(C([H])([H])C([H])([H])N([H])C(=O)N4C([H])([H])C([H])([H])C([H])([H])C([H])(n5nc(-c6c([H])c([H])c(Oc7c([H])c([H])c(F)c([H])c7F)c([H])c6[H])c(C(=O)N([H])[H])c5N([H])[H])C4([H])[H])C([H])([H])C([H])(C([H])([H])C([H])([H])C([H])([H])C([H])([H])[N+]([H])([H])[H])C([H])([H])[N+]3([H])[H])c([H])c([H])c2C1([H])[H]

>  <smiles>  (97) 
[H]c1c([H])c([H])c2c(c1[H])C([H])([H])C([H])([H])C([H])([H])C2([H])N([H])C(=O)C1([H])N(C(=O)C([H])(N([H])C(=O)C([H])(N([H])C([H])([H])[H])C([H])([H])[H])C(C([H])([H])[H])(C([H])([H])[H])C([H])([H])[H])C([H])([H])c2c([H])c(OC([H])([H])C3([H])C([H])([H])C([H])([H])C([H])([H])[N+]3([H])C([H])([H])C([H])([H])C3([H])C([H])(C([H])([H])C([H])([H])N([H])C(=O)N4C([H])([H])C([H])([H])C([H])([H])C([H])(n5nc(-c6c([H])c([H])c(Oc7c([H])c([H])c(F)c([H])c7F)c([H])c6[H])c(C(=O)N([H])[H])c5N([H])[H])C4([H])[H])C([H])([H])C([H])(C([H])([H])C([H])([H])C([H])([H])C([H])([H])[N+]([H])([H])[H])C([H])([H])[N+]3([H])[H])c([H])c([H])c2C1([H])[H]

$$$$
97:0:0
     RDKit          3D

101105  0  0  1  0  0  0  0  0999 V2000
  -24.5750  -23.3500   22.3620 C   0  0  0  0  0  2  0  0  0  0  0  0
  -24.2100  -23.0730   19.9340 C   0  0  0  0  0  2  0  0  0  0  0  0
  -22.9970  -23.6070   22.5280 C   0  0  0  0  0  2  0  0  0  0  0  0
  -22.6430  -23.3420   20.1550 C   0  0  0  0  0  2  0  0  0  0  0  0
  -25.0780  -22.4880   21.1350 C   0  0  0  0  0  3  0  0  0  0  0  0
  -22.3090  -24.3560   21.3100 C   0  0  0  0  0  3  0  0  0  0  0  0
  -26.7340  -22.4170   20.9190 C   0  0  0  0  0  2  0  0  0  0  0  0
  -27.6030  -21.1810   21.3040 N   0  0  0  0  0  4  0  0  0  0  0  0
  -28.0100  -21.3900   22.2020 H   0  0  0  0  0  0  0  0  0  0  0  0
  -26.9900  -20.3990   21.4620 H   0  0  0  0  0  0  0  0  0  0  0  0
  -29.7620  -19.5350   20.9920 C   0  0  0  0  0  0  0  0  0  0  0  0
  -29.6430  -19.1250   18.5530 C   0  0  0  0  0  2  0  0  0  0  0  0
  -28.4740  -20.0920   19.0020 C   0  0  0  0  0  2  0  0  0  0  0  0
  -30.1540  -18.4960   19.8540 C   0  0  0  0  0  3  0  0  0  0  0  0
  -28.7950  -20.6910   20.4120 C   0  0  0  0  0  3  0  0  0  0  0  0
  -30.1540  -19.4600   22.1600 O   0  0  0  0  0  0  0  0  0  0  0  0
  -32.0240  -16.3950   19.4310 C   0  0  0  0  0  0  0  0  0  0  0  0
  -32.1760  -14.0220   18.5500 C   0  0  0  0  0  2  0  0  0  0  0  0
  -31.0770  -13.8550   17.4610 C   0  0  0  0  0  2  0  0  0  0  0  0
  -29.6710  -13.6230   18.0730 C   0  0  0  0  0  2  0  0  0  0  0  0
  -29.3810  -14.6080   19.2320 C   0  0  0  0  0  3  0  0  0  0  0  0
  -30.5510  -14.5620   20.2380 C   0  0  0  0  0  2  0  0  0  0  0  0
  -31.7290  -15.0550   19.5190 N   0  0  0  0  0  0  0  0  0  0  0  0
  -33.0310  -16.7620   18.8010 O   0  0  0  0  0  0  0  0  0  0  0  0
  -30.9630  -17.1740   19.9320 N   0  0  0  0  0  0  0  0  0  0  0  0
  -30.4370  -16.5370   20.5110 H   0  0  0  0  0  0  0  0  0  0  0  0
  -27.2070  -15.2890   20.4130 C   0  0  0  0  0  0  0  0  0  0  0  0
  -26.1670  -14.5460   20.8930 C   0  0  0  0  0  0  0  0  0  0  0  0
  -26.4960  -13.1850   20.6110 C   0  0  0  0  0  0  0  0  0  0  0  0
  -28.1110  -14.3740   19.8930 N   0  0  0  0  0  0  0  0  0  0  0  0
  -27.6980  -13.0980   20.0680 N   0  0  0  0  0  0  0  0  0  0  0  0
  -25.7100  -11.9590   20.7690 C   0  0  0  0  0  0  0  0  0  0  0  0
  -26.0730  -10.9740   21.7120 C   0  0  0  0  0  3  0  0  0  0  0  0
  -25.2910   -9.8080   21.8570 C   0  0  0  0  0  3  0  0  0  0  0  0
  -24.1400   -9.6240   21.0560 C   0  0  0  0  0  0  0  0  0  0  0  0
  -23.8030  -10.5940   20.1000 C   0  0  0  0  0  3  0  0  0  0  0  0
  -24.5810  -11.7540   19.9510 C   0  0  0  0  0  3  0  0  0  0  0  0
  -23.3320   -8.5150   21.1100 O   0  0  0  0  0  0  0  0  0  0  0  0
  -22.9040   -7.9960   22.3040 C   0  0  0  0  0  0  0  0  0  0  0  0
  -22.2370   -8.7870   23.2650 C   0  0  0  0  0  3  0  0  0  0  0  0
  -21.7590   -8.1960   24.4510 C   0  0  0  0  0  3  0  0  0  0  0  0
  -21.9330   -6.8170   24.6720 C   0  0  0  0  0  0  0  0  0  0  0  0
  -22.5940   -6.0280   23.7120 C   0  0  0  0  0  3  0  0  0  0  0  0
  -23.0770   -6.6170   22.5310 C   0  0  0  0  0  0  0  0  0  0  0  0
  -23.7000   -5.8500   21.6030 F   0  0  0  0  0  0  0  0  0  0  0  0
  -21.4650   -6.2490   25.8070 F   0  0  0  0  0  0  0  0  0  0  0  0
  -24.8910  -15.0650   21.4840 C   0  0  0  0  0  0  0  0  0  0  0  0
  -24.3020  -14.3160   22.4070 N   0  0  0  0  0  0  0  0  0  0  0  0
  -24.4360  -16.1650   21.1570 O   0  0  0  0  0  0  0  0  0  0  0  0
  -24.6830  -13.4170   22.6710 H   0  0  0  0  0  0  0  0  0  0  0  0
  -23.4780  -14.6540   22.8800 H   0  0  0  0  0  0  0  0  0  0  0  0
  -27.4490  -16.6580   20.3450 N   0  0  0  0  0  0  0  0  0  0  0  0
  -26.6640  -17.2900   20.4300 H   0  0  0  0  0  0  0  0  0  0  0  0
  -28.1230  -16.9660   19.6530 H   0  0  0  0  0  0  0  0  0  0  0  0
  -20.7480  -25.1470   21.4070 C   0  0  0  0  0  2  0  0  0  0  0  0
  -20.2670  -26.6150   20.7440 N   0  0  0  0  0  2  0  0  0  0  0  0
  -20.1980  -27.2530   21.5230 H   0  0  0  0  0  0  0  0  0  0  0  0
  -19.3050  -26.4800   20.4690 H   0  0  0  0  0  0  0  0  0  0  0  0
  -21.1590  -27.9180   18.8530 C   0  0  0  0  0 15  0  0  0  0  0  0
  -23.0210  -27.5410   17.9250 C   0  0  0  0  0  1  0  0  0  0  0  0
  -24.7890  -26.9710   18.0980 O   0  0  0  0  0  0  0  0  0  0  0  0
  -25.5370  -29.0610   22.9970 C   0  0  0  0  0  0  0  0  0  0  0  0
  -26.1530  -27.3250   17.6630 C   0  0  0  0  0  3  0  0  0  0  0  0
  -24.1890  -29.4260   21.0100 C   0  0  0  0  0  3  0  0  0  0  0  0
  -25.3630  -29.4920   18.7120 C   0  0  0  0  0  3  0  0  0  0  0  0
  -26.7130  -29.2960   20.8040 C   0  0  0  0  0  2  0  0  0  0  0  0
  -26.4250  -28.8760   19.3800 C   0  0  0  0  0  3  0  0  0  0  0  0
  -27.0110  -27.7870   18.7120 C   0  0  0  0  0  2  0  0  0  0  0  0
  -25.9720  -28.2670   16.6900 C   0  0  0  0  0  2  0  0  0  0  0  0
  -25.2700  -29.3240   17.2950 C   0  0  0  0  0  2  0  0  0  0  0  0
  -24.2980  -30.0990   19.5940 C   0  0  0  0  0  2  0  0  0  0  0  0
  -25.5080  -29.2890   21.6580 N   0  0  0  0  0  0  0  0  0  0  0  0
  -24.4980  -29.0550   23.6750 O   0  0  0  0  0  0  0  0  0  0  0  0
  -23.5590  -28.0180   21.0760 C   0  0  0  0  0  0  0  0  0  0  0  0
  -22.3060  -27.9210   21.3960 N   0  0  0  0  0  0  0  0  0  0  0  0
  -24.1980  -26.9840   20.9420 O   0  0  0  0  0  0  0  0  0  0  0  0
  -21.7880  -28.7360   21.6950 H   0  0  0  0  0  0  0  0  0  0  0  0
  -18.6740  -27.7600   20.5340 C   0  0  0  0  0  0  0  0  0  0  0  0
  -21.5560  -26.7120   21.0940 C   0  0  0  0  0  3  0  0  0  0  0  0
  -21.9360  -25.8120   19.1540 C   0  0  0  0  0 15  0  0  0  0  0  0
  -20.1320  -26.3720   17.6810 C   0  0  0  0  0 15  0  0  0  0  0  0
  -18.5930  -27.3770   18.7000 C   0  0  0  0  0  1  0  0  0  0  0  0
  -19.9270  -27.5150   21.4980 C   0  0  0  0  0  0  0  0  0  0  0  0
  -19.7630  -27.8950   22.8640 C   0  0  0  0  0  3  0  0  0  0  0  0
  -18.5420  -28.3200   23.4310 C   0  0  0  0  0  3  0  0  0  0  0  0
  -17.3820  -28.3390   22.6460 C   0  0  0  0  0  3  0  0  0  0  0  0
  -17.4530  -28.0570   21.2540 C   0  0  0  0  0  3  0  0  0  0  0  0
  -26.8780  -28.8280   23.7290 C   0  0  0  0  0  3  0  0  0  0  0  0
  -26.8350  -29.6710   24.9260 N   0  0  0  0  0  0  0  0  0  0  0  0
  -27.3660  -30.8970   25.0010 C   0  0  0  0  0  0  0  0  0  0  0  0
  -28.0260  -31.3950   24.0850 O   0  0  0  0  0  0  0  0  0  0  0  0
  -26.2650  -29.3470   25.6930 H   0  0  0  0  0  0  0  0  0  0  0  0
  -26.0200  -32.7320   26.0770 C   0  0  0  0  0  1  0  0  0  0  0  0
  -27.1300  -31.6890   26.2970 C   0  0  0  0  0  3  0  0  0  0  0  0
  -29.3640  -31.4200   27.2760 C   0  0  0  0  0  1  0  0  0  0  0  0
  -28.3470  -32.3570   26.8040 N   0  0  0  0  0  0  0  0  0  0  0  0
  -28.1200  -32.9890   27.5660 H   0  0  0  0  0  0  0  0  0  0  0  0
  -27.1290  -27.3190   24.1070 C   0  0  1  0  0  0  0  0  0  0  0  0
  -25.9330  -26.6480   24.8200 C   0  0  0  0  0  1  0  0  0  0  0  0
  -27.4570  -26.4800   22.8480 C   0  0  0  0  0  1  0  0  0  0  0  0
  -28.3590  -27.2300   25.0350 C   0  0  0  0  0  1  0  0  0  0  0  0
  1  3  1  0
  2  4  1  0
  2  5  1  0
  4  6  1  0
  5  7  1  0
  5  1  1  0
  6 55  1  0
  6  3  1  0
  7  8  1  0
  8 10  1  0
  8  9  1  0
 11 16  2  0
 12 13  1  0
 12 14  1  0
 13 15  1  0
 14 25  1  0
 14 11  1  0
 15 11  1  0
 15  8  1  0
 17 23  1  0
 17 25  1  0
 18 23  1  0
 19 20  1  0
 19 18  1  0
 21 20  1  0
 21 30  1  0
 21 22  1  0
 23 22  1  0
 24 17  2  0
 25 26  1  0
 27 28  2  0
 28 47  1  0
 29 32  1  0
 29 28  1  0
 30 31  1  0
 30 27  1  0
 31 29  2  0
 32 33  1  0
 33 34  2  0
 35 38  1  0
 35 34  1  0
 36 35  2  0
 37 36  1  0
 37 32  2  0
 38 39  1  0
 39 44  2  0
 39 40  1  0
 40 41  2  0
 41 42  1  0
 42 46  1  0
 43 42  2  0
 44 43  1  0
 45 44  1  0
 47 48  1  0
 48 50  1  0
 48 51  1  0
 49 47  2  0
 52 27  1  0
 52 53  1  0
 54 52  1  0
 56 57  1  0
 58 56  1  0
 60 61  1  0
 62 73  2  0
 63 61  1  0
 63 68  1  0
 64 74  1  0
 64 72  1  0
 65 70  1  0
 65 67  1  0
 65 71  1  0
 66 72  1  0
 67 68  1  0
 67 66  1  0
 69 70  1  0
 69 63  1  0
 71 64  1  0
 72 62  1  0
 74 75  1  0
 75 77  1  0
 76 74  2  0
 78 87  2  0
 78 83  1  0
 79 75  1  0
 79 55  1  0
 79 83  1  0
 82 78  1  0
 83 84  2  0
 84 85  1  0
 86 85  2  0
 87 86  1  0
 88 62  1  0
 88 98  1  0
 88 89  1  0
 89 90  1  0
 89 92  1  0
 90 94  1  0
 91 90  2  0
 94 93  1  0
 94 96  1  0
 96 95  1  0
 96 97  1  0
 98 99  1  1
 98101  1  0
100 98  1  0
M  ISO  4  17 100  25 100  60 101  61 101
M  END
>  <TORSDO>  (98) 
F 23

>  <SCORE>  (98) 
-3.529

>  <name>  (98) 
97

>  <ligand_id>  (98) 
97

>  <original_smiles>  (98) 
[H]c1c([H])c([H])c2c(c1[H])C([H])([H])C([H])([H])C([H])([H])C2([H])N([H])C(=O)C1([H])N(C(=O)C([H])(N([H])C(=O)C([H])(N([H])C([H])([H])[H])C([H])([H])[H])C(C([H])([H])[H])(C([H])([H])[H])C([H])([H])[H])C([H])([H])c2c([H])c(OC([H])([H])C([H])([H])[N+]([H])([H])C([H])([H])C3([H])C([H])([H])C([H])([H])C([H])(C([H])([H])[N+]([H])([H])C4([H])C(=O)C([H])(N([H])C(=O)N5C([H])([H])C([H])([H])C([H])([H])C([H])(n6nc(-c7c([H])c([H])c(Oc8c([H])c([H])c(F)c([H])c8F)c([H])c7[H])c(C(=O)N([H])[H])c6N([H])[H])C5([H])[H])C([H])([H])C4([H])[H])C([H])([H])C3([H])[H])c([H])c([H])c2C1([H])[H]

>  <smiles>  (98) 
[H]c1c([H])c([H])c2c(c1[H])C([H])([H])C([H])([H])C([H])([H])C2([H])N([H])C(=O)C1([H])N(C(=O)C([H])(N([H])C(=O)C([H])(N([H])C([H])([H])[H])C([H])([H])[H])C(C([H])([H])[H])(C([H])([H])[H])C([H])([H])[H])C([H])([H])c2c([H])c(OC([H])([H])C([H])([H])[N+]([H])([H])C([H])([H])C3([H])C([H])([H])C([H])([H])C([H])(C([H])([H])[N+]([H])([H])C4([H])C(=O)C([H])(N([H])C(=O)N5C([H])([H])C([H])([H])C([H])([H])C([H])(n6nc(-c7c([H])c([H])c(Oc8c([H])c([H])c(F)c([H])c8F)c([H])c7[H])c(C(=O)N([H])[H])c6N([H])[H])C5([H])[H])C([H])([H])C4([H])[H])C([H])([H])C3([H])[H])c([H])c([H])c2C1([H])[H]

$$$$
98:0:0
     RDKit          3D

 97 99  0  0  1  0  0  0  0  0999 V2000
  -25.3310  -20.5590   18.6240 C   0  0  0  0  0  3  0  0  0  0  0  0
  -24.7070  -22.2690   20.1590 C   0  0  0  0  0  3  0  0  0  0  0  0
  -23.3140  -22.2130   18.2450 C   0  0  0  0  0  3  0  0  0  0  0  0
  -25.8360  -20.9640   19.8880 C   0  0  0  0  0  3  0  0  0  0  0  0
  -24.2060  -21.1190   17.8860 C   0  0  0  0  0  0  0  0  0  0  0  0
  -23.3430  -23.0520   19.4010 C   0  0  0  0  0  3  0  0  0  0  0  0
  -27.5470  -19.9280   20.5390 C   0  0  0  0  0 15  0  0  0  0  0  0
  -30.0930  -17.3530   20.8890 C   0  0  0  0  0  0  0  0  0  0  0  0
  -31.5380  -14.9170   20.6660 C   0  0  0  0  0  2  0  0  0  0  0  0
  -31.2430  -13.9370   19.4650 C   0  0  0  0  0  2  0  0  0  0  0  0
  -29.8550  -13.2930   19.5930 C   0  0  0  0  0  2  0  0  0  0  0  0
  -28.9060  -14.3330   20.2050 C   0  0  0  0  0  3  0  0  0  0  0  0
  -29.3960  -14.9300   21.5170 C   0  0  0  0  0  2  0  0  0  0  0  0
  -30.3390  -15.8820   21.0220 N   0  0  0  0  0  0  0  0  0  0  0  0
  -31.3250  -17.7050   20.8870 O   0  0  0  0  0  0  0  0  0  0  0  0
  -28.6490  -18.2630   20.6970 N   0  0  0  0  0  2  0  0  0  0  0  0
  -27.9480  -17.5290   20.7000 H   0  0  0  0  0  0  0  0  0  0  0  0
  -26.4730  -14.7580   20.4260 C   0  0  0  0  0  0  0  0  0  0  0  0
  -25.4250  -13.9280   20.6710 C   0  0  0  0  0  0  0  0  0  0  0  0
  -25.9850  -12.6220   20.8430 C   0  0  0  0  0  0  0  0  0  0  0  0
  -27.5690  -13.9270   20.4150 N   0  0  0  0  0  0  0  0  0  0  0  0
  -27.3030  -12.6550   20.7600 N   0  0  0  0  0  0  0  0  0  0  0  0
  -25.3410  -11.3240   20.9990 C   0  0  0  0  0  0  0  0  0  0  0  0
  -25.5520  -10.5270   22.1450 C   0  0  0  0  0  3  0  0  0  0  0  0
  -24.9010   -9.2820   22.2670 C   0  0  0  0  0  3  0  0  0  0  0  0
  -24.0340   -8.8330   21.2420 C   0  0  0  0  0  0  0  0  0  0  0  0
  -23.8560   -9.6200   20.0920 C   0  0  0  0  0  3  0  0  0  0  0  0
  -24.5070  -10.8560   19.9670 C   0  0  0  0  0  3  0  0  0  0  0  0
  -23.3740   -7.6300   21.2650 O   0  0  0  0  0  0  0  0  0  0  0  0
  -22.7340   -7.1880   22.3940 C   0  0  0  0  0  0  0  0  0  0  0  0
  -21.7540   -7.9630   23.0510 C   0  0  0  0  0  3  0  0  0  0  0  0
  -21.0710   -7.4360   24.1640 C   0  0  0  0  0  3  0  0  0  0  0  0
  -21.3630   -6.1360   24.6200 C   0  0  0  0  0  0  0  0  0  0  0  0
  -22.3370   -5.3620   23.9650 C   0  0  0  0  0  3  0  0  0  0  0  0
  -23.0190   -5.8870   22.8540 C   0  0  0  0  0  0  0  0  0  0  0  0
  -23.9430   -5.1310   22.2120 F   0  0  0  0  0  0  0  0  0  0  0  0
  -20.7020   -5.6260   25.6850 F   0  0  0  0  0  0  0  0  0  0  0  0
  -23.9820  -14.3110   20.6230 C   0  0  0  0  0  0  0  0  0  0  0  0
  -23.1470  -13.6340   21.3980 N   0  0  0  0  0  0  0  0  0  0  0  0
  -23.5990  -15.2520   19.9280 O   0  0  0  0  0  0  0  0  0  0  0  0
  -23.4730  -12.8770   21.9820 H   0  0  0  0  0  0  0  0  0  0  0  0
  -22.1670  -13.8790   21.4140 H   0  0  0  0  0  0  0  0  0  0  0  0
  -26.5910  -16.1300   20.1830 N   0  0  0  0  0  0  0  0  0  0  0  0
  -25.7210  -16.6130   19.9830 H   0  0  0  0  0  0  0  0  0  0  0  0
  -27.3440  -16.4490   19.5880 H   0  0  0  0  0  0  0  0  0  0  0  0
  -23.9200  -20.4570   16.5450 C   0  0  0  0  0  2  0  0  0  0  0  0
  -24.3630  -21.3030   15.4310 N   0  0  0  0  0  4  0  0  0  0  0  0
  -23.7020  -22.0420   15.2800 H   0  0  0  0  0  0  0  0  0  0  0  0
  -24.4240  -20.7530   14.5940 H   0  0  0  0  0  0  0  0  0  0  0  0
  -25.2640  -21.6980   15.6250 H   0  0  0  0  0  0  0  0  0  0  0  0
  -21.7070  -24.3850   19.5460 C   0  0  0  0  0 15  0  0  0  0  0  0
  -20.5100  -25.9030   18.8610 N   0  0  0  0  0  4  0  0  0  0  0  0
  -19.7530  -25.4750   18.3550 H   0  0  0  0  0  0  0  0  0  0  0  0
  -20.0930  -26.3460   19.6620 H   0  0  0  0  0  0  0  0  0  0  0  0
  -21.5110  -27.6440   17.3210 C   0  0  0  0  0  1  0  0  0  0  0  0
  -23.5220  -27.4290   16.8570 C   0  0  0  0  0  1  0  0  0  0  0  0
  -25.0690  -26.5950   17.3950 O   0  0  0  0  0  0  0  0  0  0  0  0
  -25.1330  -28.9240   22.4720 C   0  0  0  0  0  0  0  0  0  0  0  0
  -26.5030  -26.7900   17.3140 C   0  0  0  0  0  3  0  0  0  0  0  0
  -24.1570  -29.2920   20.2680 C   0  0  0  0  0  3  0  0  0  0  0  0
  -25.7370  -29.0690   18.2160 C   0  0  0  0  0  3  0  0  0  0  0  0
  -26.6520  -28.8070   20.5070 C   0  0  0  0  0  2  0  0  0  0  0  0
  -26.5560  -28.3390   19.0760 C   0  0  0  0  0  3  0  0  0  0  0  0
  -27.1240  -27.1680   18.5470 C   0  0  0  0  0  2  0  0  0  0  0  0
  -26.5840  -27.7420   16.3440 C   0  0  0  0  0  2  0  0  0  0  0  0
  -25.9360  -28.8990   16.8110 C   0  0  0  0  0  2  0  0  0  0  0  0
  -24.6180  -29.8570   18.8730 C   0  0  0  0  0  2  0  0  0  0  0  0
  -25.3350  -29.0470   21.1370 N   0  0  0  0  0  0  0  0  0  0  0  0
  -24.0150  -29.1160   22.9770 O   0  0  0  0  0  0  0  0  0  0  0  0
  -23.3640  -27.9520   20.2630 C   0  0  0  0  0  0  0  0  0  0  0  0
  -22.1140  -27.8600   20.6340 N   0  0  0  0  0  0  0  0  0  0  0  0
  -23.8980  -26.8940   19.9870 O   0  0  0  0  0  0  0  0  0  0  0  0
  -21.6470  -28.6750   21.0080 H   0  0  0  0  0  0  0  0  0  0  0  0
  -18.5140  -27.8120   20.6870 C   0  0  0  0  0  0  0  0  0  0  0  0
  -21.2500  -26.7160   20.1790 C   0  0  0  0  0  3  0  0  0  0  0  0
  -21.3240  -26.4420   18.0500 C   0  0  0  0  0  2  0  0  0  0  0  0
  -19.1170  -27.5000   17.1230 C   0  0  0  0  0 15  0  0  0  0  0  0
  -17.9620  -27.9540   18.9240 C   0  0  0  0  0  1  0  0  0  0  0  0
  -19.8880  -27.3270   21.1680 C   0  0  0  0  0  0  0  0  0  0  0  0
  -20.2040  -27.5930   22.5940 C   0  0  0  0  0  3  0  0  0  0  0  0
  -19.3460  -28.1160   23.6040 C   0  0  0  0  0  3  0  0  0  0  0  0
  -18.0280  -28.3810   23.2290 C   0  0  0  0  0  3  0  0  0  0  0  0
  -17.6570  -28.2380   21.8370 C   0  0  0  0  0  3  0  0  0  0  0  0
  -26.3040  -28.5600   23.4180 C   0  0  0  0  0  3  0  0  0  0  0  0
  -26.4630  -29.6960   24.3280 N   0  0  0  0  0  0  0  0  0  0  0  0
  -27.3380  -30.6920   24.1420 C   0  0  0  0  0  0  0  0  0  0  0  0
  -28.1630  -30.6950   23.2250 O   0  0  0  0  0  0  0  0  0  0  0  0
  -25.7850  -29.7830   25.0710 H   0  0  0  0  0  0  0  0  0  0  0  0
  -26.5120  -33.0370   24.5180 C   0  0  0  0  0  1  0  0  0  0  0  0
  -27.2900  -31.8660   25.1370 C   0  0  0  0  0  3  0  0  0  0  0  0
  -29.3450  -31.3310   26.3660 C   0  0  0  0  0  1  0  0  0  0  0  0
  -28.6290  -32.3210   25.5660 N   0  0  0  0  0  0  0  0  0  0  0  0
  -28.5600  -33.1770   26.1100 H   0  0  0  0  0  0  0  0  0  0  0  0
  -26.0660  -27.2220   24.2190 C   0  0  1  0  0  0  0  0  0  0  0  0
  -24.7040  -27.1630   24.9490 C   0  0  0  0  0  1  0  0  0  0  0  0
  -26.1520  -25.9860   23.2940 C   0  0  0  0  0  1  0  0  0  0  0  0
  -27.1860  -27.0570   25.2700 C   0  0  0  0  0  1  0  0  0  0  0  0
  1  4  1  0
  3  6  2  0
  4  2  2  0
  5  3  1  0
  5  1  2  0
  6  2  1  0
  8 14  1  0
  9 14  1  0
 10 11  1  0
 10  9  1  0
 12 11  1  0
 12 21  1  0
 12 13  1  0
 14 13  1  0
 15  8  2  0
 16 17  1  0
 16  8  1  0
 18 19  2  0
 19 20  1  0
 20 23  1  0
 21 18  1  0
 21 22  1  0
 22 20  2  0
 23 24  1  0
 24 25  2  0
 26 29  1  0
 26 25  1  0
 27 26  2  0
 28 27  1  0
 28 23  2  0
 29 30  1  0
 30 35  2  0
 30 31  1  0
 31 32  2  0
 32 33  1  0
 33 37  1  0
 34 33  2  0
 35 34  1  0
 36 35  1  0
 38 19  1  0
 38 39  1  0
 39 42  1  0
 39 41  1  0
 40 38  2  0
 43 18  1  0
 44 43  1  0
 45 43  1  0
 46  5  1  0
 47 50  1  0
 47 46  1  0
 48 47  1  0
 49 47  1  0
 52 54  1  0
 52 75  1  0
 53 52  1  0
 55 76  1  0
 56 57  1  0
 58 69  2  0
 59 57  1  0
 59 64  1  0
 60 70  1  0
 60 68  1  0
 61 66  1  0
 61 67  1  0
 61 63  1  0
 62 68  1  0
 63 64  1  0
 63 62  1  0
 65 66  1  0
 65 59  1  0
 67 60  1  0
 68 58  1  0
 70 71  1  0
 71 73  1  0
 72 70  2  0
 74 79  2  0
 74 83  1  0
 75 71  1  0
 75 79  1  0
 76 52  1  0
 78 74  1  0
 79 80  1  0
 80 81  2  0
 82 81  1  0
 83 82  2  0
 84 58  1  0
 84 94  1  0
 84 85  1  0
 85 88  1  0
 86 85  1  0
 86 90  1  0
 87 86  2  0
 90 89  1  0
 90 92  1  0
 92 93  1  0
 92 91  1  0
 94 95  1  1
 94 97  1  0
 96 94  1  0
M  ISO  4   8 100  16 100  56 101  57 101
M  END
>  <TORSDO>  (99) 
F 23

>  <SCORE>  (99) 
-1.422

>  <name>  (99) 
98

>  <ligand_id>  (99) 
98

>  <original_smiles>  (99) 
[H]c1c([H])c([H])c2c(c1[H])C([H])([H])C([H])([H])C([H])([H])C2([H])N([H])C(=O)C1([H])N(C(=O)C([H])(N([H])C(=O)C([H])(N([H])C([H])([H])[H])C([H])([H])[H])C(C([H])([H])[H])(C([H])([H])[H])C([H])([H])[H])C([H])([H])c2c([H])c(OC([H])([H])C([H])([H])[N+]([H])([H])C([H])([H])c3c([H])c(C([H])([H])N([H])C(=O)N4C([H])([H])C([H])([H])C([H])([H])C([H])(n5nc(-c6c([H])c([H])c(Oc7c([H])c([H])c(F)c([H])c7F)c([H])c6[H])c(C(=O)N([H])[H])c5N([H])[H])C4([H])[H])c([H])c(C([H])([H])[N+]([H])([H])[H])c3[H])c([H])c([H])c2C1([H])[H]

>  <smiles>  (99) 
[H]c1c([H])c([H])c2c(c1[H])C([H])([H])C([H])([H])C([H])([H])C2([H])N([H])C(=O)C1([H])N(C(=O)C([H])(N([H])C(=O)C([H])(N([H])C([H])([H])[H])C([H])([H])[H])C(C([H])([H])[H])(C([H])([H])[H])C([H])([H])[H])C([H])([H])c2c([H])c(OC([H])([H])C([H])([H])[N+]([H])([H])C([H])([H])c3c([H])c(C([H])([H])N([H])C(=O)N4C([H])([H])C([H])([H])C([H])([H])C([H])(n5nc(-c6c([H])c([H])c(Oc7c([H])c([H])c(F)c([H])c7F)c([H])c6[H])c(C(=O)N([H])[H])c5N([H])[H])C4([H])[H])c([H])c(C([H])([H])[N+]([H])([H])[H])c3[H])c([H])c([H])c2C1([H])[H]

$$$$
