0:0:0
     RDKit          3D

 88 96  0  0  1  0  0  0  0  0999 V2000
  -28.1340  -21.1580   20.7730 C   0  0  0  0  0  3  0  0  0  0  0  0
  -28.4470  -19.6650   20.8140 C   0  0  0  0  0  3  0  0  0  0  0  0
  -29.9930  -19.9240   19.2300 C   0  0  0  0  0  3  0  0  0  0  0  0
  -28.6940  -22.2670   19.9570 C   0  0  0  0  0  0  0  0  0  0  0  0
  -29.4130  -18.8160   20.0570 C   0  0  0  0  0  0  0  0  0  0  0  0
  -29.6710  -21.4360   19.1700 C   0  0  0  0  0  0  0  0  0  0  0  0
  -30.3460  -15.7780   19.9150 C   0  0  0  0  0  0  0  0  0  0  0  0
  -30.4290  -13.2380   19.1090 C   0  0  0  0  0  2  0  0  0  0  0  0
  -29.4780  -12.8600   17.9360 C   0  0  0  0  0  2  0  0  0  0  0  0
  -28.0750  -12.5050   18.4550 C   0  0  0  0  0  2  0  0  0  0  0  0
  -27.6160  -13.4910   19.5550 C   0  0  0  0  0  3  0  0  0  0  0  0
  -28.7030  -13.7770   20.6200 C   0  0  0  0  0  2  0  0  0  0  0  0
  -29.8520  -14.4030   19.9200 N   0  0  0  0  0  0  0  0  0  0  0  0
  -31.5470  -15.7580   19.5850 O   0  0  0  0  0  0  0  0  0  0  0  0
  -29.5530  -17.0940   20.1490 N   0  0  0  0  0  0  0  0  0  0  0  0
  -28.7100  -16.7540   20.5890 H   0  0  0  0  0  0  0  0  0  0  0  0
  -25.2990  -13.9940   20.4750 C   0  0  0  0  0  0  0  0  0  0  0  0
  -24.2630  -13.2020   20.8790 C   0  0  0  0  0  0  0  0  0  0  0  0
  -24.7300  -11.8550   20.7770 C   0  0  0  0  0  0  0  0  0  0  0  0
  -26.3280  -13.1340   20.1390 N   0  0  0  0  0  0  0  0  0  0  0  0
  -26.0040  -11.8370   20.3860 N   0  0  0  0  0  0  0  0  0  0  0  0
  -24.0130  -10.5850   20.9680 C   0  0  0  0  0  0  0  0  0  0  0  0
  -24.4590   -9.6110   21.8890 C   0  0  0  0  0  3  0  0  0  0  0  0
  -23.7360   -8.4120   22.0700 C   0  0  0  0  0  3  0  0  0  0  0  0
  -22.5520   -8.1780   21.3290 C   0  0  0  0  0  0  0  0  0  0  0  0
  -22.1250   -9.1420   20.3980 C   0  0  0  0  0  3  0  0  0  0  0  0
  -22.8490  -10.3310   20.2150 C   0  0  0  0  0  3  0  0  0  0  0  0
  -21.8020   -7.0310   21.4220 O   0  0  0  0  0  0  0  0  0  0  0  0
  -21.7250   -6.3100   22.5870 C   0  0  0  0  0  0  0  0  0  0  0  0
  -21.2080   -6.8690   23.7760 C   0  0  0  0  0  3  0  0  0  0  0  0
  -21.0820   -6.0740   24.9320 C   0  0  0  0  0  3  0  0  0  0  0  0
  -21.4640   -4.7180   24.9000 C   0  0  0  0  0  0  0  0  0  0  0  0
  -21.9740   -4.1580   23.7150 C   0  0  0  0  0  3  0  0  0  0  0  0
  -22.1010   -4.9510   22.5620 C   0  0  0  0  0  0  0  0  0  0  0  0
  -22.5740   -4.4010   21.4190 F   0  0  0  0  0  0  0  0  0  0  0  0
  -21.3350   -3.9520   26.0090 F   0  0  0  0  0  0  0  0  0  0  0  0
  -22.8830  -13.6680   21.2390 C   0  0  0  0  0  0  0  0  0  0  0  0
  -22.2040  -12.9560   22.1290 N   0  0  0  0  0  0  0  0  0  0  0  0
  -22.4190  -14.7030   20.7630 O   0  0  0  0  0  0  0  0  0  0  0  0
  -22.5950  -12.1230   22.5430 H   0  0  0  0  0  0  0  0  0  0  0  0
  -21.2800  -13.2540   22.4050 H   0  0  0  0  0  0  0  0  0  0  0  0
  -25.4430  -15.3730   20.3320 N   0  0  0  0  0  0  0  0  0  0  0  0
  -24.6680  -16.0080   20.4980 H   0  0  0  0  0  0  0  0  0  0  0  0
  -26.2480  -15.8270   19.9200 H   0  0  0  0  0  0  0  0  0  0  0  0
  -30.3560  -22.1330   18.2060 O   0  0  0  0  0  0  0  0  0  0  0  0
  -30.9390  -21.6030   17.6690 H   0  0  0  0  0  0  0  0  0  0  0  0
  -28.0170  -23.9960   19.7080 C   0  0  0  0  0  2  0  0  0  0  0  0
  -28.1780  -25.6670   20.1980 O   0  0  0  0  0  0  0  0  0  0  0  0
  -24.6590  -31.8870   23.2250 C   0  0  0  0  0  0  0  0  0  0  0  0
  -27.2080  -26.8770   20.1350 C   0  0  0  0  0  0  0  0  0  0  0  0
  -23.4690  -30.4990   21.5830 C   0  0  0  0  0  3  0  0  0  0  0  0
  -24.9190  -28.8810   20.1380 C   0  0  0  0  0  0  0  0  0  0  0  0
  -26.0470  -30.6580   21.4480 C   0  0  0  0  0  2  0  0  0  0  0  0
  -26.1160  -29.2380   20.7680 C   0  0  0  0  0  0  0  0  0  0  0  0
  -27.2420  -28.2610   20.7420 C   0  0  0  0  0  3  0  0  0  0  0  0
  -25.9750  -26.7280   19.4490 C   0  0  0  0  0  3  0  0  0  0  0  0
  -24.8860  -27.6530   19.4540 C   0  0  0  0  0  3  0  0  0  0  0  0
  -23.7030  -29.8200   20.2030 C   0  0  0  0  0  2  0  0  0  0  0  0
  -24.7500  -31.0450   22.1380 N   0  0  0  0  0  0  0  0  0  0  0  0
  -23.5680  -32.1730   23.7460 O   0  0  0  0  0  0  0  0  0  0  0  0
  -22.7640  -29.5080   22.5480 C   0  0  0  0  0  0  0  0  0  0  0  0
  -21.4380  -29.3200   22.4020 N   0  0  0  0  0  0  0  0  0  0  0  0
  -23.4240  -28.9040   23.3970 O   0  0  0  0  0  0  0  0  0  0  0  0
  -20.9550  -29.8500   21.6910 H   0  0  0  0  0  0  0  0  0  0  0  0
  -18.0760  -28.0180   22.8630 C   0  0  0  0  0  0  0  0  0  0  0  0
  -20.6230  -28.3680   23.1690 C   0  0  0  0  0  3  0  0  0  0  0  0
  -20.7780  -26.9330   22.6130 C   0  0  0  0  0  2  0  0  0  0  0  0
  -19.7060  -26.5660   21.5820 C   0  0  0  0  0  2  0  0  0  0  0  0
  -18.3090  -26.6710   22.2000 C   0  0  0  0  0  2  0  0  0  0  0  0
  -19.1630  -28.8210   23.3050 C   0  0  0  0  0  0  0  0  0  0  0  0
  -18.8900  -30.0760   23.8890 C   0  0  0  0  0  3  0  0  0  0  0  0
  -17.5640  -30.5290   24.0380 C   0  0  0  0  0  3  0  0  0  0  0  0
  -16.4940  -29.7240   23.6100 C   0  0  0  0  0  3  0  0  0  0  0  0
  -16.7510  -28.4710   23.0280 C   0  0  0  0  0  3  0  0  0  0  0  0
  -25.9220  -32.5380   23.8660 C   0  0  0  0  0  3  0  0  0  0  0  0
  -25.6020  -33.9430   24.1840 N   0  0  0  0  0  0  0  0  0  0  0  0
  -25.9130  -34.9990   23.4190 C   0  0  0  0  0  0  0  0  0  0  0  0
  -26.5520  -34.8910   22.3710 O   0  0  0  0  0  0  0  0  0  0  0  0
  -25.0250  -34.0990   24.9980 H   0  0  0  0  0  0  0  0  0  0  0  0
  -24.1610  -36.7900   23.1380 C   0  0  0  0  0  1  0  0  0  0  0  0
  -25.4440  -36.3930   23.8870 C   0  0  0  0  0  3  0  0  0  0  0  0
  -27.5990  -37.3200   24.6170 C   0  0  0  0  0  1  0  0  0  0  0  0
  -26.4640  -37.4500   23.7060 N   0  0  0  0  0  0  0  0  0  0  0  0
  -26.0580  -38.3730   23.8320 H   0  0  0  0  0  0  0  0  0  0  0  0
  -26.4080  -31.7910   25.1700 C   0  0  1  0  0  0  0  0  0  0  0  0
  -25.2920  -31.5800   26.2210 C   0  0  0  0  0  1  0  0  0  0  0  0
  -26.9900  -30.4010   24.8300 C   0  0  0  0  0  1  0  0  0  0  0  0
  -27.5480  -32.5930   25.8390 C   0  0  0  0  0  1  0  0  0  0  0  0
  1  2  1  0
  3  5  1  0
  4  1  2  0
  5 15  1  0
  5  2  2  0
  6  3  2  0
  6  4  1  0
  7 13  1  0
  7 15  1  0
  8 13  1  0
  9 10  1  0
  9  8  1  0
 11 10  1  0
 11 20  1  0
 11 12  1  0
 13 12  1  0
 14  7  2  0
 15 16  1  0
 17 18  2  0
 18 37  1  0
 19 18  1  0
 19 22  1  0
 20 21  1  0
 20 17  1  0
 21 19  2  0
 22 23  1  0
 23 24  2  0
 25 28  1  0
 25 24  1  0
 26 25  2  0
 27 26  1  0
 27 22  2  0
 28 29  1  0
 29 30  1  0
 30 31  2  0
 32 31  1  0
 32 36  1  0
 33 32  2  0
 34 29  2  0
 34 33  1  0
 35 34  1  0
 37 38  1  0
 38 41  1  0
 38 40  1  0
 39 37  2  0
 42 17  1  0
 42 43  1  0
 44 42  1  0
 45  6  1  0
 46 45  1  0
 47  4  1  0
 47 48  1  0
 49 60  2  0
 50 48  1  0
 50 55  1  0
 51 59  1  0
 51 61  1  0
 52 58  1  0
 52 54  1  0
 53 59  1  0
 54 53  1  0
 55 54  2  0
 56 57  1  0
 56 50  2  0
 57 52  2  0
 58 51  1  0
 59 49  1  0
 61 63  2  0
 62 61  1  0
 64 62  1  0
 65 74  2  0
 65 70  1  0
 66 62  1  0
 66 70  1  0
 67 66  1  0
 68 69  1  0
 68 67  1  0
 69 65  1  0
 70 71  2  0
 71 72  1  0
 73 72  2  0
 74 73  1  0
 75 49  1  0
 75 76  1  0
 75 85  1  0
 76 79  1  0
 77 81  1  0
 77 76  1  0
 78 77  2  0
 81 80  1  0
 83 84  1  0
 83 81  1  0
 83 82  1  0
 85 88  1  1
 85 86  1  0
 87 85  1  0
M  ISO  4   7 100  15 100  47 101  48 101
M  END
>  <TORSDO>  (1) 
F 18

>  <SCORE>  (1) 
-16.090

>  <name>  (1) 
0

>  <ligand_id>  (1) 
0

>  <original_smiles>  (1) 
[H]Oc1c([H])c(N([H])C(=O)N2C([H])([H])C([H])([H])C([H])([H])C([H])(n3nc(-c4c([H])c([H])c(Oc5c([H])c([H])c(F)c([H])c5F)c([H])c4[H])c(C(=O)N([H])[H])c3N([H])[H])C2([H])[H])c([H])c([H])c1C([H])([H])Oc1c([H])c([H])c2c(c1[H])C([H])([H])N(C(=O)C([H])(N([H])C(=O)C([H])(N([H])C([H])([H])[H])C([H])([H])[H])C(C([H])([H])[H])(C([H])([H])[H])C([H])([H])[H])C([H])(C(=O)N([H])C1([H])c3c([H])c([H])c([H])c([H])c3C([H])([H])C([H])([H])C1([H])[H])C2([H])[H]

>  <smiles>  (1) 
[H]Oc1c([H])c(N([H])C(=O)N2C([H])([H])C([H])([H])C([H])([H])C([H])(n3nc(-c4c([H])c([H])c(Oc5c([H])c([H])c(F)c([H])c5F)c([H])c4[H])c(C(=O)N([H])[H])c3N([H])[H])C2([H])[H])c([H])c([H])c1C([H])([H])Oc1c([H])c([H])c2c(c1[H])C([H])([H])N(C(=O)C([H])(N([H])C(=O)C([H])(N([H])C([H])([H])[H])C([H])([H])[H])C(C([H])([H])[H])(C([H])([H])[H])C([H])([H])[H])C([H])(C(=O)N([H])C1([H])c3c([H])c([H])c([H])c([H])c3C([H])([H])C([H])([H])C1([H])[H])C2([H])[H]

$$$$
1:0:0
     RDKit          3D

 90 98  0  0  1  0  0  0  0  0999 V2000
  -29.3080  -22.8710   20.0930 N   0  0  0  0  0  4  0  0  0  0  0  0
  -28.4440  -22.6460   19.6240 H   0  0  0  0  0  0  0  0  0  0  0  0
  -30.0380  -22.8320   19.3980 H   0  0  0  0  0  0  0  0  0  0  0  0
  -29.5470  -21.8030   21.1130 C   0  0  0  0  0  2  0  0  0  0  0  0
  -29.9140  -20.3870   20.5450 C   0  0  0  0  0  2  0  0  0  0  0  0
  -29.7700  -19.2580   21.6110 C   0  0  0  0  0  2  0  0  0  0  0  0
  -30.7820  -14.5240   20.1250 C   0  0  0  0  0  0  0  0  0  0  0  0
  -30.3540  -12.4200   18.8910 C   0  0  0  0  0  2  0  0  0  0  0  0
  -29.3420  -12.6760   17.7560 C   0  0  0  0  0  2  0  0  0  0  0  0
  -27.8980  -12.5370   18.2750 C   0  0  0  0  0  2  0  0  0  0  0  0
  -27.6540  -13.3330   19.5850 C   0  0  0  0  0  3  0  0  0  0  0  0
  -28.7730  -13.0650   20.6170 C   0  0  0  0  0  2  0  0  0  0  0  0
  -30.0650  -13.3710   19.9790 N   0  0  0  0  0  0  0  0  0  0  0  0
  -31.8260  -14.7350   19.4980 O   0  0  0  0  0  0  0  0  0  0  0  0
  -30.5240  -17.0800   22.7020 C   0  0  0  0  0  2  0  0  0  0  0  0
  -30.7630  -15.6310   22.2750 C   0  0  0  0  0  2  0  0  0  0  0  0
  -29.9150  -16.8520   20.4130 C   0  0  0  0  0  2  0  0  0  0  0  0
  -30.5000  -17.8890   21.4060 C   0  0  0  0  0  3  0  0  0  0  0  0
  -30.2410  -15.4910   20.9140 N   0  0  0  0  0  0  0  0  0  0  0  0
  -25.3170  -13.9480   20.4700 C   0  0  0  0  0  0  0  0  0  0  0  0
  -24.2600  -13.1780   20.8730 C   0  0  0  0  0  0  0  0  0  0  0  0
  -24.6910  -11.8210   20.7570 C   0  0  0  0  0  0  0  0  0  0  0  0
  -26.3290  -13.0610   20.1370 N   0  0  0  0  0  0  0  0  0  0  0  0
  -25.9580  -11.7740   20.3660 N   0  0  0  0  0  0  0  0  0  0  0  0
  -23.9540  -10.5650   20.9410 C   0  0  0  0  0  0  0  0  0  0  0  0
  -24.4180   -9.5570   21.8160 C   0  0  0  0  0  3  0  0  0  0  0  0
  -23.6820   -8.3660   21.9890 C   0  0  0  0  0  3  0  0  0  0  0  0
  -22.4670   -8.1740   21.2890 C   0  0  0  0  0  0  0  0  0  0  0  0
  -22.0210   -9.1700   20.4030 C   0  0  0  0  0  3  0  0  0  0  0  0
  -22.7580  -10.3530   20.2270 C   0  0  0  0  0  3  0  0  0  0  0  0
  -21.6980   -7.0370   21.3760 O   0  0  0  0  0  0  0  0  0  0  0  0
  -21.6830   -6.2630   22.5090 C   0  0  0  0  0  0  0  0  0  0  0  0
  -21.3370   -6.7940   23.7710 C   0  0  0  0  0  3  0  0  0  0  0  0
  -21.2680   -5.9470   24.8960 C   0  0  0  0  0  3  0  0  0  0  0  0
  -21.5340   -4.5720   24.7600 C   0  0  0  0  0  0  0  0  0  0  0  0
  -21.8720   -4.0410   23.5030 C   0  0  0  0  0  3  0  0  0  0  0  0
  -21.9440   -4.8840   22.3800 C   0  0  0  0  0  0  0  0  0  0  0  0
  -22.2500   -4.3630   21.1670 F   0  0  0  0  0  0  0  0  0  0  0  0
  -21.4590   -3.7570   25.8380 F   0  0  0  0  0  0  0  0  0  0  0  0
  -22.8920  -13.6670   21.2560 C   0  0  0  0  0  0  0  0  0  0  0  0
  -22.2170  -12.9580   22.1540 N   0  0  0  0  0  0  0  0  0  0  0  0
  -22.4340  -14.7120   20.7940 O   0  0  0  0  0  0  0  0  0  0  0  0
  -22.6010  -12.1120   22.5480 H   0  0  0  0  0  0  0  0  0  0  0  0
  -21.3030  -13.2650   22.4520 H   0  0  0  0  0  0  0  0  0  0  0  0
  -25.4990  -15.3210   20.3390 N   0  0  0  0  0  0  0  0  0  0  0  0
  -24.7580  -15.9880   20.5270 H   0  0  0  0  0  0  0  0  0  0  0  0
  -26.3470  -15.7570   20.0000 H   0  0  0  0  0  0  0  0  0  0  0  0
  -29.2300  -24.2780   20.6170 C   0  0  0  0  0  2  0  0  0  0  0  0
  -28.2920  -25.2040   19.7870 C   0  0  0  0  0  2  0  0  0  0  0  0
  -28.3360  -26.6120   20.1600 O   0  0  0  0  0  0  0  0  0  0  0  0
  -24.5260  -31.8710   23.1490 C   0  0  0  0  0  0  0  0  0  0  0  0
  -27.1710  -27.3720   20.0990 C   0  0  0  0  0  0  0  0  0  0  0  0
  -23.3220  -30.4530   21.5230 C   0  0  0  0  0  3  0  0  0  0  0  0
  -24.7780  -28.9130   20.1000 C   0  0  0  0  0  0  0  0  0  0  0  0
  -25.8520  -30.8050   21.3240 C   0  0  0  0  0  2  0  0  0  0  0  0
  -25.9380  -29.4280   20.6900 C   0  0  0  0  0  0  0  0  0  0  0  0
  -27.1340  -28.6640   20.6890 C   0  0  0  0  0  3  0  0  0  0  0  0
  -25.9890  -26.9030   19.4720 C   0  0  0  0  0  3  0  0  0  0  0  0
  -24.8010  -27.6530   19.4880 C   0  0  0  0  0  3  0  0  0  0  0  0
  -23.5320  -29.7710   20.1470 C   0  0  0  0  0  2  0  0  0  0  0  0
  -24.5850  -31.0600   22.0560 N   0  0  0  0  0  0  0  0  0  0  0  0
  -23.4450  -32.1440   23.6890 O   0  0  0  0  0  0  0  0  0  0  0  0
  -22.6770  -29.4350   22.4910 C   0  0  0  0  0  0  0  0  0  0  0  0
  -21.3540  -29.2440   22.3690 N   0  0  0  0  0  0  0  0  0  0  0  0
  -23.3650  -28.8200   23.3110 O   0  0  0  0  0  0  0  0  0  0  0  0
  -20.8590  -29.7940   21.6790 H   0  0  0  0  0  0  0  0  0  0  0  0
  -17.9860  -28.0290   22.8740 C   0  0  0  0  0  0  0  0  0  0  0  0
  -20.5420  -28.3080   23.1470 C   0  0  0  0  0  3  0  0  0  0  0  0
  -20.6570  -26.8730   22.5860 C   0  0  0  0  0  2  0  0  0  0  0  0
  -19.5590  -26.5310   21.5730 C   0  0  0  0  0  2  0  0  0  0  0  0
  -18.1740  -26.6720   22.2140 C   0  0  0  0  0  2  0  0  0  0  0  0
  -19.0990  -28.8030   23.2970 C   0  0  0  0  0  0  0  0  0  0  0  0
  -18.8710  -30.0720   23.8730 C   0  0  0  0  0  3  0  0  0  0  0  0
  -17.5620  -30.5670   24.0300 C   0  0  0  0  0  3  0  0  0  0  0  0
  -16.4640  -29.7890   23.6240 C   0  0  0  0  0  3  0  0  0  0  0  0
  -16.6780  -28.5220   23.0510 C   0  0  0  0  0  3  0  0  0  0  0  0
  -25.8110  -32.5140   23.7600 C   0  0  0  0  0  3  0  0  0  0  0  0
  -25.4870  -33.9060   24.1020 N   0  0  0  0  0  0  0  0  0  0  0  0
  -25.8020  -34.9660   23.3450 C   0  0  0  0  0  0  0  0  0  0  0  0
  -26.4660  -34.8760   22.3070 O   0  0  0  0  0  0  0  0  0  0  0  0
  -24.8990  -34.0480   24.9080 H   0  0  0  0  0  0  0  0  0  0  0  0
  -24.0520  -36.7410   23.0140 C   0  0  0  0  0  1  0  0  0  0  0  0
  -25.3030  -36.3460   23.8140 C   0  0  0  0  0  3  0  0  0  0  0  0
  -27.4340  -37.2460   24.6350 C   0  0  0  0  0  1  0  0  0  0  0  0
  -26.3240  -37.4110   23.7010 N   0  0  0  0  0  0  0  0  0  0  0  0
  -25.9080  -38.3240   23.8610 H   0  0  0  0  0  0  0  0  0  0  0  0
  -26.3510  -31.7400   25.0250 C   0  0  1  0  0  0  0  0  0  0  0  0
  -25.2720  -31.4820   26.1030 C   0  0  0  0  0  1  0  0  0  0  0  0
  -26.9460  -30.3720   24.6160 C   0  0  0  0  0  1  0  0  0  0  0  0
  -27.4980  -32.5440   25.6800 C   0  0  0  0  0  1  0  0  0  0  0  0
  1 48  1  0
  1  4  1  0
  2  1  1  0
  3  1  1  0
  5  4  1  0
  5  6  1  0
  7 19  1  0
  8 13  1  0
  9 10  1  0
  9  8  1  0
 11 10  1  0
 11 23  1  0
 11 12  1  0
 13  7  1  0
 13 12  1  0
 14  7  2  0
 16 15  1  0
 17 19  1  0
 17 18  1  0
 18  6  1  0
 18 15  1  0
 19 16  1  0
 20 21  2  0
 21 40  1  0
 22 21  1  0
 22 25  1  0
 23 24  1  0
 23 20  1  0
 24 22  2  0
 25 26  1  0
 26 27  2  0
 28 31  1  0
 28 27  1  0
 29 28  2  0
 30 29  1  0
 30 25  2  0
 31 32  1  0
 32 33  1  0
 33 34  2  0
 35 34  1  0
 35 39  1  0
 36 35  2  0
 37 32  2  0
 37 36  1  0
 38 37  1  0
 40 41  1  0
 41 44  1  0
 41 43  1  0
 42 40  2  0
 45 20  1  0
 45 46  1  0
 47 45  1  0
 49 50  1  0
 49 48  1  0
 51 62  2  0
 52 50  1  0
 52 57  1  0
 53 61  1  0
 53 63  1  0
 54 60  1  0
 54 56  1  0
 55 61  1  0
 56 55  1  0
 57 56  2  0
 58 59  1  0
 58 52  2  0
 59 54  2  0
 60 53  1  0
 61 51  1  0
 63 65  2  0
 64 63  1  0
 66 64  1  0
 67 76  2  0
 67 72  1  0
 68 64  1  0
 68 72  1  0
 69 68  1  0
 70 71  1  0
 70 69  1  0
 71 67  1  0
 72 73  2  0
 73 74  1  0
 75 74  2  0
 76 75  1  0
 77 51  1  0
 77 78  1  0
 77 87  1  0
 78 81  1  0
 79 83  1  0
 79 78  1  0
 80 79  2  0
 83 82  1  0
 85 83  1  0
 85 86  1  0
 85 84  1  0
 87 90  1  1
 87 88  1  0
 89 87  1  0
M  ISO  4   7 100  19 100  49 101  50 101
M  END
>  <TORSDO>  (2) 
F 21

>  <SCORE>  (2) 
-12.447

>  <name>  (2) 
1

>  <ligand_id>  (2) 
1

>  <original_smiles>  (2) 
[H]c1c([H])c([H])c2c(c1[H])C([H])([H])C([H])([H])C([H])([H])C2([H])N([H])C(=O)C1([H])N(C(=O)C([H])(N([H])C(=O)C([H])(N([H])C([H])([H])[H])C([H])([H])[H])C(C([H])([H])[H])(C([H])([H])[H])C([H])([H])[H])C([H])([H])c2c([H])c(OC([H])([H])C([H])([H])[N+]([H])([H])C([H])([H])C([H])([H])C([H])([H])C3([H])C([H])([H])N(C(=O)N4C([H])([H])C([H])([H])C([H])([H])C([H])(n5nc(-c6c([H])c([H])c(Oc7c([H])c([H])c(F)c([H])c7F)c([H])c6[H])c(C(=O)N([H])[H])c5N([H])[H])C4([H])[H])C([H])([H])C3([H])[H])c([H])c([H])c2C1([H])[H]

>  <smiles>  (2) 
[H]c1c([H])c([H])c2c(c1[H])C([H])([H])C([H])([H])C([H])([H])C2([H])N([H])C(=O)C1([H])N(C(=O)C([H])(N([H])C(=O)C([H])(N([H])C([H])([H])[H])C([H])([H])[H])C(C([H])([H])[H])(C([H])([H])[H])C([H])([H])[H])C([H])([H])c2c([H])c(OC([H])([H])C([H])([H])[N+]([H])([H])C([H])([H])C([H])([H])C([H])([H])C3([H])C([H])([H])N(C(=O)N4C([H])([H])C([H])([H])C([H])([H])C([H])(n5nc(-c6c([H])c([H])c(Oc7c([H])c([H])c(F)c([H])c7F)c([H])c6[H])c(C(=O)N([H])[H])c5N([H])[H])C4([H])[H])C([H])([H])C3([H])[H])c([H])c([H])c2C1([H])[H]

$$$$
2:0:0
     RDKit          3D

 93101  0  0  1  0  0  0  0  0999 V2000
  -30.1930  -19.1160   21.1990 C   0  0  0  0  0  2  0  0  0  0  0  0
  -28.4130  -18.8860   19.7410 C   0  0  0  0  0  2  0  0  0  0  0  0
  -30.1830  -20.7560   20.9490 C   0  0  0  0  0  2  0  0  0  0  0  0
  -28.3220  -20.5370   19.5110 C   0  0  0  0  0  2  0  0  0  0  0  0
  -29.7960  -18.0680   20.0360 C   0  0  2  0  0  0  0  0  0  0  0  0
  -28.8990  -21.5100   20.5500 N   0  0  2  0  0  4  0  0  0  0  0  0
  -28.2950  -21.4540   21.3590 H   0  0  0  0  0  0  0  0  0  0  0  0
  -30.4310  -15.2000   20.2770 C   0  0  0  0  0  0  0  0  0  0  0  0
  -30.3540  -12.8010   19.3710 C   0  0  0  0  0  2  0  0  0  0  0  0
  -29.4140  -12.6740   18.1480 C   0  0  0  0  0  2  0  0  0  0  0  0
  -27.9640  -12.4270   18.5980 C   0  0  0  0  0  2  0  0  0  0  0  0
  -27.5420  -13.3590   19.7630 C   0  0  0  0  0  3  0  0  0  0  0  0
  -28.6080  -13.4500   20.8740 C   0  0  0  0  0  2  0  0  0  0  0  0
  -29.8450  -13.9190   20.2340 N   0  0  0  0  0  0  0  0  0  0  0  0
  -31.6470  -15.2050   20.0470 O   0  0  0  0  0  0  0  0  0  0  0  0
  -29.6650  -16.4440   20.3460 N   0  0  0  0  0  0  0  0  0  0  0  0
  -28.7040  -16.2120   20.5430 H   0  0  0  0  0  0  0  0  0  0  0  0
  -25.1760  -13.9010   20.5540 C   0  0  0  0  0  0  0  0  0  0  0  0
  -24.1230  -13.1160   20.9290 C   0  0  0  0  0  0  0  0  0  0  0  0
  -24.5950  -11.7670   20.8740 C   0  0  0  0  0  0  0  0  0  0  0  0
  -26.2200  -13.0350   20.2840 N   0  0  0  0  0  0  0  0  0  0  0  0
  -25.8830  -11.7440   20.5450 N   0  0  0  0  0  0  0  0  0  0  0  0
  -23.8760  -10.4980   21.0550 C   0  0  0  0  0  0  0  0  0  0  0  0
  -24.3110   -9.5270   21.9830 C   0  0  0  0  0  3  0  0  0  0  0  0
  -23.5880   -8.3250   22.1540 C   0  0  0  0  0  3  0  0  0  0  0  0
  -22.4160   -8.0890   21.3970 C   0  0  0  0  0  0  0  0  0  0  0  0
  -22.0000   -9.0500   20.4580 C   0  0  0  0  0  3  0  0  0  0  0  0
  -22.7240  -10.2400   20.2850 C   0  0  0  0  0  3  0  0  0  0  0  0
  -21.6650   -6.9410   21.4770 O   0  0  0  0  0  0  0  0  0  0  0  0
  -21.6020   -6.2010   22.6310 C   0  0  0  0  0  0  0  0  0  0  0  0
  -21.1270   -6.7500   23.8420 C   0  0  0  0  0  3  0  0  0  0  0  0
  -21.0130   -5.9350   24.9860 C   0  0  0  0  0  3  0  0  0  0  0  0
  -21.3640   -4.5740   24.9210 C   0  0  0  0  0  0  0  0  0  0  0  0
  -21.8330   -4.0250   23.7140 C   0  0  0  0  0  3  0  0  0  0  0  0
  -21.9480   -4.8360   22.5720 C   0  0  0  0  0  0  0  0  0  0  0  0
  -22.3810   -4.2970   21.4060 F   0  0  0  0  0  0  0  0  0  0  0  0
  -21.2470   -3.7890   26.0180 F   0  0  0  0  0  0  0  0  0  0  0  0
  -22.7260  -13.5820   21.2180 C   0  0  0  0  0  0  0  0  0  0  0  0
  -22.0070  -12.8710   22.0770 N   0  0  0  0  0  0  0  0  0  0  0  0
  -22.2820  -14.6160   20.7180 O   0  0  0  0  0  0  0  0  0  0  0  0
  -22.3800  -12.0350   22.5050 H   0  0  0  0  0  0  0  0  0  0  0  0
  -21.0720  -13.1660   22.3150 H   0  0  0  0  0  0  0  0  0  0  0  0
  -25.3270  -15.2750   20.3910 N   0  0  0  0  0  0  0  0  0  0  0  0
  -24.5460  -15.9130   20.5050 H   0  0  0  0  0  0  0  0  0  0  0  0
  -26.1490  -15.7210   20.0060 H   0  0  0  0  0  0  0  0  0  0  0  0
  -30.7570  -18.3090   18.8330 C   0  0  0  0  0  0  0  0  0  0  0  0
  -31.7630  -17.4800   18.6160 N   0  0  0  0  0  0  0  0  0  0  0  0
  -30.6180  -19.2640   18.0770 O   0  0  0  0  0  0  0  0  0  0  0  0
  -31.8820  -16.6580   19.2170 H   0  0  0  0  0  0  0  0  0  0  0  0
  -32.3980  -17.6290   17.8470 H   0  0  0  0  0  0  0  0  0  0  0  0
  -29.0580  -23.1160   20.2240 C   0  0  0  0  0  3  0  0  0  0  0  0
  -27.9660  -24.4610   20.4470 C   0  0  0  0  0  3  0  0  0  0  0  0
  -28.2110  -26.0550   20.3410 O   0  0  0  0  0  0  0  0  0  0  0  0
  -24.5790  -31.9170   23.2530 C   0  0  0  0  0  0  0  0  0  0  0  0
  -27.1660  -27.0860   20.2930 C   0  0  0  0  0  0  0  0  0  0  0  0
  -23.3920  -30.4980   21.6280 C   0  0  0  0  0  3  0  0  0  0  0  0
  -24.8490  -28.8970   20.2290 C   0  0  0  0  0  0  0  0  0  0  0  0
  -25.9530  -30.7410   21.4780 C   0  0  0  0  0  2  0  0  0  0  0  0
  -26.0320  -29.3330   20.8400 C   0  0  0  0  0  0  0  0  0  0  0  0
  -27.1890  -28.4470   20.8460 C   0  0  0  0  0  3  0  0  0  0  0  0
  -25.9540  -26.7800   19.6370 C   0  0  0  0  0  3  0  0  0  0  0  0
  -24.8300  -27.6390   19.6080 C   0  0  0  0  0  3  0  0  0  0  0  0
  -23.6250  -29.8040   20.2600 C   0  0  0  0  0  2  0  0  0  0  0  0
  -24.6620  -31.0770   22.1740 N   0  0  0  0  0  0  0  0  0  0  0  0
  -23.4880  -32.2070   23.7710 O   0  0  0  0  0  0  0  0  0  0  0  0
  -22.7060  -29.5040   22.6010 C   0  0  0  0  0  0  0  0  0  0  0  0
  -21.3790  -29.3230   22.4660 N   0  0  0  0  0  0  0  0  0  0  0  0
  -23.3710  -28.8990   23.4440 O   0  0  0  0  0  0  0  0  0  0  0  0
  -20.8950  -29.8640   21.7640 H   0  0  0  0  0  0  0  0  0  0  0  0
  -18.0000  -28.1070   22.9740 C   0  0  0  0  0  0  0  0  0  0  0  0
  -20.5570  -28.3910   23.2440 C   0  0  0  0  0  3  0  0  0  0  0  0
  -20.6690  -26.9520   22.6890 C   0  0  0  0  0  2  0  0  0  0  0  0
  -19.5740  -26.6100   21.6740 C   0  0  0  0  0  2  0  0  0  0  0  0
  -18.1890  -26.7530   22.3120 C   0  0  0  0  0  2  0  0  0  0  0  0
  -19.1120  -28.8830   23.3970 C   0  0  0  0  0  0  0  0  0  0  0  0
  -18.8810  -30.1480   23.9800 C   0  0  0  0  0  3  0  0  0  0  0  0
  -17.5720  -30.6400   24.1400 C   0  0  0  0  0  3  0  0  0  0  0  0
  -16.4740  -29.8610   23.7290 C   0  0  0  0  0  3  0  0  0  0  0  0
  -16.6900  -28.5970   23.1540 C   0  0  0  0  0  3  0  0  0  0  0  0
  -25.8480  -32.5690   23.8810 C   0  0  0  0  0  3  0  0  0  0  0  0
  -26.3460  -31.8280   25.1830 C   0  0  1  0  0  0  0  0  0  0  0  0
  -25.2360  -31.6090   26.2390 C   0  0  0  0  0  1  0  0  0  0  0  0
  -26.9410  -30.4440   24.8370 C   0  0  0  0  0  1  0  0  0  0  0  0
  -27.4840  -32.6400   25.8460 C   0  0  0  0  0  1  0  0  0  0  0  0
  -25.5310  -33.9740   24.1860 N   0  0  0  0  0  0  0  0  0  0  0  0
  -25.8760  -35.0200   23.4230 C   0  0  0  0  0  0  0  0  0  0  0  0
  -26.5560  -34.9030   22.4010 O   0  0  0  0  0  0  0  0  0  0  0  0
  -24.9270  -34.1390   24.9770 H   0  0  0  0  0  0  0  0  0  0  0  0
  -24.1650  -36.8240   23.0250 C   0  0  0  0  0  1  0  0  0  0  0  0
  -25.3890  -36.4170   23.8610 C   0  0  0  0  0  3  0  0  0  0  0  0
  -27.5080  -37.3020   24.7300 C   0  0  0  0  0  1  0  0  0  0  0  0
  -26.4300  -37.4630   23.7580 N   0  0  0  0  0  0  0  0  0  0  0  0
  -26.0260  -38.3870   23.8840 H   0  0  0  0  0  0  0  0  0  0  0  0
  2  5  1  0
  3  1  1  0
  4  2  1  0
  4  6  1  0
  5 46  1  0
  5 16  1  1
  5  1  1  0
  6  3  1  0
  6  7  1  1
  8 16  1  0
  9 14  1  0
 10 11  1  0
 10  9  1  0
 12 11  1  0
 12 21  1  0
 12 13  1  0
 14  8  1  0
 14 13  1  0
 15  8  2  0
 16 17  1  0
 18 19  2  0
 19 38  1  0
 20 19  1  0
 20 23  1  0
 21 22  1  0
 21 18  1  0
 22 20  2  0
 23 24  1  0
 24 25  2  0
 26 29  1  0
 26 25  1  0
 27 26  2  0
 28 27  1  0
 28 23  2  0
 29 30  1  0
 30 31  1  0
 31 32  2  0
 33 32  1  0
 33 37  1  0
 34 33  2  0
 35 30  2  0
 35 34  1  0
 36 35  1  0
 38 39  1  0
 39 42  1  0
 39 41  1  0
 40 38  2  0
 43 44  1  0
 43 18  1  0
 45 43  1  0
 47 46  1  0
 47 49  1  0
 48 46  2  0
 50 47  1  0
 51 52  2  0
 51  6  1  0
 53 52  1  0
 54 65  2  0
 55 53  1  0
 55 60  1  0
 56 64  1  0
 56 66  1  0
 57 63  1  0
 57 59  1  0
 58 64  1  0
 59 60  2  0
 59 58  1  0
 61 55  2  0
 62 61  1  0
 62 57  2  0
 63 56  1  0
 64 54  1  0
 66 68  2  0
 67 66  1  0
 69 67  1  0
 70 79  2  0
 70 75  1  0
 71 67  1  0
 71 75  1  0
 72 71  1  0
 73 74  1  0
 73 72  1  0
 74 70  1  0
 75 76  2  0
 76 77  1  0
 78 77  2  0
 79 78  1  0
 80 54  1  0
 80 85  1  0
 80 81  1  0
 81 84  1  1
 81 82  1  0
 83 81  1  0
 85 88  1  0
 86 90  1  0
 86 85  1  0
 87 86  2  0
 90 89  1  0
 92 90  1  0
 92 93  1  0
 92 91  1  0
M  ISO  4   8 100  16 100  52 101  53 101
M  END
>  <TORSDO>  (3) 
F 19

>  <SCORE>  (3) 
-15.082

>  <name>  (3) 
2

>  <ligand_id>  (3) 
2

>  <original_smiles>  (3) 
[H]c1c([H])c([H])c2c(c1[H])C([H])([H])C([H])([H])C([H])([H])C2([H])N([H])C(=O)C1([H])N(C(=O)C([H])(N([H])C(=O)C([H])(N([H])C([H])([H])[H])C([H])([H])[H])C(C([H])([H])[H])(C([H])([H])[H])C([H])([H])[H])C([H])([H])c2c([H])c(OC([H])([H])C([H])([H])[N+]3([H])C([H])([H])C([H])([H])C(C(=O)N([H])[H])(N([H])C(=O)N4C([H])([H])C([H])([H])C([H])([H])C([H])(n5nc(-c6c([H])c([H])c(Oc7c([H])c([H])c(F)c([H])c7F)c([H])c6[H])c(C(=O)N([H])[H])c5N([H])[H])C4([H])[H])C([H])([H])C3([H])[H])c([H])c([H])c2C1([H])[H]

>  <smiles>  (3) 
[H]c1c([H])c([H])c2c(c1[H])C([H])([H])C([H])([H])C([H])([H])C2([H])N([H])C(=O)C1([H])N(C(=O)C([H])(N([H])C(=O)C([H])(N([H])C([H])([H])[H])C([H])([H])[H])C(C([H])([H])[H])(C([H])([H])[H])C([H])([H])[H])C([H])([H])c2c([H])c(OC([H])([H])C([H])([H])[N+]3([H])C([H])([H])C([H])([H])C(C(=O)N([H])[H])(N([H])C(=O)N4C([H])([H])C([H])([H])C([H])([H])C([H])(n5nc(-c6c([H])c([H])c(Oc7c([H])c([H])c(F)c([H])c7F)c([H])c6[H])c(C(=O)N([H])[H])c5N([H])[H])C4([H])[H])C([H])([H])C3([H])[H])c([H])c([H])c2C1([H])[H]

$$$$
3:0:0
     RDKit          3D

 87 96  0  0  1  0  0  0  0  0999 V2000
  -29.5410  -20.3970   19.2960 C   0  0  0  0  0  2  0  0  0  0  0  0
  -30.5870  -15.5450   19.2270 C   0  0  0  0  0  0  0  0  0  0  0  0
  -30.4440  -13.0900   18.1930 C   0  0  0  0  0  2  0  0  0  0  0  0
  -29.2760  -12.7520   17.2130 C   0  0  0  0  0  2  0  0  0  0  0  0
  -27.9690  -12.4070   17.9540 C   0  0  0  0  0  2  0  0  0  0  0  0
  -27.7610  -13.3460   19.1650 C   0  0  0  0  0  3  0  0  0  0  0  0
  -29.0400  -13.4400   20.0180 C   0  0  0  0  0  2  0  0  0  0  0  0
  -30.0420  -14.1780   19.1860 N   0  0  0  0  0  0  0  0  0  0  0  0
  -31.7260  -15.5200   18.7140 O   0  0  0  0  0  0  0  0  0  0  0  0
  -30.1170  -18.0890   22.3240 C   0  0  0  0  0  2  0  0  0  0  0  0
  -30.8070  -18.8230   21.1610 C   0  0  0  0  0  2  0  0  0  0  0  0
  -28.4910  -18.6870   20.7210 C   0  0  0  0  0  2  0  0  0  0  0  0
  -29.0220  -16.4570   20.7900 C   0  0  0  0  0  2  0  0  0  0  0  0
  -28.7900  -17.6260   21.7120 C   0  0  0  0  0  3  0  0  0  0  0  0
  -29.8330  -18.6510   19.9880 C   0  0  1  0  0  0  0  0  0  0  0  0
  -29.8720  -16.8720   19.6620 N   0  0  0  0  0  0  0  0  0  0  0  0
  -25.6730  -13.9170   20.5280 C   0  0  0  0  0  0  0  0  0  0  0  0
  -24.6650  -13.1510   21.0420 C   0  0  0  0  0  0  0  0  0  0  0  0
  -24.9950  -11.8030   20.7130 C   0  0  0  0  0  0  0  0  0  0  0  0
  -26.5630  -13.0340   19.9360 N   0  0  0  0  0  0  0  0  0  0  0  0
  -26.1780  -11.7440   20.1080 N   0  0  0  0  0  0  0  0  0  0  0  0
  -24.2160  -10.5700   20.8880 C   0  0  0  0  0  0  0  0  0  0  0  0
  -24.6990   -9.4930   21.6620 C   0  0  0  0  0  3  0  0  0  0  0  0
  -23.9140   -8.3330   21.8380 C   0  0  0  0  0  3  0  0  0  0  0  0
  -22.6340   -8.2440   21.2370 C   0  0  0  0  0  0  0  0  0  0  0  0
  -22.1710   -9.3080   20.4460 C   0  0  0  0  0  3  0  0  0  0  0  0
  -22.9560  -10.4590   20.2680 C   0  0  0  0  0  3  0  0  0  0  0  0
  -21.8130   -7.1460   21.3290 O   0  0  0  0  0  0  0  0  0  0  0  0
  -21.7750   -6.3730   22.4580 C   0  0  0  0  0  0  0  0  0  0  0  0
  -21.4430   -6.9130   23.7200 C   0  0  0  0  0  3  0  0  0  0  0  0
  -21.3450   -6.0670   24.8420 C   0  0  0  0  0  3  0  0  0  0  0  0
  -21.5740   -4.6850   24.7060 C   0  0  0  0  0  0  0  0  0  0  0  0
  -21.9030   -4.1460   23.4500 C   0  0  0  0  0  3  0  0  0  0  0  0
  -22.0010   -4.9880   22.3280 C   0  0  0  0  0  0  0  0  0  0  0  0
  -22.2950   -4.4600   21.1150 F   0  0  0  0  0  0  0  0  0  0  0  0
  -21.4730   -3.8710   25.7840 F   0  0  0  0  0  0  0  0  0  0  0  0
  -23.4180  -13.6560   21.7040 C   0  0  0  0  0  0  0  0  0  0  0  0
  -22.8780  -12.8810   22.6400 N   0  0  0  0  0  0  0  0  0  0  0  0
  -22.9510  -14.7620   21.4410 O   0  0  0  0  0  0  0  0  0  0  0  0
  -23.2770  -11.9770   22.8500 H   0  0  0  0  0  0  0  0  0  0  0  0
  -22.0670  -13.1940   23.1500 H   0  0  0  0  0  0  0  0  0  0  0  0
  -25.8750  -15.2890   20.4800 N   0  0  0  0  0  0  0  0  0  0  0  0
  -25.1970  -15.9540   20.8350 H   0  0  0  0  0  0  0  0  0  0  0  0
  -26.6050  -15.7290   19.9340 H   0  0  0  0  0  0  0  0  0  0  0  0
  -29.1420  -22.1130   20.0550 C   0  0  0  0  0  3  0  0  0  0  0  0
  -28.4010  -23.8280   19.6380 C   0  0  0  0  0  3  0  0  0  0  0  0
  -28.3590  -25.4750   20.1930 O   0  0  0  0  0  0  0  0  0  0  0  0
  -24.7730  -31.6420   23.1190 C   0  0  0  0  0  0  0  0  0  0  0  0
  -27.3630  -26.6460   20.1010 C   0  0  0  0  0  0  0  0  0  0  0  0
  -23.5930  -30.2320   21.4850 C   0  0  0  0  0  3  0  0  0  0  0  0
  -25.0540  -28.6070   20.0660 C   0  0  0  0  0  0  0  0  0  0  0  0
  -26.1660  -30.4210   21.3460 C   0  0  0  0  0  2  0  0  0  0  0  0
  -26.2460  -28.9930   20.6910 C   0  0  0  0  0  0  0  0  0  0  0  0
  -27.3810  -28.0350   20.6830 C   0  0  0  0  0  3  0  0  0  0  0  0
  -26.1370  -26.4580   19.4180 C   0  0  0  0  0  3  0  0  0  0  0  0
  -25.0340  -27.3640   19.4090 C   0  0  0  0  0  3  0  0  0  0  0  0
  -23.8340  -29.5360   20.1140 C   0  0  0  0  0  2  0  0  0  0  0  0
  -24.8670  -30.7960   22.0360 N   0  0  0  0  0  0  0  0  0  0  0  0
  -23.6810  -31.9290   23.6370 O   0  0  0  0  0  0  0  0  0  0  0  0
  -22.8960  -29.2450   22.4620 C   0  0  0  0  0  0  0  0  0  0  0  0
  -21.5650  -29.0750   22.3460 N   0  0  0  0  0  0  0  0  0  0  0  0
  -23.5640  -28.6290   23.2950 O   0  0  0  0  0  0  0  0  0  0  0  0
  -21.0720  -29.6350   21.6650 H   0  0  0  0  0  0  0  0  0  0  0  0
  -18.2000  -27.8150   22.8740 C   0  0  0  0  0  0  0  0  0  0  0  0
  -20.7560  -28.1270   23.1220 C   0  0  0  0  0  3  0  0  0  0  0  0
  -20.8780  -26.6910   22.5560 C   0  0  0  0  0  2  0  0  0  0  0  0
  -19.7770  -26.3460   21.5500 C   0  0  0  0  0  2  0  0  0  0  0  0
  -18.3960  -26.4690   22.1970 C   0  0  0  0  0  2  0  0  0  0  0  0
  -19.3080  -28.5990   23.2940 C   0  0  0  0  0  0  0  0  0  0  0  0
  -19.0680  -29.8560   23.8900 C   0  0  0  0  0  3  0  0  0  0  0  0
  -17.7560  -30.3310   24.0650 C   0  0  0  0  0  3  0  0  0  0  0  0
  -16.6630  -29.5470   23.6580 C   0  0  0  0  0  3  0  0  0  0  0  0
  -16.8870  -28.2890   23.0680 C   0  0  0  0  0  3  0  0  0  0  0  0
  -26.0340  -32.3040   23.7520 C   0  0  0  0  0  3  0  0  0  0  0  0
  -25.7160  -33.7160   24.0400 N   0  0  0  0  0  0  0  0  0  0  0  0
  -26.0540  -34.7560   23.2660 C   0  0  0  0  0  0  0  0  0  0  0  0
  -26.7250  -34.6290   22.2380 O   0  0  0  0  0  0  0  0  0  0  0  0
  -25.1190  -33.8870   24.8350 H   0  0  0  0  0  0  0  0  0  0  0  0
  -24.3340  -36.5600   22.8810 C   0  0  0  0  0  1  0  0  0  0  0  0
  -25.5760  -36.1600   23.6960 C   0  0  0  0  0  3  0  0  0  0  0  0
  -27.7160  -37.0590   24.5000 C   0  0  0  0  0  1  0  0  0  0  0  0
  -26.6120  -37.2060   23.5550 N   0  0  0  0  0  0  0  0  0  0  0  0
  -26.2090  -38.1310   23.6790 H   0  0  0  0  0  0  0  0  0  0  0  0
  -26.5140  -31.5830   25.0740 C   0  0  1  0  0  0  0  0  0  0  0  0
  -25.3910  -31.3910   26.1200 C   0  0  0  0  0  1  0  0  0  0  0  0
  -27.1050  -30.1900   24.7620 C   0  0  0  0  0  1  0  0  0  0  0  0
  -27.6470  -32.4020   25.7370 C   0  0  0  0  0  1  0  0  0  0  0  0
  1 45  1  0
  2 16  1  0
  3  8  1  0
  4  5  1  0
  4  3  1  0
  6  5  1  0
  6 20  1  0
  6  7  1  0
  8  2  1  0
  8  7  1  0
  9  2  2  0
 11 10  1  0
 13 14  1  0
 14 12  1  0
 14 10  1  0
 15  1  1  6
 15 12  1  0
 15 11  1  0
 16 15  1  0
 16 13  1  0
 17 18  2  0
 18 37  1  0
 19 22  1  0
 19 18  1  0
 20 21  1  0
 20 17  1  0
 21 19  2  0
 22 23  1  0
 23 24  2  0
 25 28  1  0
 25 24  1  0
 26 25  2  0
 27 26  1  0
 27 22  2  0
 28 29  1  0
 29 30  1  0
 30 31  2  0
 32 31  1  0
 32 36  1  0
 33 32  2  0
 34 29  2  0
 34 33  1  0
 35 34  1  0
 37 38  1  0
 38 40  1  0
 38 41  1  0
 39 37  2  0
 42 17  1  0
 42 43  1  0
 44 42  1  0
 46 45  2  0
 46 47  1  0
 48 59  2  0
 49 47  1  0
 49 54  1  0
 50 58  1  0
 50 60  1  0
 51 57  1  0
 51 53  1  0
 52 58  1  0
 53 52  1  0
 54 53  2  0
 55 49  2  0
 56 55  1  0
 56 51  2  0
 57 50  1  0
 58 48  1  0
 60 62  2  0
 61 60  1  0
 63 61  1  0
 64 73  2  0
 64 69  1  0
 65 61  1  0
 65 69  1  0
 66 65  1  0
 67 68  1  0
 67 66  1  0
 68 64  1  0
 69 70  2  0
 70 71  1  0
 72 71  2  0
 73 72  1  0
 74 48  1  0
 74 75  1  0
 74 84  1  0
 75 78  1  0
 76 80  1  0
 76 75  1  0
 77 76  2  0
 80 79  1  0
 82 83  1  0
 82 80  1  0
 82 81  1  0
 84 87  1  1
 84 85  1  0
 86 84  1  0
M  ISO  4   2 100  16 100  46 101  47 101
M  END
>  <TORSDO>  (4) 
F 18

>  <SCORE>  (4) 
-11.389

>  <name>  (4) 
3

>  <ligand_id>  (4) 
3

>  <original_smiles>  (4) 
[H]c1c([H])c([H])c2c(c1[H])C([H])([H])C([H])([H])C([H])([H])C2([H])N([H])C(=O)C1([H])N(C(=O)C([H])(N([H])C(=O)C([H])(N([H])C([H])([H])[H])C([H])([H])[H])C(C([H])([H])[H])(C([H])([H])[H])C([H])([H])[H])C([H])([H])c2c([H])c(OC([H])([H])C([H])([H])C([H])([H])C34N(C(=O)N5C([H])([H])C([H])([H])C([H])([H])C([H])(n6nc(-c7c([H])c([H])c(Oc8c([H])c([H])c(F)c([H])c8F)c([H])c7[H])c(C(=O)N([H])[H])c6N([H])[H])C5([H])[H])C([H])([H])C([H])(C([H])([H])C3([H])[H])C4([H])[H])c([H])c([H])c2C1([H])[H]

>  <smiles>  (4) 
[H]c1c([H])c([H])c2c(c1[H])C([H])([H])C([H])([H])C([H])([H])C2([H])N([H])C(=O)C1([H])N(C(=O)C([H])(N([H])C(=O)C([H])(N([H])C([H])([H])[H])C([H])([H])[H])C(C([H])([H])[H])(C([H])([H])[H])C([H])([H])[H])C([H])([H])c2c([H])c(OC([H])([H])C([H])([H])C([H])([H])C34N(C(=O)N5C([H])([H])C([H])([H])C([H])([H])C([H])(n6nc(-c7c([H])c([H])c(Oc8c([H])c([H])c(F)c([H])c8F)c([H])c7[H])c(C(=O)N([H])[H])c6N([H])[H])C5([H])[H])C([H])([H])C([H])(C([H])([H])C3([H])[H])C4([H])[H])c([H])c([H])c2C1([H])[H]

$$$$
4:0:0
     RDKit          3D

 95104  0  0  1  0  0  0  0  0999 V2000
  -28.6340  -22.8810   21.9580 C   0  0  0  0  0  3  0  0  0  0  0  0
  -28.0910  -21.9890   21.1100 C   0  0  0  0  0  0  0  0  0  0  0  0
  -28.0950  -20.9640   18.9790 C   0  0  0  0  0  0  0  0  0  0  0  0
  -28.9780  -24.3050   21.5490 C   0  0  0  0  0  2  0  0  0  0  0  0
  -27.9080  -20.5170   21.3600 C   0  0  0  0  0  2  0  0  0  0  0  0
  -28.6130  -23.4920   19.1570 C   0  0  0  0  0  2  0  0  0  0  0  0
  -27.8020  -22.2840   19.6620 C   0  0  0  0  0  3  0  0  0  0  0  0
  -28.2950  -19.8640   20.0180 C   0  0  0  0  0  3  0  0  0  0  0  0
  -28.4590  -24.6750   20.1370 C   0  0  0  0  0  3  0  0  0  0  0  0
  -28.1520  -20.7950   17.7260 N   0  0  0  0  0  0  0  0  0  0  0  0
  -27.9820  -21.6610   17.2260 H   0  0  0  0  0  0  0  0  0  0  0  0
  -29.7500  -19.3500   20.0160 C   0  0  0  0  0  2  0  0  0  0  0  0
  -29.9620  -18.1110   20.9020 C   0  0  0  0  0  2  0  0  0  0  0  0
  -31.4390  -17.6970   20.9650 C   0  0  0  0  0  2  0  0  0  0  0  0
  -31.6920  -16.4630   21.8490 C   0  0  0  0  0  2  0  0  0  0  0  0
  -31.2620  -14.5630   20.2990 C   0  0  0  0  0  0  0  0  0  0  0  0
  -30.8010  -12.4760   19.0730 C   0  0  0  0  0  2  0  0  0  0  0  0
  -29.8480  -12.6960   17.8850 C   0  0  0  0  0  2  0  0  0  0  0  0
  -28.3810  -12.6010   18.3410 C   0  0  0  0  0  2  0  0  0  0  0  0
  -28.0900  -13.4840   19.5830 C   0  0  0  0  0  3  0  0  0  0  0  0
  -29.1450  -13.2470   20.6860 C   0  0  0  0  0  2  0  0  0  0  0  0
  -30.4880  -13.4650   20.1140 N   0  0  0  0  0  0  0  0  0  0  0  0
  -32.2370  -14.8380   19.5920 O   0  0  0  0  0  0  0  0  0  0  0  0
  -30.9570  -15.2910   21.3790 N   0  0  0  0  0  0  0  0  0  0  0  0
  -30.1770  -14.9740   21.9360 H   0  0  0  0  0  0  0  0  0  0  0  0
  -25.7320  -14.1900   20.3440 C   0  0  0  0  0  0  0  0  0  0  0  0
  -24.6360  -13.4600   20.7220 C   0  0  0  0  0  0  0  0  0  0  0  0
  -25.0340  -12.0900   20.6580 C   0  0  0  0  0  0  0  0  0  0  0  0
  -26.7320  -13.2670   20.0800 N   0  0  0  0  0  0  0  0  0  0  0  0
  -26.3140  -11.9980   20.3230 N   0  0  0  0  0  0  0  0  0  0  0  0
  -24.2550  -10.8590   20.8420 C   0  0  0  0  0  0  0  0  0  0  0  0
  -24.6460   -9.8690   21.7700 C   0  0  0  0  0  3  0  0  0  0  0  0
  -23.8710   -8.7020   21.9420 C   0  0  0  0  0  3  0  0  0  0  0  0
  -22.6900   -8.5160   21.1840 C   0  0  0  0  0  0  0  0  0  0  0  0
  -22.3180   -9.4940   20.2450 C   0  0  0  0  0  3  0  0  0  0  0  0
  -23.0930  -10.6520   20.0720 C   0  0  0  0  0  3  0  0  0  0  0  0
  -21.8890   -7.4030   21.2650 O   0  0  0  0  0  0  0  0  0  0  0  0
  -21.7820   -6.6760   22.4240 C   0  0  0  0  0  0  0  0  0  0  0  0
  -21.3650   -7.2640   23.6370 C   0  0  0  0  0  3  0  0  0  0  0  0
  -21.2030   -6.4660   24.7870 C   0  0  0  0  0  3  0  0  0  0  0  0
  -21.4450   -5.0810   24.7240 C   0  0  0  0  0  0  0  0  0  0  0  0
  -21.8550   -4.4920   23.5150 C   0  0  0  0  0  3  0  0  0  0  0  0
  -22.0200   -5.2880   22.3670 C   0  0  0  0  0  0  0  0  0  0  0  0
  -22.3940   -4.7120   21.1990 F   0  0  0  0  0  0  0  0  0  0  0  0
  -21.2820   -4.3120   25.8260 F   0  0  0  0  0  0  0  0  0  0  0  0
  -23.2680  -13.9950   21.0330 C   0  0  0  0  0  0  0  0  0  0  0  0
  -22.5310  -13.3220   21.9100 N   0  0  0  0  0  0  0  0  0  0  0  0
  -22.8620  -15.0440   20.5330 O   0  0  0  0  0  0  0  0  0  0  0  0
  -22.8710  -12.4720   22.3340 H   0  0  0  0  0  0  0  0  0  0  0  0
  -21.6140  -13.6630   22.1600 H   0  0  0  0  0  0  0  0  0  0  0  0
  -25.9570  -15.5550   20.1870 N   0  0  0  0  0  0  0  0  0  0  0  0
  -25.2250  -16.2430   20.3230 H   0  0  0  0  0  0  0  0  0  0  0  0
  -26.8260  -15.9580   19.8620 H   0  0  0  0  0  0  0  0  0  0  0  0
  -29.1290  -25.9520   19.5890 C   0  0  0  0  0  2  0  0  0  0  0  0
  -28.8760  -27.0840   20.4180 O   0  0  0  0  0  0  0  0  0  0  0  0
  -24.7230  -32.0030   23.4010 C   0  0  0  0  0  0  0  0  0  0  0  0
  -27.6450  -27.7040   20.3740 C   0  0  0  0  0  0  0  0  0  0  0  0
  -23.6260  -30.5710   21.7070 C   0  0  0  0  0  3  0  0  0  0  0  0
  -25.1840  -29.1010   20.3280 C   0  0  0  0  0  0  0  0  0  0  0  0
  -26.1410  -31.0240   21.6050 C   0  0  0  0  0  2  0  0  0  0  0  0
  -26.2970  -29.6630   20.9620 C   0  0  0  0  0  0  0  0  0  0  0  0
  -27.5240  -28.9670   20.9920 C   0  0  0  0  0  3  0  0  0  0  0  0
  -26.5070  -27.1500   19.7360 C   0  0  0  0  0  3  0  0  0  0  0  0
  -25.2820  -27.8390   19.7180 C   0  0  0  0  0  3  0  0  0  0  0  0
  -23.9090  -29.9100   20.3320 C   0  0  0  0  0  2  0  0  0  0  0  0
  -24.8460  -31.2150   22.2970 N   0  0  0  0  0  0  0  0  0  0  0  0
  -23.6130  -32.2320   23.9030 O   0  0  0  0  0  0  0  0  0  0  0  0
  -22.9810  -29.5180   22.6360 C   0  0  0  0  0  0  0  0  0  0  0  0
  -21.6670  -29.3030   22.4700 N   0  0  0  0  0  0  0  0  0  0  0  0
  -23.6610  -28.8980   23.4590 O   0  0  0  0  0  0  0  0  0  0  0  0
  -21.1800  -29.8560   21.7790 H   0  0  0  0  0  0  0  0  0  0  0  0
  -18.3080  -28.0400   22.8800 C   0  0  0  0  0  0  0  0  0  0  0  0
  -20.8540  -28.3350   23.2060 C   0  0  0  0  0  3  0  0  0  0  0  0
  -20.9940  -26.9190   22.6000 C   0  0  0  0  0  2  0  0  0  0  0  0
  -19.9170  -26.5990   21.5590 C   0  0  0  0  0  2  0  0  0  0  0  0
  -18.5210  -26.7080   22.1790 C   0  0  0  0  0  2  0  0  0  0  0  0
  -19.4040  -28.8100   23.3470 C   0  0  0  0  0  0  0  0  0  0  0  0
  -19.1530  -30.0580   23.9590 C   0  0  0  0  0  3  0  0  0  0  0  0
  -17.8380  -30.5350   24.1090 C   0  0  0  0  0  3  0  0  0  0  0  0
  -16.7550  -29.7600   23.6590 C   0  0  0  0  0  3  0  0  0  0  0  0
  -16.9910  -28.5130   23.0500 C   0  0  0  0  0  3  0  0  0  0  0  0
  -25.9630  -32.6730   24.0710 C   0  0  0  0  0  3  0  0  0  0  0  0
  -25.6180  -34.0770   24.3310 N   0  0  0  0  0  0  0  0  0  0  0  0
  -25.9750  -35.1040   23.5480 C   0  0  0  0  0  0  0  0  0  0  0  0
  -26.6990  -34.9730   22.5580 O   0  0  0  0  0  0  0  0  0  0  0  0
  -24.9820  -34.2530   25.0940 H   0  0  0  0  0  0  0  0  0  0  0  0
  -24.2360  -36.8460   23.0390 C   0  0  0  0  0  1  0  0  0  0  0  0
  -25.4430  -36.5000   23.9240 C   0  0  0  0  0  3  0  0  0  0  0  0
  -27.5230  -37.4530   24.8140 C   0  0  0  0  0  1  0  0  0  0  0  0
  -26.4620  -37.5670   23.8170 N   0  0  0  0  0  0  0  0  0  0  0  0
  -26.0350  -38.4840   23.9120 H   0  0  0  0  0  0  0  0  0  0  0  0
  -26.4180  -31.9530   25.3990 C   0  0  1  0  0  0  0  0  0  0  0  0
  -25.2650  -31.7130   26.4020 C   0  0  0  0  0  1  0  0  0  0  0  0
  -27.0620  -30.5840   25.0830 C   0  0  0  0  0  1  0  0  0  0  0  0
  -27.5010  -32.7990   26.1090 C   0  0  0  0  0  1  0  0  0  0  0  0
  2  5  1  0
  2  1  2  0
  3  7  1  0
  3  8  1  0
  4  1  1  0
  6  9  1  0
  7  6  1  0
  7  2  1  0
  8 12  1  0
  8  5  1  0
  9 54  1  0
  9  4  1  0
 10  3  2  0
 11 10  1  0
 12 13  1  0
 13 14  1  0
 14 15  1  0
 16 24  1  0
 17 22  1  0
 18 19  1  0
 18 17  1  0
 20 19  1  0
 20 29  1  0
 20 21  1  0
 22 16  1  0
 22 21  1  0
 23 16  2  0
 24 15  1  0
 24 25  1  0
 26 27  2  0
 27 46  1  0
 28 27  1  0
 28 31  1  0
 29 30  1  0
 29 26  1  0
 30 28  2  0
 31 32  1  0
 32 33  2  0
 34 37  1  0
 34 33  1  0
 35 34  2  0
 36 35  1  0
 36 31  2  0
 37 38  1  0
 38 39  1  0
 39 40  2  0
 41 40  1  0
 41 45  1  0
 42 41  2  0
 43 38  2  0
 43 42  1  0
 44 43  1  0
 46 47  1  0
 47 50  1  0
 47 49  1  0
 48 46  2  0
 51 52  1  0
 51 26  1  0
 53 51  1  0
 54 55  1  0
 56 67  2  0
 57 55  1  0
 57 62  1  0
 58 66  1  0
 58 68  1  0
 59 65  1  0
 59 61  1  0
 60 66  1  0
 61 62  2  0
 61 60  1  0
 63 57  2  0
 64 63  1  0
 64 59  2  0
 65 58  1  0
 66 56  1  0
 68 70  2  0
 69 68  1  0
 71 69  1  0
 72 81  2  0
 72 77  1  0
 73 69  1  0
 73 77  1  0
 74 73  1  0
 75 76  1  0
 75 74  1  0
 76 72  1  0
 77 78  2  0
 78 79  1  0
 80 79  2  0
 81 80  1  0
 82 56  1  0
 82 83  1  0
 82 92  1  0
 83 86  1  0
 84 88  1  0
 84 83  1  0
 85 84  2  0
 88 87  1  0
 90 91  1  0
 90 88  1  0
 90 89  1  0
 92 95  1  1
 92 93  1  0
 94 92  1  0
M  ISO  4  16 100  24 100  54 101  55 101
M  END
>  <TORSDO>  (5) 
F 21

>  <SCORE>  (5) 
-12.147

>  <name>  (5) 
4

>  <ligand_id>  (5) 
4

>  <original_smiles>  (5) 
[H]N=C1C2([H])C(=C([H])C([H])([H])C([H])(C([H])([H])Oc3c([H])c([H])c4c(c3[H])C([H])([H])N(C(=O)C([H])(N([H])C(=O)C([H])(N([H])C([H])([H])[H])C([H])([H])[H])C(C([H])([H])[H])(C([H])([H])[H])C([H])([H])[H])C([H])(C(=O)N([H])C3([H])c5c([H])c([H])c([H])c([H])c5C([H])([H])C([H])([H])C3([H])[H])C4([H])[H])C2([H])[H])C([H])([H])C1([H])C([H])([H])C([H])([H])C([H])([H])C([H])([H])N([H])C(=O)N1C([H])([H])C([H])([H])C([H])([H])C([H])(n2nc(-c3c([H])c([H])c(Oc4c([H])c([H])c(F)c([H])c4F)c([H])c3[H])c(C(=O)N([H])[H])c2N([H])[H])C1([H])[H]

>  <smiles>  (5) 
[H]N=C1C2([H])C(=C([H])C([H])([H])C([H])(C([H])([H])Oc3c([H])c([H])c4c(c3[H])C([H])([H])N(C(=O)C([H])(N([H])C(=O)C([H])(N([H])C([H])([H])[H])C([H])([H])[H])C(C([H])([H])[H])(C([H])([H])[H])C([H])([H])[H])C([H])(C(=O)N([H])C3([H])c5c([H])c([H])c([H])c([H])c5C([H])([H])C([H])([H])C3([H])[H])C4([H])[H])C2([H])[H])C([H])([H])C1([H])C([H])([H])C([H])([H])C([H])([H])C([H])([H])N([H])C(=O)N1C([H])([H])C([H])([H])C([H])([H])C([H])(n2nc(-c3c([H])c([H])c(Oc4c([H])c([H])c(F)c([H])c4F)c([H])c3[H])c(C(=O)N([H])[H])c2N([H])[H])C1([H])[H]

$$$$
5:0:0
     RDKit          3D

 91100  0  0  1  0  0  0  0  0999 V2000
  -28.4430  -18.9000   20.0590 C   0  0  0  0  0  2  0  0  0  0  0  0
  -29.0510  -19.0650   21.2250 C   0  0  0  0  0  3  0  0  0  0  0  0
  -30.1300  -17.9730   21.3540 C   0  0  0  0  0  2  0  0  0  0  0  0
  -29.5070  -20.5340   21.4180 C   0  0  0  0  0  2  0  0  0  0  0  0
  -30.2750  -20.1640   19.0470 C   0  0  0  0  0  2  0  0  0  0  0  0
  -29.6030  -18.6940   19.1400 C   0  0  0  0  0  3  0  0  0  0  0  0
  -30.4490  -17.5380   19.8910 C   0  0  0  0  0  3  0  0  0  0  0  0
  -29.8650  -21.2120   20.1080 N   0  0  1  0  0  4  0  0  0  0  0  0
  -30.7130  -21.7240   20.2990 H   0  0  0  0  0  0  0  0  0  0  0  0
  -30.8800  -14.9070   19.9910 C   0  0  0  0  0  0  0  0  0  0  0  0
  -30.6480  -12.5490   19.2040 C   0  0  0  0  0  2  0  0  0  0  0  0
  -29.6780  -12.3700   18.0070 C   0  0  0  0  0  2  0  0  0  0  0  0
  -28.2000  -12.3600   18.4430 C   0  0  0  0  0  2  0  0  0  0  0  0
  -27.8440  -13.3740   19.5670 C   0  0  0  0  0  3  0  0  0  0  0  0
  -28.9210  -13.4140   20.6710 C   0  0  0  0  0  2  0  0  0  0  0  0
  -30.2040  -13.7020   20.0150 N   0  0  0  0  0  0  0  0  0  0  0  0
  -32.1100  -14.9200   19.9450 O   0  0  0  0  0  0  0  0  0  0  0  0
  -29.9720  -15.9600   18.0910 C   0  0  0  0  0  1  0  0  0  0  0  0
  -30.1870  -16.0440   19.5480 N   0  0  0  0  0  0  0  0  0  0  0  0
  -25.4900  -14.0400   20.3560 C   0  0  0  0  0  0  0  0  0  0  0  0
  -24.4070  -13.3000   20.7400 C   0  0  0  0  0  0  0  0  0  0  0  0
  -24.8300  -11.9350   20.7100 C   0  0  0  0  0  0  0  0  0  0  0  0
  -26.5050  -13.1330   20.1030 N   0  0  0  0  0  0  0  0  0  0  0  0
  -26.1150  -11.8620   20.3890 N   0  0  0  0  0  0  0  0  0  0  0  0
  -24.0720  -10.6920   20.9070 C   0  0  0  0  0  0  0  0  0  0  0  0
  -24.4760   -9.7230   21.8500 C   0  0  0  0  0  3  0  0  0  0  0  0
  -23.7210   -8.5450   22.0370 C   0  0  0  0  0  3  0  0  0  0  0  0
  -22.5450   -8.3270   21.2790 C   0  0  0  0  0  0  0  0  0  0  0  0
  -22.1590   -9.2850   20.3240 C   0  0  0  0  0  3  0  0  0  0  0  0
  -22.9160  -10.4550   20.1370 C   0  0  0  0  0  3  0  0  0  0  0  0
  -21.7630   -7.2020   21.3730 O   0  0  0  0  0  0  0  0  0  0  0  0
  -21.6740   -6.4860   22.5390 C   0  0  0  0  0  0  0  0  0  0  0  0
  -21.2080   -7.0670   23.7380 C   0  0  0  0  0  3  0  0  0  0  0  0
  -21.0670   -6.2770   24.8960 C   0  0  0  0  0  3  0  0  0  0  0  0
  -21.3790   -4.9040   24.8550 C   0  0  0  0  0  0  0  0  0  0  0  0
  -21.8370   -4.3220   23.6590 C   0  0  0  0  0  3  0  0  0  0  0  0
  -21.9790   -5.1100   22.5050 C   0  0  0  0  0  0  0  0  0  0  0  0
  -22.4020   -4.5390   21.3510 F   0  0  0  0  0  0  0  0  0  0  0  0
  -21.2340   -4.1420   25.9640 F   0  0  0  0  0  0  0  0  0  0  0  0
  -23.0250  -13.8140   21.0260 C   0  0  0  0  0  0  0  0  0  0  0  0
  -22.2890  -13.1430   21.9030 N   0  0  0  0  0  0  0  0  0  0  0  0
  -22.6100  -14.8500   20.5050 O   0  0  0  0  0  0  0  0  0  0  0  0
  -22.6380  -12.3060   22.3470 H   0  0  0  0  0  0  0  0  0  0  0  0
  -21.3620  -13.4720   22.1370 H   0  0  0  0  0  0  0  0  0  0  0  0
  -25.6940  -15.4060   20.1690 N   0  0  0  0  0  0  0  0  0  0  0  0
  -24.9680  -16.0950   20.3290 H   0  0  0  0  0  0  0  0  0  0  0  0
  -26.5500  -15.8090   19.8100 H   0  0  0  0  0  0  0  0  0  0  0  0
  -28.8980  -22.3390   19.6740 C   0  0  0  0  0  2  0  0  0  0  0  0
  -29.2350  -23.8900   20.0070 C   0  0  0  0  0  3  0  0  0  0  0  0
  -28.1260  -25.0130   19.6450 C   0  0  0  0  0  3  0  0  0  0  0  0
  -28.3170  -26.4820   19.8890 O   0  0  0  0  0  0  0  0  0  0  0  0
  -24.5210  -31.7780   23.1040 C   0  0  0  0  0  0  0  0  0  0  0  0
  -27.1840  -27.3340   19.8770 C   0  0  0  0  0  0  0  0  0  0  0  0
  -23.3210  -30.4010   21.4500 C   0  0  0  0  0  3  0  0  0  0  0  0
  -24.7840  -28.9180   19.9570 C   0  0  0  0  0  0  0  0  0  0  0  0
  -25.8520  -30.7700   21.2350 C   0  0  0  0  0  2  0  0  0  0  0  0
  -25.9550  -29.4100   20.5450 C   0  0  0  0  0  0  0  0  0  0  0  0
  -27.1570  -28.6300   20.4920 C   0  0  0  0  0  3  0  0  0  0  0  0
  -25.9790  -26.9080   19.2700 C   0  0  0  0  0  3  0  0  0  0  0  0
  -24.7990  -27.6750   19.3120 C   0  0  0  0  0  3  0  0  0  0  0  0
  -23.5180  -29.7490   20.0570 C   0  0  0  0  0  2  0  0  0  0  0  0
  -24.5850  -30.9990   21.9860 N   0  0  0  0  0  0  0  0  0  0  0  0
  -23.4400  -32.0200   23.6620 O   0  0  0  0  0  0  0  0  0  0  0  0
  -22.6950  -29.3500   22.3970 C   0  0  0  0  0  0  0  0  0  0  0  0
  -21.3740  -29.1330   22.2670 N   0  0  0  0  0  0  0  0  0  0  0  0
  -23.3950  -28.7290   23.2020 O   0  0  0  0  0  0  0  0  0  0  0  0
  -20.8710  -29.6770   21.5800 H   0  0  0  0  0  0  0  0  0  0  0  0
  -18.0470  -27.7800   22.7140 C   0  0  0  0  0  0  0  0  0  0  0  0
  -20.5930  -28.1460   23.0130 C   0  0  0  0  0  3  0  0  0  0  0  0
  -20.7790  -26.7350   22.4000 C   0  0  0  0  0  2  0  0  0  0  0  0
  -19.6810  -26.3770   21.3920 C   0  0  0  0  0  2  0  0  0  0  0  0
  -18.2820  -26.4560   22.0140 C   0  0  0  0  0  2  0  0  0  0  0  0
  -19.1290  -28.5790   23.1660 C   0  0  0  0  0  0  0  0  0  0  0  0
  -18.8520  -29.8230   23.7720 C   0  0  0  0  0  3  0  0  0  0  0  0
  -17.5260  -30.2730   23.9210 C   0  0  0  0  0  3  0  0  0  0  0  0
  -16.4560  -29.4700   23.4850 C   0  0  0  0  0  3  0  0  0  0  0  0
  -16.7210  -28.2240   22.8910 C   0  0  0  0  0  3  0  0  0  0  0  0
  -25.8000  -32.4200   23.7220 C   0  0  0  0  0  3  0  0  0  0  0  0
  -26.3450  -31.6330   24.9780 C   0  0  1  0  0  0  0  0  0  0  0  0
  -25.2670  -31.3620   26.0530 C   0  0  0  0  0  1  0  0  0  0  0  0
  -26.9490  -30.2720   24.5580 C   0  0  0  0  0  1  0  0  0  0  0  0
  -27.4820  -32.4400   25.6480 C   0  0  0  0  0  1  0  0  0  0  0  0
  -25.4660  -33.8030   24.0830 N   0  0  0  0  0  0  0  0  0  0  0  0
  -25.7790  -34.8790   23.3490 C   0  0  0  0  0  0  0  0  0  0  0  0
  -26.4470  -34.8130   22.3140 O   0  0  0  0  0  0  0  0  0  0  0  0
  -24.8610  -33.9280   24.8800 H   0  0  0  0  0  0  0  0  0  0  0  0
  -24.0200  -36.6530   23.0520 C   0  0  0  0  0  1  0  0  0  0  0  0
  -25.2710  -36.2440   23.8470 C   0  0  0  0  0  3  0  0  0  0  0  0
  -27.3830  -37.1480   24.7090 C   0  0  0  0  0  1  0  0  0  0  0  0
  -26.2840  -37.3180   23.7630 N   0  0  0  0  0  0  0  0  0  0  0  0
  -25.8590  -38.2260   23.9350 H   0  0  0  0  0  0  0  0  0  0  0  0
  2  1  1  0
  2  3  1  0
  2  4  1  0
  5  8  1  0
  6  5  1  0
  6  7  1  0
  6  1  1  0
  7 19  1  0
  7  3  1  0
  8  9  1  1
  8  4  1  0
 10 16  1  0
 11 16  1  0
 12 13  1  0
 12 11  1  0
 14 13  1  0
 14 23  1  0
 14 15  1  0
 16 15  1  0
 17 10  2  0
 18 19  1  0
 19 10  1  0
 20 21  2  0
 21 40  1  0
 22 21  1  0
 22 25  1  0
 23 20  1  0
 23 24  1  0
 24 22  2  0
 25 26  1  0
 26 27  2  0
 28 31  1  0
 28 27  1  0
 29 28  2  0
 30 29  1  0
 30 25  2  0
 31 32  1  0
 32 33  1  0
 33 34  2  0
 35 34  1  0
 35 39  1  0
 36 35  2  0
 37 32  2  0
 37 36  1  0
 38 37  1  0
 40 41  1  0
 41 44  1  0
 41 43  1  0
 42 40  2  0
 45 46  1  0
 45 20  1  0
 47 45  1  0
 48 49  1  0
 48  8  1  0
 50 51  1  0
 50 49  2  0
 52 63  2  0
 53 51  1  0
 53 58  1  0
 54 62  1  0
 54 64  1  0
 55 61  1  0
 55 57  1  0
 56 62  1  0
 57 56  1  0
 58 57  2  0
 59 60  1  0
 59 53  2  0
 60 55  2  0
 61 54  1  0
 62 52  1  0
 64 66  2  0
 65 64  1  0
 67 65  1  0
 68 77  2  0
 68 73  1  0
 69 65  1  0
 69 73  1  0
 70 69  1  0
 71 72  1  0
 71 70  1  0
 72 68  1  0
 73 74  2  0
 74 75  1  0
 76 75  2  0
 77 76  1  0
 78 52  1  0
 78 83  1  0
 78 79  1  0
 79 82  1  1
 79 80  1  0
 81 79  1  0
 83 86  1  0
 84 88  1  0
 84 83  1  0
 85 84  2  0
 88 87  1  0
 90 88  1  0
 90 91  1  0
 90 89  1  0
M  ISO  4  10 100  19 100  50 101  51 101
M  END
>  <TORSDO>  (6) 
F 19

>  <SCORE>  (6) 
-12.686

>  <name>  (6) 
5

>  <ligand_id>  (6) 
5

>  <original_smiles>  (6) 
[H]C1=C2C([H])([H])C([H])(N(C(=O)N3C([H])([H])C([H])([H])C([H])([H])C([H])(n4nc(-c5c([H])c([H])c(Oc6c([H])c([H])c(F)c([H])c6F)c([H])c5[H])c(C(=O)N([H])[H])c4N([H])[H])C3([H])[H])C([H])([H])[H])C1([H])C([H])([H])[N+]([H])(C([H])([H])C([H])([H])C([H])([H])Oc1c([H])c([H])c3c(c1[H])C([H])([H])N(C(=O)C([H])(N([H])C(=O)C([H])(N([H])C([H])([H])[H])C([H])([H])[H])C(C([H])([H])[H])(C([H])([H])[H])C([H])([H])[H])C([H])(C(=O)N([H])C1([H])c4c([H])c([H])c([H])c([H])c4C([H])([H])C([H])([H])C1([H])[H])C3([H])[H])C2([H])[H]

>  <smiles>  (6) 
[H]C1=C2C([H])([H])C([H])(N(C(=O)N3C([H])([H])C([H])([H])C([H])([H])C([H])(n4nc(-c5c([H])c([H])c(Oc6c([H])c([H])c(F)c([H])c6F)c([H])c5[H])c(C(=O)N([H])[H])c4N([H])[H])C3([H])[H])C([H])([H])[H])C1([H])C([H])([H])[N+]([H])(C([H])([H])C([H])([H])C([H])([H])Oc1c([H])c([H])c3c(c1[H])C([H])([H])N(C(=O)C([H])(N([H])C(=O)C([H])(N([H])C([H])([H])[H])C([H])([H])[H])C(C([H])([H])[H])(C([H])([H])[H])C([H])([H])[H])C([H])(C(=O)N([H])C1([H])c4c([H])c([H])c([H])c([H])c4C([H])([H])C([H])([H])C1([H])[H])C3([H])[H])C2([H])[H]

$$$$
6:0:0
     RDKit          3D

 88 97  0  0  1  0  0  0  0  0999 V2000
  -29.6780  -20.7320   19.1480 C   0  0  0  0  0  2  0  0  0  0  0  0
  -28.4250  -20.4450   21.1480 C   0  0  0  0  0  2  0  0  0  0  0  0
  -29.2130  -23.6440   19.1890 C   0  0  0  0  0  2  0  0  0  0  0  0
  -27.8050  -23.3630   21.1050 C   0  0  0  0  0  2  0  0  0  0  0  0
  -29.6260  -22.2050   19.8440 C   0  0  0  0  0  3  0  0  0  0  0  0
  -28.7840  -22.0460   21.0670 C   0  0  0  0  0  3  0  0  0  0  0  0
  -29.1240  -19.4840   20.0330 C   0  0  0  0  0  3  0  0  0  0  0  0
  -28.0990  -24.5100   19.9870 C   0  0  0  0  0  3  0  0  0  0  0  0
  -28.2130  -26.1030   20.2290 O   0  0  0  0  0  0  0  0  0  0  0  0
  -24.6220  -31.8910   23.2840 C   0  0  0  0  0  0  0  0  0  0  0  0
  -27.1580  -27.1250   20.1820 C   0  0  0  0  0  0  0  0  0  0  0  0
  -23.4080  -30.5150   21.6410 C   0  0  0  0  0  3  0  0  0  0  0  0
  -24.8420  -28.9420   20.1850 C   0  0  0  0  0  0  0  0  0  0  0  0
  -25.9670  -30.7550   21.4630 C   0  0  0  0  0  2  0  0  0  0  0  0
  -26.0320  -29.3610   20.7930 C   0  0  0  0  0  0  0  0  0  0  0  0
  -27.1850  -28.4710   20.7700 C   0  0  0  0  0  3  0  0  0  0  0  0
  -25.9380  -26.8380   19.5290 C   0  0  0  0  0  3  0  0  0  0  0  0
  -24.8150  -27.7000   19.5350 C   0  0  0  0  0  3  0  0  0  0  0  0
  -23.6200  -29.8500   20.2530 C   0  0  0  0  0  2  0  0  0  0  0  0
  -24.6880  -31.0790   22.1830 N   0  0  0  0  0  0  0  0  0  0  0  0
  -23.5380  -32.1720   23.8230 O   0  0  0  0  0  0  0  0  0  0  0  0
  -22.7320  -29.5020   22.6010 C   0  0  0  0  0  0  0  0  0  0  0  0
  -21.4060  -29.3190   22.4710 N   0  0  0  0  0  0  0  0  0  0  0  0
  -23.4070  -28.8830   23.4270 O   0  0  0  0  0  0  0  0  0  0  0  0
  -20.9150  -29.8710   21.7820 H   0  0  0  0  0  0  0  0  0  0  0  0
  -18.0400  -28.0580   22.9550 C   0  0  0  0  0  0  0  0  0  0  0  0
  -20.5930  -28.3690   23.2390 C   0  0  0  0  0  3  0  0  0  0  0  0
  -20.7240  -26.9370   22.6690 C   0  0  0  0  0  2  0  0  0  0  0  0
  -19.6360  -26.5920   21.6470 C   0  0  0  0  0  2  0  0  0  0  0  0
  -18.2470  -26.7120   22.2800 C   0  0  0  0  0  2  0  0  0  0  0  0
  -19.1420  -28.8430   23.3900 C   0  0  0  0  0  0  0  0  0  0  0  0
  -18.8940  -30.1000   23.9830 C   0  0  0  0  0  3  0  0  0  0  0  0
  -17.5790  -30.5740   24.1430 C   0  0  0  0  0  3  0  0  0  0  0  0
  -16.4920  -29.7880   23.7230 C   0  0  0  0  0  3  0  0  0  0  0  0
  -16.7240  -28.5320   23.1340 C   0  0  0  0  0  3  0  0  0  0  0  0
  -25.9020  -32.5250   23.9080 C   0  0  0  0  0  3  0  0  0  0  0  0
  -25.6010  -33.9310   24.2260 N   0  0  0  0  0  0  0  0  0  0  0  0
  -25.9150  -34.9770   23.4500 C   0  0  0  0  0  0  0  0  0  0  0  0
  -26.5540  -34.8610   22.4020 O   0  0  0  0  0  0  0  0  0  0  0  0
  -25.0310  -34.0970   25.0440 H   0  0  0  0  0  0  0  0  0  0  0  0
  -24.1750  -36.7710   23.1480 C   0  0  0  0  0  1  0  0  0  0  0  0
  -25.4500  -36.3740   23.9100 C   0  0  0  0  0  3  0  0  0  0  0  0
  -27.6130  -37.2780   24.6420 C   0  0  0  0  0  1  0  0  0  0  0  0
  -26.4760  -37.4260   23.7380 N   0  0  0  0  0  0  0  0  0  0  0  0
  -26.0730  -38.3480   23.8830 H   0  0  0  0  0  0  0  0  0  0  0  0
  -26.4000  -31.7690   25.2010 C   0  0  1  0  0  0  0  0  0  0  0  0
  -25.2960  -31.5590   26.2650 C   0  0  0  0  0  1  0  0  0  0  0  0
  -26.9720  -30.3790   24.8410 C   0  0  0  0  0  1  0  0  0  0  0  0
  -27.5540  -32.5610   25.8610 C   0  0  0  0  0  1  0  0  0  0  0  0
  -30.0750  -18.0360   20.3190 C   0  0  0  0  0  2  0  0  0  0  0  0
  -30.4500  -15.2180   20.1730 C   0  0  0  0  0  0  0  0  0  0  0  0
  -30.3540  -12.8280   19.2450 C   0  0  0  0  0  2  0  0  0  0  0  0
  -29.3900  -12.7080   18.0400 C   0  0  0  0  0  2  0  0  0  0  0  0
  -27.9470  -12.4600   18.5210 C   0  0  0  0  0  2  0  0  0  0  0  0
  -27.5520  -13.3930   19.6940 C   0  0  0  0  0  3  0  0  0  0  0  0
  -28.6380  -13.4700   20.7860 C   0  0  0  0  0  2  0  0  0  0  0  0
  -29.8640  -13.9390   20.1260 N   0  0  0  0  0  0  0  0  0  0  0  0
  -31.6560  -15.2480   19.8970 O   0  0  0  0  0  0  0  0  0  0  0  0
  -29.6940  -16.4530   20.3250 N   0  0  0  0  0  0  0  0  0  0  0  0
  -28.7130  -16.2810   20.4870 H   0  0  0  0  0  0  0  0  0  0  0  0
  -25.2040  -13.9430   20.5330 C   0  0  0  0  0  0  0  0  0  0  0  0
  -24.1540  -13.1570   20.9210 C   0  0  0  0  0  0  0  0  0  0  0  0
  -24.6200  -11.8080   20.8470 C   0  0  0  0  0  0  0  0  0  0  0  0
  -26.2380  -13.0730   20.2380 N   0  0  0  0  0  0  0  0  0  0  0  0
  -25.9000  -11.7810   20.4940 N   0  0  0  0  0  0  0  0  0  0  0  0
  -23.9000  -10.5410   21.0330 C   0  0  0  0  0  0  0  0  0  0  0  0
  -24.3480   -9.5630   21.9480 C   0  0  0  0  0  3  0  0  0  0  0  0
  -23.6250   -8.3630   22.1230 C   0  0  0  0  0  3  0  0  0  0  0  0
  -22.4410   -8.1320   21.3850 C   0  0  0  0  0  0  0  0  0  0  0  0
  -22.0120   -9.0980   20.4580 C   0  0  0  0  0  3  0  0  0  0  0  0
  -22.7350  -10.2900   20.2800 C   0  0  0  0  0  3  0  0  0  0  0  0
  -21.6890   -6.9860   21.4710 O   0  0  0  0  0  0  0  0  0  0  0  0
  -21.6400   -6.2420   22.6220 C   0  0  0  0  0  0  0  0  0  0  0  0
  -21.1700   -6.7820   23.8400 C   0  0  0  0  0  3  0  0  0  0  0  0
  -21.0720   -5.9630   24.9820 C   0  0  0  0  0  3  0  0  0  0  0  0
  -21.4340   -4.6050   24.9090 C   0  0  0  0  0  0  0  0  0  0  0  0
  -21.8960   -4.0630   23.6960 C   0  0  0  0  0  3  0  0  0  0  0  0
  -21.9960   -4.8790   22.5550 C   0  0  0  0  0  0  0  0  0  0  0  0
  -22.4220   -4.3480   21.3840 F   0  0  0  0  0  0  0  0  0  0  0  0
  -21.3320   -3.8150   26.0030 F   0  0  0  0  0  0  0  0  0  0  0  0
  -22.7660  -13.6260   21.2450 C   0  0  0  0  0  0  0  0  0  0  0  0
  -22.0690  -12.9180   22.1260 N   0  0  0  0  0  0  0  0  0  0  0  0
  -22.3100  -14.6570   20.7500 O   0  0  0  0  0  0  0  0  0  0  0  0
  -22.4520  -12.0840   22.5450 H   0  0  0  0  0  0  0  0  0  0  0  0
  -21.1390  -13.2150   22.3850 H   0  0  0  0  0  0  0  0  0  0  0  0
  -25.3570  -15.3170   20.3770 N   0  0  0  0  0  0  0  0  0  0  0  0
  -24.5880  -15.9630   20.5230 H   0  0  0  0  0  0  0  0  0  0  0  0
  -26.1800  -15.7640   19.9960 H   0  0  0  0  0  0  0  0  0  0  0  0
  1  7  1  0
  3  5  1  0
  3  8  1  0
  5  1  1  0
  5  6  1  0
  6  4  1  0
  6  2  1  0
  7 50  1  0
  7  2  1  0
  8  9  1  0
  8  4  1  0
 10 21  2  0
 11  9  1  0
 11 16  1  0
 12 20  1  0
 12 22  1  0
 13 19  1  0
 13 15  1  0
 14 20  1  0
 15 14  1  0
 16 15  2  0
 17 18  1  0
 17 11  2  0
 18 13  2  0
 19 12  1  0
 20 10  1  0
 22 24  2  0
 23 22  1  0
 25 23  1  0
 26 35  2  0
 26 31  1  0
 27 23  1  0
 27 31  1  0
 28 27  1  0
 29 30  1  0
 29 28  1  0
 30 26  1  0
 31 32  2  0
 32 33  1  0
 34 33  2  0
 35 34  1  0
 36 10  1  0
 36 37  1  0
 36 46  1  0
 37 40  1  0
 38 42  1  0
 38 37  1  0
 39 38  2  0
 42 41  1  0
 44 45  1  0
 44 42  1  0
 44 43  1  0
 46 49  1  1
 46 47  1  0
 48 46  1  0
 50 59  1  0
 51 59  1  0
 52 57  1  0
 53 54  1  0
 53 52  1  0
 55 54  1  0
 55 64  1  0
 55 56  1  0
 57 51  1  0
 57 56  1  0
 58 51  2  0
 59 60  1  0
 61 62  2  0
 62 81  1  0
 63 62  1  0
 63 66  1  0
 64 65  1  0
 64 61  1  0
 65 63  2  0
 66 67  1  0
 67 68  2  0
 69 72  1  0
 69 68  1  0
 70 69  2  0
 71 70  1  0
 71 66  2  0
 72 73  1  0
 73 74  1  0
 74 75  2  0
 76 75  1  0
 76 80  1  0
 77 76  2  0
 78 73  2  0
 78 77  1  0
 79 78  1  0
 81 82  1  0
 82 85  1  0
 82 84  1  0
 83 81  2  0
 86 87  1  0
 86 61  1  0
 88 86  1  0
M  ISO  4   8 101   9 101  51 100  59 100
M  END
>  <TORSDO>  (7) 
F 17

>  <SCORE>  (7) 
-15.421

>  <name>  (7) 
6

>  <ligand_id>  (7) 
6

>  <original_smiles>  (7) 
[H]c1c([H])c([H])c2c(c1[H])C([H])([H])C([H])([H])C([H])([H])C2([H])N([H])C(=O)C1([H])N(C(=O)C([H])(N([H])C(=O)C([H])(N([H])C([H])([H])[H])C([H])([H])[H])C(C([H])([H])[H])(C([H])([H])[H])C([H])([H])[H])C([H])([H])c2c([H])c(OC3([H])C([H])([H])C4([H])C([H])([H])C([H])(C([H])([H])N([H])C(=O)N5C([H])([H])C([H])([H])C([H])([H])C([H])(n6nc(-c7c([H])c([H])c(Oc8c([H])c([H])c(F)c([H])c8F)c([H])c7[H])c(C(=O)N([H])[H])c6N([H])[H])C5([H])[H])C([H])([H])C4([H])C3([H])[H])c([H])c([H])c2C1([H])[H]

>  <smiles>  (7) 
[H]c1c([H])c([H])c2c(c1[H])C([H])([H])C([H])([H])C([H])([H])C2([H])N([H])C(=O)C1([H])N(C(=O)C([H])(N([H])C(=O)C([H])(N([H])C([H])([H])[H])C([H])([H])[H])C(C([H])([H])[H])(C([H])([H])[H])C([H])([H])[H])C([H])([H])c2c([H])c(OC3([H])C([H])([H])C4([H])C([H])([H])C([H])(C([H])([H])N([H])C(=O)N5C([H])([H])C([H])([H])C([H])([H])C([H])(n6nc(-c7c([H])c([H])c(Oc8c([H])c([H])c(F)c([H])c8F)c([H])c7[H])c(C(=O)N([H])[H])c6N([H])[H])C5([H])[H])C([H])([H])C4([H])C3([H])[H])c([H])c([H])c2C1([H])[H]

$$$$
7:0:0
     RDKit          3D

 93103  0  0  1  0  0  0  0  0999 V2000
  -30.7830  -14.5410   20.4650 C   0  0  0  0  0  0  0  0  0  0  0  0
  -30.3640  -12.3820   19.3620 C   0  0  0  0  0  2  0  0  0  0  0  0
  -29.4550  -12.5840   18.1380 C   0  0  0  0  0  2  0  0  0  0  0  0
  -27.9790  -12.4790   18.5600 C   0  0  0  0  0  2  0  0  0  0  0  0
  -27.6380  -13.3450   19.8060 C   0  0  0  0  0  3  0  0  0  0  0  0
  -28.6890  -13.1920   20.9260 C   0  0  0  0  0  2  0  0  0  0  0  0
  -30.0020  -13.4340   20.3270 N   0  0  0  0  0  0  0  0  0  0  0  0
  -31.9970  -14.4580   20.2650 O   0  0  0  0  0  0  0  0  0  0  0  0
  -30.6610  -20.1640   19.6800 C   0  0  0  0  0  2  0  0  0  0  0  0
  -28.3090  -19.3730   20.0560 C   0  0  0  0  0  2  0  0  0  0  0  0
  -31.6380  -17.5390   20.7700 C   0  0  0  0  0  2  0  0  0  0  0  0
  -30.0650  -17.8280   18.9180 C   0  0  0  0  0  2  0  0  0  0  0  0
  -29.6090  -16.6080   21.3820 C   0  0  0  0  0  2  0  0  0  0  0  0
  -30.3360  -21.4350   20.4800 C   0  0  0  0  0  2  0  0  0  0  0  0
  -28.0400  -20.7670   20.7210 C   0  0  0  0  0  2  0  0  0  0  0  0
  -30.2850  -18.0350   21.2490 C   0  0  0  0  0  3  0  0  0  0  0  0
  -30.9980  -16.7940   19.6000 C   0  0  0  0  0  3  0  0  0  0  0  0
  -29.7970  -18.8920   20.0180 C   0  0  1  0  0  0  0  0  0  0  0  0
  -30.1960  -15.7730   20.3010 N   0  0  0  0  0  0  0  0  0  0  0  0
  -28.9400  -21.8310   20.1890 N   0  0  1  0  0  4  0  0  0  0  0  0
  -28.8460  -21.7860   19.1860 H   0  0  0  0  0  0  0  0  0  0  0  0
  -25.2460  -13.9710   20.4920 C   0  0  0  0  0  0  0  0  0  0  0  0
  -24.1660  -13.2110   20.8530 C   0  0  0  0  0  0  0  0  0  0  0  0
  -24.6160  -11.8550   20.8450 C   0  0  0  0  0  0  0  0  0  0  0  0
  -26.2850  -13.0790   20.2840 N   0  0  0  0  0  0  0  0  0  0  0  0
  -25.9120  -11.8020   20.5610 N   0  0  0  0  0  0  0  0  0  0  0  0
  -23.8740  -10.6000   21.0370 C   0  0  0  0  0  0  0  0  0  0  0  0
  -24.2900   -9.6330   21.9760 C   0  0  0  0  0  3  0  0  0  0  0  0
  -23.5500   -8.4450   22.1570 C   0  0  0  0  0  3  0  0  0  0  0  0
  -22.3770   -8.2180   21.3970 C   0  0  0  0  0  0  0  0  0  0  0  0
  -21.9810   -9.1740   20.4460 C   0  0  0  0  0  3  0  0  0  0  0  0
  -22.7220  -10.3530   20.2630 C   0  0  0  0  0  3  0  0  0  0  0  0
  -21.6070   -7.0830   21.4870 O   0  0  0  0  0  0  0  0  0  0  0  0
  -21.5510   -6.3410   22.6400 C   0  0  0  0  0  0  0  0  0  0  0  0
  -21.1450   -6.9040   23.8690 C   0  0  0  0  0  3  0  0  0  0  0  0
  -21.0350   -6.0890   25.0140 C   0  0  0  0  0  3  0  0  0  0  0  0
  -21.3190   -4.7120   24.9290 C   0  0  0  0  0  0  0  0  0  0  0  0
  -21.7160   -4.1500   23.7040 C   0  0  0  0  0  3  0  0  0  0  0  0
  -21.8280   -4.9610   22.5610 C   0  0  0  0  0  0  0  0  0  0  0  0
  -22.1910   -4.4100   21.3780 F   0  0  0  0  0  0  0  0  0  0  0  0
  -21.2040   -3.9270   26.0260 F   0  0  0  0  0  0  0  0  0  0  0  0
  -22.7680  -13.7020   21.0950 C   0  0  0  0  0  0  0  0  0  0  0  0
  -22.0220  -13.0250   21.9590 N   0  0  0  0  0  0  0  0  0  0  0  0
  -22.3480  -14.7240   20.5530 O   0  0  0  0  0  0  0  0  0  0  0  0
  -22.3770  -12.2010   22.4200 H   0  0  0  0  0  0  0  0  0  0  0  0
  -21.0830  -13.3370   22.1640 H   0  0  0  0  0  0  0  0  0  0  0  0
  -25.4290  -15.3380   20.2980 N   0  0  0  0  0  0  0  0  0  0  0  0
  -24.6720  -16.0060   20.3910 H   0  0  0  0  0  0  0  0  0  0  0  0
  -26.2960  -15.7580   19.9890 H   0  0  0  0  0  0  0  0  0  0  0  0
  -28.5660  -23.2490   20.5360 C   0  0  0  0  0  2  0  0  0  0  0  0
  -29.5080  -24.3410   19.9210 C   0  0  0  0  0  2  0  0  0  0  0  0
  -28.8780  -25.6530   19.3600 C   0  0  0  0  0  2  0  0  0  0  0  0
  -28.6100  -26.7050   20.3150 O   0  0  0  0  0  0  0  0  0  0  0  0
  -24.6890  -31.9020   23.2520 C   0  0  0  0  0  0  0  0  0  0  0  0
  -27.4310  -27.4370   20.2450 C   0  0  0  0  0  0  0  0  0  0  0  0
  -23.5290  -30.4730   21.6040 C   0  0  0  0  0  3  0  0  0  0  0  0
  -25.0220  -28.9460   20.2120 C   0  0  0  0  0  0  0  0  0  0  0  0
  -26.0580  -30.8520   21.4480 C   0  0  0  0  0  2  0  0  0  0  0  0
  -26.1690  -29.4760   20.8160 C   0  0  0  0  0  0  0  0  0  0  0  0
  -27.3720  -28.7260   20.8330 C   0  0  0  0  0  3  0  0  0  0  0  0
  -26.2490  -26.9230   19.6580 C   0  0  0  0  0  3  0  0  0  0  0  0
  -25.0590  -27.6700   19.6340 C   0  0  0  0  0  3  0  0  0  0  0  0
  -23.7690  -29.7900   20.2320 C   0  0  0  0  0  2  0  0  0  0  0  0
  -24.7770  -31.0920   22.1580 N   0  0  0  0  0  0  0  0  0  0  0  0
  -23.5950  -32.1630   23.7710 O   0  0  0  0  0  0  0  0  0  0  0  0
  -22.8760  -29.4470   22.5590 C   0  0  0  0  0  0  0  0  0  0  0  0
  -21.5510  -29.2660   22.4300 N   0  0  0  0  0  0  0  0  0  0  0  0
  -23.5570  -28.8200   23.3730 O   0  0  0  0  0  0  0  0  0  0  0  0
  -21.0620  -29.8250   21.7440 H   0  0  0  0  0  0  0  0  0  0  0  0
  -18.1710  -28.0930   22.9370 C   0  0  0  0  0  0  0  0  0  0  0  0
  -20.7320  -28.3280   23.1960 C   0  0  0  0  0  3  0  0  0  0  0  0
  -20.8210  -26.9010   22.6080 C   0  0  0  0  0  2  0  0  0  0  0  0
  -19.7120  -26.5960   21.5960 C   0  0  0  0  0  2  0  0  0  0  0  0
  -18.3330  -26.7480   22.2470 C   0  0  0  0  0  2  0  0  0  0  0  0
  -19.2980  -28.8420   23.3680 C   0  0  0  0  0  0  0  0  0  0  0  0
  -19.0930  -30.1010   23.9700 C   0  0  0  0  0  3  0  0  0  0  0  0
  -17.7940  -30.6120   24.1480 C   0  0  0  0  0  3  0  0  0  0  0  0
  -16.6810  -29.8590   23.7340 C   0  0  0  0  0  3  0  0  0  0  0  0
  -16.8700  -28.6020   23.1350 C   0  0  0  0  0  3  0  0  0  0  0  0
  -25.9550  -32.5550   23.8870 C   0  0  0  0  0  3  0  0  0  0  0  0
  -25.6190  -33.9500   24.2050 N   0  0  0  0  0  0  0  0  0  0  0  0
  -25.9400  -35.0020   23.4410 C   0  0  0  0  0  0  0  0  0  0  0  0
  -26.6210  -34.9020   22.4160 O   0  0  0  0  0  0  0  0  0  0  0  0
  -25.0160  -34.1000   25.0000 H   0  0  0  0  0  0  0  0  0  0  0  0
  -24.1810  -36.7580   23.0620 C   0  0  0  0  0  1  0  0  0  0  0  0
  -25.4240  -36.3850   23.8830 C   0  0  0  0  0  3  0  0  0  0  0  0
  -27.5390  -37.3140   24.7160 C   0  0  0  0  0  1  0  0  0  0  0  0
  -26.4380  -37.4560   23.7670 N   0  0  0  0  0  0  0  0  0  0  0  0
  -26.0150  -38.3690   23.9070 H   0  0  0  0  0  0  0  0  0  0  0  0
  -26.4660  -31.7980   25.1740 C   0  0  1  0  0  0  0  0  0  0  0  0
  -25.3630  -31.5500   26.2290 C   0  0  0  0  0  1  0  0  0  0  0  0
  -27.0740  -30.4260   24.7960 C   0  0  0  0  0  1  0  0  0  0  0  0
  -27.5960  -32.6120   25.8470 C   0  0  0  0  0  1  0  0  0  0  0  0
  2  7  1  0
  3  4  1  0
  3  2  1  0
  5  4  1  0
  5 25  1  0
  5  6  1  0
  7  1  1  0
  7  6  1  0
  8  1  2  0
 18  9  1  6
  9 14  1  0
 10 15  1  0
 16 11  1  0
 16 13  1  0
 17 12  1  0
 17 19  1  0
 17 11  1  0
 18 12  1  0
 18 10  1  0
 18 16  1  0
 19  1  1  0
 19 13  1  0
 20 14  1  0
 20 50  1  0
 20 15  1  0
 20 21  1  6
 22 23  2  0
 23 42  1  0
 24 23  1  0
 24 27  1  0
 25 22  1  0
 25 26  1  0
 26 24  2  0
 27 28  1  0
 28 29  2  0
 30 33  1  0
 30 29  1  0
 31 30  2  0
 32 31  1  0
 32 27  2  0
 33 34  1  0
 34 35  1  0
 35 36  2  0
 37 36  1  0
 37 41  1  0
 38 37  2  0
 39 34  2  0
 39 38  1  0
 40 39  1  0
 42 43  1  0
 43 46  1  0
 43 45  1  0
 44 42  2  0
 47 48  1  0
 47 22  1  0
 49 47  1  0
 51 50  1  0
 52 51  1  0
 52 53  1  0
 54 65  2  0
 55 53  1  0
 55 60  1  0
 56 64  1  0
 56 66  1  0
 57 63  1  0
 57 59  1  0
 58 64  1  0
 59 60  2  0
 59 58  1  0
 61 55  2  0
 62 61  1  0
 62 57  2  0
 63 56  1  0
 64 54  1  0
 66 68  2  0
 67 66  1  0
 69 67  1  0
 70 79  2  0
 70 75  1  0
 71 67  1  0
 71 75  1  0
 72 71  1  0
 73 74  1  0
 73 72  1  0
 74 70  1  0
 75 76  2  0
 76 77  1  0
 78 77  2  0
 79 78  1  0
 80 54  1  0
 80 81  1  0
 80 90  1  0
 81 84  1  0
 82 86  1  0
 82 81  1  0
 83 82  2  0
 86 85  1  0
 88 86  1  0
 88 89  1  0
 88 87  1  0
 90 93  1  1
 90 91  1  0
 92 90  1  0
M  ISO  4   1 100  19 100  52 101  53 101
M  END
>  <TORSDO>  (8) 
F 18

>  <SCORE>  (8) 
-14.935

>  <name>  (8) 
7

>  <ligand_id>  (8) 
7

>  <original_smiles>  (8) 
[H]c1c([H])c([H])c2c(c1[H])C([H])([H])C([H])([H])C([H])([H])C2([H])N([H])C(=O)C1([H])N(C(=O)C([H])(N([H])C(=O)C([H])(N([H])C([H])([H])[H])C([H])([H])[H])C(C([H])([H])[H])(C([H])([H])[H])C([H])([H])[H])C([H])([H])c2c([H])c(OC([H])([H])C([H])([H])C([H])([H])[N+]3([H])C([H])([H])C([H])([H])C4(C([H])([H])C5([H])N(C(=O)N6C([H])([H])C([H])([H])C([H])([H])C([H])(n7nc(-c8c([H])c([H])c(Oc9c([H])c([H])c(F)c([H])c9F)c([H])c8[H])c(C(=O)N([H])[H])c7N([H])[H])C6([H])[H])C([H])([H])C4([H])C5([H])[H])C([H])([H])C3([H])[H])c([H])c([H])c2C1([H])[H]

>  <smiles>  (8) 
[H]c1c([H])c([H])c2c(c1[H])C([H])([H])C([H])([H])C([H])([H])C2([H])N([H])C(=O)C1([H])N(C(=O)C([H])(N([H])C(=O)C([H])(N([H])C([H])([H])[H])C([H])([H])[H])C(C([H])([H])[H])(C([H])([H])[H])C([H])([H])[H])C([H])([H])c2c([H])c(OC([H])([H])C([H])([H])C([H])([H])[N+]3([H])C([H])([H])C([H])([H])C4(C([H])([H])C5([H])N(C(=O)N6C([H])([H])C([H])([H])C([H])([H])C([H])(n7nc(-c8c([H])c([H])c(Oc9c([H])c([H])c(F)c([H])c9F)c([H])c8[H])c(C(=O)N([H])[H])c7N([H])[H])C6([H])[H])C([H])([H])C4([H])C5([H])[H])C([H])([H])C3([H])[H])c([H])c([H])c2C1([H])[H]

$$$$
8:0:0
     RDKit          3D

 95104  0  0  1  0  0  0  0  0999 V2000
  -31.2270  -21.7850   21.2390 C   0  0  0  0  0  3  0  0  0  0  0  0
  -30.3710  -21.0110   20.5400 C   0  0  0  0  0  0  0  0  0  0  0  0
  -31.4200  -23.2810   21.0230 C   0  0  0  0  0  2  0  0  0  0  0  0
  -29.5450  -21.6350   19.4290 C   0  0  0  0  0  2  0  0  0  0  0  0
  -30.1300  -22.9710   18.9370 C   0  0  0  0  0  2  0  0  0  0  0  0
  -30.4430  -23.8790   20.0680 N   0  0  2  0  0  4  0  0  0  0  0  0
  -29.5700  -23.9920   20.5600 H   0  0  0  0  0  0  0  0  0  0  0  0
  -31.5090  -18.8040   20.9150 C   0  0  0  0  0  3  0  0  0  0  0  0
  -29.0790  -18.8820   20.7330 C   0  0  0  0  0  3  0  0  0  0  0  0
  -31.4550  -17.4020   21.0350 C   0  0  0  0  0  3  0  0  0  0  0  0
  -29.0250  -17.4810   20.8660 C   0  0  0  0  0  3  0  0  0  0  0  0
  -30.3220  -19.5490   20.7400 C   0  0  0  0  0  0  0  0  0  0  0  0
  -30.2130  -16.7290   20.9810 C   0  0  0  0  0  0  0  0  0  0  0  0
  -30.7060  -14.4340   20.2430 C   0  0  0  0  0  0  0  0  0  0  0  0
  -30.3330  -12.3570   18.9690 C   0  0  0  0  0  2  0  0  0  0  0  0
  -29.3420  -12.6360   17.8210 C   0  0  0  0  0  2  0  0  0  0  0  0
  -27.8840  -12.4940   18.3050 C   0  0  0  0  0  2  0  0  0  0  0  0
  -27.6120  -13.2680   19.6230 C   0  0  0  0  0  3  0  0  0  0  0  0
  -28.7060  -12.9580   20.6690 C   0  0  0  0  0  2  0  0  0  0  0  0
  -30.0170  -13.2760   20.0720 N   0  0  0  0  0  0  0  0  0  0  0  0
  -31.7650  -14.6800   19.6570 O   0  0  0  0  0  0  0  0  0  0  0  0
  -30.1060  -15.3180   21.0570 N   0  0  0  0  0  0  0  0  0  0  0  0
  -29.2570  -14.9630   21.4710 H   0  0  0  0  0  0  0  0  0  0  0  0
  -25.2330  -13.8640   20.4130 C   0  0  0  0  0  0  0  0  0  0  0  0
  -24.1820  -13.0840   20.8140 C   0  0  0  0  0  0  0  0  0  0  0  0
  -24.6470  -11.7340   20.7560 C   0  0  0  0  0  0  0  0  0  0  0  0
  -26.2740  -12.9890   20.1410 N   0  0  0  0  0  0  0  0  0  0  0  0
  -25.9250  -11.7030   20.4020 N   0  0  0  0  0  0  0  0  0  0  0  0
  -23.9340  -10.4680   20.9610 C   0  0  0  0  0  0  0  0  0  0  0  0
  -24.3880   -9.5080   21.8930 C   0  0  0  0  0  3  0  0  0  0  0  0
  -23.6760   -8.3050   22.0860 C   0  0  0  0  0  3  0  0  0  0  0  0
  -22.4970   -8.0520   21.3460 C   0  0  0  0  0  0  0  0  0  0  0  0
  -22.0610   -9.0010   20.4040 C   0  0  0  0  0  3  0  0  0  0  0  0
  -22.7740  -10.1950   20.2100 C   0  0  0  0  0  3  0  0  0  0  0  0
  -21.7550   -6.9000   21.4480 O   0  0  0  0  0  0  0  0  0  0  0  0
  -21.7060   -6.1750   22.6110 C   0  0  0  0  0  0  0  0  0  0  0  0
  -21.2590   -6.7450   23.8250 C   0  0  0  0  0  3  0  0  0  0  0  0
  -21.1570   -5.9460   24.9810 C   0  0  0  0  0  3  0  0  0  0  0  0
  -21.4920   -4.5800   24.9260 C   0  0  0  0  0  0  0  0  0  0  0  0
  -21.9320   -4.0100   23.7190 C   0  0  0  0  0  3  0  0  0  0  0  0
  -22.0350   -4.8060   22.5640 C   0  0  0  0  0  0  0  0  0  0  0  0
  -22.4390   -4.2480   21.3980 F   0  0  0  0  0  0  0  0  0  0  0  0
  -21.3870   -3.8110   26.0350 F   0  0  0  0  0  0  0  0  0  0  0  0
  -22.7930  -13.5520   21.1420 C   0  0  0  0  0  0  0  0  0  0  0  0
  -22.0990  -12.8430   22.0260 N   0  0  0  0  0  0  0  0  0  0  0  0
  -22.3320  -14.5810   20.6490 O   0  0  0  0  0  0  0  0  0  0  0  0
  -22.4850  -12.0120   22.4460 H   0  0  0  0  0  0  0  0  0  0  0  0
  -21.1700  -13.1400   22.2870 H   0  0  0  0  0  0  0  0  0  0  0  0
  -25.3840  -15.2370   20.2390 N   0  0  0  0  0  0  0  0  0  0  0  0
  -24.6130  -15.8830   20.3660 H   0  0  0  0  0  0  0  0  0  0  0  0
  -26.2060  -15.6750   19.8440 H   0  0  0  0  0  0  0  0  0  0  0  0
  -30.8530  -25.2280   19.5860 C   0  0  0  0  0  2  0  0  0  0  0  0
  -30.7630  -26.3440   20.6500 C   0  0  0  0  0  2  0  0  0  0  0  0
  -29.3420  -26.6440   21.1560 C   0  0  0  0  0  2  0  0  0  0  0  0
  -28.4600  -26.6940   20.0390 O   0  0  0  0  0  0  0  0  0  0  0  0
  -24.6200  -31.8390   23.1910 C   0  0  0  0  0  0  0  0  0  0  0  0
  -27.3070  -27.4350   20.1340 C   0  0  0  0  0  0  0  0  0  0  0  0
  -23.4200  -30.4280   21.5470 C   0  0  0  0  0  3  0  0  0  0  0  0
  -24.8860  -28.8910   20.1360 C   0  0  0  0  0  0  0  0  0  0  0  0
  -25.9390  -30.8080   21.3500 C   0  0  0  0  0  2  0  0  0  0  0  0
  -26.0330  -29.4340   20.7270 C   0  0  0  0  0  0  0  0  0  0  0  0
  -27.2450  -28.7150   20.7290 C   0  0  0  0  0  3  0  0  0  0  0  0
  -26.1470  -26.9010   19.5360 C   0  0  0  0  0  3  0  0  0  0  0  0
  -24.9340  -27.6180   19.5410 C   0  0  0  0  0  3  0  0  0  0  0  0
  -23.6360  -29.7400   20.1710 C   0  0  0  0  0  2  0  0  0  0  0  0
  -24.6770  -31.0400   22.0880 N   0  0  0  0  0  0  0  0  0  0  0  0
  -23.5380  -32.1090   23.7300 O   0  0  0  0  0  0  0  0  0  0  0  0
  -22.7730  -29.4080   22.5080 C   0  0  0  0  0  0  0  0  0  0  0  0
  -21.4470  -29.2320   22.3880 N   0  0  0  0  0  0  0  0  0  0  0  0
  -23.4590  -28.7760   23.3170 O   0  0  0  0  0  0  0  0  0  0  0  0
  -20.9570  -29.7950   21.7060 H   0  0  0  0  0  0  0  0  0  0  0  0
  -18.0660  -28.0850   22.9190 C   0  0  0  0  0  0  0  0  0  0  0  0
  -20.6300  -28.2980   23.1600 C   0  0  0  0  0  3  0  0  0  0  0  0
  -20.7020  -26.8730   22.5630 C   0  0  0  0  0  2  0  0  0  0  0  0
  -19.5810  -26.5810   21.5610 C   0  0  0  0  0  2  0  0  0  0  0  0
  -18.2120  -26.7410   22.2260 C   0  0  0  0  0  2  0  0  0  0  0  0
  -19.2020  -28.8230   23.3430 C   0  0  0  0  0  0  0  0  0  0  0  0
  -19.0130  -30.0830   23.9510 C   0  0  0  0  0  3  0  0  0  0  0  0
  -17.7190  -30.6040   24.1400 C   0  0  0  0  0  3  0  0  0  0  0  0
  -16.5960  -29.8610   23.7330 C   0  0  0  0  0  3  0  0  0  0  0  0
  -16.7710  -28.6040   23.1290 C   0  0  0  0  0  3  0  0  0  0  0  0
  -25.9050  -32.4720   23.8120 C   0  0  0  0  0  3  0  0  0  0  0  0
  -26.4340  -31.6950   25.0800 C   0  0  1  0  0  0  0  0  0  0  0  0
  -25.3490  -31.4430   26.1510 C   0  0  0  0  0  1  0  0  0  0  0  0
  -27.0250  -30.3250   24.6710 C   0  0  0  0  0  1  0  0  0  0  0  0
  -27.5830  -32.4920   25.7410 C   0  0  0  0  0  1  0  0  0  0  0  0
  -25.5920  -33.8670   24.1480 N   0  0  0  0  0  0  0  0  0  0  0  0
  -25.9280  -34.9240   23.3970 C   0  0  0  0  0  0  0  0  0  0  0  0
  -26.6070  -34.8270   22.3700 O   0  0  0  0  0  0  0  0  0  0  0  0
  -24.9910  -34.0150   24.9460 H   0  0  0  0  0  0  0  0  0  0  0  0
  -24.2060  -36.7170   23.0260 C   0  0  0  0  0  1  0  0  0  0  0  0
  -25.4330  -36.3070   23.8570 C   0  0  0  0  0  3  0  0  0  0  0  0
  -27.5520  -37.1850   24.7320 C   0  0  0  0  0  1  0  0  0  0  0  0
  -26.4670  -37.3610   23.7710 N   0  0  0  0  0  0  0  0  0  0  0  0
  -26.0590  -38.2790   23.9170 H   0  0  0  0  0  0  0  0  0  0  0  0
  2 12  1  0
  2  1  2  0
  3  1  1  0
  4  2  1  0
  5  4  1  0
  5  6  1  0
  6  7  1  1
  6  3  1  0
  8 10  1  0
  9 12  1  0
  9 11  2  0
 11 13  1  0
 12  8  2  0
 13 10  2  0
 13 22  1  0
 14 22  1  0
 15 20  1  0
 16 17  1  0
 16 15  1  0
 18 17  1  0
 18 27  1  0
 18 19  1  0
 20 14  1  0
 20 19  1  0
 21 14  2  0
 22 23  1  0
 24 25  2  0
 25 44  1  0
 26 25  1  0
 26 29  1  0
 27 28  1  0
 27 24  1  0
 28 26  2  0
 29 30  1  0
 30 31  2  0
 32 35  1  0
 32 31  1  0
 33 32  2  0
 34 33  1  0
 34 29  2  0
 35 36  1  0
 36 37  1  0
 37 38  2  0
 39 38  1  0
 39 43  1  0
 40 39  2  0
 41 36  2  0
 41 40  1  0
 42 41  1  0
 44 45  1  0
 45 48  1  0
 45 47  1  0
 46 44  2  0
 49 50  1  0
 49 24  1  0
 51 49  1  0
 52  6  1  0
 52 53  1  0
 53 54  1  0
 55 57  1  0
 55 54  1  0
 56 67  2  0
 57 62  1  0
 58 66  1  0
 58 68  1  0
 59 65  1  0
 59 61  1  0
 60 66  1  0
 61 62  2  0
 61 60  1  0
 63 64  1  0
 63 57  2  0
 64 59  2  0
 65 58  1  0
 66 56  1  0
 68 70  2  0
 69 68  1  0
 71 69  1  0
 72 81  2  0
 72 77  1  0
 73 69  1  0
 73 77  1  0
 74 73  1  0
 75 76  1  0
 75 74  1  0
 76 72  1  0
 77 78  2  0
 78 79  1  0
 80 79  2  0
 81 80  1  0
 82 56  1  0
 82 87  1  0
 82 83  1  0
 83 86  1  1
 83 84  1  0
 85 83  1  0
 87 90  1  0
 88 92  1  0
 88 87  1  0
 89 88  2  0
 92 91  1  0
 94 92  1  0
 94 95  1  0
 94 93  1  0
M  ISO  4  14 100  22 100  54 101  55 101
M  END
>  <TORSDO>  (9) 
F 20

>  <SCORE>  (9) 
-13.926

>  <name>  (9) 
8

>  <ligand_id>  (9) 
8

>  <original_smiles>  (9) 
[H]C1=C(c2c([H])c([H])c(N([H])C(=O)N3C([H])([H])C([H])([H])C([H])([H])C([H])(n4nc(-c5c([H])c([H])c(Oc6c([H])c([H])c(F)c([H])c6F)c([H])c5[H])c(C(=O)N([H])[H])c4N([H])[H])C3([H])[H])c([H])c2[H])C([H])([H])C([H])([H])[N+]([H])(C([H])([H])C([H])([H])C([H])([H])Oc2c([H])c([H])c3c(c2[H])C([H])([H])N(C(=O)C([H])(N([H])C(=O)C([H])(N([H])C([H])([H])[H])C([H])([H])[H])C(C([H])([H])[H])(C([H])([H])[H])C([H])([H])[H])C([H])(C(=O)N([H])C2([H])c4c([H])c([H])c([H])c([H])c4C([H])([H])C([H])([H])C2([H])[H])C3([H])[H])C1([H])[H]

>  <smiles>  (9) 
[H]C1=C(c2c([H])c([H])c(N([H])C(=O)N3C([H])([H])C([H])([H])C([H])([H])C([H])(n4nc(-c5c([H])c([H])c(Oc6c([H])c([H])c(F)c([H])c6F)c([H])c5[H])c(C(=O)N([H])[H])c4N([H])[H])C3([H])[H])c([H])c2[H])C([H])([H])C([H])([H])[N+]([H])(C([H])([H])C([H])([H])C([H])([H])Oc2c([H])c([H])c3c(c2[H])C([H])([H])N(C(=O)C([H])(N([H])C(=O)C([H])(N([H])C([H])([H])[H])C([H])([H])[H])C(C([H])([H])[H])(C([H])([H])[H])C([H])([H])[H])C([H])(C(=O)N([H])C2([H])c4c([H])c([H])c([H])c([H])c4C([H])([H])C([H])([H])C2([H])[H])C3([H])[H])C1([H])[H]

$$$$
9:0:0
     RDKit          3D

 89 97  0  0  1  0  0  0  0  0999 V2000
  -29.3860  -19.8200   20.1330 C   0  0  0  0  0  3  0  0  0  0  0  0
  -30.0830  -18.6850   20.5140 C   0  0  0  0  0  0  0  0  0  0  0  0
  -29.7070  -21.2310   20.5660 C   0  0  0  0  0  0  0  0  0  0  0  0
  -28.9640  -22.3480   20.2120 C   0  0  0  0  0  3  0  0  0  0  0  0
  -31.2230  -18.8210   21.5210 C   0  0  0  0  0  2  0  0  0  0  0  0
  -31.0220  -21.3840   21.3120 C   0  0  0  0  0  2  0  0  0  0  0  0
  -31.2530  -20.1870   22.2500 C   0  0  0  0  0  2  0  0  0  0  0  0
  -29.9930  -17.2580   19.8100 C   0  0  0  0  0  2  0  0  0  0  0  0
  -30.6340  -14.7660   20.3150 C   0  0  0  0  0  0  0  0  0  0  0  0
  -30.4230  -12.4840   19.3280 C   0  0  0  0  0  2  0  0  0  0  0  0
  -29.4890  -12.5860   18.1010 C   0  0  0  0  0  2  0  0  0  0  0  0
  -28.0090  -12.4390   18.5090 C   0  0  0  0  0  2  0  0  0  0  0  0
  -27.6440  -13.2910   19.7540 C   0  0  0  0  0  3  0  0  0  0  0  0
  -28.7090  -13.1790   20.8710 C   0  0  0  0  0  2  0  0  0  0  0  0
  -30.0070  -13.5360   20.2870 N   0  0  0  0  0  0  0  0  0  0  0  0
  -31.7990  -14.8610   19.9230 O   0  0  0  0  0  0  0  0  0  0  0  0
  -29.8790  -15.9090   20.5340 N   0  0  0  0  0  0  0  0  0  0  0  0
  -28.9670  -15.7310   20.9280 H   0  0  0  0  0  0  0  0  0  0  0  0
  -25.2530  -13.8670   20.4780 C   0  0  0  0  0  0  0  0  0  0  0  0
  -24.1880  -13.0880   20.8450 C   0  0  0  0  0  0  0  0  0  0  0  0
  -24.6570  -11.7390   20.8150 C   0  0  0  0  0  0  0  0  0  0  0  0
  -26.3010  -12.9920   20.2430 N   0  0  0  0  0  0  0  0  0  0  0  0
  -25.9490  -11.7060   20.5050 N   0  0  0  0  0  0  0  0  0  0  0  0
  -23.9290  -10.4740   21.0050 C   0  0  0  0  0  0  0  0  0  0  0  0
  -24.3550   -9.5170   21.9540 C   0  0  0  0  0  3  0  0  0  0  0  0
  -23.6290   -8.3200   22.1360 C   0  0  0  0  0  3  0  0  0  0  0  0
  -22.4640   -8.0710   21.3730 C   0  0  0  0  0  0  0  0  0  0  0  0
  -22.0580   -9.0160   20.4160 C   0  0  0  0  0  3  0  0  0  0  0  0
  -22.7840  -10.2050   20.2300 C   0  0  0  0  0  3  0  0  0  0  0  0
  -21.7140   -6.9230   21.4630 O   0  0  0  0  0  0  0  0  0  0  0  0
  -21.6420   -6.1970   22.6250 C   0  0  0  0  0  0  0  0  0  0  0  0
  -21.1790   -6.7640   23.8320 C   0  0  0  0  0  3  0  0  0  0  0  0
  -21.0560   -5.9640   24.9850 C   0  0  0  0  0  3  0  0  0  0  0  0
  -21.3870   -4.5970   24.9330 C   0  0  0  0  0  0  0  0  0  0  0  0
  -21.8430   -4.0280   23.7300 C   0  0  0  0  0  3  0  0  0  0  0  0
  -21.9680   -4.8260   22.5790 C   0  0  0  0  0  0  0  0  0  0  0  0
  -22.3860   -4.2690   21.4170 F   0  0  0  0  0  0  0  0  0  0  0  0
  -21.2620   -3.8250   26.0370 F   0  0  0  0  0  0  0  0  0  0  0  0
  -22.7880  -13.5600   21.1130 C   0  0  0  0  0  0  0  0  0  0  0  0
  -22.0610  -12.8590   21.9770 N   0  0  0  0  0  0  0  0  0  0  0  0
  -22.3470  -14.5830   20.5930 O   0  0  0  0  0  0  0  0  0  0  0  0
  -22.4250  -12.0250   22.4160 H   0  0  0  0  0  0  0  0  0  0  0  0
  -21.1220  -13.1570   22.1980 H   0  0  0  0  0  0  0  0  0  0  0  0
  -25.4090  -15.2390   20.3020 N   0  0  0  0  0  0  0  0  0  0  0  0
  -24.6470  -15.8950   20.4360 H   0  0  0  0  0  0  0  0  0  0  0  0
  -26.2530  -15.6840   19.9620 H   0  0  0  0  0  0  0  0  0  0  0  0
  -29.2610  -23.8960   20.4150 C   0  0  0  0  0  3  0  0  0  0  0  0
  -28.0660  -24.9500   20.2270 C   0  0  0  0  0  3  0  0  0  0  0  0
  -28.3100  -26.4240   20.2930 O   0  0  0  0  0  0  0  0  0  0  0  0
  -24.5990  -31.9030   23.2300 C   0  0  0  0  0  0  0  0  0  0  0  0
  -27.2040  -27.2980   20.2150 C   0  0  0  0  0  0  0  0  0  0  0  0
  -23.4020  -30.5030   21.5890 C   0  0  0  0  0  3  0  0  0  0  0  0
  -24.8500  -28.9380   20.1880 C   0  0  0  0  0  0  0  0  0  0  0  0
  -25.9450  -30.8150   21.4060 C   0  0  0  0  0  2  0  0  0  0  0  0
  -26.0250  -29.4260   20.7740 C   0  0  0  0  0  0  0  0  0  0  0  0
  -27.2100  -28.6230   20.7650 C   0  0  0  0  0  3  0  0  0  0  0  0
  -26.0020  -26.8790   19.5930 C   0  0  0  0  0  3  0  0  0  0  0  0
  -24.8420  -27.6720   19.5890 C   0  0  0  0  0  3  0  0  0  0  0  0
  -23.6230  -29.8240   20.2140 C   0  0  0  0  0  2  0  0  0  0  0  0
  -24.6700  -31.0890   22.1350 N   0  0  0  0  0  0  0  0  0  0  0  0
  -23.5130  -32.1840   23.7570 O   0  0  0  0  0  0  0  0  0  0  0  0
  -22.7290  -29.4900   22.5510 C   0  0  0  0  0  0  0  0  0  0  0  0
  -21.4010  -29.3250   22.4240 N   0  0  0  0  0  0  0  0  0  0  0  0
  -23.4000  -28.8590   23.3720 O   0  0  0  0  0  0  0  0  0  0  0  0
  -20.9200  -29.9100   21.7560 H   0  0  0  0  0  0  0  0  0  0  0  0
  -18.0030  -28.1660   22.9170 C   0  0  0  0  0  0  0  0  0  0  0  0
  -20.5660  -28.3950   23.1880 C   0  0  0  0  0  3  0  0  0  0  0  0
  -20.6440  -26.9590   22.6170 C   0  0  0  0  0  2  0  0  0  0  0  0
  -19.5410  -26.6500   21.6000 C   0  0  0  0  0  2  0  0  0  0  0  0
  -18.1610  -26.8130   22.2430 C   0  0  0  0  0  2  0  0  0  0  0  0
  -19.1310  -28.9150   23.3460 C   0  0  0  0  0  0  0  0  0  0  0  0
  -18.9250  -30.1820   23.9370 C   0  0  0  0  0  3  0  0  0  0  0  0
  -17.6260  -30.6990   24.0950 C   0  0  0  0  0  3  0  0  0  0  0  0
  -16.5130  -29.9460   23.6810 C   0  0  0  0  0  3  0  0  0  0  0  0
  -16.7030  -28.6790   23.1010 C   0  0  0  0  0  3  0  0  0  0  0  0
  -25.8780  -32.5400   23.8580 C   0  0  0  0  0  3  0  0  0  0  0  0
  -26.3840  -31.7700   25.1380 C   0  0  1  0  0  0  0  0  0  0  0  0
  -25.2870  -31.5290   26.2060 C   0  0  0  0  0  1  0  0  0  0  0  0
  -26.9630  -30.3940   24.7400 C   0  0  0  0  0  1  0  0  0  0  0  0
  -27.5350  -32.5580   25.8050 C   0  0  0  0  0  1  0  0  0  0  0  0
  -25.5710  -33.9400   24.1830 N   0  0  0  0  0  0  0  0  0  0  0  0
  -25.9140  -34.9920   23.4260 C   0  0  0  0  0  0  0  0  0  0  0  0
  -26.5930  -34.8820   22.4020 O   0  0  0  0  0  0  0  0  0  0  0  0
  -24.9790  -34.0960   24.9860 H   0  0  0  0  0  0  0  0  0  0  0  0
  -24.2130  -36.8040   23.0340 C   0  0  0  0  0  1  0  0  0  0  0  0
  -25.4320  -36.3870   23.8750 C   0  0  0  0  0  3  0  0  0  0  0  0
  -27.5590  -37.2520   24.7520 C   0  0  0  0  0  1  0  0  0  0  0  0
  -26.4780  -37.4310   23.7860 N   0  0  0  0  0  0  0  0  0  0  0  0
  -26.0800  -38.3560   23.9260 H   0  0  0  0  0  0  0  0  0  0  0  0
  1  2  2  0
  1  3  1  0
  2  5  1  0
  3  6  1  0
  4 47  1  0
  4  3  2  0
  5  7  1  0
  6  7  1  0
  8  2  1  0
  8 17  1  0
  9 17  1  0
 10 15  1  0
 11 12  1  0
 11 10  1  0
 13 12  1  0
 13 22  1  0
 13 14  1  0
 15  9  1  0
 15 14  1  0
 16  9  2  0
 17 18  1  0
 19 20  2  0
 20 39  1  0
 21 20  1  0
 21 24  1  0
 22 19  1  0
 22 23  1  0
 23 21  2  0
 24 25  1  0
 25 26  2  0
 27 30  1  0
 27 26  1  0
 28 27  2  0
 29 28  1  0
 29 24  2  0
 30 31  1  0
 31 32  1  0
 32 33  2  0
 34 33  1  0
 34 38  1  0
 35 34  2  0
 36 31  2  0
 36 35  1  0
 37 36  1  0
 39 40  1  0
 40 43  1  0
 40 42  1  0
 41 39  2  0
 44 45  1  0
 44 19  1  0
 46 44  1  0
 48 49  1  0
 48 47  2  0
 50 61  2  0
 51 49  1  0
 51 56  1  0
 52 60  1  0
 52 62  1  0
 53 59  1  0
 53 55  1  0
 54 60  1  0
 55 54  1  0
 56 55  2  0
 57 51  2  0
 58 57  1  0
 58 53  2  0
 59 52  1  0
 60 50  1  0
 62 64  2  0
 63 62  1  0
 65 63  1  0
 66 75  2  0
 66 71  1  0
 67 63  1  0
 67 71  1  0
 68 67  1  0
 69 70  1  0
 69 68  1  0
 70 66  1  0
 71 72  2  0
 72 73  1  0
 74 73  2  0
 75 74  1  0
 76 50  1  0
 76 81  1  0
 76 77  1  0
 77 80  1  1
 77 78  1  0
 79 77  1  0
 81 84  1  0
 82 86  1  0
 82 81  1  0
 83 82  2  0
 86 85  1  0
 88 86  1  0
 88 89  1  0
 88 87  1  0
M  ISO  4   9 100  17 100  48 101  49 101
M  END
>  <TORSDO>  (10) 
F 19

>  <SCORE>  (10) 
-14.355

>  <name>  (10) 
9

>  <ligand_id>  (10) 
9

>  <original_smiles>  (10) 
[H]C1=C(C([H])([H])N([H])C(=O)N2C([H])([H])C([H])([H])C([H])([H])C([H])(n3nc(-c4c([H])c([H])c(Oc5c([H])c([H])c(F)c([H])c5F)c([H])c4[H])c(C(=O)N([H])[H])c3N([H])[H])C2([H])[H])C([H])([H])C([H])([H])C([H])([H])C1=C([H])C([H])([H])C([H])([H])Oc1c([H])c([H])c2c(c1[H])C([H])([H])N(C(=O)C([H])(N([H])C(=O)C([H])(N([H])C([H])([H])[H])C([H])([H])[H])C(C([H])([H])[H])(C([H])([H])[H])C([H])([H])[H])C([H])(C(=O)N([H])C1([H])c3c([H])c([H])c([H])c([H])c3C([H])([H])C([H])([H])C1([H])[H])C2([H])[H]

>  <smiles>  (10) 
[H]C1=C(C([H])([H])N([H])C(=O)N2C([H])([H])C([H])([H])C([H])([H])C([H])(n3nc(-c4c([H])c([H])c(Oc5c([H])c([H])c(F)c([H])c5F)c([H])c4[H])c(C(=O)N([H])[H])c3N([H])[H])C2([H])[H])C([H])([H])C([H])([H])C([H])([H])C1=C([H])C([H])([H])C([H])([H])Oc1c([H])c([H])c2c(c1[H])C([H])([H])N(C(=O)C([H])(N([H])C(=O)C([H])(N([H])C([H])([H])[H])C([H])([H])[H])C(C([H])([H])[H])(C([H])([H])[H])C([H])([H])[H])C([H])(C(=O)N([H])C1([H])c3c([H])c([H])c([H])c([H])c3C([H])([H])C([H])([H])C1([H])[H])C2([H])[H]

$$$$
10:0:0
     RDKit          3D

 88 96  0  0  1  0  0  0  0  0999 V2000
  -28.2760  -21.3390   20.0110 C   0  0  0  0  0  0  0  0  0  0  0  0
  -27.0870  -21.3630   19.5560 N   0  0  0  0  0  0  0  0  0  0  0  0
  -26.6830  -20.4500   19.3810 H   0  0  0  0  0  0  0  0  0  0  0  0
  -30.5100  -15.2020   20.3980 C   0  0  0  0  0  0  0  0  0  0  0  0
  -30.4060  -12.8090   19.4890 C   0  0  0  0  0  2  0  0  0  0  0  0
  -29.5000  -12.6290   18.2530 C   0  0  0  0  0  2  0  0  0  0  0  0
  -28.0360  -12.3970   18.6680 C   0  0  0  0  0  2  0  0  0  0  0  0
  -27.5860  -13.3510   19.8060 C   0  0  0  0  0  3  0  0  0  0  0  0
  -28.6260  -13.4750   20.9350 C   0  0  0  0  0  2  0  0  0  0  0  0
  -29.8630  -13.9520   20.2990 N   0  0  0  0  0  0  0  0  0  0  0  0
  -31.7400  -15.1180   20.2730 O   0  0  0  0  0  0  0  0  0  0  0  0
  -28.1870  -18.6330   19.8670 C   0  0  0  0  0  3  0  0  0  0  0  0
  -28.8920  -19.7870   20.1960 C   0  0  0  0  0  0  0  0  0  0  0  0
  -28.5640  -17.0610   19.9640 C   0  0  0  0  0  2  0  0  0  0  0  0
  -30.3060  -19.3580   20.7120 C   0  0  0  0  0  3  0  0  0  0  0  0
  -30.6780  -17.7730   21.0210 C   0  0  0  0  0  3  0  0  0  0  0  0
  -29.8980  -16.5390   20.5090 N   0  0  0  0  0  0  0  0  0  0  0  0
  -25.2080  -13.9020   20.5430 C   0  0  0  0  0  0  0  0  0  0  0  0
  -24.1470  -13.1250   20.8990 C   0  0  0  0  0  0  0  0  0  0  0  0
  -24.6190  -11.7750   20.8750 C   0  0  0  0  0  0  0  0  0  0  0  0
  -26.2570  -13.0350   20.3070 N   0  0  0  0  0  0  0  0  0  0  0  0
  -25.9150  -11.7480   20.5800 N   0  0  0  0  0  0  0  0  0  0  0  0
  -23.8980  -10.5110   21.0530 C   0  0  0  0  0  0  0  0  0  0  0  0
  -24.3230   -9.5440   21.9910 C   0  0  0  0  0  3  0  0  0  0  0  0
  -23.5980   -8.3460   22.1600 C   0  0  0  0  0  3  0  0  0  0  0  0
  -22.4330   -8.1060   21.3920 C   0  0  0  0  0  0  0  0  0  0  0  0
  -22.0300   -9.0610   20.4400 C   0  0  0  0  0  3  0  0  0  0  0  0
  -22.7560  -10.2490   20.2690 C   0  0  0  0  0  3  0  0  0  0  0  0
  -21.6780   -6.9610   21.4710 O   0  0  0  0  0  0  0  0  0  0  0  0
  -21.6070   -6.2260   22.6260 C   0  0  0  0  0  0  0  0  0  0  0  0
  -21.1250   -6.7770   23.8350 C   0  0  0  0  0  3  0  0  0  0  0  0
  -21.0060   -5.9640   24.9820 C   0  0  0  0  0  3  0  0  0  0  0  0
  -21.3550   -4.6020   24.9190 C   0  0  0  0  0  0  0  0  0  0  0  0
  -21.8300   -4.0510   23.7160 C   0  0  0  0  0  3  0  0  0  0  0  0
  -21.9530   -4.8610   22.5740 C   0  0  0  0  0  0  0  0  0  0  0  0
  -22.3900   -4.3220   21.4110 F   0  0  0  0  0  0  0  0  0  0  0  0
  -21.2330   -3.8180   26.0170 F   0  0  0  0  0  0  0  0  0  0  0  0
  -22.7430  -13.5930   21.1500 C   0  0  0  0  0  0  0  0  0  0  0  0
  -22.0080  -12.9060   22.0110 N   0  0  0  0  0  0  0  0  0  0  0  0
  -22.3090  -14.6130   20.6110 O   0  0  0  0  0  0  0  0  0  0  0  0
  -22.3740  -12.0860   22.4740 H   0  0  0  0  0  0  0  0  0  0  0  0
  -21.0650  -13.2010   22.2170 H   0  0  0  0  0  0  0  0  0  0  0  0
  -25.3620  -15.2780   20.3730 N   0  0  0  0  0  0  0  0  0  0  0  0
  -24.5920  -15.9220   20.5010 H   0  0  0  0  0  0  0  0  0  0  0  0
  -26.2200  -15.7290   20.0930 H   0  0  0  0  0  0  0  0  0  0  0  0
  -28.8400  -22.9520   20.2580 C   0  0  0  0  0  3  0  0  0  0  0  0
  -27.8840  -24.4280   20.1240 C   0  0  0  0  0  3  0  0  0  0  0  0
  -28.1880  -26.0110   20.3020 O   0  0  0  0  0  0  0  0  0  0  0  0
  -24.6310  -31.9060   23.2700 C   0  0  0  0  0  0  0  0  0  0  0  0
  -27.1710  -27.0760   20.2490 C   0  0  0  0  0  0  0  0  0  0  0  0
  -23.4350  -30.5170   21.6290 C   0  0  0  0  0  3  0  0  0  0  0  0
  -24.8770  -28.9190   20.2090 C   0  0  0  0  0  0  0  0  0  0  0  0
  -25.9970  -30.7370   21.4790 C   0  0  0  0  0  2  0  0  0  0  0  0
  -26.0650  -29.3340   20.8250 C   0  0  0  0  0  0  0  0  0  0  0  0
  -27.2140  -28.4340   20.8140 C   0  0  0  0  0  3  0  0  0  0  0  0
  -25.9470  -26.7870   19.6090 C   0  0  0  0  0  3  0  0  0  0  0  0
  -24.8360  -27.6630   19.5860 C   0  0  0  0  0  3  0  0  0  0  0  0
  -23.6630  -29.8370   20.2540 C   0  0  0  0  0  2  0  0  0  0  0  0
  -24.7090  -31.0760   22.1810 N   0  0  0  0  0  0  0  0  0  0  0  0
  -23.5400  -32.2010   23.7870 O   0  0  0  0  0  0  0  0  0  0  0  0
  -22.7380  -29.5190   22.5920 C   0  0  0  0  0  0  0  0  0  0  0  0
  -21.4100  -29.3510   22.4570 N   0  0  0  0  0  0  0  0  0  0  0  0
  -23.3990  -28.8990   23.4290 O   0  0  0  0  0  0  0  0  0  0  0  0
  -20.9310  -29.8990   21.7560 H   0  0  0  0  0  0  0  0  0  0  0  0
  -18.0300  -28.1340   22.9350 C   0  0  0  0  0  0  0  0  0  0  0  0
  -20.5830  -28.4160   23.2270 C   0  0  0  0  0  3  0  0  0  0  0  0
  -20.7010  -26.9810   22.6660 C   0  0  0  0  0  2  0  0  0  0  0  0
  -19.6110  -26.6400   21.6450 C   0  0  0  0  0  2  0  0  0  0  0  0
  -18.2200  -26.7810   22.2710 C   0  0  0  0  0  2  0  0  0  0  0  0
  -19.1370  -28.9080   23.3710 C   0  0  0  0  0  0  0  0  0  0  0  0
  -18.9020  -30.1700   23.9580 C   0  0  0  0  0  3  0  0  0  0  0  0
  -17.5910  -30.6590   24.1160 C   0  0  0  0  0  3  0  0  0  0  0  0
  -16.4970  -29.8830   23.6910 C   0  0  0  0  0  3  0  0  0  0  0  0
  -16.7170  -28.6230   23.1080 C   0  0  0  0  0  3  0  0  0  0  0  0
  -25.9030  -32.5410   23.9070 C   0  0  0  0  0  3  0  0  0  0  0  0
  -25.5930  -33.9480   24.2190 N   0  0  0  0  0  0  0  0  0  0  0  0
  -25.9270  -34.9940   23.4510 C   0  0  0  0  0  0  0  0  0  0  0  0
  -26.5890  -34.8780   22.4160 O   0  0  0  0  0  0  0  0  0  0  0  0
  -25.0040  -34.1150   25.0200 H   0  0  0  0  0  0  0  0  0  0  0  0
  -24.2000  -36.8010   23.1170 C   0  0  0  0  0  1  0  0  0  0  0  0
  -25.4540  -36.3900   23.9050 C   0  0  0  0  0  3  0  0  0  0  0  0
  -27.6040  -37.2840   24.6930 C   0  0  0  0  0  1  0  0  0  0  0  0
  -26.4870  -37.4390   23.7630 N   0  0  0  0  0  0  0  0  0  0  0  0
  -26.0840  -38.3600   23.9050 H   0  0  0  0  0  0  0  0  0  0  0  0
  -26.3920  -31.7870   25.2060 C   0  0  1  0  0  0  0  0  0  0  0  0
  -25.2800  -31.5850   26.2600 C   0  0  0  0  0  1  0  0  0  0  0  0
  -26.9660  -30.3960   24.8540 C   0  0  0  0  0  1  0  0  0  0  0  0
  -27.5370  -32.5850   25.8720 C   0  0  0  0  0  1  0  0  0  0  0  0
  1 13  1  0
  1 46  1  0
  2  1  2  0
  3  2  1  0
  4 17  1  0
  5 10  1  0
  6  7  1  0
  6  5  1  0
  8  7  1  0
  8 21  1  0
  8  9  1  0
 10  4  1  0
 10  9  1  0
 11  4  2  0
 12 14  1  0
 12 13  2  0
 13 15  1  0
 14 17  1  0
 15 16  2  0
 17 16  1  0
 18 19  2  0
 19 38  1  0
 20 19  1  0
 20 23  1  0
 21 18  1  0
 21 22  1  0
 22 20  2  0
 23 24  1  0
 24 25  2  0
 26 29  1  0
 26 25  1  0
 27 26  2  0
 28 27  1  0
 28 23  2  0
 29 30  1  0
 30 31  1  0
 31 32  2  0
 33 32  1  0
 33 37  1  0
 34 33  2  0
 35 30  2  0
 35 34  1  0
 36 35  1  0
 38 39  1  0
 39 42  1  0
 39 41  1  0
 40 38  2  0
 43 44  1  0
 43 18  1  0
 45 43  1  0
 47 46  2  0
 47 48  1  0
 49 60  2  0
 50 48  1  0
 50 55  1  0
 51 59  1  0
 51 61  1  0
 52 58  1  0
 52 54  1  0
 53 59  1  0
 54 53  1  0
 55 54  2  0
 56 50  2  0
 57 56  1  0
 57 52  2  0
 58 51  1  0
 59 49  1  0
 61 63  2  0
 62 61  1  0
 64 62  1  0
 65 74  2  0
 65 70  1  0
 66 62  1  0
 66 70  1  0
 67 66  1  0
 68 69  1  0
 68 67  1  0
 69 65  1  0
 70 71  2  0
 71 72  1  0
 73 72  2  0
 74 73  1  0
 75 49  1  0
 75 76  1  0
 75 85  1  0
 76 79  1  0
 77 81  1  0
 77 76  1  0
 78 77  2  0
 81 80  1  0
 83 84  1  0
 83 81  1  0
 83 82  1  0
 85 88  1  1
 85 86  1  0
 87 85  1  0
M  ISO  4   4 100  17 100  47 101  48 101
M  END
>  <TORSDO>  (11) 
F 18

>  <SCORE>  (11) 
-15.976

>  <name>  (11) 
10

>  <ligand_id>  (11) 
10

>  <original_smiles>  (11) 
[H]N=C(C1=C([H])C([H])([H])N(C(=O)N2C([H])([H])C([H])([H])C([H])([H])C([H])(n3nc(-c4c([H])c([H])c(Oc5c([H])c([H])c(F)c([H])c5F)c([H])c4[H])c(C(=O)N([H])[H])c3N([H])[H])C2([H])[H])C([H])([H])C1([H])[H])C([H])([H])C([H])([H])Oc1c([H])c([H])c2c(c1[H])C([H])([H])N(C(=O)C([H])(N([H])C(=O)C([H])(N([H])C([H])([H])[H])C([H])([H])[H])C(C([H])([H])[H])(C([H])([H])[H])C([H])([H])[H])C([H])(C(=O)N([H])C1([H])c3c([H])c([H])c([H])c([H])c3C([H])([H])C([H])([H])C1([H])[H])C2([H])[H]

>  <smiles>  (11) 
[H]N=C(C1=C([H])C([H])([H])N(C(=O)N2C([H])([H])C([H])([H])C([H])([H])C([H])(n3nc(-c4c([H])c([H])c(Oc5c([H])c([H])c(F)c([H])c5F)c([H])c4[H])c(C(=O)N([H])[H])c3N([H])[H])C2([H])[H])C([H])([H])C1([H])[H])C([H])([H])C([H])([H])Oc1c([H])c([H])c2c(c1[H])C([H])([H])N(C(=O)C([H])(N([H])C(=O)C([H])(N([H])C([H])([H])[H])C([H])([H])[H])C(C([H])([H])[H])(C([H])([H])[H])C([H])([H])[H])C([H])(C(=O)N([H])C1([H])c3c([H])c([H])c([H])c([H])c3C([H])([H])C([H])([H])C1([H])[H])C2([H])[H]

$$$$
11:0:0
     RDKit          3D

 97106  0  0  1  0  0  0  0  0999 V2000
  -29.2010  -24.8720   22.9130 C   0  0  0  0  0  3  0  0  0  0  0  0
  -29.9680  -24.1950   21.9170 C   0  0  0  0  0  0  0  0  0  0  0  0
  -28.5900  -25.9420   22.3250 C   0  0  0  0  0  0  0  0  0  0  0  0
  -29.6930  -24.8350   20.7360 C   0  0  0  0  0  0  0  0  0  0  0  0
  -28.8850  -25.9390   20.9640 N   0  0  0  0  0  0  0  0  0  0  0  0
  -27.8480  -26.9150   22.9230 O   0  0  0  0  0  0  0  0  0  0  0  0
  -27.7920  -26.7060   23.8480 H   0  0  0  0  0  0  0  0  0  0  0  0
  -30.1730  -24.5740   19.4880 O   0  0  0  0  0  0  0  0  0  0  0  0
  -30.6220  -23.7360   19.5240 H   0  0  0  0  0  0  0  0  0  0  0  0
  -28.6250  -26.9010   19.9930 O   0  0  0  0  0  0  0  0  0  0  0  0
  -24.6120  -31.8280   23.1800 C   0  0  0  0  0  0  0  0  0  0  0  0
  -27.4070  -27.5290   20.0730 C   0  0  0  0  0  0  0  0  0  0  0  0
  -23.4540  -30.4160   21.5080 C   0  0  0  0  0  3  0  0  0  0  0  0
  -24.9590  -28.9330   20.0780 C   0  0  0  0  0  0  0  0  0  0  0  0
  -25.9630  -30.8610   21.3250 C   0  0  0  0  0  2  0  0  0  0  0  0
  -26.0920  -29.5020   20.6710 C   0  0  0  0  0  0  0  0  0  0  0  0
  -27.3200  -28.8130   20.6540 C   0  0  0  0  0  3  0  0  0  0  0  0
  -26.2640  -26.9620   19.4770 C   0  0  0  0  0  3  0  0  0  0  0  0
  -25.0380  -27.6620   19.4770 C   0  0  0  0  0  3  0  0  0  0  0  0
  -23.6900  -29.7520   20.1220 C   0  0  0  0  0  2  0  0  0  0  0  0
  -24.6940  -31.0500   22.0630 N   0  0  0  0  0  0  0  0  0  0  0  0
  -23.5220  -32.0630   23.7180 O   0  0  0  0  0  0  0  0  0  0  0  0
  -22.8250  -29.3680   22.4520 C   0  0  0  0  0  0  0  0  0  0  0  0
  -21.5050  -29.1600   22.3190 N   0  0  0  0  0  0  0  0  0  0  0  0
  -23.5200  -28.7430   23.2580 O   0  0  0  0  0  0  0  0  0  0  0  0
  -21.0040  -29.7170   21.6420 H   0  0  0  0  0  0  0  0  0  0  0  0
  -18.1590  -27.8770   22.7730 C   0  0  0  0  0  0  0  0  0  0  0  0
  -20.7080  -28.1920   23.0700 C   0  0  0  0  0  3  0  0  0  0  0  0
  -20.8500  -26.7720   22.4740 C   0  0  0  0  0  2  0  0  0  0  0  0
  -19.7640  -26.4370   21.4470 C   0  0  0  0  0  2  0  0  0  0  0  0
  -18.3740  -26.5410   22.0810 C   0  0  0  0  0  2  0  0  0  0  0  0
  -19.2560  -28.6600   23.2230 C   0  0  0  0  0  0  0  0  0  0  0  0
  -19.0030  -29.9100   23.8270 C   0  0  0  0  0  3  0  0  0  0  0  0
  -17.6860  -30.3790   23.9880 C   0  0  0  0  0  3  0  0  0  0  0  0
  -16.6030  -29.5940   23.5540 C   0  0  0  0  0  3  0  0  0  0  0  0
  -16.8420  -28.3450   22.9540 C   0  0  0  0  0  3  0  0  0  0  0  0
  -25.8780  -32.4840   23.8170 C   0  0  0  0  0  3  0  0  0  0  0  0
  -25.5380  -33.8720   24.1510 N   0  0  0  0  0  0  0  0  0  0  0  0
  -25.8710  -34.9360   23.4070 C   0  0  0  0  0  0  0  0  0  0  0  0
  -26.5690  -34.8530   22.3930 O   0  0  0  0  0  0  0  0  0  0  0  0
  -24.9200  -34.0100   24.9370 H   0  0  0  0  0  0  0  0  0  0  0  0
  -24.1260  -36.7040   23.0130 C   0  0  0  0  0  1  0  0  0  0  0  0
  -25.3460  -36.3120   23.8610 C   0  0  0  0  0  3  0  0  0  0  0  0
  -27.4390  -37.2210   24.7680 C   0  0  0  0  0  1  0  0  0  0  0  0
  -26.3650  -37.3820   23.7920 N   0  0  0  0  0  0  0  0  0  0  0  0
  -25.9390  -38.2940   23.9360 H   0  0  0  0  0  0  0  0  0  0  0  0
  -26.4020  -31.7160   25.0930 C   0  0  1  0  0  0  0  0  0  0  0  0
  -25.3050  -31.4460   26.1490 C   0  0  0  0  0  1  0  0  0  0  0  0
  -27.0190  -30.3560   24.6920 C   0  0  0  0  0  1  0  0  0  0  0  0
  -27.5280  -32.5320   25.7710 C   0  0  0  0  0  1  0  0  0  0  0  0
  -30.9620  -23.0840   22.1860 C   0  0  0  0  0  2  0  0  0  0  0  0
  -30.3710  -21.6750   22.3190 C   0  0  0  0  0  2  0  0  0  0  0  0
  -30.3700  -21.0130   21.0530 O   0  0  0  0  0  0  0  0  0  0  0  0
  -30.1840  -17.4670   22.2050 C   0  0  0  0  0  3  0  0  0  0  0  0
  -30.8540  -17.5500   19.8670 C   0  0  0  0  0  3  0  0  0  0  0  0
  -30.1020  -18.8720   22.2340 C   0  0  0  0  0  3  0  0  0  0  0  0
  -30.7600  -18.9570   19.8960 C   0  0  0  0  0  3  0  0  0  0  0  0
  -30.5760  -16.7930   21.0310 C   0  0  0  0  0  0  0  0  0  0  0  0
  -30.4050  -19.6340   21.0800 C   0  0  0  0  0  0  0  0  0  0  0  0
  -31.1210  -14.5210   20.1700 C   0  0  0  0  0  0  0  0  0  0  0  0
  -30.7160  -12.4290   18.9270 C   0  0  0  0  0  2  0  0  0  0  0  0
  -29.7220  -12.7110   17.7830 C   0  0  0  0  0  2  0  0  0  0  0  0
  -28.2640  -12.6100   18.2770 C   0  0  0  0  0  2  0  0  0  0  0  0
  -28.0180  -13.4060   19.5860 C   0  0  0  0  0  3  0  0  0  0  0  0
  -29.1100  -13.0780   20.6280 C   0  0  0  0  0  2  0  0  0  0  0  0
  -30.4270  -13.3620   20.0250 N   0  0  0  0  0  0  0  0  0  0  0  0
  -32.1550  -14.7760   19.5420 O   0  0  0  0  0  0  0  0  0  0  0  0
  -30.5890  -15.3730   21.0600 N   0  0  0  0  0  0  0  0  0  0  0  0
  -29.9270  -14.9510   21.6920 H   0  0  0  0  0  0  0  0  0  0  0  0
  -25.6810  -14.0750   20.4390 C   0  0  0  0  0  0  0  0  0  0  0  0
  -24.6030  -13.3260   20.8300 C   0  0  0  0  0  0  0  0  0  0  0  0
  -25.0070  -11.9610   20.7150 C   0  0  0  0  0  0  0  0  0  0  0  0
  -26.6780  -13.1650   20.1170 N   0  0  0  0  0  0  0  0  0  0  0  0
  -26.2760  -11.8870   20.3360 N   0  0  0  0  0  0  0  0  0  0  0  0
  -24.2440  -10.7180   20.8890 C   0  0  0  0  0  0  0  0  0  0  0  0
  -24.6510   -9.7250   21.8080 C   0  0  0  0  0  3  0  0  0  0  0  0
  -23.8910   -8.5470   21.9700 C   0  0  0  0  0  3  0  0  0  0  0  0
  -22.7110   -8.3530   21.2140 C   0  0  0  0  0  0  0  0  0  0  0  0
  -22.3220   -9.3360   20.2860 C   0  0  0  0  0  3  0  0  0  0  0  0
  -23.0820  -10.5060   20.1210 C   0  0  0  0  0  3  0  0  0  0  0  0
  -21.9250   -7.2280   21.2860 O   0  0  0  0  0  0  0  0  0  0  0  0
  -21.8020   -6.5090   22.4480 C   0  0  0  0  0  0  0  0  0  0  0  0
  -21.3420   -7.1010   23.6450 C   0  0  0  0  0  3  0  0  0  0  0  0
  -21.1630   -6.3100   24.7970 C   0  0  0  0  0  3  0  0  0  0  0  0
  -21.4350   -4.9290   24.7530 C   0  0  0  0  0  0  0  0  0  0  0  0
  -21.8890   -4.3380   23.5610 C   0  0  0  0  0  3  0  0  0  0  0  0
  -22.0690   -5.1260   22.4110 C   0  0  0  0  0  0  0  0  0  0  0  0
  -22.4850   -4.5470   21.2590 F   0  0  0  0  0  0  0  0  0  0  0  0
  -21.2570   -4.1660   25.8570 F   0  0  0  0  0  0  0  0  0  0  0  0
  -23.2410  -13.8400   21.1990 C   0  0  0  0  0  0  0  0  0  0  0  0
  -22.5390  -13.1400   22.0830 N   0  0  0  0  0  0  0  0  0  0  0  0
  -22.8110  -14.8980   20.7390 O   0  0  0  0  0  0  0  0  0  0  0  0
  -22.9010  -12.2830   22.4760 H   0  0  0  0  0  0  0  0  0  0  0  0
  -21.6270  -13.4650   22.3710 H   0  0  0  0  0  0  0  0  0  0  0  0
  -25.8910  -15.4440   20.3160 N   0  0  0  0  0  0  0  0  0  0  0  0
  -25.1650  -16.1260   20.5000 H   0  0  0  0  0  0  0  0  0  0  0  0
  -26.7550  -15.8620   19.9880 H   0  0  0  0  0  0  0  0  0  0  0  0
  2 51  1  0
  2  1  1  0
  3  1  2  0
  3  6  1  0
  4  5  1  0
  4  2  2  0
  5  3  1  0
  6  7  1  0
  8  9  1  0
  8  4  1  0
 10 12  1  0
 10  5  1  0
 11 22  2  0
 12 17  1  0
 13 21  1  0
 13 23  1  0
 14 20  1  0
 14 16  1  0
 15 21  1  0
 16 15  1  0
 17 16  2  0
 18 12  2  0
 19 18  1  0
 19 14  2  0
 20 13  1  0
 21 11  1  0
 23 25  2  0
 24 23  1  0
 26 24  1  0
 27 36  2  0
 27 32  1  0
 28 24  1  0
 28 32  1  0
 29 28  1  0
 30 31  1  0
 30 29  1  0
 31 27  1  0
 32 33  2  0
 33 34  1  0
 35 34  2  0
 36 35  1  0
 37 11  1  0
 37 38  1  0
 37 47  1  0
 38 41  1  0
 39 43  1  0
 39 38  1  0
 40 39  2  0
 43 42  1  0
 45 43  1  0
 45 46  1  0
 45 44  1  0
 47 50  1  1
 47 48  1  0
 49 47  1  0
 51 52  1  0
 53 59  1  0
 53 52  1  0
 54 56  1  0
 55 57  2  0
 55 58  1  0
 57 59  1  0
 58 68  1  0
 58 54  2  0
 59 56  2  0
 60 68  1  0
 61 66  1  0
 62 63  1  0
 62 61  1  0
 64 63  1  0
 64 73  1  0
 64 65  1  0
 66 60  1  0
 66 65  1  0
 67 60  2  0
 68 69  1  0
 70 71  2  0
 71 90  1  0
 72 71  1  0
 72 75  1  0
 73 74  1  0
 73 70  1  0
 74 72  2  0
 75 76  1  0
 76 77  2  0
 78 81  1  0
 78 77  1  0
 79 78  2  0
 80 79  1  0
 80 75  2  0
 81 82  1  0
 82 83  1  0
 83 84  2  0
 85 84  1  0
 85 89  1  0
 86 85  2  0
 87 82  2  0
 87 86  1  0
 88 87  1  0
 90 91  1  0
 91 94  1  0
 91 93  1  0
 92 90  2  0
 95 70  1  0
 95 96  1  0
 97 95  1  0
M  ISO  4   5 101  10 101  60 100  68 100
M  END
>  <TORSDO>  (12) 
F 22

>  <SCORE>  (12) 
-12.532

>  <name>  (12) 
11

>  <ligand_id>  (12) 
11

>  <original_smiles>  (12) 
[H]Oc1c([H])c(C([H])([H])C([H])([H])Oc2c([H])c([H])c(N([H])C(=O)N3C([H])([H])C([H])([H])C([H])([H])C([H])(n4nc(-c5c([H])c([H])c(Oc6c([H])c([H])c(F)c([H])c6F)c([H])c5[H])c(C(=O)N([H])[H])c4N([H])[H])C3([H])[H])c([H])c2[H])c(O[H])n1Oc1c([H])c([H])c2c(c1[H])C([H])([H])N(C(=O)C([H])(N([H])C(=O)C([H])(N([H])C([H])([H])[H])C([H])([H])[H])C(C([H])([H])[H])(C([H])([H])[H])C([H])([H])[H])C([H])(C(=O)N([H])C1([H])c3c([H])c([H])c([H])c([H])c3C([H])([H])C([H])([H])C1([H])[H])C2([H])[H]

>  <smiles>  (12) 
[H]Oc1c([H])c(C([H])([H])C([H])([H])Oc2c([H])c([H])c(N([H])C(=O)N3C([H])([H])C([H])([H])C([H])([H])C([H])(n4nc(-c5c([H])c([H])c(Oc6c([H])c([H])c(F)c([H])c6F)c([H])c5[H])c(C(=O)N([H])[H])c4N([H])[H])C3([H])[H])c([H])c2[H])c(O[H])n1Oc1c([H])c([H])c2c(c1[H])C([H])([H])N(C(=O)C([H])(N([H])C(=O)C([H])(N([H])C([H])([H])[H])C([H])([H])[H])C(C([H])([H])[H])(C([H])([H])[H])C([H])([H])[H])C([H])(C(=O)N([H])C1([H])c3c([H])c([H])c([H])c([H])c3C([H])([H])C([H])([H])C1([H])[H])C2([H])[H]

$$$$
12:0:0
     RDKit          3D

 95104  0  0  1  0  0  0  0  0999 V2000
  -28.9740  -22.5480   20.2020 C   0  0  0  0  0  3  0  0  0  0  0  0
  -29.6970  -22.6850   22.5080 C   0  0  0  0  0  3  0  0  0  0  0  0
  -28.7960  -23.9570   20.1890 C   0  0  0  0  0  3  0  0  0  0  0  0
  -29.5300  -24.0870   22.4880 C   0  0  0  0  0  3  0  0  0  0  0  0
  -29.4640  -21.8930   21.3570 C   0  0  0  0  0  0  0  0  0  0  0  0
  -29.1020  -24.7580   21.3150 C   0  0  0  0  0  0  0  0  0  0  0  0
  -29.8000  -20.4480   21.4220 C   0  0  0  0  0  3  0  0  0  0  0  0
  -30.8290  -18.5040   22.2430 C   0  0  0  0  0  2  0  0  0  0  0  0
  -29.7610  -18.1060   21.2240 C   0  0  0  0  0  3  0  0  0  0  0  0
  -29.3620  -19.4220   20.6640 N   0  0  0  0  0  0  0  0  0  0  0  0
  -30.6460  -19.9470   22.3310 N   0  0  0  0  0  0  0  0  0  0  0  0
  -28.6660  -19.5360   19.9360 H   0  0  0  0  0  0  0  0  0  0  0  0
  -31.0800  -20.4980   23.0560 H   0  0  0  0  0  0  0  0  0  0  0  0
  -30.2380  -17.0000   20.2450 C   0  0  0  0  0  2  0  0  0  0  0  0
  -30.4290  -15.6490   21.0000 C   0  0  0  0  0  2  0  0  0  0  0  0
  -30.9820  -14.4860   20.1500 C   0  0  0  0  0  0  0  0  0  0  0  0
  -30.5960  -12.3850   18.9050 C   0  0  0  0  0  2  0  0  0  0  0  0
  -29.6040  -12.6760   17.7600 C   0  0  0  0  0  2  0  0  0  0  0  0
  -28.1420  -12.5790   18.2520 C   0  0  0  0  0  2  0  0  0  0  0  0
  -27.8970  -13.3380   19.5860 C   0  0  0  0  0  3  0  0  0  0  0  0
  -28.9960  -12.9910   20.6130 C   0  0  0  0  0  2  0  0  0  0  0  0
  -30.2940  -13.3180   20.0020 N   0  0  0  0  0  0  0  0  0  0  0  0
  -32.0530  -14.6850   19.5680 O   0  0  0  0  0  0  0  0  0  0  0  0
  -25.5300  -13.9720   20.3730 C   0  0  0  0  0  0  0  0  0  0  0  0
  -24.4630  -13.2100   20.7770 C   0  0  0  0  0  0  0  0  0  0  0  0
  -24.9060  -11.8550   20.7190 C   0  0  0  0  0  0  0  0  0  0  0  0
  -26.5570  -13.0780   20.1070 N   0  0  0  0  0  0  0  0  0  0  0  0
  -26.1830  -11.8000   20.3650 N   0  0  0  0  0  0  0  0  0  0  0  0
  -24.1710  -10.5980   20.9250 C   0  0  0  0  0  0  0  0  0  0  0  0
  -24.5990   -9.6380   21.8690 C   0  0  0  0  0  3  0  0  0  0  0  0
  -23.8670   -8.4470   22.0620 C   0  0  0  0  0  3  0  0  0  0  0  0
  -22.6920   -8.2080   21.3100 C   0  0  0  0  0  0  0  0  0  0  0  0
  -22.2840   -9.1550   20.3560 C   0  0  0  0  0  3  0  0  0  0  0  0
  -23.0160  -10.3370   20.1610 C   0  0  0  0  0  3  0  0  0  0  0  0
  -21.9310   -7.0700   21.4110 O   0  0  0  0  0  0  0  0  0  0  0  0
  -21.8370   -6.3700   22.5860 C   0  0  0  0  0  0  0  0  0  0  0  0
  -21.3720   -6.9680   23.7780 C   0  0  0  0  0  3  0  0  0  0  0  0
  -21.2270   -6.1950   24.9470 C   0  0  0  0  0  3  0  0  0  0  0  0
  -21.5360   -4.8220   24.9250 C   0  0  0  0  0  0  0  0  0  0  0  0
  -21.9930   -4.2210   23.7390 C   0  0  0  0  0  3  0  0  0  0  0  0
  -22.1400   -4.9920   22.5720 C   0  0  0  0  0  0  0  0  0  0  0  0
  -22.5620   -4.4030   21.4280 F   0  0  0  0  0  0  0  0  0  0  0  0
  -21.3880   -4.0770   26.0450 F   0  0  0  0  0  0  0  0  0  0  0  0
  -23.0820  -13.7020   21.0980 C   0  0  0  0  0  0  0  0  0  0  0  0
  -22.3770  -13.0110   21.9920 N   0  0  0  0  0  0  0  0  0  0  0  0
  -22.6350  -14.7320   20.5980 O   0  0  0  0  0  0  0  0  0  0  0  0
  -22.7490  -12.1760   22.4190 H   0  0  0  0  0  0  0  0  0  0  0  0
  -21.4520  -13.3230   22.2460 H   0  0  0  0  0  0  0  0  0  0  0  0
  -25.7050  -15.3390   20.1940 N   0  0  0  0  0  0  0  0  0  0  0  0
  -24.9510  -16.0080   20.3260 H   0  0  0  0  0  0  0  0  0  0  0  0
  -26.5440  -15.7620   19.8140 H   0  0  0  0  0  0  0  0  0  0  0  0
  -28.9950  -26.2580   21.2650 C   0  0  0  0  0  0  0  0  0  0  0  0
  -29.3480  -27.0660   22.1810 N   0  0  0  0  0  0  0  0  0  0  0  0
  -29.7380  -26.6290   23.0100 H   0  0  0  0  0  0  0  0  0  0  0  0
  -28.4630  -26.7060   20.0700 O   0  0  0  0  0  0  0  0  0  0  0  0
  -24.5680  -31.8010   23.1540 C   0  0  0  0  0  0  0  0  0  0  0  0
  -27.3000  -27.4490   20.0850 C   0  0  0  0  0  0  0  0  0  0  0  0
  -23.3770  -30.3890   21.5060 C   0  0  0  0  0  3  0  0  0  0  0  0
  -24.8590  -28.8770   20.0720 C   0  0  0  0  0  0  0  0  0  0  0  0
  -25.8860  -30.8090   21.2900 C   0  0  0  0  0  2  0  0  0  0  0  0
  -25.9980  -29.4380   20.6650 C   0  0  0  0  0  0  0  0  0  0  0  0
  -27.2190  -28.7350   20.6710 C   0  0  0  0  0  3  0  0  0  0  0  0
  -26.1540  -26.9060   19.4650 C   0  0  0  0  0  3  0  0  0  0  0  0
  -24.9300  -27.6080   19.4690 C   0  0  0  0  0  3  0  0  0  0  0  0
  -23.5920  -29.6970   20.1290 C   0  0  0  0  0  2  0  0  0  0  0  0
  -24.6310  -31.0120   22.0460 N   0  0  0  0  0  0  0  0  0  0  0  0
  -23.4850  -32.0530   23.6970 O   0  0  0  0  0  0  0  0  0  0  0  0
  -22.7380  -29.3610   22.4640 C   0  0  0  0  0  0  0  0  0  0  0  0
  -21.4190  -29.1540   22.3200 N   0  0  0  0  0  0  0  0  0  0  0  0
  -23.4260  -28.7560   23.2910 O   0  0  0  0  0  0  0  0  0  0  0  0
  -20.9220  -29.6920   21.6230 H   0  0  0  0  0  0  0  0  0  0  0  0
  -18.0730  -27.8740   22.7520 C   0  0  0  0  0  0  0  0  0  0  0  0
  -20.6140  -28.2050   23.0850 C   0  0  0  0  0  3  0  0  0  0  0  0
  -20.7710  -26.7710   22.5260 C   0  0  0  0  0  2  0  0  0  0  0  0
  -19.7040  -26.4080   21.4880 C   0  0  0  0  0  2  0  0  0  0  0  0
  -18.3060  -26.5210   22.0960 C   0  0  0  0  0  2  0  0  0  0  0  0
  -19.1600  -28.6680   23.2010 C   0  0  0  0  0  0  0  0  0  0  0  0
  -18.8930  -29.9320   23.7710 C   0  0  0  0  0  3  0  0  0  0  0  0
  -17.5720  -30.4040   23.8950 C   0  0  0  0  0  3  0  0  0  0  0  0
  -16.5000  -29.6040   23.4650 C   0  0  0  0  0  3  0  0  0  0  0  0
  -16.7490  -28.3400   22.9010 C   0  0  0  0  0  3  0  0  0  0  0  0
  -25.8470  -32.4410   23.7800 C   0  0  0  0  0  3  0  0  0  0  0  0
  -26.3830  -31.6590   25.0400 C   0  0  1  0  0  0  0  0  0  0  0  0
  -25.3000  -31.3860   26.1080 C   0  0  0  0  0  1  0  0  0  0  0  0
  -26.9810  -30.2970   24.6160 C   0  0  0  0  0  1  0  0  0  0  0  0
  -27.5290  -32.4550   25.6980 C   0  0  0  0  0  1  0  0  0  0  0  0
  -25.5180  -33.8300   24.1260 N   0  0  0  0  0  0  0  0  0  0  0  0
  -25.8510  -34.8960   23.3830 C   0  0  0  0  0  0  0  0  0  0  0  0
  -26.5350  -34.8130   22.3570 O   0  0  0  0  0  0  0  0  0  0  0  0
  -24.9000  -33.9740   24.9120 H   0  0  0  0  0  0  0  0  0  0  0  0
  -24.1140  -36.6810   23.0340 C   0  0  0  0  0  1  0  0  0  0  0  0
  -25.3480  -36.2720   23.8540 C   0  0  0  0  0  3  0  0  0  0  0  0
  -27.4640  -37.1620   24.7230 C   0  0  0  0  0  1  0  0  0  0  0  0
  -26.3730  -37.3340   23.7680 N   0  0  0  0  0  0  0  0  0  0  0  0
  -25.9590  -38.2490   23.9210 H   0  0  0  0  0  0  0  0  0  0  0  0
  1  5  1  0
  3  1  2  0
  3  6  1  0
  4  2  1  0
  5  2  2  0
  6  4  2  0
  7  5  1  0
  7 11  1  0
  8 11  1  0
  9 14  1  0
  9  8  1  0
 10  9  1  0
 10  7  1  0
 11 13  1  0
 12 10  1  0
 14 15  1  0
 16 15  1  0
 17 22  1  0
 18 19  1  0
 18 17  1  0
 20 19  1  0
 20 27  1  0
 20 21  1  0
 22 16  1  0
 22 21  1  0
 23 16  2  0
 24 25  2  0
 25 44  1  0
 26 25  1  0
 26 29  1  0
 27 28  1  0
 27 24  1  0
 28 26  2  0
 29 30  1  0
 30 31  2  0
 32 35  1  0
 32 31  1  0
 33 32  2  0
 34 33  1  0
 34 29  2  0
 35 36  1  0
 36 37  1  0
 37 38  2  0
 39 38  1  0
 39 43  1  0
 40 39  2  0
 41 36  2  0
 41 40  1  0
 42 41  1  0
 44 45  1  0
 45 48  1  0
 45 47  1  0
 46 44  2  0
 49 50  1  0
 49 24  1  0
 51 49  1  0
 52  6  1  0
 52 53  2  0
 53 54  1  0
 55 57  1  0
 55 52  1  0
 56 67  2  0
 57 62  1  0
 58 66  1  0
 58 68  1  0
 59 65  1  0
 59 61  1  0
 60 66  1  0
 61 62  2  0
 61 60  1  0
 63 64  1  0
 63 57  2  0
 64 59  2  0
 65 58  1  0
 66 56  1  0
 68 70  2  0
 69 68  1  0
 71 69  1  0
 72 81  2  0
 72 77  1  0
 73 69  1  0
 73 77  1  0
 74 73  1  0
 75 76  1  0
 75 74  1  0
 76 72  1  0
 77 78  2  0
 78 79  1  0
 80 79  2  0
 81 80  1  0
 82 56  1  0
 82 87  1  0
 82 83  1  0
 83 86  1  1
 83 84  1  0
 85 83  1  0
 87 90  1  0
 88 92  1  0
 88 87  1  0
 89 88  2  0
 92 91  1  0
 94 92  1  0
 94 95  1  0
 94 93  1  0
M  ISO  4  15 100  16 100  52 101  55 101
M  END
>  <TORSDO>  (13) 
F 20

>  <SCORE>  (13) 
-13.892

>  <name>  (13) 
12

>  <ligand_id>  (13) 
12

>  <original_smiles>  (13) 
[H]N=C(Oc1c([H])c([H])c2c(c1[H])C([H])([H])N(C(=O)C([H])(N([H])C(=O)C([H])(N([H])C([H])([H])[H])C([H])([H])[H])C(C([H])([H])[H])(C([H])([H])[H])C([H])([H])[H])C([H])(C(=O)N([H])C1([H])c3c([H])c([H])c([H])c([H])c3C([H])([H])C([H])([H])C1([H])[H])C2([H])[H])c1c([H])c([H])c(C2=[N+]([H])C([H])([H])C([H])(C([H])([H])C([H])([H])C(=O)N3C([H])([H])C([H])([H])C([H])([H])C([H])(n4nc(-c5c([H])c([H])c(Oc6c([H])c([H])c(F)c([H])c6F)c([H])c5[H])c(C(=O)N([H])[H])c4N([H])[H])C3([H])[H])N2[H])c([H])c1[H]

>  <smiles>  (13) 
[H]N=C(Oc1c([H])c([H])c2c(c1[H])C([H])([H])N(C(=O)C([H])(N([H])C(=O)C([H])(N([H])C([H])([H])[H])C([H])([H])[H])C(C([H])([H])[H])(C([H])([H])[H])C([H])([H])[H])C([H])(C(=O)N([H])C1([H])c3c([H])c([H])c([H])c([H])c3C([H])([H])C([H])([H])C1([H])[H])C2([H])[H])c1c([H])c([H])c(C2=[N+]([H])C([H])([H])C([H])(C([H])([H])C([H])([H])C(=O)N3C([H])([H])C([H])([H])C([H])([H])C([H])(n4nc(-c5c([H])c([H])c(Oc6c([H])c([H])c(F)c([H])c6F)c([H])c5[H])c(C(=O)N([H])[H])c4N([H])[H])C3([H])[H])N2[H])c([H])c1[H]

$$$$
13:0:0
     RDKit          3D

 89 97  0  0  1  0  0  0  0  0999 V2000
  -29.1190  -19.8840   19.5960 C   0  0  0  0  0  0  0  0  0  0  0  0
  -29.6490  -18.7550   20.5780 C   0  0  0  0  0  0  0  0  0  0  0  0
  -28.8350  -19.0790   18.3110 C   0  0  0  0  0  2  0  0  0  0  0  0
  -29.2910  -17.5870   18.4530 C   0  0  0  0  0  2  0  0  0  0  0  0
  -29.3370  -17.3180   19.9550 C   0  0  0  0  0  3  0  0  0  0  0  0
  -28.8810  -21.2010   19.5520 N   0  0  0  0  0  0  0  0  0  0  0  0
  -30.1910  -18.9600   21.6680 O   0  0  0  0  0  0  0  0  0  0  0  0
  -30.5520  -14.8650   20.1650 C   0  0  0  0  0  0  0  0  0  0  0  0
  -30.4240  -12.5770   19.1550 C   0  0  0  0  0  2  0  0  0  0  0  0
  -29.4480  -12.6700   17.9580 C   0  0  0  0  0  2  0  0  0  0  0  0
  -27.9880  -12.4740   18.4160 C   0  0  0  0  0  2  0  0  0  0  0  0
  -27.6440  -13.3200   19.6710 C   0  0  0  0  0  3  0  0  0  0  0  0
  -28.7350  -13.1910   20.7590 C   0  0  0  0  0  2  0  0  0  0  0  0
  -30.0110  -13.5950   20.1510 N   0  0  0  0  0  0  0  0  0  0  0  0
  -31.6870  -15.0530   19.7170 O   0  0  0  0  0  0  0  0  0  0  0  0
  -29.6810  -15.9020   20.4840 N   0  0  0  0  0  0  0  0  0  0  0  0
  -28.9030  -15.5350   21.0110 H   0  0  0  0  0  0  0  0  0  0  0  0
  -25.2810  -13.8970   20.4870 C   0  0  0  0  0  0  0  0  0  0  0  0
  -24.2300  -13.1170   20.8810 C   0  0  0  0  0  0  0  0  0  0  0  0
  -24.6890  -11.7660   20.8030 C   0  0  0  0  0  0  0  0  0  0  0  0
  -26.3150  -13.0220   20.1940 N   0  0  0  0  0  0  0  0  0  0  0  0
  -25.9680  -11.7340   20.4460 N   0  0  0  0  0  0  0  0  0  0  0  0
  -23.9670  -10.5000   20.9910 C   0  0  0  0  0  0  0  0  0  0  0  0
  -24.4060   -9.5360   21.9240 C   0  0  0  0  0  3  0  0  0  0  0  0
  -23.6880   -8.3330   22.1030 C   0  0  0  0  0  3  0  0  0  0  0  0
  -22.5180   -8.0880   21.3480 C   0  0  0  0  0  0  0  0  0  0  0  0
  -22.0960   -9.0410   20.4070 C   0  0  0  0  0  3  0  0  0  0  0  0
  -22.8130  -10.2360   20.2260 C   0  0  0  0  0  3  0  0  0  0  0  0
  -21.7730   -6.9370   21.4350 O   0  0  0  0  0  0  0  0  0  0  0  0
  -21.6980   -6.2110   22.5970 C   0  0  0  0  0  0  0  0  0  0  0  0
  -21.1900   -6.7660   23.7900 C   0  0  0  0  0  3  0  0  0  0  0  0
  -21.0680   -5.9640   24.9440 C   0  0  0  0  0  3  0  0  0  0  0  0
  -21.4450   -4.6090   24.9020 C   0  0  0  0  0  0  0  0  0  0  0  0
  -21.9440   -4.0520   23.7120 C   0  0  0  0  0  3  0  0  0  0  0  0
  -22.0680   -4.8510   22.5620 C   0  0  0  0  0  0  0  0  0  0  0  0
  -22.5320   -4.3050   21.4110 F   0  0  0  0  0  0  0  0  0  0  0  0
  -21.3190   -3.8370   26.0070 F   0  0  0  0  0  0  0  0  0  0  0  0
  -22.8410  -13.5860   21.2080 C   0  0  0  0  0  0  0  0  0  0  0  0
  -22.1390  -12.8680   22.0780 N   0  0  0  0  0  0  0  0  0  0  0  0
  -22.3880  -14.6230   20.7270 O   0  0  0  0  0  0  0  0  0  0  0  0
  -22.5170  -12.0270   22.4900 H   0  0  0  0  0  0  0  0  0  0  0  0
  -21.2080  -13.1610   22.3350 H   0  0  0  0  0  0  0  0  0  0  0  0
  -25.4390  -15.2720   20.3310 N   0  0  0  0  0  0  0  0  0  0  0  0
  -24.6640  -15.9140   20.4710 H   0  0  0  0  0  0  0  0  0  0  0  0
  -26.2320  -15.7050   19.8750 H   0  0  0  0  0  0  0  0  0  0  0  0
  -29.1690  -22.2940   20.5570 C   0  0  0  0  0  2  0  0  0  0  0  0
  -28.2850  -23.6870   20.5790 C   0  0  0  0  0  2  0  0  0  0  0  0
  -28.6300  -25.0780   19.7960 C   0  0  0  0  0  2  0  0  0  0  0  0
  -28.4660  -26.4730   20.3670 O   0  0  0  0  0  0  0  0  0  0  0  0
  -24.6260  -31.9130   23.2610 C   0  0  0  0  0  0  0  0  0  0  0  0
  -27.3280  -27.3130   20.2680 C   0  0  0  0  0  0  0  0  0  0  0  0
  -23.4590  -30.4880   21.6140 C   0  0  0  0  0  3  0  0  0  0  0  0
  -24.9450  -28.9330   20.2160 C   0  0  0  0  0  0  0  0  0  0  0  0
  -25.9970  -30.8200   21.4620 C   0  0  0  0  0  2  0  0  0  0  0  0
  -26.1000  -29.4310   20.8290 C   0  0  0  0  0  0  0  0  0  0  0  0
  -27.2870  -28.6310   20.8470 C   0  0  0  0  0  3  0  0  0  0  0  0
  -26.1490  -26.8790   19.6270 C   0  0  0  0  0  3  0  0  0  0  0  0
  -24.9760  -27.6670   19.6050 C   0  0  0  0  0  3  0  0  0  0  0  0
  -23.6970  -29.7970   20.2440 C   0  0  0  0  0  2  0  0  0  0  0  0
  -24.7130  -31.0950   22.1700 N   0  0  0  0  0  0  0  0  0  0  0  0
  -23.5340  -32.1790   23.7840 O   0  0  0  0  0  0  0  0  0  0  0  0
  -22.7950  -29.4770   22.5800 C   0  0  0  0  0  0  0  0  0  0  0  0
  -21.4680  -29.2950   22.4520 N   0  0  0  0  0  0  0  0  0  0  0  0
  -23.4720  -28.8560   23.4030 O   0  0  0  0  0  0  0  0  0  0  0  0
  -20.9760  -29.8510   21.7670 H   0  0  0  0  0  0  0  0  0  0  0  0
  -18.0960  -28.0930   22.9640 C   0  0  0  0  0  0  0  0  0  0  0  0
  -20.6560  -28.3530   23.2250 C   0  0  0  0  0  3  0  0  0  0  0  0
  -20.7580  -26.9230   22.6460 C   0  0  0  0  0  2  0  0  0  0  0  0
  -19.6520  -26.6030   21.6340 C   0  0  0  0  0  2  0  0  0  0  0  0
  -18.2710  -26.7450   22.2830 C   0  0  0  0  0  2  0  0  0  0  0  0
  -19.2160  -28.8530   23.3950 C   0  0  0  0  0  0  0  0  0  0  0  0
  -18.9990  -30.1120   23.9940 C   0  0  0  0  0  3  0  0  0  0  0  0
  -17.6950  -30.6110   24.1670 C   0  0  0  0  0  3  0  0  0  0  0  0
  -16.5900  -29.8490   23.7520 C   0  0  0  0  0  3  0  0  0  0  0  0
  -16.7910  -28.5920   23.1530 C   0  0  0  0  0  3  0  0  0  0  0  0
  -25.8920  -32.5690   23.8920 C   0  0  0  0  0  3  0  0  0  0  0  0
  -26.3920  -31.8270   25.1910 C   0  0  1  0  0  0  0  0  0  0  0  0
  -25.2810  -31.6040   26.2430 C   0  0  0  0  0  1  0  0  0  0  0  0
  -26.9940  -30.4480   24.8380 C   0  0  0  0  0  1  0  0  0  0  0  0
  -27.5210  -32.6450   25.8610 C   0  0  0  0  0  1  0  0  0  0  0  0
  -25.5650  -33.9690   24.1940 N   0  0  0  0  0  0  0  0  0  0  0  0
  -25.9040  -35.0170   23.4300 C   0  0  0  0  0  0  0  0  0  0  0  0
  -26.5890  -34.9050   22.4100 O   0  0  0  0  0  0  0  0  0  0  0  0
  -24.9570  -34.1320   24.9840 H   0  0  0  0  0  0  0  0  0  0  0  0
  -24.1760  -36.8000   23.0280 C   0  0  0  0  0  1  0  0  0  0  0  0
  -25.4020  -36.4070   23.8660 C   0  0  0  0  0  3  0  0  0  0  0  0
  -27.5100  -37.3160   24.7360 C   0  0  0  0  0  1  0  0  0  0  0  0
  -26.4310  -37.4640   23.7640 N   0  0  0  0  0  0  0  0  0  0  0  0
  -26.0150  -38.3840   23.8910 H   0  0  0  0  0  0  0  0  0  0  0  0
  1  2  1  0
  2  7  2  0
  3  4  1  0
  3  1  1  0
  4  5  1  0
  5 16  1  0
  5  2  1  0
  6  1  2  0
  6 46  1  0
  8 16  1  0
  9 14  1  0
 10 11  1  0
 10  9  1  0
 12 11  1  0
 12 21  1  0
 12 13  1  0
 14  8  1  0
 14 13  1  0
 15  8  2  0
 16 17  1  0
 18 19  2  0
 19 38  1  0
 20 19  1  0
 20 23  1  0
 21 22  1  0
 21 18  1  0
 22 20  2  0
 23 24  1  0
 24 25  2  0
 26 29  1  0
 26 25  1  0
 27 26  2  0
 28 27  1  0
 28 23  2  0
 29 30  1  0
 30 31  1  0
 31 32  2  0
 33 32  1  0
 33 37  1  0
 34 33  2  0
 35 30  2  0
 35 34  1  0
 36 35  1  0
 38 39  1  0
 39 42  1  0
 39 41  1  0
 40 38  2  0
 43 44  1  0
 43 18  1  0
 45 43  1  0
 46 47  1  0
 48 49  1  0
 48 47  1  0
 50 61  2  0
 51 49  1  0
 51 56  1  0
 52 60  1  0
 52 62  1  0
 53 59  1  0
 53 55  1  0
 54 60  1  0
 55 56  2  0
 55 54  1  0
 57 51  2  0
 58 57  1  0
 58 53  2  0
 59 52  1  0
 60 50  1  0
 62 64  2  0
 63 62  1  0
 65 63  1  0
 66 75  2  0
 66 71  1  0
 67 63  1  0
 67 71  1  0
 68 67  1  0
 69 70  1  0
 69 68  1  0
 70 66  1  0
 71 72  2  0
 72 73  1  0
 74 73  2  0
 75 74  1  0
 76 50  1  0
 76 81  1  0
 76 77  1  0
 77 80  1  1
 77 78  1  0
 79 77  1  0
 81 84  1  0
 82 86  1  0
 82 81  1  0
 83 82  2  0
 86 85  1  0
 88 86  1  0
 88 89  1  0
 88 87  1  0
M  ISO  4   8 100  16 100  48 101  49 101
M  END
>  <TORSDO>  (14) 
F 19

>  <SCORE>  (14) 
-14.055

>  <name>  (14) 
13

>  <ligand_id>  (14) 
13

>  <original_smiles>  (14) 
[H]c1c([H])c([H])c2c(c1[H])C([H])([H])C([H])([H])C([H])([H])C2([H])N([H])C(=O)C1([H])N(C(=O)C([H])(N([H])C(=O)C([H])(N([H])C([H])([H])[H])C([H])([H])[H])C(C([H])([H])[H])(C([H])([H])[H])C([H])([H])[H])C([H])([H])c2c([H])c(OC([H])([H])C([H])([H])C([H])([H])N=C3C(=O)C([H])(N([H])C(=O)N4C([H])([H])C([H])([H])C([H])([H])C([H])(n5nc(-c6c([H])c([H])c(Oc7c([H])c([H])c(F)c([H])c7F)c([H])c6[H])c(C(=O)N([H])[H])c5N([H])[H])C4([H])[H])C([H])([H])C3([H])[H])c([H])c([H])c2C1([H])[H]

>  <smiles>  (14) 
[H]c1c([H])c([H])c2c(c1[H])C([H])([H])C([H])([H])C([H])([H])C2([H])N([H])C(=O)C1([H])N(C(=O)C([H])(N([H])C(=O)C([H])(N([H])C([H])([H])[H])C([H])([H])[H])C(C([H])([H])[H])(C([H])([H])[H])C([H])([H])[H])C([H])([H])c2c([H])c(OC([H])([H])C([H])([H])C([H])([H])N=C3C(=O)C([H])(N([H])C(=O)N4C([H])([H])C([H])([H])C([H])([H])C([H])(n5nc(-c6c([H])c([H])c(Oc7c([H])c([H])c(F)c([H])c7F)c([H])c6[H])c(C(=O)N([H])[H])c5N([H])[H])C4([H])[H])C([H])([H])C3([H])[H])c([H])c([H])c2C1([H])[H]

$$$$
14:0:0
     RDKit          3D

 88 96  0  0  1  0  0  0  0  0999 V2000
  -29.8300  -22.7640   20.6410 C   0  0  0  0  0  3  0  0  0  0  0  0
  -30.0360  -21.3990   20.6840 C   0  0  0  0  0  3  0  0  0  0  0  0
  -28.4810  -23.4110   20.4040 C   0  0  0  0  0  0  0  0  0  0  0  0
  -27.8520  -21.1390   19.6250 C   0  0  0  0  0  2  0  0  0  0  0  0
  -28.9190  -20.3390   20.4950 C   0  0  0  0  0  3  0  0  0  0  0  0
  -27.5730  -22.5900   19.9720 N   0  0  0  0  0  0  0  0  0  0  0  0
  -28.1190  -24.9410   20.9320 C   0  0  0  0  0  2  0  0  0  0  0  0
  -28.2870  -26.2710   20.1950 O   0  0  0  0  0  0  0  0  0  0  0  0
  -24.6320  -31.8830   23.2350 C   0  0  0  0  0  0  0  0  0  0  0  0
  -27.2180  -27.2180   20.2090 C   0  0  0  0  0  0  0  0  0  0  0  0
  -23.4270  -30.4770   21.6070 C   0  0  0  0  0  3  0  0  0  0  0  0
  -24.8740  -28.9060   20.1840 C   0  0  0  0  0  0  0  0  0  0  0  0
  -25.9730  -30.7690   21.4190 C   0  0  0  0  0  2  0  0  0  0  0  0
  -26.0530  -29.3770   20.7780 C   0  0  0  0  0  0  0  0  0  0  0  0
  -27.2310  -28.5480   20.7710 C   0  0  0  0  0  3  0  0  0  0  0  0
  -26.0150  -26.8270   19.5870 C   0  0  0  0  0  3  0  0  0  0  0  0
  -24.8630  -27.6410   19.5740 C   0  0  0  0  0  3  0  0  0  0  0  0
  -23.6400  -29.7930   20.2300 C   0  0  0  0  0  2  0  0  0  0  0  0
  -24.6970  -31.0640   22.1430 N   0  0  0  0  0  0  0  0  0  0  0  0
  -23.5500  -32.1640   23.7700 O   0  0  0  0  0  0  0  0  0  0  0  0
  -22.7610  -29.4700   22.5760 C   0  0  0  0  0  0  0  0  0  0  0  0
  -21.4330  -29.2920   22.4560 N   0  0  0  0  0  0  0  0  0  0  0  0
  -23.4410  -28.8490   23.3980 O   0  0  0  0  0  0  0  0  0  0  0  0
  -20.9420  -29.8440   21.7670 H   0  0  0  0  0  0  0  0  0  0  0  0
  -18.0610  -28.0770   22.9690 C   0  0  0  0  0  0  0  0  0  0  0  0
  -20.6180  -28.3560   23.2340 C   0  0  0  0  0  3  0  0  0  0  0  0
  -20.7280  -26.9200   22.6710 C   0  0  0  0  0  2  0  0  0  0  0  0
  -19.6280  -26.5830   21.6590 C   0  0  0  0  0  2  0  0  0  0  0  0
  -18.2460  -26.7250   22.3020 C   0  0  0  0  0  2  0  0  0  0  0  0
  -19.1750  -28.8500   23.3920 C   0  0  0  0  0  0  0  0  0  0  0  0
  -18.9470  -30.1150   23.9770 C   0  0  0  0  0  3  0  0  0  0  0  0
  -17.6390  -30.6070   24.1410 C   0  0  0  0  0  3  0  0  0  0  0  0
  -16.5390  -29.8320   23.7340 C   0  0  0  0  0  3  0  0  0  0  0  0
  -16.7510  -28.5680   23.1540 C   0  0  0  0  0  3  0  0  0  0  0  0
  -25.9140  -32.5240   23.8510 C   0  0  0  0  0  3  0  0  0  0  0  0
  -26.4360  -31.7580   25.1300 C   0  0  1  0  0  0  0  0  0  0  0  0
  -25.3470  -31.5250   26.2040 C   0  0  0  0  0  1  0  0  0  0  0  0
  -27.0180  -30.3790   24.7440 C   0  0  0  0  0  1  0  0  0  0  0  0
  -27.5890  -32.5560   25.7840 C   0  0  0  0  0  1  0  0  0  0  0  0
  -25.6000  -33.9210   24.1840 N   0  0  0  0  0  0  0  0  0  0  0  0
  -25.9220  -34.9780   23.4260 C   0  0  0  0  0  0  0  0  0  0  0  0
  -26.5830  -34.8790   22.3880 O   0  0  0  0  0  0  0  0  0  0  0  0
  -25.0150  -34.0730   24.9920 H   0  0  0  0  0  0  0  0  0  0  0  0
  -24.1830  -36.7660   23.0950 C   0  0  0  0  0  1  0  0  0  0  0  0
  -25.4360  -36.3650   23.8910 C   0  0  0  0  0  3  0  0  0  0  0  0
  -27.5790  -37.2570   24.6940 C   0  0  0  0  0  1  0  0  0  0  0  0
  -26.4620  -37.4230   23.7660 N   0  0  0  0  0  0  0  0  0  0  0  0
  -26.0550  -38.3400   23.9200 H   0  0  0  0  0  0  0  0  0  0  0  0
  -29.2390  -18.7820   19.9630 C   0  0  0  0  0  2  0  0  0  0  0  0
  -30.0340  -17.5540   20.7450 C   0  0  0  0  0  2  0  0  0  0  0  0
  -30.5280  -14.8910   20.3280 C   0  0  0  0  0  0  0  0  0  0  0  0
  -30.3810  -12.5750   19.3390 C   0  0  0  0  0  2  0  0  0  0  0  0
  -29.4260  -12.5760   18.1230 C   0  0  0  0  0  2  0  0  0  0  0  0
  -27.9650  -12.3790   18.5740 C   0  0  0  0  0  2  0  0  0  0  0  0
  -27.5850  -13.2830   19.7770 C   0  0  0  0  0  3  0  0  0  0  0  0
  -28.6580  -13.2480   20.8850 C   0  0  0  0  0  2  0  0  0  0  0  0
  -29.9270  -13.6450   20.2640 N   0  0  0  0  0  0  0  0  0  0  0  0
  -31.7290  -14.9820   20.0550 O   0  0  0  0  0  0  0  0  0  0  0  0
  -29.7300  -16.0370   20.5070 N   0  0  0  0  0  0  0  0  0  0  0  0
  -28.7550  -15.8030   20.6200 H   0  0  0  0  0  0  0  0  0  0  0  0
  -25.2090  -13.8610   20.5410 C   0  0  0  0  0  0  0  0  0  0  0  0
  -24.1510  -13.0820   20.9200 C   0  0  0  0  0  0  0  0  0  0  0  0
  -24.6180  -11.7320   20.8800 C   0  0  0  0  0  0  0  0  0  0  0  0
  -26.2520  -12.9850   20.2870 N   0  0  0  0  0  0  0  0  0  0  0  0
  -25.9060  -11.7000   20.5570 N   0  0  0  0  0  0  0  0  0  0  0  0
  -23.8960  -10.4680   21.0730 C   0  0  0  0  0  0  0  0  0  0  0  0
  -24.3510   -9.4880   21.9830 C   0  0  0  0  0  3  0  0  0  0  0  0
  -23.6290   -8.2890   22.1650 C   0  0  0  0  0  3  0  0  0  0  0  0
  -22.4370   -8.0620   21.4360 C   0  0  0  0  0  0  0  0  0  0  0  0
  -22.0010   -9.0300   20.5150 C   0  0  0  0  0  3  0  0  0  0  0  0
  -22.7240  -10.2200   20.3310 C   0  0  0  0  0  3  0  0  0  0  0  0
  -21.6830   -6.9170   21.5300 O   0  0  0  0  0  0  0  0  0  0  0  0
  -21.6780   -6.1490   22.6660 C   0  0  0  0  0  0  0  0  0  0  0  0
  -21.3140   -6.6790   23.9230 C   0  0  0  0  0  3  0  0  0  0  0  0
  -21.2560   -5.8380   25.0520 C   0  0  0  0  0  3  0  0  0  0  0  0
  -21.5510   -4.4680   24.9260 C   0  0  0  0  0  0  0  0  0  0  0  0
  -21.9100   -3.9370   23.6750 C   0  0  0  0  0  3  0  0  0  0  0  0
  -21.9700   -4.7740   22.5470 C   0  0  0  0  0  0  0  0  0  0  0  0
  -22.2940   -4.2530   21.3400 F   0  0  0  0  0  0  0  0  0  0  0  0
  -21.4880   -3.6570   26.0090 F   0  0  0  0  0  0  0  0  0  0  0  0
  -22.7550  -13.5550   21.2070 C   0  0  0  0  0  0  0  0  0  0  0  0
  -22.0390  -12.8550   22.0780 N   0  0  0  0  0  0  0  0  0  0  0  0
  -22.3100  -14.5800   20.6920 O   0  0  0  0  0  0  0  0  0  0  0  0
  -22.4130  -12.0260   22.5160 H   0  0  0  0  0  0  0  0  0  0  0  0
  -21.1020  -13.1520   22.3120 H   0  0  0  0  0  0  0  0  0  0  0  0
  -25.3660  -15.2320   20.3630 N   0  0  0  0  0  0  0  0  0  0  0  0
  -24.5900  -15.8770   20.4730 H   0  0  0  0  0  0  0  0  0  0  0  0
  -26.1910  -15.6730   19.9810 H   0  0  0  0  0  0  0  0  0  0  0  0
  1  2  2  0
  3  1  1  0
  3  7  1  0
  4  6  1  0
  4  5  1  0
  5 49  1  0
  5  2  1  0
  6  3  2  0
  8 10  1  0
  8  7  1  0
  9 20  2  0
 10 15  1  0
 11 19  1  0
 11 21  1  0
 12 18  1  0
 12 14  1  0
 13 19  1  0
 14 13  1  0
 15 14  2  0
 16 10  2  0
 17 16  1  0
 17 12  2  0
 18 11  1  0
 19  9  1  0
 21 23  2  0
 22 21  1  0
 24 22  1  0
 25 34  2  0
 25 30  1  0
 26 22  1  0
 26 30  1  0
 27 26  1  0
 28 29  1  0
 28 27  1  0
 29 25  1  0
 30 31  2  0
 31 32  1  0
 33 32  2  0
 34 33  1  0
 35  9  1  0
 35 40  1  0
 35 36  1  0
 36 39  1  1
 36 37  1  0
 38 36  1  0
 40 43  1  0
 41 45  1  0
 41 40  1  0
 42 41  2  0
 45 44  1  0
 47 45  1  0
 47 48  1  0
 47 46  1  0
 49 50  1  0
 51 59  1  0
 52 57  1  0
 53 54  1  0
 53 52  1  0
 55 54  1  0
 55 64  1  0
 55 56  1  0
 57 51  1  0
 57 56  1  0
 58 51  2  0
 59 60  1  0
 59 50  1  0
 61 62  2  0
 62 81  1  0
 63 62  1  0
 63 66  1  0
 64 61  1  0
 64 65  1  0
 65 63  2  0
 66 67  1  0
 67 68  2  0
 69 72  1  0
 69 68  1  0
 70 69  2  0
 71 70  1  0
 71 66  2  0
 72 73  1  0
 73 74  1  0
 74 75  2  0
 76 75  1  0
 76 80  1  0
 77 76  2  0
 78 73  2  0
 78 77  1  0
 79 78  1  0
 81 82  1  0
 82 85  1  0
 82 84  1  0
 83 81  2  0
 86 87  1  0
 86 61  1  0
 88 86  1  0
M  ISO  4   7 101   8 101  51 100  59 100
M  END
>  <TORSDO>  (15) 
F 19

>  <SCORE>  (15) 
-14.109

>  <name>  (15) 
14

>  <ligand_id>  (15) 
14

>  <original_smiles>  (15) 
[H]C1=C([H])C([H])(C([H])([H])C([H])([H])N([H])C(=O)N2C([H])([H])C([H])([H])C([H])([H])C([H])(n3nc(-c4c([H])c([H])c(Oc5c([H])c([H])c(F)c([H])c5F)c([H])c4[H])c(C(=O)N([H])[H])c3N([H])[H])C2([H])[H])C([H])([H])N=C1C([H])([H])Oc1c([H])c([H])c2c(c1[H])C([H])([H])N(C(=O)C([H])(N([H])C(=O)C([H])(N([H])C([H])([H])[H])C([H])([H])[H])C(C([H])([H])[H])(C([H])([H])[H])C([H])([H])[H])C([H])(C(=O)N([H])C1([H])c3c([H])c([H])c([H])c([H])c3C([H])([H])C([H])([H])C1([H])[H])C2([H])[H]

>  <smiles>  (15) 
[H]C1=C([H])C([H])(C([H])([H])C([H])([H])N([H])C(=O)N2C([H])([H])C([H])([H])C([H])([H])C([H])(n3nc(-c4c([H])c([H])c(Oc5c([H])c([H])c(F)c([H])c5F)c([H])c4[H])c(C(=O)N([H])[H])c3N([H])[H])C2([H])[H])C([H])([H])N=C1C([H])([H])Oc1c([H])c([H])c2c(c1[H])C([H])([H])N(C(=O)C([H])(N([H])C(=O)C([H])(N([H])C([H])([H])[H])C([H])([H])[H])C(C([H])([H])[H])(C([H])([H])[H])C([H])([H])[H])C([H])(C(=O)N([H])C1([H])c3c([H])c([H])c([H])c([H])c3C([H])([H])C([H])([H])C1([H])[H])C2([H])[H]

$$$$
15:0:0
     RDKit          3D

 88 97  0  0  1  0  0  0  0  0999 V2000
  -29.5680  -20.7630   19.9770 C   0  0  0  0  0  3  0  0  0  0  0  0
  -28.7180  -21.9860   19.7280 C   0  0  0  0  0  0  0  0  0  0  0  0
  -26.6380  -19.4590   18.4230 C   0  0  0  0  0  2  0  0  0  0  0  0
  -26.6260  -21.0160   18.2630 C   0  0  0  0  0  2  0  0  0  0  0  0
  -29.0540  -19.0190   19.9270 C   0  0  0  0  0  3  0  0  0  0  0  0
  -28.0820  -19.6770   18.8640 C   0  0  0  0  0  3  0  0  0  0  0  0
  -27.5700  -21.0310   19.3780 N   0  0  1  0  0  4  0  0  0  0  0  0
  -27.0290  -20.8590   20.2110 H   0  0  0  0  0  0  0  0  0  0  0  0
  -30.3410  -15.9500   19.9940 C   0  0  0  0  0  0  0  0  0  0  0  0
  -30.5120  -13.3470   19.3340 C   0  0  0  0  0  2  0  0  0  0  0  0
  -29.6500  -12.7640   18.1790 C   0  0  0  0  0  2  0  0  0  0  0  0
  -28.2450  -12.3780   18.6650 C   0  0  0  0  0  2  0  0  0  0  0  0
  -27.6880  -13.4430   19.6400 C   0  0  0  0  0  3  0  0  0  0  0  0
  -28.7020  -13.9370   20.7000 C   0  0  0  0  0  2  0  0  0  0  0  0
  -29.8140  -14.5730   19.9490 N   0  0  0  0  0  0  0  0  0  0  0  0
  -31.5830  -15.8140   19.9780 O   0  0  0  0  0  0  0  0  0  0  0  0
  -29.7200  -17.3550   19.5730 N   0  0  0  0  0  0  0  0  0  0  0  0
  -30.2470  -17.5290   18.7270 H   0  0  0  0  0  0  0  0  0  0  0  0
  -25.3560  -13.9820   20.4710 C   0  0  0  0  0  0  0  0  0  0  0  0
  -24.2970  -13.2090   20.8430 C   0  0  0  0  0  0  0  0  0  0  0  0
  -24.7530  -11.8550   20.7880 C   0  0  0  0  0  0  0  0  0  0  0  0
  -26.3880  -13.1050   20.1980 N   0  0  0  0  0  0  0  0  0  0  0  0
  -26.0430  -11.8140   20.4570 N   0  0  0  0  0  0  0  0  0  0  0  0
  -24.0160  -10.5990   20.9730 C   0  0  0  0  0  0  0  0  0  0  0  0
  -24.4210   -9.6330   21.9190 C   0  0  0  0  0  3  0  0  0  0  0  0
  -23.6810   -8.4450   22.0940 C   0  0  0  0  0  3  0  0  0  0  0  0
  -22.5140   -8.2120   21.3260 C   0  0  0  0  0  0  0  0  0  0  0  0
  -22.1290   -9.1660   20.3680 C   0  0  0  0  0  3  0  0  0  0  0  0
  -22.8730  -10.3460   20.1910 C   0  0  0  0  0  3  0  0  0  0  0  0
  -21.7480   -7.0760   21.4100 O   0  0  0  0  0  0  0  0  0  0  0  0
  -21.6410   -6.3640   22.5790 C   0  0  0  0  0  0  0  0  0  0  0  0
  -21.0920   -6.9300   23.7490 C   0  0  0  0  0  3  0  0  0  0  0  0
  -20.9330   -6.1400   24.9050 C   0  0  0  0  0  3  0  0  0  0  0  0
  -21.3160   -4.7860   24.8910 C   0  0  0  0  0  0  0  0  0  0  0  0
  -21.8610   -4.2190   23.7250 C   0  0  0  0  0  3  0  0  0  0  0  0
  -22.0180   -5.0060   22.5700 C   0  0  0  0  0  0  0  0  0  0  0  0
  -22.5200   -4.4480   21.4420 F   0  0  0  0  0  0  0  0  0  0  0  0
  -21.1590   -4.0260   26.0000 F   0  0  0  0  0  0  0  0  0  0  0  0
  -22.9050  -13.6940   21.1250 C   0  0  0  0  0  0  0  0  0  0  0  0
  -22.1820  -13.0090   21.9980 N   0  0  0  0  0  0  0  0  0  0  0  0
  -22.4700  -14.7220   20.6030 O   0  0  0  0  0  0  0  0  0  0  0  0
  -22.5510  -12.1840   22.4500 H   0  0  0  0  0  0  0  0  0  0  0  0
  -21.2440  -13.3120   22.2230 H   0  0  0  0  0  0  0  0  0  0  0  0
  -25.5260  -15.3560   20.3040 N   0  0  0  0  0  0  0  0  0  0  0  0
  -24.7620  -16.0100   20.4250 H   0  0  0  0  0  0  0  0  0  0  0  0
  -26.3790  -15.7900   19.9780 H   0  0  0  0  0  0  0  0  0  0  0  0
  -28.5800  -23.8640   19.3510 C   0  0  0  0  0  2  0  0  0  0  0  0
  -28.4950  -25.5200   20.0550 O   0  0  0  0  0  0  0  0  0  0  0  0
  -24.6980  -31.6780   23.1140 C   0  0  0  0  0  0  0  0  0  0  0  0
  -27.5320  -26.7690   19.9780 C   0  0  0  0  0  0  0  0  0  0  0  0
  -23.6370  -30.3030   21.3730 C   0  0  0  0  0  3  0  0  0  0  0  0
  -25.2070  -28.7720   19.9420 C   0  0  0  0  0  0  0  0  0  0  0  0
  -26.2120  -30.5260   21.3730 C   0  0  0  0  0  2  0  0  0  0  0  0
  -26.3610  -29.1170   20.6550 C   0  0  0  0  0  0  0  0  0  0  0  0
  -27.4990  -28.1390   20.6550 C   0  0  0  0  0  3  0  0  0  0  0  0
  -26.3470  -26.6710   19.2050 C   0  0  0  0  0  3  0  0  0  0  0  0
  -25.2430  -27.5810   19.1990 C   0  0  0  0  0  3  0  0  0  0  0  0
  -23.9680  -29.6830   19.9830 C   0  0  0  0  0  2  0  0  0  0  0  0
  -24.8700  -30.8680   22.0100 N   0  0  0  0  0  0  0  0  0  0  0  0
  -23.5720  -31.9150   23.5870 O   0  0  0  0  0  0  0  0  0  0  0  0
  -22.9200  -29.2590   22.2730 C   0  0  0  0  0  0  0  0  0  0  0  0
  -21.5880  -29.1120   22.1420 N   0  0  0  0  0  0  0  0  0  0  0  0
  -23.5760  -28.5800   23.0670 O   0  0  0  0  0  0  0  0  0  0  0  0
  -21.1030  -29.7200   21.4960 H   0  0  0  0  0  0  0  0  0  0  0  0
  -18.1880  -27.9330   22.6610 C   0  0  0  0  0  0  0  0  0  0  0  0
  -20.7640  -28.1170   22.8430 C   0  0  0  0  0  3  0  0  0  0  0  0
  -20.8040  -26.7510   22.1180 C   0  0  0  0  0  2  0  0  0  0  0  0
  -19.6550  -26.5620   21.1210 C   0  0  0  0  0  2  0  0  0  0  0  0
  -18.3050  -26.6640   21.8340 C   0  0  0  0  0  2  0  0  0  0  0  0
  -19.3410  -28.6250   23.1210 C   0  0  0  0  0  0  0  0  0  0  0  0
  -19.1740  -29.8150   23.8610 C   0  0  0  0  0  3  0  0  0  0  0  0
  -17.8880  -30.3160   24.1410 C   0  0  0  0  0  3  0  0  0  0  0  0
  -16.7510  -29.6210   23.6950 C   0  0  0  0  0  3  0  0  0  0  0  0
  -16.9010  -28.4300   22.9610 C   0  0  0  0  0  3  0  0  0  0  0  0
  -25.9030  -32.3570   23.8330 C   0  0  0  0  0  3  0  0  0  0  0  0
  -25.5330  -33.7510   24.1510 N   0  0  0  0  0  0  0  0  0  0  0  0
  -25.9140  -34.8320   23.4540 C   0  0  0  0  0  0  0  0  0  0  0  0
  -26.6730  -34.7610   22.4860 O   0  0  0  0  0  0  0  0  0  0  0  0
  -24.8740  -33.8820   24.9040 H   0  0  0  0  0  0  0  0  0  0  0  0
  -24.2210  -36.6410   22.9830 C   0  0  0  0  0  1  0  0  0  0  0  0
  -25.3740  -36.2070   23.9030 C   0  0  0  0  0  3  0  0  0  0  0  0
  -27.3930  -37.0970   24.9860 C   0  0  0  0  0  1  0  0  0  0  0  0
  -26.4050  -37.2700   23.9250 N   0  0  0  0  0  0  0  0  0  0  0  0
  -25.9730  -38.1840   24.0420 H   0  0  0  0  0  0  0  0  0  0  0  0
  -26.3280  -31.6080   25.1560 C   0  0  1  0  0  0  0  0  0  0  0  0
  -25.1610  -31.3640   26.1420 C   0  0  0  0  0  1  0  0  0  0  0  0
  -26.9630  -30.2360   24.8370 C   0  0  0  0  0  1  0  0  0  0  0  0
  -27.4090  -32.4280   25.9020 C   0  0  0  0  0  1  0  0  0  0  0  0
  2  1  2  0
  4  3  1  0
  4  7  1  0
  5 17  1  0
  5  1  1  0
  6  3  1  0
  6  7  1  0
  6  5  1  0
  7  2  1  0
  7  8  1  1
 10 15  1  0
 11 12  1  0
 11 10  1  0
 13 12  1  0
 13 22  1  0
 13 14  1  0
 15  9  1  0
 15 14  1  0
 16  9  2  0
 17  9  1  0
 18 17  1  0
 19 20  2  0
 20 39  1  0
 21 20  1  0
 21 24  1  0
 22 23  1  0
 22 19  1  0
 23 21  2  0
 24 25  1  0
 25 26  2  0
 27 30  1  0
 27 26  1  0
 28 27  2  0
 29 28  1  0
 29 24  2  0
 30 31  1  0
 31 32  1  0
 32 33  2  0
 34 33  1  0
 34 38  1  0
 35 34  2  0
 36 31  2  0
 36 35  1  0
 37 36  1  0
 39 40  1  0
 40 43  1  0
 40 42  1  0
 41 39  2  0
 44 45  1  0
 44 19  1  0
 46 44  1  0
 47  2  1  0
 47 48  1  0
 49 60  2  0
 50 48  1  0
 50 55  1  0
 51 59  1  0
 51 61  1  0
 52 58  1  0
 52 54  1  0
 53 59  1  0
 54 55  2  0
 54 53  1  0
 56 50  2  0
 57 56  1  0
 57 52  2  0
 58 51  1  0
 59 49  1  0
 61 63  2  0
 62 61  1  0
 64 62  1  0
 65 74  2  0
 65 70  1  0
 66 62  1  0
 66 70  1  0
 67 66  1  0
 68 69  1  0
 68 67  1  0
 69 65  1  0
 70 71  2  0
 71 72  1  0
 73 72  2  0
 74 73  1  0
 75 49  1  0
 75 76  1  0
 75 85  1  0
 76 79  1  0
 77 81  1  0
 77 76  1  0
 78 77  2  0
 81 80  1  0
 81 83  1  0
 83 84  1  0
 83 82  1  0
 85 88  1  1
 85 86  1  0
 87 85  1  0
M  ISO  4   9 100  17 100  47 101  48 101
M  END
>  <TORSDO>  (16) 
F 17

>  <SCORE>  (16) 
-16.347

>  <name>  (16) 
15

>  <ligand_id>  (16) 
15

>  <original_smiles>  (16) 
[H]C1=C(C([H])([H])Oc2c([H])c([H])c3c(c2[H])C([H])([H])N(C(=O)C([H])(N([H])C(=O)C([H])(N([H])C([H])([H])[H])C([H])([H])[H])C(C([H])([H])[H])(C([H])([H])[H])C([H])([H])[H])C([H])(C(=O)N([H])C2([H])c4c([H])c([H])c([H])c([H])c4C([H])([H])C([H])([H])C2([H])[H])C3([H])[H])[N+]2([H])C([H])([H])C([H])([H])C2([H])C1([H])N([H])C(=O)N1C([H])([H])C([H])([H])C([H])([H])C([H])(n2nc(-c3c([H])c([H])c(Oc4c([H])c([H])c(F)c([H])c4F)c([H])c3[H])c(C(=O)N([H])[H])c2N([H])[H])C1([H])[H]

>  <smiles>  (16) 
[H]C1=C(C([H])([H])Oc2c([H])c([H])c3c(c2[H])C([H])([H])N(C(=O)C([H])(N([H])C(=O)C([H])(N([H])C([H])([H])[H])C([H])([H])[H])C(C([H])([H])[H])(C([H])([H])[H])C([H])([H])[H])C([H])(C(=O)N([H])C2([H])c4c([H])c([H])c([H])c([H])c4C([H])([H])C([H])([H])C2([H])[H])C3([H])[H])[N+]2([H])C([H])([H])C([H])([H])C2([H])C1([H])N([H])C(=O)N1C([H])([H])C([H])([H])C([H])([H])C([H])(n2nc(-c3c([H])c([H])c(Oc4c([H])c([H])c(F)c([H])c4F)c([H])c3[H])c(C(=O)N([H])[H])c2N([H])[H])C1([H])[H]

$$$$
16:0:0
     RDKit          3D

 88 96  0  0  1  0  0  0  0  0999 V2000
  -29.4230  -19.8930   20.5590 C   0  0  0  0  0  0  0  0  0  0  0  0
  -29.1680  -21.2530   20.0090 N   0  0  0  0  0  0  0  0  0  0  0  0
  -29.3020  -19.7920   21.7800 O   0  0  0  0  0  0  0  0  0  0  0  0
  -29.2470  -21.2500   19.0000 H   0  0  0  0  0  0  0  0  0  0  0  0
  -30.4150  -15.4330   20.1630 C   0  0  0  0  0  0  0  0  0  0  0  0
  -30.3810  -12.9570   19.3350 C   0  0  0  0  0  2  0  0  0  0  0  0
  -29.4540  -12.6850   18.1220 C   0  0  0  0  0  2  0  0  0  0  0  0
  -28.0180  -12.3790   18.5850 C   0  0  0  0  0  2  0  0  0  0  0  0
  -27.5460  -13.3600   19.6800 C   0  0  0  0  0  3  0  0  0  0  0  0
  -28.6090  -13.6080   20.7810 C   0  0  0  0  0  2  0  0  0  0  0  0
  -29.8280  -14.1220   20.1190 N   0  0  0  0  0  0  0  0  0  0  0  0
  -31.6520  -15.3850   20.0740 O   0  0  0  0  0  0  0  0  0  0  0  0
  -28.0350  -17.8380   18.5500 C   0  0  0  0  0  2  0  0  0  0  0  0
  -29.3650  -18.5320   18.3570 C   0  0  0  0  0  2  0  0  0  0  0  0
  -28.4540  -16.5410   19.2380 C   0  0  0  0  0  2  0  0  0  0  0  0
  -29.9170  -18.3960   19.7730 C   0  0  0  0  0  3  0  0  0  0  0  0
  -29.6720  -16.7420   20.0380 N   0  0  0  0  0  0  0  0  0  0  0  0
  -25.1840  -13.9500   20.4480 C   0  0  0  0  0  0  0  0  0  0  0  0
  -24.1200  -13.1830   20.8220 C   0  0  0  0  0  0  0  0  0  0  0  0
  -24.5860  -11.8320   20.8000 C   0  0  0  0  0  0  0  0  0  0  0  0
  -26.2250  -13.0670   20.2100 N   0  0  0  0  0  0  0  0  0  0  0  0
  -25.8760  -11.7870   20.4900 N   0  0  0  0  0  0  0  0  0  0  0  0
  -23.8570  -10.5760   20.9930 C   0  0  0  0  0  0  0  0  0  0  0  0
  -24.2810   -9.6170   21.9370 C   0  0  0  0  0  3  0  0  0  0  0  0
  -23.5510   -8.4240   22.1190 C   0  0  0  0  0  3  0  0  0  0  0  0
  -22.3830   -8.1850   21.3580 C   0  0  0  0  0  0  0  0  0  0  0  0
  -21.9780   -9.1340   20.4020 C   0  0  0  0  0  3  0  0  0  0  0  0
  -22.7090  -10.3180   20.2180 C   0  0  0  0  0  3  0  0  0  0  0  0
  -21.6240   -7.0450   21.4510 O   0  0  0  0  0  0  0  0  0  0  0  0
  -21.5610   -6.3170   22.6110 C   0  0  0  0  0  0  0  0  0  0  0  0
  -21.1110   -6.8840   23.8230 C   0  0  0  0  0  3  0  0  0  0  0  0
  -20.9960   -6.0810   24.9760 C   0  0  0  0  0  3  0  0  0  0  0  0
  -21.3220   -4.7130   24.9170 C   0  0  0  0  0  0  0  0  0  0  0  0
  -21.7660   -4.1450   23.7100 C   0  0  0  0  0  3  0  0  0  0  0  0
  -21.8830   -4.9460   22.5600 C   0  0  0  0  0  0  0  0  0  0  0  0
  -22.2910   -4.3900   21.3930 F   0  0  0  0  0  0  0  0  0  0  0  0
  -21.2030   -3.9400   26.0220 F   0  0  0  0  0  0  0  0  0  0  0  0
  -22.7250  -13.6690   21.0800 C   0  0  0  0  0  0  0  0  0  0  0  0
  -21.9880  -12.9840   21.9460 N   0  0  0  0  0  0  0  0  0  0  0  0
  -22.2970  -14.6950   20.5510 O   0  0  0  0  0  0  0  0  0  0  0  0
  -22.3470  -12.1560   22.3990 H   0  0  0  0  0  0  0  0  0  0  0  0
  -21.0520  -13.2930   22.1640 H   0  0  0  0  0  0  0  0  0  0  0  0
  -25.3270  -15.3200   20.2600 N   0  0  0  0  0  0  0  0  0  0  0  0
  -24.5480  -15.9590   20.3720 H   0  0  0  0  0  0  0  0  0  0  0  0
  -26.1610  -15.7720   19.9150 H   0  0  0  0  0  0  0  0  0  0  0  0
  -28.9490  -22.8160   20.5850 C   0  0  0  0  0  3  0  0  0  0  0  0
  -28.1640  -24.3180   19.9460 C   0  0  0  0  0  3  0  0  0  0  0  0
  -28.2370  -25.9320   20.3130 O   0  0  0  0  0  0  0  0  0  0  0  0
  -24.6210  -31.8740   23.2320 C   0  0  0  0  0  0  0  0  0  0  0  0
  -27.2060  -27.0090   20.2120 C   0  0  0  0  0  0  0  0  0  0  0  0
  -23.4310  -30.4730   21.5930 C   0  0  0  0  0  3  0  0  0  0  0  0
  -24.8870  -28.8720   20.1670 C   0  0  0  0  0  0  0  0  0  0  0  0
  -25.9950  -30.6950   21.4450 C   0  0  0  0  0  2  0  0  0  0  0  0
  -26.0720  -29.2850   20.7890 C   0  0  0  0  0  0  0  0  0  0  0  0
  -27.2210  -28.3740   20.7880 C   0  0  0  0  0  3  0  0  0  0  0  0
  -25.9910  -26.7480   19.5370 C   0  0  0  0  0  3  0  0  0  0  0  0
  -24.8720  -27.6250   19.5210 C   0  0  0  0  0  3  0  0  0  0  0  0
  -23.6620  -29.7870   20.2180 C   0  0  0  0  0  2  0  0  0  0  0  0
  -24.7040  -31.0420   22.1440 N   0  0  0  0  0  0  0  0  0  0  0  0
  -23.5310  -32.1620   23.7540 O   0  0  0  0  0  0  0  0  0  0  0  0
  -22.7390  -29.4780   22.5610 C   0  0  0  0  0  0  0  0  0  0  0  0
  -21.4100  -29.3100   22.4360 N   0  0  0  0  0  0  0  0  0  0  0  0
  -23.4060  -28.8580   23.3930 O   0  0  0  0  0  0  0  0  0  0  0  0
  -20.9240  -29.8610   21.7420 H   0  0  0  0  0  0  0  0  0  0  0  0
  -18.0330  -28.0780   22.9370 C   0  0  0  0  0  0  0  0  0  0  0  0
  -20.5900  -28.3690   23.2090 C   0  0  0  0  0  3  0  0  0  0  0  0
  -20.7060  -26.9350   22.6420 C   0  0  0  0  0  2  0  0  0  0  0  0
  -19.6110  -26.5980   21.6250 C   0  0  0  0  0  2  0  0  0  0  0  0
  -18.2250  -26.7300   22.2630 C   0  0  0  0  0  2  0  0  0  0  0  0
  -19.1430  -28.8540   23.3660 C   0  0  0  0  0  0  0  0  0  0  0  0
  -18.9060  -30.1130   23.9610 C   0  0  0  0  0  3  0  0  0  0  0  0
  -17.5960  -30.5980   24.1260 C   0  0  0  0  0  3  0  0  0  0  0  0
  -16.5010  -29.8200   23.7100 C   0  0  0  0  0  3  0  0  0  0  0  0
  -16.7200  -28.5620   23.1220 C   0  0  0  0  0  3  0  0  0  0  0  0
  -25.8910  -32.5210   23.8640 C   0  0  0  0  0  3  0  0  0  0  0  0
  -25.5720  -33.9230   24.1920 N   0  0  0  0  0  0  0  0  0  0  0  0
  -25.9020  -34.9820   23.4410 C   0  0  0  0  0  0  0  0  0  0  0  0
  -26.5700  -34.8820   22.4090 O   0  0  0  0  0  0  0  0  0  0  0  0
  -24.9750  -34.0730   24.9920 H   0  0  0  0  0  0  0  0  0  0  0  0
  -24.1720  -36.7820   23.1060 C   0  0  0  0  0  1  0  0  0  0  0  0
  -25.4200  -36.3720   23.9060 C   0  0  0  0  0  3  0  0  0  0  0  0
  -27.5570  -37.2610   24.7260 C   0  0  0  0  0  1  0  0  0  0  0  0
  -26.4510  -37.4260   23.7870 N   0  0  0  0  0  0  0  0  0  0  0  0
  -26.0450  -38.3460   23.9330 H   0  0  0  0  0  0  0  0  0  0  0  0
  -26.3920  -31.7650   25.1570 C   0  0  1  0  0  0  0  0  0  0  0  0
  -25.2880  -31.5430   26.2180 C   0  0  0  0  0  1  0  0  0  0  0  0
  -26.9760  -30.3800   24.7950 C   0  0  0  0  0  1  0  0  0  0  0  0
  -27.5390  -32.5640   25.8200 C   0  0  0  0  0  1  0  0  0  0  0  0
  1  3  2  0
  2  1  1  0
  2 46  1  0
  4  2  1  0
  6 11  1  0
  7  8  1  0
  7  6  1  0
  9  8  1  0
  9 21  1  0
  9 10  1  0
 11  5  1  0
 11 10  1  0
 12  5  2  0
 13 15  1  0
 14 13  1  0
 14 16  1  0
 15 17  1  0
 16 17  1  0
 16  1  1  0
 17  5  1  0
 18 19  2  0
 19 38  1  0
 20 19  1  0
 20 23  1  0
 21 18  1  0
 21 22  1  0
 22 20  2  0
 23 24  1  0
 24 25  2  0
 26 29  1  0
 26 25  1  0
 27 26  2  0
 28 27  1  0
 28 23  2  0
 29 30  1  0
 30 31  1  0
 31 32  2  0
 33 32  1  0
 33 37  1  0
 34 33  2  0
 35 30  2  0
 35 34  1  0
 36 35  1  0
 38 39  1  0
 39 42  1  0
 39 41  1  0
 40 38  2  0
 43 44  1  0
 43 18  1  0
 45 43  1  0
 47 48  1  0
 47 46  2  0
 49 60  2  0
 50 48  1  0
 50 55  1  0
 51 59  1  0
 51 61  1  0
 52 58  1  0
 52 54  1  0
 53 59  1  0
 54 53  1  0
 55 54  2  0
 56 50  2  0
 57 56  1  0
 57 52  2  0
 58 51  1  0
 59 49  1  0
 61 63  2  0
 62 61  1  0
 64 62  1  0
 65 74  2  0
 65 70  1  0
 66 62  1  0
 66 70  1  0
 67 66  1  0
 68 69  1  0
 68 67  1  0
 69 65  1  0
 70 71  2  0
 71 72  1  0
 73 72  2  0
 74 73  1  0
 75 49  1  0
 75 76  1  0
 75 85  1  0
 76 79  1  0
 77 81  1  0
 77 76  1  0
 78 77  2  0
 81 80  1  0
 83 81  1  0
 83 84  1  0
 83 82  1  0
 85 88  1  1
 85 86  1  0
 87 85  1  0
M  ISO  4   5 100  17 100  47 101  48 101
M  END
>  <TORSDO>  (17) 
F 18

>  <SCORE>  (17) 
-16.300

>  <name>  (17) 
16

>  <ligand_id>  (17) 
16

>  <original_smiles>  (17) 
[H]c1c([H])c([H])c2c(c1[H])C([H])([H])C([H])([H])C([H])([H])C2([H])N([H])C(=O)C1([H])N(C(=O)C([H])(N([H])C(=O)C([H])(N([H])C([H])([H])[H])C([H])([H])[H])C(C([H])([H])[H])(C([H])([H])[H])C([H])([H])[H])C([H])([H])c2c([H])c(OC([H])([H])C([H])([H])N([H])C(=O)C3([H])N(C(=O)N4C([H])([H])C([H])([H])C([H])([H])C([H])(n5nc(-c6c([H])c([H])c(Oc7c([H])c([H])c(F)c([H])c7F)c([H])c6[H])c(C(=O)N([H])[H])c5N([H])[H])C4([H])[H])C([H])([H])C([H])([H])C3([H])[H])c([H])c([H])c2C1([H])[H]

>  <smiles>  (17) 
[H]c1c([H])c([H])c2c(c1[H])C([H])([H])C([H])([H])C([H])([H])C2([H])N([H])C(=O)C1([H])N(C(=O)C([H])(N([H])C(=O)C([H])(N([H])C([H])([H])[H])C([H])([H])[H])C(C([H])([H])[H])(C([H])([H])[H])C([H])([H])[H])C([H])([H])c2c([H])c(OC([H])([H])C([H])([H])N([H])C(=O)C3([H])N(C(=O)N4C([H])([H])C([H])([H])C([H])([H])C([H])(n5nc(-c6c([H])c([H])c(Oc7c([H])c([H])c(F)c([H])c7F)c([H])c6[H])c(C(=O)N([H])[H])c5N([H])[H])C4([H])[H])C([H])([H])C([H])([H])C3([H])[H])c([H])c([H])c2C1([H])[H]

$$$$
17:0:0
     RDKit          3D

 93102  0  0  1  0  0  0  0  0999 V2000
  -28.0390  -20.6560   20.4430 C   0  0  0  0  0  3  0  0  0  0  0  0
  -29.0640  -20.4240   19.5970 C   0  0  0  0  0  0  0  0  0  0  0  0
  -28.0360  -23.1700   19.9100 C   0  0  0  0  0  0  0  0  0  0  0  0
  -27.9690  -24.4610   20.2920 C   0  0  0  0  0  3  0  0  0  0  0  0
  -27.4290  -22.0320   20.7340 C   0  0  0  0  0  2  0  0  0  0  0  0
  -29.7430  -21.6270   18.9510 C   0  0  0  0  0  2  0  0  0  0  0  0
  -28.7320  -22.7280   18.6360 C   0  0  0  0  0  2  0  0  0  0  0  0
  -30.6130  -17.5000   17.7700 C   0  0  0  0  0  3  0  0  0  0  0  0
  -30.0590  -18.7540   18.0560 C   0  0  0  0  0  3  0  0  0  0  0  0
  -30.6880  -16.5260   18.7750 C   0  0  0  0  0  3  0  0  0  0  0  0
  -29.6270  -18.0520   20.3570 C   0  0  0  0  0  3  0  0  0  0  0  0
  -29.5970  -19.0600   19.3550 C   0  0  0  0  0  0  0  0  0  0  0  0
  -30.1820  -16.7770   20.0750 C   0  0  0  0  0  0  0  0  0  0  0  0
  -30.9590  -14.6510   21.0030 C   0  0  0  0  0  0  0  0  0  0  0  0
  -30.7560  -12.4460   19.9640 C   0  0  0  0  0  2  0  0  0  0  0  0
  -29.9380  -12.6060   18.6640 C   0  0  0  0  0  2  0  0  0  0  0  0
  -28.4280  -12.5100   18.9510 C   0  0  0  0  0  2  0  0  0  0  0  0
  -27.9770  -13.3940   20.1460 C   0  0  0  0  0  3  0  0  0  0  0  0
  -28.9180  -13.2210   21.3600 C   0  0  0  0  0  2  0  0  0  0  0  0
  -30.2950  -13.4710   20.9110 N   0  0  0  0  0  0  0  0  0  0  0  0
  -32.1640  -14.7740   20.7690 O   0  0  0  0  0  0  0  0  0  0  0  0
  -30.1710  -15.7410   21.0640 N   0  0  0  0  0  0  0  0  0  0  0  0
  -29.2900  -15.6100   21.5370 H   0  0  0  0  0  0  0  0  0  0  0  0
  -25.5230  -14.0240   20.5960 C   0  0  0  0  0  0  0  0  0  0  0  0
  -24.4220  -13.2620   20.8830 C   0  0  0  0  0  0  0  0  0  0  0  0
  -24.8820  -11.9110   20.9460 C   0  0  0  0  0  0  0  0  0  0  0  0
  -26.5840  -13.1370   20.5000 N   0  0  0  0  0  0  0  0  0  0  0  0
  -26.1950  -11.8640   20.7710 N   0  0  0  0  0  0  0  0  0  0  0  0
  -24.1390  -10.6540   21.1060 C   0  0  0  0  0  0  0  0  0  0  0  0
  -24.4920   -9.7090   22.0940 C   0  0  0  0  0  3  0  0  0  0  0  0
  -23.7530   -8.5150   22.2400 C   0  0  0  0  0  3  0  0  0  0  0  0
  -22.6470   -8.2590   21.3960 C   0  0  0  0  0  0  0  0  0  0  0  0
  -22.3140   -9.1910   20.3980 C   0  0  0  0  0  3  0  0  0  0  0  0
  -23.0540  -10.3760   20.2500 C   0  0  0  0  0  3  0  0  0  0  0  0
  -21.8860   -7.1150   21.4480 O   0  0  0  0  0  0  0  0  0  0  0  0
  -21.7470   -6.3950   22.6070 C   0  0  0  0  0  0  0  0  0  0  0  0
  -21.2270   -6.9740   23.7850 C   0  0  0  0  0  3  0  0  0  0  0  0
  -21.0370   -6.1810   24.9350 C   0  0  0  0  0  3  0  0  0  0  0  0
  -21.3560   -4.8100   24.9040 C   0  0  0  0  0  0  0  0  0  0  0  0
  -21.8670   -4.2300   23.7310 C   0  0  0  0  0  3  0  0  0  0  0  0
  -22.0600   -5.0210   22.5840 C   0  0  0  0  0  0  0  0  0  0  0  0
  -22.5340   -4.4540   21.4480 F   0  0  0  0  0  0  0  0  0  0  0  0
  -21.1650   -4.0450   26.0040 F   0  0  0  0  0  0  0  0  0  0  0  0
  -23.0050  -13.7440   20.9980 C   0  0  0  0  0  0  0  0  0  0  0  0
  -22.1970  -13.0830   21.8190 N   0  0  0  0  0  0  0  0  0  0  0  0
  -22.6190  -14.7450   20.3950 O   0  0  0  0  0  0  0  0  0  0  0  0
  -22.5190  -12.2730   22.3280 H   0  0  0  0  0  0  0  0  0  0  0  0
  -21.2430  -13.3900   21.9390 H   0  0  0  0  0  0  0  0  0  0  0  0
  -25.7080  -15.3870   20.3900 N   0  0  0  0  0  0  0  0  0  0  0  0
  -24.9370  -16.0470   20.4000 H   0  0  0  0  0  0  0  0  0  0  0  0
  -26.5870  -15.8150   20.1290 H   0  0  0  0  0  0  0  0  0  0  0  0
  -28.5620  -25.6320   19.5180 C   0  0  0  0  0  2  0  0  0  0  0  0
  -28.4200  -26.8780   20.1930 O   0  0  0  0  0  0  0  0  0  0  0  0
  -24.5610  -31.9660   23.2550 C   0  0  0  0  0  0  0  0  0  0  0  0
  -27.2110  -27.5420   20.1720 C   0  0  0  0  0  0  0  0  0  0  0  0
  -23.3520  -30.5620   21.6150 C   0  0  0  0  0  3  0  0  0  0  0  0
  -24.8040  -29.0260   20.1910 C   0  0  0  0  0  0  0  0  0  0  0  0
  -25.8730  -30.9310   21.4100 C   0  0  0  0  0  2  0  0  0  0  0  0
  -25.9600  -29.5600   20.7750 C   0  0  0  0  0  0  0  0  0  0  0  0
  -27.1600  -28.8210   20.7660 C   0  0  0  0  0  3  0  0  0  0  0  0
  -26.0340  -27.0140   19.5910 C   0  0  0  0  0  3  0  0  0  0  0  0
  -24.8340  -27.7510   19.6010 C   0  0  0  0  0  3  0  0  0  0  0  0
  -23.5580  -29.8810   20.2360 C   0  0  0  0  0  2  0  0  0  0  0  0
  -24.6140  -31.1670   22.1530 N   0  0  0  0  0  0  0  0  0  0  0  0
  -23.4810  -32.2370   23.7980 O   0  0  0  0  0  0  0  0  0  0  0  0
  -22.7070  -29.5390   22.5770 C   0  0  0  0  0  0  0  0  0  0  0  0
  -21.3830  -29.3550   22.4530 N   0  0  0  0  0  0  0  0  0  0  0  0
  -23.3930  -28.9150   23.3910 O   0  0  0  0  0  0  0  0  0  0  0  0
  -20.8910  -29.9100   21.7660 H   0  0  0  0  0  0  0  0  0  0  0  0
  -18.0110  -28.1640   22.9590 C   0  0  0  0  0  0  0  0  0  0  0  0
  -20.5690  -28.4170   23.2250 C   0  0  0  0  0  3  0  0  0  0  0  0
  -20.6680  -26.9870   22.6460 C   0  0  0  0  0  2  0  0  0  0  0  0
  -19.5630  -26.6680   21.6340 C   0  0  0  0  0  2  0  0  0  0  0  0
  -18.1830  -26.8140   22.2820 C   0  0  0  0  0  2  0  0  0  0  0  0
  -19.1320  -28.9230   23.3870 C   0  0  0  0  0  0  0  0  0  0  0  0
  -18.9160  -30.1870   23.9790 C   0  0  0  0  0  3  0  0  0  0  0  0
  -17.6140  -30.6920   24.1460 C   0  0  0  0  0  3  0  0  0  0  0  0
  -16.5070  -29.9290   23.7340 C   0  0  0  0  0  3  0  0  0  0  0  0
  -16.7060  -28.6670   23.1470 C   0  0  0  0  0  3  0  0  0  0  0  0
  -25.8480  -32.6000   23.8700 C   0  0  0  0  0  3  0  0  0  0  0  0
  -25.5440  -34.0010   24.1880 N   0  0  0  0  0  0  0  0  0  0  0  0
  -25.8930  -35.0460   23.4250 C   0  0  0  0  0  0  0  0  0  0  0  0
  -26.5770  -34.9310   22.4040 O   0  0  0  0  0  0  0  0  0  0  0  0
  -24.9400  -34.1650   24.9800 H   0  0  0  0  0  0  0  0  0  0  0  0
  -24.1880  -36.8480   23.0230 C   0  0  0  0  0  1  0  0  0  0  0  0
  -25.4070  -36.4390   23.8660 C   0  0  0  0  0  3  0  0  0  0  0  0
  -27.5280  -37.3080   24.7420 C   0  0  0  0  0  1  0  0  0  0  0  0
  -26.4500  -37.4830   23.7720 N   0  0  0  0  0  0  0  0  0  0  0  0
  -26.0480  -38.4060   23.9080 H   0  0  0  0  0  0  0  0  0  0  0  0
  -26.3660  -31.8360   25.1510 C   0  0  1  0  0  0  0  0  0  0  0  0
  -25.2730  -31.6040   26.2200 C   0  0  0  0  0  1  0  0  0  0  0  0
  -26.9490  -30.4560   24.7640 C   0  0  0  0  0  1  0  0  0  0  0  0
  -27.5170  -32.6340   25.8090 C   0  0  0  0  0  1  0  0  0  0  0  0
  1  5  1  0
  2  1  2  0
  3  4  2  0
  3  5  1  0
  6  2  1  0
  7  6  1  0
  7  3  1  0
  8  9  2  0
  8 10  1  0
  9 12  1  0
 10 13  2  0
 12  2  1  0
 12 11  2  0
 13 11  1  0
 13 22  1  0
 14 22  1  0
 15 20  1  0
 16 17  1  0
 16 15  1  0
 18 17  1  0
 18 27  1  0
 18 19  1  0
 20 14  1  0
 20 19  1  0
 21 14  2  0
 22 23  1  0
 24 25  2  0
 25 26  1  0
 25 44  1  0
 26 29  1  0
 27 24  1  0
 27 28  1  0
 28 26  2  0
 29 30  1  0
 30 31  2  0
 32 35  1  0
 32 31  1  0
 33 32  2  0
 34 33  1  0
 34 29  2  0
 35 36  1  0
 36 37  1  0
 37 38  2  0
 39 38  1  0
 39 43  1  0
 40 39  2  0
 41 36  2  0
 41 40  1  0
 42 41  1  0
 44 45  1  0
 45 48  1  0
 45 47  1  0
 46 44  2  0
 49 50  1  0
 49 24  1  0
 51 49  1  0
 52 53  1  0
 52  4  1  0
 54 65  2  0
 55 53  1  0
 55 60  1  0
 56 64  1  0
 56 66  1  0
 57 63  1  0
 57 59  1  0
 58 64  1  0
 59 58  1  0
 60 59  2  0
 61 62  1  0
 61 55  2  0
 62 57  2  0
 63 56  1  0
 64 54  1  0
 66 68  2  0
 67 66  1  0
 69 67  1  0
 70 79  2  0
 70 75  1  0
 71 67  1  0
 71 75  1  0
 72 71  1  0
 73 74  1  0
 73 72  1  0
 74 70  1  0
 75 76  2  0
 76 77  1  0
 78 77  2  0
 79 78  1  0
 80 54  1  0
 80 81  1  0
 80 90  1  0
 81 84  1  0
 82 86  1  0
 82 81  1  0
 83 82  2  0
 86 85  1  0
 88 86  1  0
 88 89  1  0
 88 87  1  0
 90 93  1  1
 90 91  1  0
 92 90  1  0
M  ISO  4  14 100  22 100  52 101  53 101
M  END
>  <TORSDO>  (18) 
F 18

>  <SCORE>  (18) 
-14.231

>  <name>  (18) 
17

>  <ligand_id>  (18) 
17

>  <original_smiles>  (18) 
[H]C(=C1C([H])([H])C([H])=C(c2c([H])c([H])c([H])c(N([H])C(=O)N3C([H])([H])C([H])([H])C([H])([H])C([H])(n4nc(-c5c([H])c([H])c(Oc6c([H])c([H])c(F)c([H])c6F)c([H])c5[H])c(C(=O)N([H])[H])c4N([H])[H])C3([H])[H])c2[H])C([H])([H])C1([H])[H])C([H])([H])Oc1c([H])c([H])c2c(c1[H])C([H])([H])N(C(=O)C([H])(N([H])C(=O)C([H])(N([H])C([H])([H])[H])C([H])([H])[H])C(C([H])([H])[H])(C([H])([H])[H])C([H])([H])[H])C([H])(C(=O)N([H])C1([H])c3c([H])c([H])c([H])c([H])c3C([H])([H])C([H])([H])C1([H])[H])C2([H])[H]

>  <smiles>  (18) 
[H]C(=C1C([H])([H])C([H])=C(c2c([H])c([H])c([H])c(N([H])C(=O)N3C([H])([H])C([H])([H])C([H])([H])C([H])(n4nc(-c5c([H])c([H])c(Oc6c([H])c([H])c(F)c([H])c6F)c([H])c5[H])c(C(=O)N([H])[H])c4N([H])[H])C3([H])[H])c2[H])C([H])([H])C1([H])[H])C([H])([H])Oc1c([H])c([H])c2c(c1[H])C([H])([H])N(C(=O)C([H])(N([H])C(=O)C([H])(N([H])C([H])([H])[H])C([H])([H])[H])C(C([H])([H])[H])(C([H])([H])[H])C([H])([H])[H])C([H])(C(=O)N([H])C1([H])c3c([H])c([H])c([H])c([H])c3C([H])([H])C([H])([H])C1([H])[H])C2([H])[H]

$$$$
18:0:0
     RDKit          3D

 92101  0  0  1  0  0  0  0  0999 V2000
  -30.0370  -17.5840   18.7780 C   0  0  0  0  0  2  0  0  0  0  0  0
  -27.8770  -18.6190   19.5220 C   0  0  0  0  0  2  0  0  0  0  0  0
  -29.5220  -18.0040   21.3160 C   0  0  0  0  0  2  0  0  0  0  0  0
  -29.6550  -20.1610   19.0180 C   0  0  0  0  0  2  0  0  0  0  0  0
  -29.0690  -18.7860   18.5920 C   0  0  0  0  0  3  0  0  0  0  0  0
  -30.3150  -17.1390   20.2520 C   0  0  0  0  0  3  0  0  0  0  0  0
  -28.5300  -19.1180   20.8050 C   0  0  0  0  0  3  0  0  0  0  0  0
  -29.1850  -20.4120   20.4050 N   0  0  2  0  0  4  0  0  0  0  0  0
  -29.9760  -20.5560   21.0130 H   0  0  0  0  0  0  0  0  0  0  0  0
  -30.8800  -14.6190   20.0000 C   0  0  0  0  0  0  0  0  0  0  0  0
  -30.6000  -12.4000   18.9290 C   0  0  0  0  0  2  0  0  0  0  0  0
  -29.5840  -12.5350   17.7760 C   0  0  0  0  0  2  0  0  0  0  0  0
  -28.1370  -12.3910   18.2950 C   0  0  0  0  0  2  0  0  0  0  0  0
  -27.8620  -13.2540   19.5570 C   0  0  0  0  0  3  0  0  0  0  0  0
  -28.9800  -13.0750   20.6060 C   0  0  0  0  0  2  0  0  0  0  0  0
  -30.2570  -13.4030   19.9540 N   0  0  0  0  0  0  0  0  0  0  0  0
  -32.0010  -14.7970   19.5160 O   0  0  0  0  0  0  0  0  0  0  0  0
  -30.1060  -15.6620   20.4200 N   0  0  0  0  0  0  0  0  0  0  0  0
  -29.2130  -15.3840   20.7960 H   0  0  0  0  0  0  0  0  0  0  0  0
  -25.5320  -13.8740   20.4540 C   0  0  0  0  0  0  0  0  0  0  0  0
  -24.4780  -13.1070   20.8730 C   0  0  0  0  0  0  0  0  0  0  0  0
  -24.9120  -11.7510   20.7640 C   0  0  0  0  0  0  0  0  0  0  0  0
  -26.5420  -12.9850   20.1210 N   0  0  0  0  0  0  0  0  0  0  0  0
  -26.1770  -11.6990   20.3650 N   0  0  0  0  0  0  0  0  0  0  0  0
  -24.1760  -10.4950   20.9650 C   0  0  0  0  0  0  0  0  0  0  0  0
  -24.6180   -9.5190   21.8840 C   0  0  0  0  0  3  0  0  0  0  0  0
  -23.8840   -8.3280   22.0740 C   0  0  0  0  0  3  0  0  0  0  0  0
  -22.6940   -8.1050   21.3420 C   0  0  0  0  0  0  0  0  0  0  0  0
  -22.2700   -9.0690   20.4100 C   0  0  0  0  0  3  0  0  0  0  0  0
  -23.0050  -10.2510   20.2200 C   0  0  0  0  0  3  0  0  0  0  0  0
  -21.9310   -6.9670   21.4390 O   0  0  0  0  0  0  0  0  0  0  0  0
  -21.8410   -6.2580   22.6100 C   0  0  0  0  0  0  0  0  0  0  0  0
  -21.3000   -6.8260   23.7840 C   0  0  0  0  0  3  0  0  0  0  0  0
  -21.1670   -6.0420   24.9460 C   0  0  0  0  0  3  0  0  0  0  0  0
  -21.5610   -4.6900   24.9350 C   0  0  0  0  0  0  0  0  0  0  0  0
  -22.0900   -4.1200   23.7640 C   0  0  0  0  0  3  0  0  0  0  0  0
  -22.2280   -4.9030   22.6030 C   0  0  0  0  0  0  0  0  0  0  0  0
  -22.7230   -4.3450   21.4710 F   0  0  0  0  0  0  0  0  0  0  0  0
  -21.4220   -3.9340   26.0490 F   0  0  0  0  0  0  0  0  0  0  0  0
  -23.1130  -13.5990   21.2570 C   0  0  0  0  0  0  0  0  0  0  0  0
  -22.4300  -12.8840   22.1440 N   0  0  0  0  0  0  0  0  0  0  0  0
  -22.6630  -14.6510   20.8060 O   0  0  0  0  0  0  0  0  0  0  0  0
  -22.8090  -12.0330   22.5350 H   0  0  0  0  0  0  0  0  0  0  0  0
  -21.5140  -13.1950   22.4380 H   0  0  0  0  0  0  0  0  0  0  0  0
  -25.7070  -15.2460   20.3050 N   0  0  0  0  0  0  0  0  0  0  0  0
  -24.9480  -15.9020   20.4520 H   0  0  0  0  0  0  0  0  0  0  0  0
  -26.5260  -15.6700   19.8910 H   0  0  0  0  0  0  0  0  0  0  0  0
  -28.2850  -21.6250   20.5440 C   0  0  0  0  0  2  0  0  0  0  0  0
  -28.9420  -23.0160   20.7530 C   0  0  0  0  0  3  0  0  0  0  0  0
  -28.2980  -24.2180   20.6450 C   0  0  0  0  0  3  0  0  0  0  0  0
  -28.8630  -25.6130   21.0170 C   0  0  0  0  0  2  0  0  0  0  0  0
  -28.7290  -26.6710   20.0330 O   0  0  0  0  0  0  0  0  0  0  0  0
  -24.5600  -31.6500   23.1120 C   0  0  0  0  0  0  0  0  0  0  0  0
  -27.5550  -27.4050   20.0410 C   0  0  0  0  0  0  0  0  0  0  0  0
  -23.5170  -30.2780   21.3390 C   0  0  0  0  0  3  0  0  0  0  0  0
  -25.1180  -28.8560   19.9500 C   0  0  0  0  0  0  0  0  0  0  0  0
  -26.0360  -30.7310   21.3180 C   0  0  0  0  0  2  0  0  0  0  0  0
  -26.2190  -29.3870   20.6350 C   0  0  0  0  0  0  0  0  0  0  0  0
  -27.4430  -28.6710   20.6760 C   0  0  0  0  0  3  0  0  0  0  0  0
  -26.4400  -26.9020   19.3400 C   0  0  0  0  0  3  0  0  0  0  0  0
  -25.2260  -27.6140   19.2950 C   0  0  0  0  0  3  0  0  0  0  0  0
  -23.8420  -29.6680   19.9510 C   0  0  0  0  0  2  0  0  0  0  0  0
  -24.7180  -30.9010   21.9840 N   0  0  0  0  0  0  0  0  0  0  0  0
  -23.4370  -31.8580   23.5950 O   0  0  0  0  0  0  0  0  0  0  0  0
  -22.8490  -29.1920   22.2140 C   0  0  0  0  0  0  0  0  0  0  0  0
  -21.5230  -29.0330   22.0680 N   0  0  0  0  0  0  0  0  0  0  0  0
  -23.5210  -28.5000   22.9820 O   0  0  0  0  0  0  0  0  0  0  0  0
  -21.0410  -29.6420   21.4230 H   0  0  0  0  0  0  0  0  0  0  0  0
  -18.1190  -27.9280   22.5730 C   0  0  0  0  0  0  0  0  0  0  0  0
  -20.6950  -28.0440   22.7580 C   0  0  0  0  0  3  0  0  0  0  0  0
  -20.7070  -26.6880   22.0140 C   0  0  0  0  0  2  0  0  0  0  0  0
  -19.5530  -26.5370   21.0190 C   0  0  0  0  0  2  0  0  0  0  0  0
  -18.2060  -26.6630   21.7360 C   0  0  0  0  0  2  0  0  0  0  0  0
  -19.2880  -28.5840   23.0390 C   0  0  0  0  0  0  0  0  0  0  0  0
  -19.1540  -29.7750   23.7860 C   0  0  0  0  0  3  0  0  0  0  0  0
  -17.8830  -30.3080   24.0700 C   0  0  0  0  0  3  0  0  0  0  0  0
  -16.7280  -29.6450   23.6190 C   0  0  0  0  0  3  0  0  0  0  0  0
  -16.8470  -28.4570   22.8770 C   0  0  0  0  0  3  0  0  0  0  0  0
  -25.7790  -32.3040   23.8360 C   0  0  0  0  0  3  0  0  0  0  0  0
  -26.2070  -31.5390   25.1480 C   0  0  1  0  0  0  0  0  0  0  0  0
  -25.0370  -31.2780   26.1240 C   0  0  0  0  0  1  0  0  0  0  0  0
  -26.8460  -30.1730   24.8030 C   0  0  0  0  0  1  0  0  0  0  0  0
  -27.2850  -32.3540   25.9030 C   0  0  0  0  0  1  0  0  0  0  0  0
  -25.4200  -33.6960   24.1400 N   0  0  0  0  0  0  0  0  0  0  0  0
  -25.7660  -34.7500   23.3890 C   0  0  0  0  0  0  0  0  0  0  0  0
  -26.4920  -34.6550   22.3960 O   0  0  0  0  0  0  0  0  0  0  0  0
  -24.7820  -33.8430   24.9070 H   0  0  0  0  0  0  0  0  0  0  0  0
  -24.0130  -36.4950   22.9350 C   0  0  0  0  0  1  0  0  0  0  0  0
  -25.2230  -36.1290   23.8100 C   0  0  0  0  0  3  0  0  0  0  0  0
  -27.2760  -37.0900   24.7530 C   0  0  0  0  0  1  0  0  0  0  0  0
  -26.2320  -37.2080   23.7390 N   0  0  0  0  0  0  0  0  0  0  0  0
  -25.7940  -38.1200   23.8400 H   0  0  0  0  0  0  0  0  0  0  0  0
  1  6  1  0
  4  8  1  0
  5  1  1  0
  5  4  1  0
  5  2  1  0
  6 18  1  0
  6  3  1  0
  7  2  1  0
  7  3  1  0
  8 48  1  0
  8  7  1  0
  8  9  1  1
 10 18  1  0
 11 16  1  0
 12 13  1  0
 12 11  1  0
 14 13  1  0
 14 23  1  0
 14 15  1  0
 16 10  1  0
 16 15  1  0
 17 10  2  0
 18 19  1  0
 20 21  2  0
 21 40  1  0
 22 21  1  0
 22 25  1  0
 23 24  1  0
 23 20  1  0
 24 22  2  0
 25 26  1  0
 26 27  2  0
 28 31  1  0
 28 27  1  0
 29 28  2  0
 30 29  1  0
 30 25  2  0
 31 32  1  0
 32 33  1  0
 33 34  2  0
 35 34  1  0
 35 39  1  0
 36 35  2  0
 37 32  2  0
 37 36  1  0
 38 37  1  0
 40 41  1  0
 41 44  1  0
 41 43  1  0
 42 40  2  0
 45 46  1  0
 45 20  1  0
 47 45  1  0
 48 49  1  0
 50 49  2  0
 50 51  1  0
 52 54  1  0
 52 51  1  0
 53 64  2  0
 54 59  1  0
 55 63  1  0
 55 65  1  0
 56 62  1  0
 56 58  1  0
 57 63  1  0
 58 59  2  0
 58 57  1  0
 60 54  2  0
 61 60  1  0
 61 56  2  0
 62 55  1  0
 63 53  1  0
 65 67  2  0
 66 65  1  0
 68 66  1  0
 69 78  2  0
 69 74  1  0
 70 66  1  0
 70 74  1  0
 71 70  1  0
 72 73  1  0
 72 71  1  0
 73 69  1  0
 74 75  2  0
 75 76  1  0
 77 76  2  0
 78 77  1  0
 79 53  1  0
 79 84  1  0
 79 80  1  0
 80 83  1  1
 80 81  1  0
 82 80  1  0
 84 87  1  0
 85 89  1  0
 85 84  1  0
 86 85  2  0
 89 88  1  0
 91 89  1  0
 91 92  1  0
 91 90  1  0
M  ISO  4  10 100  18 100  51 101  52 101
M  END
>  <TORSDO>  (19) 
F 19

>  <SCORE>  (19) 
-13.533

>  <name>  (19) 
18

>  <ligand_id>  (19) 
18

>  <original_smiles>  (19) 
[H]C(=C([H])C([H])([H])[N+]1([H])C([H])([H])C2([H])C([H])([H])C([H])(N([H])C(=O)N3C([H])([H])C([H])([H])C([H])([H])C([H])(n4nc(-c5c([H])c([H])c(Oc6c([H])c([H])c(F)c([H])c6F)c([H])c5[H])c(C(=O)N([H])[H])c4N([H])[H])C3([H])[H])C([H])([H])C1([H])C2([H])[H])C([H])([H])Oc1c([H])c([H])c2c(c1[H])C([H])([H])N(C(=O)C([H])(N([H])C(=O)C([H])(N([H])C([H])([H])[H])C([H])([H])[H])C(C([H])([H])[H])(C([H])([H])[H])C([H])([H])[H])C([H])(C(=O)N([H])C1([H])c3c([H])c([H])c([H])c([H])c3C([H])([H])C([H])([H])C1([H])[H])C2([H])[H]

>  <smiles>  (19) 
[H]C(=C([H])C([H])([H])[N+]1([H])C([H])([H])C2([H])C([H])([H])C([H])(N([H])C(=O)N3C([H])([H])C([H])([H])C([H])([H])C([H])(n4nc(-c5c([H])c([H])c(Oc6c([H])c([H])c(F)c([H])c6F)c([H])c5[H])c(C(=O)N([H])[H])c4N([H])[H])C3([H])[H])C([H])([H])C1([H])C2([H])[H])C([H])([H])Oc1c([H])c([H])c2c(c1[H])C([H])([H])N(C(=O)C([H])(N([H])C(=O)C([H])(N([H])C([H])([H])[H])C([H])([H])[H])C(C([H])([H])[H])(C([H])([H])[H])C([H])([H])[H])C([H])(C(=O)N([H])C1([H])c3c([H])c([H])c([H])c([H])c3C([H])([H])C([H])([H])C1([H])[H])C2([H])[H]

$$$$
19:0:0
     RDKit          3D

 95104  0  0  1  0  0  0  0  0999 V2000
  -28.9280  -19.9810   20.2580 C   0  0  0  0  0  3  0  0  0  0  0  0
  -31.7430  -22.4780   19.7600 C   0  0  0  0  0  2  0  0  0  0  0  0
  -28.7020  -21.4180   20.2810 C   0  0  0  0  0  0  0  0  0  0  0  0
  -30.8140  -21.7250   19.1680 C   0  0  0  0  0  3  0  0  0  0  0  0
  -30.7460  -23.0170   20.7790 C   0  0  0  0  0  2  0  0  0  0  0  0
  -31.1110  -20.0820   19.1690 C   0  0  0  0  0  3  0  0  0  0  0  0
  -30.0390  -18.9420   19.6530 C   0  0  0  0  0  0  0  0  0  0  0  0
  -29.6210  -22.7050   19.7600 C   0  0  2  0  0  0  0  0  0  0  0  0
  -31.0030  -15.9440   20.0510 C   0  0  0  0  0  0  0  0  0  0  0  0
  -31.0680  -13.3740   19.4520 C   0  0  0  0  0  2  0  0  0  0  0  0
  -30.2060  -12.9690   18.2270 C   0  0  0  0  0  2  0  0  0  0  0  0
  -28.7490  -12.7080   18.6410 C   0  0  0  0  0  2  0  0  0  0  0  0
  -28.2390  -13.7850   19.6270 C   0  0  0  0  0  3  0  0  0  0  0  0
  -29.2370  -14.1020   20.7650 C   0  0  0  0  0  2  0  0  0  0  0  0
  -30.4710  -14.6010   20.1270 N   0  0  0  0  0  0  0  0  0  0  0  0
  -32.2260  -15.9050   19.8260 O   0  0  0  0  0  0  0  0  0  0  0  0
  -30.2070  -17.2450   20.0600 N   0  0  0  0  0  0  0  0  0  0  0  0
  -29.2860  -16.9400   20.3450 H   0  0  0  0  0  0  0  0  0  0  0  0
  -25.8910  -14.4270   20.3660 C   0  0  0  0  0  0  0  0  0  0  0  0
  -24.7910  -13.6930   20.7070 C   0  0  0  0  0  0  0  0  0  0  0  0
  -25.1960  -12.3230   20.6530 C   0  0  0  0  0  0  0  0  0  0  0  0
  -26.8950  -13.5110   20.1160 N   0  0  0  0  0  0  0  0  0  0  0  0
  -26.4880  -12.2350   20.3570 N   0  0  0  0  0  0  0  0  0  0  0  0
  -24.4060  -11.0940   20.8070 C   0  0  0  0  0  0  0  0  0  0  0  0
  -24.7660  -10.0930   21.7380 C   0  0  0  0  0  3  0  0  0  0  0  0
  -23.9760   -8.9320   21.8820 C   0  0  0  0  0  3  0  0  0  0  0  0
  -22.8130   -8.7620   21.0940 C   0  0  0  0  0  0  0  0  0  0  0  0
  -22.4730   -9.7480   20.1520 C   0  0  0  0  0  3  0  0  0  0  0  0
  -23.2620  -10.9010   20.0050 C   0  0  0  0  0  3  0  0  0  0  0  0
  -22.0000   -7.6550   21.1480 O   0  0  0  0  0  0  0  0  0  0  0  0
  -21.8720   -6.9100   22.2920 C   0  0  0  0  0  0  0  0  0  0  0  0
  -21.3910   -7.4710   23.4960 C   0  0  0  0  0  3  0  0  0  0  0  0
  -21.2090   -6.6550   24.6310 C   0  0  0  0  0  3  0  0  0  0  0  0
  -21.4990   -5.2780   24.5620 C   0  0  0  0  0  0  0  0  0  0  0  0
  -21.9720   -4.7180   23.3630 C   0  0  0  0  0  3  0  0  0  0  0  0
  -22.1550   -5.5310   22.2310 C   0  0  0  0  0  0  0  0  0  0  0  0
  -22.5920   -4.9810   21.0730 F   0  0  0  0  0  0  0  0  0  0  0  0
  -21.3170   -4.4930   25.6490 F   0  0  0  0  0  0  0  0  0  0  0  0
  -23.4130  -14.2300   20.9630 C   0  0  0  0  0  0  0  0  0  0  0  0
  -22.6390  -13.5560   21.8040 N   0  0  0  0  0  0  0  0  0  0  0  0
  -23.0350  -15.2840   20.4530 O   0  0  0  0  0  0  0  0  0  0  0  0
  -22.9580  -12.7020   22.2370 H   0  0  0  0  0  0  0  0  0  0  0  0
  -21.7130  -13.8970   22.0190 H   0  0  0  0  0  0  0  0  0  0  0  0
  -26.1180  -15.7940   20.2150 N   0  0  0  0  0  0  0  0  0  0  0  0
  -25.3680  -16.4710   20.3050 H   0  0  0  0  0  0  0  0  0  0  0  0
  -26.9630  -16.1880   19.8260 H   0  0  0  0  0  0  0  0  0  0  0  0
  -27.5070  -21.8410   20.9660 C   0  0  0  0  0  0  0  0  0  0  0  0
  -26.5100  -20.9990   21.2670 N   0  0  0  0  0  4  0  0  0  0  0  0
  -27.3190  -23.1100   21.3390 N   0  0  0  0  0  0  0  0  0  0  0  0
  -26.5600  -20.0380   20.9690 H   0  0  0  0  0  0  0  0  0  0  0  0
  -25.6790  -21.2720   21.7660 H   0  0  0  0  0  0  0  0  0  0  0  0
  -28.0640  -23.7770   21.2290 H   0  0  0  0  0  0  0  0  0  0  0  0
  -26.4840  -23.4300   21.8050 H   0  0  0  0  0  0  0  0  0  0  0  0
  -28.9990  -24.4190   19.1580 C   0  0  0  0  0  2  0  0  0  0  0  0
  -28.9140  -26.1280   19.3520 O   0  0  0  0  0  0  0  0  0  0  0  0
  -24.7900  -31.5590   22.8580 C   0  0  0  0  0  0  0  0  0  0  0  0
  -27.8000  -27.1710   19.3880 C   0  0  0  0  0  0  0  0  0  0  0  0
  -23.7400  -30.2380   21.0670 C   0  0  0  0  0  3  0  0  0  0  0  0
  -25.3380  -28.9040   19.5080 C   0  0  0  0  0  0  0  0  0  0  0  0
  -26.2860  -30.6630   20.9850 C   0  0  0  0  0  2  0  0  0  0  0  0
  -26.4870  -29.3280   20.1880 C   0  0  0  0  0  0  0  0  0  0  0  0
  -27.7020  -28.4880   20.1000 C   0  0  0  0  0  3  0  0  0  0  0  0
  -26.6010  -26.9280   18.6760 C   0  0  0  0  0  3  0  0  0  0  0  0
  -25.4260  -27.7330   18.7340 C   0  0  0  0  0  3  0  0  0  0  0  0
  -24.0420  -29.7170   19.6330 C   0  0  0  0  0  2  0  0  0  0  0  0
  -24.9580  -30.8480   21.6930 N   0  0  0  0  0  0  0  0  0  0  0  0
  -23.6740  -31.6970   23.3890 O   0  0  0  0  0  0  0  0  0  0  0  0
  -23.1250  -29.0970   21.9210 C   0  0  0  0  0  0  0  0  0  0  0  0
  -21.8080  -28.8500   21.7850 N   0  0  0  0  0  0  0  0  0  0  0  0
  -23.8420  -28.4350   22.6750 O   0  0  0  0  0  0  0  0  0  0  0  0
  -21.2740  -29.4410   21.1620 H   0  0  0  0  0  0  0  0  0  0  0  0
  -18.5200  -27.3750   22.2290 C   0  0  0  0  0  0  0  0  0  0  0  0
  -21.0670  -27.7700   22.4480 C   0  0  0  0  0  3  0  0  0  0  0  0
  -21.2310  -26.4360   21.6820 C   0  0  0  0  0  2  0  0  0  0  0  0
  -20.1130  -26.1820   20.6660 C   0  0  0  0  0  2  0  0  0  0  0  0
  -18.7510  -26.1470   21.3660 C   0  0  0  0  0  2  0  0  0  0  0  0
  -19.6060  -28.1470   22.7240 C   0  0  0  0  0  0  0  0  0  0  0  0
  -19.3330  -29.2950   23.4980 C   0  0  0  0  0  3  0  0  0  0  0  0
  -18.0070  -29.6760   23.7770 C   0  0  0  0  0  3  0  0  0  0  0  0
  -16.9370  -28.9050   23.2950 C   0  0  0  0  0  3  0  0  0  0  0  0
  -17.1940  -27.7530   22.5290 C   0  0  0  0  0  3  0  0  0  0  0  0
  -25.9880  -32.2500   23.5780 C   0  0  0  0  0  3  0  0  0  0  0  0
  -25.5450  -33.5800   24.0390 N   0  0  0  0  0  0  0  0  0  0  0  0
  -25.7680  -34.7320   23.3920 C   0  0  0  0  0  0  0  0  0  0  0  0
  -26.4280  -34.7930   22.3530 O   0  0  0  0  0  0  0  0  0  0  0  0
  -24.9520  -33.5980   24.8550 H   0  0  0  0  0  0  0  0  0  0  0  0
  -23.8590  -36.3700   23.2620 C   0  0  0  0  0  1  0  0  0  0  0  0
  -25.1670  -36.0220   23.9910 C   0  0  0  0  0  3  0  0  0  0  0  0
  -27.2310  -37.0530   24.8360 C   0  0  0  0  0  1  0  0  0  0  0  0
  -26.0840  -37.1820   23.9400 N   0  0  0  0  0  0  0  0  0  0  0  0
  -25.5950  -38.0420   24.1740 H   0  0  0  0  0  0  0  0  0  0  0  0
  -26.5400  -31.4150   24.8010 C   0  0  1  0  0  0  0  0  0  0  0  0
  -25.4490  -31.0010   25.8180 C   0  0  0  0  0  1  0  0  0  0  0  0
  -27.2400  -30.1250   24.3210 C   0  0  0  0  0  1  0  0  0  0  0  0
  -27.6120  -32.2360   25.5560 C   0  0  0  0  0  1  0  0  0  0  0  0
  1  3  2  0
  2  5  1  0
  3 47  1  0
  4  6  1  0
  4  2  1  0
  4  8  1  0
  6  7  2  0
  7 17  1  0
  7  1  1  0
  8 54  1  6
  8  3  1  0
  8  5  1  0
  9 17  1  0
  9 15  1  0
 10 15  1  0
 11 12  1  0
 11 10  1  0
 13 12  1  0
 13 22  1  0
 13 14  1  0
 15 14  1  0
 16  9  2  0
 17 18  1  0
 19 20  2  0
 20 39  1  0
 21 20  1  0
 21 24  1  0
 22 23  1  0
 22 19  1  0
 23 21  2  0
 24 25  1  0
 25 26  2  0
 27 30  1  0
 27 26  1  0
 28 27  2  0
 29 28  1  0
 29 24  2  0
 30 31  1  0
 31 32  1  0
 32 33  2  0
 34 33  1  0
 34 38  1  0
 35 34  2  0
 36 31  2  0
 36 35  1  0
 37 36  1  0
 39 40  1  0
 40 43  1  0
 40 42  1  0
 41 39  2  0
 44 45  1  0
 44 19  1  0
 46 44  1  0
 47 48  2  0
 47 49  1  0
 48 51  1  0
 49 53  1  0
 50 48  1  0
 52 49  1  0
 54 55  1  0
 55 57  1  0
 56 67  2  0
 57 62  1  0
 58 66  1  0
 58 68  1  0
 59 65  1  0
 59 61  1  0
 60 66  1  0
 61 60  1  0
 62 61  2  0
 63 64  1  0
 63 57  2  0
 64 59  2  0
 65 58  1  0
 66 56  1  0
 68 70  2  0
 69 68  1  0
 71 69  1  0
 72 81  2  0
 72 77  1  0
 73 69  1  0
 73 77  1  0
 74 73  1  0
 75 76  1  0
 75 74  1  0
 76 72  1  0
 77 78  2  0
 78 79  1  0
 80 79  2  0
 81 80  1  0
 82 56  1  0
 82 83  1  0
 82 92  1  0
 83 86  1  0
 84 88  1  0
 84 83  1  0
 85 84  2  0
 88 87  1  0
 90 88  1  0
 90 91  1  0
 90 89  1  0
 92 95  1  1
 92 93  1  0
 94 92  1  0
M  ISO  4   9 100  17 100  54 101  55 101
M  END
>  <TORSDO>  (20) 
F 18

>  <SCORE>  (20) 
-10.911

>  <name>  (20) 
19

>  <ligand_id>  (20) 
19

>  <original_smiles>  (20) 
[H]C1=C2C([H])([H])C([H])(N([H])C(=O)N3C([H])([H])C([H])([H])C([H])([H])C([H])(n4nc(-c5c([H])c([H])c(Oc6c([H])c([H])c(F)c([H])c6F)c([H])c5[H])c(C(=O)N([H])[H])c4N([H])[H])C3([H])[H])C([H])=C(C(N([H])[H])=[N+]([H])[H])C2(C([H])([H])Oc2c([H])c([H])c3c(c2[H])C([H])([H])N(C(=O)C([H])(N([H])C(=O)C([H])(N([H])C([H])([H])[H])C([H])([H])[H])C(C([H])([H])[H])(C([H])([H])[H])C([H])([H])[H])C([H])(C(=O)N([H])C2([H])c4c([H])c([H])c([H])c([H])c4C([H])([H])C([H])([H])C2([H])[H])C3([H])[H])C1([H])[H]

>  <smiles>  (20) 
[H]C1=C2C([H])([H])C([H])(N([H])C(=O)N3C([H])([H])C([H])([H])C([H])([H])C([H])(n4nc(-c5c([H])c([H])c(Oc6c([H])c([H])c(F)c([H])c6F)c([H])c5[H])c(C(=O)N([H])[H])c4N([H])[H])C3([H])[H])C([H])=C(C(N([H])[H])=[N+]([H])[H])C2(C([H])([H])Oc2c([H])c([H])c3c(c2[H])C([H])([H])N(C(=O)C([H])(N([H])C(=O)C([H])(N([H])C([H])([H])[H])C([H])([H])[H])C(C([H])([H])[H])(C([H])([H])[H])C([H])([H])[H])C([H])(C(=O)N([H])C2([H])c4c([H])c([H])c([H])c([H])c4C([H])([H])C([H])([H])C2([H])[H])C3([H])[H])C1([H])[H]

$$$$
20:0:0
     RDKit          3D

 96105  0  0  1  0  0  0  0  0999 V2000
  -29.6530  -24.5270   16.2350 C   0  0  0  0  0  2  0  0  0  0  0  0
  -27.9850  -26.4260   16.2440 C   0  0  0  0  0  2  0  0  0  0  0  0
  -29.1210  -24.0350   17.5860 C   0  0  0  0  0  2  0  0  0  0  0  0
  -27.4470  -25.9350   17.6030 C   0  0  0  0  0  2  0  0  0  0  0  0
  -28.5540  -25.2540   15.4270 C   0  0  0  0  0  3  0  0  0  0  0  0
  -28.5230  -25.1870   18.4220 C   0  0  0  0  0  3  0  0  0  0  0  0
  -29.5270  -27.7900   12.9230 C   0  0  0  0  0  3  0  0  0  0  0  0
  -30.7930  -27.6780   12.4860 C   0  0  0  0  0  2  0  0  0  0  0  0
  -28.7740  -26.9400   13.6360 C   0  0  0  0  0  3  0  0  0  0  0  0
  -29.8870  -24.8610   13.3910 C   0  0  0  0  0  3  0  0  0  0  0  0
  -29.0250  -25.6790   14.0330 C   0  0  0  0  0  3  0  0  0  0  0  0
  -30.9760  -25.0670   12.6150 C   0  0  0  0  0  0  0  0  0  0  0  0
  -31.5740  -26.4270   12.4820 C   0  0  0  0  0  0  0  0  0  0  0  0
  -32.7980  -26.5400   12.3920 O   0  0  0  0  0  0  0  0  0  0  0  0
  -31.7500  -23.8730   12.0340 C   0  0  0  0  0  2  0  0  0  0  0  0
  -33.9680  -23.2240   11.1590 C   0  0  0  0  0  0  0  0  0  0  0  0
  -36.3700  -22.6910   11.1310 C   0  0  0  0  0  2  0  0  0  0  0  0
  -36.9250  -22.7580   12.5680 C   0  0  0  0  0  2  0  0  0  0  0  0
  -37.3640  -24.1930   12.9180 C   0  0  0  0  0  2  0  0  0  0  0  0
  -36.2830  -25.2510   12.5740 C   0  0  0  0  0  3  0  0  0  0  0  0
  -35.7280  -25.0360   11.1460 C   0  0  0  0  0  2  0  0  0  0  0  0
  -35.2550  -23.6440   11.0370 N   0  0  0  0  0  0  0  0  0  0  0  0
  -33.6390  -22.0350   11.1270 O   0  0  0  0  0  0  0  0  0  0  0  0
  -33.0700  -24.1700   11.4530 N   0  0  0  0  0  0  0  0  0  0  0  0
  -33.4000  -25.1230   11.4730 H   0  0  0  0  0  0  0  0  0  0  0  0
  -37.7390  -27.3070   12.0320 C   0  0  0  0  0  0  0  0  0  0  0  0
  -37.7910  -28.5600   12.5760 C   0  0  0  0  0  0  0  0  0  0  0  0
  -36.8290  -28.5700   13.6320 C   0  0  0  0  0  0  0  0  0  0  0  0
  -36.7880  -26.6100   12.7610 N   0  0  0  0  0  0  0  0  0  0  0  0
  -36.2760  -27.3710   13.7630 N   0  0  0  0  0  0  0  0  0  0  0  0
  -36.3640  -29.6690   14.4860 C   0  0  0  0  0  0  0  0  0  0  0  0
  -35.0770  -29.6580   15.0670 C   0  0  0  0  0  3  0  0  0  0  0  0
  -34.6580  -30.7180   15.8990 C   0  0  0  0  0  3  0  0  0  0  0  0
  -35.5310  -31.8010   16.1620 C   0  0  0  0  0  0  0  0  0  0  0  0
  -36.8030  -31.8170   15.5620 C   0  0  0  0  0  3  0  0  0  0  0  0
  -37.2150  -30.7640   14.7300 C   0  0  0  0  0  3  0  0  0  0  0  0
  -35.2020  -32.8870   16.9370 O   0  0  0  0  0  0  0  0  0  0  0  0
  -33.8970  -33.2590   17.1330 C   0  0  0  0  0  0  0  0  0  0  0  0
  -33.2770  -33.1590   18.3990 C   0  0  0  0  0  3  0  0  0  0  0  0
  -31.9560  -33.6190   18.5730 C   0  0  0  0  0  3  0  0  0  0  0  0
  -31.2580  -34.1860   17.4900 C   0  0  0  0  0  0  0  0  0  0  0  0
  -31.8750  -34.2900   16.2320 C   0  0  0  0  0  3  0  0  0  0  0  0
  -33.1920  -33.8310   16.0550 C   0  0  0  0  0  0  0  0  0  0  0  0
  -33.7900  -33.9530   14.8460 F   0  0  0  0  0  0  0  0  0  0  0  0
  -29.9920  -34.6350   17.6590 F   0  0  0  0  0  0  0  0  0  0  0  0
  -38.6190  -29.7130   12.0850 C   0  0  0  0  0  0  0  0  0  0  0  0
  -39.9090  -29.7200   12.4020 N   0  0  0  0  0  0  0  0  0  0  0  0
  -38.1340  -30.5910   11.3730 O   0  0  0  0  0  0  0  0  0  0  0  0
  -40.3130  -28.9880   12.9660 H   0  0  0  0  0  0  0  0  0  0  0  0
  -40.5030  -30.4680   12.0710 H   0  0  0  0  0  0  0  0  0  0  0  0
  -38.4050  -26.7170   10.9690 N   0  0  0  0  0  0  0  0  0  0  0  0
  -39.0470  -27.2340   10.3800 H   0  0  0  0  0  0  0  0  0  0  0  0
  -38.2780  -25.7500   10.6710 H   0  0  0  0  0  0  0  0  0  0  0  0
  -27.9610  -24.6810   19.7700 C   0  0  0  0  0  2  0  0  0  0  0  0
  -28.8510  -24.9920   20.9840 C   0  0  0  0  0  2  0  0  0  0  0  0
  -30.1840  -24.5260   20.7870 O   0  0  0  0  0  0  0  0  0  0  0  0
  -37.0300  -26.1690   19.6380 C   0  0  0  0  0  0  0  0  0  0  0  0
  -31.1810  -25.4750   20.7520 C   0  0  0  0  0  0  0  0  0  0  0  0
  -35.6690  -27.9090   20.7610 C   0  0  0  0  0  3  0  0  0  0  0  0
  -33.1510  -27.5030   20.7700 C   0  0  0  0  0  0  0  0  0  0  0  0
  -34.5910  -26.2390   19.1610 C   0  0  0  0  0  2  0  0  0  0  0  0
  -33.3310  -26.3580   19.9860 C   0  0  0  0  0  0  0  0  0  0  0  0
  -32.3540  -25.3450   19.9710 C   0  0  0  0  0  3  0  0  0  0  0  0
  -31.0070  -26.6380   21.5310 C   0  0  0  0  0  3  0  0  0  0  0  0
  -31.9880  -27.6500   21.5480 C   0  0  0  0  0  3  0  0  0  0  0  0
  -34.2500  -28.5400   20.7170 C   0  0  0  0  0  2  0  0  0  0  0  0
  -35.8030  -26.7220   19.8550 N   0  0  0  0  0  0  0  0  0  0  0  0
  -38.0490  -26.6610   20.1400 O   0  0  0  0  0  0  0  0  0  0  0  0
  -36.0230  -27.5970   22.2320 C   0  0  0  0  0  0  0  0  0  0  0  0
  -37.2890  -27.8430   22.6050 N   0  0  0  0  0  0  0  0  0  0  0  0
  -35.1660  -27.1750   23.0140 O   0  0  0  0  0  0  0  0  0  0  0  0
  -37.9320  -28.1800   21.9020 H   0  0  0  0  0  0  0  0  0  0  0  0
  -39.9080  -26.2100   24.4760 C   0  0  0  0  0  0  0  0  0  0  0  0
  -37.8400  -27.6640   23.9470 C   0  0  0  0  0  3  0  0  0  0  0  0
  -38.7110  -28.8730   24.3560 C   0  0  0  0  0  2  0  0  0  0  0  0
  -40.1970  -28.6840   24.0320 C   0  0  0  0  0  2  0  0  0  0  0  0
  -40.7490  -27.4470   24.7460 C   0  0  0  0  0  2  0  0  0  0  0  0
  -38.5470  -26.3130   24.0860 C   0  0  0  0  0  0  0  0  0  0  0  0
  -37.8220  -25.1330   23.8120 C   0  0  0  0  0  3  0  0  0  0  0  0
  -38.4330  -23.8690   23.9280 C   0  0  0  0  0  3  0  0  0  0  0  0
  -39.7760  -23.7730   24.3300 C   0  0  0  0  0  3  0  0  0  0  0  0
  -40.5100  -24.9410   24.6060 C   0  0  0  0  0  3  0  0  0  0  0  0
  -37.2140  -24.9100   18.7310 C   0  0  0  0  0  3  0  0  0  0  0  0
  -37.2830  -25.2550   17.1930 C   0  0  1  0  0  0  0  0  0  0  0  0
  -38.5010  -24.6320   16.4720 C   0  0  0  0  0  1  0  0  0  0  0  0
  -36.0040  -24.7700   16.4690 C   0  0  0  0  0  1  0  0  0  0  0  0
  -37.3450  -26.7890   17.0000 C   0  0  0  0  0  1  0  0  0  0  0  0
  -36.0980  -23.9970   19.0120 N   0  0  0  0  0  0  0  0  0  0  0  0
  -36.1990  -22.8760   19.7390 C   0  0  0  0  0  0  0  0  0  0  0  0
  -37.2720  -22.4630   20.1880 O   0  0  0  0  0  0  0  0  0  0  0  0
  -35.1810  -24.3040   18.7260 H   0  0  0  0  0  0  0  0  0  0  0  0
  -35.0240  -21.3480   21.3540 C   0  0  0  0  0  1  0  0  0  0  0  0
  -34.9040  -22.0910   20.0130 C   0  0  0  0  0  3  0  0  0  0  0  0
  -33.5680  -21.6460   18.0010 C   0  0  0  0  0  1  0  0  0  0  0  0
  -34.5600  -21.1310   18.9410 N   0  0  0  0  0  0  0  0  0  0  0  0
  -34.2070  -20.2630   19.3350 H   0  0  0  0  0  0  0  0  0  0  0  0
  1  3  1  0
  2  4  1  0
  3  6  1  0
  4  6  1  0
  5  1  1  0
  5  2  1  0
  6 54  1  0
  7  9  2  0
  8  7  1  0
  9 11  1  0
 11 10  1  0
 11  5  1  0
 12 10  2  0
 13  8  1  0
 13 12  1  0
 14 13  2  0
 15 12  1  0
 16 24  1  0
 17 18  1  0
 18 19  1  0
 20 21  1  0
 20 29  1  0
 20 19  1  0
 22 17  1  0
 22 21  1  0
 22 16  1  0
 23 16  2  0
 24 25  1  0
 24 15  1  0
 26 27  2  0
 26 29  1  0
 27 28  1  0
 28 30  2  0
 28 31  1  0
 29 30  1  0
 31 36  2  0
 31 32  1  0
 32 33  2  0
 33 34  1  0
 34 37  1  0
 35 34  2  0
 36 35  1  0
 37 38  1  0
 38 39  1  0
 39 40  2  0
 41 45  1  0
 41 40  1  0
 42 41  2  0
 43 42  1  0
 43 38  2  0
 44 43  1  0
 46 47  1  0
 46 27  1  0
 47 49  1  0
 48 46  2  0
 50 47  1  0
 51 26  1  0
 52 51  1  0
 53 51  1  0
 54 55  1  0
 56 55  1  0
 57 67  1  0
 57 68  2  0
 58 56  1  0
 58 64  1  0
 59 69  1  0
 60 65  1  0
 61 67  1  0
 61 62  1  0
 62 60  2  0
 63 62  1  0
 63 58  2  0
 64 65  2  0
 66 59  1  0
 66 60  1  0
 67 59  1  0
 69 70  1  0
 69 71  2  0
 72 70  1  0
 73 82  1  0
 73 77  1  0
 74 70  1  0
 74 78  1  0
 74 75  1  0
 76 75  1  0
 76 77  1  0
 78 73  2  0
 79 80  2  0
 79 78  1  0
 80 81  1  0
 81 82  2  0
 83 88  1  0
 83 57  1  0
 84 83  1  0
 84 85  1  6
 86 84  1  0
 87 84  1  0
 88 89  1  0
 89 93  1  0
 89 90  2  0
 91 88  1  0
 93 92  1  0
 94 95  1  0
 95 96  1  0
 95 93  1  0
M  ISO  4  16 100  24 100  55 101  56 101
M  END
>  <TORSDO>  (21) 
F 20

>  <SCORE>  (21) 
-3.635

>  <name>  (21) 
20

>  <ligand_id>  (21) 
20

>  <original_smiles>  (21) 
[H]c1c([H])c([H])c2c(c1[H])C([H])([H])C([H])([H])C([H])([H])C2([H])N([H])C(=O)C1([H])N(C(=O)C([H])(N([H])C(=O)C([H])(N([H])C([H])([H])[H])C([H])([H])[H])C(C([H])([H])[H])(C([H])([H])[H])C([H])([H])[H])C([H])([H])c2c([H])c(OC([H])([H])C([H])([H])C3([H])C([H])([H])C([H])([H])C([H])(c4c([H])c([H])c([H])c(=O)c(C([H])([H])N([H])C(=O)N5C([H])([H])C([H])([H])C([H])([H])C([H])(n6nc(-c7c([H])c([H])c(Oc8c([H])c([H])c(F)c([H])c8F)c([H])c7[H])c(C(=O)N([H])[H])c6N([H])[H])C5([H])[H])c4[H])C([H])([H])C3([H])[H])c([H])c([H])c2C1([H])[H]

>  <smiles>  (21) 
[H]c1c([H])c([H])c2c(c1[H])C([H])([H])C([H])([H])C([H])([H])C2([H])N([H])C(=O)C1([H])N(C(=O)C([H])(N([H])C(=O)C([H])(N([H])C([H])([H])[H])C([H])([H])[H])C(C([H])([H])[H])(C([H])([H])[H])C([H])([H])[H])C([H])([H])c2c([H])c(OC([H])([H])C([H])([H])C3([H])C([H])([H])C([H])([H])C([H])(c4c([H])c([H])c([H])c(=O)c(C([H])([H])N([H])C(=O)N5C([H])([H])C([H])([H])C([H])([H])C([H])(n6nc(-c7c([H])c([H])c(Oc8c([H])c([H])c(F)c([H])c8F)c([H])c7[H])c(C(=O)N([H])[H])c6N([H])[H])C5([H])[H])c4[H])C([H])([H])C3([H])[H])c([H])c([H])c2C1([H])[H]

$$$$
21:0:0
     RDKit          3D

 86 93  0  0  1  0  0  0  0  0999 V2000
  -30.2370  -16.4550   19.9140 C   0  0  0  0  0  0  0  0  0  0  0  0
  -30.5020  -13.7450   19.2170 C   0  0  0  0  0  2  0  0  0  0  0  0
  -29.6950  -12.9310   18.1440 C   0  0  0  0  0  2  0  0  0  0  0  0
  -28.3660  -12.4210   18.7030 C   0  0  0  0  0  2  0  0  0  0  0  0
  -27.7510  -13.4910   19.6200 C   0  0  0  0  0  3  0  0  0  0  0  0
  -28.7420  -14.1760   20.6170 C   0  0  0  0  0  2  0  0  0  0  0  0
  -29.7380  -14.9960   19.8240 N   0  0  0  0  0  0  0  0  0  0  0  0
  -31.4760  -16.1960   19.8670 O   0  0  0  0  0  0  0  0  0  0  0  0
  -30.9950  -20.3250   19.3670 C   0  0  0  0  0  3  0  0  0  0  0  0
  -30.2030  -21.4750   19.2280 C   0  0  0  0  0  3  0  0  0  0  0  0
  -30.3760  -19.4600   21.4350 C   0  0  0  0  0  2  0  0  0  0  0  0
  -30.7220  -19.0690   20.1900 C   0  0  0  0  0  3  0  0  0  0  0  0
  -28.7590  -21.6450   19.6860 C   0  0  0  0  0  2  0  0  0  0  0  0
  -28.8710  -19.5460   21.5340 C   0  0  0  0  0  2  0  0  0  0  0  0
  -28.6100  -19.5950   20.0240 C   0  0  0  0  0  2  0  0  0  0  0  0
  -27.9640  -23.0670   19.7540 N   0  0  0  0  0  1  0  0  0  0  0  0
  -29.7320  -18.1000   19.8140 N   0  0  0  0  0  0  0  0  0  0  0  0
  -25.4300  -13.9340   20.5000 C   0  0  0  0  0  0  0  0  0  0  0  0
  -24.3990  -13.1320   20.8930 C   0  0  0  0  0  0  0  0  0  0  0  0
  -24.8900  -11.7910   20.8280 C   0  0  0  0  0  0  0  0  0  0  0  0
  -26.4820  -13.0900   20.2110 N   0  0  0  0  0  0  0  0  0  0  0  0
  -26.1740  -11.7880   20.4660 N   0  0  0  0  0  0  0  0  0  0  0  0
  -24.1820  -10.5160   21.0300 C   0  0  0  0  0  0  0  0  0  0  0  0
  -24.5790   -9.5960   22.0260 C   0  0  0  0  0  3  0  0  0  0  0  0
  -23.8620   -8.3950   22.2210 C   0  0  0  0  0  3  0  0  0  0  0  0
  -22.7330   -8.1030   21.4190 C   0  0  0  0  0  0  0  0  0  0  0  0
  -22.3540   -9.0110   20.4150 C   0  0  0  0  0  3  0  0  0  0  0  0
  -23.0720  -10.2030   20.2190 C   0  0  0  0  0  3  0  0  0  0  0  0
  -21.9930   -6.9490   21.5180 O   0  0  0  0  0  0  0  0  0  0  0  0
  -21.7930   -6.3220   22.7230 C   0  0  0  0  0  0  0  0  0  0  0  0
  -21.1220   -6.9570   23.7910 C   0  0  0  0  0  3  0  0  0  0  0  0
  -20.8770   -6.2530   24.9870 C   0  0  0  0  0  3  0  0  0  0  0  0
  -21.2920   -4.9130   25.1140 C   0  0  0  0  0  0  0  0  0  0  0  0
  -21.9550   -4.2780   24.0500 C   0  0  0  0  0  3  0  0  0  0  0  0
  -22.2020   -4.9790   22.8570 C   0  0  0  0  0  0  0  0  0  0  0  0
  -22.8210   -4.3540   21.8270 F   0  0  0  0  0  0  0  0  0  0  0  0
  -21.0510   -4.2340   26.2600 F   0  0  0  0  0  0  0  0  0  0  0  0
  -23.0060  -13.5870   21.2080 C   0  0  0  0  0  0  0  0  0  0  0  0
  -22.3230  -12.8910   22.1090 N   0  0  0  0  0  0  0  0  0  0  0  0
  -22.5350  -14.6000   20.6930 O   0  0  0  0  0  0  0  0  0  0  0  0
  -22.7200  -12.0730   22.5470 H   0  0  0  0  0  0  0  0  0  0  0  0
  -21.3890  -13.1800   22.3650 H   0  0  0  0  0  0  0  0  0  0  0  0
  -25.5570  -15.3090   20.3250 N   0  0  0  0  0  0  0  0  0  0  0  0
  -24.7820  -15.9480   20.4690 H   0  0  0  0  0  0  0  0  0  0  0  0
  -26.3880  -15.7680   19.9740 H   0  0  0  0  0  0  0  0  0  0  0  0
  -28.0940  -25.0100   19.5410 O   0  0  0  0  0  1  0  0  0  0  0  0
  -24.7720  -31.7270   22.9110 C   0  0  0  0  0  0  0  0  0  0  0  0
  -27.1330  -26.3820   19.6820 C   0  0  0  0  0  0  0  0  0  0  0  0
  -23.5240  -30.3670   21.2940 C   0  0  0  0  0  3  0  0  0  0  0  0
  -24.9060  -28.6800   19.7910 C   0  0  0  0  0  0  0  0  0  0  0  0
  -26.1120  -30.3920   21.1020 C   0  0  0  0  0  2  0  0  0  0  0  0
  -26.1380  -28.9330   20.4050 C   0  0  0  0  0  0  0  0  0  0  0  0
  -27.2080  -27.8270   20.3130 C   0  0  0  0  0  3  0  0  0  0  0  0
  -25.8660  -26.4580   19.0080 C   0  0  0  0  0  3  0  0  0  0  0  0
  -24.8330  -27.4720   19.0650 C   0  0  0  0  0  3  0  0  0  0  0  0
  -23.7220  -29.6790   19.9050 C   0  0  0  0  0  2  0  0  0  0  0  0
  -24.8350  -30.8710   21.8200 N   0  0  0  0  0  0  0  0  0  0  0  0
  -23.6940  -32.0280   23.4600 O   0  0  0  0  0  0  0  0  0  0  0  0
  -22.8170  -29.3950   22.2810 C   0  0  0  0  0  0  0  0  0  0  0  0
  -21.4770  -29.2560   22.2090 N   0  0  0  0  0  0  0  0  0  0  0  0
  -23.4940  -28.7580   23.0900 O   0  0  0  0  0  0  0  0  0  0  0  0
  -20.9730  -29.8210   21.5390 H   0  0  0  0  0  0  0  0  0  0  0  0
  -18.1040  -28.0660   22.9070 C   0  0  0  0  0  0  0  0  0  0  0  0
  -20.6830  -28.2980   22.9940 C   0  0  0  0  0  3  0  0  0  0  0  0
  -20.7180  -26.8920   22.3490 C   0  0  0  0  0  2  0  0  0  0  0  0
  -19.5440  -26.6350   21.3990 C   0  0  0  0  0  2  0  0  0  0  0  0
  -18.2130  -26.7570   22.1450 C   0  0  0  0  0  2  0  0  0  0  0  0
  -19.2610  -28.7980   23.2910 C   0  0  0  0  0  0  0  0  0  0  0  0
  -19.0970  -30.0220   23.9760 C   0  0  0  0  0  3  0  0  0  0  0  0
  -17.8120  -30.5160   24.2740 C   0  0  0  0  0  3  0  0  0  0  0  0
  -16.6730  -29.7830   23.9000 C   0  0  0  0  0  3  0  0  0  0  0  0
  -16.8200  -28.5580   23.2230 C   0  0  0  0  0  3  0  0  0  0  0  0
  -26.0450  -32.3820   23.5300 C   0  0  0  0  0  3  0  0  0  0  0  0
  -25.7070  -33.7530   23.9780 N   0  0  0  0  0  0  0  0  0  0  0  0
  -25.9660  -34.8820   23.3020 C   0  0  0  0  0  0  0  0  0  0  0  0
  -26.5600  -34.8810   22.2230 O   0  0  0  0  0  0  0  0  0  0  0  0
  -25.1630  -33.8220   24.8250 H   0  0  0  0  0  0  0  0  0  0  0  0
  -24.1820  -36.6670   23.2570 C   0  0  0  0  0  1  0  0  0  0  0  0
  -25.4980  -36.2230   23.9150 C   0  0  0  0  0  3  0  0  0  0  0  0
  -27.6720  -37.1170   24.6380 C   0  0  0  0  0  1  0  0  0  0  0  0
  -26.4950  -37.3110   23.7950 N   0  0  0  0  0  0  0  0  0  0  0  0
  -26.0800  -38.2080   24.0310 H   0  0  0  0  0  0  0  0  0  0  0  0
  -26.6230  -31.5650   24.7540 C   0  0  1  0  0  0  0  0  0  0  0  0
  -25.5800  -31.2670   25.8560 C   0  0  0  0  0  1  0  0  0  0  0  0
  -27.2090  -30.2120   24.2980 C   0  0  0  0  0  1  0  0  0  0  0  0
  -27.7910  -32.3460   25.4000 C   0  0  0  0  0  1  0  0  0  0  0  0
  2  7  1  0
  3  4  1  0
  3  2  1  0
  5  4  1  0
  5 21  1  0
  5  6  1  0
  7  1  1  0
  7  6  1  0
  8  1  2  0
 10  9  2  0
 10 13  1  0
 11 14  1  0
 12  9  1  0
 12 11  1  0
 13 16  1  0
 15 14  1  0
 17  1  1  0
 17 15  1  0
 17 12  1  0
 18 19  2  0
 19 38  1  0
 20 19  1  0
 20 23  1  0
 21 22  1  0
 21 18  1  0
 22 20  2  0
 23 24  1  0
 24 25  2  0
 26 29  1  0
 26 25  1  0
 27 26  2  0
 28 27  1  0
 28 23  2  0
 29 30  1  0
 30 35  2  0
 30 31  1  0
 31 32  2  0
 32 33  1  0
 33 37  1  0
 34 33  2  0
 35 34  1  0
 36 35  1  0
 38 39  1  0
 39 42  1  0
 39 41  1  0
 40 38  2  0
 43 44  1  0
 43 18  1  0
 45 43  1  0
 46 48  1  0
 47 58  2  0
 48 53  1  0
 49 57  1  0
 49 59  1  0
 50 56  1  0
 50 52  1  0
 51 57  1  0
 52 51  1  0
 53 52  2  0
 54 55  1  0
 54 48  2  0
 55 50  2  0
 56 49  1  0
 57 47  1  0
 59 61  2  0
 60 59  1  0
 62 60  1  0
 63 72  2  0
 63 68  1  0
 64 60  1  0
 64 68  1  0
 65 64  1  0
 66 67  1  0
 66 65  1  0
 67 63  1  0
 68 69  2  0
 69 70  1  0
 71 70  2  0
 72 71  1  0
 73 47  1  0
 73 74  1  0
 73 83  1  0
 74 77  1  0
 75 79  1  0
 75 74  1  0
 76 75  2  0
 79 78  1  0
 81 79  1  0
 81 82  1  0
 81 80  1  0
 83 86  1  1
 83 84  1  0
 85 83  1  0
M  ISO  4   1 100  16 101  17 100  46 101
M  END
>  <TORSDO>  (22) 
F 15

>  <SCORE>  (22) 
-14.967

>  <name>  (22) 
21

>  <ligand_id>  (22) 
21

>  <original_smiles>  (22) 
[H]C1=C([H])C2=C([H])C([H])([H])C([H])(C1=NOc1c([H])c([H])c3c(c1[H])C([H])([H])N(C(=O)C([H])(N([H])C(=O)C([H])(N([H])C([H])([H])[H])C([H])([H])[H])C(C([H])([H])[H])(C([H])([H])[H])C([H])([H])[H])C([H])(C(=O)N([H])C1([H])c4c([H])c([H])c([H])c([H])c4C([H])([H])C([H])([H])C1([H])[H])C3([H])[H])N2C(=O)N1C([H])([H])C([H])([H])C([H])([H])C([H])(n2nc(-c3c([H])c([H])c(Oc4c([H])c([H])c(F)c([H])c4F)c([H])c3[H])c(C(=O)N([H])[H])c2N([H])[H])C1([H])[H]

>  <smiles>  (22) 
[H]C1=C([H])C2=C([H])C([H])([H])C([H])(C1=NOc1c([H])c([H])c3c(c1[H])C([H])([H])N(C(=O)C([H])(N([H])C(=O)C([H])(N([H])C([H])([H])[H])C([H])([H])[H])C(C([H])([H])[H])(C([H])([H])[H])C([H])([H])[H])C([H])(C(=O)N([H])C1([H])c4c([H])c([H])c([H])c([H])c4C([H])([H])C([H])([H])C1([H])[H])C3([H])[H])N2C(=O)N1C([H])([H])C([H])([H])C([H])([H])C([H])(n2nc(-c3c([H])c([H])c(Oc4c([H])c([H])c(F)c([H])c4F)c([H])c3[H])c(C(=O)N([H])[H])c2N([H])[H])C1([H])[H]

$$$$
22:0:0
     RDKit          3D

 95104  0  0  1  0  0  0  0  0999 V2000
  -29.2420  -21.9570   20.0660 C   0  0  0  0  0  2  0  0  0  0  0  0
  -31.3040  -21.7730   21.4410 C   0  0  0  0  0  2  0  0  0  0  0  0
  -29.4760  -23.4830   19.9220 C   0  0  0  0  0  2  0  0  0  0  0  0
  -31.5390  -23.2890   21.2770 C   0  0  0  0  0  2  0  0  0  0  0  0
  -30.5760  -21.2050   20.2170 C   0  0  0  0  0  3  0  0  0  0  0  0
  -30.2810  -24.0580   21.0400 N   0  0  1  0  0  4  0  0  0  0  0  0
  -29.7320  -23.9640   21.8840 H   0  0  0  0  0  0  0  0  0  0  0  0
  -31.1420  -18.9110   19.2840 C   0  0  0  0  0  3  0  0  0  0  0  0
  -31.0760  -17.5050   19.2980 C   0  0  0  0  0  3  0  0  0  0  0  0
  -29.6940  -19.0040   21.2270 C   0  0  0  0  0  3  0  0  0  0  0  0
  -30.4560  -19.6780   20.2470 C   0  0  0  0  0  0  0  0  0  0  0  0
  -29.6230  -17.5890   21.2480 C   0  0  0  0  0  0  0  0  0  0  0  0
  -30.3250  -16.8180   20.2840 C   0  0  0  0  0  0  0  0  0  0  0  0
  -28.7810  -16.9100   22.3170 C   0  0  0  0  0  1  0  0  0  0  0  0
  -30.7830  -14.4480   19.5500 C   0  0  0  0  0  0  0  0  0  0  0  0
  -30.2880  -12.3730   18.3200 C   0  0  0  0  0  2  0  0  0  0  0  0
  -29.1650  -12.6650   17.3020 C   0  0  0  0  0  2  0  0  0  0  0  0
  -27.7790  -12.4950   17.9550 C   0  0  0  0  0  2  0  0  0  0  0  0
  -27.6600  -13.2390   19.3130 C   0  0  0  0  0  3  0  0  0  0  0  0
  -28.8770  -12.9330   20.2150 C   0  0  0  0  0  2  0  0  0  0  0  0
  -30.0990  -13.2770   19.4660 N   0  0  0  0  0  0  0  0  0  0  0  0
  -31.8120  -14.6600   18.9030 O   0  0  0  0  0  0  0  0  0  0  0  0
  -30.2030  -15.3890   20.3240 N   0  0  0  0  0  0  0  0  0  0  0  0
  -29.4570  -15.0380   20.9040 H   0  0  0  0  0  0  0  0  0  0  0  0
  -25.4400  -13.7910   20.4950 C   0  0  0  0  0  0  0  0  0  0  0  0
  -24.4250  -12.9940   20.9520 C   0  0  0  0  0  0  0  0  0  0  0  0
  -24.8270  -11.6510   20.6820 C   0  0  0  0  0  0  0  0  0  0  0  0
  -26.3990  -12.9310   19.9830 N   0  0  0  0  0  0  0  0  0  0  0  0
  -26.0410  -11.6310   20.1510 N   0  0  0  0  0  0  0  0  0  0  0  0
  -24.1010  -10.3840   20.8470 C   0  0  0  0  0  0  0  0  0  0  0  0
  -24.6270   -9.3280   21.6230 C   0  0  0  0  0  3  0  0  0  0  0  0
  -23.9020   -8.1260   21.7810 C   0  0  0  0  0  3  0  0  0  0  0  0
  -22.6380   -7.9740   21.1650 C   0  0  0  0  0  0  0  0  0  0  0  0
  -22.1290   -9.0200   20.3750 C   0  0  0  0  0  3  0  0  0  0  0  0
  -22.8540  -10.2130   20.2130 C   0  0  0  0  0  3  0  0  0  0  0  0
  -21.8750   -6.8350   21.2420 O   0  0  0  0  0  0  0  0  0  0  0  0
  -21.9090   -6.0180   22.3440 C   0  0  0  0  0  0  0  0  0  0  0  0
  -21.6150   -6.5000   23.6380 C   0  0  0  0  0  3  0  0  0  0  0  0
  -21.5950   -5.6120   24.7320 C   0  0  0  0  0  3  0  0  0  0  0  0
  -21.8580   -4.2430   24.5340 C   0  0  0  0  0  0  0  0  0  0  0  0
  -22.1470   -3.7600   23.2450 C   0  0  0  0  0  3  0  0  0  0  0  0
  -22.1690   -4.6460   22.1530 C   0  0  0  0  0  0  0  0  0  0  0  0
  -22.4260   -4.1720   20.9100 F   0  0  0  0  0  0  0  0  0  0  0  0
  -21.8320   -3.3880   25.5820 F   0  0  0  0  0  0  0  0  0  0  0  0
  -23.1130  -13.4540   21.5210 C   0  0  0  0  0  0  0  0  0  0  0  0
  -22.5350  -12.6780   22.4310 N   0  0  0  0  0  0  0  0  0  0  0  0
  -22.6170  -14.5310   21.1950 O   0  0  0  0  0  0  0  0  0  0  0  0
  -22.9520  -11.8040   22.7140 H   0  0  0  0  0  0  0  0  0  0  0  0
  -21.6620  -12.9630   22.8520 H   0  0  0  0  0  0  0  0  0  0  0  0
  -25.6200  -15.1710   20.4510 N   0  0  0  0  0  0  0  0  0  0  0  0
  -24.9030  -15.8180   20.7640 H   0  0  0  0  0  0  0  0  0  0  0  0
  -26.4100  -15.6340   20.0200 H   0  0  0  0  0  0  0  0  0  0  0  0
  -30.5730  -25.5160   20.8630 C   0  0  0  0  0  2  0  0  0  0  0  0
  -29.3690  -26.4680   21.0550 C   0  0  0  0  0  2  0  0  0  0  0  0
  -28.6040  -26.5740   19.8560 O   0  0  0  0  0  0  0  0  0  0  0  0
  -24.6710  -31.6240   23.0680 C   0  0  0  0  0  0  0  0  0  0  0  0
  -27.4470  -27.3190   19.9250 C   0  0  0  0  0  0  0  0  0  0  0  0
  -23.5000  -30.2100   21.4070 C   0  0  0  0  0  3  0  0  0  0  0  0
  -24.9970  -28.7350   19.9580 C   0  0  0  0  0  0  0  0  0  0  0  0
  -26.0090  -30.6520   21.2050 C   0  0  0  0  0  2  0  0  0  0  0  0
  -26.1360  -29.2900   20.5570 C   0  0  0  0  0  0  0  0  0  0  0  0
  -27.3620  -28.5890   20.5470 C   0  0  0  0  0  3  0  0  0  0  0  0
  -26.2970  -26.7830   19.3110 C   0  0  0  0  0  3  0  0  0  0  0  0
  -25.0710  -27.4770   19.3340 C   0  0  0  0  0  3  0  0  0  0  0  0
  -23.7260  -29.5530   20.0180 C   0  0  0  0  0  2  0  0  0  0  0  0
  -24.7450  -30.8430   21.9530 N   0  0  0  0  0  0  0  0  0  0  0  0
  -23.5860  -31.8550   23.6170 O   0  0  0  0  0  0  0  0  0  0  0  0
  -22.8840  -29.1570   22.3560 C   0  0  0  0  0  0  0  0  0  0  0  0
  -21.5630  -28.9440   22.2350 N   0  0  0  0  0  0  0  0  0  0  0  0
  -23.5900  -28.5350   23.1540 O   0  0  0  0  0  0  0  0  0  0  0  0
  -21.0540  -29.5010   21.5620 H   0  0  0  0  0  0  0  0  0  0  0  0
  -18.2230  -27.6600   22.7320 C   0  0  0  0  0  0  0  0  0  0  0  0
  -20.7750  -27.9730   22.9930 C   0  0  0  0  0  3  0  0  0  0  0  0
  -20.9080  -26.5560   22.3910 C   0  0  0  0  0  2  0  0  0  0  0  0
  -19.8080  -26.2250   21.3780 C   0  0  0  0  0  2  0  0  0  0  0  0
  -18.4270  -26.3270   22.0330 C   0  0  0  0  0  2  0  0  0  0  0  0
  -19.3260  -28.4410   23.1690 C   0  0  0  0  0  0  0  0  0  0  0  0
  -19.0820  -29.6890   23.7810 C   0  0  0  0  0  3  0  0  0  0  0  0
  -17.7670  -30.1570   23.9620 C   0  0  0  0  0  3  0  0  0  0  0  0
  -16.6790  -29.3730   23.5420 C   0  0  0  0  0  3  0  0  0  0  0  0
  -16.9070  -28.1270   22.9330 C   0  0  0  0  0  3  0  0  0  0  0  0
  -25.9420  -32.2800   23.6920 C   0  0  0  0  0  3  0  0  0  0  0  0
  -26.4920  -31.5020   24.9500 C   0  0  1  0  0  0  0  0  0  0  0  0
  -25.4160  -31.2140   26.0220 C   0  0  0  0  0  1  0  0  0  0  0  0
  -27.1110  -30.1500   24.5250 C   0  0  0  0  0  1  0  0  0  0  0  0
  -27.6240  -32.3170   25.6170 C   0  0  0  0  0  1  0  0  0  0  0  0
  -25.5970  -33.6640   24.0450 N   0  0  0  0  0  0  0  0  0  0  0  0
  -25.8840  -34.7340   23.2930 C   0  0  0  0  0  0  0  0  0  0  0  0
  -26.5390  -34.6630   22.2480 O   0  0  0  0  0  0  0  0  0  0  0  0
  -25.0110  -33.7910   24.8570 H   0  0  0  0  0  0  0  0  0  0  0  0
  -24.0820  -36.4640   22.9990 C   0  0  0  0  0  1  0  0  0  0  0  0
  -25.3590  -36.1000   23.7740 C   0  0  0  0  0  3  0  0  0  0  0  0
  -27.4860  -37.0520   24.5470 C   0  0  0  0  0  1  0  0  0  0  0  0
  -26.3480  -37.1930   23.6420 N   0  0  0  0  0  0  0  0  0  0  0  0
  -25.9120  -38.0940   23.8190 H   0  0  0  0  0  0  0  0  0  0  0  0
  1  5  1  0
  3  1  1  0
  3  6  1  0
  4  2  1  0
  5 11  1  0
  5  2  1  0
  6  4  1  0
  6  7  1  1
  8  9  2  0
  8 11  1  0
  9 13  1  0
 10 12  1  0
 11 10  2  0
 12 14  1  0
 13 23  1  0
 13 12  2  0
 15 23  1  0
 16 21  1  0
 17 18  1  0
 17 16  1  0
 19 18  1  0
 19 28  1  0
 19 20  1  0
 21 15  1  0
 21 20  1  0
 22 15  2  0
 23 24  1  0
 25 26  2  0
 26 45  1  0
 27 30  1  0
 27 26  1  0
 28 29  1  0
 28 25  1  0
 29 27  2  0
 30 31  1  0
 31 32  2  0
 33 36  1  0
 33 32  1  0
 34 33  2  0
 35 34  1  0
 35 30  2  0
 36 37  1  0
 37 38  1  0
 38 39  2  0
 40 39  1  0
 40 44  1  0
 41 40  2  0
 42 37  2  0
 42 41  1  0
 43 42  1  0
 45 46  1  0
 46 48  1  0
 46 49  1  0
 47 45  2  0
 50 25  1  0
 50 51  1  0
 52 50  1  0
 53  6  1  0
 53 54  1  0
 55 57  1  0
 55 54  1  0
 56 67  2  0
 57 62  1  0
 58 66  1  0
 58 68  1  0
 59 65  1  0
 59 61  1  0
 60 66  1  0
 61 60  1  0
 62 61  2  0
 63 64  1  0
 63 57  2  0
 64 59  2  0
 65 58  1  0
 66 56  1  0
 68 70  2  0
 69 68  1  0
 71 69  1  0
 72 81  2  0
 72 77  1  0
 73 69  1  0
 73 77  1  0
 74 73  1  0
 75 76  1  0
 75 74  1  0
 76 72  1  0
 77 78  2  0
 78 79  1  0
 80 79  2  0
 81 80  1  0
 82 56  1  0
 82 87  1  0
 82 83  1  0
 83 86  1  1
 83 84  1  0
 85 83  1  0
 87 90  1  0
 88 92  1  0
 88 87  1  0
 89 88  2  0
 92 91  1  0
 94 92  1  0
 94 95  1  0
 94 93  1  0
M  ISO  4  15 100  23 100  54 101  55 101
M  END
>  <TORSDO>  (23) 
F 19

>  <SCORE>  (23) 
-9.243

>  <name>  (23) 
22

>  <ligand_id>  (23) 
22

>  <original_smiles>  (23) 
[H]c1c([H])c([H])c2c(c1[H])C([H])([H])C([H])([H])C([H])([H])C2([H])N([H])C(=O)C1([H])N(C(=O)C([H])(N([H])C(=O)C([H])(N([H])C([H])([H])[H])C([H])([H])[H])C(C([H])([H])[H])(C([H])([H])[H])C([H])([H])[H])C([H])([H])c2c([H])c(OC([H])([H])C([H])([H])[N+]3([H])C([H])([H])C([H])([H])C([H])(c4c([H])c([H])c(N([H])C(=O)N5C([H])([H])C([H])([H])C([H])([H])C([H])(n6nc(-c7c([H])c([H])c(Oc8c([H])c([H])c(F)c([H])c8F)c([H])c7[H])c(C(=O)N([H])[H])c6N([H])[H])C5([H])[H])c(C([H])([H])[H])c4[H])C([H])([H])C3([H])[H])c([H])c([H])c2C1([H])[H]

>  <smiles>  (23) 
[H]c1c([H])c([H])c2c(c1[H])C([H])([H])C([H])([H])C([H])([H])C2([H])N([H])C(=O)C1([H])N(C(=O)C([H])(N([H])C(=O)C([H])(N([H])C([H])([H])[H])C([H])([H])[H])C(C([H])([H])[H])(C([H])([H])[H])C([H])([H])[H])C([H])([H])c2c([H])c(OC([H])([H])C([H])([H])[N+]3([H])C([H])([H])C([H])([H])C([H])(c4c([H])c([H])c(N([H])C(=O)N5C([H])([H])C([H])([H])C([H])([H])C([H])(n6nc(-c7c([H])c([H])c(Oc8c([H])c([H])c(F)c([H])c8F)c([H])c7[H])c(C(=O)N([H])[H])c6N([H])[H])C5([H])[H])c(C([H])([H])[H])c4[H])C([H])([H])C3([H])[H])c([H])c([H])c2C1([H])[H]

$$$$
23:0:0
     RDKit          3D

 91 99  0  0  1  0  0  0  0  0999 V2000
  -27.3830  -20.7710   19.0740 C   0  0  0  0  0  2  0  0  0  0  0  0
  -27.8530  -22.0120   19.8540 C   0  0  0  0  0  2  0  0  0  0  0  0
  -28.0310  -23.2700   18.9860 C   0  0  0  0  0  2  0  0  0  0  0  0
  -28.2930  -24.5000   19.8670 C   0  0  0  0  0  2  0  0  0  0  0  0
  -28.6150  -25.7790   19.0930 C   0  0  0  0  0  2  0  0  0  0  0  0
  -28.4580  -26.8870   19.9740 O   0  0  0  0  0  0  0  0  0  0  0  0
  -24.5970  -31.8890   23.2210 C   0  0  0  0  0  0  0  0  0  0  0  0
  -27.2330  -27.5140   20.0410 C   0  0  0  0  0  0  0  0  0  0  0  0
  -23.3700  -30.4910   21.5900 C   0  0  0  0  0  3  0  0  0  0  0  0
  -24.8090  -28.9620   20.1440 C   0  0  0  0  0  0  0  0  0  0  0  0
  -25.8900  -30.8630   21.3560 C   0  0  0  0  0  2  0  0  0  0  0  0
  -25.9690  -29.4940   20.7170 C   0  0  0  0  0  0  0  0  0  0  0  0
  -27.1790  -28.7710   20.6760 C   0  0  0  0  0  3  0  0  0  0  0  0
  -26.0440  -26.9770   19.4860 C   0  0  0  0  0  3  0  0  0  0  0  0
  -24.8390  -27.6970   19.5350 C   0  0  0  0  0  3  0  0  0  0  0  0
  -23.5600  -29.8090   20.2090 C   0  0  0  0  0  2  0  0  0  0  0  0
  -24.6390  -31.0950   22.1150 N   0  0  0  0  0  0  0  0  0  0  0  0
  -23.5220  -32.1560   23.7750 O   0  0  0  0  0  0  0  0  0  0  0  0
  -22.7320  -29.4680   22.5520 C   0  0  0  0  0  0  0  0  0  0  0  0
  -21.4080  -29.2840   22.4350 N   0  0  0  0  0  0  0  0  0  0  0  0
  -23.4270  -28.8400   23.3560 O   0  0  0  0  0  0  0  0  0  0  0  0
  -20.9100  -29.8470   21.7580 H   0  0  0  0  0  0  0  0  0  0  0  0
  -18.0470  -28.0750   22.9490 C   0  0  0  0  0  0  0  0  0  0  0  0
  -20.6040  -28.3430   23.2090 C   0  0  0  0  0  3  0  0  0  0  0  0
  -20.7080  -26.9130   22.6320 C   0  0  0  0  0  2  0  0  0  0  0  0
  -19.6030  -26.5870   21.6200 C   0  0  0  0  0  2  0  0  0  0  0  0
  -18.2230  -26.7270   22.2700 C   0  0  0  0  0  2  0  0  0  0  0  0
  -19.1630  -28.8410   23.3760 C   0  0  0  0  0  0  0  0  0  0  0  0
  -18.9450  -30.1040   23.9670 C   0  0  0  0  0  3  0  0  0  0  0  0
  -17.6390  -30.6000   24.1470 C   0  0  0  0  0  3  0  0  0  0  0  0
  -16.5360  -29.8320   23.7340 C   0  0  0  0  0  3  0  0  0  0  0  0
  -16.7400  -28.5720   23.1450 C   0  0  0  0  0  3  0  0  0  0  0  0
  -25.8910  -32.5170   23.8260 C   0  0  0  0  0  3  0  0  0  0  0  0
  -26.4320  -31.7340   25.0840 C   0  0  1  0  0  0  0  0  0  0  0  0
  -25.3610  -31.4770   26.1690 C   0  0  0  0  0  1  0  0  0  0  0  0
  -27.0170  -30.3650   24.6660 C   0  0  0  0  0  1  0  0  0  0  0  0
  -27.5950  -32.5200   25.7340 C   0  0  0  0  0  1  0  0  0  0  0  0
  -25.5840  -33.9100   24.1750 N   0  0  0  0  0  0  0  0  0  0  0  0
  -25.9110  -34.9710   23.4240 C   0  0  0  0  0  0  0  0  0  0  0  0
  -26.5730  -34.8780   22.3860 O   0  0  0  0  0  0  0  0  0  0  0  0
  -24.9900  -34.0560   24.9780 H   0  0  0  0  0  0  0  0  0  0  0  0
  -24.1750  -36.7670   23.0970 C   0  0  0  0  0  1  0  0  0  0  0  0
  -25.4230  -36.3530   23.8960 C   0  0  0  0  0  3  0  0  0  0  0  0
  -27.5620  -37.2310   24.7220 C   0  0  0  0  0  1  0  0  0  0  0  0
  -26.4530  -37.4100   23.7880 N   0  0  0  0  0  0  0  0  0  0  0  0
  -26.0460  -38.3250   23.9530 H   0  0  0  0  0  0  0  0  0  0  0  0
  -27.0860  -19.5530   19.9760 C   0  0  0  0  0  2  0  0  0  0  0  0
  -28.2970  -18.9560   20.5930 N   0  0  0  0  0  4  0  0  0  0  0  0
  -29.1070  -19.5190   20.3780 H   0  0  0  0  0  0  0  0  0  0  0  0
  -28.1580  -18.9920   21.5900 H   0  0  0  0  0  0  0  0  0  0  0  0
  -30.7430  -14.6290   20.7620 C   0  0  0  0  0  0  0  0  0  0  0  0
  -30.6190  -12.3590   19.8660 C   0  0  0  0  0  2  0  0  0  0  0  0
  -29.7770  -12.4320   18.5760 C   0  0  0  0  0  2  0  0  0  0  0  0
  -28.2640  -12.3590   18.8900 C   0  0  0  0  0  2  0  0  0  0  0  0
  -27.8070  -13.2460   20.0850 C   0  0  0  0  0  3  0  0  0  0  0  0
  -28.7910  -13.1370   21.2740 C   0  0  0  0  0  2  0  0  0  0  0  0
  -30.1400  -13.4140   20.7630 N   0  0  0  0  0  0  0  0  0  0  0  0
  -31.9610  -14.7890   20.6410 O   0  0  0  0  0  0  0  0  0  0  0  0
  -29.1530  -17.3590   18.8330 C   0  0  0  0  0  2  0  0  0  0  0  0
  -29.8280  -15.9860   18.9170 C   0  0  0  0  0  2  0  0  0  0  0  0
  -29.5210  -16.7770   21.1370 C   0  0  0  0  0  2  0  0  0  0  0  0
  -28.5490  -17.5450   20.2220 C   0  0  0  0  0  3  0  0  0  0  0  0
  -29.9030  -15.6090   20.3460 N   0  0  0  0  0  0  0  0  0  0  0  0
  -25.3600  -13.8330   20.6100 C   0  0  0  0  0  0  0  0  0  0  0  0
  -24.2790  -13.0550   20.9220 C   0  0  0  0  0  0  0  0  0  0  0  0
  -24.7650  -11.7140   20.9690 C   0  0  0  0  0  0  0  0  0  0  0  0
  -26.4310  -12.9640   20.4810 N   0  0  0  0  0  0  0  0  0  0  0  0
  -26.0740  -11.6850   20.7630 N   0  0  0  0  0  0  0  0  0  0  0  0
  -24.0510  -10.4450   21.1340 C   0  0  0  0  0  0  0  0  0  0  0  0
  -24.4530   -9.4930   22.0970 C   0  0  0  0  0  3  0  0  0  0  0  0
  -23.7300   -8.2900   22.2470 C   0  0  0  0  0  3  0  0  0  0  0  0
  -22.6010   -8.0320   21.4360 C   0  0  0  0  0  0  0  0  0  0  0  0
  -22.2300   -8.9700   20.4560 C   0  0  0  0  0  3  0  0  0  0  0  0
  -22.9470  -10.1640   20.3020 C   0  0  0  0  0  3  0  0  0  0  0  0
  -21.8540   -6.8810   21.4930 O   0  0  0  0  0  0  0  0  0  0  0  0
  -21.7710   -6.1360   22.6430 C   0  0  0  0  0  0  0  0  0  0  0  0
  -21.3070   -6.6900   23.8550 C   0  0  0  0  0  3  0  0  0  0  0  0
  -21.1690   -5.8740   24.9950 C   0  0  0  0  0  3  0  0  0  0  0  0
  -21.4900   -4.5040   24.9240 C   0  0  0  0  0  0  0  0  0  0  0  0
  -21.9500   -3.9500   23.7130 C   0  0  0  0  0  3  0  0  0  0  0  0
  -22.0860   -4.7660   22.5770 C   0  0  0  0  0  0  0  0  0  0  0  0
  -22.5080   -4.2210   21.4100 F   0  0  0  0  0  0  0  0  0  0  0  0
  -21.3510   -3.7180   26.0170 F   0  0  0  0  0  0  0  0  0  0  0  0
  -22.8590  -13.5150   21.0660 C   0  0  0  0  0  0  0  0  0  0  0  0
  -22.0810  -12.8330   21.8980 N   0  0  0  0  0  0  0  0  0  0  0  0
  -22.4440  -14.5160   20.4820 O   0  0  0  0  0  0  0  0  0  0  0  0
  -22.4220  -12.0230   22.3930 H   0  0  0  0  0  0  0  0  0  0  0  0
  -21.1210  -13.1120   22.0340 H   0  0  0  0  0  0  0  0  0  0  0  0
  -25.5050  -15.2010   20.3910 N   0  0  0  0  0  0  0  0  0  0  0  0
  -24.7120  -15.8340   20.3670 H   0  0  0  0  0  0  0  0  0  0  0  0
  -26.3540  -15.6000   20.0220 H   0  0  0  0  0  0  0  0  0  0  0  0
  1  2  1  0
  1 47  1  0
  3  2  1  0
  3  4  1  0
  5  4  1  0
  5  6  1  0
  6  8  1  0
  7 18  2  0
  8 13  1  0
  9 17  1  0
  9 19  1  0
 10 16  1  0
 10 12  1  0
 11 17  1  0
 12 11  1  0
 13 12  2  0
 14 15  1  0
 14  8  2  0
 15 10  2  0
 16  9  1  0
 17  7  1  0
 19 21  2  0
 20 19  1  0
 22 20  1  0
 23 32  2  0
 23 28  1  0
 24 20  1  0
 24 28  1  0
 25 24  1  0
 26 27  1  0
 26 25  1  0
 27 23  1  0
 28 29  2  0
 29 30  1  0
 31 30  2  0
 32 31  1  0
 33  7  1  0
 33 38  1  0
 33 34  1  0
 34 37  1  1
 34 35  1  0
 36 34  1  0
 38 41  1  0
 39 43  1  0
 39 38  1  0
 40 39  2  0
 43 42  1  0
 45 43  1  0
 45 46  1  0
 45 44  1  0
 47 48  1  0
 48 50  1  0
 49 48  1  0
 51 57  1  0
 52 57  1  0
 53 54  1  0
 53 52  1  0
 55 54  1  0
 55 67  1  0
 55 56  1  0
 57 56  1  0
 58 51  2  0
 59 60  1  0
 59 62  1  0
 60 63  1  0
 62 48  1  0
 62 61  1  0
 63 51  1  0
 63 61  1  0
 64 65  2  0
 65 66  1  0
 65 84  1  0
 66 69  1  0
 67 64  1  0
 67 68  1  0
 68 66  2  0
 69 70  1  0
 70 71  2  0
 72 75  1  0
 72 71  1  0
 73 72  2  0
 74 73  1  0
 74 69  2  0
 75 76  1  0
 76 77  1  0
 77 78  2  0
 79 78  1  0
 79 83  1  0
 80 79  2  0
 81 76  2  0
 81 80  1  0
 82 81  1  0
 84 85  1  0
 85 88  1  0
 85 87  1  0
 86 84  2  0
 89 64  1  0
 90 89  1  0
 91 89  1  0
M  ISO  4   5 101   6 101  51 100  63 100
M  END
>  <TORSDO>  (24) 
F 22

>  <SCORE>  (24) 
-12.563

>  <name>  (24) 
23

>  <ligand_id>  (24) 
23

>  <original_smiles>  (24) 
[H]c1c([H])c([H])c2c(c1[H])C([H])([H])C([H])([H])C([H])([H])C2([H])N([H])C(=O)C1([H])N(C(=O)C([H])(N([H])C(=O)C([H])(N([H])C([H])([H])[H])C([H])([H])[H])C(C([H])([H])[H])(C([H])([H])[H])C([H])([H])[H])C([H])([H])c2c([H])c(OC([H])([H])C([H])([H])C([H])([H])C([H])([H])C([H])([H])C([H])([H])[N+]([H])([H])C3([H])C([H])([H])N(C(=O)N4C([H])([H])C([H])([H])C([H])([H])C([H])(n5nc(-c6c([H])c([H])c(Oc7c([H])c([H])c(F)c([H])c7F)c([H])c6[H])c(C(=O)N([H])[H])c5N([H])[H])C4([H])[H])C([H])([H])C3([H])[H])c([H])c([H])c2C1([H])[H]

>  <smiles>  (24) 
[H]c1c([H])c([H])c2c(c1[H])C([H])([H])C([H])([H])C([H])([H])C2([H])N([H])C(=O)C1([H])N(C(=O)C([H])(N([H])C(=O)C([H])(N([H])C([H])([H])[H])C([H])([H])[H])C(C([H])([H])[H])(C([H])([H])[H])C([H])([H])[H])C([H])([H])c2c([H])c(OC([H])([H])C([H])([H])C([H])([H])C([H])([H])C([H])([H])C([H])([H])[N+]([H])([H])C3([H])C([H])([H])N(C(=O)N4C([H])([H])C([H])([H])C([H])([H])C([H])(n5nc(-c6c([H])c([H])c(Oc7c([H])c([H])c(F)c([H])c7F)c([H])c6[H])c(C(=O)N([H])[H])c5N([H])[H])C4([H])[H])C([H])([H])C3([H])[H])c([H])c([H])c2C1([H])[H]

$$$$
24:0:0
     RDKit          3D

 90 98  0  0  1  0  0  0  0  0999 V2000
  -27.6770  -21.8480   21.9230 C   0  0  0  0  0  3  0  0  0  0  0  0
  -28.3920  -20.7350   21.4440 C   0  0  0  0  0  3  0  0  0  0  0  0
  -28.0610  -23.1490   21.5510 C   0  0  0  0  0  3  0  0  0  0  0  0
  -29.8790  -22.2270   20.2180 C   0  0  0  0  0  3  0  0  0  0  0  0
  -29.5190  -20.9100   20.6080 C   0  0  0  0  0  0  0  0  0  0  0  0
  -29.1510  -23.3550   20.6760 C   0  0  0  0  0  0  0  0  0  0  0  0
  -30.2960  -19.7430   20.1340 C   0  0  0  0  0  3  0  0  0  0  0  0
  -29.8970  -18.4490   20.1310 C   0  0  0  0  0  3  0  0  0  0  0  0
  -30.7670  -17.2910   19.6600 C   0  0  0  0  0  2  0  0  0  0  0  0
  -31.1260  -14.8660   19.9710 C   0  0  0  0  0  0  0  0  0  0  0  0
  -30.8100  -12.6480   18.9790 C   0  0  0  0  0  2  0  0  0  0  0  0
  -29.8580  -12.8050   17.7770 C   0  0  0  0  0  2  0  0  0  0  0  0
  -28.3920  -12.6670   18.2320 C   0  0  0  0  0  2  0  0  0  0  0  0
  -28.0580  -13.5610   19.4570 C   0  0  0  0  0  3  0  0  0  0  0  0
  -29.1350  -13.4280   20.5600 C   0  0  0  0  0  2  0  0  0  0  0  0
  -30.4470  -13.6890   19.9510 N   0  0  0  0  0  0  0  0  0  0  0  0
  -32.2800  -14.9780   19.5480 O   0  0  0  0  0  0  0  0  0  0  0  0
  -30.3910  -15.9700   20.2020 N   0  0  0  0  0  0  0  0  0  0  0  0
  -29.4420  -15.8360   20.5190 H   0  0  0  0  0  0  0  0  0  0  0  0
  -25.6810  -14.1710   20.2390 C   0  0  0  0  0  0  0  0  0  0  0  0
  -24.6210  -13.4010   20.6350 C   0  0  0  0  0  0  0  0  0  0  0  0
  -25.0770  -12.0480   20.5870 C   0  0  0  0  0  0  0  0  0  0  0  0
  -26.7170  -13.2870   19.9740 N   0  0  0  0  0  0  0  0  0  0  0  0
  -26.3580  -12.0050   20.2450 N   0  0  0  0  0  0  0  0  0  0  0  0
  -24.3500  -10.7860   20.7910 C   0  0  0  0  0  0  0  0  0  0  0  0
  -24.7350   -9.8650   21.7900 C   0  0  0  0  0  3  0  0  0  0  0  0
  -24.0110   -8.6680   21.9770 C   0  0  0  0  0  3  0  0  0  0  0  0
  -22.8870   -8.3850   21.1670 C   0  0  0  0  0  0  0  0  0  0  0  0
  -22.5190   -9.2960   20.1600 C   0  0  0  0  0  3  0  0  0  0  0  0
  -23.2440  -10.4830   19.9700 C   0  0  0  0  0  3  0  0  0  0  0  0
  -22.1350   -7.2370   21.2630 O   0  0  0  0  0  0  0  0  0  0  0  0
  -21.9390   -6.6040   22.4640 C   0  0  0  0  0  0  0  0  0  0  0  0
  -21.3180   -7.2500   23.5550 C   0  0  0  0  0  3  0  0  0  0  0  0
  -21.0700   -6.5410   24.7470 C   0  0  0  0  0  3  0  0  0  0  0  0
  -21.4360   -5.1860   24.8480 C   0  0  0  0  0  0  0  0  0  0  0  0
  -22.0510   -4.5390   23.7620 C   0  0  0  0  0  3  0  0  0  0  0  0
  -22.2990   -5.2460   22.5730 C   0  0  0  0  0  0  0  0  0  0  0  0
  -22.8700   -4.6110   21.5200 F   0  0  0  0  0  0  0  0  0  0  0  0
  -21.1930   -4.5000   25.9890 F   0  0  0  0  0  0  0  0  0  0  0  0
  -23.2310  -13.8830   20.9400 C   0  0  0  0  0  0  0  0  0  0  0  0
  -22.5190  -13.1980   21.8280 N   0  0  0  0  0  0  0  0  0  0  0  0
  -22.7830  -14.9070   20.4250 O   0  0  0  0  0  0  0  0  0  0  0  0
  -22.8930  -12.3780   22.2810 H   0  0  0  0  0  0  0  0  0  0  0  0
  -21.5840  -13.5040   22.0600 H   0  0  0  0  0  0  0  0  0  0  0  0
  -25.8430  -15.5400   20.0570 N   0  0  0  0  0  0  0  0  0  0  0  0
  -25.0770  -16.1960   20.1720 H   0  0  0  0  0  0  0  0  0  0  0  0
  -26.6780  -15.9720   19.6850 H   0  0  0  0  0  0  0  0  0  0  0  0
  -29.5360  -24.7870   20.2730 C   0  0  0  0  0  2  0  0  0  0  0  0
  -28.3820  -25.5700   19.6060 C   0  0  0  0  0  2  0  0  0  0  0  0
  -28.5620  -27.0030   19.5780 O   0  0  0  0  0  0  0  0  0  0  0  0
  -24.7000  -31.8090   23.1440 C   0  0  0  0  0  0  0  0  0  0  0  0
  -27.3890  -27.7340   19.6180 C   0  0  0  0  0  0  0  0  0  0  0  0
  -23.4870  -30.4850   21.4450 C   0  0  0  0  0  3  0  0  0  0  0  0
  -24.9420  -29.1460   19.8340 C   0  0  0  0  0  0  0  0  0  0  0  0
  -25.9860  -30.9720   21.1800 C   0  0  0  0  0  2  0  0  0  0  0  0
  -26.1030  -29.6620   20.4250 C   0  0  0  0  0  0  0  0  0  0  0  0
  -27.3290  -28.9630   20.3170 C   0  0  0  0  0  3  0  0  0  0  0  0
  -26.2100  -27.2550   18.9930 C   0  0  0  0  0  3  0  0  0  0  0  0
  -24.9930  -27.9440   19.1130 C   0  0  0  0  0  3  0  0  0  0  0  0
  -23.6640  -29.9350   20.0060 C   0  0  0  0  0  2  0  0  0  0  0  0
  -24.7440  -31.0980   21.9820 N   0  0  0  0  0  0  0  0  0  0  0  0
  -23.6320  -31.9860   23.7480 O   0  0  0  0  0  0  0  0  0  0  0  0
  -22.9260  -29.3570   22.3420 C   0  0  0  0  0  0  0  0  0  0  0  0
  -21.6160  -29.0880   22.2180 N   0  0  0  0  0  0  0  0  0  0  0  0
  -23.6650  -28.7320   23.1080 O   0  0  0  0  0  0  0  0  0  0  0  0
  -21.0760  -29.6480   21.5740 H   0  0  0  0  0  0  0  0  0  0  0  0
  -18.3480  -27.6110   22.6500 C   0  0  0  0  0  0  0  0  0  0  0  0
  -20.8790  -28.0490   22.9360 C   0  0  0  0  0  3  0  0  0  0  0  0
  -21.0890  -26.6630   22.2800 C   0  0  0  0  0  2  0  0  0  0  0  0
  -20.0110  -26.3140   21.2500 C   0  0  0  0  0  2  0  0  0  0  0  0
  -18.6250  -26.3170   21.9020 C   0  0  0  0  0  2  0  0  0  0  0  0
  -19.4070  -28.4320   23.1210 C   0  0  0  0  0  0  0  0  0  0  0  0
  -19.0930  -29.6420   23.7770 C   0  0  0  0  0  3  0  0  0  0  0  0
  -17.7550  -30.0350   23.9660 C   0  0  0  0  0  3  0  0  0  0  0  0
  -16.7110  -29.2080   23.5140 C   0  0  0  0  0  3  0  0  0  0  0  0
  -17.0080  -27.9980   22.8620 C   0  0  0  0  0  3  0  0  0  0  0  0
  -25.9820  -32.4520   23.7590 C   0  0  0  0  0  3  0  0  0  0  0  0
  -26.5410  -31.6570   25.0020 C   0  0  1  0  0  0  0  0  0  0  0  0
  -25.4760  -31.3600   26.0840 C   0  0  0  0  0  1  0  0  0  0  0  0
  -27.1460  -30.3050   24.5550 C   0  0  0  0  0  1  0  0  0  0  0  0
  -27.6860  -32.4590   25.6640 C   0  0  0  0  0  1  0  0  0  0  0  0
  -25.6540  -33.8360   24.1260 N   0  0  0  0  0  0  0  0  0  0  0  0
  -25.9550  -34.9090   23.3840 C   0  0  0  0  0  0  0  0  0  0  0  0
  -26.6090  -34.8410   22.3410 O   0  0  0  0  0  0  0  0  0  0  0  0
  -25.0760  -33.9640   24.9440 H   0  0  0  0  0  0  0  0  0  0  0  0
  -24.1860  -36.6710   23.0980 C   0  0  0  0  0  1  0  0  0  0  0  0
  -25.4490  -36.2780   23.8790 C   0  0  0  0  0  3  0  0  0  0  0  0
  -27.5760  -37.1920   24.6970 C   0  0  0  0  0  1  0  0  0  0  0  0
  -26.4590  -37.3530   23.7700 N   0  0  0  0  0  0  0  0  0  0  0  0
  -26.0370  -38.2620   23.9370 H   0  0  0  0  0  0  0  0  0  0  0  0
  2  1  2  0
  3  1  1  0
  4  5  2  0
  4  6  1  0
  5  2  1  0
  6  3  2  0
  7  5  1  0
  8  7  2  0
  9  8  1  0
  9 18  1  0
 10 18  1  0
 11 16  1  0
 12 13  1  0
 12 11  1  0
 14 13  1  0
 14 23  1  0
 14 15  1  0
 16 10  1  0
 16 15  1  0
 17 10  2  0
 18 19  1  0
 20 21  2  0
 21 40  1  0
 22 21  1  0
 22 25  1  0
 23 20  1  0
 23 24  1  0
 24 22  2  0
 25 26  1  0
 26 27  2  0
 28 31  1  0
 28 27  1  0
 29 28  2  0
 30 29  1  0
 30 25  2  0
 31 32  1  0
 32 37  2  0
 32 33  1  0
 33 34  2  0
 34 35  1  0
 35 39  1  0
 36 35  2  0
 37 36  1  0
 38 37  1  0
 40 41  1  0
 41 44  1  0
 41 43  1  0
 42 40  2  0
 45 46  1  0
 45 20  1  0
 47 45  1  0
 48  6  1  0
 49 48  1  0
 50 49  1  0
 50 52  1  0
 51 62  2  0
 52 57  1  0
 53 61  1  0
 53 63  1  0
 54 60  1  0
 54 56  1  0
 55 61  1  0
 56 55  1  0
 57 56  2  0
 58 59  1  0
 58 52  2  0
 59 54  2  0
 60 53  1  0
 61 51  1  0
 63 65  2  0
 64 63  1  0
 66 64  1  0
 67 76  2  0
 67 72  1  0
 68 64  1  0
 68 72  1  0
 69 68  1  0
 70 71  1  0
 70 69  1  0
 71 67  1  0
 72 73  2  0
 73 74  1  0
 75 74  2  0
 76 75  1  0
 77 51  1  0
 77 82  1  0
 77 78  1  0
 78 81  1  1
 78 79  1  0
 80 78  1  0
 82 85  1  0
 83 87  1  0
 83 82  1  0
 84 83  2  0
 87 86  1  0
 89 87  1  0
 89 90  1  0
 89 88  1  0
M  ISO  4  10 100  18 100  49 101  50 101
M  END
>  <TORSDO>  (25) 
F 20

>  <SCORE>  (25) 
-11.842

>  <name>  (25) 
24

>  <ligand_id>  (25) 
24

>  <original_smiles>  (25) 
[H]C(=C([H])C([H])([H])N([H])C(=O)N1C([H])([H])C([H])([H])C([H])([H])C([H])(n2nc(-c3c([H])c([H])c(Oc4c([H])c([H])c(F)c([H])c4F)c([H])c3[H])c(C(=O)N([H])[H])c2N([H])[H])C1([H])[H])c1c([H])c([H])c([H])c(C([H])([H])C([H])([H])Oc2c([H])c([H])c3c(c2[H])C([H])([H])N(C(=O)C([H])(N([H])C(=O)C([H])(N([H])C([H])([H])[H])C([H])([H])[H])C(C([H])([H])[H])(C([H])([H])[H])C([H])([H])[H])C([H])(C(=O)N([H])C2([H])c4c([H])c([H])c([H])c([H])c4C([H])([H])C([H])([H])C2([H])[H])C3([H])[H])c1[H]

>  <smiles>  (25) 
[H]C(=C([H])C([H])([H])N([H])C(=O)N1C([H])([H])C([H])([H])C([H])([H])C([H])(n2nc(-c3c([H])c([H])c(Oc4c([H])c([H])c(F)c([H])c4F)c([H])c3[H])c(C(=O)N([H])[H])c2N([H])[H])C1([H])[H])c1c([H])c([H])c([H])c(C([H])([H])C([H])([H])Oc2c([H])c([H])c3c(c2[H])C([H])([H])N(C(=O)C([H])(N([H])C(=O)C([H])(N([H])C([H])([H])[H])C([H])([H])[H])C(C([H])([H])[H])(C([H])([H])[H])C([H])([H])[H])C([H])(C(=O)N([H])C2([H])c4c([H])c([H])c([H])c([H])c4C([H])([H])C([H])([H])C2([H])[H])C3([H])[H])c1[H]

$$$$
25:0:0
     RDKit          3D

 94103  0  0  1  0  0  0  0  0999 V2000
  -25.9160  -23.3980   20.7730 C   0  0  0  0  0  3  0  0  0  0  0  0
  -26.4610  -22.1170   20.6220 C   0  0  0  0  0  3  0  0  0  0  0  0
  -26.7420  -24.5260   20.7200 C   0  0  0  0  0  3  0  0  0  0  0  0
  -28.6710  -23.0830   20.3470 C   0  0  0  0  0  3  0  0  0  0  0  0
  -27.8500  -21.9010   20.4400 C   0  0  0  0  0  0  0  0  0  0  0  0
  -28.1200  -24.4210   20.4480 C   0  0  0  0  0  0  0  0  0  0  0  0
  -29.4790  -19.8170   20.5790 C   0  0  0  0  0  2  0  0  0  0  0  0
  -28.2730  -20.4250   20.4390 C   0  0  0  0  0  3  0  0  0  0  0  0
  -27.2200  -19.3250   20.3620 C   0  0  0  0  0  2  0  0  0  0  0  0
  -27.9560  -17.9780   20.3270 C   0  0  0  0  0  2  0  0  0  0  0  0
  -29.3950  -18.2750   20.7540 C   0  0  0  0  0  3  0  0  0  0  0  0
  -30.4400  -17.3020   20.0810 C   0  0  0  0  0  2  0  0  0  0  0  0
  -30.8880  -14.7830   19.8550 C   0  0  0  0  0  0  0  0  0  0  0  0
  -30.6270  -12.5280   18.8540 C   0  0  0  0  0  2  0  0  0  0  0  0
  -29.6030  -12.6070   17.7010 C   0  0  0  0  0  2  0  0  0  0  0  0
  -28.1700  -12.4180   18.2350 C   0  0  0  0  0  2  0  0  0  0  0  0
  -27.8720  -13.3180   19.4660 C   0  0  0  0  0  3  0  0  0  0  0  0
  -29.0050  -13.2270   20.5140 C   0  0  0  0  0  2  0  0  0  0  0  0
  -30.2690  -13.5640   19.8430 N   0  0  0  0  0  0  0  0  0  0  0  0
  -31.9890  -14.9570   19.3250 O   0  0  0  0  0  0  0  0  0  0  0  0
  -30.1590  -15.8440   20.3020 N   0  0  0  0  0  0  0  0  0  0  0  0
  -29.2770  -15.6190   20.7330 H   0  0  0  0  0  0  0  0  0  0  0  0
  -25.5610  -13.8880   20.4340 C   0  0  0  0  0  0  0  0  0  0  0  0
  -24.5210  -13.1010   20.8470 C   0  0  0  0  0  0  0  0  0  0  0  0
  -24.9570  -11.7510   20.6840 C   0  0  0  0  0  0  0  0  0  0  0  0
  -26.5680  -13.0170   20.0490 N   0  0  0  0  0  0  0  0  0  0  0  0
  -26.2130  -11.7230   20.2570 N   0  0  0  0  0  0  0  0  0  0  0  0
  -24.2320  -10.4860   20.8560 C   0  0  0  0  0  0  0  0  0  0  0  0
  -24.6260   -9.5330   21.8200 C   0  0  0  0  0  3  0  0  0  0  0  0
  -23.9010   -8.3330   21.9790 C   0  0  0  0  0  3  0  0  0  0  0  0
  -22.7670   -8.0760   21.1710 C   0  0  0  0  0  0  0  0  0  0  0  0
  -22.3920   -9.0190   20.1980 C   0  0  0  0  0  3  0  0  0  0  0  0
  -23.1180  -10.2110   20.0370 C   0  0  0  0  0  3  0  0  0  0  0  0
  -22.0180   -6.9260   21.2340 O   0  0  0  0  0  0  0  0  0  0  0  0
  -21.7760   -6.2910   22.4260 C   0  0  0  0  0  0  0  0  0  0  0  0
  -21.1250   -6.9410   23.4980 C   0  0  0  0  0  3  0  0  0  0  0  0
  -20.8340   -6.2290   24.6800 C   0  0  0  0  0  3  0  0  0  0  0  0
  -21.1830   -4.8700   24.7870 C   0  0  0  0  0  0  0  0  0  0  0  0
  -21.8270   -4.2210   23.7200 C   0  0  0  0  0  3  0  0  0  0  0  0
  -22.1200   -4.9290   22.5410 C   0  0  0  0  0  0  0  0  0  0  0  0
  -22.7200   -4.2930   21.5060 F   0  0  0  0  0  0  0  0  0  0  0  0
  -20.8960   -4.1840   25.9190 F   0  0  0  0  0  0  0  0  0  0  0  0
  -23.1620  -13.5720   21.2780 C   0  0  0  0  0  0  0  0  0  0  0  0
  -22.5150  -12.8370   22.1750 N   0  0  0  0  0  0  0  0  0  0  0  0
  -22.6890  -14.6270   20.8590 O   0  0  0  0  0  0  0  0  0  0  0  0
  -22.9150  -11.9830   22.5370 H   0  0  0  0  0  0  0  0  0  0  0  0
  -21.6070  -13.1330   22.5080 H   0  0  0  0  0  0  0  0  0  0  0  0
  -25.7280  -15.2650   20.3320 N   0  0  0  0  0  0  0  0  0  0  0  0
  -24.9780  -15.9160   20.5380 H   0  0  0  0  0  0  0  0  0  0  0  0
  -26.5530  -15.7160   19.9610 H   0  0  0  0  0  0  0  0  0  0  0  0
  -28.9440  -25.7050   20.4330 C   0  0  0  0  0  0  0  0  0  0  0  0
  -29.9940  -25.8300   21.1250 N   0  0  0  0  0  0  0  0  0  0  0  0
  -30.1480  -25.0070   21.6970 H   0  0  0  0  0  0  0  0  0  0  0  0
  -28.5950  -26.7360   19.5420 O   0  0  0  0  0  0  0  0  0  0  0  0
  -24.7040  -31.6940   23.0580 C   0  0  0  0  0  0  0  0  0  0  0  0
  -27.4410  -27.5100   19.6550 C   0  0  0  0  0  0  0  0  0  0  0  0
  -23.5360  -30.3990   21.3070 C   0  0  0  0  0  3  0  0  0  0  0  0
  -25.0290  -29.0200   19.7580 C   0  0  0  0  0  0  0  0  0  0  0  0
  -26.0590  -30.8140   21.1520 C   0  0  0  0  0  2  0  0  0  0  0  0
  -26.1750  -29.4950   20.4070 C   0  0  0  0  0  0  0  0  0  0  0  0
  -27.3830  -28.7450   20.3630 C   0  0  0  0  0  3  0  0  0  0  0  0
  -26.2930  -27.1100   18.9390 C   0  0  0  0  0  3  0  0  0  0  0  0
  -25.0860  -27.8290   19.0180 C   0  0  0  0  0  3  0  0  0  0  0  0
  -23.7650  -29.8440   19.8760 C   0  0  0  0  0  2  0  0  0  0  0  0
  -24.7840  -30.9820   21.8980 N   0  0  0  0  0  0  0  0  0  0  0  0
  -23.6160  -31.8950   23.6160 O   0  0  0  0  0  0  0  0  0  0  0  0
  -22.9090  -29.2880   22.1820 C   0  0  0  0  0  0  0  0  0  0  0  0
  -21.5830  -29.1050   22.0670 N   0  0  0  0  0  0  0  0  0  0  0  0
  -23.6140  -28.5960   22.9220 O   0  0  0  0  0  0  0  0  0  0  0  0
  -21.0740  -29.7170   21.4460 H   0  0  0  0  0  0  0  0  0  0  0  0
  -18.2250  -27.8620   22.5660 C   0  0  0  0  0  0  0  0  0  0  0  0
  -20.7920  -28.0910   22.7640 C   0  0  0  0  0  3  0  0  0  0  0  0
  -20.8660  -26.7310   22.0310 C   0  0  0  0  0  2  0  0  0  0  0  0
  -19.7260  -26.5210   21.0300 C   0  0  0  0  0  2  0  0  0  0  0  0
  -18.3720  -26.5930   21.7420 C   0  0  0  0  0  2  0  0  0  0  0  0
  -19.3620  -28.5750   23.0330 C   0  0  0  0  0  0  0  0  0  0  0  0
  -19.1710  -29.7650   23.7670 C   0  0  0  0  0  3  0  0  0  0  0  0
  -17.8750  -30.2470   24.0330 C   0  0  0  0  0  3  0  0  0  0  0  0
  -16.7530  -29.5290   23.5830 C   0  0  0  0  0  3  0  0  0  0  0  0
  -16.9290  -28.3370   22.8560 C   0  0  0  0  0  3  0  0  0  0  0  0
  -25.9730  -32.3100   23.7260 C   0  0  0  0  0  3  0  0  0  0  0  0
  -26.4870  -31.4780   24.9640 C   0  0  1  0  0  0  0  0  0  0  0  0
  -25.3860  -31.1750   26.0080 C   0  0  0  0  0  1  0  0  0  0  0  0
  -27.0860  -30.1290   24.5050 C   0  0  0  0  0  1  0  0  0  0  0  0
  -27.6230  -32.2480   25.6760 C   0  0  0  0  0  1  0  0  0  0  0  0
  -25.6410  -33.6850   24.1250 N   0  0  0  0  0  0  0  0  0  0  0  0
  -25.9600  -34.7790   23.4220 C   0  0  0  0  0  0  0  0  0  0  0  0
  -26.6370  -34.7380   22.3910 O   0  0  0  0  0  0  0  0  0  0  0  0
  -25.0380  -33.7900   24.9280 H   0  0  0  0  0  0  0  0  0  0  0  0
  -24.2000  -36.5560   23.1610 C   0  0  0  0  0  1  0  0  0  0  0  0
  -25.4510  -36.1350   23.9480 C   0  0  0  0  0  3  0  0  0  0  0  0
  -27.5680  -37.0220   24.8200 C   0  0  0  0  0  1  0  0  0  0  0  0
  -26.4640  -37.2100   23.8820 N   0  0  0  0  0  0  0  0  0  0  0  0
  -26.0400  -38.1160   24.0670 H   0  0  0  0  0  0  0  0  0  0  0  0
  2  1  2  0
  3  1  1  0
  4  5  2  0
  4  6  1  0
  5  2  1  0
  6  3  2  0
  7 11  1  0
  8  5  1  0
  8  7  1  0
  9  8  1  0
 10  9  1  0
 10 11  1  0
 11 12  1  0
 12 21  1  0
 13 21  1  0
 14 19  1  0
 15 16  1  0
 15 14  1  0
 17 16  1  0
 17 26  1  0
 17 18  1  0
 19 13  1  0
 19 18  1  0
 20 13  2  0
 21 22  1  0
 23 24  2  0
 24 43  1  0
 25 24  1  0
 25 28  1  0
 26 27  1  0
 26 23  1  0
 27 25  2  0
 28 29  1  0
 29 30  2  0
 31 34  1  0
 31 30  1  0
 32 31  2  0
 33 32  1  0
 33 28  2  0
 34 35  1  0
 35 40  2  0
 35 36  1  0
 36 37  2  0
 37 38  1  0
 38 42  1  0
 39 38  2  0
 40 39  1  0
 41 40  1  0
 43 44  1  0
 44 47  1  0
 44 46  1  0
 45 43  2  0
 48 23  1  0
 48 49  1  0
 50 48  1  0
 51  6  1  0
 51 52  2  0
 52 53  1  0
 54 56  1  0
 54 51  1  0
 55 66  2  0
 56 61  1  0
 57 65  1  0
 57 67  1  0
 58 64  1  0
 58 60  1  0
 59 65  1  0
 60 59  1  0
 61 60  2  0
 62 63  1  0
 62 56  2  0
 63 58  2  0
 64 57  1  0
 65 55  1  0
 67 69  2  0
 68 67  1  0
 70 68  1  0
 71 80  2  0
 71 76  1  0
 72 68  1  0
 72 76  1  0
 73 72  1  0
 74 75  1  0
 74 73  1  0
 75 71  1  0
 76 77  2  0
 77 78  1  0
 79 78  2  0
 80 79  1  0
 81 55  1  0
 81 86  1  0
 81 82  1  0
 82 85  1  1
 82 83  1  0
 84 82  1  0
 86 89  1  0
 87 91  1  0
 87 86  1  0
 88 87  2  0
 91 90  1  0
 93 91  1  0
 93 94  1  0
 93 92  1  0
M  ISO  4  13 100  21 100  51 101  54 101
M  END
>  <TORSDO>  (26) 
F 19

>  <SCORE>  (26) 
-12.279

>  <name>  (26) 
25

>  <ligand_id>  (26) 
25

>  <original_smiles>  (26) 
[H]N=C(Oc1c([H])c([H])c2c(c1[H])C([H])([H])N(C(=O)C([H])(N([H])C(=O)C([H])(N([H])C([H])([H])[H])C([H])([H])[H])C(C([H])([H])[H])(C([H])([H])[H])C([H])([H])[H])C([H])(C(=O)N([H])C1([H])c3c([H])c([H])c([H])c([H])c3C([H])([H])C([H])([H])C1([H])[H])C2([H])[H])c1c([H])c([H])c([H])c(C2=C([H])C([H])(C([H])([H])N([H])C(=O)N3C([H])([H])C([H])([H])C([H])([H])C([H])(n4nc(-c5c([H])c([H])c(Oc6c([H])c([H])c(F)c([H])c6F)c([H])c5[H])c(C(=O)N([H])[H])c4N([H])[H])C3([H])[H])C([H])([H])C2([H])[H])c1[H]

>  <smiles>  (26) 
[H]N=C(Oc1c([H])c([H])c2c(c1[H])C([H])([H])N(C(=O)C([H])(N([H])C(=O)C([H])(N([H])C([H])([H])[H])C([H])([H])[H])C(C([H])([H])[H])(C([H])([H])[H])C([H])([H])[H])C([H])(C(=O)N([H])C1([H])c3c([H])c([H])c([H])c([H])c3C([H])([H])C([H])([H])C1([H])[H])C2([H])[H])c1c([H])c([H])c([H])c(C2=C([H])C([H])(C([H])([H])N([H])C(=O)N3C([H])([H])C([H])([H])C([H])([H])C([H])(n4nc(-c5c([H])c([H])c(Oc6c([H])c([H])c(F)c([H])c6F)c([H])c5[H])c(C(=O)N([H])[H])c4N([H])[H])C3([H])[H])C([H])([H])C2([H])[H])c1[H]

$$$$
26:0:0
     RDKit          3D

 85 93  0  0  1  0  0  0  0  0999 V2000
  -28.9770  -22.6240   20.2760 C   0  0  0  0  0  3  0  0  0  0  0  0
  -30.4140  -15.4600   20.2440 C   0  0  0  0  0  0  0  0  0  0  0  0
  -30.4150  -12.9880   19.3790 C   0  0  0  0  0  2  0  0  0  0  0  0
  -29.4930  -12.6970   18.1670 C   0  0  0  0  0  2  0  0  0  0  0  0
  -28.0610  -12.3840   18.6310 C   0  0  0  0  0  2  0  0  0  0  0  0
  -27.5910  -13.3600   19.7360 C   0  0  0  0  0  3  0  0  0  0  0  0
  -28.6470  -13.5830   20.8410 C   0  0  0  0  0  2  0  0  0  0  0  0
  -29.8390  -14.1430   20.1760 N   0  0  0  0  0  0  0  0  0  0  0  0
  -31.6430  -15.4070   20.0640 O   0  0  0  0  0  0  0  0  0  0  0  0
  -28.8760  -19.6020   20.2850 C   0  0  0  0  0  0  0  0  0  0  0  0
  -27.7600  -18.5430   20.3290 C   0  0  0  0  0  3  0  0  0  0  0  0
  -30.1050  -18.3950   20.2630 C   0  0  0  0  0  3  0  0  0  0  0  0
  -28.2460  -17.0120   20.3620 C   0  0  0  0  0  3  0  0  0  0  0  0
  -28.4970  -20.9970   20.2810 N   0  0  0  0  0  2  0  0  0  0  0  0
  -29.7070  -16.8010   20.3030 N   0  0  0  0  0  0  0  0  0  0  0  0
  -25.2290  -13.8880   20.5290 C   0  0  0  0  0  0  0  0  0  0  0  0
  -24.1780  -13.1000   20.9010 C   0  0  0  0  0  0  0  0  0  0  0  0
  -24.6570  -11.7550   20.8490 C   0  0  0  0  0  0  0  0  0  0  0  0
  -26.2770  -13.0250   20.2650 N   0  0  0  0  0  0  0  0  0  0  0  0
  -25.9460  -11.7340   20.5250 N   0  0  0  0  0  0  0  0  0  0  0  0
  -23.9400  -10.4860   21.0280 C   0  0  0  0  0  0  0  0  0  0  0  0
  -24.3640   -9.5230   21.9700 C   0  0  0  0  0  3  0  0  0  0  0  0
  -23.6440   -8.3220   22.1410 C   0  0  0  0  0  3  0  0  0  0  0  0
  -22.4840   -8.0740   21.3680 C   0  0  0  0  0  0  0  0  0  0  0  0
  -22.0780   -9.0260   20.4160 C   0  0  0  0  0  3  0  0  0  0  0  0
  -22.8000  -10.2190   20.2440 C   0  0  0  0  0  3  0  0  0  0  0  0
  -21.7360   -6.9250   21.4470 O   0  0  0  0  0  0  0  0  0  0  0  0
  -21.6470   -6.2020   22.6100 C   0  0  0  0  0  0  0  0  0  0  0  0
  -21.1420   -6.7680   23.8010 C   0  0  0  0  0  3  0  0  0  0  0  0
  -21.0040   -5.9710   24.9550 C   0  0  0  0  0  3  0  0  0  0  0  0
  -21.3590   -4.6090   24.9190 C   0  0  0  0  0  0  0  0  0  0  0  0
  -21.8560   -4.0430   23.7320 C   0  0  0  0  0  3  0  0  0  0  0  0
  -21.9970   -4.8380   22.5800 C   0  0  0  0  0  0  0  0  0  0  0  0
  -22.4570   -4.2830   21.4330 F   0  0  0  0  0  0  0  0  0  0  0  0
  -21.2190   -3.8410   26.0240 F   0  0  0  0  0  0  0  0  0  0  0  0
  -22.7810  -13.5660   21.1830 C   0  0  0  0  0  0  0  0  0  0  0  0
  -22.0650  -12.8620   22.0520 N   0  0  0  0  0  0  0  0  0  0  0  0
  -22.3330  -14.5910   20.6710 O   0  0  0  0  0  0  0  0  0  0  0  0
  -22.4420  -12.0330   22.4890 H   0  0  0  0  0  0  0  0  0  0  0  0
  -21.1270  -13.1560   22.2860 H   0  0  0  0  0  0  0  0  0  0  0  0
  -25.3710  -15.2620   20.3640 N   0  0  0  0  0  0  0  0  0  0  0  0
  -24.5920  -15.8990   20.4900 H   0  0  0  0  0  0  0  0  0  0  0  0
  -26.2030  -15.7170   20.0160 H   0  0  0  0  0  0  0  0  0  0  0  0
  -27.9530  -24.1600   20.1880 C   0  0  0  0  0  3  0  0  0  0  0  0
  -28.1870  -25.8240   20.2690 O   0  0  0  0  0  0  0  0  0  0  0  0
  -24.6580  -31.8880   23.2270 C   0  0  0  0  0  0  0  0  0  0  0  0
  -27.1820  -26.9480   20.2180 C   0  0  0  0  0  0  0  0  0  0  0  0
  -23.4550  -30.4940   21.5950 C   0  0  0  0  0  3  0  0  0  0  0  0
  -24.8940  -28.8710   20.1730 C   0  0  0  0  0  0  0  0  0  0  0  0
  -26.0250  -30.6800   21.4450 C   0  0  0  0  0  2  0  0  0  0  0  0
  -26.0880  -29.2640   20.7910 C   0  0  0  0  0  0  0  0  0  0  0  0
  -27.2240  -28.3260   20.7840 C   0  0  0  0  0  3  0  0  0  0  0  0
  -25.9540  -26.7200   19.5540 C   0  0  0  0  0  3  0  0  0  0  0  0
  -24.8560  -27.6210   19.5340 C   0  0  0  0  0  3  0  0  0  0  0  0
  -23.6810  -29.8030   20.2210 C   0  0  0  0  0  2  0  0  0  0  0  0
  -24.7350  -31.0490   22.1420 N   0  0  0  0  0  0  0  0  0  0  0  0
  -23.5700  -32.1850   23.7490 O   0  0  0  0  0  0  0  0  0  0  0  0
  -22.7550  -29.5070   22.5660 C   0  0  0  0  0  0  0  0  0  0  0  0
  -21.4250  -29.3450   22.4440 N   0  0  0  0  0  0  0  0  0  0  0  0
  -23.4180  -28.8840   23.4000 O   0  0  0  0  0  0  0  0  0  0  0  0
  -20.9410  -29.8980   21.7480 H   0  0  0  0  0  0  0  0  0  0  0  0
  -18.0410  -28.1370   22.9570 C   0  0  0  0  0  0  0  0  0  0  0  0
  -20.6000  -28.4110   23.2190 C   0  0  0  0  0  3  0  0  0  0  0  0
  -20.7040  -26.9760   22.6520 C   0  0  0  0  0  2  0  0  0  0  0  0
  -19.6040  -26.6460   21.6390 C   0  0  0  0  0  2  0  0  0  0  0  0
  -18.2210  -26.7870   22.2830 C   0  0  0  0  0  2  0  0  0  0  0  0
  -19.1570  -28.9060   23.3820 C   0  0  0  0  0  0  0  0  0  0  0  0
  -18.9310  -30.1670   23.9770 C   0  0  0  0  0  3  0  0  0  0  0  0
  -17.6230  -30.6590   24.1470 C   0  0  0  0  0  3  0  0  0  0  0  0
  -16.5220  -29.8890   23.7360 C   0  0  0  0  0  3  0  0  0  0  0  0
  -16.7320  -28.6290   23.1470 C   0  0  0  0  0  3  0  0  0  0  0  0
  -25.9310  -32.5300   23.8580 C   0  0  0  0  0  3  0  0  0  0  0  0
  -25.6140  -33.9280   24.2010 N   0  0  0  0  0  0  0  0  0  0  0  0
  -25.9130  -34.9920   23.4440 C   0  0  0  0  0  0  0  0  0  0  0  0
  -26.5450  -34.9020   22.3900 O   0  0  0  0  0  0  0  0  0  0  0  0
  -25.0460  -34.0710   25.0220 H   0  0  0  0  0  0  0  0  0  0  0  0
  -24.1500  -36.7750   23.1950 C   0  0  0  0  0  1  0  0  0  0  0  0
  -25.4390  -36.3780   23.9330 C   0  0  0  0  0  3  0  0  0  0  0  0
  -27.6030  -37.2910   24.6520 C   0  0  0  0  0  1  0  0  0  0  0  0
  -26.4520  -37.4420   23.7660 N   0  0  0  0  0  0  0  0  0  0  0  0
  -26.0430  -38.3580   23.9320 H   0  0  0  0  0  0  0  0  0  0  0  0
  -26.4410  -31.7610   25.1390 C   0  0  1  0  0  0  0  0  0  0  0  0
  -25.3440  -31.5280   26.2060 C   0  0  0  0  0  1  0  0  0  0  0  0
  -27.0240  -30.3810   24.7620 C   0  0  0  0  0  1  0  0  0  0  0  0
  -27.5910  -32.5550   25.8030 C   0  0  0  0  0  1  0  0  0  0  0  0
  1 14  1  0
  2 15  1  0
  3  8  1  0
  4  5  1  0
  4  3  1  0
  6  5  1  0
  6 19  1  0
  6  7  1  0
  8  2  1  0
  8  7  1  0
  9  2  2  0
 10 11  1  0
 11 13  2  0
 12 10  2  0
 12 15  1  0
 14 10  1  0
 15 13  1  0
 16 17  2  0
 17 36  1  0
 18 17  1  0
 18 21  1  0
 19 20  1  0
 19 16  1  0
 20 18  2  0
 21 22  1  0
 22 23  2  0
 24 27  1  0
 24 23  1  0
 25 24  2  0
 26 25  1  0
 26 21  2  0
 27 28  1  0
 28 29  1  0
 29 30  2  0
 31 30  1  0
 31 35  1  0
 32 31  2  0
 33 28  2  0
 33 32  1  0
 34 33  1  0
 36 37  1  0
 37 40  1  0
 37 39  1  0
 38 36  2  0
 41 42  1  0
 41 16  1  0
 43 41  1  0
 44 45  1  0
 44  1  2  0
 46 57  2  0
 47 45  1  0
 47 52  1  0
 48 56  1  0
 48 58  1  0
 49 55  1  0
 49 51  1  0
 50 56  1  0
 51 50  1  0
 52 51  2  0
 53 47  2  0
 54 53  1  0
 54 49  2  0
 55 48  1  0
 56 46  1  0
 58 60  2  0
 59 58  1  0
 61 59  1  0
 62 71  2  0
 62 67  1  0
 63 59  1  0
 63 67  1  0
 64 63  1  0
 65 66  1  0
 65 64  1  0
 66 62  1  0
 67 68  2  0
 68 69  1  0
 70 69  2  0
 71 70  1  0
 72 46  1  0
 72 73  1  0
 72 82  1  0
 73 76  1  0
 74 78  1  0
 74 73  1  0
 75 74  2  0
 78 77  1  0
 80 81  1  0
 80 78  1  0
 80 79  1  0
 82 85  1  1
 82 83  1  0
 84 82  1  0
M  ISO  4   2 100  15 100  44 101  45 101
M  END
>  <TORSDO>  (27) 
F 17

>  <SCORE>  (27) 
-16.667

>  <name>  (27) 
26

>  <ligand_id>  (27) 
26

>  <original_smiles>  (27) 
[H]c1c([H])c([H])c2c(c1[H])C([H])([H])C([H])([H])C([H])([H])C2([H])N([H])C(=O)C1([H])N(C(=O)C([H])(N([H])C(=O)C([H])(N([H])C([H])([H])[H])C([H])([H])[H])C(C([H])([H])[H])(C([H])([H])[H])C([H])([H])[H])C([H])([H])c2c([H])c(OC([H])([H])C([H])([H])N=C3C([H])([H])N(C(=O)N4C([H])([H])C([H])([H])C([H])([H])C([H])(n5nc(-c6c([H])c([H])c(Oc7c([H])c([H])c(F)c([H])c7F)c([H])c6[H])c(C(=O)N([H])[H])c5N([H])[H])C4([H])[H])C([H])([H])C3([H])[H])c([H])c([H])c2C1([H])[H]

>  <smiles>  (27) 
[H]c1c([H])c([H])c2c(c1[H])C([H])([H])C([H])([H])C([H])([H])C2([H])N([H])C(=O)C1([H])N(C(=O)C([H])(N([H])C(=O)C([H])(N([H])C([H])([H])[H])C([H])([H])[H])C(C([H])([H])[H])(C([H])([H])[H])C([H])([H])[H])C([H])([H])c2c([H])c(OC([H])([H])C([H])([H])N=C3C([H])([H])N(C(=O)N4C([H])([H])C([H])([H])C([H])([H])C([H])(n5nc(-c6c([H])c([H])c(Oc7c([H])c([H])c(F)c([H])c7F)c([H])c6[H])c(C(=O)N([H])[H])c5N([H])[H])C4([H])[H])C([H])([H])C3([H])[H])c([H])c([H])c2C1([H])[H]

$$$$
27:0:0
     RDKit          3D

 92100  0  0  1  0  0  0  0  0999 V2000
  -29.9140  -23.0480   20.7700 C   0  0  0  0  0  3  0  0  0  0  0  0
  -28.6840  -23.2540   20.2660 C   0  0  0  0  0  0  0  0  0  0  0  0
  -30.3380  -21.5550   20.9260 C   0  0  0  0  0  2  0  0  0  0  0  0
  -28.1320  -21.7780   20.0040 C   0  0  0  0  0  3  0  0  0  0  0  0
  -29.3340  -20.6560   20.1250 C   0  0  0  0  0  3  0  0  0  0  0  0
  -27.3230  -21.6340   18.7060 C   0  0  0  0  0  0  0  0  0  0  0  0
  -26.0010  -21.7200   18.7910 N   0  0  0  0  0  0  0  0  0  0  0  0
  -27.8780  -21.4710   17.6210 O   0  0  0  0  0  0  0  0  0  0  0  0
  -25.5490  -21.8490   19.6860 H   0  0  0  0  0  0  0  0  0  0  0  0
  -25.4300  -21.6430   17.9600 H   0  0  0  0  0  0  0  0  0  0  0  0
  -27.8400  -24.6480   19.9670 C   0  0  0  0  0  2  0  0  0  0  0  0
  -28.2060  -26.1390   20.2510 O   0  0  0  0  0  0  0  0  0  0  0  0
  -24.6200  -31.8760   23.2310 C   0  0  0  0  0  0  0  0  0  0  0  0
  -27.1750  -27.1570   20.1750 C   0  0  0  0  0  0  0  0  0  0  0  0
  -23.4120  -30.4870   21.5930 C   0  0  0  0  0  3  0  0  0  0  0  0
  -24.8530  -28.9200   20.1560 C   0  0  0  0  0  0  0  0  0  0  0  0
  -25.9690  -30.7450   21.4230 C   0  0  0  0  0  2  0  0  0  0  0  0
  -26.0380  -29.3550   20.7660 C   0  0  0  0  0  0  0  0  0  0  0  0
  -27.1990  -28.4890   20.7610 C   0  0  0  0  0  3  0  0  0  0  0  0
  -25.9640  -26.8380   19.5160 C   0  0  0  0  0  3  0  0  0  0  0  0
  -24.8310  -27.6750   19.5150 C   0  0  0  0  0  3  0  0  0  0  0  0
  -23.6270  -29.8170   20.2120 C   0  0  0  0  0  2  0  0  0  0  0  0
  -24.6870  -31.0580   22.1370 N   0  0  0  0  0  0  0  0  0  0  0  0
  -23.5350  -32.1610   23.7620 O   0  0  0  0  0  0  0  0  0  0  0  0
  -22.7360  -29.4770   22.5540 C   0  0  0  0  0  0  0  0  0  0  0  0
  -21.4070  -29.3080   22.4340 N   0  0  0  0  0  0  0  0  0  0  0  0
  -23.4100  -28.8460   23.3730 O   0  0  0  0  0  0  0  0  0  0  0  0
  -20.9190  -29.8680   21.7480 H   0  0  0  0  0  0  0  0  0  0  0  0
  -18.0260  -28.1120   22.9480 C   0  0  0  0  0  0  0  0  0  0  0  0
  -20.5860  -28.3710   23.2060 C   0  0  0  0  0  3  0  0  0  0  0  0
  -20.6830  -26.9390   22.6300 C   0  0  0  0  0  2  0  0  0  0  0  0
  -19.5770  -26.6180   21.6200 C   0  0  0  0  0  2  0  0  0  0  0  0
  -18.1980  -26.7640   22.2690 C   0  0  0  0  0  2  0  0  0  0  0  0
  -19.1460  -28.8730   23.3740 C   0  0  0  0  0  0  0  0  0  0  0  0
  -18.9300  -30.1340   23.9720 C   0  0  0  0  0  3  0  0  0  0  0  0
  -17.6260  -30.6340   24.1460 C   0  0  0  0  0  3  0  0  0  0  0  0
  -16.5190  -29.8700   23.7350 C   0  0  0  0  0  3  0  0  0  0  0  0
  -16.7200  -28.6100   23.1430 C   0  0  0  0  0  3  0  0  0  0  0  0
  -25.9010  -32.5090   23.8540 C   0  0  0  0  0  3  0  0  0  0  0  0
  -26.4200  -31.7310   25.1260 C   0  0  1  0  0  0  0  0  0  0  0  0
  -25.3300  -31.4860   26.1960 C   0  0  0  0  0  1  0  0  0  0  0  0
  -27.0040  -30.3550   24.7300 C   0  0  0  0  0  1  0  0  0  0  0  0
  -27.5720  -32.5230   25.7880 C   0  0  0  0  0  1  0  0  0  0  0  0
  -25.5850  -33.9040   24.2010 N   0  0  0  0  0  0  0  0  0  0  0  0
  -25.8860  -34.9680   23.4440 C   0  0  0  0  0  0  0  0  0  0  0  0
  -26.5260  -34.8780   22.3930 O   0  0  0  0  0  0  0  0  0  0  0  0
  -25.0120  -34.0470   25.0200 H   0  0  0  0  0  0  0  0  0  0  0  0
  -24.1250  -36.7460   23.1760 C   0  0  0  0  0  1  0  0  0  0  0  0
  -25.4050  -36.3510   23.9300 C   0  0  0  0  0  3  0  0  0  0  0  0
  -27.5640  -37.2590   24.6690 C   0  0  0  0  0  1  0  0  0  0  0  0
  -26.4200  -37.4160   23.7750 N   0  0  0  0  0  0  0  0  0  0  0  0
  -26.0100  -38.3310   23.9410 H   0  0  0  0  0  0  0  0  0  0  0  0
  -29.0960  -19.0210   20.5360 C   0  0  0  0  0  3  0  0  0  0  0  0
  -30.1160  -17.7030   20.2480 C   0  0  0  0  0  3  0  0  0  0  0  0
  -30.5120  -14.9790   20.3090 C   0  0  0  0  0  0  0  0  0  0  0  0
  -30.3690  -12.6350   19.3570 C   0  0  0  0  0  2  0  0  0  0  0  0
  -29.4340  -12.6130   18.1260 C   0  0  0  0  0  2  0  0  0  0  0  0
  -27.9710  -12.4050   18.5610 C   0  0  0  0  0  2  0  0  0  0  0  0
  -27.5720  -13.3160   19.7520 C   0  0  0  0  0  3  0  0  0  0  0  0
  -28.6330  -13.3170   20.8740 C   0  0  0  0  0  2  0  0  0  0  0  0
  -29.9040  -13.7250   20.2630 N   0  0  0  0  0  0  0  0  0  0  0  0
  -31.7080  -15.0350   20.0050 O   0  0  0  0  0  0  0  0  0  0  0  0
  -29.7570  -16.1750   20.4780 N   0  0  0  0  0  0  0  0  0  0  0  0
  -28.7870  -16.0050   20.7030 H   0  0  0  0  0  0  0  0  0  0  0  0
  -25.1920  -13.8890   20.4980 C   0  0  0  0  0  0  0  0  0  0  0  0
  -24.1310  -13.1110   20.8680 C   0  0  0  0  0  0  0  0  0  0  0  0
  -24.5970  -11.7620   20.8320 C   0  0  0  0  0  0  0  0  0  0  0  0
  -26.2360  -13.0140   20.2520 N   0  0  0  0  0  0  0  0  0  0  0  0
  -25.8870  -11.7290   20.5190 N   0  0  0  0  0  0  0  0  0  0  0  0
  -23.8710  -10.4980   21.0200 C   0  0  0  0  0  0  0  0  0  0  0  0
  -24.2950   -9.5340   21.9610 C   0  0  0  0  0  3  0  0  0  0  0  0
  -23.5680   -8.3370   22.1370 C   0  0  0  0  0  3  0  0  0  0  0  0
  -22.4040   -8.0940   21.3710 C   0  0  0  0  0  0  0  0  0  0  0  0
  -21.9990   -9.0460   20.4180 C   0  0  0  0  0  3  0  0  0  0  0  0
  -22.7270  -10.2350   20.2410 C   0  0  0  0  0  3  0  0  0  0  0  0
  -21.6500   -6.9480   21.4550 O   0  0  0  0  0  0  0  0  0  0  0  0
  -21.5770   -6.2180   22.6140 C   0  0  0  0  0  0  0  0  0  0  0  0
  -21.1150   -6.7830   23.8220 C   0  0  0  0  0  3  0  0  0  0  0  0
  -20.9900   -5.9790   24.9730 C   0  0  0  0  0  3  0  0  0  0  0  0
  -21.3180   -4.6100   24.9150 C   0  0  0  0  0  0  0  0  0  0  0  0
  -21.7730   -4.0460   23.7110 C   0  0  0  0  0  3  0  0  0  0  0  0
  -21.8990   -4.8470   22.5630 C   0  0  0  0  0  0  0  0  0  0  0  0
  -22.3180   -4.2920   21.3990 F   0  0  0  0  0  0  0  0  0  0  0  0
  -21.1910   -3.8350   26.0180 F   0  0  0  0  0  0  0  0  0  0  0  0
  -22.7330  -13.5860   21.1420 C   0  0  0  0  0  0  0  0  0  0  0  0
  -22.0050  -12.8880   22.0050 N   0  0  0  0  0  0  0  0  0  0  0  0
  -22.2950  -14.6130   20.6230 O   0  0  0  0  0  0  0  0  0  0  0  0
  -22.3740  -12.0580   22.4470 H   0  0  0  0  0  0  0  0  0  0  0  0
  -21.0680  -13.1900   22.2320 H   0  0  0  0  0  0  0  0  0  0  0  0
  -25.3530  -15.2610   20.3220 N   0  0  0  0  0  0  0  0  0  0  0  0
  -24.5810  -15.9090   20.4300 H   0  0  0  0  0  0  0  0  0  0  0  0
  -26.1890  -15.7000   19.9580 H   0  0  0  0  0  0  0  0  0  0  0  0
  1  3  1  0
  2  1  2  0
  4  6  1  0
  4  5  1  0
  4  2  1  0
  5 53  1  0
  5  3  1  0
  6  7  1  0
  7  9  1  0
  8  6  2  0
 10  7  1  0
 11 12  1  0
 11  2  1  0
 13 24  2  0
 14 12  1  0
 14 19  1  0
 15 23  1  0
 15 25  1  0
 16 22  1  0
 16 18  1  0
 17 23  1  0
 18 17  1  0
 19 18  2  0
 20 14  2  0
 21 20  1  0
 21 16  2  0
 22 15  1  0
 23 13  1  0
 25 27  2  0
 26 25  1  0
 28 26  1  0
 29 38  2  0
 29 34  1  0
 30 26  1  0
 30 34  1  0
 31 30  1  0
 32 33  1  0
 32 31  1  0
 33 29  1  0
 34 35  2  0
 35 36  1  0
 37 36  2  0
 38 37  1  0
 39 13  1  0
 39 44  1  0
 39 40  1  0
 40 43  1  1
 40 41  1  0
 42 40  1  0
 44 47  1  0
 45 49  1  0
 45 44  1  0
 46 45  2  0
 49 48  1  0
 51 49  1  0
 51 52  1  0
 51 50  1  0
 54 63  1  0
 54 53  2  0
 55 63  1  0
 56 61  1  0
 57 58  1  0
 57 56  1  0
 59 58  1  0
 59 68  1  0
 59 60  1  0
 61 55  1  0
 61 60  1  0
 62 55  2  0
 63 64  1  0
 65 66  2  0
 66 85  1  0
 67 66  1  0
 67 70  1  0
 68 65  1  0
 68 69  1  0
 69 67  2  0
 70 71  1  0
 71 72  2  0
 73 76  1  0
 73 72  1  0
 74 73  2  0
 75 74  1  0
 75 70  2  0
 76 77  1  0
 77 78  1  0
 78 79  2  0
 80 79  1  0
 80 84  1  0
 81 80  2  0
 82 77  2  0
 82 81  1  0
 83 82  1  0
 85 86  1  0
 86 89  1  0
 86 88  1  0
 87 85  2  0
 90 91  1  0
 90 65  1  0
 92 90  1  0
M  ISO  4  11 101  12 101  55 100  63 100
M  END
>  <TORSDO>  (28) 
F 20

>  <SCORE>  (28) 
-14.670

>  <name>  (28) 
27

>  <ligand_id>  (28) 
27

>  <original_smiles>  (28) 
[H]C1=C(C([H])([H])Oc2c([H])c([H])c3c(c2[H])C([H])([H])N(C(=O)C([H])(N([H])C(=O)C([H])(N([H])C([H])([H])[H])C([H])([H])[H])C(C([H])([H])[H])(C([H])([H])[H])C([H])([H])[H])C([H])(C(=O)N([H])C2([H])c4c([H])c([H])c([H])c([H])c4C([H])([H])C([H])([H])C2([H])[H])C3([H])[H])C([H])(C(=O)N([H])[H])C([H])(C([H])([H])C([H])([H])N([H])C(=O)N2C([H])([H])C([H])([H])C([H])([H])C([H])(n3nc(-c4c([H])c([H])c(Oc5c([H])c([H])c(F)c([H])c5F)c([H])c4[H])c(C(=O)N([H])[H])c3N([H])[H])C2([H])[H])C1([H])[H]

>  <smiles>  (28) 
[H]C1=C(C([H])([H])Oc2c([H])c([H])c3c(c2[H])C([H])([H])N(C(=O)C([H])(N([H])C(=O)C([H])(N([H])C([H])([H])[H])C([H])([H])[H])C(C([H])([H])[H])(C([H])([H])[H])C([H])([H])[H])C([H])(C(=O)N([H])C2([H])c4c([H])c([H])c([H])c([H])c4C([H])([H])C([H])([H])C2([H])[H])C3([H])[H])C([H])(C(=O)N([H])[H])C([H])(C([H])([H])C([H])([H])N([H])C(=O)N2C([H])([H])C([H])([H])C([H])([H])C([H])(n3nc(-c4c([H])c([H])c(Oc5c([H])c([H])c(F)c([H])c5F)c([H])c4[H])c(C(=O)N([H])[H])c3N([H])[H])C2([H])[H])C1([H])[H]

$$$$
28:0:0
     RDKit          3D

 93101  0  0  1  0  0  0  0  0999 V2000
  -29.5190  -21.3960   19.0370 C   0  0  0  0  0  0  0  0  0  0  0  0
  -28.6020  -18.9220   20.9660 C   0  0  0  0  0  2  0  0  0  0  0  0
  -27.9110  -20.3100   21.2130 C   0  0  0  0  0  2  0  0  0  0  0  0
  -29.2270  -22.3170   20.2950 C   0  0  0  0  0  3  0  0  0  0  0  0
  -29.8860  -18.9240   20.1000 C   0  0  0  0  0  3  0  0  0  0  0  0
  -29.7860  -20.0320   19.0660 N   0  0  0  0  0  0  0  0  0  0  0  0
  -28.8350  -21.4610   21.4630 N   0  0  0  0  0  4  0  0  0  0  0  0
  -29.5050  -21.9450   17.9360 O   0  0  0  0  0  0  0  0  0  0  0  0
  -29.9570  -19.6830   18.1320 H   0  0  0  0  0  0  0  0  0  0  0  0
  -29.6760  -21.0980   21.8800 H   0  0  0  0  0  0  0  0  0  0  0  0
  -28.4130  -22.0600   22.1520 H   0  0  0  0  0  0  0  0  0  0  0  0
  -28.3480  -23.7230   20.2080 C   0  0  0  0  0  2  0  0  0  0  0  0
  -28.7240  -25.0850   19.3880 C   0  0  0  0  0  2  0  0  0  0  0  0
  -28.5700  -26.5040   19.9130 O   0  0  0  0  0  0  0  0  0  0  0  0
  -24.6620  -31.7520   23.0470 C   0  0  0  0  0  0  0  0  0  0  0  0
  -27.4160  -27.3260   19.8460 C   0  0  0  0  0  0  0  0  0  0  0  0
  -23.5030  -30.3660   21.3650 C   0  0  0  0  0  3  0  0  0  0  0  0
  -25.0020  -28.9020   19.8820 C   0  0  0  0  0  0  0  0  0  0  0  0
  -26.0330  -30.7610   21.1900 C   0  0  0  0  0  2  0  0  0  0  0  0
  -26.1560  -29.4010   20.4960 C   0  0  0  0  0  0  0  0  0  0  0  0
  -27.3600  -28.6250   20.4640 C   0  0  0  0  0  3  0  0  0  0  0  0
  -26.2360  -26.8920   19.2080 C   0  0  0  0  0  3  0  0  0  0  0  0
  -25.0490  -27.6580   19.2250 C   0  0  0  0  0  3  0  0  0  0  0  0
  -23.7370  -29.7380   19.9630 C   0  0  0  0  0  2  0  0  0  0  0  0
  -24.7510  -30.9790   21.9240 N   0  0  0  0  0  0  0  0  0  0  0  0
  -23.5710  -31.9750   23.5930 O   0  0  0  0  0  0  0  0  0  0  0  0
  -22.8760  -29.3000   22.2960 C   0  0  0  0  0  0  0  0  0  0  0  0
  -21.5530  -29.0930   22.1790 N   0  0  0  0  0  0  0  0  0  0  0  0
  -23.5790  -28.6630   23.0850 O   0  0  0  0  0  0  0  0  0  0  0  0
  -21.0420  -29.6610   21.5180 H   0  0  0  0  0  0  0  0  0  0  0  0
  -18.2090  -27.8070   22.7000 C   0  0  0  0  0  0  0  0  0  0  0  0
  -20.7690  -28.1050   22.9240 C   0  0  0  0  0  3  0  0  0  0  0  0
  -20.8840  -26.7050   22.2780 C   0  0  0  0  0  2  0  0  0  0  0  0
  -19.7640  -26.4080   21.2750 C   0  0  0  0  0  2  0  0  0  0  0  0
  -18.3950  -26.4950   21.9560 C   0  0  0  0  0  2  0  0  0  0  0  0
  -19.3240  -28.5700   23.1400 C   0  0  0  0  0  0  0  0  0  0  0  0
  -19.0940  -29.7980   23.7980 C   0  0  0  0  0  3  0  0  0  0  0  0
  -17.7830  -30.2640   24.0180 C   0  0  0  0  0  3  0  0  0  0  0  0
  -16.6840  -29.4970   23.5920 C   0  0  0  0  0  3  0  0  0  0  0  0
  -16.8990  -28.2700   22.9390 C   0  0  0  0  0  3  0  0  0  0  0  0
  -25.9220  -32.4110   23.6900 C   0  0  0  0  0  3  0  0  0  0  0  0
  -26.4720  -31.6150   24.9360 C   0  0  1  0  0  0  0  0  0  0  0  0
  -25.3920  -31.2970   25.9970 C   0  0  0  0  0  1  0  0  0  0  0  0
  -27.1080  -30.2760   24.4950 C   0  0  0  0  0  1  0  0  0  0  0  0
  -27.5930  -32.4280   25.6260 C   0  0  0  0  0  1  0  0  0  0  0  0
  -25.5620  -33.7830   24.0740 N   0  0  0  0  0  0  0  0  0  0  0  0
  -25.8460  -34.8770   23.3550 C   0  0  0  0  0  0  0  0  0  0  0  0
  -26.5070  -34.8390   22.3150 O   0  0  0  0  0  0  0  0  0  0  0  0
  -24.9700  -33.8830   24.8870 H   0  0  0  0  0  0  0  0  0  0  0  0
  -24.0480  -36.6180   23.0890 C   0  0  0  0  0  1  0  0  0  0  0  0
  -25.3130  -36.2280   23.8720 C   0  0  0  0  0  3  0  0  0  0  0  0
  -27.4160  -37.1690   24.7250 C   0  0  0  0  0  1  0  0  0  0  0  0
  -26.3040  -37.3240   23.7890 N   0  0  0  0  0  0  0  0  0  0  0  0
  -25.8640  -38.2220   23.9660 H   0  0  0  0  0  0  0  0  0  0  0  0
  -30.3620  -17.4690   19.4870 C   0  0  0  0  0  2  0  0  0  0  0  0
  -30.9260  -14.9310   19.9280 C   0  0  0  0  0  0  0  0  0  0  0  0
  -30.6890  -12.6320   18.9700 C   0  0  0  0  0  2  0  0  0  0  0  0
  -29.7020  -12.6940   17.7830 C   0  0  0  0  0  2  0  0  0  0  0  0
  -28.2520  -12.5220   18.2760 C   0  0  0  0  0  2  0  0  0  0  0  0
  -27.9330  -13.4150   19.5040 C   0  0  0  0  0  3  0  0  0  0  0  0
  -29.0380  -13.3450   20.5800 C   0  0  0  0  0  2  0  0  0  0  0  0
  -30.3050  -13.6980   19.9300 N   0  0  0  0  0  0  0  0  0  0  0  0
  -32.0870  -15.0170   19.5200 O   0  0  0  0  0  0  0  0  0  0  0  0
  -30.1670  -16.0840   20.1360 N   0  0  0  0  0  0  0  0  0  0  0  0
  -29.2430  -15.9120   20.5050 H   0  0  0  0  0  0  0  0  0  0  0  0
  -25.5990  -14.0130   20.3810 C   0  0  0  0  0  0  0  0  0  0  0  0
  -24.5430  -13.2420   20.7860 C   0  0  0  0  0  0  0  0  0  0  0  0
  -24.9830  -11.8870   20.6860 C   0  0  0  0  0  0  0  0  0  0  0  0
  -26.6130  -13.1280   20.0580 N   0  0  0  0  0  0  0  0  0  0  0  0
  -26.2540  -11.8410   20.3050 N   0  0  0  0  0  0  0  0  0  0  0  0
  -24.2470  -10.6300   20.8750 C   0  0  0  0  0  0  0  0  0  0  0  0
  -24.6410   -9.6810   21.8440 C   0  0  0  0  0  3  0  0  0  0  0  0
  -23.9040   -8.4910   22.0190 C   0  0  0  0  0  3  0  0  0  0  0  0
  -22.7590   -8.2410   21.2260 C   0  0  0  0  0  0  0  0  0  0  0  0
  -22.3860   -9.1780   20.2460 C   0  0  0  0  0  3  0  0  0  0  0  0
  -23.1240  -10.3600   20.0690 C   0  0  0  0  0  3  0  0  0  0  0  0
  -21.9980   -7.1000   21.3080 O   0  0  0  0  0  0  0  0  0  0  0  0
  -21.8050   -6.4470   22.5000 C   0  0  0  0  0  0  0  0  0  0  0  0
  -21.1870   -7.0770   23.6020 C   0  0  0  0  0  3  0  0  0  0  0  0
  -20.9460   -6.3490   24.7840 C   0  0  0  0  0  3  0  0  0  0  0  0
  -21.3100   -4.9920   24.8640 C   0  0  0  0  0  0  0  0  0  0  0  0
  -21.9210   -4.3620   23.7640 C   0  0  0  0  0  3  0  0  0  0  0  0
  -22.1640   -5.0870   22.5850 C   0  0  0  0  0  0  0  0  0  0  0  0
  -22.7330   -4.4690   21.5220 F   0  0  0  0  0  0  0  0  0  0  0  0
  -21.0720   -4.2900   25.9960 F   0  0  0  0  0  0  0  0  0  0  0  0
  -23.1700  -13.7310   21.1470 C   0  0  0  0  0  0  0  0  0  0  0  0
  -22.4850  -13.0260   22.0390 N   0  0  0  0  0  0  0  0  0  0  0  0
  -22.7200  -14.7740   20.6750 O   0  0  0  0  0  0  0  0  0  0  0  0
  -22.8670  -12.1870   22.4480 H   0  0  0  0  0  0  0  0  0  0  0  0
  -21.5650  -13.3360   22.3230 H   0  0  0  0  0  0  0  0  0  0  0  0
  -25.7760  -15.3870   20.2350 N   0  0  0  0  0  0  0  0  0  0  0  0
  -25.0190  -16.0440   20.3890 H   0  0  0  0  0  0  0  0  0  0  0  0
  -26.5960  -15.8190   19.8310 H   0  0  0  0  0  0  0  0  0  0  0  0
  1  6  1  0
  1  4  1  0
  2  3  1  0
  3  7  1  0
  4 12  1  0
  4  7  1  0
  5 55  1  0
  5  2  1  0
  6  5  1  0
  7 10  1  0
  7 11  1  0
  8  1  2  0
  9  6  1  0
 13 14  1  0
 13 12  1  0
 15 26  2  0
 16 14  1  0
 16 21  1  0
 17 25  1  0
 17 27  1  0
 18 24  1  0
 18 20  1  0
 19 25  1  0
 20 19  1  0
 21 20  2  0
 22 23  1  0
 22 16  2  0
 23 18  2  0
 24 17  1  0
 25 15  1  0
 27 29  2  0
 28 27  1  0
 30 28  1  0
 31 40  2  0
 31 36  1  0
 32 28  1  0
 32 36  1  0
 33 32  1  0
 34 35  1  0
 34 33  1  0
 35 31  1  0
 36 37  2  0
 37 38  1  0
 39 38  2  0
 40 39  1  0
 41 15  1  0
 41 46  1  0
 41 42  1  0
 42 45  1  1
 42 43  1  0
 44 42  1  0
 46 49  1  0
 47 51  1  0
 47 46  1  0
 48 47  2  0
 51 50  1  0
 53 51  1  0
 53 54  1  0
 53 52  1  0
 55 64  1  0
 56 62  1  0
 56 64  1  0
 57 62  1  0
 58 59  1  0
 58 57  1  0
 60 59  1  0
 60 69  1  0
 60 61  1  0
 62 61  1  0
 63 56  2  0
 64 65  1  0
 66 67  2  0
 67 86  1  0
 68 67  1  0
 68 71  1  0
 69 70  1  0
 69 66  1  0
 70 68  2  0
 71 72  1  0
 72 73  2  0
 74 77  1  0
 74 73  1  0
 75 74  2  0
 76 75  1  0
 76 71  2  0
 77 78  1  0
 78 83  2  0
 78 79  1  0
 79 80  2  0
 80 81  1  0
 81 85  1  0
 82 81  2  0
 83 82  1  0
 84 83  1  0
 86 87  1  0
 87 90  1  0
 87 89  1  0
 88 86  2  0
 91 66  1  0
 91 92  1  0
 93 91  1  0
M  ISO  4  13 101  14 101  56 100  64 100
M  END
>  <TORSDO>  (29) 
F 19

>  <SCORE>  (29) 
-12.476

>  <name>  (29) 
28

>  <ligand_id>  (29) 
28

>  <original_smiles>  (29) 
[H]c1c([H])c([H])c2c(c1[H])C([H])([H])C([H])([H])C([H])([H])C2([H])N([H])C(=O)C1([H])N(C(=O)C([H])(N([H])C(=O)C([H])(N([H])C([H])([H])[H])C([H])([H])[H])C(C([H])([H])[H])(C([H])([H])[H])C([H])([H])[H])C([H])([H])c2c([H])c(OC([H])([H])C([H])([H])C3([H])C(=O)N([H])C([H])(C([H])([H])N([H])C(=O)N4C([H])([H])C([H])([H])C([H])([H])C([H])(n5nc(-c6c([H])c([H])c(Oc7c([H])c([H])c(F)c([H])c7F)c([H])c6[H])c(C(=O)N([H])[H])c5N([H])[H])C4([H])[H])C([H])([H])C([H])([H])[N+]3([H])[H])c([H])c([H])c2C1([H])[H]

>  <smiles>  (29) 
[H]c1c([H])c([H])c2c(c1[H])C([H])([H])C([H])([H])C([H])([H])C2([H])N([H])C(=O)C1([H])N(C(=O)C([H])(N([H])C(=O)C([H])(N([H])C([H])([H])[H])C([H])([H])[H])C(C([H])([H])[H])(C([H])([H])[H])C([H])([H])[H])C([H])([H])c2c([H])c(OC([H])([H])C([H])([H])C3([H])C(=O)N([H])C([H])(C([H])([H])N([H])C(=O)N4C([H])([H])C([H])([H])C([H])([H])C([H])(n5nc(-c6c([H])c([H])c(Oc7c([H])c([H])c(F)c([H])c7F)c([H])c6[H])c(C(=O)N([H])[H])c5N([H])[H])C4([H])[H])C([H])([H])C([H])([H])[N+]3([H])[H])c([H])c([H])c2C1([H])[H]

$$$$
29:0:0
     RDKit          3D

 93102  0  0  1  0  0  0  0  0999 V2000
  -28.1260  -21.8800   20.0910 C   0  0  0  0  0  3  0  0  0  0  0  0
  -30.2050  -23.8030   20.1120 C   0  0  0  0  0  3  0  0  0  0  0  0
  -29.3560  -21.3830   20.3580 C   0  0  0  0  0  0  0  0  0  0  0  0
  -28.9720  -24.2890   19.8560 C   0  0  0  0  0  0  0  0  0  0  0  0
  -30.5360  -22.3500   20.4760 C   0  0  0  0  0  3  0  0  0  0  0  0
  -27.7620  -23.3610   19.9180 C   0  0  0  0  0  3  0  0  0  0  0  0
  -30.4510  -19.3090   21.3630 C   0  0  0  0  0  3  0  0  0  0  0  0
  -30.5860  -17.8990   21.4570 C   0  0  0  0  0  3  0  0  0  0  0  0
  -28.9010  -19.0320   19.5280 C   0  0  0  0  0  3  0  0  0  0  0  0
  -29.5810  -19.8980   20.4140 C   0  0  0  0  0  0  0  0  0  0  0  0
  -29.0490  -17.6220   19.5970 C   0  0  0  0  0  0  0  0  0  0  0  0
  -29.8810  -17.0290   20.5890 C   0  0  0  0  0  0  0  0  0  0  0  0
  -28.2710  -16.7860   18.5970 C   0  0  0  0  0  1  0  0  0  0  0  0
  -30.6400  -14.6230   20.3630 C   0  0  0  0  0  0  0  0  0  0  0  0
  -30.4090  -12.4230   19.2530 C   0  0  0  0  0  2  0  0  0  0  0  0
  -29.4410  -12.5960   18.0620 C   0  0  0  0  0  2  0  0  0  0  0  0
  -27.9720  -12.4460   18.5130 C   0  0  0  0  0  2  0  0  0  0  0  0
  -27.6450  -13.2730   19.7850 C   0  0  0  0  0  3  0  0  0  0  0  0
  -28.7220  -13.0620   20.8720 C   0  0  0  0  0  2  0  0  0  0  0  0
  -30.0290  -13.4060   20.2820 N   0  0  0  0  0  0  0  0  0  0  0  0
  -31.7690  -14.8350   19.9090 O   0  0  0  0  0  0  0  0  0  0  0  0
  -29.8520  -15.6140   20.8500 N   0  0  0  0  0  0  0  0  0  0  0  0
  -28.9750  -15.2720   21.2120 H   0  0  0  0  0  0  0  0  0  0  0  0
  -25.2620  -13.8770   20.5440 C   0  0  0  0  0  0  0  0  0  0  0  0
  -24.1980  -13.1010   20.9170 C   0  0  0  0  0  0  0  0  0  0  0  0
  -24.6540  -11.7500   20.8550 C   0  0  0  0  0  0  0  0  0  0  0  0
  -26.2990  -12.9960   20.2810 N   0  0  0  0  0  0  0  0  0  0  0  0
  -25.9390  -11.7110   20.5240 N   0  0  0  0  0  0  0  0  0  0  0  0
  -23.9300  -10.4860   21.0370 C   0  0  0  0  0  0  0  0  0  0  0  0
  -24.3550   -9.5200   21.9760 C   0  0  0  0  0  3  0  0  0  0  0  0
  -23.6300   -8.3210   22.1450 C   0  0  0  0  0  3  0  0  0  0  0  0
  -22.4680   -8.0790   21.3750 C   0  0  0  0  0  0  0  0  0  0  0  0
  -22.0630   -9.0340   20.4260 C   0  0  0  0  0  3  0  0  0  0  0  0
  -22.7870  -10.2250   20.2550 C   0  0  0  0  0  3  0  0  0  0  0  0
  -21.7170   -6.9310   21.4530 O   0  0  0  0  0  0  0  0  0  0  0  0
  -21.6300   -6.2060   22.6130 C   0  0  0  0  0  0  0  0  0  0  0  0
  -21.0930   -6.7570   23.7980 C   0  0  0  0  0  3  0  0  0  0  0  0
  -20.9560   -5.9550   24.9480 C   0  0  0  0  0  3  0  0  0  0  0  0
  -21.3470   -4.6040   24.9170 C   0  0  0  0  0  0  0  0  0  0  0  0
  -21.8780   -4.0520   23.7370 C   0  0  0  0  0  3  0  0  0  0  0  0
  -22.0160   -4.8510   22.5880 C   0  0  0  0  0  0  0  0  0  0  0  0
  -22.5080   -4.3080   21.4480 F   0  0  0  0  0  0  0  0  0  0  0  0
  -21.2090   -3.8320   26.0190 F   0  0  0  0  0  0  0  0  0  0  0  0
  -22.8070  -13.5780   21.2230 C   0  0  0  0  0  0  0  0  0  0  0  0
  -22.0890  -12.8620   22.0800 N   0  0  0  0  0  0  0  0  0  0  0  0
  -22.3650  -14.6190   20.7360 O   0  0  0  0  0  0  0  0  0  0  0  0
  -22.4580  -12.0200   22.4970 H   0  0  0  0  0  0  0  0  0  0  0  0
  -21.1560  -13.1620   22.3270 H   0  0  0  0  0  0  0  0  0  0  0  0
  -25.4250  -15.2510   20.3930 N   0  0  0  0  0  0  0  0  0  0  0  0
  -24.6620  -15.9020   20.5410 H   0  0  0  0  0  0  0  0  0  0  0  0
  -26.2780  -15.7020   20.0920 H   0  0  0  0  0  0  0  0  0  0  0  0
  -28.7410  -25.7170   19.3060 C   0  0  0  0  0  2  0  0  0  0  0  0
  -28.4320  -26.7390   20.2820 O   0  0  0  0  0  0  0  0  0  0  0  0
  -24.5420  -31.9200   23.2790 C   0  0  0  0  0  0  0  0  0  0  0  0
  -27.2480  -27.4660   20.2190 C   0  0  0  0  0  0  0  0  0  0  0  0
  -23.3640  -30.5160   21.6190 C   0  0  0  0  0  3  0  0  0  0  0  0
  -24.8420  -28.9840   20.2080 C   0  0  0  0  0  0  0  0  0  0  0  0
  -25.8930  -30.8770   21.4580 C   0  0  0  0  0  2  0  0  0  0  0  0
  -25.9910  -29.5040   20.8150 C   0  0  0  0  0  0  0  0  0  0  0  0
  -27.1900  -28.7490   20.8220 C   0  0  0  0  0  3  0  0  0  0  0  0
  -26.0710  -26.9620   19.6190 C   0  0  0  0  0  3  0  0  0  0  0  0
  -24.8780  -27.7120   19.6090 C   0  0  0  0  0  3  0  0  0  0  0  0
  -23.5940  -29.8400   20.2410 C   0  0  0  0  0  2  0  0  0  0  0  0
  -24.6170  -31.1200   22.1770 N   0  0  0  0  0  0  0  0  0  0  0  0
  -23.4520  -32.1870   23.8060 O   0  0  0  0  0  0  0  0  0  0  0  0
  -22.7040  -29.4910   22.5710 C   0  0  0  0  0  0  0  0  0  0  0  0
  -21.3780  -29.3150   22.4360 N   0  0  0  0  0  0  0  0  0  0  0  0
  -23.3810  -28.8590   23.3850 O   0  0  0  0  0  0  0  0  0  0  0  0
  -20.8940  -29.8780   21.7500 H   0  0  0  0  0  0  0  0  0  0  0  0
  -17.9960  -28.1410   22.9240 C   0  0  0  0  0  0  0  0  0  0  0  0
  -20.5560  -28.3730   23.1940 C   0  0  0  0  0  3  0  0  0  0  0  0
  -20.6450  -26.9490   22.5990 C   0  0  0  0  0  2  0  0  0  0  0  0
  -19.5380  -26.6510   21.5820 C   0  0  0  0  0  2  0  0  0  0  0  0
  -18.1580  -26.8000   22.2290 C   0  0  0  0  0  2  0  0  0  0  0  0
  -19.1220  -28.8880   23.3630 C   0  0  0  0  0  0  0  0  0  0  0  0
  -18.9160  -30.1450   23.9720 C   0  0  0  0  0  3  0  0  0  0  0  0
  -17.6160  -30.6550   24.1470 C   0  0  0  0  0  3  0  0  0  0  0  0
  -16.5040  -29.9060   23.7240 C   0  0  0  0  0  3  0  0  0  0  0  0
  -16.6950  -28.6510   23.1190 C   0  0  0  0  0  3  0  0  0  0  0  0
  -25.8160  -32.5560   23.9170 C   0  0  0  0  0  3  0  0  0  0  0  0
  -25.5090  -33.9620   24.2140 N   0  0  0  0  0  0  0  0  0  0  0  0
  -25.8630  -34.9970   23.4430 C   0  0  0  0  0  0  0  0  0  0  0  0
  -26.5550  -34.8710   22.4290 O   0  0  0  0  0  0  0  0  0  0  0  0
  -24.8980  -34.1350   25.0000 H   0  0  0  0  0  0  0  0  0  0  0  0
  -24.1660  -36.8010   23.0040 C   0  0  0  0  0  1  0  0  0  0  0  0
  -25.3740  -36.3970   23.8630 C   0  0  0  0  0  3  0  0  0  0  0  0
  -27.4800  -37.2820   24.7630 C   0  0  0  0  0  1  0  0  0  0  0  0
  -26.4200  -37.4390   23.7710 N   0  0  0  0  0  0  0  0  0  0  0  0
  -26.0160  -38.3650   23.8830 H   0  0  0  0  0  0  0  0  0  0  0  0
  -26.3020  -31.8050   25.2170 C   0  0  1  0  0  0  0  0  0  0  0  0
  -25.1840  -31.5840   26.2630 C   0  0  0  0  0  1  0  0  0  0  0  0
  -26.8920  -30.4210   24.8580 C   0  0  0  0  0  1  0  0  0  0  0  0
  -27.4380  -32.6070   25.8930 C   0  0  0  0  0  1  0  0  0  0  0  0
  1  3  1  0
  2  5  1  0
  3 10  1  0
  3  5  2  0
  4  6  1  0
  4  2  2  0
  6  1  2  0
  7  8  1  0
  9 11  2  0
  9 10  1  0
 10  7  2  0
 11 12  1  0
 12 22  1  0
 12  8  2  0
 13 11  1  0
 14 22  1  0
 15 20  1  0
 16 17  1  0
 16 15  1  0
 18 17  1  0
 18 27  1  0
 18 19  1  0
 20 14  1  0
 20 19  1  0
 21 14  2  0
 22 23  1  0
 24 25  2  0
 25 44  1  0
 26 25  1  0
 26 29  1  0
 27 28  1  0
 27 24  1  0
 28 26  2  0
 29 30  1  0
 30 31  2  0
 32 35  1  0
 32 31  1  0
 33 32  2  0
 34 33  1  0
 34 29  2  0
 35 36  1  0
 36 37  1  0
 37 38  2  0
 39 38  1  0
 39 43  1  0
 40 39  2  0
 41 36  2  0
 41 40  1  0
 42 41  1  0
 44 45  1  0
 45 48  1  0
 45 47  1  0
 46 44  2  0
 49 50  1  0
 49 24  1  0
 51 49  1  0
 52  4  1  0
 52 53  1  0
 54 65  2  0
 55 53  1  0
 55 60  1  0
 56 64  1  0
 56 66  1  0
 57 63  1  0
 57 59  1  0
 58 64  1  0
 59 60  2  0
 59 58  1  0
 61 55  2  0
 62 61  1  0
 62 57  2  0
 63 56  1  0
 64 54  1  0
 66 68  2  0
 67 66  1  0
 69 67  1  0
 70 79  2  0
 70 75  1  0
 71 67  1  0
 71 75  1  0
 72 71  1  0
 73 74  1  0
 73 72  1  0
 74 70  1  0
 75 76  2  0
 76 77  1  0
 78 77  2  0
 79 78  1  0
 80 54  1  0
 80 81  1  0
 80 90  1  0
 81 84  1  0
 82 86  1  0
 82 81  1  0
 83 82  2  0
 86 85  1  0
 88 86  1  0
 88 89  1  0
 88 87  1  0
 90 93  1  1
 90 91  1  0
 92 90  1  0
M  ISO  4  14 100  22 100  52 101  53 101
M  END
>  <TORSDO>  (30) 
F 18

>  <SCORE>  (30) 
-14.925

>  <name>  (30) 
29

>  <ligand_id>  (30) 
29

>  <original_smiles>  (30) 
[H]C1=C(c2c([H])c([H])c(N([H])C(=O)N3C([H])([H])C([H])([H])C([H])([H])C([H])(n4nc(-c5c([H])c([H])c(Oc6c([H])c([H])c(F)c([H])c6F)c([H])c5[H])c(C(=O)N([H])[H])c4N([H])[H])C3([H])[H])c(C([H])([H])[H])c2[H])C([H])([H])C([H])=C(C([H])([H])Oc2c([H])c([H])c3c(c2[H])C([H])([H])N(C(=O)C([H])(N([H])C(=O)C([H])(N([H])C([H])([H])[H])C([H])([H])[H])C(C([H])([H])[H])(C([H])([H])[H])C([H])([H])[H])C([H])(C(=O)N([H])C2([H])c4c([H])c([H])c([H])c([H])c4C([H])([H])C([H])([H])C2([H])[H])C3([H])[H])C1([H])[H]

>  <smiles>  (30) 
[H]C1=C(c2c([H])c([H])c(N([H])C(=O)N3C([H])([H])C([H])([H])C([H])([H])C([H])(n4nc(-c5c([H])c([H])c(Oc6c([H])c([H])c(F)c([H])c6F)c([H])c5[H])c(C(=O)N([H])[H])c4N([H])[H])C3([H])[H])c(C([H])([H])[H])c2[H])C([H])([H])C([H])=C(C([H])([H])Oc2c([H])c([H])c3c(c2[H])C([H])([H])N(C(=O)C([H])(N([H])C(=O)C([H])(N([H])C([H])([H])[H])C([H])([H])[H])C(C([H])([H])[H])(C([H])([H])[H])C([H])([H])[H])C([H])(C(=O)N([H])C2([H])c4c([H])c([H])c([H])c([H])c4C([H])([H])C([H])([H])C2([H])[H])C3([H])[H])C1([H])[H]

$$$$
30:0:0
     RDKit          3D

 88 96  0  0  1  0  0  0  0  0999 V2000
  -29.8310  -17.9900   20.3170 C   0  0  0  0  0  0  0  0  0  0  0  0
  -31.5270  -20.0280   19.9170 C   0  0  0  0  0  0  0  0  0  0  0  0
  -31.1570  -18.5080   19.7220 C   0  0  0  0  0  2  0  0  0  0  0  0
  -28.8910  -19.4190   20.6660 C   0  0  0  0  0  2  0  0  0  0  0  0
  -29.1760  -21.0500   20.0750 C   0  0  0  0  0  3  0  0  0  0  0  0
  -29.5710  -16.6090   20.5250 N   0  0  0  0  0  0  0  0  0  0  0  0
  -30.6420  -21.0600   19.9980 N   0  0  0  0  0  0  0  0  0  0  0  0
  -32.7290  -20.3090   19.9690 O   0  0  0  0  0  0  0  0  0  0  0  0
  -31.0640  -21.9740   20.1000 H   0  0  0  0  0  0  0  0  0  0  0  0
  -30.4020  -15.3160   20.3120 C   0  0  0  0  0  0  0  0  0  0  0  0
  -30.3970  -12.8460   19.4960 C   0  0  0  0  0  2  0  0  0  0  0  0
  -29.5020  -12.6470   18.2440 C   0  0  0  0  0  2  0  0  0  0  0  0
  -28.0440  -12.3760   18.6570 C   0  0  0  0  0  2  0  0  0  0  0  0
  -27.5670  -13.3550   19.7580 C   0  0  0  0  0  3  0  0  0  0  0  0
  -28.5950  -13.5160   20.8990 C   0  0  0  0  0  2  0  0  0  0  0  0
  -29.8540  -13.9990   20.3070 N   0  0  0  0  0  0  0  0  0  0  0  0
  -31.6060  -15.3030   20.0330 O   0  0  0  0  0  0  0  0  0  0  0  0
  -25.1820  -13.9090   20.4800 C   0  0  0  0  0  0  0  0  0  0  0  0
  -24.1170  -13.1310   20.8390 C   0  0  0  0  0  0  0  0  0  0  0  0
  -24.5900  -11.7810   20.8280 C   0  0  0  0  0  0  0  0  0  0  0  0
  -26.2330  -13.0370   20.2560 N   0  0  0  0  0  0  0  0  0  0  0  0
  -25.8850  -11.7520   20.5330 N   0  0  0  0  0  0  0  0  0  0  0  0
  -23.8640  -10.5170   21.0180 C   0  0  0  0  0  0  0  0  0  0  0  0
  -24.2830   -9.5570   21.9640 C   0  0  0  0  0  3  0  0  0  0  0  0
  -23.5520   -8.3620   22.1460 C   0  0  0  0  0  3  0  0  0  0  0  0
  -22.3870   -8.1170   21.3780 C   0  0  0  0  0  0  0  0  0  0  0  0
  -21.9910   -9.0650   20.4180 C   0  0  0  0  0  3  0  0  0  0  0  0
  -22.7210  -10.2510   20.2360 C   0  0  0  0  0  3  0  0  0  0  0  0
  -21.6340   -6.9700   21.4630 O   0  0  0  0  0  0  0  0  0  0  0  0
  -21.5690   -6.2380   22.6210 C   0  0  0  0  0  0  0  0  0  0  0  0
  -21.1270   -6.8040   23.8370 C   0  0  0  0  0  3  0  0  0  0  0  0
  -21.0090   -5.9980   24.9850 C   0  0  0  0  0  3  0  0  0  0  0  0
  -21.3230   -4.6270   24.9220 C   0  0  0  0  0  0  0  0  0  0  0  0
  -21.7590   -4.0610   23.7100 C   0  0  0  0  0  3  0  0  0  0  0  0
  -21.8790   -4.8640   22.5630 C   0  0  0  0  0  0  0  0  0  0  0  0
  -22.2780   -4.3110   21.3920 F   0  0  0  0  0  0  0  0  0  0  0  0
  -21.2030   -3.8490   26.0220 F   0  0  0  0  0  0  0  0  0  0  0  0
  -22.7140  -13.6040   21.0840 C   0  0  0  0  0  0  0  0  0  0  0  0
  -21.9740  -12.9140   21.9420 N   0  0  0  0  0  0  0  0  0  0  0  0
  -22.2840  -14.6220   20.5410 O   0  0  0  0  0  0  0  0  0  0  0  0
  -22.3340  -12.0910   22.4030 H   0  0  0  0  0  0  0  0  0  0  0  0
  -21.0300  -13.2150   22.1470 H   0  0  0  0  0  0  0  0  0  0  0  0
  -25.3460  -15.2780   20.2970 N   0  0  0  0  0  0  0  0  0  0  0  0
  -24.5900  -15.9420   20.4120 H   0  0  0  0  0  0  0  0  0  0  0  0
  -26.2210  -15.7150   20.0360 H   0  0  0  0  0  0  0  0  0  0  0  0
  -28.5870  -22.6800   20.6320 C   0  0  0  0  0  2  0  0  0  0  0  0
  -28.2740  -24.2990   19.8780 C   0  0  0  0  0  2  0  0  0  0  0  0
  -28.2340  -25.8840   20.3580 O   0  0  0  0  0  0  0  0  0  0  0  0
  -24.6300  -31.8600   23.2190 C   0  0  0  0  0  0  0  0  0  0  0  0
  -27.2110  -26.9660   20.2320 C   0  0  0  0  0  0  0  0  0  0  0  0
  -23.4480  -30.4560   21.5780 C   0  0  0  0  0  3  0  0  0  0  0  0
  -24.9080  -28.8500   20.1640 C   0  0  0  0  0  0  0  0  0  0  0  0
  -26.0140  -30.6670   21.4480 C   0  0  0  0  0  2  0  0  0  0  0  0
  -26.0880  -29.2550   20.7960 C   0  0  0  0  0  0  0  0  0  0  0  0
  -27.2290  -28.3310   20.8100 C   0  0  0  0  0  3  0  0  0  0  0  0
  -26.0020  -26.7170   19.5440 C   0  0  0  0  0  3  0  0  0  0  0  0
  -24.8900  -27.6010   19.5160 C   0  0  0  0  0  3  0  0  0  0  0  0
  -23.6860  -29.7700   20.2030 C   0  0  0  0  0  2  0  0  0  0  0  0
  -24.7200  -31.0200   22.1380 N   0  0  0  0  0  0  0  0  0  0  0  0
  -23.5380  -32.1490   23.7320 O   0  0  0  0  0  0  0  0  0  0  0  0
  -22.7500  -29.4630   22.5400 C   0  0  0  0  0  0  0  0  0  0  0  0
  -21.4180  -29.3080   22.4170 N   0  0  0  0  0  0  0  0  0  0  0  0
  -23.4130  -28.8310   23.3660 O   0  0  0  0  0  0  0  0  0  0  0  0
  -20.9350  -29.8690   21.7290 H   0  0  0  0  0  0  0  0  0  0  0  0
  -18.0270  -28.1280   22.9360 C   0  0  0  0  0  0  0  0  0  0  0  0
  -20.5900  -28.3750   23.1870 C   0  0  0  0  0  3  0  0  0  0  0  0
  -20.6780  -26.9430   22.6070 C   0  0  0  0  0  2  0  0  0  0  0  0
  -19.5690  -26.6340   21.5950 C   0  0  0  0  0  2  0  0  0  0  0  0
  -18.1930  -26.7840   22.2460 C   0  0  0  0  0  2  0  0  0  0  0  0
  -19.1530  -28.8820   23.3620 C   0  0  0  0  0  0  0  0  0  0  0  0
  -18.9430  -30.1400   23.9680 C   0  0  0  0  0  3  0  0  0  0  0  0
  -17.6420  -30.6440   24.1510 C   0  0  0  0  0  3  0  0  0  0  0  0
  -16.5310  -29.8890   23.7370 C   0  0  0  0  0  3  0  0  0  0  0  0
  -16.7250  -28.6330   23.1350 C   0  0  0  0  0  3  0  0  0  0  0  0
  -25.8960  -32.5070   23.8570 C   0  0  0  0  0  3  0  0  0  0  0  0
  -25.5720  -33.9080   24.1860 N   0  0  0  0  0  0  0  0  0  0  0  0
  -25.9100  -34.9670   23.4380 C   0  0  0  0  0  0  0  0  0  0  0  0
  -26.5880  -34.8700   22.4130 O   0  0  0  0  0  0  0  0  0  0  0  0
  -24.9680  -34.0540   24.9810 H   0  0  0  0  0  0  0  0  0  0  0  0
  -24.1830  -36.7680   23.0900 C   0  0  0  0  0  1  0  0  0  0  0  0
  -25.4220  -36.3560   23.9010 C   0  0  0  0  0  3  0  0  0  0  0  0
  -27.5540  -37.2430   24.7450 C   0  0  0  0  0  1  0  0  0  0  0  0
  -26.4560  -37.4120   23.7950 N   0  0  0  0  0  0  0  0  0  0  0  0
  -26.0470  -38.3310   23.9420 H   0  0  0  0  0  0  0  0  0  0  0  0
  -26.3910  -31.7500   25.1520 C   0  0  1  0  0  0  0  0  0  0  0  0
  -25.2830  -31.5260   26.2090 C   0  0  0  0  0  1  0  0  0  0  0  0
  -26.9770  -30.3670   24.7920 C   0  0  0  0  0  1  0  0  0  0  0  0
  -27.5360  -32.5480   25.8200 C   0  0  0  0  0  1  0  0  0  0  0  0
  1  6  2  0
  1  4  1  0
  2  8  2  0
  2  7  1  0
  3  2  1  0
  3  1  1  0
  5 46  1  0
  5  4  1  0
  7  5  1  0
  7  9  1  0
 10  6  1  0
 11 16  1  0
 12 13  1  0
 12 11  1  0
 14 13  1  0
 14 21  1  0
 14 15  1  0
 16 10  1  0
 16 15  1  0
 17 10  2  0
 18 19  2  0
 19 38  1  0
 20 19  1  0
 20 23  1  0
 21 18  1  0
 21 22  1  0
 22 20  2  0
 23 24  1  0
 24 25  2  0
 26 29  1  0
 26 25  1  0
 27 26  2  0
 28 27  1  0
 28 23  2  0
 29 30  1  0
 30 31  1  0
 31 32  2  0
 33 32  1  0
 33 37  1  0
 34 33  2  0
 35 30  2  0
 35 34  1  0
 36 35  1  0
 38 39  1  0
 39 42  1  0
 39 41  1  0
 40 38  2  0
 43 44  1  0
 43 18  1  0
 45 43  1  0
 47 48  1  0
 47 46  1  0
 49 60  2  0
 50 48  1  0
 50 55  1  0
 51 59  1  0
 51 61  1  0
 52 58  1  0
 52 54  1  0
 53 59  1  0
 54 55  2  0
 54 53  1  0
 56 50  2  0
 57 56  1  0
 57 52  2  0
 58 51  1  0
 59 49  1  0
 61 63  2  0
 62 61  1  0
 64 62  1  0
 65 74  2  0
 65 70  1  0
 66 62  1  0
 66 70  1  0
 67 66  1  0
 68 69  1  0
 68 67  1  0
 69 65  1  0
 70 71  2  0
 71 72  1  0
 73 72  2  0
 74 73  1  0
 75 49  1  0
 75 76  1  0
 75 85  1  0
 76 79  1  0
 77 81  1  0
 77 76  1  0
 78 77  2  0
 81 80  1  0
 83 81  1  0
 83 84  1  0
 83 82  1  0
 85 88  1  1
 85 86  1  0
 87 85  1  0
M  ISO  4   6 100  10 100  47 101  48 101
M  END
>  <TORSDO>  (31) 
F 18

>  <SCORE>  (31) 
-16.037

>  <name>  (31) 
30

>  <ligand_id>  (31) 
30

>  <original_smiles>  (31) 
[H]c1c([H])c([H])c2c(c1[H])C([H])([H])C([H])([H])C([H])([H])C2([H])N([H])C(=O)C1([H])N(C(=O)C([H])(N([H])C(=O)C([H])(N([H])C([H])([H])[H])C([H])([H])[H])C(C([H])([H])[H])(C([H])([H])[H])C([H])([H])[H])C([H])([H])c2c([H])c(OC([H])([H])C([H])([H])C3([H])N([H])C(=O)C([H])([H])C(=NC(=O)N4C([H])([H])C([H])([H])C([H])([H])C([H])(n5nc(-c6c([H])c([H])c(Oc7c([H])c([H])c(F)c([H])c7F)c([H])c6[H])c(C(=O)N([H])[H])c5N([H])[H])C4([H])[H])C3([H])[H])c([H])c([H])c2C1([H])[H]

>  <smiles>  (31) 
[H]c1c([H])c([H])c2c(c1[H])C([H])([H])C([H])([H])C([H])([H])C2([H])N([H])C(=O)C1([H])N(C(=O)C([H])(N([H])C(=O)C([H])(N([H])C([H])([H])[H])C([H])([H])[H])C(C([H])([H])[H])(C([H])([H])[H])C([H])([H])[H])C([H])([H])c2c([H])c(OC([H])([H])C([H])([H])C3([H])N([H])C(=O)C([H])([H])C(=NC(=O)N4C([H])([H])C([H])([H])C([H])([H])C([H])(n5nc(-c6c([H])c([H])c(Oc7c([H])c([H])c(F)c([H])c7F)c([H])c6[H])c(C(=O)N([H])[H])c5N([H])[H])C4([H])[H])C3([H])[H])c([H])c([H])c2C1([H])[H]

$$$$
31:0:0
     RDKit          3D

 92101  0  0  1  0  0  0  0  0999 V2000
  -28.9800  -22.5610   19.9860 C   0  0  0  0  0  3  0  0  0  0  0  0
  -29.6430  -21.6120   20.7300 C   0  0  0  0  0  3  0  0  0  0  0  0
  -29.0120  -23.9620   20.4960 C   0  0  0  0  0  0  0  0  0  0  0  0
  -28.4250  -25.0820   19.8910 C   0  0  0  0  0  2  0  0  0  0  0  0
  -30.2820  -22.3780   21.8990 C   0  0  0  0  0  3  0  0  0  0  0  0
  -29.8360  -23.8920   21.7710 C   0  0  0  0  0  3  0  0  0  0  0  0
  -30.2480  -20.0270   18.9130 C   0  0  0  0  0  3  0  0  0  0  0  0
  -30.4400  -18.7830   18.2880 C   0  0  0  0  0  3  0  0  0  0  0  0
  -29.9460  -18.8590   21.0240 C   0  0  0  0  0  3  0  0  0  0  0  0
  -29.9470  -20.1340   20.2840 C   0  0  0  0  0  0  0  0  0  0  0  0
  -30.3420  -17.5650   18.9900 C   0  0  0  0  0  0  0  0  0  0  0  0
  -30.1550  -17.5330   20.4030 C   0  0  0  0  0  0  0  0  0  0  0  0
  -30.3310  -16.3090   18.1340 C   0  0  0  0  0  1  0  0  0  0  0  0
  -30.7940  -15.0210   20.9960 C   0  0  0  0  0  0  0  0  0  0  0  0
  -30.7410  -12.6590   20.1520 C   0  0  0  0  0  2  0  0  0  0  0  0
  -29.9400  -12.5950   18.8300 C   0  0  0  0  0  2  0  0  0  0  0  0
  -28.4280  -12.4540   19.0970 C   0  0  0  0  0  2  0  0  0  0  0  0
  -27.9100  -13.3880   20.2210 C   0  0  0  0  0  3  0  0  0  0  0  0
  -28.8510  -13.4050   21.4480 C   0  0  0  0  0  2  0  0  0  0  0  0
  -30.1900  -13.7730   20.9700 N   0  0  0  0  0  0  0  0  0  0  0  0
  -32.0080  -15.0940   20.7900 O   0  0  0  0  0  0  0  0  0  0  0  0
  -30.0160  -16.1880   21.0780 N   0  0  0  0  0  0  0  0  0  0  0  0
  -29.0920  -16.0220   21.4450 H   0  0  0  0  0  0  0  0  0  0  0  0
  -25.4500  -13.9540   20.6780 C   0  0  0  0  0  0  0  0  0  0  0  0
  -24.3600  -13.1750   20.9560 C   0  0  0  0  0  0  0  0  0  0  0  0
  -24.8370  -11.8290   21.0100 C   0  0  0  0  0  0  0  0  0  0  0  0
  -26.5250  -13.0830   20.5810 N   0  0  0  0  0  0  0  0  0  0  0  0
  -26.1540  -11.8020   20.8420 N   0  0  0  0  0  0  0  0  0  0  0  0
  -24.1040  -10.5610   21.1590 C   0  0  0  0  0  0  0  0  0  0  0  0
  -24.4610   -9.6130   22.1430 C   0  0  0  0  0  3  0  0  0  0  0  0
  -23.7320   -8.4110   22.2780 C   0  0  0  0  0  3  0  0  0  0  0  0
  -22.6280   -8.1510   21.4300 C   0  0  0  0  0  0  0  0  0  0  0  0
  -22.2910   -9.0890   20.4390 C   0  0  0  0  0  3  0  0  0  0  0  0
  -23.0210  -10.2820   20.3000 C   0  0  0  0  0  3  0  0  0  0  0  0
  -21.8760   -7.0030   21.4730 O   0  0  0  0  0  0  0  0  0  0  0  0
  -21.7470   -6.2690   22.6260 C   0  0  0  0  0  0  0  0  0  0  0  0
  -21.1990   -6.8230   23.8030 C   0  0  0  0  0  3  0  0  0  0  0  0
  -21.0190   -6.0140   24.9430 C   0  0  0  0  0  3  0  0  0  0  0  0
  -21.3750   -4.6530   24.9070 C   0  0  0  0  0  0  0  0  0  0  0  0
  -21.9160   -4.0990   23.7320 C   0  0  0  0  0  3  0  0  0  0  0  0
  -22.0970   -4.9050   22.5940 C   0  0  0  0  0  0  0  0  0  0  0  0
  -22.5980   -4.3600   21.4590 F   0  0  0  0  0  0  0  0  0  0  0  0
  -21.1980   -3.8740   25.9980 F   0  0  0  0  0  0  0  0  0  0  0  0
  -22.9360  -13.6400   21.0710 C   0  0  0  0  0  0  0  0  0  0  0  0
  -22.1320  -12.9620   21.8830 N   0  0  0  0  0  0  0  0  0  0  0  0
  -22.5390  -14.6400   20.4750 O   0  0  0  0  0  0  0  0  0  0  0  0
  -22.4620  -12.1520   22.3850 H   0  0  0  0  0  0  0  0  0  0  0  0
  -21.1760  -13.2610   22.0100 H   0  0  0  0  0  0  0  0  0  0  0  0
  -25.6340  -15.3200   20.4760 N   0  0  0  0  0  0  0  0  0  0  0  0
  -24.8820  -16.0000   20.4730 H   0  0  0  0  0  0  0  0  0  0  0  0
  -26.5350  -15.7250   20.2490 H   0  0  0  0  0  0  0  0  0  0  0  0
  -28.4410  -26.4820   20.2210 O   0  0  0  0  0  0  0  0  0  0  0  0
  -24.5100  -31.9100   23.0590 C   0  0  0  0  0  0  0  0  0  0  0  0
  -27.3030  -27.3400   20.0970 C   0  0  0  0  0  0  0  0  0  0  0  0
  -23.3670  -30.4620   21.4190 C   0  0  0  0  0  3  0  0  0  0  0  0
  -24.8830  -28.9290   20.0290 C   0  0  0  0  0  0  0  0  0  0  0  0
  -25.9030  -30.8390   21.2640 C   0  0  0  0  0  2  0  0  0  0  0  0
  -26.0360  -29.4530   20.6250 C   0  0  0  0  0  0  0  0  0  0  0  0
  -27.2430  -28.6750   20.6420 C   0  0  0  0  0  3  0  0  0  0  0  0
  -26.1120  -26.8850   19.4810 C   0  0  0  0  0  3  0  0  0  0  0  0
  -24.9270  -27.6510   19.4470 C   0  0  0  0  0  3  0  0  0  0  0  0
  -23.6190  -29.7680   20.0520 C   0  0  0  0  0  2  0  0  0  0  0  0
  -24.6120  -31.0890   21.9700 N   0  0  0  0  0  0  0  0  0  0  0  0
  -23.4110  -32.1620   23.5780 O   0  0  0  0  0  0  0  0  0  0  0  0
  -22.7120  -29.4430   22.3820 C   0  0  0  0  0  0  0  0  0  0  0  0
  -21.3830  -29.2720   22.2770 N   0  0  0  0  0  0  0  0  0  0  0  0
  -23.4020  -28.8110   23.1860 O   0  0  0  0  0  0  0  0  0  0  0  0
  -20.8880  -29.8270   21.5920 H   0  0  0  0  0  0  0  0  0  0  0  0
  -18.0030  -28.1230   22.8730 C   0  0  0  0  0  0  0  0  0  0  0  0
  -20.5750  -28.3290   23.0520 C   0  0  0  0  0  3  0  0  0  0  0  0
  -20.6280  -26.9130   22.4310 C   0  0  0  0  0  2  0  0  0  0  0  0
  -19.4840  -26.6390   21.4500 C   0  0  0  0  0  2  0  0  0  0  0  0
  -18.1300  -26.7920   22.1490 C   0  0  0  0  0  2  0  0  0  0  0  0
  -19.1510  -28.8520   23.2810 C   0  0  0  0  0  0  0  0  0  0  0  0
  -18.9780  -30.0990   23.9190 C   0  0  0  0  0  3  0  0  0  0  0  0
  -17.6910  -30.6190   24.1480 C   0  0  0  0  0  3  0  0  0  0  0  0
  -16.5580  -29.8850   23.7600 C   0  0  0  0  0  3  0  0  0  0  0  0
  -16.7150  -28.6380   23.1300 C   0  0  0  0  0  3  0  0  0  0  0  0
  -25.7650  -32.5840   23.6920 C   0  0  0  0  0  3  0  0  0  0  0  0
  -25.3990  -33.9640   24.0420 N   0  0  0  0  0  0  0  0  0  0  0  0
  -25.7620  -35.0490   23.3430 C   0  0  0  0  0  0  0  0  0  0  0  0
  -26.5030  -34.9930   22.3590 O   0  0  0  0  0  0  0  0  0  0  0  0
  -24.7490  -34.0810   24.8050 H   0  0  0  0  0  0  0  0  0  0  0  0
  -24.0770  -36.8540   22.8720 C   0  0  0  0  0  1  0  0  0  0  0  0
  -25.2130  -36.4110   23.8070 C   0  0  0  0  0  3  0  0  0  0  0  0
  -27.2280  -37.2530   24.9300 C   0  0  0  0  0  1  0  0  0  0  0  0
  -26.2410  -37.4720   23.8750 N   0  0  0  0  0  0  0  0  0  0  0  0
  -25.8110  -38.3800   24.0260 H   0  0  0  0  0  0  0  0  0  0  0  0
  -26.3050  -31.8190   24.9630 C   0  0  1  0  0  0  0  0  0  0  0  0
  -25.2160  -31.5260   26.0230 C   0  0  0  0  0  1  0  0  0  0  0  0
  -26.9360  -30.4670   24.5620 C   0  0  0  0  0  1  0  0  0  0  0  0
  -27.4290  -32.6440   25.6340 C   0  0  0  0  0  1  0  0  0  0  0  0
  1  3  2  0
  1  2  1  0
  2 10  1  0
  2  5  1  0
  3  6  1  0
  4 52  1  0
  4  3  1  0
  6  5  2  0
  7 10  1  0
  8  7  2  0
  8 11  1  0
 10  9  2  0
 11 12  2  0
 12  9  1  0
 12 22  1  0
 13 11  1  0
 14 22  1  0
 15 20  1  0
 16 17  1  0
 16 15  1  0
 18 17  1  0
 18 27  1  0
 18 19  1  0
 20 14  1  0
 20 19  1  0
 21 14  2  0
 22 23  1  0
 24 25  2  0
 25 26  1  0
 25 44  1  0
 26 29  1  0
 27 24  1  0
 27 28  1  0
 28 26  2  0
 29 30  1  0
 30 31  2  0
 32 35  1  0
 32 31  1  0
 33 32  2  0
 34 33  1  0
 34 29  2  0
 35 36  1  0
 36 37  1  0
 37 38  2  0
 39 38  1  0
 39 43  1  0
 40 39  2  0
 41 36  2  0
 41 40  1  0
 42 41  1  0
 44 45  1  0
 45 48  1  0
 45 47  1  0
 46 44  2  0
 49 24  1  0
 50 49  1  0
 51 49  1  0
 53 64  2  0
 54 52  1  0
 54 59  1  0
 55 63  1  0
 55 65  1  0
 56 62  1  0
 56 58  1  0
 57 63  1  0
 58 59  2  0
 58 57  1  0
 60 54  2  0
 61 60  1  0
 61 56  2  0
 62 55  1  0
 63 53  1  0
 65 67  2  0
 66 65  1  0
 68 66  1  0
 69 78  2  0
 69 74  1  0
 70 66  1  0
 70 74  1  0
 71 70  1  0
 72 73  1  0
 72 71  1  0
 73 69  1  0
 74 75  2  0
 75 76  1  0
 77 76  2  0
 78 77  1  0
 79 53  1  0
 79 80  1  0
 79 89  1  0
 80 83  1  0
 81 85  1  0
 81 80  1  0
 82 81  2  0
 85 84  1  0
 85 87  1  0
 87 88  1  0
 87 86  1  0
 89 92  1  1
 89 90  1  0
 91 89  1  0
M  ISO  4   4 101  14 100  22 100  52 101
M  END
>  <TORSDO>  (32) 
F 17

>  <SCORE>  (32) 
-14.448

>  <name>  (32) 
31

>  <ligand_id>  (32) 
31

>  <original_smiles>  (32) 
[H]C(Oc1c([H])c([H])c2c(c1[H])C([H])([H])N(C(=O)C([H])(N([H])C(=O)C([H])(N([H])C([H])([H])[H])C([H])([H])[H])C(C([H])([H])[H])(C([H])([H])[H])C([H])([H])[H])C([H])(C(=O)N([H])C1([H])c3c([H])c([H])c([H])c([H])c3C([H])([H])C([H])([H])C1([H])[H])C2([H])[H])=C1C([H])=C(c2c([H])c([H])c(C([H])([H])[H])c(N([H])C(=O)N3C([H])([H])C([H])([H])C([H])([H])C([H])(n4nc(-c5c([H])c([H])c(Oc6c([H])c([H])c(F)c([H])c6F)c([H])c5[H])c(C(=O)N([H])[H])c4N([H])[H])C3([H])[H])c2[H])C([H])([H])C1([H])[H]

>  <smiles>  (32) 
[H]C(Oc1c([H])c([H])c2c(c1[H])C([H])([H])N(C(=O)C([H])(N([H])C(=O)C([H])(N([H])C([H])([H])[H])C([H])([H])[H])C(C([H])([H])[H])(C([H])([H])[H])C([H])([H])[H])C([H])(C(=O)N([H])C1([H])c3c([H])c([H])c([H])c([H])c3C([H])([H])C([H])([H])C1([H])[H])C2([H])[H])=C1C([H])=C(c2c([H])c([H])c(C([H])([H])[H])c(N([H])C(=O)N3C([H])([H])C([H])([H])C([H])([H])C([H])(n4nc(-c5c([H])c([H])c(Oc6c([H])c([H])c(F)c([H])c6F)c([H])c5[H])c(C(=O)N([H])[H])c4N([H])[H])C3([H])[H])c2[H])C([H])([H])C1([H])[H]

$$$$
32:0:0
     RDKit          3D

 92100  0  0  1  0  0  0  0  0999 V2000
  -28.9880  -21.7130   20.4490 N   0  0  0  0  0  4  0  0  0  0  0  0
  -28.3960  -21.4960   19.6630 H   0  0  0  0  0  0  0  0  0  0  0  0
  -29.9430  -21.7210   20.1310 H   0  0  0  0  0  0  0  0  0  0  0  0
  -28.8230  -20.6450   21.4710 C   0  0  0  0  0  2  0  0  0  0  0  0
  -28.4770  -18.2230   20.7040 C   0  0  0  0  0  3  0  0  0  0  0  0
  -30.7080  -18.9200   21.3760 C   0  0  0  0  0  3  0  0  0  0  0  0
  -28.9250  -16.8880   20.5870 C   0  0  0  0  0  3  0  0  0  0  0  0
  -31.1550  -17.5840   21.2680 C   0  0  0  0  0  3  0  0  0  0  0  0
  -29.3580  -19.2500   21.1210 C   0  0  0  0  0  0  0  0  0  0  0  0
  -30.2650  -16.5570   20.8820 C   0  0  0  0  0  0  0  0  0  0  0  0
  -30.9060  -14.4760   19.8100 C   0  0  0  0  0  0  0  0  0  0  0  0
  -30.3670  -12.4290   18.5350 C   0  0  0  0  0  2  0  0  0  0  0  0
  -29.2930  -12.6980   17.4650 C   0  0  0  0  0  2  0  0  0  0  0  0
  -27.8860  -12.5400   18.0650 C   0  0  0  0  0  2  0  0  0  0  0  0
  -27.7120  -13.3350   19.3850 C   0  0  0  0  0  3  0  0  0  0  0  0
  -28.8830  -13.0630   20.3540 C   0  0  0  0  0  2  0  0  0  0  0  0
  -30.1480  -13.3560   19.6570 N   0  0  0  0  0  0  0  0  0  0  0  0
  -31.8520  -14.7510   19.0660 O   0  0  0  0  0  0  0  0  0  0  0  0
  -30.6880  -15.2000   20.9160 N   0  0  0  0  0  0  0  0  0  0  0  0
  -31.4700  -15.0740   21.5430 H   0  0  0  0  0  0  0  0  0  0  0  0
  -25.4240  -13.9410   20.3980 C   0  0  0  0  0  0  0  0  0  0  0  0
  -24.3940  -13.1670   20.8620 C   0  0  0  0  0  0  0  0  0  0  0  0
  -24.8220  -11.8130   20.7140 C   0  0  0  0  0  0  0  0  0  0  0  0
  -26.4190  -13.0590   20.0050 N   0  0  0  0  0  0  0  0  0  0  0  0
  -26.0650  -11.7700   20.2480 N   0  0  0  0  0  0  0  0  0  0  0  0
  -24.1000  -10.5520   20.9300 C   0  0  0  0  0  0  0  0  0  0  0  0
  -24.5750   -9.5720   21.8260 C   0  0  0  0  0  3  0  0  0  0  0  0
  -23.8520   -8.3770   22.0310 C   0  0  0  0  0  3  0  0  0  0  0  0
  -22.6380   -8.1560   21.3390 C   0  0  0  0  0  0  0  0  0  0  0  0
  -22.1790   -9.1270   20.4320 C   0  0  0  0  0  3  0  0  0  0  0  0
  -22.9040  -10.3120   20.2250 C   0  0  0  0  0  3  0  0  0  0  0  0
  -21.8830   -7.0130   21.4540 O   0  0  0  0  0  0  0  0  0  0  0  0
  -21.8290   -6.3000   22.6240 C   0  0  0  0  0  0  0  0  0  0  0  0
  -21.4000   -6.8870   23.8360 C   0  0  0  0  0  3  0  0  0  0  0  0
  -21.2950   -6.1000   25.0000 C   0  0  0  0  0  3  0  0  0  0  0  0
  -21.6080   -4.7290   24.9540 C   0  0  0  0  0  0  0  0  0  0  0  0
  -22.0310   -4.1420   23.7490 C   0  0  0  0  0  3  0  0  0  0  0  0
  -22.1380   -4.9250   22.5860 C   0  0  0  0  0  0  0  0  0  0  0  0
  -22.5250   -4.3500   21.4220 F   0  0  0  0  0  0  0  0  0  0  0  0
  -21.4990   -3.9710   26.0710 F   0  0  0  0  0  0  0  0  0  0  0  0
  -23.0490  -13.6510   21.3240 C   0  0  0  0  0  0  0  0  0  0  0  0
  -22.4220  -12.9340   22.2490 N   0  0  0  0  0  0  0  0  0  0  0  0
  -22.5690  -14.7020   20.9020 O   0  0  0  0  0  0  0  0  0  0  0  0
  -22.8260  -12.0840   22.6130 H   0  0  0  0  0  0  0  0  0  0  0  0
  -21.5260  -13.2400   22.5990 H   0  0  0  0  0  0  0  0  0  0  0  0
  -25.5840  -15.3160   20.2550 N   0  0  0  0  0  0  0  0  0  0  0  0
  -24.8290  -15.9630   20.4560 H   0  0  0  0  0  0  0  0  0  0  0  0
  -26.3600  -15.7490   19.7740 H   0  0  0  0  0  0  0  0  0  0  0  0
  -28.6370  -23.0510   21.0070 C   0  0  0  0  0  2  0  0  0  0  0  0
  -28.7550  -24.2730   20.0580 C   0  0  0  0  0  2  0  0  0  0  0  0
  -28.4430  -25.5730   20.8420 C   0  0  0  0  0  2  0  0  0  0  0  0
  -28.4980  -26.7810   20.0700 O   0  0  0  0  0  0  0  0  0  0  0  0
  -24.6380  -31.8850   23.2260 C   0  0  0  0  0  0  0  0  0  0  0  0
  -27.3310  -27.5100   20.0940 C   0  0  0  0  0  0  0  0  0  0  0  0
  -23.4380  -30.4600   21.5970 C   0  0  0  0  0  3  0  0  0  0  0  0
  -24.9030  -28.9540   20.1510 C   0  0  0  0  0  0  0  0  0  0  0  0
  -25.9530  -30.8720   21.3660 C   0  0  0  0  0  2  0  0  0  0  0  0
  -26.0610  -29.5070   20.7200 C   0  0  0  0  0  0  0  0  0  0  0  0
  -27.2800  -28.7920   20.6850 C   0  0  0  0  0  3  0  0  0  0  0  0
  -26.1590  -26.9640   19.5300 C   0  0  0  0  0  3  0  0  0  0  0  0
  -24.9460  -27.6790   19.5580 C   0  0  0  0  0  3  0  0  0  0  0  0
  -23.6420  -29.7850   20.2150 C   0  0  0  0  0  2  0  0  0  0  0  0
  -24.6950  -31.0880   22.1210 N   0  0  0  0  0  0  0  0  0  0  0  0
  -23.5600  -32.1330   23.7820 O   0  0  0  0  0  0  0  0  0  0  0  0
  -22.8230  -29.4210   22.5620 C   0  0  0  0  0  0  0  0  0  0  0  0
  -21.5030  -29.2040   22.4450 N   0  0  0  0  0  0  0  0  0  0  0  0
  -23.5280  -28.8160   23.3730 O   0  0  0  0  0  0  0  0  0  0  0  0
  -20.9940  -29.7500   21.7650 H   0  0  0  0  0  0  0  0  0  0  0  0
  -18.1650  -27.9240   22.9620 C   0  0  0  0  0  0  0  0  0  0  0  0
  -20.7160  -28.2450   23.2190 C   0  0  0  0  0  3  0  0  0  0  0  0
  -20.8530  -26.8170   22.6400 C   0  0  0  0  0  2  0  0  0  0  0  0
  -19.7500  -26.4620   21.6370 C   0  0  0  0  0  2  0  0  0  0  0  0
  -18.3710  -26.5770   22.2920 C   0  0  0  0  0  2  0  0  0  0  0  0
  -19.2660  -28.7140   23.3870 C   0  0  0  0  0  0  0  0  0  0  0  0
  -19.0200  -29.9720   23.9770 C   0  0  0  0  0  3  0  0  0  0  0  0
  -17.7040  -30.4410   24.1480 C   0  0  0  0  0  3  0  0  0  0  0  0
  -16.6160  -29.6480   23.7450 C   0  0  0  0  0  3  0  0  0  0  0  0
  -16.8480  -28.3920   23.1550 C   0  0  0  0  0  3  0  0  0  0  0  0
  -25.9200  -32.5390   23.8280 C   0  0  0  0  0  3  0  0  0  0  0  0
  -25.5860  -33.9280   24.1720 N   0  0  0  0  0  0  0  0  0  0  0  0
  -25.8810  -34.9890   23.4100 C   0  0  0  0  0  0  0  0  0  0  0  0
  -26.5340  -34.9060   22.3660 O   0  0  0  0  0  0  0  0  0  0  0  0
  -25.0090  -34.0660   24.9870 H   0  0  0  0  0  0  0  0  0  0  0  0
  -24.1070  -36.7430   23.0890 C   0  0  0  0  0  1  0  0  0  0  0  0
  -25.3680  -36.3640   23.8830 C   0  0  0  0  0  3  0  0  0  0  0  0
  -27.4930  -37.2910   24.6910 C   0  0  0  0  0  1  0  0  0  0  0  0
  -26.3770  -37.4400   23.7620 N   0  0  0  0  0  0  0  0  0  0  0  0
  -25.9520  -38.3500   23.9180 H   0  0  0  0  0  0  0  0  0  0  0  0
  -26.4780  -31.7710   25.0900 C   0  0  1  0  0  0  0  0  0  0  0  0
  -25.4040  -31.4900   26.1680 C   0  0  0  0  0  1  0  0  0  0  0  0
  -27.0990  -30.4170   24.6750 C   0  0  0  0  0  1  0  0  0  0  0  0
  -27.6110  -32.5940   25.7480 C   0  0  0  0  0  1  0  0  0  0  0  0
  1 49  1  0
  1  4  1  0
  2  1  1  0
  3  1  1  0
  5  9  1  0
  7  5  2  0
  7 10  1  0
  8  6  1  0
  9  6  2  0
  9  4  1  0
 10 19  1  0
 10  8  2  0
 11 19  1  0
 12 17  1  0
 13 14  1  0
 13 12  1  0
 15 14  1  0
 15 24  1  0
 15 16  1  0
 17 11  1  0
 17 16  1  0
 18 11  2  0
 19 20  1  0
 21 22  2  0
 22 41  1  0
 23 22  1  0
 23 26  1  0
 24 25  1  0
 24 21  1  0
 25 23  2  0
 26 27  1  0
 27 28  2  0
 29 32  1  0
 29 28  1  0
 30 29  2  0
 31 30  1  0
 31 26  2  0
 32 33  1  0
 33 34  1  0
 34 35  2  0
 36 35  1  0
 36 40  1  0
 37 36  2  0
 38 33  2  0
 38 37  1  0
 39 38  1  0
 41 42  1  0
 42 45  1  0
 42 44  1  0
 43 41  2  0
 46 21  1  0
 46 47  1  0
 48 46  1  0
 50 51  1  0
 50 49  1  0
 52 54  1  0
 52 51  1  0
 53 64  2  0
 54 59  1  0
 55 63  1  0
 55 65  1  0
 56 62  1  0
 56 58  1  0
 57 63  1  0
 58 57  1  0
 59 58  2  0
 60 61  1  0
 60 54  2  0
 61 56  2  0
 62 55  1  0
 63 53  1  0
 65 67  2  0
 66 65  1  0
 68 66  1  0
 69 78  2  0
 69 74  1  0
 70 66  1  0
 70 74  1  0
 71 70  1  0
 72 73  1  0
 72 71  1  0
 73 69  1  0
 74 75  2  0
 75 76  1  0
 77 76  2  0
 78 77  1  0
 79 53  1  0
 79 80  1  0
 79 89  1  0
 80 83  1  0
 81 85  1  0
 81 80  1  0
 82 81  2  0
 85 84  1  0
 87 85  1  0
 87 88  1  0
 87 86  1  0
 89 92  1  1
 89 90  1  0
 91 89  1  0
M  ISO  4  11 100  19 100  51 101  52 101
M  END
>  <TORSDO>  (33) 
F 21

>  <SCORE>  (33) 
-12.277

>  <name>  (33) 
32

>  <ligand_id>  (33) 
32

>  <original_smiles>  (33) 
[H]c1c([H])c([H])c2c(c1[H])C([H])([H])C([H])([H])C([H])([H])C2([H])N([H])C(=O)C1([H])N(C(=O)C([H])(N([H])C(=O)C([H])(N([H])C([H])([H])[H])C([H])([H])[H])C(C([H])([H])[H])(C([H])([H])[H])C([H])([H])[H])C([H])([H])c2c([H])c(OC([H])([H])C([H])([H])C([H])([H])[N+]([H])([H])C([H])([H])c3c([H])c([H])c(N([H])C(=O)N4C([H])([H])C([H])([H])C([H])([H])C([H])(n5nc(-c6c([H])c([H])c(Oc7c([H])c([H])c(F)c([H])c7F)c([H])c6[H])c(C(=O)N([H])[H])c5N([H])[H])C4([H])[H])c([H])c3[H])c([H])c([H])c2C1([H])[H]

>  <smiles>  (33) 
[H]c1c([H])c([H])c2c(c1[H])C([H])([H])C([H])([H])C([H])([H])C2([H])N([H])C(=O)C1([H])N(C(=O)C([H])(N([H])C(=O)C([H])(N([H])C([H])([H])[H])C([H])([H])[H])C(C([H])([H])[H])(C([H])([H])[H])C([H])([H])[H])C([H])([H])c2c([H])c(OC([H])([H])C([H])([H])C([H])([H])[N+]([H])([H])C([H])([H])c3c([H])c([H])c(N([H])C(=O)N4C([H])([H])C([H])([H])C([H])([H])C([H])(n5nc(-c6c([H])c([H])c(Oc7c([H])c([H])c(F)c([H])c7F)c([H])c6[H])c(C(=O)N([H])[H])c5N([H])[H])C4([H])[H])c([H])c3[H])c([H])c([H])c2C1([H])[H]

$$$$
33:0:0
     RDKit          3D

 87 95  0  0  1  0  0  0  0  0999 V2000
  -28.8940  -21.6540   20.2390 C   0  0  0  0  0  0  0  0  0  0  0  0
  -27.7640  -21.0480   19.4340 C   0  0  0  0  0  2  0  0  0  0  0  0
  -28.1450  -19.5290   19.2830 C   0  0  0  0  0  2  0  0  0  0  0  0
  -29.1000  -19.1980   20.4520 C   0  0  0  0  0  3  0  0  0  0  0  0
  -29.6430  -20.6390   20.6910 N   0  0  0  0  0  0  0  0  0  0  0  0
  -29.0800  -23.3370   20.3990 C   0  0  0  0  0  3  0  0  0  0  0  0
  -28.0060  -24.6180   20.0540 C   0  0  0  0  0  3  0  0  0  0  0  0
  -28.2380  -26.1650   20.2680 O   0  0  0  0  0  0  0  0  0  0  0  0
  -24.6320  -31.9110   23.2420 C   0  0  0  0  0  0  0  0  0  0  0  0
  -27.1840  -27.1620   20.2050 C   0  0  0  0  0  0  0  0  0  0  0  0
  -23.4210  -30.5170   21.6100 C   0  0  0  0  0  3  0  0  0  0  0  0
  -24.8600  -28.9300   20.1810 C   0  0  0  0  0  0  0  0  0  0  0  0
  -25.9770  -30.7650   21.4370 C   0  0  0  0  0  2  0  0  0  0  0  0
  -26.0440  -29.3700   20.7840 C   0  0  0  0  0  0  0  0  0  0  0  0
  -27.2060  -28.5030   20.7770 C   0  0  0  0  0  3  0  0  0  0  0  0
  -25.9720  -26.8300   19.5600 C   0  0  0  0  0  3  0  0  0  0  0  0
  -24.8380  -27.6750   19.5530 C   0  0  0  0  0  3  0  0  0  0  0  0
  -23.6340  -29.8330   20.2330 C   0  0  0  0  0  2  0  0  0  0  0  0
  -24.6970  -31.0880   22.1510 N   0  0  0  0  0  0  0  0  0  0  0  0
  -23.5490  -32.2010   23.7740 O   0  0  0  0  0  0  0  0  0  0  0  0
  -22.7420  -29.5150   22.5780 C   0  0  0  0  0  0  0  0  0  0  0  0
  -21.4130  -29.3430   22.4520 N   0  0  0  0  0  0  0  0  0  0  0  0
  -23.4140  -28.8940   23.4060 O   0  0  0  0  0  0  0  0  0  0  0  0
  -20.9280  -29.8920   21.7580 H   0  0  0  0  0  0  0  0  0  0  0  0
  -18.0350  -28.1340   22.9600 C   0  0  0  0  0  0  0  0  0  0  0  0
  -20.5940  -28.4070   23.2290 C   0  0  0  0  0  3  0  0  0  0  0  0
  -20.7000  -26.9720   22.6630 C   0  0  0  0  0  2  0  0  0  0  0  0
  -19.6010  -26.6380   21.6500 C   0  0  0  0  0  2  0  0  0  0  0  0
  -18.2180  -26.7820   22.2910 C   0  0  0  0  0  2  0  0  0  0  0  0
  -19.1510  -28.9030   23.3870 C   0  0  0  0  0  0  0  0  0  0  0  0
  -18.9250  -30.1670   23.9740 C   0  0  0  0  0  3  0  0  0  0  0  0
  -17.6180  -30.6620   24.1400 C   0  0  0  0  0  3  0  0  0  0  0  0
  -16.5170  -29.8910   23.7290 C   0  0  0  0  0  3  0  0  0  0  0  0
  -16.7270  -28.6290   23.1450 C   0  0  0  0  0  3  0  0  0  0  0  0
  -25.9130  -32.5450   23.8650 C   0  0  0  0  0  3  0  0  0  0  0  0
  -26.4240  -31.7790   25.1470 C   0  0  1  0  0  0  0  0  0  0  0  0
  -25.3290  -31.5510   26.2160 C   0  0  0  0  0  1  0  0  0  0  0  0
  -27.0030  -30.3970   24.7680 C   0  0  0  0  0  1  0  0  0  0  0  0
  -27.5760  -32.5730   25.8060 C   0  0  0  0  0  1  0  0  0  0  0  0
  -25.6060  -33.9470   24.1950 N   0  0  0  0  0  0  0  0  0  0  0  0
  -25.9120  -34.9990   23.4260 C   0  0  0  0  0  0  0  0  0  0  0  0
  -26.5500  -34.8940   22.3750 O   0  0  0  0  0  0  0  0  0  0  0  0
  -25.0350  -34.1010   25.0140 H   0  0  0  0  0  0  0  0  0  0  0  0
  -24.1590  -36.7840   23.1380 C   0  0  0  0  0  1  0  0  0  0  0  0
  -25.4380  -36.3890   23.8940 C   0  0  0  0  0  3  0  0  0  0  0  0
  -27.6000  -37.3010   24.6240 C   0  0  0  0  0  1  0  0  0  0  0  0
  -26.4580  -37.4480   23.7250 N   0  0  0  0  0  0  0  0  0  0  0  0
  -26.0520  -38.3670   23.8760 H   0  0  0  0  0  0  0  0  0  0  0  0
  -30.1230  -17.8270   20.3380 C   0  0  0  0  0  2  0  0  0  0  0  0
  -30.4860  -15.0710   20.3140 C   0  0  0  0  0  0  0  0  0  0  0  0
  -30.3730  -12.7110   19.3740 C   0  0  0  0  0  2  0  0  0  0  0  0
  -29.4390  -12.6490   18.1440 C   0  0  0  0  0  2  0  0  0  0  0  0
  -27.9810  -12.4170   18.5840 C   0  0  0  0  0  2  0  0  0  0  0  0
  -27.5680  -13.3430   19.7580 C   0  0  0  0  0  3  0  0  0  0  0  0
  -28.6270  -13.3790   20.8810 C   0  0  0  0  0  2  0  0  0  0  0  0
  -29.8870  -13.8090   20.2620 N   0  0  0  0  0  0  0  0  0  0  0  0
  -31.6920  -15.1130   20.0420 O   0  0  0  0  0  0  0  0  0  0  0  0
  -29.7300  -16.2820   20.4540 N   0  0  0  0  0  0  0  0  0  0  0  0
  -28.7490  -16.1230   20.6310 H   0  0  0  0  0  0  0  0  0  0  0  0
  -25.1890  -13.9060   20.5130 C   0  0  0  0  0  0  0  0  0  0  0  0
  -24.1300  -13.1240   20.8850 C   0  0  0  0  0  0  0  0  0  0  0  0
  -24.6000  -11.7760   20.8470 C   0  0  0  0  0  0  0  0  0  0  0  0
  -26.2350  -13.0340   20.2630 N   0  0  0  0  0  0  0  0  0  0  0  0
  -25.8900  -11.7460   20.5300 N   0  0  0  0  0  0  0  0  0  0  0  0
  -23.8780  -10.5100   21.0310 C   0  0  0  0  0  0  0  0  0  0  0  0
  -24.3040   -9.5460   21.9740 C   0  0  0  0  0  3  0  0  0  0  0  0
  -23.5810   -8.3470   22.1480 C   0  0  0  0  0  3  0  0  0  0  0  0
  -22.4190   -8.1010   21.3790 C   0  0  0  0  0  0  0  0  0  0  0  0
  -22.0130   -9.0520   20.4260 C   0  0  0  0  0  3  0  0  0  0  0  0
  -22.7360  -10.2430   20.2500 C   0  0  0  0  0  3  0  0  0  0  0  0
  -21.6680   -6.9530   21.4620 O   0  0  0  0  0  0  0  0  0  0  0  0
  -21.5920   -6.2250   22.6230 C   0  0  0  0  0  0  0  0  0  0  0  0
  -21.1010   -6.7840   23.8230 C   0  0  0  0  0  3  0  0  0  0  0  0
  -20.9740   -5.9810   24.9750 C   0  0  0  0  0  3  0  0  0  0  0  0
  -21.3270   -4.6190   24.9260 C   0  0  0  0  0  0  0  0  0  0  0  0
  -21.8110   -4.0590   23.7300 C   0  0  0  0  0  3  0  0  0  0  0  0
  -21.9390   -4.8590   22.5810 C   0  0  0  0  0  0  0  0  0  0  0  0
  -22.3840   -4.3090   21.4270 F   0  0  0  0  0  0  0  0  0  0  0  0
  -21.1990   -3.8440   26.0290 F   0  0  0  0  0  0  0  0  0  0  0  0
  -22.7300  -13.5950   21.1570 C   0  0  0  0  0  0  0  0  0  0  0  0
  -22.0030  -12.8980   22.0230 N   0  0  0  0  0  0  0  0  0  0  0  0
  -22.2900  -14.6200   20.6370 O   0  0  0  0  0  0  0  0  0  0  0  0
  -22.3720  -12.0710   22.4700 H   0  0  0  0  0  0  0  0  0  0  0  0
  -21.0660  -13.1990   22.2460 H   0  0  0  0  0  0  0  0  0  0  0  0
  -25.3440  -15.2780   20.3400 N   0  0  0  0  0  0  0  0  0  0  0  0
  -24.5660  -15.9190   20.4500 H   0  0  0  0  0  0  0  0  0  0  0  0
  -26.1700  -15.7220   19.9610 H   0  0  0  0  0  0  0  0  0  0  0  0
  1  6  1  0
  1  5  2  0
  2  1  1  0
  3  2  1  0
  3  4  1  0
  4 49  1  0
  4  5  1  0
  7  8  1  0
  7  6  2  0
  9 20  2  0
 10  8  1  0
 10 15  1  0
 11 19  1  0
 11 21  1  0
 12 18  1  0
 12 14  1  0
 13 19  1  0
 14 13  1  0
 15 14  2  0
 16 10  2  0
 17 16  1  0
 17 12  2  0
 18 11  1  0
 19  9  1  0
 21 23  2  0
 22 21  1  0
 24 22  1  0
 25 34  2  0
 25 30  1  0
 26 22  1  0
 26 30  1  0
 27 26  1  0
 28 29  1  0
 28 27  1  0
 29 25  1  0
 30 31  2  0
 31 32  1  0
 33 32  2  0
 34 33  1  0
 35  9  1  0
 35 40  1  0
 35 36  1  0
 36 39  1  1
 36 37  1  0
 38 36  1  0
 40 43  1  0
 41 45  1  0
 41 40  1  0
 42 41  2  0
 45 44  1  0
 47 48  1  0
 47 45  1  0
 47 46  1  0
 49 58  1  0
 50 58  1  0
 51 56  1  0
 52 53  1  0
 52 51  1  0
 54 53  1  0
 54 63  1  0
 54 55  1  0
 56 50  1  0
 56 55  1  0
 57 50  2  0
 58 59  1  0
 60 61  2  0
 61 80  1  0
 62 61  1  0
 62 65  1  0
 63 60  1  0
 63 64  1  0
 64 62  2  0
 65 66  1  0
 66 67  2  0
 68 71  1  0
 68 67  1  0
 69 68  2  0
 70 69  1  0
 70 65  2  0
 71 72  1  0
 72 73  1  0
 73 74  2  0
 75 74  1  0
 75 79  1  0
 76 75  2  0
 77 72  2  0
 77 76  1  0
 78 77  1  0
 80 81  1  0
 81 84  1  0
 81 83  1  0
 82 80  2  0
 85 86  1  0
 85 60  1  0
 87 85  1  0
M  ISO  4   7 101   8 101  50 100  58 100
M  END
>  <TORSDO>  (34) 
F 19

>  <SCORE>  (34) 
-15.863

>  <name>  (34) 
33

>  <ligand_id>  (34) 
33

>  <original_smiles>  (34) 
[H]c1c([H])c([H])c2c(c1[H])C([H])([H])C([H])([H])C([H])([H])C2([H])N([H])C(=O)C1([H])N(C(=O)C([H])(N([H])C(=O)C([H])(N([H])C([H])([H])[H])C([H])([H])[H])C(C([H])([H])[H])(C([H])([H])[H])C([H])([H])[H])C([H])([H])c2c([H])c(OC([H])([H])C([H])([H])C3=NC([H])(C([H])([H])N([H])C(=O)N4C([H])([H])C([H])([H])C([H])([H])C([H])(n5nc(-c6c([H])c([H])c(Oc7c([H])c([H])c(F)c([H])c7F)c([H])c6[H])c(C(=O)N([H])[H])c5N([H])[H])C4([H])[H])C([H])([H])C3([H])[H])c([H])c([H])c2C1([H])[H]

>  <smiles>  (34) 
[H]c1c([H])c([H])c2c(c1[H])C([H])([H])C([H])([H])C([H])([H])C2([H])N([H])C(=O)C1([H])N(C(=O)C([H])(N([H])C(=O)C([H])(N([H])C([H])([H])[H])C([H])([H])[H])C(C([H])([H])[H])(C([H])([H])[H])C([H])([H])[H])C([H])([H])c2c([H])c(OC([H])([H])C([H])([H])C3=NC([H])(C([H])([H])N([H])C(=O)N4C([H])([H])C([H])([H])C([H])([H])C([H])(n5nc(-c6c([H])c([H])c(Oc7c([H])c([H])c(F)c([H])c7F)c([H])c6[H])c(C(=O)N([H])[H])c5N([H])[H])C4([H])[H])C([H])([H])C3([H])[H])c([H])c([H])c2C1([H])[H]

$$$$
35:0:0
     RDKit          3D

 90 98  0  0  1  0  0  0  0  0999 V2000
  -28.8260  -22.5240   20.7070 N   0  0  0  0  0  4  0  0  0  0  0  0
  -29.8290  -22.6120   20.7660 H   0  0  0  0  0  0  0  0  0  0  0  0
  -28.4790  -22.5480   21.6540 H   0  0  0  0  0  0  0  0  0  0  0  0
  -28.5050  -21.1220   20.1680 C   0  0  0  0  0  2  0  0  0  0  0  0
  -29.4420  -19.8740   20.6200 C   0  0  0  0  0  2  0  0  0  0  0  0
  -28.9110  -18.3400   20.5190 C   0  0  0  0  0  2  0  0  0  0  0  0
  -29.8570  -17.1120   20.0990 C   0  0  0  0  0  0  0  0  0  0  0  0
  -29.7990  -15.9280   20.7050 N   0  0  0  0  0  0  0  0  0  0  0  0
  -30.6050  -14.7660   20.4300 C   0  0  0  0  0  0  0  0  0  0  0  0
  -30.4090  -12.4740   19.4440 C   0  0  0  0  0  2  0  0  0  0  0  0
  -29.5080  -12.5610   18.1930 C   0  0  0  0  0  2  0  0  0  0  0  0
  -28.0280  -12.3780   18.5870 C   0  0  0  0  0  2  0  0  0  0  0  0
  -27.6240  -13.2810   19.7840 C   0  0  0  0  0  3  0  0  0  0  0  0
  -28.6570  -13.2150   20.9260 C   0  0  0  0  0  2  0  0  0  0  0  0
  -29.9740  -13.5450   20.3690 N   0  0  0  0  0  0  0  0  0  0  0  0
  -31.8010  -14.8040   20.1470 O   0  0  0  0  0  0  0  0  0  0  0  0
  -25.2240  -13.8720   20.4680 C   0  0  0  0  0  0  0  0  0  0  0  0
  -24.1520  -13.1000   20.8290 C   0  0  0  0  0  0  0  0  0  0  0  0
  -24.6200  -11.7510   20.8270 C   0  0  0  0  0  0  0  0  0  0  0  0
  -26.2720  -12.9930   20.2600 N   0  0  0  0  0  0  0  0  0  0  0  0
  -25.9180  -11.7120   20.5420 N   0  0  0  0  0  0  0  0  0  0  0  0
  -23.8940  -10.4880   21.0220 C   0  0  0  0  0  0  0  0  0  0  0  0
  -24.3240   -9.5280   21.9670 C   0  0  0  0  0  3  0  0  0  0  0  0
  -23.6020   -8.3290   22.1490 C   0  0  0  0  0  3  0  0  0  0  0  0
  -22.4340   -8.0830   21.3880 C   0  0  0  0  0  0  0  0  0  0  0  0
  -22.0230   -9.0280   20.4320 C   0  0  0  0  0  3  0  0  0  0  0  0
  -22.7460  -10.2190   20.2480 C   0  0  0  0  0  3  0  0  0  0  0  0
  -21.6790   -6.9380   21.4810 O   0  0  0  0  0  0  0  0  0  0  0  0
  -21.6330   -6.1970   22.6330 C   0  0  0  0  0  0  0  0  0  0  0  0
  -21.2210   -6.7550   23.8640 C   0  0  0  0  0  3  0  0  0  0  0  0
  -21.1250   -5.9390   25.0080 C   0  0  0  0  0  3  0  0  0  0  0  0
  -21.4290   -4.5670   24.9220 C   0  0  0  0  0  0  0  0  0  0  0  0
  -21.8340   -4.0080   23.6970 C   0  0  0  0  0  3  0  0  0  0  0  0
  -21.9330   -4.8220   22.5550 C   0  0  0  0  0  0  0  0  0  0  0  0
  -22.3040   -4.2770   21.3720 F   0  0  0  0  0  0  0  0  0  0  0  0
  -21.3270   -3.7800   26.0200 F   0  0  0  0  0  0  0  0  0  0  0  0
  -22.7470  -13.5750   21.0660 C   0  0  0  0  0  0  0  0  0  0  0  0
  -22.0010  -12.8890   21.9260 N   0  0  0  0  0  0  0  0  0  0  0  0
  -22.3170  -14.5890   20.5190 O   0  0  0  0  0  0  0  0  0  0  0  0
  -22.3570  -12.0700   22.3980 H   0  0  0  0  0  0  0  0  0  0  0  0
  -21.0540  -13.1850   22.1210 H   0  0  0  0  0  0  0  0  0  0  0  0
  -25.3920  -15.2400   20.2770 N   0  0  0  0  0  0  0  0  0  0  0  0
  -24.6380  -15.9120   20.3720 H   0  0  0  0  0  0  0  0  0  0  0  0
  -26.2770  -15.6610   20.0200 H   0  0  0  0  0  0  0  0  0  0  0  0
  -32.1770  -17.6030   18.8160 C   0  0  0  0  0  2  0  0  0  0  0  0
  -31.4290  -16.7060   17.8450 C   0  0  0  0  0  2  0  0  0  0  0  0
  -30.6670  -17.5460   18.8500 C   0  0  0  0  0  3  0  0  0  0  0  0
  -28.3070  -23.7840   19.9890 C   0  0  0  0  0  2  0  0  0  0  0  0
  -28.3090  -25.1650   20.8200 C   0  0  0  0  0  2  0  0  0  0  0  0
  -28.3440  -26.5020   20.1650 O   0  0  0  0  0  0  0  0  0  0  0  0
  -24.6270  -31.8840   23.2560 C   0  0  0  0  0  0  0  0  0  0  0  0
  -27.2140  -27.3290   20.1940 C   0  0  0  0  0  0  0  0  0  0  0  0
  -23.4110  -30.4900   21.6220 C   0  0  0  0  0  3  0  0  0  0  0  0
  -24.8520  -28.9370   20.1860 C   0  0  0  0  0  0  0  0  0  0  0  0
  -25.9490  -30.8110   21.4190 C   0  0  0  0  0  2  0  0  0  0  0  0
  -26.0260  -29.4350   20.7690 C   0  0  0  0  0  0  0  0  0  0  0  0
  -27.2140  -28.6490   20.7460 C   0  0  0  0  0  3  0  0  0  0  0  0
  -26.0180  -26.8700   19.6070 C   0  0  0  0  0  3  0  0  0  0  0  0
  -24.8520  -27.6640   19.5890 C   0  0  0  0  0  3  0  0  0  0  0  0
  -23.6140  -29.8120   20.2420 C   0  0  0  0  0  2  0  0  0  0  0  0
  -24.6820  -31.0800   22.1560 N   0  0  0  0  0  0  0  0  0  0  0  0
  -23.5480  -32.1620   23.7980 O   0  0  0  0  0  0  0  0  0  0  0  0
  -22.7570  -29.4730   22.5850 C   0  0  0  0  0  0  0  0  0  0  0  0
  -21.4300  -29.2930   22.4630 N   0  0  0  0  0  0  0  0  0  0  0  0
  -23.4390  -28.8450   23.3990 O   0  0  0  0  0  0  0  0  0  0  0  0
  -20.9400  -29.8550   21.7800 H   0  0  0  0  0  0  0  0  0  0  0  0
  -18.0550  -28.0870   22.9610 C   0  0  0  0  0  0  0  0  0  0  0  0
  -20.6120  -28.3530   23.2330 C   0  0  0  0  0  3  0  0  0  0  0  0
  -20.7170  -26.9210   22.6570 C   0  0  0  0  0  2  0  0  0  0  0  0
  -19.6160  -26.5940   21.6440 C   0  0  0  0  0  2  0  0  0  0  0  0
  -18.2340  -26.7380   22.2860 C   0  0  0  0  0  2  0  0  0  0  0  0
  -19.1700  -28.8530   23.3910 C   0  0  0  0  0  0  0  0  0  0  0  0
  -18.9480  -30.1160   23.9810 C   0  0  0  0  0  3  0  0  0  0  0  0
  -17.6420  -30.6120   24.1470 C   0  0  0  0  0  3  0  0  0  0  0  0
  -16.5390  -29.8430   23.7350 C   0  0  0  0  0  3  0  0  0  0  0  0
  -16.7470  -28.5830   23.1460 C   0  0  0  0  0  3  0  0  0  0  0  0
  -25.9140  -32.5140   23.8780 C   0  0  0  0  0  3  0  0  0  0  0  0
  -25.6070  -33.9120   24.2110 N   0  0  0  0  0  0  0  0  0  0  0  0
  -25.9390  -34.9660   23.4520 C   0  0  0  0  0  0  0  0  0  0  0  0
  -26.6060  -34.8630   22.4200 O   0  0  0  0  0  0  0  0  0  0  0  0
  -25.0130  -34.0660   25.0120 H   0  0  0  0  0  0  0  0  0  0  0  0
  -24.2160  -36.7680   23.1020 C   0  0  0  0  0  1  0  0  0  0  0  0
  -25.4550  -36.3540   23.9130 C   0  0  0  0  0  3  0  0  0  0  0  0
  -27.5950  -37.2270   24.7450 C   0  0  0  0  0  1  0  0  0  0  0  0
  -26.4900  -37.4060   23.8060 N   0  0  0  0  0  0  0  0  0  0  0  0
  -26.0860  -38.3270   23.9600 H   0  0  0  0  0  0  0  0  0  0  0  0
  -26.4300  -31.7430   25.1560 C   0  0  1  0  0  0  0  0  0  0  0  0
  -25.3390  -31.5120   26.2290 C   0  0  0  0  0  1  0  0  0  0  0  0
  -27.0060  -30.3610   24.7670 C   0  0  0  0  0  1  0  0  0  0  0  0
  -27.5880  -32.5320   25.8140 C   0  0  0  0  0  1  0  0  0  0  0  0
  1  2  1  0
  1  3  1  0
  4  5  1  0
  4  1  1  0
  6  5  1  0
  7  6  1  0
  7  8  2  0
  9  8  1  0
 10 15  1  0
 11 12  1  0
 11 10  1  0
 13 12  1  0
 13 20  1  0
 13 14  1  0
 15  9  1  0
 15 14  1  0
 16  9  2  0
 17 18  2  0
 18 37  1  0
 19 18  1  0
 19 22  1  0
 20 17  1  0
 20 21  1  0
 21 19  2  0
 22 23  1  0
 23 24  2  0
 25 28  1  0
 25 24  1  0
 26 25  2  0
 27 26  1  0
 27 22  2  0
 28 29  1  0
 29 30  1  0
 30 31  2  0
 32 31  1  0
 32 36  1  0
 33 32  2  0
 34 29  2  0
 34 33  1  0
 35 34  1  0
 37 38  1  0
 38 41  1  0
 38 40  1  0
 39 37  2  0
 42 43  1  0
 42 17  1  0
 44 42  1  0
 45 47  1  0
 46 45  1  0
 46 47  1  0
 47  7  1  0
 48  1  1  0
 48 49  1  0
 50 52  1  0
 50 49  1  0
 51 62  2  0
 52 57  1  0
 53 61  1  0
 53 63  1  0
 54 60  1  0
 54 56  1  0
 55 61  1  0
 56 55  1  0
 57 56  2  0
 58 52  2  0
 59 58  1  0
 59 54  2  0
 60 53  1  0
 61 51  1  0
 63 65  2  0
 64 63  1  0
 66 64  1  0
 67 76  2  0
 67 72  1  0
 68 64  1  0
 68 72  1  0
 69 68  1  0
 70 71  1  0
 70 69  1  0
 71 67  1  0
 72 73  2  0
 73 74  1  0
 75 74  2  0
 76 75  1  0
 77 51  1  0
 77 78  1  0
 77 87  1  0
 78 81  1  0
 79 83  1  0
 79 78  1  0
 80 79  2  0
 83 82  1  0
 85 83  1  0
 85 86  1  0
 85 84  1  0
 87 90  1  1
 87 88  1  0
 89 87  1  0
M  ISO  4   8 100   9 100  49 101  50 101
M  END
>  <TORSDO>  (35) 
F 23

>  <SCORE>  (35) 
-12.629

>  <name>  (35) 
35

>  <ligand_id>  (35) 
35

>  <original_smiles>  (35) 
[H]c1c([H])c([H])c2c(c1[H])C([H])([H])C([H])([H])C([H])([H])C2([H])N([H])C(=O)C1([H])N(C(=O)C([H])(N([H])C(=O)C([H])(N([H])C([H])([H])[H])C([H])([H])[H])C(C([H])([H])[H])(C([H])([H])[H])C([H])([H])[H])C([H])([H])c2c([H])c(OC([H])([H])C([H])([H])[N+]([H])([H])C([H])([H])C([H])([H])C([H])([H])C(=NC(=O)N3C([H])([H])C([H])([H])C([H])([H])C([H])(n4nc(-c5c([H])c([H])c(Oc6c([H])c([H])c(F)c([H])c6F)c([H])c5[H])c(C(=O)N([H])[H])c4N([H])[H])C3([H])[H])C3([H])C([H])([H])C3([H])[H])c([H])c([H])c2C1([H])[H]

>  <smiles>  (35) 
[H]c1c([H])c([H])c2c(c1[H])C([H])([H])C([H])([H])C([H])([H])C2([H])N([H])C(=O)C1([H])N(C(=O)C([H])(N([H])C(=O)C([H])(N([H])C([H])([H])[H])C([H])([H])[H])C(C([H])([H])[H])(C([H])([H])[H])C([H])([H])[H])C([H])([H])c2c([H])c(OC([H])([H])C([H])([H])[N+]([H])([H])C([H])([H])C([H])([H])C([H])([H])C(=NC(=O)N3C([H])([H])C([H])([H])C([H])([H])C([H])(n4nc(-c5c([H])c([H])c(Oc6c([H])c([H])c(F)c([H])c6F)c([H])c5[H])c(C(=O)N([H])[H])c4N([H])[H])C3([H])[H])C3([H])C([H])([H])C3([H])[H])c([H])c([H])c2C1([H])[H]

$$$$
36:0:0
     RDKit          3D

 90 99  0  0  1  0  0  0  0  0999 V2000
  -30.9640  -18.4790   19.8980 C   0  0  0  0  0  3  0  0  0  0  0  0
  -29.8030  -17.8740   20.2860 C   0  0  0  0  0  0  0  0  0  0  0  0
  -31.1070  -19.9820   19.6340 C   0  0  0  0  0  0  0  0  0  0  0  0
  -28.5890  -22.9440   20.1740 C   0  0  0  0  0  0  0  0  0  0  0  0
  -28.5830  -18.9550   20.4290 C   0  0  0  0  0  2  0  0  0  0  0  0
  -30.0780  -22.5680   19.9300 C   0  0  0  0  0  2  0  0  0  0  0  0
  -30.2930  -21.0590   20.4400 C   0  0  0  0  0  3  0  0  0  0  0  0
  -28.9060  -20.5650   20.8080 C   0  0  0  0  0  3  0  0  0  0  0  0
  -27.9940  -21.7900   20.4970 N   0  0  0  0  0  0  0  0  0  0  0  0
  -31.9150  -20.3940   18.7980 O   0  0  0  0  0  0  0  0  0  0  0  0
  -30.4230  -15.1470   20.2870 C   0  0  0  0  0  0  0  0  0  0  0  0
  -30.3630  -12.7450   19.3850 C   0  0  0  0  0  2  0  0  0  0  0  0
  -29.4410  -12.6300   18.1460 C   0  0  0  0  0  2  0  0  0  0  0  0
  -27.9800  -12.3930   18.5740 C   0  0  0  0  0  2  0  0  0  0  0  0
  -27.5480  -13.3360   19.7250 C   0  0  0  0  0  3  0  0  0  0  0  0
  -28.5940  -13.4050   20.8580 C   0  0  0  0  0  2  0  0  0  0  0  0
  -29.8530  -13.8600   20.2490 N   0  0  0  0  0  0  0  0  0  0  0  0
  -31.6290  -15.1940   20.0100 O   0  0  0  0  0  0  0  0  0  0  0  0
  -29.6190  -16.3480   20.4460 N   0  0  0  0  0  0  0  0  0  0  0  0
  -28.6680  -16.1040   20.6770 H   0  0  0  0  0  0  0  0  0  0  0  0
  -25.1630  -13.9050   20.4460 C   0  0  0  0  0  0  0  0  0  0  0  0
  -24.0990  -13.1300   20.8140 C   0  0  0  0  0  0  0  0  0  0  0  0
  -24.5680  -11.7800   20.7980 C   0  0  0  0  0  0  0  0  0  0  0  0
  -26.2100  -13.0300   20.2200 N   0  0  0  0  0  0  0  0  0  0  0  0
  -25.8630  -11.7460   20.4980 N   0  0  0  0  0  0  0  0  0  0  0  0
  -23.8420  -10.5170   20.9910 C   0  0  0  0  0  0  0  0  0  0  0  0
  -24.2710   -9.5540   21.9290 C   0  0  0  0  0  3  0  0  0  0  0  0
  -23.5430   -8.3580   22.1120 C   0  0  0  0  0  3  0  0  0  0  0  0
  -22.3710   -8.1170   21.3540 C   0  0  0  0  0  0  0  0  0  0  0  0
  -21.9610   -9.0700   20.4050 C   0  0  0  0  0  3  0  0  0  0  0  0
  -22.6900  -10.2580   20.2210 C   0  0  0  0  0  3  0  0  0  0  0  0
  -21.6150   -6.9730   21.4450 O   0  0  0  0  0  0  0  0  0  0  0  0
  -21.5670   -6.2330   22.5990 C   0  0  0  0  0  0  0  0  0  0  0  0
  -21.1410   -6.7900   23.8250 C   0  0  0  0  0  3  0  0  0  0  0  0
  -21.0390   -5.9760   24.9700 C   0  0  0  0  0  3  0  0  0  0  0  0
  -21.3520   -4.6060   24.8920 C   0  0  0  0  0  0  0  0  0  0  0  0
  -21.7710   -4.0490   23.6710 C   0  0  0  0  0  3  0  0  0  0  0  0
  -21.8750   -4.8600   22.5280 C   0  0  0  0  0  0  0  0  0  0  0  0
  -22.2580   -4.3120   21.3490 F   0  0  0  0  0  0  0  0  0  0  0  0
  -21.2480   -3.8220   25.9910 F   0  0  0  0  0  0  0  0  0  0  0  0
  -22.6980  -13.6060   21.0660 C   0  0  0  0  0  0  0  0  0  0  0  0
  -21.9640  -12.9200   21.9350 N   0  0  0  0  0  0  0  0  0  0  0  0
  -22.2630  -14.6230   20.5270 O   0  0  0  0  0  0  0  0  0  0  0  0
  -22.3300  -12.0990   22.3920 H   0  0  0  0  0  0  0  0  0  0  0  0
  -21.0250  -13.2230   22.1470 H   0  0  0  0  0  0  0  0  0  0  0  0
  -25.3210  -15.2750   20.2570 N   0  0  0  0  0  0  0  0  0  0  0  0
  -24.5430  -15.9200   20.3450 H   0  0  0  0  0  0  0  0  0  0  0  0
  -26.1530  -15.7110   19.8790 H   0  0  0  0  0  0  0  0  0  0  0  0
  -27.8480  -24.4840   19.8400 C   0  0  0  0  0  2  0  0  0  0  0  0
  -28.1970  -26.0100   20.1820 O   0  0  0  0  0  0  0  0  0  0  0  0
  -24.6210  -31.8440   23.1820 C   0  0  0  0  0  0  0  0  0  0  0  0
  -27.1880  -27.0770   20.1070 C   0  0  0  0  0  0  0  0  0  0  0  0
  -23.4240  -30.4620   21.5340 C   0  0  0  0  0  3  0  0  0  0  0  0
  -24.8720  -28.8940   20.0890 C   0  0  0  0  0  0  0  0  0  0  0  0
  -25.9840  -30.7040   21.3770 C   0  0  0  0  0  2  0  0  0  0  0  0
  -26.0580  -29.3100   20.7090 C   0  0  0  0  0  0  0  0  0  0  0  0
  -27.2120  -28.4210   20.7010 C   0  0  0  0  0  3  0  0  0  0  0  0
  -25.9760  -26.8000   19.4330 C   0  0  0  0  0  3  0  0  0  0  0  0
  -24.8510  -27.6570   19.4320 C   0  0  0  0  0  3  0  0  0  0  0  0
  -23.6480  -29.7980   20.1480 C   0  0  0  0  0  2  0  0  0  0  0  0
  -24.6970  -31.0270   22.0850 N   0  0  0  0  0  0  0  0  0  0  0  0
  -23.5340  -32.1250   23.7110 O   0  0  0  0  0  0  0  0  0  0  0  0
  -22.7420  -29.4490   22.4900 C   0  0  0  0  0  0  0  0  0  0  0  0
  -21.4100  -29.2900   22.3740 N   0  0  0  0  0  0  0  0  0  0  0  0
  -23.4140  -28.8080   23.3000 O   0  0  0  0  0  0  0  0  0  0  0  0
  -20.9220  -29.8580   21.6960 H   0  0  0  0  0  0  0  0  0  0  0  0
  -18.0250  -28.1030   22.9050 C   0  0  0  0  0  0  0  0  0  0  0  0
  -20.5900  -28.3470   23.1410 C   0  0  0  0  0  3  0  0  0  0  0  0
  -20.6740  -26.9220   22.5440 C   0  0  0  0  0  2  0  0  0  0  0  0
  -19.5560  -26.6230   21.5390 C   0  0  0  0  0  2  0  0  0  0  0  0
  -18.1840  -26.7650   22.2030 C   0  0  0  0  0  2  0  0  0  0  0  0
  -19.1540  -28.8530   23.3320 C   0  0  0  0  0  0  0  0  0  0  0  0
  -18.9480  -30.1040   23.9520 C   0  0  0  0  0  3  0  0  0  0  0  0
  -17.6490  -30.6080   24.1470 C   0  0  0  0  0  3  0  0  0  0  0  0
  -16.5350  -29.8560   23.7350 C   0  0  0  0  0  3  0  0  0  0  0  0
  -16.7240  -28.6050   23.1200 C   0  0  0  0  0  3  0  0  0  0  0  0
  -25.8960  -32.4800   23.8150 C   0  0  0  0  0  3  0  0  0  0  0  0
  -25.5780  -33.8750   24.1630 N   0  0  0  0  0  0  0  0  0  0  0  0
  -25.8890  -34.9420   23.4140 C   0  0  0  0  0  0  0  0  0  0  0  0
  -26.5390  -34.8550   22.3690 O   0  0  0  0  0  0  0  0  0  0  0  0
  -24.9970  -34.0150   24.9770 H   0  0  0  0  0  0  0  0  0  0  0  0
  -24.1350  -36.7260   23.1340 C   0  0  0  0  0  1  0  0  0  0  0  0
  -25.4060  -36.3240   23.8990 C   0  0  0  0  0  3  0  0  0  0  0  0
  -27.5570  -37.2240   24.6690 C   0  0  0  0  0  1  0  0  0  0  0  0
  -26.4240  -37.3880   23.7620 N   0  0  0  0  0  0  0  0  0  0  0  0
  -26.0150  -38.3030   23.9280 H   0  0  0  0  0  0  0  0  0  0  0  0
  -26.4080  -31.7030   25.0900 C   0  0  1  0  0  0  0  0  0  0  0  0
  -25.3120  -31.4620   26.1550 C   0  0  0  0  0  1  0  0  0  0  0  0
  -26.9920  -30.3260   24.7010 C   0  0  0  0  0  1  0  0  0  0  0  0
  -27.5570  -32.4950   25.7580 C   0  0  0  0  0  1  0  0  0  0  0  0
  1  2  2  0
  2  5  1  0
  2 19  1  0
  3  1  1  0
  3  7  1  0
  4  9  2  0
  6  4  1  0
  7  6  1  0
  7  8  1  0
  8  5  1  0
  9  8  1  0
 10  3  2  0
 11 19  1  0
 12 17  1  0
 13 14  1  0
 13 12  1  0
 15 14  1  0
 15 24  1  0
 15 16  1  0
 17 11  1  0
 17 16  1  0
 18 11  2  0
 19 20  1  0
 21 22  2  0
 22 41  1  0
 23 22  1  0
 23 26  1  0
 24 21  1  0
 24 25  1  0
 25 23  2  0
 26 27  1  0
 27 28  2  0
 29 32  1  0
 29 28  1  0
 30 29  2  0
 31 30  1  0
 31 26  2  0
 32 33  1  0
 33 34  1  0
 34 35  2  0
 36 35  1  0
 36 40  1  0
 37 36  2  0
 38 33  2  0
 38 37  1  0
 39 38  1  0
 41 42  1  0
 42 45  1  0
 42 44  1  0
 43 41  2  0
 46 47  1  0
 46 21  1  0
 48 46  1  0
 49  4  1  0
 49 50  1  0
 51 62  2  0
 52 50  1  0
 52 57  1  0
 53 61  1  0
 53 63  1  0
 54 60  1  0
 54 56  1  0
 55 61  1  0
 56 55  1  0
 57 56  2  0
 58 52  2  0
 59 58  1  0
 59 54  2  0
 60 53  1  0
 61 51  1  0
 63 65  2  0
 64 63  1  0
 66 64  1  0
 67 76  2  0
 67 72  1  0
 68 64  1  0
 68 72  1  0
 69 68  1  0
 70 71  1  0
 70 69  1  0
 71 67  1  0
 72 73  2  0
 73 74  1  0
 75 74  2  0
 76 75  1  0
 77 51  1  0
 77 78  1  0
 77 87  1  0
 78 81  1  0
 79 83  1  0
 79 78  1  0
 80 79  2  0
 83 82  1  0
 85 83  1  0
 85 86  1  0
 85 84  1  0
 87 90  1  1
 87 88  1  0
 89 87  1  0
M  ISO  4  11 100  19 100  49 101  50 101
M  END
>  <TORSDO>  (36) 
F 17

>  <SCORE>  (36) 
-15.818

>  <name>  (36) 
36

>  <ligand_id>  (36) 
36

>  <original_smiles>  (36) 
[H]C1=C(N([H])C(=O)N2C([H])([H])C([H])([H])C([H])([H])C([H])(n3nc(-c4c([H])c([H])c(Oc5c([H])c([H])c(F)c([H])c5F)c([H])c4[H])c(C(=O)N([H])[H])c3N([H])[H])C2([H])[H])C([H])([H])C2([H])N=C(C([H])([H])Oc3c([H])c([H])c4c(c3[H])C([H])([H])N(C(=O)C([H])(N([H])C(=O)C([H])(N([H])C([H])([H])[H])C([H])([H])[H])C(C([H])([H])[H])(C([H])([H])[H])C([H])([H])[H])C([H])(C(=O)N([H])C3([H])c5c([H])c([H])c([H])c([H])c5C([H])([H])C([H])([H])C3([H])[H])C4([H])[H])C([H])([H])C2([H])C1=O

>  <smiles>  (36) 
[H]C1=C(N([H])C(=O)N2C([H])([H])C([H])([H])C([H])([H])C([H])(n3nc(-c4c([H])c([H])c(Oc5c([H])c([H])c(F)c([H])c5F)c([H])c4[H])c(C(=O)N([H])[H])c3N([H])[H])C2([H])[H])C([H])([H])C2([H])N=C(C([H])([H])Oc3c([H])c([H])c4c(c3[H])C([H])([H])N(C(=O)C([H])(N([H])C(=O)C([H])(N([H])C([H])([H])[H])C([H])([H])[H])C(C([H])([H])[H])(C([H])([H])[H])C([H])([H])[H])C([H])(C(=O)N([H])C3([H])c5c([H])c([H])c([H])c([H])c5C([H])([H])C([H])([H])C3([H])[H])C4([H])[H])C([H])([H])C2([H])C1=O

$$$$
37:0:0
     RDKit          3D

 97107  0  0  1  0  0  0  0  0999 V2000
  -26.0350  -23.9840   22.3070 C   0  0  0  0  0  2  0  0  0  0  0  0
  -25.7480  -25.1330   23.2870 C   0  0  0  0  0  2  0  0  0  0  0  0
  -27.9690  -24.5470   23.6600 C   0  0  0  0  0  2  0  0  0  0  0  0
  -27.4940  -23.5690   22.5740 C   0  0  0  0  0  3  0  0  0  0  0  0
  -27.0790  -25.7250   23.5720 N   0  0  2  0  0  4  0  0  0  0  0  0
  -27.3420  -26.2130   22.7260 H   0  0  0  0  0  0  0  0  0  0  0  0
  -30.6110  -23.1910   20.3750 C   0  0  0  0  0  3  0  0  0  0  0  0
  -29.3560  -25.1400   19.6550 C   0  0  0  0  0  3  0  0  0  0  0  0
  -29.5360  -22.8260   21.2220 C   0  0  0  0  0  3  0  0  0  0  0  0
  -28.3150  -24.8030   20.5270 C   0  0  0  0  0  3  0  0  0  0  0  0
  -30.5650  -24.4050   19.6430 C   0  0  0  0  0  0  0  0  0  0  0  0
  -28.4300  -23.6960   21.3770 C   0  0  0  0  0  0  0  0  0  0  0  0
  -32.9970  -24.5280   19.1040 C   0  0  0  0  0  3  0  0  0  0  0  0
  -34.1470  -25.1280   18.4570 C   0  0  0  0  0  3  0  0  0  0  0  0
  -31.7400  -24.9970   18.9400 C   0  0  0  0  0  0  0  0  0  0  0  0
  -34.0280  -26.2360   17.7020 C   0  0  0  0  0  0  0  0  0  0  0  0
  -31.4950  -26.2210   18.0470 C   0  0  0  0  0  3  0  0  0  0  0  0
  -32.7260  -26.9850   17.5520 C   0  0  0  0  0  3  0  0  0  0  0  0
  -35.1660  -26.8480   17.0460 C   0  0  0  0  0  0  0  0  0  0  0  0
  -36.0220  -27.2590   14.7860 C   0  0  0  0  0  2  0  0  0  0  0  0
  -34.8650  -27.8120   13.9300 C   0  0  0  0  0  2  0  0  0  0  0  0
  -34.0590  -26.6640   13.2870 C   0  0  0  0  0  2  0  0  0  0  0  0
  -33.6640  -25.5670   14.3100 C   0  0  0  0  0  3  0  0  0  0  0  0
  -34.8740  -25.1620   15.1760 C   0  0  0  0  0  2  0  0  0  0  0  0
  -35.4340  -26.3750   15.8000 N   0  0  0  0  0  0  0  0  0  0  0  0
  -35.6700  -27.8750   17.5030 O   0  0  0  0  0  0  0  0  0  0  0  0
  -32.0640  -23.5600   14.1060 C   0  0  0  0  0  0  0  0  0  0  0  0
  -31.8130  -22.6910   13.0790 C   0  0  0  0  0  0  0  0  0  0  0  0
  -32.6930  -23.0710   12.0200 C   0  0  0  0  0  0  0  0  0  0  0  0
  -33.0580  -24.4130   13.6520 N   0  0  0  0  0  0  0  0  0  0  0  0
  -33.4690  -24.0770   12.4040 N   0  0  0  0  0  0  0  0  0  0  0  0
  -32.8020  -22.5760   10.6420 C   0  0  0  0  0  0  0  0  0  0  0  0
  -33.9800  -21.9540   10.1720 C   0  0  0  0  0  3  0  0  0  0  0  0
  -34.0530  -21.4700    8.8480 C   0  0  0  0  0  3  0  0  0  0  0  0
  -32.9430  -21.6010    7.9810 C   0  0  0  0  0  0  0  0  0  0  0  0
  -31.7800  -22.2410    8.4470 C   0  0  0  0  0  3  0  0  0  0  0  0
  -31.7110  -22.7270    9.7640 C   0  0  0  0  0  3  0  0  0  0  0  0
  -32.9320  -21.1870    6.6710 O   0  0  0  0  0  0  0  0  0  0  0  0
  -33.6550  -20.0980    6.2560 C   0  0  0  0  0  0  0  0  0  0  0  0
  -33.4070  -18.8020    6.7610 C   0  0  0  0  0  3  0  0  0  0  0  0
  -34.1260  -17.7000    6.2570 C   0  0  0  0  0  3  0  0  0  0  0  0
  -35.0860  -17.8890    5.2450 C   0  0  0  0  0  0  0  0  0  0  0  0
  -35.3310  -19.1780    4.7360 C   0  0  0  0  0  3  0  0  0  0  0  0
  -34.6160  -20.2780    5.2410 C   0  0  0  0  0  0  0  0  0  0  0  0
  -34.8410  -21.5140    4.7340 F   0  0  0  0  0  0  0  0  0  0  0  0
  -35.7720  -16.8310    4.7540 F   0  0  0  0  0  0  0  0  0  0  0  0
  -30.7590  -21.6210   13.0440 C   0  0  0  0  0  0  0  0  0  0  0  0
  -31.0530  -20.4910   12.4150 N   0  0  0  0  0  0  0  0  0  0  0  0
  -29.6810  -21.7690   13.6200 O   0  0  0  0  0  0  0  0  0  0  0  0
  -31.9450  -20.3670   11.9610 H   0  0  0  0  0  0  0  0  0  0  0  0
  -30.3780  -19.7420   12.3840 H   0  0  0  0  0  0  0  0  0  0  0  0
  -31.5180  -23.7100   15.3780 N   0  0  0  0  0  0  0  0  0  0  0  0
  -30.7680  -23.1180   15.7230 H   0  0  0  0  0  0  0  0  0  0  0  0
  -31.8340  -24.3950   16.0550 H   0  0  0  0  0  0  0  0  0  0  0  0
  -27.2620  -26.7250   24.6760 C   0  0  0  0  0  2  0  0  0  0  0  0
  -26.2140  -27.8490   24.8230 C   0  0  0  0  0  2  0  0  0  0  0  0
  -26.5480  -29.1050   24.2000 O   0  0  0  0  0  0  0  0  0  0  0  0
  -22.4970  -26.4180   19.0710 C   0  0  0  0  0  0  0  0  0  0  0  0
  -26.2130  -29.1650   22.8660 C   0  0  0  0  0  0  0  0  0  0  0  0
  -24.5160  -27.6350   18.3140 C   0  0  0  0  0  3  0  0  0  0  0  0
  -25.6940  -29.0400   20.0930 C   0  0  0  0  0  0  0  0  0  0  0  0
  -23.3370  -28.3010   20.4740 C   0  0  0  0  0  2  0  0  0  0  0  0
  -24.6820  -28.7270   21.0090 C   0  0  0  0  0  0  0  0  0  0  0  0
  -24.9260  -28.8060   22.3950 C   0  0  0  0  0  3  0  0  0  0  0  0
  -27.2120  -29.5210   21.9370 C   0  0  0  0  0  3  0  0  0  0  0  0
  -26.9590  -29.4490   20.5530 C   0  0  0  0  0  3  0  0  0  0  0  0
  -25.3420  -28.9190   18.6250 C   0  0  0  0  0  2  0  0  0  0  0  0
  -23.4230  -27.3920   19.3090 N   0  0  0  0  0  0  0  0  0  0  0  0
  -22.5260  -25.7560   18.0230 O   0  0  0  0  0  0  0  0  0  0  0  0
  -25.4910  -26.4450   18.1850 C   0  0  0  0  0  0  0  0  0  0  0  0
  -25.9180  -26.1550   16.9440 N   0  0  0  0  0  0  0  0  0  0  0  0
  -25.8840  -25.8310   19.1820 O   0  0  0  0  0  0  0  0  0  0  0  0
  -25.6000  -26.7450   16.1830 H   0  0  0  0  0  0  0  0  0  0  0  0
  -27.4300  -24.4220   14.1600 C   0  0  0  0  0  0  0  0  0  0  0  0
  -26.8690  -25.1020   16.5900 C   0  0  0  0  0  3  0  0  0  0  0  0
  -28.3200  -25.6360   16.6740 C   0  0  0  0  0  2  0  0  0  0  0  0
  -28.8500  -26.1500   15.3310 C   0  0  0  0  0  2  0  0  0  0  0  0
  -28.8140  -25.0410   14.2760 C   0  0  0  0  0  2  0  0  0  0  0  0
  -26.5140  -24.4430   15.2470 C   0  0  0  0  0  0  0  0  0  0  0  0
  -25.2410  -23.8510   15.0770 C   0  0  0  0  0  3  0  0  0  0  0  0
  -24.8780  -23.2590   13.8440 C   0  0  0  0  0  3  0  0  0  0  0  0
  -25.7950  -23.2420   12.7790 C   0  0  0  0  0  3  0  0  0  0  0  0
  -27.0690  -23.8100   12.9390 C   0  0  0  0  0  3  0  0  0  0  0  0
  -21.3480  -26.1130   20.0830 C   0  0  0  0  0  3  0  0  0  0  0  0
  -21.6930  -24.9400   21.0740 C   0  0  1  0  0  0  0  0  0  0  0  0
  -22.3730  -23.7310   20.3920 C   0  0  0  0  0  1  0  0  0  0  0  0
  -22.6290  -25.4410   22.1980 C   0  0  0  0  0  1  0  0  0  0  0  0
  -20.4010  -24.4370   21.7570 C   0  0  0  0  0  1  0  0  0  0  0  0
  -20.1420  -25.8070   19.3050 N   0  0  0  0  0  0  0  0  0  0  0  0
  -19.2290  -26.7130   18.9320 C   0  0  0  0  0  0  0  0  0  0  0  0
  -19.2820  -27.8970   19.2730 O   0  0  0  0  0  0  0  0  0  0  0  0
  -20.0630  -24.8720   18.9410 H   0  0  0  0  0  0  0  0  0  0  0  0
  -18.3930  -26.5360   16.5680 C   0  0  0  0  0  1  0  0  0  0  0  0
  -18.0740  -26.2230   18.0370 C   0  0  0  0  0  3  0  0  0  0  0  0
  -16.2480  -26.3120   19.6780 C   0  0  0  0  0  1  0  0  0  0  0  0
  -16.7630  -26.8040   18.4010 N   0  0  0  0  0  0  0  0  0  0  0  0
  -16.0700  -26.6100   17.6830 H   0  0  0  0  0  0  0  0  0  0  0  0
  1  4  1  0
  1  2  1  0
  2  5  1  0
  4 12  1  0
  4  3  1  0
  5  3  1  0
  5 55  1  0
  5  6  1  6
  7  9  1  0
  8 10  2  0
  9 12  2  0
 10 12  1  0
 11  8  1  0
 11  7  2  0
 14 13  2  0
 15 13  1  0
 15 11  1  0
 16 14  1  0
 17 15  2  0
 18 16  2  0
 18 17  1  0
 19 26  2  0
 19 16  1  0
 20 25  1  0
 21 20  1  0
 22 21  1  0
 23 22  1  0
 23 24  1  0
 24 25  1  0
 25 19  1  0
 27 52  1  0
 28 27  2  0
 29 31  2  0
 29 28  1  0
 30 27  1  0
 30 23  1  0
 31 30  1  0
 32 29  1  0
 33 32  1  0
 34 33  2  0
 35 36  2  0
 35 34  1  0
 36 37  1  0
 37 32  2  0
 38 35  1  0
 39 38  1  0
 39 40  1  0
 41 40  2  0
 42 41  1  0
 43 44  1  0
 43 42  2  0
 44 39  2  0
 45 44  1  0
 46 42  1  0
 47 28  1  0
 47 49  2  0
 48 47  1  0
 50 48  1  0
 51 48  1  0
 52 53  1  0
 52 54  1  0
 55 56  1  0
 57 56  1  0
 58 68  1  0
 59 57  1  0
 60 70  1  0
 60 67  1  0
 60 68  1  0
 61 66  2  0
 61 63  1  0
 62 63  1  0
 63 64  2  0
 64 59  1  0
 65 59  2  0
 66 65  1  0
 67 61  1  0
 68 62  1  0
 69 58  2  0
 70 72  2  0
 71 70  1  0
 73 71  1  0
 74 78  1  0
 74 79  1  0
 75 76  1  0
 75 71  1  0
 77 76  1  0
 78 77  1  0
 79 75  1  0
 80 79  2  0
 81 80  1  0
 82 83  1  0
 82 81  2  0
 83 74  2  0
 84 58  1  0
 84 85  1  0
 85 88  1  1
 85 87  1  0
 86 85  1  0
 89 84  1  0
 90 91  2  0
 90 89  1  0
 92 89  1  0
 94 93  1  0
 94 96  1  0
 94 90  1  0
 96 95  1  0
 97 96  1  0
M  ISO  4  16 100  19 100  56 101  57 101
M  END
>  <TORSDO>  (37) 
F 20

>  <SCORE>  (37) 
6.478

>  <name>  (37) 
37

>  <ligand_id>  (37) 
37

>  <original_smiles>  (37) 
[H]C1=C(C(=O)N2C([H])([H])C([H])([H])C([H])([H])C([H])(n3nc(-c4c([H])c([H])c(Oc5c([H])c([H])c(F)c([H])c5F)c([H])c4[H])c(C(=O)N([H])[H])c3N([H])[H])C2([H])[H])C([H])([H])C([H])([H])C(c2c([H])c([H])c(C3([H])C([H])([H])C([H])([H])[N+]([H])(C([H])([H])C([H])([H])Oc4c([H])c([H])c5c(c4[H])C([H])([H])N(C(=O)C([H])(N([H])C(=O)C([H])(N([H])C([H])([H])[H])C([H])([H])[H])C(C([H])([H])[H])(C([H])([H])[H])C([H])([H])[H])C([H])(C(=O)N([H])C4([H])c6c([H])c([H])c([H])c([H])c6C([H])([H])C([H])([H])C4([H])[H])C5([H])[H])C3([H])[H])c([H])c2[H])=C1[H]

>  <smiles>  (37) 
[H]C1=C(C(=O)N2C([H])([H])C([H])([H])C([H])([H])C([H])(n3nc(-c4c([H])c([H])c(Oc5c([H])c([H])c(F)c([H])c5F)c([H])c4[H])c(C(=O)N([H])[H])c3N([H])[H])C2([H])[H])C([H])([H])C([H])([H])C(c2c([H])c([H])c(C3([H])C([H])([H])C([H])([H])[N+]([H])(C([H])([H])C([H])([H])Oc4c([H])c([H])c5c(c4[H])C([H])([H])N(C(=O)C([H])(N([H])C(=O)C([H])(N([H])C([H])([H])[H])C([H])([H])[H])C(C([H])([H])[H])(C([H])([H])[H])C([H])([H])[H])C([H])(C(=O)N([H])C4([H])c6c([H])c([H])c([H])c([H])c6C([H])([H])C([H])([H])C4([H])[H])C5([H])[H])C3([H])[H])c([H])c2[H])=C1[H]

$$$$
38:0:0
     RDKit          3D

 94102  0  0  1  0  0  0  0  0999 V2000
  -28.8210  -20.4070   20.2300 C   0  0  0  0  0  0  0  0  0  0  0  0
  -27.5230  -20.1190   20.0450 N   0  0  0  0  0  4  0  0  0  0  0  0
  -29.1370  -21.8220   20.3040 N   0  0  0  0  0  0  0  0  0  0  0  0
  -26.8110  -20.8370   20.0450 H   0  0  0  0  0  0  0  0  0  0  0  0
  -27.1800  -19.1670   20.0770 H   0  0  0  0  0  0  0  0  0  0  0  0
  -30.1030  -22.0080   20.5480 H   0  0  0  0  0  0  0  0  0  0  0  0
  -30.5810  -15.0900   20.3270 C   0  0  0  0  0  0  0  0  0  0  0  0
  -30.4940  -12.7230   19.3890 C   0  0  0  0  0  2  0  0  0  0  0  0
  -29.5630  -12.6370   18.1570 C   0  0  0  0  0  2  0  0  0  0  0  0
  -28.1030  -12.4080   18.5930 C   0  0  0  0  0  2  0  0  0  0  0  0
  -27.6810  -13.3350   19.7630 C   0  0  0  0  0  3  0  0  0  0  0  0
  -28.7350  -13.3880   20.8850 C   0  0  0  0  0  2  0  0  0  0  0  0
  -29.9870  -13.8270   20.2580 N   0  0  0  0  0  0  0  0  0  0  0  0
  -31.8040  -15.1230   20.1380 O   0  0  0  0  0  0  0  0  0  0  0  0
  -29.5990  -17.6140   21.0190 C   0  0  0  0  0  2  0  0  0  0  0  0
  -29.6860  -16.9280   18.8490 C   0  0  0  0  0  2  0  0  0  0  0  0
  -29.8440  -19.0790   20.2610 C   0  0  0  0  0  3  0  0  0  0  0  0
  -30.1380  -18.4390   18.8730 C   0  0  0  0  0  3  0  0  0  0  0  0
  -29.8060  -16.3020   20.1820 N   0  0  0  0  0  0  0  0  0  0  0  0
  -25.3030  -13.8880   20.5110 C   0  0  0  0  0  0  0  0  0  0  0  0
  -24.2450  -13.1030   20.8750 C   0  0  0  0  0  0  0  0  0  0  0  0
  -24.7200  -11.7570   20.8400 C   0  0  0  0  0  0  0  0  0  0  0  0
  -26.3520  -13.0190   20.2660 N   0  0  0  0  0  0  0  0  0  0  0  0
  -26.0120  -11.7320   20.5330 N   0  0  0  0  0  0  0  0  0  0  0  0
  -24.0020  -10.4880   21.0240 C   0  0  0  0  0  0  0  0  0  0  0  0
  -24.4280   -9.5270   21.9680 C   0  0  0  0  0  3  0  0  0  0  0  0
  -23.7080   -8.3250   22.1400 C   0  0  0  0  0  3  0  0  0  0  0  0
  -22.5490   -8.0750   21.3680 C   0  0  0  0  0  0  0  0  0  0  0  0
  -22.1420   -9.0250   20.4140 C   0  0  0  0  0  3  0  0  0  0  0  0
  -22.8630  -10.2180   20.2410 C   0  0  0  0  0  3  0  0  0  0  0  0
  -21.8010   -6.9250   21.4480 O   0  0  0  0  0  0  0  0  0  0  0  0
  -21.7210   -6.1980   22.6090 C   0  0  0  0  0  0  0  0  0  0  0  0
  -21.2220   -6.7570   23.8070 C   0  0  0  0  0  3  0  0  0  0  0  0
  -21.0930   -5.9550   24.9580 C   0  0  0  0  0  3  0  0  0  0  0  0
  -21.4530   -4.5950   24.9130 C   0  0  0  0  0  0  0  0  0  0  0  0
  -21.9450   -4.0350   23.7210 C   0  0  0  0  0  3  0  0  0  0  0  0
  -22.0760   -4.8350   22.5720 C   0  0  0  0  0  0  0  0  0  0  0  0
  -22.5310   -4.2850   21.4190 F   0  0  0  0  0  0  0  0  0  0  0  0
  -21.3230   -3.8210   26.0160 F   0  0  0  0  0  0  0  0  0  0  0  0
  -22.8430  -13.5700   21.1420 C   0  0  0  0  0  0  0  0  0  0  0  0
  -22.1140  -12.8590   21.9940 N   0  0  0  0  0  0  0  0  0  0  0  0
  -22.4040  -14.5990   20.6310 O   0  0  0  0  0  0  0  0  0  0  0  0
  -22.4830  -12.0260   22.4290 H   0  0  0  0  0  0  0  0  0  0  0  0
  -21.1730  -13.1520   22.2170 H   0  0  0  0  0  0  0  0  0  0  0  0
  -25.4590  -15.2610   20.3410 N   0  0  0  0  0  0  0  0  0  0  0  0
  -24.6910  -15.9120   20.4600 H   0  0  0  0  0  0  0  0  0  0  0  0
  -26.3140  -15.7040   20.0310 H   0  0  0  0  0  0  0  0  0  0  0  0
  -29.6640  -19.2090   17.7050 N   0  0  0  0  0  4  0  0  0  0  0  0
  -28.6660  -19.3300   17.7150 H   0  0  0  0  0  0  0  0  0  0  0  0
  -29.9080  -18.7320   16.8550 H   0  0  0  0  0  0  0  0  0  0  0  0
  -30.0990  -20.1150   17.6700 H   0  0  0  0  0  0  0  0  0  0  0  0
  -28.3920  -23.2040   19.8860 C   0  0  0  0  0  2  0  0  0  0  0  0
  -28.2830  -24.6800   20.7440 C   0  0  0  0  0  2  0  0  0  0  0  0
  -28.3480  -26.1920   20.2800 O   0  0  0  0  0  0  0  0  0  0  0  0
  -24.6290  -31.9010   23.2510 C   0  0  0  0  0  0  0  0  0  0  0  0
  -27.2610  -27.1500   20.2930 C   0  0  0  0  0  0  0  0  0  0  0  0
  -23.4530  -30.4840   21.6110 C   0  0  0  0  0  3  0  0  0  0  0  0
  -24.9240  -28.8950   20.2200 C   0  0  0  0  0  0  0  0  0  0  0  0
  -26.0080  -30.7590   21.4670 C   0  0  0  0  0  2  0  0  0  0  0  0
  -26.0970  -29.3560   20.8300 C   0  0  0  0  0  0  0  0  0  0  0  0
  -27.2700  -28.5030   20.8380 C   0  0  0  0  0  3  0  0  0  0  0  0
  -26.0570  -26.7890   19.6550 C   0  0  0  0  0  3  0  0  0  0  0  0
  -24.9190  -27.6270   19.6150 C   0  0  0  0  0  3  0  0  0  0  0  0
  -23.6930  -29.7920   20.2430 C   0  0  0  0  0  2  0  0  0  0  0  0
  -24.7180  -31.0710   22.1650 N   0  0  0  0  0  0  0  0  0  0  0  0
  -23.5360  -32.1820   23.7660 O   0  0  0  0  0  0  0  0  0  0  0  0
  -22.7700  -29.4830   22.5770 C   0  0  0  0  0  0  0  0  0  0  0  0
  -21.4430  -29.3090   22.4450 N   0  0  0  0  0  0  0  0  0  0  0  0
  -23.4390  -28.8630   23.4080 O   0  0  0  0  0  0  0  0  0  0  0  0
  -20.9600  -29.8610   21.7500 H   0  0  0  0  0  0  0  0  0  0  0  0
  -18.0590  -28.1130   22.9460 C   0  0  0  0  0  0  0  0  0  0  0  0
  -20.6190  -28.3730   23.2150 C   0  0  0  0  0  3  0  0  0  0  0  0
  -20.7200  -26.9410   22.6410 C   0  0  0  0  0  2  0  0  0  0  0  0
  -19.6170  -26.6180   21.6260 C   0  0  0  0  0  2  0  0  0  0  0  0
  -18.2350  -26.7640   22.2690 C   0  0  0  0  0  2  0  0  0  0  0  0
  -19.1790  -28.8750   23.3760 C   0  0  0  0  0  0  0  0  0  0  0  0
  -18.9590  -30.1360   23.9700 C   0  0  0  0  0  3  0  0  0  0  0  0
  -17.6530  -30.6360   24.1400 C   0  0  0  0  0  3  0  0  0  0  0  0
  -16.5490  -29.8720   23.7250 C   0  0  0  0  0  3  0  0  0  0  0  0
  -16.7540  -28.6120   23.1340 C   0  0  0  0  0  3  0  0  0  0  0  0
  -25.8960  -32.5500   23.8870 C   0  0  0  0  0  3  0  0  0  0  0  0
  -26.3890  -31.8040   25.1880 C   0  0  1  0  0  0  0  0  0  0  0  0
  -25.2760  -31.5840   26.2400 C   0  0  0  0  0  1  0  0  0  0  0  0
  -26.9820  -30.4200   24.8370 C   0  0  0  0  0  1  0  0  0  0  0  0
  -27.5250  -32.6120   25.8580 C   0  0  0  0  0  1  0  0  0  0  0  0
  -25.5740  -33.9540   24.1940 N   0  0  0  0  0  0  0  0  0  0  0  0
  -25.9160  -35.0010   23.4330 C   0  0  0  0  0  0  0  0  0  0  0  0
  -26.6020  -34.8890   22.4120 O   0  0  0  0  0  0  0  0  0  0  0  0
  -24.9670  -34.1150   24.9840 H   0  0  0  0  0  0  0  0  0  0  0  0
  -24.2030  -36.8010   23.0310 C   0  0  0  0  0  1  0  0  0  0  0  0
  -25.4240  -36.3960   23.8720 C   0  0  0  0  0  3  0  0  0  0  0  0
  -27.5390  -37.2850   24.7490 C   0  0  0  0  0  1  0  0  0  0  0  0
  -26.4620  -37.4450   23.7750 N   0  0  0  0  0  0  0  0  0  0  0  0
  -26.0550  -38.3680   23.9030 H   0  0  0  0  0  0  0  0  0  0  0  0
  1  3  1  0
  2  4  1  0
  2  5  1  0
  2  1  2  0
  3  6  1  0
  8 13  1  0
  9 10  1  0
  9  8  1  0
 11 10  1  0
 11 23  1  0
 11 12  1  0
 13  7  1  0
 13 12  1  0
 14  7  2  0
 16 18  1  0
 16 19  1  0
 17  1  1  0
 17 15  1  0
 18 48  1  0
 18 17  1  0
 19  7  1  0
 19 15  1  0
 20 21  2  0
 21 40  1  0
 22 21  1  0
 22 25  1  0
 23 20  1  0
 23 24  1  0
 24 22  2  0
 25 26  1  0
 26 27  2  0
 28 31  1  0
 28 27  1  0
 29 28  2  0
 30 29  1  0
 30 25  2  0
 31 32  1  0
 32 33  1  0
 33 34  2  0
 35 34  1  0
 35 39  1  0
 36 35  2  0
 37 32  2  0
 37 36  1  0
 38 37  1  0
 40 41  1  0
 41 44  1  0
 41 43  1  0
 42 40  2  0
 45 46  1  0
 45 20  1  0
 47 45  1  0
 48 49  1  0
 50 48  1  0
 51 48  1  0
 52  3  1  0
 52 53  1  0
 54 56  1  0
 54 53  1  0
 55 66  2  0
 56 61  1  0
 57 65  1  0
 57 67  1  0
 58 64  1  0
 58 60  1  0
 59 65  1  0
 60 61  2  0
 60 59  1  0
 62 56  2  0
 63 62  1  0
 63 58  2  0
 64 57  1  0
 65 55  1  0
 67 69  2  0
 68 67  1  0
 70 68  1  0
 71 80  2  0
 71 76  1  0
 72 68  1  0
 72 76  1  0
 73 72  1  0
 74 75  1  0
 74 73  1  0
 75 71  1  0
 76 77  2  0
 77 78  1  0
 79 78  2  0
 80 79  1  0
 81 55  1  0
 81 86  1  0
 81 82  1  0
 82 85  1  1
 82 83  1  0
 84 82  1  0
 86 89  1  0
 87 91  1  0
 87 86  1  0
 88 87  2  0
 91 90  1  0
 93 91  1  0
 93 94  1  0
 93 92  1  0
M  ISO  4   7 100  19 100  53 101  54 101
M  END
>  <TORSDO>  (38) 
F 19

>  <SCORE>  (38) 
-15.317

>  <name>  (38) 
38

>  <ligand_id>  (38) 
38

>  <original_smiles>  (38) 
[H]c1c([H])c([H])c2c(c1[H])C([H])([H])C([H])([H])C([H])([H])C2([H])N([H])C(=O)C1([H])N(C(=O)C([H])(N([H])C(=O)C([H])(N([H])C([H])([H])[H])C([H])([H])[H])C(C([H])([H])[H])(C([H])([H])[H])C([H])([H])[H])C([H])([H])c2c([H])c(OC([H])([H])C([H])([H])[N+]([H])=C(N([H])[H])C3([H])C([H])([H])N(C(=O)N4C([H])([H])C([H])([H])C([H])([H])C([H])(n5nc(-c6c([H])c([H])c(Oc7c([H])c([H])c(F)c([H])c7F)c([H])c6[H])c(C(=O)N([H])[H])c5N([H])[H])C4([H])[H])C([H])([H])C3([H])[N+]([H])([H])[H])c([H])c([H])c2C1([H])[H]

>  <smiles>  (38) 
[H]c1c([H])c([H])c2c(c1[H])C([H])([H])C([H])([H])C([H])([H])C2([H])N([H])C(=O)C1([H])N(C(=O)C([H])(N([H])C(=O)C([H])(N([H])C([H])([H])[H])C([H])([H])[H])C(C([H])([H])[H])(C([H])([H])[H])C([H])([H])[H])C([H])([H])c2c([H])c(OC([H])([H])C([H])([H])[N+]([H])=C(N([H])[H])C3([H])C([H])([H])N(C(=O)N4C([H])([H])C([H])([H])C([H])([H])C([H])(n5nc(-c6c([H])c([H])c(Oc7c([H])c([H])c(F)c([H])c7F)c([H])c6[H])c(C(=O)N([H])[H])c5N([H])[H])C4([H])[H])C([H])([H])C3([H])[N+]([H])([H])[H])c([H])c([H])c2C1([H])[H]

$$$$
39:0:0
     RDKit          3D

 90 98  0  0  1  0  0  0  0  0999 V2000
  -29.7180  -20.3370   20.2110 N   0  0  0  0  0  4  0  0  0  0  0  0
  -29.9860  -20.2320   19.2450 H   0  0  0  0  0  0  0  0  0  0  0  0
  -30.5440  -20.6450   20.6990 H   0  0  0  0  0  0  0  0  0  0  0  0
  -30.2100  -17.4240   20.4420 C   0  0  0  0  0  3  0  0  0  0  0  0
  -31.4490  -17.5800   21.2880 C   0  0  0  0  0  0  0  0  0  0  0  0
  -31.1450  -18.4880   22.4770 C   0  0  0  0  0  2  0  0  0  0  0  0
  -29.6940  -18.9790   22.2790 C   0  0  0  0  0  2  0  0  0  0  0  0
  -29.3960  -18.8750   20.7690 C   0  0  0  0  0  3  0  0  0  0  0  0
  -29.7880  -16.2540   19.8810 N   0  0  0  0  0  2  0  0  0  0  0  0
  -32.5370  -17.0110   21.1430 O   0  0  0  0  0  0  0  0  0  0  0  0
  -30.5800  -15.0240   19.6110 C   0  0  0  0  0  0  0  0  0  0  0  0
  -30.2940  -12.7650   18.4870 C   0  0  0  0  0  2  0  0  0  0  0  0
  -29.2190  -12.8580   17.3750 C   0  0  0  0  0  2  0  0  0  0  0  0
  -27.8180  -12.6100   17.9610 C   0  0  0  0  0  2  0  0  0  0  0  0
  -27.5730  -13.4230   19.2570 C   0  0  0  0  0  3  0  0  0  0  0  0
  -28.7550  -13.3230   20.2430 C   0  0  0  0  0  2  0  0  0  0  0  0
  -29.9620  -13.7700   19.5410 N   0  0  0  0  0  0  0  0  0  0  0  0
  -31.7560  -15.0490   19.2390 O   0  0  0  0  0  0  0  0  0  0  0  0
  -25.2960  -13.9310   20.3010 C   0  0  0  0  0  0  0  0  0  0  0  0
  -24.2890  -13.1280   20.7550 C   0  0  0  0  0  0  0  0  0  0  0  0
  -24.7570  -11.7840   20.6090 C   0  0  0  0  0  0  0  0  0  0  0  0
  -26.3070  -13.0790   19.8950 N   0  0  0  0  0  0  0  0  0  0  0  0
  -26.0020  -11.7790   20.1480 N   0  0  0  0  0  0  0  0  0  0  0  0
  -24.0650  -10.5080   20.8240 C   0  0  0  0  0  0  0  0  0  0  0  0
  -24.5390   -9.5610   21.7590 C   0  0  0  0  0  3  0  0  0  0  0  0
  -23.8440   -8.3470   21.9600 C   0  0  0  0  0  3  0  0  0  0  0  0
  -22.6630   -8.0750   21.2290 C   0  0  0  0  0  0  0  0  0  0  0  0
  -22.2100   -9.0120   20.2830 C   0  0  0  0  0  3  0  0  0  0  0  0
  -22.9050  -10.2150   20.0790 C   0  0  0  0  0  3  0  0  0  0  0  0
  -21.9350   -6.9150   21.3440 O   0  0  0  0  0  0  0  0  0  0  0  0
  -21.8480   -6.2350   22.5320 C   0  0  0  0  0  0  0  0  0  0  0  0
  -21.3310   -6.8360   23.6990 C   0  0  0  0  0  3  0  0  0  0  0  0
  -21.1940   -6.0760   24.8800 C   0  0  0  0  0  3  0  0  0  0  0  0
  -21.5650   -4.7190   24.8900 C   0  0  0  0  0  0  0  0  0  0  0  0
  -22.0760   -4.1180   23.7270 C   0  0  0  0  0  3  0  0  0  0  0  0
  -22.2140   -4.8740   22.5500 C   0  0  0  0  0  0  0  0  0  0  0  0
  -22.6890   -4.2840   21.4250 F   0  0  0  0  0  0  0  0  0  0  0  0
  -21.4280   -3.9890   26.0220 F   0  0  0  0  0  0  0  0  0  0  0  0
  -22.9280  -13.5770   21.2010 C   0  0  0  0  0  0  0  0  0  0  0  0
  -22.3130  -12.8550   22.1270 N   0  0  0  0  0  0  0  0  0  0  0  0
  -22.4220  -14.6110   20.7600 O   0  0  0  0  0  0  0  0  0  0  0  0
  -22.7360  -12.0200   22.5060 H   0  0  0  0  0  0  0  0  0  0  0  0
  -21.4030  -13.1360   22.4570 H   0  0  0  0  0  0  0  0  0  0  0  0
  -25.4260  -15.3120   20.1740 N   0  0  0  0  0  0  0  0  0  0  0  0
  -24.6710  -15.9440   20.4120 H   0  0  0  0  0  0  0  0  0  0  0  0
  -26.2370  -15.7770   19.7870 H   0  0  0  0  0  0  0  0  0  0  0  0
  -28.6930  -21.5660   20.2880 C   0  0  0  0  0  2  0  0  0  0  0  0
  -29.1060  -23.2240   20.2990 C   0  0  0  0  0  3  0  0  0  0  0  0
  -28.0500  -24.5450   20.0690 C   0  0  0  0  0  3  0  0  0  0  0  0
  -28.3210  -26.0890   20.1780 O   0  0  0  0  0  0  0  0  0  0  0  0
  -24.6920  -31.8170   23.1290 C   0  0  0  0  0  0  0  0  0  0  0  0
  -27.2620  -27.0760   20.1100 C   0  0  0  0  0  0  0  0  0  0  0  0
  -23.4790  -30.3960   21.5200 C   0  0  0  0  0  3  0  0  0  0  0  0
  -24.9210  -28.8130   20.0900 C   0  0  0  0  0  0  0  0  0  0  0  0
  -26.0280  -30.6760   21.3120 C   0  0  0  0  0  2  0  0  0  0  0  0
  -26.1070  -29.2730   20.6780 C   0  0  0  0  0  0  0  0  0  0  0  0
  -27.2770  -28.4200   20.6690 C   0  0  0  0  0  3  0  0  0  0  0  0
  -26.0500  -26.7230   19.4820 C   0  0  0  0  0  3  0  0  0  0  0  0
  -24.9090  -27.5540   19.4710 C   0  0  0  0  0  3  0  0  0  0  0  0
  -23.6880  -29.7010   20.1460 C   0  0  0  0  0  2  0  0  0  0  0  0
  -24.7540  -30.9870   22.0420 N   0  0  0  0  0  0  0  0  0  0  0  0
  -23.6130  -32.0930   23.6740 O   0  0  0  0  0  0  0  0  0  0  0  0
  -22.8280  -29.3900   22.5020 C   0  0  0  0  0  0  0  0  0  0  0  0
  -21.5010  -29.1970   22.3950 N   0  0  0  0  0  0  0  0  0  0  0  0
  -23.5170  -28.7870   23.3270 O   0  0  0  0  0  0  0  0  0  0  0  0
  -21.0000  -29.7440   21.7070 H   0  0  0  0  0  0  0  0  0  0  0  0
  -18.1480  -27.9430   22.9510 C   0  0  0  0  0  0  0  0  0  0  0  0
  -20.7040  -28.2580   23.1880 C   0  0  0  0  0  3  0  0  0  0  0  0
  -20.8250  -26.8200   22.6330 C   0  0  0  0  0  2  0  0  0  0  0  0
  -19.7200  -26.4630   21.6330 C   0  0  0  0  0  2  0  0  0  0  0  0
  -18.3430  -26.5900   22.2890 C   0  0  0  0  0  2  0  0  0  0  0  0
  -19.2570  -28.7330   23.3590 C   0  0  0  0  0  0  0  0  0  0  0  0
  -19.0150  -29.9980   23.9400 C   0  0  0  0  0  3  0  0  0  0  0  0
  -17.7030  -30.4740   24.1120 C   0  0  0  0  0  3  0  0  0  0  0  0
  -16.6110  -29.6830   23.7170 C   0  0  0  0  0  3  0  0  0  0  0  0
  -16.8350  -28.4180   23.1430 C   0  0  0  0  0  3  0  0  0  0  0  0
  -25.9710  -32.4750   23.7300 C   0  0  0  0  0  3  0  0  0  0  0  0
  -26.5270  -31.7040   24.9910 C   0  0  1  0  0  0  0  0  0  0  0  0
  -25.4610  -31.4350   26.0790 C   0  0  0  0  0  1  0  0  0  0  0  0
  -27.1290  -30.3420   24.5760 C   0  0  0  0  0  1  0  0  0  0  0  0
  -27.6740  -32.5130   25.6390 C   0  0  0  0  0  1  0  0  0  0  0  0
  -25.6410  -33.8630   24.0910 N   0  0  0  0  0  0  0  0  0  0  0  0
  -25.9410  -34.9370   23.3470 C   0  0  0  0  0  0  0  0  0  0  0  0
  -26.5960  -34.8620   22.3040 O   0  0  0  0  0  0  0  0  0  0  0  0
  -25.0610  -33.9890   24.9080 H   0  0  0  0  0  0  0  0  0  0  0  0
  -24.1870  -36.7180   23.0440 C   0  0  0  0  0  1  0  0  0  0  0  0
  -25.4390  -36.3100   23.8390 C   0  0  0  0  0  3  0  0  0  0  0  0
  -27.5670  -37.2100   24.6780 C   0  0  0  0  0  1  0  0  0  0  0  0
  -26.4580  -37.3790   23.7420 N   0  0  0  0  0  0  0  0  0  0  0  0
  -26.0410  -38.2920   23.9060 H   0  0  0  0  0  0  0  0  0  0  0  0
  1 47  1  0
  1  3  1  0
  2  1  1  0
  4  9  1  0
  4  8  1  0
  4  5  1  0
  5  6  1  0
  7  6  1  0
  8  1  1  0
  8  7  1  0
 10  5  2  0
 11  9  1  0
 12 17  1  0
 13 14  1  0
 13 12  1  0
 15 14  1  0
 15 22  1  0
 15 16  1  0
 17 11  1  0
 17 16  1  0
 18 11  2  0
 19 20  2  0
 20 39  1  0
 21 20  1  0
 21 24  1  0
 22 23  1  0
 22 19  1  0
 23 21  2  0
 24 25  1  0
 25 26  2  0
 27 30  1  0
 27 26  1  0
 28 27  2  0
 29 28  1  0
 29 24  2  0
 30 31  1  0
 31 36  2  0
 31 32  1  0
 32 33  2  0
 33 34  1  0
 34 38  1  0
 35 34  2  0
 36 35  1  0
 37 36  1  0
 39 40  1  0
 40 43  1  0
 40 42  1  0
 41 39  2  0
 44 19  1  0
 44 45  1  0
 46 44  1  0
 47 48  1  0
 49 50  1  0
 49 48  2  0
 51 62  2  0
 52 50  1  0
 52 57  1  0
 53 61  1  0
 53 63  1  0
 54 60  1  0
 54 56  1  0
 55 61  1  0
 56 55  1  0
 57 56  2  0
 58 52  2  0
 59 58  1  0
 59 54  2  0
 60 53  1  0
 61 51  1  0
 63 65  2  0
 64 63  1  0
 66 64  1  0
 67 76  2  0
 67 72  1  0
 68 64  1  0
 68 72  1  0
 69 68  1  0
 70 71  1  0
 70 69  1  0
 71 67  1  0
 72 73  2  0
 73 74  1  0
 75 74  2  0
 76 75  1  0
 77 51  1  0
 77 82  1  0
 77 78  1  0
 78 81  1  1
 78 79  1  0
 80 78  1  0
 82 85  1  0
 83 87  1  0
 83 82  1  0
 84 83  2  0
 87 86  1  0
 89 87  1  0
 89 90  1  0
 89 88  1  0
M  ISO  4   9 100  11 100  49 101  50 101
M  END
>  <TORSDO>  (39) 
F 20

>  <SCORE>  (39) 
-12.336

>  <name>  (39) 
39

>  <ligand_id>  (39) 
39

>  <original_smiles>  (39) 
[H]c1c([H])c([H])c2c(c1[H])C([H])([H])C([H])([H])C([H])([H])C2([H])N([H])C(=O)C1([H])N(C(=O)C([H])(N([H])C(=O)C([H])(N([H])C([H])([H])[H])C([H])([H])[H])C(C([H])([H])[H])(C([H])([H])[H])C([H])([H])[H])C([H])([H])c2c([H])c(OC([H])([H])C([H])([H])C([H])([H])[N+]([H])([H])C3([H])C(=NC(=O)N4C([H])([H])C([H])([H])C([H])([H])C([H])(n5nc(-c6c([H])c([H])c(Oc7c([H])c([H])c(F)c([H])c7F)c([H])c6[H])c(C(=O)N([H])[H])c5N([H])[H])C4([H])[H])C(=O)C([H])([H])C3([H])[H])c([H])c([H])c2C1([H])[H]

>  <smiles>  (39) 
[H]c1c([H])c([H])c2c(c1[H])C([H])([H])C([H])([H])C([H])([H])C2([H])N([H])C(=O)C1([H])N(C(=O)C([H])(N([H])C(=O)C([H])(N([H])C([H])([H])[H])C([H])([H])[H])C(C([H])([H])[H])(C([H])([H])[H])C([H])([H])[H])C([H])([H])c2c([H])c(OC([H])([H])C([H])([H])C([H])([H])[N+]([H])([H])C3([H])C(=NC(=O)N4C([H])([H])C([H])([H])C([H])([H])C([H])(n5nc(-c6c([H])c([H])c(Oc7c([H])c([H])c(F)c([H])c7F)c([H])c6[H])c(C(=O)N([H])[H])c5N([H])[H])C4([H])[H])C(=O)C([H])([H])C3([H])[H])c([H])c([H])c2C1([H])[H]

$$$$
40:0:0
     RDKit          3D

 89 97  0  0  1  0  0  0  0  0999 V2000
  -30.2760  -22.0480   20.1980 C   0  0  0  0  0  3  0  0  0  0  0  0
  -28.5960  -20.3390   20.3040 C   0  0  0  0  0  3  0  0  0  0  0  0
  -30.8440  -19.5310   20.1600 C   0  0  0  0  0  3  0  0  0  0  0  0
  -28.8650  -21.9570   20.2830 C   0  0  0  0  0  0  0  0  0  0  0  0
  -31.1820  -20.9310   20.1380 C   0  0  0  0  0  0  0  0  0  0  0  0
  -29.5330  -18.9950   20.2480 C   0  0  0  0  0  0  0  0  0  0  0  0
  -30.2010  -15.8470   20.1570 C   0  0  0  0  0  0  0  0  0  0  0  0
  -30.3500  -13.2850   19.3090 C   0  0  0  0  0  2  0  0  0  0  0  0
  -29.4570  -12.8230   18.1170 C   0  0  0  0  0  2  0  0  0  0  0  0
  -28.0490  -12.4290   18.5900 C   0  0  0  0  0  2  0  0  0  0  0  0
  -27.5330  -13.4140   19.6630 C   0  0  0  0  0  3  0  0  0  0  0  0
  -28.5740  -13.7650   20.7550 C   0  0  0  0  0  2  0  0  0  0  0  0
  -29.7050  -14.4540   20.0790 N   0  0  0  0  0  0  0  0  0  0  0  0
  -31.4340  -15.7760   19.9680 O   0  0  0  0  0  0  0  0  0  0  0  0
  -29.4190  -17.2330   20.2600 N   0  0  0  0  0  0  0  0  0  0  0  0
  -28.4490  -16.9720   20.3690 H   0  0  0  0  0  0  0  0  0  0  0  0
  -25.1880  -13.8970   20.4920 C   0  0  0  0  0  0  0  0  0  0  0  0
  -24.1480  -13.0980   20.8710 C   0  0  0  0  0  0  0  0  0  0  0  0
  -24.6340  -11.7560   20.8090 C   0  0  0  0  0  0  0  0  0  0  0  0
  -26.2360  -13.0440   20.2080 N   0  0  0  0  0  0  0  0  0  0  0  0
  -25.9210  -11.7470   20.4680 N   0  0  0  0  0  0  0  0  0  0  0  0
  -23.9250  -10.4820   20.9940 C   0  0  0  0  0  0  0  0  0  0  0  0
  -24.3670   -9.5160   21.9240 C   0  0  0  0  0  3  0  0  0  0  0  0
  -23.6530   -8.3100   22.1010 C   0  0  0  0  0  3  0  0  0  0  0  0
  -22.4810   -8.0630   21.3480 C   0  0  0  0  0  0  0  0  0  0  0  0
  -22.0560   -9.0180   20.4070 C   0  0  0  0  0  3  0  0  0  0  0  0
  -22.7710  -10.2140   20.2280 C   0  0  0  0  0  3  0  0  0  0  0  0
  -21.7360   -6.9120   21.4360 O   0  0  0  0  0  0  0  0  0  0  0  0
  -21.6780   -6.1780   22.5930 C   0  0  0  0  0  0  0  0  0  0  0  0
  -21.1980   -6.7290   23.8030 C   0  0  0  0  0  3  0  0  0  0  0  0
  -21.0900   -5.9180   24.9510 C   0  0  0  0  0  3  0  0  0  0  0  0
  -21.4500   -4.5580   24.8910 C   0  0  0  0  0  0  0  0  0  0  0  0
  -21.9230   -4.0070   23.6870 C   0  0  0  0  0  3  0  0  0  0  0  0
  -22.0340   -4.8140   22.5410 C   0  0  0  0  0  0  0  0  0  0  0  0
  -22.4680   -4.2730   21.3770 F   0  0  0  0  0  0  0  0  0  0  0  0
  -21.3390   -3.7790   25.9900 F   0  0  0  0  0  0  0  0  0  0  0  0
  -22.7500  -13.5540   21.1680 C   0  0  0  0  0  0  0  0  0  0  0  0
  -22.0470  -12.8460   22.0430 N   0  0  0  0  0  0  0  0  0  0  0  0
  -22.2930  -14.5770   20.6600 O   0  0  0  0  0  0  0  0  0  0  0  0
  -22.4330  -12.0230   22.4810 H   0  0  0  0  0  0  0  0  0  0  0  0
  -21.1060  -13.1320   22.2790 H   0  0  0  0  0  0  0  0  0  0  0  0
  -25.3250  -15.2720   20.3310 N   0  0  0  0  0  0  0  0  0  0  0  0
  -24.5500  -15.9120   20.4690 H   0  0  0  0  0  0  0  0  0  0  0  0
  -26.1460  -15.7190   19.9490 H   0  0  0  0  0  0  0  0  0  0  0  0
  -32.5390  -21.2410   20.0520 N   0  0  0  0  0  0  0  0  0  0  0  0
  -32.8090  -22.1840   19.7870 H   0  0  0  0  0  0  0  0  0  0  0  0
  -33.1710  -20.5380   19.6780 H   0  0  0  0  0  0  0  0  0  0  0  0
  -27.8980  -23.6130   20.3050 C   0  0  0  0  0  2  0  0  0  0  0  0
  -28.1280  -25.4110   20.3470 O   0  0  0  0  0  0  0  0  0  0  0  0
  -24.6770  -31.8700   23.2390 C   0  0  0  0  0  0  0  0  0  0  0  0
  -27.1760  -26.6760   20.2990 C   0  0  0  0  0  0  0  0  0  0  0  0
  -23.4880  -30.4660   21.6110 C   0  0  0  0  0  3  0  0  0  0  0  0
  -24.9300  -28.7840   20.2160 C   0  0  0  0  0  0  0  0  0  0  0  0
  -26.0710  -30.5680   21.5010 C   0  0  0  0  0  2  0  0  0  0  0  0
  -26.1290  -29.1200   20.8560 C   0  0  0  0  0  0  0  0  0  0  0  0
  -27.2320  -28.0990   20.8580 C   0  0  0  0  0  3  0  0  0  0  0  0
  -25.9410  -26.5770   19.6010 C   0  0  0  0  0  3  0  0  0  0  0  0
  -24.8810  -27.5390   19.5630 C   0  0  0  0  0  3  0  0  0  0  0  0
  -23.7310  -29.7510   20.2480 C   0  0  0  0  0  2  0  0  0  0  0  0
  -24.7700  -31.0030   22.1690 N   0  0  0  0  0  0  0  0  0  0  0  0
  -23.5830  -32.1820   23.7410 O   0  0  0  0  0  0  0  0  0  0  0  0
  -22.7570  -29.5050   22.5890 C   0  0  0  0  0  0  0  0  0  0  0  0
  -21.4230  -29.3610   22.4660 N   0  0  0  0  0  0  0  0  0  0  0  0
  -23.4060  -28.8860   23.4370 O   0  0  0  0  0  0  0  0  0  0  0  0
  -20.9470  -29.9090   21.7610 H   0  0  0  0  0  0  0  0  0  0  0  0
  -18.0280  -28.1680   22.9900 C   0  0  0  0  0  0  0  0  0  0  0  0
  -20.5900  -28.4360   23.2450 C   0  0  0  0  0  3  0  0  0  0  0  0
  -20.6860  -26.9970   22.6850 C   0  0  0  0  0  2  0  0  0  0  0  0
  -19.5830  -26.6690   21.6740 C   0  0  0  0  0  2  0  0  0  0  0  0
  -18.2030  -26.8170   22.3170 C   0  0  0  0  0  2  0  0  0  0  0  0
  -19.1480  -28.9350   23.4110 C   0  0  0  0  0  0  0  0  0  0  0  0
  -18.9260  -30.1950   24.0070 C   0  0  0  0  0  3  0  0  0  0  0  0
  -17.6200  -30.6920   24.1810 C   0  0  0  0  0  3  0  0  0  0  0  0
  -16.5160  -29.9240   23.7720 C   0  0  0  0  0  3  0  0  0  0  0  0
  -16.7210  -28.6640   23.1830 C   0  0  0  0  0  3  0  0  0  0  0  0
  -25.9400  -32.5230   23.8790 C   0  0  0  0  0  3  0  0  0  0  0  0
  -25.6200  -33.9280   24.2040 N   0  0  0  0  0  0  0  0  0  0  0  0
  -25.9300  -34.9890   23.4470 C   0  0  0  0  0  0  0  0  0  0  0  0
  -26.5720  -34.8900   22.3980 O   0  0  0  0  0  0  0  0  0  0  0  0
  -25.0470  -34.0780   25.0210 H   0  0  0  0  0  0  0  0  0  0  0  0
  -24.1780  -36.7820   23.1760 C   0  0  0  0  0  1  0  0  0  0  0  0
  -25.4600  -36.3820   23.9240 C   0  0  0  0  0  3  0  0  0  0  0  0
  -27.6240  -37.2910   24.6510 C   0  0  0  0  0  1  0  0  0  0  0  0
  -26.4800  -37.4420   23.7570 N   0  0  0  0  0  0  0  0  0  0  0  0
  -26.0730  -38.3590   23.9180 H   0  0  0  0  0  0  0  0  0  0  0  0
  -26.4280  -31.7740   25.1810 C   0  0  1  0  0  0  0  0  0  0  0  0
  -25.3170  -31.5660   26.2370 C   0  0  0  0  0  1  0  0  0  0  0  0
  -27.0070  -30.3840   24.8400 C   0  0  0  0  0  1  0  0  0  0  0  0
  -27.5750  -32.5740   25.8460 C   0  0  0  0  0  1  0  0  0  0  0  0
  1  4  1  0
  3  6  2  0
  4  2  2  0
  4 48  1  0
  5  3  1  0
  5  1  2  0
  6 15  1  0
  6  2  1  0
  7 15  1  0
  8 13  1  0
  9 10  1  0
  9  8  1  0
 11 10  1  0
 11 20  1  0
 11 12  1  0
 13  7  1  0
 13 12  1  0
 14  7  2  0
 15 16  1  0
 17 18  2  0
 18 37  1  0
 19 18  1  0
 19 22  1  0
 20 21  1  0
 20 17  1  0
 21 19  2  0
 22 23  1  0
 23 24  2  0
 25 28  1  0
 25 24  1  0
 26 25  2  0
 27 26  1  0
 27 22  2  0
 28 29  1  0
 29 30  1  0
 30 31  2  0
 32 31  1  0
 32 36  1  0
 33 32  2  0
 34 29  2  0
 34 33  1  0
 35 34  1  0
 37 38  1  0
 38 41  1  0
 38 40  1  0
 39 37  2  0
 42 43  1  0
 42 17  1  0
 44 42  1  0
 45  5  1  0
 46 45  1  0
 47 45  1  0
 48 49  1  0
 50 61  2  0
 51 49  1  0
 51 56  1  0
 52 60  1  0
 52 62  1  0
 53 59  1  0
 53 55  1  0
 54 60  1  0
 55 56  2  0
 55 54  1  0
 57 51  2  0
 58 57  1  0
 58 53  2  0
 59 52  1  0
 60 50  1  0
 62 64  2  0
 63 62  1  0
 65 63  1  0
 66 75  2  0
 66 71  1  0
 67 63  1  0
 67 71  1  0
 68 67  1  0
 69 70  1  0
 69 68  1  0
 70 66  1  0
 71 72  2  0
 72 73  1  0
 74 73  2  0
 75 74  1  0
 76 50  1  0
 76 77  1  0
 76 86  1  0
 77 80  1  0
 78 82  1  0
 78 77  1  0
 79 78  2  0
 82 81  1  0
 84 85  1  0
 84 82  1  0
 84 83  1  0
 86 89  1  1
 86 87  1  0
 88 86  1  0
M  ISO  4   7 100  15 100  48 101  49 101
M  END
>  <TORSDO>  (40) 
F 18

>  <SCORE>  (40) 
-16.317

>  <name>  (40) 
40

>  <ligand_id>  (40) 
40

>  <original_smiles>  (40) 
[H]c1c([H])c([H])c2c(c1[H])C([H])([H])C([H])([H])C([H])([H])C2([H])N([H])C(=O)C1([H])N(C(=O)C([H])(N([H])C(=O)C([H])(N([H])C([H])([H])[H])C([H])([H])[H])C(C([H])([H])[H])(C([H])([H])[H])C([H])([H])[H])C([H])([H])c2c([H])c(OC([H])([H])c3c([H])c(N([H])[H])c([H])c(N([H])C(=O)N4C([H])([H])C([H])([H])C([H])([H])C([H])(n5nc(-c6c([H])c([H])c(Oc7c([H])c([H])c(F)c([H])c7F)c([H])c6[H])c(C(=O)N([H])[H])c5N([H])[H])C4([H])[H])c3[H])c([H])c([H])c2C1([H])[H]

>  <smiles>  (40) 
[H]c1c([H])c([H])c2c(c1[H])C([H])([H])C([H])([H])C([H])([H])C2([H])N([H])C(=O)C1([H])N(C(=O)C([H])(N([H])C(=O)C([H])(N([H])C([H])([H])[H])C([H])([H])[H])C(C([H])([H])[H])(C([H])([H])[H])C([H])([H])[H])C([H])([H])c2c([H])c(OC([H])([H])c3c([H])c(N([H])[H])c([H])c(N([H])C(=O)N4C([H])([H])C([H])([H])C([H])([H])C([H])(n5nc(-c6c([H])c([H])c(Oc7c([H])c([H])c(F)c([H])c7F)c([H])c6[H])c(C(=O)N([H])[H])c5N([H])[H])C4([H])[H])c3[H])c([H])c([H])c2C1([H])[H]

$$$$
41:0:0
     RDKit          3D

 92100  0  0  1  0  0  0  0  0999 V2000
  -28.9310  -19.6630   18.9960 C   0  0  0  0  0  3  0  0  0  0  0  0
  -28.5880  -21.0560   18.8740 C   0  0  0  0  0  3  0  0  0  0  0  0
  -29.7540  -20.0640   21.1380 C   0  0  0  0  0  3  0  0  0  0  0  0
  -29.4320  -21.4760   21.0250 C   0  0  0  0  0  0  0  0  0  0  0  0
  -29.8310  -18.8190   20.0670 C   0  0  0  0  0  0  0  0  0  0  0  0
  -28.9530  -22.3970   19.7430 C   0  0  0  0  0  0  0  0  0  0  0  0
  -30.5900  -15.7950   20.4710 C   0  0  0  0  0  0  0  0  0  0  0  0
  -30.8050  -13.2110   19.9260 C   0  0  0  0  0  2  0  0  0  0  0  0
  -30.0040  -12.7090   18.6940 C   0  0  0  0  0  2  0  0  0  0  0  0
  -28.5580  -12.3640   19.0840 C   0  0  0  0  0  2  0  0  0  0  0  0
  -27.9560  -13.4340   20.0250 C   0  0  0  0  0  3  0  0  0  0  0  0
  -28.9040  -13.8540   21.1700 C   0  0  0  0  0  2  0  0  0  0  0  0
  -30.1130  -14.4250   20.5370 N   0  0  0  0  0  0  0  0  0  0  0  0
  -31.8260  -15.7910   20.3370 O   0  0  0  0  0  0  0  0  0  0  0  0
  -29.7660  -17.0910   20.3760 N   0  0  0  0  0  0  0  0  0  0  0  0
  -28.8000  -16.8270   20.5120 H   0  0  0  0  0  0  0  0  0  0  0  0
  -25.5750  -13.9630   20.7430 C   0  0  0  0  0  0  0  0  0  0  0  0
  -24.5010  -13.1770   21.0540 C   0  0  0  0  0  0  0  0  0  0  0  0
  -24.9650  -11.8270   20.9880 C   0  0  0  0  0  0  0  0  0  0  0  0
  -26.6210  -13.0930   20.4930 N   0  0  0  0  0  0  0  0  0  0  0  0
  -26.2650  -11.7990   20.7080 N   0  0  0  0  0  0  0  0  0  0  0  0
  -24.2270  -10.5630   21.1120 C   0  0  0  0  0  0  0  0  0  0  0  0
  -24.6050   -9.5730   22.0470 C   0  0  0  0  0  3  0  0  0  0  0  0
  -23.8620   -8.3770   22.1640 C   0  0  0  0  0  3  0  0  0  0  0  0
  -22.7290   -8.1630   21.3440 C   0  0  0  0  0  0  0  0  0  0  0  0
  -22.3710   -9.1410   20.3980 C   0  0  0  0  0  3  0  0  0  0  0  0
  -23.1130  -10.3270   20.2800 C   0  0  0  0  0  3  0  0  0  0  0  0
  -21.9640   -7.0200   21.3680 O   0  0  0  0  0  0  0  0  0  0  0  0
  -21.8090   -6.2810   22.5140 C   0  0  0  0  0  0  0  0  0  0  0  0
  -21.2730   -6.8410   23.6940 C   0  0  0  0  0  3  0  0  0  0  0  0
  -21.0680   -6.0300   24.8270 C   0  0  0  0  0  3  0  0  0  0  0  0
  -21.3870   -4.6590   24.7800 C   0  0  0  0  0  0  0  0  0  0  0  0
  -21.9130   -4.0990   23.6030 C   0  0  0  0  0  3  0  0  0  0  0  0
  -22.1220   -4.9080   22.4730 C   0  0  0  0  0  0  0  0  0  0  0  0
  -22.6100   -4.3590   21.3340 F   0  0  0  0  0  0  0  0  0  0  0  0
  -21.1830   -3.8780   25.8660 F   0  0  0  0  0  0  0  0  0  0  0  0
  -23.1000  -13.6530   21.2970 C   0  0  0  0  0  0  0  0  0  0  0  0
  -22.3440  -12.9390   22.1240 N   0  0  0  0  0  0  0  0  0  0  0  0
  -22.6810  -14.6930   20.7890 O   0  0  0  0  0  0  0  0  0  0  0  0
  -22.6950  -12.0990   22.5600 H   0  0  0  0  0  0  0  0  0  0  0  0
  -21.3990  -13.2360   22.3230 H   0  0  0  0  0  0  0  0  0  0  0  0
  -25.7460  -15.3390   20.6140 N   0  0  0  0  0  0  0  0  0  0  0  0
  -24.9760  -15.9880   20.7220 H   0  0  0  0  0  0  0  0  0  0  0  0
  -26.5930  -15.7820   20.2840 H   0  0  0  0  0  0  0  0  0  0  0  0
  -29.5100  -22.2140   22.2750 C   0  0  0  0  0  0  0  0  0  0  0  0
  -29.9460  -23.4640   22.0780 N   0  0  0  0  0  0  0  0  0  0  0  0
  -29.2190  -21.7710   23.3880 O   0  0  0  0  0  0  0  0  0  0  0  0
  -30.1900  -23.7100   21.1280 H   0  0  0  0  0  0  0  0  0  0  0  0
  -29.6530  -25.8530   22.5700 C   0  0  0  0  0  1  0  0  0  0  0  0
  -30.1240  -24.4910   23.0970 C   0  0  0  0  0  2  0  0  0  0  0  0
  -28.0100  -24.0660   19.7150 C   0  0  0  0  0  2  0  0  0  0  0  0
  -28.2110  -25.7840   19.7220 O   0  0  0  0  0  0  0  0  0  0  0  0
  -24.7090  -31.8200   23.0050 C   0  0  0  0  0  0  0  0  0  0  0  0
  -27.2050  -26.9460   19.7500 C   0  0  0  0  0  0  0  0  0  0  0  0
  -23.4800  -30.4620   21.3640 C   0  0  0  0  0  3  0  0  0  0  0  0
  -24.8980  -28.8970   19.8450 C   0  0  0  0  0  0  0  0  0  0  0  0
  -26.0470  -30.6680   21.1500 C   0  0  0  0  0  2  0  0  0  0  0  0
  -26.1100  -29.2650   20.4430 C   0  0  0  0  0  0  0  0  0  0  0  0
  -27.2500  -28.3180   20.3650 C   0  0  0  0  0  3  0  0  0  0  0  0
  -25.9540  -26.7680   19.1100 C   0  0  0  0  0  3  0  0  0  0  0  0
  -24.8540  -27.6740   19.1560 C   0  0  0  0  0  3  0  0  0  0  0  0
  -23.6780  -29.8180   19.9620 C   0  0  0  0  0  2  0  0  0  0  0  0
  -24.7700  -31.0120   21.8930 N   0  0  0  0  0  0  0  0  0  0  0  0
  -23.6320  -32.0840   23.5660 O   0  0  0  0  0  0  0  0  0  0  0  0
  -22.8180  -29.4370   22.3230 C   0  0  0  0  0  0  0  0  0  0  0  0
  -21.4830  -29.2700   22.2440 N   0  0  0  0  0  0  0  0  0  0  0  0
  -23.5140  -28.7920   23.1100 O   0  0  0  0  0  0  0  0  0  0  0  0
  -20.9710  -29.8420   21.5860 H   0  0  0  0  0  0  0  0  0  0  0  0
  -18.1320  -28.0070   22.8460 C   0  0  0  0  0  0  0  0  0  0  0  0
  -20.6980  -28.2970   23.0130 C   0  0  0  0  0  3  0  0  0  0  0  0
  -20.7900  -26.8880   22.3830 C   0  0  0  0  0  2  0  0  0  0  0  0
  -19.6510  -26.5890   21.4030 C   0  0  0  0  0  2  0  0  0  0  0  0
  -18.2960  -26.6900   22.1080 C   0  0  0  0  0  2  0  0  0  0  0  0
  -19.2580  -28.7690   23.2570 C   0  0  0  0  0  0  0  0  0  0  0  0
  -19.0470  -30.0010   23.9150 C   0  0  0  0  0  3  0  0  0  0  0  0
  -17.7430  -30.4710   24.1600 C   0  0  0  0  0  3  0  0  0  0  0  0
  -16.6320  -29.7080   23.7610 C   0  0  0  0  0  3  0  0  0  0  0  0
  -16.8290  -28.4770   23.1110 C   0  0  0  0  0  3  0  0  0  0  0  0
  -25.9870  -32.4640   23.6210 C   0  0  0  0  0  3  0  0  0  0  0  0
  -26.5610  -31.6490   24.8460 C   0  0  1  0  0  0  0  0  0  0  0  0
  -25.5120  -31.3500   25.9440 C   0  0  0  0  0  1  0  0  0  0  0  0
  -27.1490  -30.2960   24.3840 C   0  0  0  0  0  1  0  0  0  0  0  0
  -27.7260  -32.4310   25.4980 C   0  0  0  0  0  1  0  0  0  0  0  0
  -25.6490  -33.8370   24.0490 N   0  0  0  0  0  0  0  0  0  0  0  0
  -25.9350  -34.9500   23.3600 C   0  0  0  0  0  0  0  0  0  0  0  0
  -26.5680  -34.9320   22.3020 O   0  0  0  0  0  0  0  0  0  0  0  0
  -25.0790  -33.9210   24.8770 H   0  0  0  0  0  0  0  0  0  0  0  0
  -24.1600  -36.7330   23.2030 C   0  0  0  0  0  1  0  0  0  0  0  0
  -25.4430  -36.2960   23.9320 C   0  0  0  0  0  3  0  0  0  0  0  0
  -27.5920  -37.1750   24.7370 C   0  0  0  0  0  1  0  0  0  0  0  0
  -26.4510  -37.3780   23.8480 N   0  0  0  0  0  0  0  0  0  0  0  0
  -26.0330  -38.2780   24.0700 H   0  0  0  0  0  0  0  0  0  0  0  0
  1  5  1  0
  2  1  2  0
  2  6  1  0
  4  3  1  0
  4 45  1  0
  5 15  1  0
  5  3  2  0
  6  4  2  0
  7 13  1  0
  8 13  1  0
  9 10  1  0
  9  8  1  0
 11 10  1  0
 11 20  1  0
 11 12  1  0
 13 12  1  0
 14  7  2  0
 15  7  1  0
 15 16  1  0
 17 18  2  0
 18 37  1  0
 19 18  1  0
 19 22  1  0
 20 21  1  0
 20 17  1  0
 21 19  2  0
 22 23  1  0
 23 24  2  0
 25 28  1  0
 25 24  1  0
 26 25  2  0
 27 26  1  0
 27 22  2  0
 28 29  1  0
 29 30  1  0
 30 31  2  0
 32 31  1  0
 32 36  1  0
 33 32  2  0
 34 29  2  0
 34 33  1  0
 35 34  1  0
 37 38  1  0
 38 41  1  0
 38 40  1  0
 39 37  2  0
 42 43  1  0
 42 17  1  0
 44 42  1  0
 45 47  2  0
 46 45  1  0
 46 50  1  0
 48 46  1  0
 49 50  1  0
 51 52  1  0
 51  6  1  0
 52 54  1  0
 53 64  2  0
 54 59  1  0
 55 63  1  0
 55 65  1  0
 56 62  1  0
 56 58  1  0
 57 63  1  0
 58 57  1  0
 59 58  2  0
 60 61  1  0
 60 54  2  0
 61 56  2  0
 62 55  1  0
 63 53  1  0
 65 67  2  0
 66 65  1  0
 68 66  1  0
 69 78  2  0
 69 74  1  0
 70 66  1  0
 70 74  1  0
 71 70  1  0
 72 73  1  0
 72 71  1  0
 73 69  1  0
 74 75  2  0
 75 76  1  0
 77 76  2  0
 78 77  1  0
 79 53  1  0
 79 84  1  0
 79 80  1  0
 80 83  1  1
 80 81  1  0
 82 80  1  0
 84 87  1  0
 85 89  1  0
 85 84  1  0
 86 85  2  0
 89 88  1  0
 91 89  1  0
 91 92  1  0
 91 90  1  0
M  ISO  4   7 100  15 100  51 101  52 101
M  END
>  <TORSDO>  (41) 
F 19

>  <SCORE>  (41) 
-14.682

>  <name>  (41) 
41

>  <ligand_id>  (41) 
41

>  <original_smiles>  (41) 
[H]C1=C([H])C([H])(C([H])([H])Oc2c([H])c([H])c3c(c2[H])C([H])([H])N(C(=O)C([H])(N([H])C(=O)C([H])(N([H])C([H])([H])[H])C([H])([H])[H])C(C([H])([H])[H])(C([H])([H])[H])C([H])([H])[H])C([H])(C(=O)N([H])C2([H])c4c([H])c([H])c([H])c([H])c4C([H])([H])C([H])([H])C2([H])[H])C3([H])[H])C(C(=O)N([H])C([H])([H])C([H])([H])[H])=C([H])C1([H])N([H])C(=O)N1C([H])([H])C([H])([H])C([H])([H])C([H])(n2nc(-c3c([H])c([H])c(Oc4c([H])c([H])c(F)c([H])c4F)c([H])c3[H])c(C(=O)N([H])[H])c2N([H])[H])C1([H])[H]

>  <smiles>  (41) 
[H]C1=C([H])C([H])(C([H])([H])Oc2c([H])c([H])c3c(c2[H])C([H])([H])N(C(=O)C([H])(N([H])C(=O)C([H])(N([H])C([H])([H])[H])C([H])([H])[H])C(C([H])([H])[H])(C([H])([H])[H])C([H])([H])[H])C([H])(C(=O)N([H])C2([H])c4c([H])c([H])c([H])c([H])c4C([H])([H])C([H])([H])C2([H])[H])C3([H])[H])C(C(=O)N([H])C([H])([H])C([H])([H])[H])=C([H])C1([H])N([H])C(=O)N1C([H])([H])C([H])([H])C([H])([H])C([H])(n2nc(-c3c([H])c([H])c(Oc4c([H])c([H])c(F)c([H])c4F)c([H])c3[H])c(C(=O)N([H])[H])c2N([H])[H])C1([H])[H]

$$$$
42:0:0
     RDKit          3D

 93103  0  0  1  0  0  0  0  0999 V2000
  -30.9310  -19.8520   18.7460 C   0  0  0  0  0  3  0  0  0  0  0  0
  -31.1230  -18.5020   19.2050 C   0  0  0  0  0  3  0  0  0  0  0  0
  -30.0080  -19.0730   21.2420 C   0  0  0  0  0  3  0  0  0  0  0  0
  -30.2790  -20.8590   19.5200 C   0  0  0  0  0  0  0  0  0  0  0  0
  -29.8150  -20.4240   20.8010 C   0  0  0  0  0  0  0  0  0  0  0  0
  -30.6510  -18.0650   20.4750 C   0  0  0  0  0  0  0  0  0  0  0  0
  -31.5440  -15.6250   20.9570 C   0  0  0  0  0  0  0  0  0  0  0  0
  -31.6210  -13.1600   20.5630 C   0  0  0  0  0  2  0  0  0  0  0  0
  -30.9230  -12.8580   19.2170 C   0  0  0  0  0  2  0  0  0  0  0  0
  -29.4010  -12.7010   19.4080 C   0  0  0  0  0  2  0  0  0  0  0  0
  -28.7880  -13.8430   20.2600 C   0  0  0  0  0  3  0  0  0  0  0  0
  -29.6150  -14.0850   21.5440 C   0  0  0  0  0  2  0  0  0  0  0  0
  -31.0000  -14.3740   21.1370 N   0  0  0  0  0  0  0  0  0  0  0  0
  -32.7420  -15.7620   20.6890 O   0  0  0  0  0  0  0  0  0  0  0  0
  -30.6640  -16.6840   21.0010 N   0  0  0  0  0  0  0  0  0  0  0  0
  -29.7890  -16.4090   21.4200 H   0  0  0  0  0  0  0  0  0  0  0  0
  -26.3390  -14.5190   20.6400 C   0  0  0  0  0  0  0  0  0  0  0  0
  -25.2060  -13.7810   20.8570 C   0  0  0  0  0  0  0  0  0  0  0  0
  -25.6250  -12.4150   20.8870 C   0  0  0  0  0  0  0  0  0  0  0  0
  -27.3780  -13.6050   20.5520 N   0  0  0  0  0  0  0  0  0  0  0  0
  -26.9450  -12.3350   20.7600 N   0  0  0  0  0  0  0  0  0  0  0  0
  -24.8400  -11.1770   20.9720 C   0  0  0  0  0  0  0  0  0  0  0  0
  -25.0990  -10.2050   21.9630 C   0  0  0  0  0  3  0  0  0  0  0  0
  -24.3170   -9.0320   22.0360 C   0  0  0  0  0  3  0  0  0  0  0  0
  -23.2620   -8.8220   21.1160 C   0  0  0  0  0  0  0  0  0  0  0  0
  -23.0240   -9.7820   20.1170 C   0  0  0  0  0  3  0  0  0  0  0  0
  -23.8060  -10.9470   20.0420 C   0  0  0  0  0  3  0  0  0  0  0  0
  -22.4690   -7.7010   21.0950 O   0  0  0  0  0  0  0  0  0  0  0  0
  -22.1880   -6.9960   22.2390 C   0  0  0  0  0  0  0  0  0  0  0  0
  -21.5500   -7.5960   23.3460 C   0  0  0  0  0  3  0  0  0  0  0  0
  -21.2180   -6.8180   24.4730 C   0  0  0  0  0  3  0  0  0  0  0  0
  -21.5150   -5.4420   24.4920 C   0  0  0  0  0  0  0  0  0  0  0  0
  -22.1450   -4.8420   23.3870 C   0  0  0  0  0  3  0  0  0  0  0  0
  -22.4780   -5.6170   22.2630 C   0  0  0  0  0  0  0  0  0  0  0  0
  -23.0660   -5.0300   21.1930 F   0  0  0  0  0  0  0  0  0  0  0  0
  -21.1880   -4.6930   25.5710 F   0  0  0  0  0  0  0  0  0  0  0  0
  -23.8000  -14.3030   20.9340 C   0  0  0  0  0  0  0  0  0  0  0  0
  -22.9380  -13.6300   21.6890 N   0  0  0  0  0  0  0  0  0  0  0  0
  -23.4720  -15.3420   20.3630 O   0  0  0  0  0  0  0  0  0  0  0  0
  -23.2130  -12.7900   22.1740 H   0  0  0  0  0  0  0  0  0  0  0  0
  -21.9890  -13.9630   21.7830 H   0  0  0  0  0  0  0  0  0  0  0  0
  -26.5700  -15.8840   20.4910 N   0  0  0  0  0  0  0  0  0  0  0  0
  -25.8150  -16.5610   20.4980 H   0  0  0  0  0  0  0  0  0  0  0  0
  -27.4700  -16.2970   20.2840 H   0  0  0  0  0  0  0  0  0  0  0  0
  -29.9210  -22.8370   17.7580 C   0  0  0  0  0  2  0  0  0  0  0  0
  -30.0700  -22.3020   18.9920 C   0  0  0  0  0  3  0  0  0  0  0  0
  -30.0890  -23.6990   19.6490 C   0  0  0  0  0  2  0  0  0  0  0  0
  -30.0490  -24.3310   18.2100 C   0  0  0  0  0  3  0  0  0  0  0  0
  -28.9120  -25.3520   17.7180 C   0  0  0  0  0  2  0  0  0  0  0  0
  -28.9470  -26.8100   18.0650 O   0  0  0  0  0  0  0  0  0  0  0  0
  -24.8600  -30.7180   22.5940 C   0  0  0  0  0  0  0  0  0  0  0  0
  -27.7300  -27.4930   18.2940 C   0  0  0  0  0  0  0  0  0  0  0  0
  -23.6930  -29.6060   20.7240 C   0  0  0  0  0  3  0  0  0  0  0  0
  -25.1840  -28.7010   18.8530 C   0  0  0  0  0  0  0  0  0  0  0  0
  -26.1400  -30.3370   20.4720 C   0  0  0  0  0  2  0  0  0  0  0  0
  -26.3360  -29.1900   19.4820 C   0  0  0  0  0  0  0  0  0  0  0  0
  -27.6070  -28.6010   19.1960 C   0  0  0  0  0  3  0  0  0  0  0  0
  -26.5420  -27.0720   17.6510 C   0  0  0  0  0  3  0  0  0  0  0  0
  -25.2900  -27.6520   17.9290 C   0  0  0  0  0  3  0  0  0  0  0  0
  -23.8550  -29.3390   19.2060 C   0  0  0  0  0  2  0  0  0  0  0  0
  -24.9200  -30.2260   21.3210 N   0  0  0  0  0  0  0  0  0  0  0  0
  -23.8070  -30.6860   23.2480 O   0  0  0  0  0  0  0  0  0  0  0  0
  -23.2670  -28.2940   21.4260 C   0  0  0  0  0  0  0  0  0  0  0  0
  -21.9780  -27.9290   21.3010 N   0  0  0  0  0  0  0  0  0  0  0  0
  -24.0900  -27.6160   22.0460 O   0  0  0  0  0  0  0  0  0  0  0  0
  -21.3620  -28.5430   20.7860 H   0  0  0  0  0  0  0  0  0  0  0  0
  -18.8810  -26.0780   21.5680 C   0  0  0  0  0  0  0  0  0  0  0  0
  -21.3740  -26.7110   21.8430 C   0  0  0  0  0  3  0  0  0  0  0  0
  -21.6760  -25.4900   20.9430 C   0  0  0  0  0  2  0  0  0  0  0  0
  -20.5840  -25.2220   19.9020 C   0  0  0  0  0  2  0  0  0  0  0  0
  -19.2380  -24.9720   20.5890 C   0  0  0  0  0  2  0  0  0  0  0  0
  -19.8830  -26.9050   22.1440 C   0  0  0  0  0  0  0  0  0  0  0  0
  -19.4930  -27.9390   23.0220 C   0  0  0  0  0  3  0  0  0  0  0  0
  -18.1360  -28.1520   23.3280 C   0  0  0  0  0  3  0  0  0  0  0  0
  -17.1510  -27.3220   22.7670 C   0  0  0  0  0  3  0  0  0  0  0  0
  -17.5240  -26.2860   21.8920 C   0  0  0  0  0  3  0  0  0  0  0  0
  -26.1030  -31.3650   23.2780 C   0  0  0  0  0  3  0  0  0  0  0  0
  -26.7850  -30.4230   24.3440 C   0  0  1  0  0  0  0  0  0  0  0  0
  -25.7980  -29.8490   25.3880 C   0  0  0  0  0  1  0  0  0  0  0  0
  -27.4840  -29.2300   23.6520 C   0  0  0  0  0  1  0  0  0  0  0  0
  -27.8840  -31.2010   25.1030 C   0  0  0  0  0  1  0  0  0  0  0  0
  -25.6630  -32.6200   23.9040 N   0  0  0  0  0  0  0  0  0  0  0  0
  -25.8410  -33.8380   23.3760 C   0  0  0  0  0  0  0  0  0  0  0  0
  -26.4620  -34.0290   22.3270 O   0  0  0  0  0  0  0  0  0  0  0  0
  -25.1000  -32.5360   24.7370 H   0  0  0  0  0  0  0  0  0  0  0  0
  -23.9200  -35.4610   23.4580 C   0  0  0  0  0  1  0  0  0  0  0  0
  -25.2350  -35.0370   24.1320 C   0  0  0  0  0  3  0  0  0  0  0  0
  -27.3030  -35.9640   25.0780 C   0  0  0  0  0  1  0  0  0  0  0  0
  -26.1440  -36.2000   24.2190 N   0  0  0  0  0  0  0  0  0  0  0  0
  -25.6520  -37.0170   24.5690 H   0  0  0  0  0  0  0  0  0  0  0  0
  -27.6540  -21.1790   22.1260 C   0  0  0  0  0  2  0  0  0  0  0  0
  -28.0380  -22.3100   21.2050 C   0  0  0  0  0  2  0  0  0  0  0  0
  -29.1030  -21.3730   21.7260 C   0  0  0  0  0  3  0  0  0  0  0  0
  1  2  2  0
  1  4  1  0
  2  6  1  0
  4  5  2  0
  5  3  1  0
  5 93  1  0
  6 15  1  0
  6  3  2  0
  7 15  1  0
  7 13  1  0
  8 13  1  0
  9 10  1  0
  9  8  1  0
 11 10  1  0
 11 20  1  0
 11 12  1  0
 13 12  1  0
 14  7  2  0
 15 16  1  0
 17 18  2  0
 18 19  1  0
 18 37  1  0
 19 22  1  0
 20 17  1  0
 20 21  1  0
 21 19  2  0
 22 23  1  0
 23 24  2  0
 25 24  1  0
 26 25  2  0
 27 26  1  0
 27 22  2  0
 28 25  1  0
 28 29  1  0
 29 34  2  0
 29 30  1  0
 30 31  2  0
 31 32  1  0
 32 36  1  0
 33 32  2  0
 34 33  1  0
 35 34  1  0
 37 38  1  0
 38 41  1  0
 38 40  1  0
 39 37  2  0
 42 43  1  0
 42 17  1  0
 44 42  1  0
 45 48  1  0
 45 46  1  0
 46  4  1  0
 46 47  1  0
 48 49  1  0
 48 47  1  0
 49 50  1  0
 50 52  1  0
 51 62  2  0
 52 57  1  0
 53 61  1  0
 53 63  1  0
 54 60  1  0
 54 56  1  0
 55 61  1  0
 56 55  1  0
 57 56  2  0
 58 59  1  0
 58 52  2  0
 59 54  2  0
 60 53  1  0
 61 51  1  0
 63 65  2  0
 64 63  1  0
 66 64  1  0
 67 76  2  0
 67 72  1  0
 68 64  1  0
 68 72  1  0
 69 68  1  0
 70 71  1  0
 70 69  1  0
 71 67  1  0
 72 73  2  0
 73 74  1  0
 75 74  2  0
 76 75  1  0
 77 51  1  0
 77 82  1  0
 77 78  1  0
 78 81  1  1
 78 79  1  0
 80 78  1  0
 82 85  1  0
 83 82  1  0
 83 87  1  0
 84 83  2  0
 87 86  1  0
 87 89  1  0
 89 90  1  0
 89 88  1  0
 92 93  1  0
 92 91  1  0
 93 91  1  0
M  ISO  4   7 100  15 100  49 101  50 101
M  END
>  <TORSDO>  (42) 
F 19

>  <SCORE>  (42) 
-6.309

>  <name>  (42) 
42

>  <ligand_id>  (42) 
42

>  <original_smiles>  (42) 
[H]C1=C(c2c([H])c([H])c(N([H])C(=O)N3C([H])([H])C([H])([H])C([H])([H])C([H])(n4nc(-c5c([H])c([H])c(Oc6c([H])c([H])c(F)c([H])c6F)c([H])c5[H])c(C(=O)N([H])[H])c4N([H])[H])C3([H])[H])c([H])c2C2([H])C([H])([H])C2([H])[H])C([H])([H])C1([H])C([H])([H])Oc1c([H])c([H])c2c(c1[H])C([H])([H])N(C(=O)C([H])(N([H])C(=O)C([H])(N([H])C([H])([H])[H])C([H])([H])[H])C(C([H])([H])[H])(C([H])([H])[H])C([H])([H])[H])C([H])(C(=O)N([H])C1([H])c3c([H])c([H])c([H])c([H])c3C([H])([H])C([H])([H])C1([H])[H])C2([H])[H]

>  <smiles>  (42) 
[H]C1=C(c2c([H])c([H])c(N([H])C(=O)N3C([H])([H])C([H])([H])C([H])([H])C([H])(n4nc(-c5c([H])c([H])c(Oc6c([H])c([H])c(F)c([H])c6F)c([H])c5[H])c(C(=O)N([H])[H])c4N([H])[H])C3([H])[H])c([H])c2C2([H])C([H])([H])C2([H])[H])C([H])([H])C1([H])C([H])([H])Oc1c([H])c([H])c2c(c1[H])C([H])([H])N(C(=O)C([H])(N([H])C(=O)C([H])(N([H])C([H])([H])[H])C([H])([H])[H])C(C([H])([H])[H])(C([H])([H])[H])C([H])([H])[H])C([H])(C(=O)N([H])C1([H])c3c([H])c([H])c([H])c([H])c3C([H])([H])C([H])([H])C1([H])[H])C2([H])[H]

$$$$
43:0:0
     RDKit          3D

 93102  0  0  1  0  0  0  0  0999 V2000
  -28.6190  -20.8040   20.9070 C   0  0  0  0  0  3  0  0  0  0  0  0
  -30.7580  -20.9150   19.7750 C   0  0  0  0  0  3  0  0  0  0  0  0
  -28.5510  -22.2220   20.9120 C   0  0  0  0  0  3  0  0  0  0  0  0
  -30.6930  -22.3270   19.7950 C   0  0  0  0  0  3  0  0  0  0  0  0
  -29.7220  -20.1310   20.3310 C   0  0  0  0  0  0  0  0  0  0  0  0
  -29.5870  -23.0130   20.3580 C   0  0  0  0  0  0  0  0  0  0  0  0
  -30.7490  -14.5920   20.0570 C   0  0  0  0  0  0  0  0  0  0  0  0
  -30.4240  -12.4260   18.9290 C   0  0  0  0  0  2  0  0  0  0  0  0
  -29.4140  -12.6360   17.7810 C   0  0  0  0  0  2  0  0  0  0  0  0
  -27.9680  -12.4740   18.2920 C   0  0  0  0  0  2  0  0  0  0  0  0
  -27.6920  -13.2820   19.5890 C   0  0  0  0  0  3  0  0  0  0  0  0
  -28.8160  -13.0680   20.6290 C   0  0  0  0  0  2  0  0  0  0  0  0
  -30.0910  -13.4010   19.9800 N   0  0  0  0  0  0  0  0  0  0  0  0
  -31.9050  -14.7230   19.6420 O   0  0  0  0  0  0  0  0  0  0  0  0
  -29.3670  -17.8490   21.2950 C   0  0  0  0  0  3  0  0  0  0  0  0
  -29.8250  -18.6370   20.2970 C   0  0  0  0  0  0  0  0  0  0  0  0
  -29.4150  -16.3100   21.3080 C   0  0  0  0  0  2  0  0  0  0  0  0
  -30.3780  -17.9520   19.0590 C   0  0  0  0  0  2  0  0  0  0  0  0
  -29.8240  -16.5250   18.8680 C   0  0  0  0  0  2  0  0  0  0  0  0
  -29.9390  -15.6870   20.0740 N   0  0  0  0  0  0  0  0  0  0  0  0
  -25.3360  -13.8430   20.4520 C   0  0  0  0  0  0  0  0  0  0  0  0
  -24.2980  -13.0490   20.8580 C   0  0  0  0  0  0  0  0  0  0  0  0
  -24.7680  -11.7040   20.7640 C   0  0  0  0  0  0  0  0  0  0  0  0
  -26.3740  -12.9790   20.1400 N   0  0  0  0  0  0  0  0  0  0  0  0
  -26.0390  -11.6870   20.3840 N   0  0  0  0  0  0  0  0  0  0  0  0
  -24.0650  -10.4300   20.9580 C   0  0  0  0  0  0  0  0  0  0  0  0
  -24.5170   -9.4730   21.8920 C   0  0  0  0  0  3  0  0  0  0  0  0
  -23.8130   -8.2620   22.0730 C   0  0  0  0  0  3  0  0  0  0  0  0
  -22.6440   -8.0010   21.3210 C   0  0  0  0  0  0  0  0  0  0  0  0
  -22.2110   -8.9480   20.3760 C   0  0  0  0  0  3  0  0  0  0  0  0
  -22.9150  -10.1490   20.1930 C   0  0  0  0  0  3  0  0  0  0  0  0
  -21.9120   -6.8430   21.4130 O   0  0  0  0  0  0  0  0  0  0  0  0
  -21.8120   -6.1440   22.5890 C   0  0  0  0  0  0  0  0  0  0  0  0
  -21.2960   -6.7340   23.7640 C   0  0  0  0  0  3  0  0  0  0  0  0
  -21.1480   -5.9600   24.9320 C   0  0  0  0  0  3  0  0  0  0  0  0
  -21.5050   -4.5980   24.9270 C   0  0  0  0  0  0  0  0  0  0  0  0
  -22.0140   -4.0080   23.7560 C   0  0  0  0  0  3  0  0  0  0  0  0
  -22.1640   -4.7800   22.5900 C   0  0  0  0  0  0  0  0  0  0  0  0
  -22.6350   -4.2010   21.4590 F   0  0  0  0  0  0  0  0  0  0  0  0
  -21.3550   -3.8530   26.0460 F   0  0  0  0  0  0  0  0  0  0  0  0
  -22.9130  -13.5050   21.2210 C   0  0  0  0  0  0  0  0  0  0  0  0
  -22.2460  -12.7820   22.1130 N   0  0  0  0  0  0  0  0  0  0  0  0
  -22.4350  -14.5350   20.7500 O   0  0  0  0  0  0  0  0  0  0  0  0
  -22.6460  -11.9470   22.5140 H   0  0  0  0  0  0  0  0  0  0  0  0
  -21.3200  -13.0680   22.4000 H   0  0  0  0  0  0  0  0  0  0  0  0
  -25.4790  -15.2200   20.3040 N   0  0  0  0  0  0  0  0  0  0  0  0
  -24.7180  -15.8660   20.4800 H   0  0  0  0  0  0  0  0  0  0  0  0
  -26.3160  -15.6760   19.9620 H   0  0  0  0  0  0  0  0  0  0  0  0
  -29.5810  -24.5190   20.4050 C   0  0  0  0  0  0  0  0  0  0  0  0
  -30.6380  -25.1690   20.6650 N   0  0  0  0  0  0  0  0  0  0  0  0
  -31.4140  -24.5430   20.8480 H   0  0  0  0  0  0  0  0  0  0  0  0
  -28.2850  -25.2860   20.0810 C   0  0  0  0  0  2  0  0  0  0  0  0
  -28.3990  -26.7240   20.2380 O   0  0  0  0  0  0  0  0  0  0  0  0
  -24.6170  -31.9280   23.3240 C   0  0  0  0  0  0  0  0  0  0  0  0
  -27.2300  -27.4680   20.2190 C   0  0  0  0  0  0  0  0  0  0  0  0
  -23.4010  -30.5400   21.6780 C   0  0  0  0  0  3  0  0  0  0  0  0
  -24.8440  -29.0040   20.2400 C   0  0  0  0  0  0  0  0  0  0  0  0
  -25.9310  -30.8850   21.4750 C   0  0  0  0  0  2  0  0  0  0  0  0
  -26.0080  -29.5160   20.8260 C   0  0  0  0  0  0  0  0  0  0  0  0
  -27.2040  -28.7570   20.8060 C   0  0  0  0  0  3  0  0  0  0  0  0
  -26.0420  -26.9780   19.6260 C   0  0  0  0  0  3  0  0  0  0  0  0
  -24.8570  -27.7360   19.6370 C   0  0  0  0  0  3  0  0  0  0  0  0
  -23.6050  -29.8690   20.2940 C   0  0  0  0  0  2  0  0  0  0  0  0
  -24.6690  -31.1320   22.2170 N   0  0  0  0  0  0  0  0  0  0  0  0
  -23.5380  -32.2010   23.8680 O   0  0  0  0  0  0  0  0  0  0  0  0
  -22.7480  -29.5160   22.6340 C   0  0  0  0  0  0  0  0  0  0  0  0
  -21.4260  -29.3280   22.4960 N   0  0  0  0  0  0  0  0  0  0  0  0
  -23.4280  -28.8950   23.4540 O   0  0  0  0  0  0  0  0  0  0  0  0
  -20.9380  -29.8820   21.8060 H   0  0  0  0  0  0  0  0  0  0  0  0
  -18.0530  -28.1140   22.9620 C   0  0  0  0  0  0  0  0  0  0  0  0
  -20.6070  -28.3870   23.2610 C   0  0  0  0  0  3  0  0  0  0  0  0
  -20.7230  -26.9550   22.6890 C   0  0  0  0  0  2  0  0  0  0  0  0
  -19.6340  -26.6240   21.6640 C   0  0  0  0  0  2  0  0  0  0  0  0
  -18.2450  -26.7640   22.2940 C   0  0  0  0  0  2  0  0  0  0  0  0
  -19.1630  -28.8830   23.4030 C   0  0  0  0  0  0  0  0  0  0  0  0
  -18.9310  -30.1480   23.9870 C   0  0  0  0  0  3  0  0  0  0  0  0
  -17.6230  -30.6430   24.1370 C   0  0  0  0  0  3  0  0  0  0  0  0
  -16.5270  -29.8700   23.7140 C   0  0  0  0  0  3  0  0  0  0  0  0
  -16.7430  -28.6080   23.1320 C   0  0  0  0  0  3  0  0  0  0  0  0
  -25.9070  -32.5500   23.9430 C   0  0  0  0  0  3  0  0  0  0  0  0
  -25.6090  -33.9510   24.2700 N   0  0  0  0  0  0  0  0  0  0  0  0
  -25.9270  -34.9970   23.4950 C   0  0  0  0  0  0  0  0  0  0  0  0
  -26.5730  -34.8840   22.4500 O   0  0  0  0  0  0  0  0  0  0  0  0
  -25.0330  -34.1120   25.0830 H   0  0  0  0  0  0  0  0  0  0  0  0
  -24.1790  -36.7770   23.1840 C   0  0  0  0  0  1  0  0  0  0  0  0
  -25.4520  -36.3890   23.9530 C   0  0  0  0  0  3  0  0  0  0  0  0
  -27.6110  -37.2940   24.6930 C   0  0  0  0  0  1  0  0  0  0  0  0
  -26.4750  -37.4430   23.7860 N   0  0  0  0  0  0  0  0  0  0  0  0
  -26.0710  -38.3640   23.9330 H   0  0  0  0  0  0  0  0  0  0  0  0
  -26.4190  -31.7760   25.2200 C   0  0  1  0  0  0  0  0  0  0  0  0
  -25.3240  -31.5430   26.2870 C   0  0  0  0  0  1  0  0  0  0  0  0
  -26.9950  -30.3970   24.8260 C   0  0  0  0  0  1  0  0  0  0  0  0
  -27.5730  -32.5650   25.8830 C   0  0  0  0  0  1  0  0  0  0  0  0
  1  3  1  0
  2  4  2  0
  2  5  1  0
  4  6  1  0
  5  1  2  0
  6 49  1  0
  6  3  2  0
  7 20  1  0
  8 13  1  0
  9 10  1  0
  9  8  1  0
 11 10  1  0
 11 24  1  0
 11 12  1  0
 13  7  1  0
 13 12  1  0
 14  7  2  0
 15 17  1  0
 16  5  1  0
 16 15  2  0
 18 16  1  0
 19 18  1  0
 19 20  1  0
 20 17  1  0
 21 22  2  0
 22 41  1  0
 23 22  1  0
 23 26  1  0
 24 25  1  0
 24 21  1  0
 25 23  2  0
 26 27  1  0
 27 28  2  0
 29 32  1  0
 29 28  1  0
 30 29  2  0
 31 30  1  0
 31 26  2  0
 32 33  1  0
 33 38  2  0
 33 34  1  0
 34 35  2  0
 36 35  1  0
 36 40  1  0
 37 36  2  0
 38 37  1  0
 39 38  1  0
 41 42  1  0
 42 45  1  0
 42 44  1  0
 43 41  2  0
 46 21  1  0
 46 47  1  0
 48 46  1  0
 49 50  2  0
 50 51  1  0
 52 53  1  0
 52 49  1  0
 54 65  2  0
 55 53  1  0
 55 60  1  0
 56 64  1  0
 56 66  1  0
 57 63  1  0
 57 59  1  0
 58 64  1  0
 59 58  1  0
 60 59  2  0
 61 62  1  0
 61 55  2  0
 62 57  2  0
 63 56  1  0
 64 54  1  0
 66 68  2  0
 67 66  1  0
 69 67  1  0
 70 79  2  0
 70 75  1  0
 71 67  1  0
 71 75  1  0
 72 71  1  0
 73 74  1  0
 73 72  1  0
 74 70  1  0
 75 76  2  0
 76 77  1  0
 78 77  2  0
 79 78  1  0
 80 54  1  0
 80 81  1  0
 80 90  1  0
 81 84  1  0
 82 86  1  0
 82 81  1  0
 83 82  2  0
 86 85  1  0
 88 89  1  0
 88 86  1  0
 88 87  1  0
 90 93  1  1
 90 91  1  0
 92 90  1  0
M  ISO  4   7 100  20 100  52 101  53 101
M  END
>  <TORSDO>  (43) 
F 18

>  <SCORE>  (43) 
-14.370

>  <name>  (43) 
43

>  <ligand_id>  (43) 
43

>  <original_smiles>  (43) 
[H]N=C(c1c([H])c([H])c(C2=C([H])C([H])([H])N(C(=O)N3C([H])([H])C([H])([H])C([H])([H])C([H])(n4nc(-c5c([H])c([H])c(Oc6c([H])c([H])c(F)c([H])c6F)c([H])c5[H])c(C(=O)N([H])[H])c4N([H])[H])C3([H])[H])C([H])([H])C2([H])[H])c([H])c1[H])C([H])([H])Oc1c([H])c([H])c2c(c1[H])C([H])([H])N(C(=O)C([H])(N([H])C(=O)C([H])(N([H])C([H])([H])[H])C([H])([H])[H])C(C([H])([H])[H])(C([H])([H])[H])C([H])([H])[H])C([H])(C(=O)N([H])C1([H])c3c([H])c([H])c([H])c([H])c3C([H])([H])C([H])([H])C1([H])[H])C2([H])[H]

>  <smiles>  (43) 
[H]N=C(c1c([H])c([H])c(C2=C([H])C([H])([H])N(C(=O)N3C([H])([H])C([H])([H])C([H])([H])C([H])(n4nc(-c5c([H])c([H])c(Oc6c([H])c([H])c(F)c([H])c6F)c([H])c5[H])c(C(=O)N([H])[H])c4N([H])[H])C3([H])[H])C([H])([H])C2([H])[H])c([H])c1[H])C([H])([H])Oc1c([H])c([H])c2c(c1[H])C([H])([H])N(C(=O)C([H])(N([H])C(=O)C([H])(N([H])C([H])([H])[H])C([H])([H])[H])C(C([H])([H])[H])(C([H])([H])[H])C([H])([H])[H])C([H])(C(=O)N([H])C1([H])c3c([H])c([H])c([H])c([H])c3C([H])([H])C([H])([H])C1([H])[H])C2([H])[H]

$$$$
44:0:0
     RDKit          3D

 93102  0  0  1  0  0  0  0  0999 V2000
  -28.3720  -22.5730   21.2520 C   0  0  0  0  0  3  0  0  0  0  0  0
  -28.9060  -21.8950   20.1920 C   0  0  0  0  0  0  0  0  0  0  0  0
  -28.0290  -24.1060   21.3480 C   0  0  0  0  0  2  0  0  0  0  0  0
  -29.0990  -22.7680   18.9260 C   0  0  0  0  0  2  0  0  0  0  0  0
  -28.3800  -24.1860   18.8920 C   0  0  0  0  0  2  0  0  0  0  0  0
  -28.5630  -25.0160   20.1920 C   0  0  0  0  0  3  0  0  0  0  0  0
  -28.1770  -19.4200   20.5660 C   0  0  0  0  0  3  0  0  0  0  0  0
  -28.3790  -18.0010   20.6140 C   0  0  0  0  0  3  0  0  0  0  0  0
  -30.6630  -18.2800   20.0150 C   0  0  0  0  0  3  0  0  0  0  0  0
  -29.2010  -20.3500   20.2280 C   0  0  0  0  0  0  0  0  0  0  0  0
  -30.4720  -19.7170   19.9680 C   0  0  0  0  0  0  0  0  0  0  0  0
  -29.6230  -17.3590   20.3390 C   0  0  0  0  0  0  0  0  0  0  0  0
  -30.5620  -14.8480   20.0370 C   0  0  0  0  0  0  0  0  0  0  0  0
  -30.4040  -12.5820   18.9690 C   0  0  0  0  0  2  0  0  0  0  0  0
  -29.3880  -12.6690   17.8060 C   0  0  0  0  0  2  0  0  0  0  0  0
  -27.9440  -12.4710   18.3100 C   0  0  0  0  0  2  0  0  0  0  0  0
  -27.6330  -13.3190   19.5710 C   0  0  0  0  0  3  0  0  0  0  0  0
  -28.7520  -13.1770   20.6270 C   0  0  0  0  0  2  0  0  0  0  0  0
  -30.0110  -13.5850   19.9860 N   0  0  0  0  0  0  0  0  0  0  0  0
  -31.7110  -15.0380   19.6210 O   0  0  0  0  0  0  0  0  0  0  0  0
  -29.6970  -15.8680   20.4190 N   0  0  0  0  0  0  0  0  0  0  0  0
  -28.8390  -15.4600   20.7610 H   0  0  0  0  0  0  0  0  0  0  0  0
  -25.2900  -13.8940   20.4480 C   0  0  0  0  0  0  0  0  0  0  0  0
  -24.2450  -13.1110   20.8530 C   0  0  0  0  0  0  0  0  0  0  0  0
  -24.7020  -11.7610   20.7550 C   0  0  0  0  0  0  0  0  0  0  0  0
  -26.3160  -13.0200   20.1240 N   0  0  0  0  0  0  0  0  0  0  0  0
  -25.9740  -11.7300   20.3720 N   0  0  0  0  0  0  0  0  0  0  0  0
  -23.9870  -10.4930   20.9470 C   0  0  0  0  0  0  0  0  0  0  0  0
  -24.4250   -9.5330   21.8860 C   0  0  0  0  0  3  0  0  0  0  0  0
  -23.7090   -8.3290   22.0650 C   0  0  0  0  0  3  0  0  0  0  0  0
  -22.5420   -8.0780   21.3050 C   0  0  0  0  0  0  0  0  0  0  0  0
  -22.1230   -9.0260   20.3560 C   0  0  0  0  0  3  0  0  0  0  0  0
  -22.8400  -10.2210   20.1750 C   0  0  0  0  0  3  0  0  0  0  0  0
  -21.7980   -6.9260   21.3940 O   0  0  0  0  0  0  0  0  0  0  0  0
  -21.6850   -6.2300   22.5710 C   0  0  0  0  0  0  0  0  0  0  0  0
  -21.1630   -6.8260   23.7400 C   0  0  0  0  0  3  0  0  0  0  0  0
  -20.9980   -6.0560   24.9080 C   0  0  0  0  0  3  0  0  0  0  0  0
  -21.3450   -4.6920   24.9090 C   0  0  0  0  0  0  0  0  0  0  0  0
  -21.8620   -4.0970   23.7450 C   0  0  0  0  0  3  0  0  0  0  0  0
  -22.0270   -4.8630   22.5780 C   0  0  0  0  0  0  0  0  0  0  0  0
  -22.5040   -4.2790   21.4530 F   0  0  0  0  0  0  0  0  0  0  0  0
  -21.1790   -3.9520   26.0290 F   0  0  0  0  0  0  0  0  0  0  0  0
  -22.8660  -13.5790   21.2140 C   0  0  0  0  0  0  0  0  0  0  0  0
  -22.1850  -12.8580   22.0980 N   0  0  0  0  0  0  0  0  0  0  0  0
  -22.4020  -14.6200   20.7480 O   0  0  0  0  0  0  0  0  0  0  0  0
  -22.5720  -12.0180   22.4990 H   0  0  0  0  0  0  0  0  0  0  0  0
  -21.2610  -13.1550   22.3810 H   0  0  0  0  0  0  0  0  0  0  0  0
  -25.4500  -15.2690   20.3010 N   0  0  0  0  0  0  0  0  0  0  0  0
  -24.6910  -15.9200   20.4680 H   0  0  0  0  0  0  0  0  0  0  0  0
  -26.2510  -15.7050   19.8640 H   0  0  0  0  0  0  0  0  0  0  0  0
  -32.2010  -21.3540   20.8760 C   0  0  0  0  0  1  0  0  0  0  0  0
  -31.7000  -20.5630   19.6590 C   0  0  0  0  0  2  0  0  0  0  0  0
  -28.4170  -26.5230   20.2250 O   0  0  0  0  0  0  0  0  0  0  0  0
  -24.6420  -31.9110   23.2500 C   0  0  0  0  0  0  0  0  0  0  0  0
  -27.2490  -27.3160   20.1990 C   0  0  0  0  0  0  0  0  0  0  0  0
  -23.4380  -30.5210   21.6020 C   0  0  0  0  0  3  0  0  0  0  0  0
  -24.8850  -28.9540   20.1760 C   0  0  0  0  0  0  0  0  0  0  0  0
  -25.9770  -30.8270   21.4200 C   0  0  0  0  0  2  0  0  0  0  0  0
  -26.0540  -29.4430   20.7720 C   0  0  0  0  0  0  0  0  0  0  0  0
  -27.2350  -28.6380   20.7610 C   0  0  0  0  0  3  0  0  0  0  0  0
  -26.0570  -26.8770   19.5900 C   0  0  0  0  0  3  0  0  0  0  0  0
  -24.8920  -27.6810   19.5740 C   0  0  0  0  0  3  0  0  0  0  0  0
  -23.6530  -29.8410   20.2220 C   0  0  0  0  0  2  0  0  0  0  0  0
  -24.7050  -31.1050   22.1480 N   0  0  0  0  0  0  0  0  0  0  0  0
  -23.5600  -32.1900   23.7850 O   0  0  0  0  0  0  0  0  0  0  0  0
  -22.7680  -29.5080   22.5620 C   0  0  0  0  0  0  0  0  0  0  0  0
  -21.4420  -29.3360   22.4330 N   0  0  0  0  0  0  0  0  0  0  0  0
  -23.4420  -28.8780   23.3810 O   0  0  0  0  0  0  0  0  0  0  0  0
  -20.9560  -29.9000   21.7480 H   0  0  0  0  0  0  0  0  0  0  0  0
  -18.0590  -28.1530   22.9250 C   0  0  0  0  0  0  0  0  0  0  0  0
  -20.6180  -28.3960   23.1960 C   0  0  0  0  0  3  0  0  0  0  0  0
  -20.7110  -26.9690   22.6090 C   0  0  0  0  0  2  0  0  0  0  0  0
  -19.6070  -26.6610   21.5920 C   0  0  0  0  0  2  0  0  0  0  0  0
  -18.2270  -26.8080   22.2380 C   0  0  0  0  0  2  0  0  0  0  0  0
  -19.1810  -28.9060   23.3600 C   0  0  0  0  0  0  0  0  0  0  0  0
  -18.9680  -30.1650   23.9630 C   0  0  0  0  0  3  0  0  0  0  0  0
  -17.6670  -30.6700   24.1350 C   0  0  0  0  0  3  0  0  0  0  0  0
  -16.5580  -29.9140   23.7160 C   0  0  0  0  0  3  0  0  0  0  0  0
  -16.7540  -28.6570   23.1170 C   0  0  0  0  0  3  0  0  0  0  0  0
  -25.9250  -32.5390   23.8790 C   0  0  0  0  0  3  0  0  0  0  0  0
  -25.6170  -33.9360   24.2200 N   0  0  0  0  0  0  0  0  0  0  0  0
  -25.9340  -34.9940   23.4600 C   0  0  0  0  0  0  0  0  0  0  0  0
  -26.5830  -34.8960   22.4160 O   0  0  0  0  0  0  0  0  0  0  0  0
  -25.0350  -34.0860   25.0310 H   0  0  0  0  0  0  0  0  0  0  0  0
  -24.1820  -36.7780   23.1670 C   0  0  0  0  0  1  0  0  0  0  0  0
  -25.4530  -36.3810   23.9340 C   0  0  0  0  0  3  0  0  0  0  0  0
  -27.6100  -37.2820   24.6870 C   0  0  0  0  0  1  0  0  0  0  0  0
  -26.4730  -37.4410   23.7840 N   0  0  0  0  0  0  0  0  0  0  0  0
  -26.0660  -38.3580   23.9480 H   0  0  0  0  0  0  0  0  0  0  0  0
  -26.4370  -31.7610   25.1540 C   0  0  1  0  0  0  0  0  0  0  0  0
  -25.3410  -31.5180   26.2180 C   0  0  0  0  0  1  0  0  0  0  0  0
  -27.0200  -30.3860   24.7560 C   0  0  0  0  0  1  0  0  0  0  0  0
  -27.5860  -32.5510   25.8240 C   0  0  0  0  0  1  0  0  0  0  0  0
  1  3  1  0
  2 10  1  0
  2  1  2  0
  4  2  1  0
  5  4  1  0
  5  6  1  0
  6 53  1  0
  6  3  1  0
  7  8  1  0
  9 12  1  0
 10  7  2  0
 11  9  2  0
 11 10  1  0
 12 21  1  0
 12  8  2  0
 13 21  1  0
 14 19  1  0
 15 16  1  0
 15 14  1  0
 17 16  1  0
 17 26  1  0
 17 18  1  0
 19 13  1  0
 19 18  1  0
 20 13  2  0
 21 22  1  0
 23 24  2  0
 24 43  1  0
 25 24  1  0
 25 28  1  0
 26 27  1  0
 26 23  1  0
 27 25  2  0
 28 29  1  0
 29 30  2  0
 31 34  1  0
 31 30  1  0
 32 31  2  0
 33 32  1  0
 33 28  2  0
 34 35  1  0
 35 40  2  0
 35 36  1  0
 36 37  2  0
 37 38  1  0
 38 42  1  0
 39 38  2  0
 40 39  1  0
 41 40  1  0
 43 44  1  0
 44 47  1  0
 44 46  1  0
 45 43  2  0
 48 23  1  0
 48 49  1  0
 50 48  1  0
 52 11  1  0
 52 51  1  0
 54 65  2  0
 55 53  1  0
 55 60  1  0
 56 64  1  0
 56 66  1  0
 57 63  1  0
 57 59  1  0
 58 64  1  0
 59 58  1  0
 60 59  2  0
 61 55  2  0
 62 61  1  0
 62 57  2  0
 63 56  1  0
 64 54  1  0
 66 68  2  0
 67 66  1  0
 69 67  1  0
 70 79  2  0
 70 75  1  0
 71 67  1  0
 71 75  1  0
 72 71  1  0
 73 74  1  0
 73 72  1  0
 74 70  1  0
 75 76  2  0
 76 77  1  0
 78 77  2  0
 79 78  1  0
 80 54  1  0
 80 81  1  0
 80 90  1  0
 81 84  1  0
 82 86  1  0
 82 81  1  0
 83 82  2  0
 86 85  1  0
 88 86  1  0
 88 89  1  0
 88 87  1  0
 90 93  1  1
 90 91  1  0
 92 90  1  0
M  ISO  4   6 101  13 100  21 100  53 101
M  END
>  <TORSDO>  (44) 
F 18

>  <SCORE>  (44) 
-14.739

>  <name>  (44) 
44

>  <ligand_id>  (44) 
44

>  <original_smiles>  (44) 
[H]C1=C(c2c([H])c([H])c(N([H])C(=O)N3C([H])([H])C([H])([H])C([H])([H])C([H])(n4nc(-c5c([H])c([H])c(Oc6c([H])c([H])c(F)c([H])c6F)c([H])c5[H])c(C(=O)N([H])[H])c4N([H])[H])C3([H])[H])c([H])c2C([H])([H])C([H])([H])[H])C([H])([H])C([H])([H])C([H])(Oc2c([H])c([H])c3c(c2[H])C([H])([H])N(C(=O)C([H])(N([H])C(=O)C([H])(N([H])C([H])([H])[H])C([H])([H])[H])C(C([H])([H])[H])(C([H])([H])[H])C([H])([H])[H])C([H])(C(=O)N([H])C2([H])c4c([H])c([H])c([H])c([H])c4C([H])([H])C([H])([H])C2([H])[H])C3([H])[H])C1([H])[H]

>  <smiles>  (44) 
[H]C1=C(c2c([H])c([H])c(N([H])C(=O)N3C([H])([H])C([H])([H])C([H])([H])C([H])(n4nc(-c5c([H])c([H])c(Oc6c([H])c([H])c(F)c([H])c6F)c([H])c5[H])c(C(=O)N([H])[H])c4N([H])[H])C3([H])[H])c([H])c2C([H])([H])C([H])([H])[H])C([H])([H])C([H])([H])C([H])(Oc2c([H])c([H])c3c(c2[H])C([H])([H])N(C(=O)C([H])(N([H])C(=O)C([H])(N([H])C([H])([H])[H])C([H])([H])[H])C(C([H])([H])[H])(C([H])([H])[H])C([H])([H])[H])C([H])(C(=O)N([H])C2([H])c4c([H])c([H])c([H])c([H])c4C([H])([H])C([H])([H])C2([H])[H])C3([H])[H])C1([H])[H]

$$$$
45:0:0
     RDKit          3D

 94 97  0  0  1  0  0  0  0  0999 V2000
  -28.1060  -27.8110   17.7480 C   0  0  0  0  0  3  0  0  0  0  0  0
  -28.4860  -26.0050   16.4320 C   0  0  0  0  0  2  0  0  0  0  0  0
  -27.4260  -26.4720   17.4660 C   0  0  0  0  0  3  0  0  0  0  0  0
  -29.7390  -26.5200   17.1560 C   0  0  0  0  0  3  0  0  0  0  0  0
  -27.2620  -29.0500   17.9280 C   0  0  0  0  0  1  0  0  0  0  0  0
  -29.3750  -27.8390   17.6190 N   0  0  0  0  0  2  0  0  0  0  0  0
  -28.1690  -23.0400   18.3530 C   0  0  0  0  0  2  0  0  0  0  0  0
  -27.3950  -25.4550   18.6780 C   0  0  0  0  0  2  0  0  0  0  0  0
  -28.2340  -21.1740   19.6400 C   0  0  0  0  0 15  0  0  0  0  0  0
  -27.4940  -22.8050   21.0980 C   0  0  0  0  0 15  0  0  0  0  0  0
  -26.8420  -25.0620   21.0190 N   0  0  0  0  0  2  0  0  0  0  0  0
  -28.6470  -19.1810   19.7390 N   0  0  0  0  0 15  0  0  0  0  0  0
  -28.4920  -22.7680   17.1930 O   0  0  0  0  0  0  0  0  0  0  0  0
  -29.3540  -17.0250   19.4050 C   0  0  0  0  0  2  0  0  0  0  0  0
  -29.8830  -13.9250   18.6600 C   0  0  0  0  0  2  0  0  0  0  0  0
  -29.1930  -12.7320   17.7590 C   0  0  0  0  0  2  0  0  0  0  0  0
  -28.0930  -11.9400   18.4550 C   0  0  0  0  0  2  0  0  0  0  0  0
  -27.4290  -12.9690   19.3630 C   0  0  0  0  0  3  0  0  0  0  0  0
  -28.3660  -14.0330   20.1850 C   0  0  0  0  0  2  0  0  0  0  0  0
  -29.0870  -15.2530   19.3900 N   0  0  0  0  0  0  0  0  0  0  0  0
  -30.5440  -16.5930   19.0570 O   0  0  0  0  0  1  0  0  0  0  0  0
  -25.2180  -13.2710   20.4570 C   0  0  0  0  0  0  0  0  0  0  0  0
  -24.2300  -12.4700   20.9400 C   0  0  0  0  0  0  0  0  0  0  0  0
  -24.6880  -11.1220   20.7900 C   0  0  0  0  0  0  0  0  0  0  0  0
  -26.2470  -12.4510   20.0720 N   0  0  0  0  0  0  0  0  0  0  0  0
  -25.9400  -11.1250   20.2930 N   0  0  0  0  0  0  0  0  0  0  0  0
  -23.9470   -9.8640   21.0510 C   0  0  0  0  0  0  0  0  0  0  0  0
  -24.4310   -8.8720   21.9340 C   0  0  0  0  0  3  0  0  0  0  0  0
  -23.6730   -7.7070   22.2050 C   0  0  0  0  0  3  0  0  0  0  0  0
  -22.4080   -7.5210   21.5960 C   0  0  0  0  0  0  0  0  0  0  0  0
  -21.9340   -8.4980   20.7030 C   0  0  0  0  0  3  0  0  0  0  0  0
  -22.6940   -9.6520   20.4320 C   0  0  0  0  0  3  0  0  0  0  0  0
  -21.6160   -6.4080   21.7760 O   0  0  0  0  0  0  0  0  0  0  0  0
  -21.6380   -5.6820   22.9400 C   0  0  0  0  0  0  0  0  0  0  0  0
  -21.3170   -6.2640   24.1860 C   0  0  0  0  0  3  0  0  0  0  0  0
  -21.2850   -5.4670   25.3490 C   0  0  0  0  0  3  0  0  0  0  0  0
  -21.5640   -4.0900   25.2690 C   0  0  0  0  0  0  0  0  0  0  0  0
  -21.8760   -3.5060   24.0280 C   0  0  0  0  0  3  0  0  0  0  0  0
  -21.9090   -4.3000   22.8670 C   0  0  0  0  0  0  0  0  0  0  0  0
  -22.1890   -3.7260   21.6720 F   0  0  0  0  0  0  0  0  0  0  0  0
  -21.5280   -3.3230   26.3840 F   0  0  0  0  0  0  0  0  0  0  0  0
  -22.8950  -12.9580   21.4100 C   0  0  0  0  0  0  0  0  0  0  0  0
  -22.2930  -12.2710   22.3710 N   0  0  0  0  0  0  0  0  0  0  0  0
  -22.4100  -14.0000   20.9660 O   0  0  0  0  0  0  0  0  0  0  0  0
  -22.7090  -11.4330   22.7510 H   0  0  0  0  0  0  0  0  0  0  0  0
  -21.4060  -12.5860   22.7380 H   0  0  0  0  0  0  0  0  0  0  0  0
  -25.3170  -14.6450   20.2690 N   0  0  0  0  0  0  0  0  0  0  0  0
  -24.5570  -15.2870   20.4670 H   0  0  0  0  0  0  0  0  0  0  0  0
  -26.1160  -15.0890   19.8360 H   0  0  0  0  0  0  0  0  0  0  0  0
  -31.1900  -26.3160   16.7340 C   0  0  0  0  0  2  0  0  0  0  0  0
  -32.1800  -26.4570   17.9520 C   0  0  0  0  0  2  0  0  0  0  0  0
  -31.8270  -25.8030   19.3440 C   0  0  0  0  0  2  0  0  0  0  0  0
  -31.2170  -26.6240   20.5510 C   0  0  0  0  0  2  0  0  0  0  0  0
  -29.8610  -27.0640   20.4060 O   0  0  0  0  0  0  0  0  0  0  0  0
  -25.3140  -32.5130   23.8100 C   0  0  0  0  0  0  0  0  0  0  0  0
  -28.7600  -26.5730   21.0900 C   0  0  0  0  0  2  0  0  0  0  0  0
  -24.2090  -31.0130   22.1260 C   0  0  0  0  0  3  0  0  0  0  0  0
  -25.5580  -28.8160   20.7480 C   0  0  0  0  0  0  0  0  0  0  0  0
  -26.7660  -30.9510   22.0620 C   0  0  0  0  0  2  0  0  0  0  0  0
  -26.9570  -29.3550   21.4150 C   0  0  0  0  0  0  0  0  0  0  0  0
  -28.4450  -28.4280   21.5300 C   0  0  0  0  0  2  0  0  0  0  0  0
  -26.2890  -25.6600   20.0770 C   0  0  0  0  0  0  0  0  0  0  0  0
  -25.1560  -27.2160   20.1080 C   0  0  0  0  0  2  0  0  0  0  0  0
  -24.4700  -30.0540   20.8280 C   0  0  0  0  0  2  0  0  0  0  0  0
  -25.4700  -31.5670   22.7410 N   0  0  0  0  0  0  0  0  0  0  0  0
  -24.1940  -32.8450   24.2630 O   0  0  0  0  0  0  0  0  0  0  0  0
  -23.3490  -30.2560   23.1690 C   0  0  0  0  0  0  0  0  0  0  0  0
  -22.0350  -30.0490   22.9420 N   0  0  0  0  0  0  0  0  0  0  0  0
  -23.9130  -29.8080   24.1670 O   0  0  0  0  0  0  0  0  0  0  0  0
  -21.6170  -30.4560   22.1160 H   0  0  0  0  0  0  0  0  0  0  0  0
  -18.7840  -28.3970   23.1600 C   0  0  0  0  0  0  0  0  0  0  0  0
  -21.2220  -29.0840   23.6980 C   0  0  0  0  0  3  0  0  0  0  0  0
  -21.5940  -27.6380   23.2900 C   0  0  0  0  0  2  0  0  0  0  0  0
  -20.7080  -27.0850   22.1700 C   0  0  0  0  0  2  0  0  0  0  0  0
  -19.2440  -27.0560   22.6150 C   0  0  0  0  0  2  0  0  0  0  0  0
  -19.7120  -29.3600   23.6460 C   0  0  0  0  0  0  0  0  0  0  0  0
  -19.2220  -30.5980   24.1170 C   0  0  0  0  0  3  0  0  0  0  0  0
  -17.8410  -30.8780   24.1060 C   0  0  0  0  0  3  0  0  0  0  0  0
  -16.9300  -29.9170   23.6340 C   0  0  0  0  0  3  0  0  0  0  0  0
  -17.4020  -28.6780   23.1660 C   0  0  0  0  0  3  0  0  0  0  0  0
  -26.4900  -33.2510   24.5780 C   0  0  0  0  0  3  0  0  0  0  0  0
  -26.1390  -34.6760   24.8930 N   0  0  0  0  0  0  0  0  0  0  0  0
  -26.5890  -35.7770   24.2630 C   0  0  0  0  0  0  0  0  0  0  0  0
  -27.3500  -35.7010   23.2960 O   0  0  0  0  0  0  0  0  0  0  0  0
  -25.4570  -34.8050   25.6260 H   0  0  0  0  0  0  0  0  0  0  0  0
  -24.9430  -37.6710   23.9140 C   0  0  0  0  0  1  0  0  0  0  0  0
  -26.1330  -37.1780   24.7570 C   0  0  0  0  0  3  0  0  0  0  0  0
  -28.2660  -37.9820   25.6940 C   0  0  0  0  0  1  0  0  0  0  0  0
  -27.2000  -38.2100   24.7230 N   0  0  0  0  0  0  0  0  0  0  0  0
  -26.8150  -39.1350   24.8920 H   0  0  0  0  0  0  0  0  0  0  0  0
  -26.8690  -32.5500   25.9490 C   0  0  1  0  0  0  0  0  0  0  0  0
  -25.6690  -32.3500   26.9100 C   0  0  0  0  0  1  0  0  0  0  0  0
  -27.4840  -31.1640   25.6800 C   0  0  0  0  0  1  0  0  0  0  0  0
  -27.9540  -33.3660   26.6990 C   0  0  0  0  0  1  0  0  0  0  0  0
  1  5  1  0
  3  2  1  0
  3  1  1  0
  3  8  1  0
  4  2  1  0
  4  6  1  0
  6  1  1  0
  8 62  1  0
 13  7  2  0
 15 20  1  0
 16 17  1  0
 16 15  1  0
 18 17  1  0
 18 25  1  0
 18 19  1  0
 20 14  1  0
 20 19  1  0
 21 14  1  0
 22 23  2  0
 23 42  1  0
 24 23  1  0
 24 27  1  0
 25 26  1  0
 25 22  1  0
 26 24  2  0
 27 28  1  0
 28 29  2  0
 30 33  1  0
 30 29  1  0
 31 30  2  0
 32 31  1  0
 32 27  2  0
 33 34  1  0
 34 35  1  0
 35 36  2  0
 37 36  1  0
 37 41  1  0
 38 37  2  0
 39 34  2  0
 39 38  1  0
 40 39  1  0
 42 43  1  0
 43 46  1  0
 43 45  1  0
 44 42  2  0
 47 22  1  0
 47 48  1  0
 49 47  1  0
 50  4  1  0
 50 51  1  0
 51 52  1  0
 52 53  1  0
 54 53  1  0
 54 56  1  0
 55 66  2  0
 56 61  1  0
 57 65  1  0
 57 67  1  0
 58 64  1  0
 58 60  2  0
 59 65  1  0
 60 61  1  0
 60 59  1  0
 62 63  1  0
 62 11  2  0
 63 58  1  0
 64 57  1  0
 65 55  1  0
 67 69  2  0
 68 67  1  0
 70 68  1  0
 71 80  2  0
 71 76  1  0
 72 68  1  0
 73 72  1  0
 74 75  1  0
 74 73  1  0
 75 71  1  0
 76 72  1  0
 76 77  2  0
 78 77  1  0
 79 78  2  0
 80 79  1  0
 81 55  1  0
 81 82  1  0
 81 91  1  0
 82 85  1  0
 83 87  1  0
 83 82  1  0
 84 83  2  0
 87 86  1  0
 89 87  1  0
 89 90  1  0
 89 88  1  0
 91 94  1  1
 91 92  1  0
 93 91  1  0
M  ISO  4  12 100  14 100  53 101  54 101
M  END
>  <TORSDO>  (45) 
F 21

>  <SCORE>  (45) 
-9.148

>  <name>  (45) 
45

>  <ligand_id>  (45) 
45

>  <original_smiles>  (45) 
[H]c1c([H])c([H])c2c(c1[H])C([H])([H])C([H])([H])C([H])([H])C2([H])N([H])C(=O)C1([H])N(C(=O)C([H])(N([H])C(=O)C([H])(N([H])C([H])([H])[H])C([H])([H])[H])C(C([H])([H])[H])(C([H])([H])[H])C([H])([H])[H])C([H])([H])c2c([H])c(OC([H])([H])C([H])([H])C([H])([H])C([H])([H])C3([H])N=C(C([H])([H])[H])C([H])(C4=NC([H])([H])C(=NC(=O)N5C([H])([H])C([H])([H])C([H])([H])C([H])(n6nc(-c7c([H])c([H])c(Oc8c([H])c([H])c(F)c([H])c8F)c([H])c7[H])c(C(=O)N([H])[H])c6N([H])[H])C5([H])[H])C4=O)C3([H])[H])c([H])c([H])c2C1([H])[H]

>  <smiles>  (45) 
[H]c1c([H])c([H])c2c(c1[H])C([H])([H])C([H])([H])C([H])([H])C2([H])N([H])C(=O)C1([H])N(C(=O)C([H])(N([H])C(=O)C([H])(N([H])C([H])([H])[H])C([H])([H])[H])C(C([H])([H])[H])(C([H])([H])[H])C([H])([H])[H])C([H])([H])c2c([H])c(OC([H])([H])C([H])([H])C([H])([H])C([H])([H])C3([H])N=C(C([H])([H])[H])C([H])(C4=NC([H])([H])C(=NC(=O)N5C([H])([H])C([H])([H])C([H])([H])C([H])(n6nc(-c7c([H])c([H])c(Oc8c([H])c([H])c(F)c([H])c8F)c([H])c7[H])c(C(=O)N([H])[H])c6N([H])[H])C5([H])[H])C4=O)C3([H])[H])c([H])c([H])c2C1([H])[H]

$$$$
46:0:0
     RDKit          3D

 98107  0  0  1  0  0  0  0  0999 V2000
  -31.7800  -22.0410   20.9020 C   0  0  0  0  0  3  0  0  0  0  0  0
  -30.9430  -21.2960   20.1550 C   0  0  0  0  0  0  0  0  0  0  0  0
  -31.9950  -23.5410   20.7420 C   0  0  0  0  0  2  0  0  0  0  0  0
  -30.1650  -21.9750   19.0300 C   0  0  0  0  0  2  0  0  0  0  0  0
  -30.7270  -23.3650   18.6400 C   0  0  0  0  0  2  0  0  0  0  0  0
  -31.0110  -24.2000   19.8360 N   0  0  2  0  0  4  0  0  0  0  0  0
  -30.1480  -24.2550   20.3590 H   0  0  0  0  0  0  0  0  0  0  0  0
  -32.1170  -19.1220   20.4460 C   0  0  0  0  0  3  0  0  0  0  0  0
  -32.1510  -17.7240   20.6300 C   0  0  0  0  0  3  0  0  0  0  0  0
  -29.7260  -17.6890   20.6630 C   0  0  0  0  0  3  0  0  0  0  0  0
  -30.8920  -19.8210   20.3620 C   0  0  0  0  0  0  0  0  0  0  0  0
  -29.6750  -19.0920   20.4820 C   0  0  0  0  0  0  0  0  0  0  0  0
  -30.9480  -16.9860   20.7410 C   0  0  0  0  0  0  0  0  0  0  0  0
  -31.5430  -14.5740   20.2700 C   0  0  0  0  0  0  0  0  0  0  0  0
  -31.2570  -12.3240   19.2910 C   0  0  0  0  0  2  0  0  0  0  0  0
  -30.3400  -12.4280   18.0540 C   0  0  0  0  0  2  0  0  0  0  0  0
  -28.8540  -12.3470   18.4610 C   0  0  0  0  0  2  0  0  0  0  0  0
  -28.5030  -13.3030   19.6330 C   0  0  0  0  0  3  0  0  0  0  0  0
  -29.5250  -13.1460   20.7800 C   0  0  0  0  0  2  0  0  0  0  0  0
  -30.8730  -13.3890   20.2310 N   0  0  0  0  0  0  0  0  0  0  0  0
  -32.6470  -14.7320   19.7410 O   0  0  0  0  0  0  0  0  0  0  0  0
  -30.8760  -15.5650   20.8960 N   0  0  0  0  0  0  0  0  0  0  0  0
  -30.0700  -15.2340   21.4030 H   0  0  0  0  0  0  0  0  0  0  0  0
  -26.1280  -14.0300   20.3140 C   0  0  0  0  0  0  0  0  0  0  0  0
  -25.0220  -13.3120   20.6790 C   0  0  0  0  0  0  0  0  0  0  0  0
  -25.4180  -11.9390   20.6600 C   0  0  0  0  0  0  0  0  0  0  0  0
  -27.1320  -13.0990   20.0980 N   0  0  0  0  0  0  0  0  0  0  0  0
  -26.7060  -11.8360   20.3610 N   0  0  0  0  0  0  0  0  0  0  0  0
  -24.6320  -10.7140   20.8520 C   0  0  0  0  0  0  0  0  0  0  0  0
  -24.9650   -9.7740   21.8530 C   0  0  0  0  0  3  0  0  0  0  0  0
  -24.1840   -8.6110   22.0310 C   0  0  0  0  0  3  0  0  0  0  0  0
  -23.0560   -8.3810   21.2060 C   0  0  0  0  0  0  0  0  0  0  0  0
  -22.7450   -9.3090   20.1960 C   0  0  0  0  0  3  0  0  0  0  0  0
  -23.5260  -10.4620   20.0180 C   0  0  0  0  0  3  0  0  0  0  0  0
  -22.2540   -7.2680   21.2890 O   0  0  0  0  0  0  0  0  0  0  0  0
  -22.0050   -6.6480   22.4870 C   0  0  0  0  0  0  0  0  0  0  0  0
  -21.4540   -7.3450   23.5860 C   0  0  0  0  0  3  0  0  0  0  0  0
  -21.1480   -6.6540   24.7750 C   0  0  0  0  0  3  0  0  0  0  0  0
  -21.3830   -5.2690   24.8660 C   0  0  0  0  0  0  0  0  0  0  0  0
  -21.9270   -4.5730   23.7720 C   0  0  0  0  0  3  0  0  0  0  0  0
  -22.2340   -5.2610   22.5840 C   0  0  0  0  0  0  0  0  0  0  0  0
  -22.7380   -4.5830   21.5260 F   0  0  0  0  0  0  0  0  0  0  0  0
  -21.0830   -4.6030   26.0060 F   0  0  0  0  0  0  0  0  0  0  0  0
  -23.6460  -13.8550   20.9400 C   0  0  0  0  0  0  0  0  0  0  0  0
  -22.8950  -13.2200   21.8330 N   0  0  0  0  0  0  0  0  0  0  0  0
  -23.2460  -14.8780   20.3860 O   0  0  0  0  0  0  0  0  0  0  0  0
  -23.2270  -12.3910   22.3020 H   0  0  0  0  0  0  0  0  0  0  0  0
  -21.9700  -13.5670   22.0500 H   0  0  0  0  0  0  0  0  0  0  0  0
  -26.3600  -15.3900   20.1310 N   0  0  0  0  0  0  0  0  0  0  0  0
  -25.6240  -16.0820   20.2260 H   0  0  0  0  0  0  0  0  0  0  0  0
  -27.2350  -15.7850   19.8090 H   0  0  0  0  0  0  0  0  0  0  0  0
  -28.3400  -19.7340   20.4470 C   0  0  0  0  0  0  0  0  0  0  0  0
  -27.4880  -19.4620   19.2280 C   0  0  0  0  0  1  0  0  0  0  0  0
  -27.9110  -20.4890   21.3670 N   0  0  0  0  0  0  0  0  0  0  0  0
  -28.5890  -20.5810   22.1170 H   0  0  0  0  0  0  0  0  0  0  0  0
  -31.4300  -25.6020   19.5250 C   0  0  0  0  0  2  0  0  0  0  0  0
  -30.3760  -26.6980   19.8080 C   0  0  0  0  0  2  0  0  0  0  0  0
  -29.5420  -26.8800   18.6650 O   0  0  0  0  0  0  0  0  0  0  0  0
  -25.0760  -30.5980   22.8470 C   0  0  0  0  0  0  0  0  0  0  0  0
  -28.2990  -27.4240   18.8910 C   0  0  0  0  0  0  0  0  0  0  0  0
  -24.0530  -29.3950   20.9400 C   0  0  0  0  0  3  0  0  0  0  0  0
  -25.6880  -28.4570   19.2190 C   0  0  0  0  0  0  0  0  0  0  0  0
  -26.4720  -30.2080   20.8190 C   0  0  0  0  0  2  0  0  0  0  0  0
  -26.7600  -29.0310   19.9130 C   0  0  0  0  0  0  0  0  0  0  0  0
  -28.0680  -28.5200   19.7570 C   0  0  0  0  0  3  0  0  0  0  0  0
  -27.2120  -26.8680   18.1870 C   0  0  0  0  0  3  0  0  0  0  0  0
  -25.9070  -27.3700   18.3560 C   0  0  0  0  0  3  0  0  0  0  0  0
  -24.3200  -29.0630   19.4470 C   0  0  0  0  0  2  0  0  0  0  0  0
  -25.2180  -30.0720   21.5960 N   0  0  0  0  0  0  0  0  0  0  0  0
  -23.9870  -30.5630   23.4360 O   0  0  0  0  0  0  0  0  0  0  0  0
  -23.6140  -28.1000   21.6610 C   0  0  0  0  0  0  0  0  0  0  0  0
  -22.3440  -27.7070   21.4650 N   0  0  0  0  0  0  0  0  0  0  0  0
  -24.4120  -27.4580   22.3490 O   0  0  0  0  0  0  0  0  0  0  0  0
  -21.7520  -28.2930   20.8920 H   0  0  0  0  0  0  0  0  0  0  0  0
  -19.2570  -25.8380   21.6120 C   0  0  0  0  0  0  0  0  0  0  0  0
  -21.7230  -26.5010   22.0090 C   0  0  0  0  0  3  0  0  0  0  0  0
  -22.0870  -25.2590   21.1620 C   0  0  0  0  0  2  0  0  0  0  0  0
  -21.0580  -24.9490   20.0720 C   0  0  0  0  0  2  0  0  0  0  0  0
  -19.6760  -24.7070   20.6890 C   0  0  0  0  0  2  0  0  0  0  0  0
  -20.2170  -26.6900   22.2190 C   0  0  0  0  0  0  0  0  0  0  0  0
  -19.7730  -27.7490   23.0400 C   0  0  0  0  0  3  0  0  0  0  0  0
  -18.3980  -27.9610   23.2620 C   0  0  0  0  0  3  0  0  0  0  0  0
  -17.4520  -27.1050   22.6700 C   0  0  0  0  0  3  0  0  0  0  0  0
  -17.8830  -26.0450   21.8530 C   0  0  0  0  0  3  0  0  0  0  0  0
  -26.2670  -31.2870   23.5850 C   0  0  0  0  0  3  0  0  0  0  0  0
  -26.8940  -30.3930   24.7230 C   0  0  1  0  0  0  0  0  0  0  0  0
  -25.8510  -29.8340   25.7200 C   0  0  0  0  0  1  0  0  0  0  0  0
  -27.6580  -29.1930   24.1150 C   0  0  0  0  0  1  0  0  0  0  0  0
  -27.9280  -31.2150   25.5270 C   0  0  0  0  0  1  0  0  0  0  0  0
  -25.7730  -32.5570   24.1310 N   0  0  0  0  0  0  0  0  0  0  0  0
  -25.9990  -33.7590   23.5830 C   0  0  0  0  0  0  0  0  0  0  0  0
  -26.7150  -33.9200   22.5910 O   0  0  0  0  0  0  0  0  0  0  0  0
  -25.1360  -32.4960   24.9110 H   0  0  0  0  0  0  0  0  0  0  0  0
  -24.0750  -35.3710   23.4290 C   0  0  0  0  0  1  0  0  0  0  0  0
  -25.3210  -34.9760   24.2400 C   0  0  0  0  0  3  0  0  0  0  0  0
  -27.2890  -35.9360   25.3490 C   0  0  0  0  0  1  0  0  0  0  0  0
  -26.2160  -36.1450   24.3810 N   0  0  0  0  0  0  0  0  0  0  0  0
  -25.6920  -36.9690   24.6610 H   0  0  0  0  0  0  0  0  0  0  0  0
  2 11  1  0
  2  1  2  0
  3  1  1  0
  4  2  1  0
  5  4  1  0
  5  6  1  0
  6  7  1  1
  6  3  1  0
  8  9  1  0
  9 13  2  0
 10 13  1  0
 11  8  2  0
 11 12  1  0
 12 10  2  0
 13 22  1  0
 14 22  1  0
 15 20  1  0
 16 17  1  0
 16 15  1  0
 18 17  1  0
 18 27  1  0
 18 19  1  0
 20 14  1  0
 20 19  1  0
 21 14  2  0
 22 23  1  0
 24 25  2  0
 25 44  1  0
 26 25  1  0
 26 29  1  0
 27 24  1  0
 27 28  1  0
 28 26  2  0
 29 30  1  0
 30 31  2  0
 32 35  1  0
 32 31  1  0
 33 32  2  0
 34 33  1  0
 34 29  2  0
 35 36  1  0
 36 41  2  0
 36 37  1  0
 37 38  2  0
 38 39  1  0
 39 43  1  0
 40 39  2  0
 41 40  1  0
 42 41  1  0
 44 45  1  0
 45 48  1  0
 45 47  1  0
 46 44  2  0
 49 50  1  0
 49 24  1  0
 51 49  1  0
 52 12  1  0
 52 54  2  0
 53 52  1  0
 54 55  1  0
 56 57  1  0
 56  6  1  0
 58 60  1  0
 58 57  1  0
 59 70  2  0
 60 65  1  0
 61 69  1  0
 61 71  1  0
 62 68  1  0
 62 64  1  0
 63 69  1  0
 64 63  1  0
 65 64  2  0
 66 67  1  0
 66 60  2  0
 67 62  2  0
 68 61  1  0
 69 59  1  0
 71 73  2  0
 72 71  1  0
 74 72  1  0
 75 84  2  0
 75 80  1  0
 76 72  1  0
 76 80  1  0
 77 76  1  0
 78 79  1  0
 78 77  1  0
 79 75  1  0
 80 81  2  0
 81 82  1  0
 83 82  2  0
 84 83  1  0
 85 59  1  0
 85 90  1  0
 85 86  1  0
 86 89  1  1
 86 87  1  0
 88 86  1  0
 90 93  1  0
 91 90  1  0
 91 95  1  0
 92 91  2  0
 95 94  1  0
 95 97  1  0
 97 98  1  0
 97 96  1  0
M  ISO  4  14 100  22 100  57 101  58 101
M  END
>  <TORSDO>  (46) 
F 20

>  <SCORE>  (46) 
-9.225

>  <name>  (46) 
46

>  <ligand_id>  (46) 
46

>  <original_smiles>  (46) 
[H]N=C(c1c([H])c(N([H])C(=O)N2C([H])([H])C([H])([H])C([H])([H])C([H])(n3nc(-c4c([H])c([H])c(Oc5c([H])c([H])c(F)c([H])c5F)c([H])c4[H])c(C(=O)N([H])[H])c3N([H])[H])C2([H])[H])c([H])c([H])c1C1=C([H])C([H])([H])[N+]([H])(C([H])([H])C([H])([H])Oc2c([H])c([H])c3c(c2[H])C([H])([H])N(C(=O)C([H])(N([H])C(=O)C([H])(N([H])C([H])([H])[H])C([H])([H])[H])C(C([H])([H])[H])(C([H])([H])[H])C([H])([H])[H])C([H])(C(=O)N([H])C2([H])c4c([H])c([H])c([H])c([H])c4C([H])([H])C([H])([H])C2([H])[H])C3([H])[H])C([H])([H])C1([H])[H])C([H])([H])[H]

>  <smiles>  (46) 
[H]N=C(c1c([H])c(N([H])C(=O)N2C([H])([H])C([H])([H])C([H])([H])C([H])(n3nc(-c4c([H])c([H])c(Oc5c([H])c([H])c(F)c([H])c5F)c([H])c4[H])c(C(=O)N([H])[H])c3N([H])[H])C2([H])[H])c([H])c([H])c1C1=C([H])C([H])([H])[N+]([H])(C([H])([H])C([H])([H])Oc2c([H])c([H])c3c(c2[H])C([H])([H])N(C(=O)C([H])(N([H])C(=O)C([H])(N([H])C([H])([H])[H])C([H])([H])[H])C(C([H])([H])[H])(C([H])([H])[H])C([H])([H])[H])C([H])(C(=O)N([H])C2([H])c4c([H])c([H])c([H])c([H])c4C([H])([H])C([H])([H])C2([H])[H])C3([H])[H])C([H])([H])C1([H])[H])C([H])([H])[H]

$$$$
47:0:0
     RDKit          3D

 93103  0  0  1  0  0  0  0  0999 V2000
  -28.7080  -21.0300   19.4800 C   0  0  0  0  0  3  0  0  0  0  0  0
  -30.4000  -21.5180   21.0420 C   0  0  0  0  0  3  0  0  0  0  0  0
  -28.3010  -22.4330   19.5060 C   0  0  0  0  0  3  0  0  0  0  0  0
  -29.9970  -22.9090   21.0600 C   0  0  0  0  0  3  0  0  0  0  0  0
  -29.7640  -20.4760   20.2850 C   0  0  0  0  0  0  0  0  0  0  0  0
  -28.9050  -23.4600   20.3180 C   0  0  0  0  0  0  0  0  0  0  0  0
  -29.9330  -17.7250   19.8110 C   0  0  0  0  0  2  0  0  0  0  0  0
  -30.1970  -18.9390   20.4430 C   0  0  0  0  0  3  0  0  0  0  0  0
  -30.1840  -17.7050   22.6180 C   0  0  0  0  0  2  0  0  0  0  0  0
  -29.8980  -16.3450   21.9200 C   0  0  0  0  0  2  0  0  0  0  0  0
  -31.8250  -17.2370   21.0050 C   0  0  0  0  0  2  0  0  0  0  0  0
  -31.0710  -18.4490   21.6000 C   0  0  0  0  0  3  0  0  0  0  0  0
  -30.5920  -16.4380   20.5350 C   0  0  2  0  0  0  0  0  0  0  0  0
  -31.0780  -14.9780   19.8810 C   0  0  0  0  0  0  0  0  0  0  0  0
  -30.7480  -12.6980   18.8140 C   0  0  0  0  0  2  0  0  0  0  0  0
  -29.7380  -12.7810   17.6450 C   0  0  0  0  0  2  0  0  0  0  0  0
  -28.2930  -12.6240   18.1550 C   0  0  0  0  0  2  0  0  0  0  0  0
  -28.0190  -13.4930   19.4100 C   0  0  0  0  0  3  0  0  0  0  0  0
  -29.1400  -13.3470   20.4560 C   0  0  0  0  0  2  0  0  0  0  0  0
  -30.4000  -13.7550   19.8140 N   0  0  0  0  0  0  0  0  0  0  0  0
  -32.1980  -14.9830   19.3570 O   0  0  0  0  0  0  0  0  0  0  0  0
  -25.7130  -14.1420   20.3150 C   0  0  0  0  0  0  0  0  0  0  0  0
  -24.6460  -13.3980   20.7350 C   0  0  0  0  0  0  0  0  0  0  0  0
  -25.0530  -12.0320   20.6370 C   0  0  0  0  0  0  0  0  0  0  0  0
  -26.7030  -13.2330   19.9810 N   0  0  0  0  0  0  0  0  0  0  0  0
  -26.3180  -11.9550   20.2390 N   0  0  0  0  0  0  0  0  0  0  0  0
  -24.2910  -10.7930   20.8420 C   0  0  0  0  0  0  0  0  0  0  0  0
  -24.6970   -9.8200   21.7810 C   0  0  0  0  0  3  0  0  0  0  0  0
  -23.9350   -8.6480   21.9730 C   0  0  0  0  0  3  0  0  0  0  0  0
  -22.7510   -8.4400   21.2250 C   0  0  0  0  0  0  0  0  0  0  0  0
  -22.3640   -9.4000   20.2740 C   0  0  0  0  0  3  0  0  0  0  0  0
  -23.1270  -10.5640   20.0810 C   0  0  0  0  0  3  0  0  0  0  0  0
  -21.9630   -7.3180   21.3260 O   0  0  0  0  0  0  0  0  0  0  0  0
  -21.8280   -6.6370   22.5090 C   0  0  0  0  0  0  0  0  0  0  0  0
  -21.3530   -7.2660   23.6810 C   0  0  0  0  0  3  0  0  0  0  0  0
  -21.1630   -6.5120   24.8560 C   0  0  0  0  0  3  0  0  0  0  0  0
  -21.4380   -5.1320   24.8600 C   0  0  0  0  0  0  0  0  0  0  0  0
  -21.9050   -4.5030   23.6930 C   0  0  0  0  0  3  0  0  0  0  0  0
  -22.0960   -5.2540   22.5200 C   0  0  0  0  0  0  0  0  0  0  0  0
  -22.5270   -4.6400   21.3920 F   0  0  0  0  0  0  0  0  0  0  0  0
  -21.2490   -4.4060   25.9870 F   0  0  0  0  0  0  0  0  0  0  0  0
  -23.2890  -13.9200   21.1100 C   0  0  0  0  0  0  0  0  0  0  0  0
  -22.6020  -13.2390   22.0200 N   0  0  0  0  0  0  0  0  0  0  0  0
  -22.8520  -14.9660   20.6320 O   0  0  0  0  0  0  0  0  0  0  0  0
  -22.9700  -12.3920   22.4260 H   0  0  0  0  0  0  0  0  0  0  0  0
  -21.6940  -13.5700   22.3160 H   0  0  0  0  0  0  0  0  0  0  0  0
  -25.9210  -15.5100   20.1640 N   0  0  0  0  0  0  0  0  0  0  0  0
  -25.1920  -16.1920   20.3480 H   0  0  0  0  0  0  0  0  0  0  0  0
  -26.7660  -15.9250   19.7930 H   0  0  0  0  0  0  0  0  0  0  0  0
  -28.2430  -24.8670   20.7240 C   0  0  0  0  0  0  0  0  0  0  0  0
  -27.4210  -24.8130   21.6850 N   0  0  0  0  0  0  0  0  0  0  0  0
  -27.3180  -23.8610   22.0180 H   0  0  0  0  0  0  0  0  0  0  0  0
  -28.5210  -26.1760   20.1420 O   0  0  0  0  0  0  0  0  0  0  0  0
  -24.6610  -31.7030   23.1030 C   0  0  0  0  0  0  0  0  0  0  0  0
  -27.4700  -27.1590   20.0690 C   0  0  0  0  0  0  0  0  0  0  0  0
  -23.5420  -30.2750   21.4330 C   0  0  0  0  0  3  0  0  0  0  0  0
  -25.0760  -28.7890   20.0080 C   0  0  0  0  0  0  0  0  0  0  0  0
  -26.0820  -30.6580   21.3050 C   0  0  0  0  0  2  0  0  0  0  0  0
  -26.2240  -29.2800   20.6440 C   0  0  0  0  0  0  0  0  0  0  0  0
  -27.4260  -28.4790   20.6640 C   0  0  0  0  0  3  0  0  0  0  0  0
  -26.3020  -26.7760   19.3730 C   0  0  0  0  0  3  0  0  0  0  0  0
  -25.1250  -27.5490   19.3560 C   0  0  0  0  0  3  0  0  0  0  0  0
  -23.8090  -29.6270   20.0490 C   0  0  0  0  0  2  0  0  0  0  0  0
  -24.7790  -30.9000   22.0020 N   0  0  0  0  0  0  0  0  0  0  0  0
  -23.5570  -31.9350   23.6200 O   0  0  0  0  0  0  0  0  0  0  0  0
  -22.8960  -29.2290   22.3760 C   0  0  0  0  0  0  0  0  0  0  0  0
  -21.5730  -29.0230   22.2480 N   0  0  0  0  0  0  0  0  0  0  0  0
  -23.5870  -28.6060   23.1860 O   0  0  0  0  0  0  0  0  0  0  0  0
  -21.0710  -29.5790   21.5700 H   0  0  0  0  0  0  0  0  0  0  0  0
  -18.2290  -27.7170   22.7260 C   0  0  0  0  0  0  0  0  0  0  0  0
  -20.7790  -28.0510   23.0020 C   0  0  0  0  0  3  0  0  0  0  0  0
  -20.9230  -26.6300   22.4090 C   0  0  0  0  0  2  0  0  0  0  0  0
  -19.8330  -26.2900   21.3860 C   0  0  0  0  0  2  0  0  0  0  0  0
  -18.4460  -26.3850   22.0290 C   0  0  0  0  0  2  0  0  0  0  0  0
  -19.3240  -28.5070   23.1690 C   0  0  0  0  0  0  0  0  0  0  0  0
  -19.0650  -29.7510   23.7810 C   0  0  0  0  0  3  0  0  0  0  0  0
  -17.7450  -30.2090   23.9540 C   0  0  0  0  0  3  0  0  0  0  0  0
  -16.6650  -29.4170   23.5260 C   0  0  0  0  0  3  0  0  0  0  0  0
  -16.9080  -28.1730   22.9190 C   0  0  0  0  0  3  0  0  0  0  0  0
  -25.9050  -32.3850   23.7520 C   0  0  0  0  0  3  0  0  0  0  0  0
  -25.5270  -33.7620   24.1060 N   0  0  0  0  0  0  0  0  0  0  0  0
  -25.8160  -34.8450   23.3730 C   0  0  0  0  0  0  0  0  0  0  0  0
  -26.4980  -34.7950   22.3460 O   0  0  0  0  0  0  0  0  0  0  0  0
  -24.9220  -33.8730   24.9060 H   0  0  0  0  0  0  0  0  0  0  0  0
  -24.0070  -36.5650   23.0530 C   0  0  0  0  0  1  0  0  0  0  0  0
  -25.2650  -36.2020   23.8580 C   0  0  0  0  0  3  0  0  0  0  0  0
  -27.3550  -37.1700   24.7090 C   0  0  0  0  0  1  0  0  0  0  0  0
  -26.2470  -37.3050   23.7670 N   0  0  0  0  0  0  0  0  0  0  0  0
  -25.7980  -38.2010   23.9330 H   0  0  0  0  0  0  0  0  0  0  0  0
  -26.4400  -31.6160   25.0220 C   0  0  1  0  0  0  0  0  0  0  0  0
  -25.3460  -31.3130   26.0730 C   0  0  0  0  0  1  0  0  0  0  0  0
  -27.0900  -30.2730   24.6180 C   0  0  0  0  0  1  0  0  0  0  0  0
  -27.5460  -32.4500   25.7090 C   0  0  0  0  0  1  0  0  0  0  0  0
  1  3  2  0
  1  5  1  0
  2  4  1  0
  3  6  1  0
  5  2  2  0
  6 50  1  0
  6  4  2  0
  7  8  1  0
  7 13  1  0
  8  5  1  0
  8 12  1  0
 10  9  1  0
 12 11  1  0
 12  9  1  0
 13 14  1  6
 13 11  1  0
 13 10  1  0
 15 20  1  0
 16 17  1  0
 16 15  1  0
 18 17  1  0
 18 25  1  0
 18 19  1  0
 20 14  1  0
 20 19  1  0
 21 14  2  0
 22 23  2  0
 23 42  1  0
 24 23  1  0
 24 27  1  0
 25 26  1  0
 25 22  1  0
 26 24  2  0
 27 28  1  0
 28 29  2  0
 30 33  1  0
 30 29  1  0
 31 30  2  0
 32 31  1  0
 32 27  2  0
 33 34  1  0
 34 39  2  0
 34 35  1  0
 35 36  2  0
 36 37  1  0
 37 41  1  0
 38 37  2  0
 39 38  1  0
 40 39  1  0
 42 43  1  0
 43 46  1  0
 43 45  1  0
 44 42  2  0
 47 22  1  0
 47 48  1  0
 49 47  1  0
 50 51  2  0
 51 52  1  0
 53 50  1  0
 54 65  2  0
 55 53  1  0
 55 60  1  0
 56 64  1  0
 56 66  1  0
 57 63  1  0
 57 59  1  0
 58 64  1  0
 59 60  2  0
 59 58  1  0
 61 55  2  0
 62 61  1  0
 62 57  2  0
 63 56  1  0
 64 54  1  0
 66 68  2  0
 67 66  1  0
 69 67  1  0
 70 79  2  0
 70 75  1  0
 71 67  1  0
 71 75  1  0
 72 71  1  0
 73 74  1  0
 73 72  1  0
 74 70  1  0
 75 76  2  0
 76 77  1  0
 78 77  2  0
 79 78  1  0
 80 54  1  0
 80 81  1  0
 80 90  1  0
 81 84  1  0
 82 86  1  0
 82 81  1  0
 83 82  2  0
 86 85  1  0
 88 86  1  0
 88 89  1  0
 88 87  1  0
 90 93  1  1
 90 91  1  0
 92 90  1  0
M  ISO  4  13 100  14 100  50 101  53 101
M  END
>  <TORSDO>  (47) 
F 18

>  <SCORE>  (47) 
-13.656

>  <name>  (47) 
47

>  <ligand_id>  (47) 
47

>  <original_smiles>  (47) 
[H]N=C(Oc1c([H])c([H])c2c(c1[H])C([H])([H])N(C(=O)C([H])(N([H])C(=O)C([H])(N([H])C([H])([H])[H])C([H])([H])[H])C(C([H])([H])[H])(C([H])([H])[H])C([H])([H])[H])C([H])(C(=O)N([H])C1([H])c3c([H])c([H])c([H])c([H])c3C([H])([H])C([H])([H])C1([H])[H])C2([H])[H])c1c([H])c([H])c(C2=C([H])C3(C(=O)N4C([H])([H])C([H])([H])C([H])([H])C([H])(n5nc(-c6c([H])c([H])c(Oc7c([H])c([H])c(F)c([H])c7F)c([H])c6[H])c(C(=O)N([H])[H])c5N([H])[H])C4([H])[H])C([H])([H])C([H])([H])C2([H])C3([H])[H])c([H])c1[H]

>  <smiles>  (47) 
[H]N=C(Oc1c([H])c([H])c2c(c1[H])C([H])([H])N(C(=O)C([H])(N([H])C(=O)C([H])(N([H])C([H])([H])[H])C([H])([H])[H])C(C([H])([H])[H])(C([H])([H])[H])C([H])([H])[H])C([H])(C(=O)N([H])C1([H])c3c([H])c([H])c([H])c([H])c3C([H])([H])C([H])([H])C1([H])[H])C2([H])[H])c1c([H])c([H])c(C2=C([H])C3(C(=O)N4C([H])([H])C([H])([H])C([H])([H])C([H])(n5nc(-c6c([H])c([H])c(Oc7c([H])c([H])c(F)c([H])c7F)c([H])c6[H])c(C(=O)N([H])[H])c5N([H])[H])C4([H])[H])C([H])([H])C([H])([H])C2([H])C3([H])[H])c([H])c1[H]

$$$$
48:0:0
     RDKit          3D

 88 97  0  0  1  0  0  0  0  0999 V2000
  -27.3300  -22.5710   19.8820 C   0  0  0  0  0  2  0  0  0  0  0  0
  -28.7460  -22.0630   19.9810 C   0  0  0  0  0  3  0  0  0  0  0  0
  -28.3150  -23.5870   20.4160 C   0  0  0  0  0  3  0  0  0  0  0  0
  -28.9890  -20.7670   20.9250 C   0  0  0  0  0  2  0  0  0  0  0  0
  -30.6380  -14.8660   20.1670 C   0  0  0  0  0  0  0  0  0  0  0  0
  -30.3410  -12.5810   19.1690 C   0  0  0  0  0  2  0  0  0  0  0  0
  -29.3810  -12.5940   17.9620 C   0  0  0  0  0  2  0  0  0  0  0  0
  -27.9310  -12.4060   18.4360 C   0  0  0  0  0  2  0  0  0  0  0  0
  -27.5740  -13.3220   19.6360 C   0  0  0  0  0  3  0  0  0  0  0  0
  -28.6610  -13.3080   20.7320 C   0  0  0  0  0  2  0  0  0  0  0  0
  -29.9220  -13.6800   20.0820 N   0  0  0  0  0  0  0  0  0  0  0  0
  -31.8340  -14.8080   19.8670 O   0  0  0  0  0  0  0  0  0  0  0  0
  -28.4070  -18.2220   20.3920 C   0  0  0  0  0  3  0  0  0  0  0  0
  -29.3070  -19.2380   20.4910 C   0  0  0  0  0  0  0  0  0  0  0  0
  -28.7080  -16.6790   20.1980 C   0  0  0  0  0  2  0  0  0  0  0  0
  -30.7510  -18.7320   20.4450 C   0  0  0  0  0  3  0  0  0  0  0  0
  -30.9660  -17.2480   20.9770 C   0  0  0  0  0  3  0  0  0  0  0  0
  -30.0840  -16.1390   20.4740 N   0  0  0  0  0  0  0  0  0  0  0  0
  -25.2100  -13.9130   20.4200 C   0  0  0  0  0  0  0  0  0  0  0  0
  -24.1530  -13.1400   20.8140 C   0  0  0  0  0  0  0  0  0  0  0  0
  -24.6150  -11.7890   20.7770 C   0  0  0  0  0  0  0  0  0  0  0  0
  -26.2480  -13.0330   20.1660 N   0  0  0  0  0  0  0  0  0  0  0  0
  -25.8990  -11.7510   20.4460 N   0  0  0  0  0  0  0  0  0  0  0  0
  -23.8910  -10.5280   20.9810 C   0  0  0  0  0  0  0  0  0  0  0  0
  -24.3400   -9.5600   21.9060 C   0  0  0  0  0  3  0  0  0  0  0  0
  -23.6150   -8.3650   22.1000 C   0  0  0  0  0  3  0  0  0  0  0  0
  -22.4270   -8.1300   21.3690 C   0  0  0  0  0  0  0  0  0  0  0  0
  -21.9950   -9.0880   20.4330 C   0  0  0  0  0  3  0  0  0  0  0  0
  -22.7220  -10.2740   20.2370 C   0  0  0  0  0  3  0  0  0  0  0  0
  -21.6700   -6.9870   21.4730 O   0  0  0  0  0  0  0  0  0  0  0  0
  -21.6460   -6.2430   22.6250 C   0  0  0  0  0  0  0  0  0  0  0  0
  -21.2520   -6.7990   23.8610 C   0  0  0  0  0  3  0  0  0  0  0  0
  -21.1720   -5.9820   25.0070 C   0  0  0  0  0  3  0  0  0  0  0  0
  -21.4780   -4.6110   24.9170 C   0  0  0  0  0  0  0  0  0  0  0  0
  -21.8660   -4.0550   23.6850 C   0  0  0  0  0  3  0  0  0  0  0  0
  -21.9460   -4.8690   22.5420 C   0  0  0  0  0  0  0  0  0  0  0  0
  -22.3000   -4.3240   21.3530 F   0  0  0  0  0  0  0  0  0  0  0  0
  -21.3960   -3.8240   26.0150 F   0  0  0  0  0  0  0  0  0  0  0  0
  -22.7620  -13.6200   21.1080 C   0  0  0  0  0  0  0  0  0  0  0  0
  -22.0500  -12.9300   21.9910 N   0  0  0  0  0  0  0  0  0  0  0  0
  -22.3150  -14.6430   20.5890 O   0  0  0  0  0  0  0  0  0  0  0  0
  -22.4260  -12.1020   22.4320 H   0  0  0  0  0  0  0  0  0  0  0  0
  -21.1160  -13.2300   22.2300 H   0  0  0  0  0  0  0  0  0  0  0  0
  -25.3650  -15.2830   20.2320 N   0  0  0  0  0  0  0  0  0  0  0  0
  -24.5930  -15.9290   20.3540 H   0  0  0  0  0  0  0  0  0  0  0  0
  -26.1990  -15.7260   19.8710 H   0  0  0  0  0  0  0  0  0  0  0  0
  -28.3750  -25.0010   19.6170 C   0  0  0  0  0  2  0  0  0  0  0  0
  -28.2940  -26.3950   20.2170 O   0  0  0  0  0  0  0  0  0  0  0  0
  -24.6100  -31.8880   23.2260 C   0  0  0  0  0  0  0  0  0  0  0  0
  -27.1800  -27.2720   20.1400 C   0  0  0  0  0  0  0  0  0  0  0  0
  -23.3930  -30.4950   21.5940 C   0  0  0  0  0  3  0  0  0  0  0  0
  -24.8280  -28.9420   20.1440 C   0  0  0  0  0  0  0  0  0  0  0  0
  -25.9340  -30.7960   21.3920 C   0  0  0  0  0  2  0  0  0  0  0  0
  -26.0040  -29.4120   20.7380 C   0  0  0  0  0  0  0  0  0  0  0  0
  -27.1780  -28.5900   20.7240 C   0  0  0  0  0  3  0  0  0  0  0  0
  -25.9740  -26.8710   19.5240 C   0  0  0  0  0  3  0  0  0  0  0  0
  -24.8200  -27.6810   19.5250 C   0  0  0  0  0  3  0  0  0  0  0  0
  -23.5950  -29.8250   20.2080 C   0  0  0  0  0  2  0  0  0  0  0  0
  -24.6660  -31.0800   22.1270 N   0  0  0  0  0  0  0  0  0  0  0  0
  -23.5310  -32.1640   23.7710 O   0  0  0  0  0  0  0  0  0  0  0  0
  -22.7360  -29.4760   22.5580 C   0  0  0  0  0  0  0  0  0  0  0  0
  -21.4080  -29.2980   22.4420 N   0  0  0  0  0  0  0  0  0  0  0  0
  -23.4210  -28.8530   23.3750 O   0  0  0  0  0  0  0  0  0  0  0  0
  -20.9140  -29.8520   21.7560 H   0  0  0  0  0  0  0  0  0  0  0  0
  -18.0400  -28.0770   22.9550 C   0  0  0  0  0  0  0  0  0  0  0  0
  -20.5970  -28.3570   23.2190 C   0  0  0  0  0  3  0  0  0  0  0  0
  -20.7090  -26.9240   22.6490 C   0  0  0  0  0  2  0  0  0  0  0  0
  -19.6080  -26.5900   21.6380 C   0  0  0  0  0  2  0  0  0  0  0  0
  -18.2260  -26.7270   22.2840 C   0  0  0  0  0  2  0  0  0  0  0  0
  -19.1530  -28.8480   23.3810 C   0  0  0  0  0  0  0  0  0  0  0  0
  -18.9240  -30.1100   23.9710 C   0  0  0  0  0  3  0  0  0  0  0  0
  -17.6170  -30.6020   24.1370 C   0  0  0  0  0  3  0  0  0  0  0  0
  -16.5170  -29.8270   23.7280 C   0  0  0  0  0  3  0  0  0  0  0  0
  -16.7310  -28.5660   23.1420 C   0  0  0  0  0  3  0  0  0  0  0  0
  -25.8960  -32.5210   23.8410 C   0  0  0  0  0  3  0  0  0  0  0  0
  -25.5870  -33.9180   24.1800 N   0  0  0  0  0  0  0  0  0  0  0  0
  -25.9120  -34.9760   23.4260 C   0  0  0  0  0  0  0  0  0  0  0  0
  -26.5730  -34.8790   22.3870 O   0  0  0  0  0  0  0  0  0  0  0  0
  -24.9990  -34.0670   24.9860 H   0  0  0  0  0  0  0  0  0  0  0  0
  -24.1790  -36.7700   23.1000 C   0  0  0  0  0  1  0  0  0  0  0  0
  -25.4300  -36.3630   23.8960 C   0  0  0  0  0  3  0  0  0  0  0  0
  -27.5730  -37.2440   24.7060 C   0  0  0  0  0  1  0  0  0  0  0  0
  -26.4600  -37.4170   23.7770 N   0  0  0  0  0  0  0  0  0  0  0  0
  -26.0550  -38.3360   23.9350 H   0  0  0  0  0  0  0  0  0  0  0  0
  -26.4220  -31.7480   25.1130 C   0  0  1  0  0  0  0  0  0  0  0  0
  -25.3380  -31.5130   26.1890 C   0  0  0  0  0  1  0  0  0  0  0  0
  -26.9990  -30.3710   24.7170 C   0  0  0  0  0  1  0  0  0  0  0  0
  -27.5790  -32.5410   25.7660 C   0  0  0  0  0  1  0  0  0  0  0  0
  1  2  1  0
  1  3  1  0
  2  3  1  0
  2  4  1  0
  3 47  1  0
  5 18  1  0
  6 11  1  0
  7  8  1  0
  7  6  1  0
  9  8  1  0
  9 22  1  0
  9 10  1  0
 11  5  1  0
 11 10  1  0
 12  5  2  0
 13 14  2  0
 14  4  1  0
 15 13  1  0
 15 18  1  0
 16 14  1  0
 16 17  2  0
 18 17  1  0
 19 20  2  0
 20 39  1  0
 21 20  1  0
 21 24  1  0
 22 19  1  0
 22 23  1  0
 23 21  2  0
 24 25  1  0
 25 26  2  0
 27 30  1  0
 27 26  1  0
 28 27  2  0
 29 28  1  0
 29 24  2  0
 30 31  1  0
 31 32  1  0
 32 33  2  0
 34 33  1  0
 34 38  1  0
 35 34  2  0
 36 31  2  0
 36 35  1  0
 37 36  1  0
 39 40  1  0
 40 43  1  0
 40 42  1  0
 41 39  2  0
 44 45  1  0
 44 19  1  0
 46 44  1  0
 47 48  1  0
 49 60  2  0
 50 48  1  0
 50 55  1  0
 51 59  1  0
 51 61  1  0
 52 58  1  0
 52 54  1  0
 53 59  1  0
 54 53  1  0
 55 54  2  0
 56 57  1  0
 56 50  2  0
 57 52  2  0
 58 51  1  0
 59 49  1  0
 61 63  2  0
 62 61  1  0
 64 62  1  0
 65 74  2  0
 65 70  1  0
 66 62  1  0
 66 70  1  0
 67 66  1  0
 68 69  1  0
 68 67  1  0
 69 65  1  0
 70 71  2  0
 71 72  1  0
 73 72  2  0
 74 73  1  0
 75 49  1  0
 75 76  1  0
 75 85  1  0
 76 79  1  0
 77 81  1  0
 77 76  1  0
 78 77  2  0
 81 80  1  0
 83 81  1  0
 83 84  1  0
 83 82  1  0
 85 88  1  1
 85 86  1  0
 87 85  1  0
M  ISO  4   5 100  18 100  47 101  48 101
M  END
>  <TORSDO>  (48) 
F 18

>  <SCORE>  (48) 
-14.769

>  <name>  (48) 
48

>  <ligand_id>  (48) 
48

>  <original_smiles>  (48) 
[H]C1=C(C([H])([H])C2([H])C([H])([H])C2([H])C([H])([H])Oc2c([H])c([H])c3c(c2[H])C([H])([H])N(C(=O)C([H])(N([H])C(=O)C([H])(N([H])C([H])([H])[H])C([H])([H])[H])C(C([H])([H])[H])(C([H])([H])[H])C([H])([H])[H])C([H])(C(=O)N([H])C2([H])c4c([H])c([H])c([H])c([H])c4C([H])([H])C([H])([H])C2([H])[H])C3([H])[H])C([H])([H])C([H])([H])N(C(=O)N2C([H])([H])C([H])([H])C([H])([H])C([H])(n3nc(-c4c([H])c([H])c(Oc5c([H])c([H])c(F)c([H])c5F)c([H])c4[H])c(C(=O)N([H])[H])c3N([H])[H])C2([H])[H])C1([H])[H]

>  <smiles>  (48) 
[H]C1=C(C([H])([H])C2([H])C([H])([H])C2([H])C([H])([H])Oc2c([H])c([H])c3c(c2[H])C([H])([H])N(C(=O)C([H])(N([H])C(=O)C([H])(N([H])C([H])([H])[H])C([H])([H])[H])C(C([H])([H])[H])(C([H])([H])[H])C([H])([H])[H])C([H])(C(=O)N([H])C2([H])c4c([H])c([H])c([H])c([H])c4C([H])([H])C([H])([H])C2([H])[H])C3([H])[H])C([H])([H])C([H])([H])N(C(=O)N2C([H])([H])C([H])([H])C([H])([H])C([H])(n3nc(-c4c([H])c([H])c(Oc5c([H])c([H])c(F)c([H])c5F)c([H])c4[H])c(C(=O)N([H])[H])c3N([H])[H])C2([H])[H])C1([H])[H]

$$$$
49:0:0
     RDKit          3D

 87 95  0  0  1  0  0  0  0  0999 V2000
  -29.6490  -21.3060   19.6530 C   0  0  0  0  0  2  0  0  0  0  0  0
  -27.3750  -18.5950   20.7910 C   0  0  0  0  0  2  0  0  0  0  0  0
  -27.7190  -19.7260   20.0080 C   0  0  0  0  0  2  0  0  0  0  0  0
  -28.4490  -17.8250   20.9620 C   0  0  0  0  0  2  0  0  0  0  0  0
  -29.0230  -19.7010   19.7160 C   0  0  0  0  0  3  0  0  0  0  0  0
  -29.6830  -18.1070   20.0980 C   0  0  0  0  0  3  0  0  0  0  0  0
  -30.3670  -15.2750   19.5180 C   0  0  0  0  0  0  0  0  0  0  0  0
  -30.2300  -12.8610   18.5910 C   0  0  0  0  0  2  0  0  0  0  0  0
  -29.1370  -12.6740   17.5100 C   0  0  0  0  0  2  0  0  0  0  0  0
  -27.7650  -12.3990   18.1560 C   0  0  0  0  0  2  0  0  0  0  0  0
  -27.4800  -13.3460   19.3490 C   0  0  0  0  0  3  0  0  0  0  0  0
  -28.6820  -13.4680   20.3070 C   0  0  0  0  0  2  0  0  0  0  0  0
  -29.8010  -13.9780   19.5000 N   0  0  0  0  0  0  0  0  0  0  0  0
  -31.5680  -15.3020   19.2130 O   0  0  0  0  0  0  0  0  0  0  0  0
  -29.5690  -16.5070   19.6630 N   0  0  0  0  0  0  0  0  0  0  0  0
  -28.5960  -16.2430   19.6560 H   0  0  0  0  0  0  0  0  0  0  0  0
  -25.2460  -13.8890   20.4540 C   0  0  0  0  0  0  0  0  0  0  0  0
  -24.2470  -13.1020   20.9530 C   0  0  0  0  0  0  0  0  0  0  0  0
  -24.7020  -11.7530   20.8240 C   0  0  0  0  0  0  0  0  0  0  0  0
  -26.2410  -13.0200   20.0400 N   0  0  0  0  0  0  0  0  0  0  0  0
  -25.9360  -11.7290   20.3300 N   0  0  0  0  0  0  0  0  0  0  0  0
  -24.0080  -10.4860   21.0850 C   0  0  0  0  0  0  0  0  0  0  0  0
  -24.4900   -9.5600   22.0370 C   0  0  0  0  0  3  0  0  0  0  0  0
  -23.7920   -8.3580   22.2840 C   0  0  0  0  0  3  0  0  0  0  0  0
  -22.5970   -8.0740   21.5810 C   0  0  0  0  0  0  0  0  0  0  0  0
  -22.1330   -8.9870   20.6190 C   0  0  0  0  0  3  0  0  0  0  0  0
  -22.8330  -10.1800   20.3690 C   0  0  0  0  0  3  0  0  0  0  0  0
  -21.8650   -6.9210   21.7380 O   0  0  0  0  0  0  0  0  0  0  0  0
  -21.7470   -6.3050   22.9580 C   0  0  0  0  0  0  0  0  0  0  0  0
  -21.1910   -6.9640   24.0760 C   0  0  0  0  0  3  0  0  0  0  0  0
  -21.0240   -6.2700   25.2910 C   0  0  0  0  0  3  0  0  0  0  0  0
  -21.4030   -4.9190   25.3900 C   0  0  0  0  0  0  0  0  0  0  0  0
  -21.9510   -4.2590   24.2760 C   0  0  0  0  0  3  0  0  0  0  0  0
  -22.1200   -4.9490   23.0630 C   0  0  0  0  0  0  0  0  0  0  0  0
  -22.6290   -4.3020   21.9870 F   0  0  0  0  0  0  0  0  0  0  0  0
  -21.2350   -4.2500   26.5540 F   0  0  0  0  0  0  0  0  0  0  0  0
  -22.9020  -13.5700   21.4270 C   0  0  0  0  0  0  0  0  0  0  0  0
  -22.3140  -12.8680   22.3890 N   0  0  0  0  0  0  0  0  0  0  0  0
  -22.3880  -14.5930   20.9760 O   0  0  0  0  0  0  0  0  0  0  0  0
  -22.7480  -12.0420   22.7720 H   0  0  0  0  0  0  0  0  0  0  0  0
  -21.4180  -13.1640   22.7490 H   0  0  0  0  0  0  0  0  0  0  0  0
  -25.3790  -15.2630   20.2870 N   0  0  0  0  0  0  0  0  0  0  0  0
  -24.6330  -15.9060   20.5280 H   0  0  0  0  0  0  0  0  0  0  0  0
  -26.1600  -15.7200   19.8370 H   0  0  0  0  0  0  0  0  0  0  0  0
  -28.9020  -22.8910   19.2660 C   0  0  0  0  0  2  0  0  0  0  0  0
  -28.7740  -24.4790   20.0730 C   0  0  0  0  0  2  0  0  0  0  0  0
  -28.6910  -26.0650   19.6800 O   0  0  0  0  0  0  0  0  0  0  0  0
  -24.6980  -31.5620   22.9780 C   0  0  0  0  0  0  0  0  0  0  0  0
  -27.5730  -27.0290   19.7730 C   0  0  0  0  0  0  0  0  0  0  0  0
  -23.6040  -30.1780   21.2610 C   0  0  0  0  0  3  0  0  0  0  0  0
  -25.1580  -28.7330   19.7880 C   0  0  0  0  0  0  0  0  0  0  0  0
  -26.1500  -30.5630   21.1480 C   0  0  0  0  0  2  0  0  0  0  0  0
  -26.3120  -29.1940   20.4330 C   0  0  0  0  0  0  0  0  0  0  0  0
  -27.5180  -28.3670   20.3940 C   0  0  0  0  0  3  0  0  0  0  0  0
  -26.3760  -26.6990   19.1030 C   0  0  0  0  0  3  0  0  0  0  0  0
  -25.2100  -27.5060   19.1060 C   0  0  0  0  0  3  0  0  0  0  0  0
  -23.8840  -29.5740   19.8590 C   0  0  0  0  0  2  0  0  0  0  0  0
  -24.8360  -30.7930   21.8510 N   0  0  0  0  0  0  0  0  0  0  0  0
  -23.5890  -31.7580   23.5020 O   0  0  0  0  0  0  0  0  0  0  0  0
  -22.9660  -29.0950   22.1700 C   0  0  0  0  0  0  0  0  0  0  0  0
  -21.6550  -28.8370   22.0030 N   0  0  0  0  0  0  0  0  0  0  0  0
  -23.6570  -28.4880   22.9920 O   0  0  0  0  0  0  0  0  0  0  0  0
  -21.1470  -29.3830   21.3210 H   0  0  0  0  0  0  0  0  0  0  0  0
  -18.3540  -27.3900   22.4000 C   0  0  0  0  0  0  0  0  0  0  0  0
  -20.8870  -27.8110   22.7160 C   0  0  0  0  0  3  0  0  0  0  0  0
  -21.0910  -26.4190   22.0760 C   0  0  0  0  0  2  0  0  0  0  0  0
  -20.0260  -26.0730   21.0310 C   0  0  0  0  0  2  0  0  0  0  0  0
  -18.6300  -26.0910   21.6600 C   0  0  0  0  0  2  0  0  0  0  0  0
  -19.4130  -28.2050   22.8820 C   0  0  0  0  0  0  0  0  0  0  0  0
  -19.0990  -29.4160   23.5360 C   0  0  0  0  0  3  0  0  0  0  0  0
  -17.7610  -29.8150   23.7110 C   0  0  0  0  0  3  0  0  0  0  0  0
  -16.7170  -28.9980   23.2440 C   0  0  0  0  0  3  0  0  0  0  0  0
  -17.0140  -27.7860   22.5950 C   0  0  0  0  0  3  0  0  0  0  0  0
  -25.9230  -32.2480   23.6550 C   0  0  0  0  0  3  0  0  0  0  0  0
  -26.4410  -31.4710   24.9290 C   0  0  1  0  0  0  0  0  0  0  0  0
  -25.3310  -31.1490   25.9580 C   0  0  0  0  0  1  0  0  0  0  0  0
  -27.1080  -30.1350   24.5280 C   0  0  0  0  0  1  0  0  0  0  0  0
  -27.5280  -32.3060   25.6460 C   0  0  0  0  0  1  0  0  0  0  0  0
  -25.5290  -33.6180   24.0230 N   0  0  0  0  0  0  0  0  0  0  0  0
  -25.8110  -34.7160   23.3090 C   0  0  0  0  0  0  0  0  0  0  0  0
  -26.4930  -34.6840   22.2820 O   0  0  0  0  0  0  0  0  0  0  0  0
  -24.9190  -33.7120   24.8220 H   0  0  0  0  0  0  0  0  0  0  0  0
  -23.9830  -36.4250   23.0210 C   0  0  0  0  0  1  0  0  0  0  0  0
  -25.2510  -36.0630   23.8120 C   0  0  0  0  0  3  0  0  0  0  0  0
  -27.3280  -37.0530   24.6710 C   0  0  0  0  0  1  0  0  0  0  0  0
  -26.2220  -37.1760   23.7260 N   0  0  0  0  0  0  0  0  0  0  0  0
  -25.7630  -38.0680   23.8870 H   0  0  0  0  0  0  0  0  0  0  0  0
  2  4  1  0
  3  2  1  0
  5  1  1  0
  5  3  1  0
  5  6  1  0
  6 15  1  0
  6  4  1  0
  7 15  1  0
  8 13  1  0
  9 10  1  0
  9  8  1  0
 11 10  1  0
 11 20  1  0
 11 12  1  0
 13  7  1  0
 13 12  1  0
 14  7  2  0
 16 15  1  0
 17 18  2  0
 18 37  1  0
 19 18  1  0
 19 22  1  0
 20 21  1  0
 20 17  1  0
 21 19  2  0
 22 23  1  0
 23 24  2  0
 25 28  1  0
 25 24  1  0
 26 25  2  0
 27 26  1  0
 27 22  2  0
 28 29  1  0
 29 34  2  0
 29 30  1  0
 30 31  2  0
 31 32  1  0
 32 36  1  0
 33 32  2  0
 34 33  1  0
 35 34  1  0
 37 38  1  0
 38 41  1  0
 38 40  1  0
 39 37  2  0
 42 17  1  0
 42 43  1  0
 44 42  1  0
 45  1  1  0
 45 46  1  0
 47 49  1  0
 47 46  1  0
 48 59  2  0
 49 54  1  0
 50 58  1  0
 50 60  1  0
 51 57  1  0
 51 53  1  0
 52 58  1  0
 53 52  1  0
 54 53  2  0
 55 56  1  0
 55 49  2  0
 56 51  2  0
 57 50  1  0
 58 48  1  0
 60 62  2  0
 61 60  1  0
 63 61  1  0
 64 73  2  0
 64 69  1  0
 65 61  1  0
 65 69  1  0
 66 65  1  0
 67 68  1  0
 67 66  1  0
 68 64  1  0
 69 70  2  0
 70 71  1  0
 72 71  2  0
 73 72  1  0
 74 48  1  0
 74 79  1  0
 74 75  1  0
 75 78  1  1
 75 76  1  0
 77 75  1  0
 79 82  1  0
 80 84  1  0
 80 79  1  0
 81 80  2  0
 84 83  1  0
 86 84  1  0
 86 87  1  0
 86 85  1  0
M  ISO  4   7 100  15 100  46 101  47 101
M  END
>  <TORSDO>  (49) 
F 19

>  <SCORE>  (49) 
-12.139

>  <name>  (49) 
49

>  <ligand_id>  (49) 
49

>  <original_smiles>  (49) 
[H]C1=C([H])C([H])(N([H])C(=O)N2C([H])([H])C([H])([H])C([H])([H])C([H])(n3nc(-c4c([H])c([H])c(Oc5c([H])c([H])c(F)c([H])c5F)c([H])c4[H])c(C(=O)N([H])[H])c3N([H])[H])C2([H])[H])C(C([H])([H])C([H])([H])C([H])([H])Oc2c([H])c([H])c3c(c2[H])C([H])([H])N(C(=O)C([H])(N([H])C(=O)C([H])(N([H])C([H])([H])[H])C([H])([H])[H])C(C([H])([H])[H])(C([H])([H])[H])C([H])([H])[H])C([H])(C(=O)N([H])C2([H])c4c([H])c([H])c([H])c([H])c4C([H])([H])C([H])([H])C2([H])[H])C3([H])[H])=C1[H]

>  <smiles>  (49) 
[H]C1=C([H])C([H])(N([H])C(=O)N2C([H])([H])C([H])([H])C([H])([H])C([H])(n3nc(-c4c([H])c([H])c(Oc5c([H])c([H])c(F)c([H])c5F)c([H])c4[H])c(C(=O)N([H])[H])c3N([H])[H])C2([H])[H])C(C([H])([H])C([H])([H])C([H])([H])Oc2c([H])c([H])c3c(c2[H])C([H])([H])N(C(=O)C([H])(N([H])C(=O)C([H])(N([H])C([H])([H])[H])C([H])([H])[H])C(C([H])([H])[H])(C([H])([H])[H])C([H])([H])[H])C([H])(C(=O)N([H])C2([H])c4c([H])c([H])c([H])c([H])c4C([H])([H])C([H])([H])C2([H])[H])C3([H])[H])=C1[H]

$$$$
50:0:0
     RDKit          3D

 97106  0  0  1  0  0  0  0  0999 V2000
  -30.0860  -22.0890   21.0780 C   0  0  0  0  0  3  0  0  0  0  0  0
  -28.4140  -21.6640   19.4480 C   0  0  0  0  0  3  0  0  0  0  0  0
  -29.8620  -23.5150   20.9400 C   0  0  0  0  0  3  0  0  0  0  0  0
  -28.2030  -23.0780   19.3050 C   0  0  0  0  0  3  0  0  0  0  0  0
  -29.4030  -21.0960   20.3010 C   0  0  0  0  0  0  0  0  0  0  0  0
  -28.9270  -24.0840   20.0170 C   0  0  0  0  0  0  0  0  0  0  0  0
  -30.9580  -15.1710   20.4560 C   0  0  0  0  0  0  0  0  0  0  0  0
  -30.7570  -12.8940   19.4370 C   0  0  0  0  0  2  0  0  0  0  0  0
  -29.8530  -12.9480   18.1880 C   0  0  0  0  0  2  0  0  0  0  0  0
  -28.3780  -12.7590   18.5870 C   0  0  0  0  0  2  0  0  0  0  0  0
  -27.9650  -13.6480   19.7910 C   0  0  0  0  0  3  0  0  0  0  0  0
  -28.9990  -13.6060   20.9350 C   0  0  0  0  0  2  0  0  0  0  0  0
  -30.2970  -13.9640   20.3550 N   0  0  0  0  0  0  0  0  0  0  0  0
  -32.1720  -15.1950   20.2240 O   0  0  0  0  0  0  0  0  0  0  0  0
  -30.0680  -18.8710   21.4610 C   0  0  0  0  0  3  0  0  0  0  0  0
  -29.6600  -19.5400   20.3490 C   0  0  0  0  0  0  0  0  0  0  0  0
  -30.3630  -17.3320   21.6300 C   0  0  0  0  0  2  0  0  0  0  0  0
  -30.2970  -17.1940   19.2150 C   0  0  0  0  0  2  0  0  0  0  0  0
  -29.5690  -18.6120   19.1100 C   0  0  0  0  0  3  0  0  0  0  0  0
  -30.2460  -16.3860   20.4680 N   0  0  0  0  0  0  0  0  0  0  0  0
  -25.5590  -14.2070   20.4720 C   0  0  0  0  0  0  0  0  0  0  0  0
  -24.4920  -13.4200   20.8100 C   0  0  0  0  0  0  0  0  0  0  0  0
  -24.9700  -12.0740   20.7890 C   0  0  0  0  0  0  0  0  0  0  0  0
  -26.6170  -13.3390   20.2570 N   0  0  0  0  0  0  0  0  0  0  0  0
  -26.2690  -12.0510   20.5140 N   0  0  0  0  0  0  0  0  0  0  0  0
  -24.2500  -10.8040   20.9570 C   0  0  0  0  0  0  0  0  0  0  0  0
  -24.6410   -9.8550   21.9280 C   0  0  0  0  0  3  0  0  0  0  0  0
  -23.9200   -8.6510   22.0830 C   0  0  0  0  0  3  0  0  0  0  0  0
  -22.7940   -8.3880   21.2670 C   0  0  0  0  0  0  0  0  0  0  0  0
  -22.4220   -9.3260   20.2880 C   0  0  0  0  0  3  0  0  0  0  0  0
  -23.1440  -10.5210   20.1310 C   0  0  0  0  0  3  0  0  0  0  0  0
  -22.0480   -7.2350   21.3300 O   0  0  0  0  0  0  0  0  0  0  0  0
  -21.8920   -6.5420   22.5040 C   0  0  0  0  0  0  0  0  0  0  0  0
  -21.2960   -7.1280   23.6420 C   0  0  0  0  0  3  0  0  0  0  0  0
  -21.0930   -6.3590   24.8040 C   0  0  0  0  0  3  0  0  0  0  0  0
  -21.4730   -5.0030   24.8280 C   0  0  0  0  0  0  0  0  0  0  0  0
  -22.0590   -4.4160   23.6930 C   0  0  0  0  0  3  0  0  0  0  0  0
  -22.2640   -5.1830   22.5340 C   0  0  0  0  0  0  0  0  0  0  0  0
  -22.8110   -4.6060   21.4360 F   0  0  0  0  0  0  0  0  0  0  0  0
  -21.2700   -4.2610   25.9430 F   0  0  0  0  0  0  0  0  0  0  0  0
  -23.0840  -13.8840   21.0450 C   0  0  0  0  0  0  0  0  0  0  0  0
  -22.3500  -13.2000   21.9170 N   0  0  0  0  0  0  0  0  0  0  0  0
  -22.6420  -14.8890   20.4910 O   0  0  0  0  0  0  0  0  0  0  0  0
  -22.7210  -12.3890   22.3890 H   0  0  0  0  0  0  0  0  0  0  0  0
  -21.4060  -13.4950   22.1160 H   0  0  0  0  0  0  0  0  0  0  0  0
  -25.7170  -15.5800   20.3040 N   0  0  0  0  0  0  0  0  0  0  0  0
  -24.9470  -16.2320   20.4090 H   0  0  0  0  0  0  0  0  0  0  0  0
  -26.5840  -16.0260   20.0330 H   0  0  0  0  0  0  0  0  0  0  0  0
  -30.0680  -19.3110   17.8180 C   0  0  0  0  0  2  0  0  0  0  0  0
  -30.6270  -18.0940   15.7000 C   0  0  0  0  0  2  0  0  0  0  0  0
  -29.6920  -18.5840   16.5320 C   0  0  0  0  0  0  0  0  0  0  0  0
  -27.5110  -19.7880   16.0170 C   0  0  0  0  0  1  0  0  0  0  0  0
  -28.2090  -18.4380   16.2320 C   0  0  0  0  0  2  0  0  0  0  0  0
  -28.8030  -25.5920   19.5670 C   0  0  0  0  0  0  0  0  0  0  0  0
  -28.9100  -25.8670   18.3350 N   0  0  0  0  0  0  0  0  0  0  0  0
  -29.0810  -25.0260   17.7920 H   0  0  0  0  0  0  0  0  0  0  0  0
  -28.5600  -26.6720   20.4730 O   0  0  0  0  0  0  0  0  0  0  0  0
  -24.6330  -32.0780   23.3820 C   0  0  0  0  0  0  0  0  0  0  0  0
  -27.4620  -27.5740   20.3440 C   0  0  0  0  0  0  0  0  0  0  0  0
  -23.5190  -30.6530   21.7090 C   0  0  0  0  0  3  0  0  0  0  0  0
  -25.0510  -29.1620   20.3000 C   0  0  0  0  0  0  0  0  0  0  0  0
  -26.0570  -31.0390   21.5920 C   0  0  0  0  0  2  0  0  0  0  0  0
  -26.1970  -29.6670   20.9280 C   0  0  0  0  0  0  0  0  0  0  0  0
  -27.4020  -28.8860   20.9420 C   0  0  0  0  0  3  0  0  0  0  0  0
  -26.2760  -27.1410   19.7030 C   0  0  0  0  0  3  0  0  0  0  0  0
  -25.0980  -27.9090   19.6770 C   0  0  0  0  0  3  0  0  0  0  0  0
  -23.7880  -30.0000   20.3280 C   0  0  0  0  0  2  0  0  0  0  0  0
  -24.7540  -31.2760   22.2840 N   0  0  0  0  0  0  0  0  0  0  0  0
  -23.5270  -32.3150   23.8920 O   0  0  0  0  0  0  0  0  0  0  0  0
  -22.8640  -29.6070   22.6460 C   0  0  0  0  0  0  0  0  0  0  0  0
  -21.5580  -29.3510   22.4570 N   0  0  0  0  0  0  0  0  0  0  0  0
  -23.5350  -29.0300   23.5060 O   0  0  0  0  0  0  0  0  0  0  0  0
  -21.0720  -29.8720   21.7400 H   0  0  0  0  0  0  0  0  0  0  0  0
  -18.2400  -27.9430   22.7930 C   0  0  0  0  0  0  0  0  0  0  0  0
  -20.7580  -28.3740   23.1990 C   0  0  0  0  0  3  0  0  0  0  0  0
  -20.9840  -26.9430   22.6590 C   0  0  0  0  0  2  0  0  0  0  0  0
  -19.9650  -26.5340   21.5900 C   0  0  0  0  0  2  0  0  0  0  0  0
  -18.5410  -26.5980   22.1520 C   0  0  0  0  0  2  0  0  0  0  0  0
  -19.2810  -28.7830   23.2700 C   0  0  0  0  0  0  0  0  0  0  0  0
  -18.9470  -30.0360   23.8280 C   0  0  0  0  0  3  0  0  0  0  0  0
  -17.6040  -30.4520   23.9130 C   0  0  0  0  0  3  0  0  0  0  0  0
  -16.5770  -29.6100   23.4510 C   0  0  0  0  0  3  0  0  0  0  0  0
  -16.8960  -28.3560   22.8990 C   0  0  0  0  0  3  0  0  0  0  0  0
  -25.8750  -32.7540   24.0390 C   0  0  0  0  0  3  0  0  0  0  0  0
  -26.3370  -32.0420   25.3700 C   0  0  1  0  0  0  0  0  0  0  0  0
  -25.1900  -31.8100   26.3820 C   0  0  0  0  0  1  0  0  0  0  0  0
  -26.9760  -30.6670   25.0650 C   0  0  0  0  0  1  0  0  0  0  0  0
  -27.4280  -32.8900   26.0670 C   0  0  0  0  0  1  0  0  0  0  0  0
  -25.5320  -34.1590   24.3020 N   0  0  0  0  0  0  0  0  0  0  0  0
  -25.8970  -35.1910   23.5290 C   0  0  0  0  0  0  0  0  0  0  0  0
  -26.6260  -35.0610   22.5420 O   0  0  0  0  0  0  0  0  0  0  0  0
  -24.8910  -34.3330   25.0620 H   0  0  0  0  0  0  0  0  0  0  0  0
  -24.1850  -36.9610   23.0090 C   0  0  0  0  0  1  0  0  0  0  0  0
  -25.3720  -36.5890   23.9120 C   0  0  0  0  0  3  0  0  0  0  0  0
  -27.4350  -37.5220   24.8620 C   0  0  0  0  0  1  0  0  0  0  0  0
  -26.4030  -37.6460   23.8360 N   0  0  0  0  0  0  0  0  0  0  0  0
  -25.9820  -38.5680   23.9200 H   0  0  0  0  0  0  0  0  0  0  0  0
  2  5  1  0
  3  1  1  0
  4  2  2  0
  4  6  1  0
  5 16  1  0
  5  1  2  0
  6  3  2  0
  7 20  1  0
  8 13  1  0
  9 10  1  0
  9  8  1  0
 11 10  1  0
 11 24  1  0
 11 12  1  0
 13  7  1  0
 13 12  1  0
 14  7  2  0
 15 17  1  0
 16 15  2  0
 18 20  1  0
 19 49  1  0
 19 18  1  0
 19 16  1  0
 20 17  1  0
 21 22  2  0
 22 41  1  0
 23 22  1  0
 23 26  1  0
 24 21  1  0
 24 25  1  0
 25 23  2  0
 26 27  1  0
 27 28  2  0
 29 32  1  0
 29 28  1  0
 30 29  2  0
 31 30  1  0
 31 26  2  0
 32 33  1  0
 33 38  2  0
 33 34  1  0
 34 35  2  0
 35 36  1  0
 36 40  1  0
 37 36  2  0
 38 37  1  0
 39 38  1  0
 41 42  1  0
 42 45  1  0
 42 44  1  0
 43 41  2  0
 46 47  1  0
 46 21  1  0
 48 46  1  0
 50 51  2  0
 51 49  1  0
 52 53  1  0
 53 51  1  0
 54  6  1  0
 54 57  1  0
 55 54  2  0
 56 55  1  0
 58 69  2  0
 59 57  1  0
 59 64  1  0
 60 68  1  0
 60 70  1  0
 61 67  1  0
 61 63  1  0
 62 68  1  0
 63 64  2  0
 63 62  1  0
 65 59  2  0
 66 65  1  0
 66 61  2  0
 67 60  1  0
 68 58  1  0
 70 72  2  0
 71 70  1  0
 73 71  1  0
 74 83  2  0
 74 79  1  0
 75 71  1  0
 75 79  1  0
 76 75  1  0
 77 78  1  0
 77 76  1  0
 78 74  1  0
 79 80  2  0
 80 81  1  0
 82 81  2  0
 83 82  1  0
 84 58  1  0
 84 89  1  0
 84 85  1  0
 85 88  1  1
 85 86  1  0
 87 85  1  0
 89 92  1  0
 90 94  1  0
 90 89  1  0
 91 90  2  0
 94 93  1  0
 96 94  1  0
 96 97  1  0
 96 95  1  0
M  ISO  4   7 100  20 100  54 101  57 101
M  END
>  <TORSDO>  (50) 
F 20

>  <SCORE>  (50) 
-12.847

>  <name>  (50) 
50

>  <ligand_id>  (50) 
50

>  <original_smiles>  (50) 
[H]N=C(Oc1c([H])c([H])c2c(c1[H])C([H])([H])N(C(=O)C([H])(N([H])C(=O)C([H])(N([H])C([H])([H])[H])C([H])([H])[H])C(C([H])([H])[H])(C([H])([H])[H])C([H])([H])[H])C([H])(C(=O)N([H])C1([H])c3c([H])c([H])c([H])c([H])c3C([H])([H])C([H])([H])C1([H])[H])C2([H])[H])c1c([H])c([H])c(C2=C([H])C([H])([H])N(C(=O)N3C([H])([H])C([H])([H])C([H])([H])C([H])(n4nc(-c5c([H])c([H])c(Oc6c([H])c([H])c(F)c([H])c6F)c([H])c5[H])c(C(=O)N([H])[H])c4N([H])[H])C3([H])[H])C([H])([H])C2([H])C([H])([H])C(=C([H])[H])C([H])([H])C([H])([H])[H])c([H])c1[H]

>  <smiles>  (50) 
[H]N=C(Oc1c([H])c([H])c2c(c1[H])C([H])([H])N(C(=O)C([H])(N([H])C(=O)C([H])(N([H])C([H])([H])[H])C([H])([H])[H])C(C([H])([H])[H])(C([H])([H])[H])C([H])([H])[H])C([H])(C(=O)N([H])C1([H])c3c([H])c([H])c([H])c([H])c3C([H])([H])C([H])([H])C1([H])[H])C2([H])[H])c1c([H])c([H])c(C2=C([H])C([H])([H])N(C(=O)N3C([H])([H])C([H])([H])C([H])([H])C([H])(n4nc(-c5c([H])c([H])c(Oc6c([H])c([H])c(F)c([H])c6F)c([H])c5[H])c(C(=O)N([H])[H])c4N([H])[H])C3([H])[H])C([H])([H])C2([H])C([H])([H])C(=C([H])[H])C([H])([H])C([H])([H])[H])c([H])c1[H]

$$$$
51:0:0
     RDKit          3D

 90 99  0  0  1  0  0  0  0  0999 V2000
  -27.9680  -21.3680   20.3980 C   0  0  0  0  0  3  0  0  0  0  0  0
  -30.2440  -21.6880   19.7650 C   0  0  0  0  0  3  0  0  0  0  0  0
  -27.7430  -22.7890   20.2850 C   0  0  0  0  0  3  0  0  0  0  0  0
  -30.0220  -23.1020   19.6640 C   0  0  0  0  0  3  0  0  0  0  0  0
  -29.2200  -20.7510   20.0930 C   0  0  0  0  0  0  0  0  0  0  0  0
  -28.7550  -23.7140   19.8840 C   0  0  0  0  0  0  0  0  0  0  0  0
  -30.7340  -14.8230   19.9750 C   0  0  0  0  0  0  0  0  0  0  0  0
  -30.3590  -12.5800   18.9400 C   0  0  0  0  0  2  0  0  0  0  0  0
  -29.3570  -12.6440   17.7730 C   0  0  0  0  0  2  0  0  0  0  0  0
  -27.9220  -12.4630   18.3000 C   0  0  0  0  0  2  0  0  0  0  0  0
  -27.6220  -13.3500   19.5390 C   0  0  0  0  0  3  0  0  0  0  0  0
  -28.7540  -13.3040   20.5870 C   0  0  0  0  0  2  0  0  0  0  0  0
  -29.9900  -13.6630   19.8870 N   0  0  0  0  0  0  0  0  0  0  0  0
  -31.9280  -14.7410   19.6690 O   0  0  0  0  0  0  0  0  0  0  0  0
  -28.9240  -18.2760   20.8940 C   0  0  0  0  0  3  0  0  0  0  0  0
  -29.4850  -19.2120   20.0770 C   0  0  0  0  0  0  0  0  0  0  0  0
  -29.1220  -16.7060   20.8470 C   0  0  0  0  0  2  0  0  0  0  0  0
  -30.3090  -18.5720   18.9630 C   0  0  0  0  0  3  0  0  0  0  0  0
  -30.9780  -17.1940   19.3060 C   0  0  0  0  0  3  0  0  0  0  0  0
  -30.1570  -16.1130   19.9390 N   0  0  0  0  0  0  0  0  0  0  0  0
  -25.2950  -13.9130   20.4460 C   0  0  0  0  0  0  0  0  0  0  0  0
  -24.2550  -13.1280   20.8620 C   0  0  0  0  0  0  0  0  0  0  0  0
  -24.7140  -11.7790   20.7650 C   0  0  0  0  0  0  0  0  0  0  0  0
  -26.3200  -13.0420   20.1190 N   0  0  0  0  0  0  0  0  0  0  0  0
  -25.9840  -11.7510   20.3760 N   0  0  0  0  0  0  0  0  0  0  0  0
  -23.9980  -10.5110   20.9640 C   0  0  0  0  0  0  0  0  0  0  0  0
  -24.4590   -9.5360   21.8770 C   0  0  0  0  0  3  0  0  0  0  0  0
  -23.7410   -8.3360   22.0660 C   0  0  0  0  0  3  0  0  0  0  0  0
  -22.5480   -8.1010   21.3410 C   0  0  0  0  0  0  0  0  0  0  0  0
  -22.1060   -9.0640   20.4170 C   0  0  0  0  0  3  0  0  0  0  0  0
  -22.8250  -10.2560   20.2260 C   0  0  0  0  0  3  0  0  0  0  0  0
  -21.7990   -6.9540   21.4400 O   0  0  0  0  0  0  0  0  0  0  0  0
  -21.7470   -6.2260   22.6020 C   0  0  0  0  0  0  0  0  0  0  0  0
  -21.2810   -6.7860   23.8120 C   0  0  0  0  0  3  0  0  0  0  0  0
  -21.1790   -5.9840   24.9660 C   0  0  0  0  0  3  0  0  0  0  0  0
  -21.5320   -4.6230   24.9110 C   0  0  0  0  0  0  0  0  0  0  0  0
  -21.9890   -4.0610   23.7060 C   0  0  0  0  0  3  0  0  0  0  0  0
  -22.0930   -4.8600   22.5540 C   0  0  0  0  0  0  0  0  0  0  0  0
  -22.5150   -4.3100   21.3900 F   0  0  0  0  0  0  0  0  0  0  0  0
  -21.4260   -3.8490   26.0170 F   0  0  0  0  0  0  0  0  0  0  0  0
  -22.8790  -13.5980   21.2310 C   0  0  0  0  0  0  0  0  0  0  0  0
  -22.2040  -12.8810   22.1220 N   0  0  0  0  0  0  0  0  0  0  0  0
  -22.4110  -14.6360   20.7640 O   0  0  0  0  0  0  0  0  0  0  0  0
  -22.5970  -12.0400   22.5210 H   0  0  0  0  0  0  0  0  0  0  0  0
  -21.2830  -13.1750   22.4110 H   0  0  0  0  0  0  0  0  0  0  0  0
  -25.4470  -15.2870   20.2920 N   0  0  0  0  0  0  0  0  0  0  0  0
  -24.6880  -15.9370   20.4650 H   0  0  0  0  0  0  0  0  0  0  0  0
  -26.2680  -15.7330   19.9050 H   0  0  0  0  0  0  0  0  0  0  0  0
  -28.4600  -25.2130   19.3930 C   0  0  0  0  0  2  0  0  0  0  0  0
  -28.3110  -26.4190   20.2750 O   0  0  0  0  0  0  0  0  0  0  0  0
  -24.6060  -31.9040   23.2680 C   0  0  0  0  0  0  0  0  0  0  0  0
  -27.2080  -27.3070   20.1900 C   0  0  0  0  0  0  0  0  0  0  0  0
  -23.4050  -30.5100   21.6270 C   0  0  0  0  0  3  0  0  0  0  0  0
  -24.8530  -28.9660   20.1900 C   0  0  0  0  0  0  0  0  0  0  0  0
  -25.9490  -30.8160   21.4460 C   0  0  0  0  0  2  0  0  0  0  0  0
  -26.0260  -29.4370   20.7890 C   0  0  0  0  0  0  0  0  0  0  0  0
  -27.2030  -28.6180   20.7810 C   0  0  0  0  0  3  0  0  0  0  0  0
  -25.9960  -26.9000   19.5830 C   0  0  0  0  0  3  0  0  0  0  0  0
  -24.8420  -27.7060   19.5790 C   0  0  0  0  0  3  0  0  0  0  0  0
  -23.6180  -29.8450   20.2430 C   0  0  0  0  0  2  0  0  0  0  0  0
  -24.6730  -31.0950   22.1690 N   0  0  0  0  0  0  0  0  0  0  0  0
  -23.5220  -32.1790   23.8030 O   0  0  0  0  0  0  0  0  0  0  0  0
  -22.7420  -29.4890   22.5830 C   0  0  0  0  0  0  0  0  0  0  0  0
  -21.4150  -29.3080   22.4540 N   0  0  0  0  0  0  0  0  0  0  0  0
  -23.4200  -28.8650   23.4030 O   0  0  0  0  0  0  0  0  0  0  0  0
  -20.9270  -29.8630   21.7660 H   0  0  0  0  0  0  0  0  0  0  0  0
  -18.0410  -28.0990   22.9510 C   0  0  0  0  0  0  0  0  0  0  0  0
  -20.5980  -28.3660   23.2230 C   0  0  0  0  0  3  0  0  0  0  0  0
  -20.7050  -26.9360   22.6460 C   0  0  0  0  0  2  0  0  0  0  0  0
  -19.6060  -26.6110   21.6310 C   0  0  0  0  0  2  0  0  0  0  0  0
  -18.2230  -26.7510   22.2730 C   0  0  0  0  0  2  0  0  0  0  0  0
  -19.1570  -28.8640   23.3830 C   0  0  0  0  0  0  0  0  0  0  0  0
  -18.9330  -30.1250   23.9770 C   0  0  0  0  0  3  0  0  0  0  0  0
  -17.6260  -30.6210   24.1430 C   0  0  0  0  0  3  0  0  0  0  0  0
  -16.5250  -29.8520   23.7270 C   0  0  0  0  0  3  0  0  0  0  0  0
  -16.7330  -28.5930   23.1370 C   0  0  0  0  0  3  0  0  0  0  0  0
  -25.8880  -32.5390   23.8920 C   0  0  0  0  0  3  0  0  0  0  0  0
  -25.5780  -33.9390   24.2140 N   0  0  0  0  0  0  0  0  0  0  0  0
  -25.8990  -34.9890   23.4460 C   0  0  0  0  0  0  0  0  0  0  0  0
  -26.5580  -34.8790   22.4090 O   0  0  0  0  0  0  0  0  0  0  0  0
  -24.9910  -34.0970   25.0210 H   0  0  0  0  0  0  0  0  0  0  0  0
  -24.1640  -36.7770   23.1020 C   0  0  0  0  0  1  0  0  0  0  0  0
  -25.4160  -36.3790   23.9000 C   0  0  0  0  0  3  0  0  0  0  0  0
  -27.5550  -37.2790   24.7040 C   0  0  0  0  0  1  0  0  0  0  0  0
  -26.4450  -37.4340   23.7670 N   0  0  0  0  0  0  0  0  0  0  0  0
  -26.0380  -38.3540   23.9070 H   0  0  0  0  0  0  0  0  0  0  0  0
  -26.3950  -31.7750   25.1750 C   0  0  1  0  0  0  0  0  0  0  0  0
  -25.2970  -31.5440   26.2390 C   0  0  0  0  0  1  0  0  0  0  0  0
  -26.9800  -30.3940   24.7960 C   0  0  0  0  0  1  0  0  0  0  0  0
  -27.5430  -32.5720   25.8390 C   0  0  0  0  0  1  0  0  0  0  0  0
  2  5  1  0
  3  1  1  0
  4  2  2  0
  4  6  1  0
  5  1  2  0
  6  3  2  0
  8 13  1  0
  9 10  1  0
  9  8  1  0
 11 10  1  0
 11 24  1  0
 11 12  1  0
 13  7  1  0
 13 12  1  0
 14  7  2  0
 16  5  1  0
 16 15  2  0
 17 15  1  0
 18 19  2  0
 18 16  1  0
 19 20  1  0
 20  7  1  0
 20 17  1  0
 21 22  2  0
 22 41  1  0
 23 22  1  0
 23 26  1  0
 24 25  1  0
 24 21  1  0
 25 23  2  0
 26 27  1  0
 27 28  2  0
 29 32  1  0
 29 28  1  0
 30 29  2  0
 31 30  1  0
 31 26  2  0
 32 33  1  0
 33 34  1  0
 34 35  2  0
 36 35  1  0
 36 40  1  0
 37 36  2  0
 38 33  2  0
 38 37  1  0
 39 38  1  0
 41 42  1  0
 42 45  1  0
 42 44  1  0
 43 41  2  0
 46 21  1  0
 46 47  1  0
 48 46  1  0
 49  6  1  0
 49 50  1  0
 51 62  2  0
 52 50  1  0
 52 57  1  0
 53 61  1  0
 53 63  1  0
 54 60  1  0
 54 56  1  0
 55 61  1  0
 56 55  1  0
 57 56  2  0
 58 52  2  0
 59 58  1  0
 59 54  2  0
 60 53  1  0
 61 51  1  0
 63 65  2  0
 64 63  1  0
 66 64  1  0
 67 76  2  0
 67 72  1  0
 68 64  1  0
 68 72  1  0
 69 68  1  0
 70 71  1  0
 70 69  1  0
 71 67  1  0
 72 73  2  0
 73 74  1  0
 75 74  2  0
 76 75  1  0
 77 51  1  0
 77 78  1  0
 77 87  1  0
 78 81  1  0
 79 83  1  0
 79 78  1  0
 80 79  2  0
 83 82  1  0
 85 83  1  0
 85 86  1  0
 85 84  1  0
 87 90  1  1
 87 88  1  0
 89 87  1  0
M  ISO  4   7 100  20 100  49 101  50 101
M  END
>  <TORSDO>  (51) 
F 17

>  <SCORE>  (51) 
-14.912

>  <name>  (51) 
51

>  <ligand_id>  (51) 
51

>  <original_smiles>  (51) 
[H]C1=C(c2c([H])c([H])c(C([H])([H])Oc3c([H])c([H])c4c(c3[H])C([H])([H])N(C(=O)C([H])(N([H])C(=O)C([H])(N([H])C([H])([H])[H])C([H])([H])[H])C(C([H])([H])[H])(C([H])([H])[H])C([H])([H])[H])C([H])(C(=O)N([H])C3([H])c5c([H])c([H])c([H])c([H])c5C([H])([H])C([H])([H])C3([H])[H])C4([H])[H])c([H])c2[H])C([H])([H])C([H])([H])N(C(=O)N2C([H])([H])C([H])([H])C([H])([H])C([H])(n3nc(-c4c([H])c([H])c(Oc5c([H])c([H])c(F)c([H])c5F)c([H])c4[H])c(C(=O)N([H])[H])c3N([H])[H])C2([H])[H])C1([H])[H]

>  <smiles>  (51) 
[H]C1=C(c2c([H])c([H])c(C([H])([H])Oc3c([H])c([H])c4c(c3[H])C([H])([H])N(C(=O)C([H])(N([H])C(=O)C([H])(N([H])C([H])([H])[H])C([H])([H])[H])C(C([H])([H])[H])(C([H])([H])[H])C([H])([H])[H])C([H])(C(=O)N([H])C3([H])c5c([H])c([H])c([H])c([H])c5C([H])([H])C([H])([H])C3([H])[H])C4([H])[H])c([H])c2[H])C([H])([H])C([H])([H])N(C(=O)N2C([H])([H])C([H])([H])C([H])([H])C([H])(n3nc(-c4c([H])c([H])c(Oc5c([H])c([H])c(F)c([H])c5F)c([H])c4[H])c(C(=O)N([H])[H])c3N([H])[H])C2([H])[H])C1([H])[H]

$$$$
52:0:0
     RDKit          3D

 93101  0  0  1  0  0  0  0  0999 V2000
  -29.1390  -22.2350   22.0640 N   0  0  0  0  0  4  0  0  0  0  0  0
  -28.2670  -21.9210   22.4590 H   0  0  0  0  0  0  0  0  0  0  0  0
  -29.1720  -21.9000   21.1170 H   0  0  0  0  0  0  0  0  0  0  0  0
  -30.2500  -21.5530   22.7710 C   0  0  0  0  0  2  0  0  0  0  0  0
  -30.2770  -17.7020   22.4460 C   0  0  0  0  0  3  0  0  0  0  0  0
  -30.8460  -18.6720   20.2860 C   0  0  0  0  0  3  0  0  0  0  0  0
  -30.2030  -18.9970   23.0080 C   0  0  0  0  0  3  0  0  0  0  0  0
  -30.8010  -19.9630   20.8560 C   0  0  0  0  0  3  0  0  0  0  0  0
  -30.5500  -17.5340   21.0680 C   0  0  0  0  0  0  0  0  0  0  0  0
  -30.4310  -20.1400   22.2090 C   0  0  0  0  0  0  0  0  0  0  0  0
  -30.4350  -16.1500   20.4230 C   0  0  0  0  0  2  0  0  0  0  0  0
  -31.9090  -14.2290   19.9020 C   0  0  0  0  0  0  0  0  0  0  0  0
  -31.3750  -12.0130   18.9230 C   0  0  0  0  0  2  0  0  0  0  0  0
  -30.4090  -12.1580   17.7300 C   0  0  0  0  0  2  0  0  0  0  0  0
  -28.9450  -12.1670   18.2180 C   0  0  0  0  0  2  0  0  0  0  0  0
  -28.7130  -13.1580   19.3930 C   0  0  0  0  0  3  0  0  0  0  0  0
  -29.7910  -12.9650   20.4880 C   0  0  0  0  0  2  0  0  0  0  0  0
  -31.1120  -13.1220   19.8580 N   0  0  0  0  0  0  0  0  0  0  0  0
  -32.9770  -14.2980   19.2940 O   0  0  0  0  0  0  0  0  0  0  0  0
  -31.5510  -15.2430   20.7140 N   0  0  0  0  0  0  0  0  0  0  0  0
  -32.3570  -15.7810   20.9960 H   0  0  0  0  0  0  0  0  0  0  0  0
  -26.4510  -14.0410   20.2540 C   0  0  0  0  0  0  0  0  0  0  0  0
  -25.3140  -13.3990   20.6590 C   0  0  0  0  0  0  0  0  0  0  0  0
  -25.5910  -12.0000   20.5540 C   0  0  0  0  0  0  0  0  0  0  0  0
  -27.3610  -13.0430   19.9370 N   0  0  0  0  0  0  0  0  0  0  0  0
  -26.8470  -11.8090   20.1720 N   0  0  0  0  0  0  0  0  0  0  0  0
  -24.7180  -10.8370   20.7440 C   0  0  0  0  0  0  0  0  0  0  0  0
  -25.1370   -9.7120   21.4900 C   0  0  0  0  0  3  0  0  0  0  0  0
  -24.2710   -8.6130   21.6740 C   0  0  0  0  0  3  0  0  0  0  0  0
  -22.9720   -8.6320   21.1150 C   0  0  0  0  0  0  0  0  0  0  0  0
  -22.5670   -9.7450   20.3570 C   0  0  0  0  0  3  0  0  0  0  0  0
  -23.4310  -10.8350   20.1710 C   0  0  0  0  0  3  0  0  0  0  0  0
  -22.0710   -7.5990   21.2210 O   0  0  0  0  0  0  0  0  0  0  0  0
  -21.7980   -7.0030   22.4260 C   0  0  0  0  0  0  0  0  0  0  0  0
  -21.4730   -7.7600   23.5730 C   0  0  0  0  0  3  0  0  0  0  0  0
  -21.1310   -7.1080   24.7750 C   0  0  0  0  0  3  0  0  0  0  0  0
  -21.1050   -5.7020   24.8300 C   0  0  0  0  0  0  0  0  0  0  0  0
  -21.4230   -4.9450   23.6880 C   0  0  0  0  0  3  0  0  0  0  0  0
  -21.7670   -5.5950   22.4880 C   0  0  0  0  0  0  0  0  0  0  0  0
  -22.0520   -4.8620   21.3850 F   0  0  0  0  0  0  0  0  0  0  0  0
  -20.7680   -5.0740   25.9800 F   0  0  0  0  0  0  0  0  0  0  0  0
  -24.0110  -14.0390   21.0310 C   0  0  0  0  0  0  0  0  0  0  0  0
  -23.2970  -13.4700   21.9960 N   0  0  0  0  0  0  0  0  0  0  0  0
  -23.6410  -15.0880   20.5010 O   0  0  0  0  0  0  0  0  0  0  0  0
  -23.6080  -12.6240   22.4500 H   0  0  0  0  0  0  0  0  0  0  0  0
  -22.4220  -13.8860   22.2830 H   0  0  0  0  0  0  0  0  0  0  0  0
  -26.7750  -15.3870   20.1060 N   0  0  0  0  0  0  0  0  0  0  0  0
  -26.0800  -16.1120   20.2500 H   0  0  0  0  0  0  0  0  0  0  0  0
  -27.6310  -15.7330   19.6920 H   0  0  0  0  0  0  0  0  0  0  0  0
  -29.2120  -23.7190   22.0280 C   0  0  0  0  0  2  0  0  0  0  0  0
  -28.2840  -24.3760   20.9690 C   0  0  0  0  0  2  0  0  0  0  0  0
  -28.6720  -25.8500   20.6870 C   0  0  0  0  0  2  0  0  0  0  0  0
  -28.1260  -26.3650   19.4640 O   0  0  0  0  0  0  0  0  0  0  0  0
  -24.7280  -31.2780   23.3250 C   0  0  0  0  0  0  0  0  0  0  0  0
  -27.0320  -27.1800   19.6120 C   0  0  0  0  0  0  0  0  0  0  0  0
  -23.4110  -30.2060   21.5220 C   0  0  0  0  0  3  0  0  0  0  0  0
  -24.7420  -28.8090   19.8560 C   0  0  0  0  0  0  0  0  0  0  0  0
  -25.9450  -30.4460   21.3140 C   0  0  0  0  0  2  0  0  0  0  0  0
  -25.9350  -29.1740   20.4940 C   0  0  0  0  0  0  0  0  0  0  0  0
  -27.0850  -28.3660   20.3750 C   0  0  0  0  0  3  0  0  0  0  0  0
  -25.8380  -26.8300   18.9580 C   0  0  0  0  0  3  0  0  0  0  0  0
  -24.6890  -27.6370   19.0770 C   0  0  0  0  0  3  0  0  0  0  0  0
  -23.5570  -29.7290   20.0520 C   0  0  0  0  0  2  0  0  0  0  0  0
  -24.7140  -30.6530   22.1120 N   0  0  0  0  0  0  0  0  0  0  0  0
  -23.6750  -31.5280   23.9270 O   0  0  0  0  0  0  0  0  0  0  0  0
  -22.7110  -29.0980   22.3430 C   0  0  0  0  0  0  0  0  0  0  0  0
  -21.3830  -28.9850   22.1840 N   0  0  0  0  0  0  0  0  0  0  0  0
  -23.3610  -28.3510   23.0810 O   0  0  0  0  0  0  0  0  0  0  0  0
  -20.9270  -29.6480   21.5730 H   0  0  0  0  0  0  0  0  0  0  0  0
  -17.9620  -27.8280   22.4270 C   0  0  0  0  0  0  0  0  0  0  0  0
  -20.5140  -27.9880   22.8140 C   0  0  0  0  0  3  0  0  0  0  0  0
  -20.6080  -26.6260   22.0910 C   0  0  0  0  0  2  0  0  0  0  0  0
  -19.5360  -26.4440   21.0120 C   0  0  0  0  0  2  0  0  0  0  0  0
  -18.1340  -26.5530   21.6170 C   0  0  0  0  0  2  0  0  0  0  0  0
  -19.0810  -28.5070   22.9760 C   0  0  0  0  0  0  0  0  0  0  0  0
  -18.8730  -29.7040   23.6920 C   0  0  0  0  0  3  0  0  0  0  0  0
  -17.5770  -30.2230   23.8650 C   0  0  0  0  0  3  0  0  0  0  0  0
  -16.4700  -29.5360   23.3380 C   0  0  0  0  0  3  0  0  0  0  0  0
  -16.6630  -28.3420   22.6230 C   0  0  0  0  0  3  0  0  0  0  0  0
  -26.0620  -31.7270   23.9970 C   0  0  0  0  0  3  0  0  0  0  0  0
  -25.8890  -33.1170   24.4370 N   0  0  0  0  0  0  0  0  0  0  0  0
  -26.3500  -34.1880   23.7760 C   0  0  0  0  0  0  0  0  0  0  0  0
  -27.0380  -34.0990   22.7550 O   0  0  0  0  0  0  0  0  0  0  0  0
  -25.2840  -33.2600   25.2300 H   0  0  0  0  0  0  0  0  0  0  0  0
  -24.8190  -36.1670   23.5330 C   0  0  0  0  0  1  0  0  0  0  0  0
  -25.9900  -35.5780   24.3350 C   0  0  0  0  0  3  0  0  0  0  0  0
  -28.1670  -36.1910   25.2890 C   0  0  0  0  0  1  0  0  0  0  0  0
  -27.1250  -36.5270   24.3240 N   0  0  0  0  0  0  0  0  0  0  0  0
  -26.8080  -37.4750   24.5080 H   0  0  0  0  0  0  0  0  0  0  0  0
  -26.4850  -30.8070   25.2090 C   0  0  1  0  0  0  0  0  0  0  0  0
  -25.3780  -30.6220   26.2740 C   0  0  0  0  0  1  0  0  0  0  0  0
  -26.8980  -29.4040   24.7070 C   0  0  0  0  0  1  0  0  0  0  0  0
  -27.7210  -31.4100   25.9140 C   0  0  0  0  0  1  0  0  0  0  0  0
  1  2  1  0
  1  4  1  0
  3  1  1  0
  5  7  1  0
  6  8  2  0
  6  9  1  0
  8 10  1  0
  9  5  2  0
 10  4  1  0
 10  7  2  0
 11 20  1  0
 11  9  1  0
 12 20  1  0
 13 18  1  0
 14 15  1  0
 14 13  1  0
 16 15  1  0
 16 25  1  0
 16 17  1  0
 18 12  1  0
 18 17  1  0
 19 12  2  0
 20 21  1  0
 22 23  2  0
 23 42  1  0
 24 23  1  0
 24 27  1  0
 25 26  1  0
 25 22  1  0
 26 24  2  0
 27 28  1  0
 28 29  2  0
 30 33  1  0
 30 29  1  0
 31 30  2  0
 32 31  1  0
 32 27  2  0
 33 34  1  0
 34 39  2  0
 34 35  1  0
 35 36  2  0
 36 37  1  0
 37 41  1  0
 38 37  2  0
 39 38  1  0
 40 39  1  0
 42 43  1  0
 43 46  1  0
 43 45  1  0
 44 42  2  0
 47 48  1  0
 47 22  1  0
 49 47  1  0
 50  1  1  0
 51 50  1  0
 52 51  1  0
 53 55  1  0
 53 52  1  0
 54 65  2  0
 55 60  1  0
 56 64  1  0
 56 66  1  0
 57 63  1  0
 57 59  1  0
 58 64  1  0
 59 58  1  0
 60 59  2  0
 61 62  1  0
 61 55  2  0
 62 57  2  0
 63 56  1  0
 64 54  1  0
 66 68  2  0
 67 66  1  0
 69 67  1  0
 70 79  2  0
 70 75  1  0
 71 67  1  0
 71 75  1  0
 72 71  1  0
 73 74  1  0
 73 72  1  0
 74 70  1  0
 75 76  2  0
 76 77  1  0
 78 77  2  0
 79 78  1  0
 80 54  1  0
 80 81  1  0
 80 90  1  0
 81 84  1  0
 82 86  1  0
 82 81  1  0
 83 82  2  0
 86 85  1  0
 88 86  1  0
 88 89  1  0
 88 87  1  0
 90 93  1  1
 90 91  1  0
 92 90  1  0
M  ISO  4  12 100  20 100  52 101  53 101
M  END
>  <TORSDO>  (52) 
F 22

>  <SCORE>  (52) 
-10.198

>  <name>  (52) 
52

>  <ligand_id>  (52) 
52

>  <original_smiles>  (52) 
[H]c1c([H])c([H])c2c(c1[H])C([H])([H])C([H])([H])C([H])([H])C2([H])N([H])C(=O)C1([H])N(C(=O)C([H])(N([H])C(=O)C([H])(N([H])C([H])([H])[H])C([H])([H])[H])C(C([H])([H])[H])(C([H])([H])[H])C([H])([H])[H])C([H])([H])c2c([H])c(OC([H])([H])C([H])([H])C([H])([H])[N+]([H])([H])C([H])([H])c3c([H])c([H])c(C([H])([H])N([H])C(=O)N4C([H])([H])C([H])([H])C([H])([H])C([H])(n5nc(-c6c([H])c([H])c(Oc7c([H])c([H])c(F)c([H])c7F)c([H])c6[H])c(C(=O)N([H])[H])c5N([H])[H])C4([H])[H])c([H])c3[H])c([H])c([H])c2C1([H])[H]

>  <smiles>  (52) 
[H]c1c([H])c([H])c2c(c1[H])C([H])([H])C([H])([H])C([H])([H])C2([H])N([H])C(=O)C1([H])N(C(=O)C([H])(N([H])C(=O)C([H])(N([H])C([H])([H])[H])C([H])([H])[H])C(C([H])([H])[H])(C([H])([H])[H])C([H])([H])[H])C([H])([H])c2c([H])c(OC([H])([H])C([H])([H])C([H])([H])[N+]([H])([H])C([H])([H])c3c([H])c([H])c(C([H])([H])N([H])C(=O)N4C([H])([H])C([H])([H])C([H])([H])C([H])(n5nc(-c6c([H])c([H])c(Oc7c([H])c([H])c(F)c([H])c7F)c([H])c6[H])c(C(=O)N([H])[H])c5N([H])[H])C4([H])[H])c([H])c3[H])c([H])c([H])c2C1([H])[H]

$$$$
53:0:0
     RDKit          3D

 92101  0  0  1  0  0  0  0  0999 V2000
  -30.5520  -15.1760   20.3390 C   0  0  0  0  0  0  0  0  0  0  0  0
  -30.3910  -12.8250   19.3360 C   0  0  0  0  0  2  0  0  0  0  0  0
  -29.4360  -12.7510   18.1200 C   0  0  0  0  0  2  0  0  0  0  0  0
  -27.9890  -12.4770   18.5760 C   0  0  0  0  0  2  0  0  0  0  0  0
  -27.5680  -13.3730   19.7600 C   0  0  0  0  0  3  0  0  0  0  0  0
  -28.6550  -13.4680   20.8640 C   0  0  0  0  0  2  0  0  0  0  0  0
  -29.9130  -13.9180   20.2380 N   0  0  0  0  0  0  0  0  0  0  0  0
  -31.7840  -15.1450   20.2360 O   0  0  0  0  0  0  0  0  0  0  0  0
  -30.0180  -18.1440   18.8140 C   0  0  0  0  0  2  0  0  0  0  0  0
  -28.1340  -19.2910   20.3490 C   0  0  0  0  0  3  0  0  0  0  0  0
  -28.6980  -17.6770   18.6570 C   0  0  0  0  0  3  0  0  0  0  0  0
  -30.2310  -17.9570   20.1940 C   0  0  0  0  0  3  0  0  0  0  0  0
  -29.5120  -19.2210   20.6900 C   0  0  0  0  0  3  0  0  0  0  0  0
  -27.7160  -18.5120   19.2430 C   0  0  0  0  0  0  0  0  0  0  0  0
  -28.7050  -16.3590   19.3500 C   0  0  0  0  0  2  0  0  0  0  0  0
  -29.8190  -16.4410   20.2790 N   0  0  0  0  0  0  0  0  0  0  0  0
  -25.2030  -13.9820   20.5180 C   0  0  0  0  0  0  0  0  0  0  0  0
  -24.1370  -13.2120   20.8760 C   0  0  0  0  0  0  0  0  0  0  0  0
  -24.6040  -11.8630   20.8500 C   0  0  0  0  0  0  0  0  0  0  0  0
  -26.2440  -13.0950   20.2820 N   0  0  0  0  0  0  0  0  0  0  0  0
  -25.8940  -11.8180   20.5510 N   0  0  0  0  0  0  0  0  0  0  0  0
  -23.8820  -10.6040   21.0310 C   0  0  0  0  0  0  0  0  0  0  0  0
  -24.3160   -9.6390   21.9660 C   0  0  0  0  0  3  0  0  0  0  0  0
  -23.5960   -8.4400   22.1360 C   0  0  0  0  0  3  0  0  0  0  0  0
  -22.4290   -8.1980   21.3720 C   0  0  0  0  0  0  0  0  0  0  0  0
  -22.0170   -9.1520   20.4240 C   0  0  0  0  0  3  0  0  0  0  0  0
  -22.7390  -10.3450   20.2510 C   0  0  0  0  0  3  0  0  0  0  0  0
  -21.6800   -7.0520   21.4540 O   0  0  0  0  0  0  0  0  0  0  0  0
  -21.6280   -6.3090   22.6060 C   0  0  0  0  0  0  0  0  0  0  0  0
  -21.1900   -6.8620   23.8290 C   0  0  0  0  0  3  0  0  0  0  0  0
  -21.0850   -6.0450   24.9720 C   0  0  0  0  0  3  0  0  0  0  0  0
  -21.4090   -4.6770   24.8930 C   0  0  0  0  0  0  0  0  0  0  0  0
  -21.8410   -4.1250   23.6740 C   0  0  0  0  0  3  0  0  0  0  0  0
  -21.9470   -4.9390   22.5330 C   0  0  0  0  0  0  0  0  0  0  0  0
  -22.3430   -4.3980   21.3560 F   0  0  0  0  0  0  0  0  0  0  0  0
  -21.3010   -3.8910   25.9890 F   0  0  0  0  0  0  0  0  0  0  0  0
  -22.7370  -13.6910   21.1300 C   0  0  0  0  0  0  0  0  0  0  0  0
  -22.0040  -13.0000   21.9940 N   0  0  0  0  0  0  0  0  0  0  0  0
  -22.3050  -14.7140   20.5990 O   0  0  0  0  0  0  0  0  0  0  0  0
  -22.3690  -12.1750   22.4460 H   0  0  0  0  0  0  0  0  0  0  0  0
  -21.0630  -13.3010   22.2070 H   0  0  0  0  0  0  0  0  0  0  0  0
  -25.3510  -15.3550   20.3440 N   0  0  0  0  0  0  0  0  0  0  0  0
  -24.5680  -15.9900   20.4540 H   0  0  0  0  0  0  0  0  0  0  0  0
  -26.1920  -15.8240   20.0400 H   0  0  0  0  0  0  0  0  0  0  0  0
  -30.0420  -20.6130   20.7720 N   0  0  0  0  0  0  0  0  0  0  0  0
  -31.0570  -20.6240   20.6810 H   0  0  0  0  0  0  0  0  0  0  0  0
  -29.5040  -22.0130   21.2810 C   0  0  0  0  0  2  0  0  0  0  0  0
  -28.5780  -23.1860   20.4790 C   0  0  0  0  0  2  0  0  0  0  0  0
  -28.8090  -24.8540   20.1410 C   0  0  0  0  0  2  0  0  0  0  0  0
  -28.5080  -26.2430   20.7980 O   0  0  0  0  0  0  0  0  0  0  0  0
  -24.6680  -31.9780   23.3230 C   0  0  0  0  0  0  0  0  0  0  0  0
  -27.4280  -27.1800   20.5660 C   0  0  0  0  0  0  0  0  0  0  0  0
  -23.5450  -30.5060   21.6920 C   0  0  0  0  0  3  0  0  0  0  0  0
  -25.0660  -28.8890   20.3770 C   0  0  0  0  0  0  0  0  0  0  0  0
  -26.0990  -30.7940   21.6140 C   0  0  0  0  0  2  0  0  0  0  0  0
  -26.2120  -29.3780   21.0160 C   0  0  0  0  0  0  0  0  0  0  0  0
  -27.3840  -28.5350   21.0970 C   0  0  0  0  0  3  0  0  0  0  0  0
  -26.2580  -26.7910   19.8780 C   0  0  0  0  0  3  0  0  0  0  0  0
  -25.1040  -27.6100   19.7930 C   0  0  0  0  0  3  0  0  0  0  0  0
  -23.8250  -29.7720   20.3500 C   0  0  0  0  0  2  0  0  0  0  0  0
  -24.7880  -31.1180   22.2640 N   0  0  0  0  0  0  0  0  0  0  0  0
  -23.5620  -32.2710   23.8000 O   0  0  0  0  0  0  0  0  0  0  0  0
  -22.8390  -29.5340   22.6700 C   0  0  0  0  0  0  0  0  0  0  0  0
  -21.5150  -29.3600   22.5130 N   0  0  0  0  0  0  0  0  0  0  0  0
  -23.4870  -28.9380   23.5340 O   0  0  0  0  0  0  0  0  0  0  0  0
  -21.0500  -29.8940   21.7920 H   0  0  0  0  0  0  0  0  0  0  0  0
  -18.1190  -28.1810   22.9740 C   0  0  0  0  0  0  0  0  0  0  0  0
  -20.6730  -28.4430   23.2890 C   0  0  0  0  0  3  0  0  0  0  0  0
  -20.7810  -26.9970   22.7500 C   0  0  0  0  0  2  0  0  0  0  0  0
  -19.6990  -26.6520   21.7230 C   0  0  0  0  0  2  0  0  0  0  0  0
  -18.3050  -26.8160   22.3330 C   0  0  0  0  0  2  0  0  0  0  0  0
  -19.2310  -28.9510   23.4090 C   0  0  0  0  0  0  0  0  0  0  0  0
  -19.0030  -30.2270   23.9680 C   0  0  0  0  0  3  0  0  0  0  0  0
  -17.6970  -30.7340   24.0990 C   0  0  0  0  0  3  0  0  0  0  0  0
  -16.6000  -29.9620   23.6790 C   0  0  0  0  0  3  0  0  0  0  0  0
  -16.8110  -28.6880   23.1230 C   0  0  0  0  0  3  0  0  0  0  0  0
  -25.9170  -32.6520   23.9730 C   0  0  0  0  0  3  0  0  0  0  0  0
  -26.3930  -31.9320   25.2950 C   0  0  1  0  0  0  0  0  0  0  0  0
  -25.2610  -31.7070   26.3250 C   0  0  0  0  0  1  0  0  0  0  0  0
  -27.0160  -30.5530   24.9760 C   0  0  0  0  0  1  0  0  0  0  0  0
  -27.4990  -32.7680   25.9780 C   0  0  0  0  0  1  0  0  0  0  0  0
  -25.5750  -34.0560   24.2520 N   0  0  0  0  0  0  0  0  0  0  0  0
  -25.9170  -35.0950   23.4780 C   0  0  0  0  0  0  0  0  0  0  0  0
  -26.6180  -34.9730   22.4690 O   0  0  0  0  0  0  0  0  0  0  0  0
  -24.9550  -34.2230   25.0310 H   0  0  0  0  0  0  0  0  0  0  0  0
  -24.1730  -36.8550   23.0350 C   0  0  0  0  0  1  0  0  0  0  0  0
  -25.4020  -36.4900   23.8850 C   0  0  0  0  0  3  0  0  0  0  0  0
  -27.5030  -37.4320   24.7400 C   0  0  0  0  0  1  0  0  0  0  0  0
  -26.4220  -37.5550   23.7640 N   0  0  0  0  0  0  0  0  0  0  0  0
  -25.9990  -38.4720   23.8740 H   0  0  0  0  0  0  0  0  0  0  0  0
  -26.4180  -18.5000   18.8230 O   0  0  0  0  0  0  0  0  0  0  0  0
  -26.2850  -17.9860   18.0320 H   0  0  0  0  0  0  0  0  0  0  0  0
  2  7  1  0
  3  4  1  0
  3  2  1  0
  5  4  1  0
  5 20  1  0
  5  6  1  0
  7  1  1  0
  7  6  1  0
  8  1  2  0
 10 13  1  0
 11  9  1  0
 11 14  1  0
 11 15  1  0
 12  9  1  0
 12 16  1  0
 12 13  1  0
 13 45  1  0
 14 10  2  0
 15 16  1  0
 16  1  1  0
 17 18  2  0
 18 37  1  0
 19 18  1  0
 19 22  1  0
 20 17  1  0
 20 21  1  0
 21 19  2  0
 22 23  1  0
 23 24  2  0
 25 28  1  0
 25 24  1  0
 26 25  2  0
 27 26  1  0
 27 22  2  0
 28 29  1  0
 29 30  1  0
 30 31  2  0
 32 31  1  0
 32 36  1  0
 33 32  2  0
 34 29  2  0
 34 33  1  0
 35 34  1  0
 37 38  1  0
 38 41  1  0
 38 40  1  0
 39 37  2  0
 42 43  1  0
 42 17  1  0
 44 42  1  0
 45 47  1  0
 46 45  1  0
 48 47  1  0
 49 48  1  0
 49 50  1  0
 51 62  2  0
 52 50  1  0
 52 57  1  0
 53 61  1  0
 53 63  1  0
 54 56  1  0
 55 61  1  0
 56 57  2  0
 56 55  1  0
 58 52  2  0
 59 58  1  0
 59 54  2  0
 60 54  1  0
 60 53  1  0
 61 51  1  0
 63 65  2  0
 64 63  1  0
 66 64  1  0
 67 76  2  0
 67 72  1  0
 68 64  1  0
 68 72  1  0
 69 68  1  0
 70 71  1  0
 70 69  1  0
 71 67  1  0
 72 73  2  0
 73 74  1  0
 75 74  2  0
 76 75  1  0
 77 51  1  0
 77 82  1  0
 77 78  1  0
 78 81  1  1
 78 79  1  0
 80 78  1  0
 82 85  1  0
 83 87  1  0
 83 82  1  0
 84 83  2  0
 87 86  1  0
 89 90  1  0
 89 87  1  0
 89 88  1  0
 91 14  1  0
 92 91  1  0
M  ISO  4   1 100  16 100  49 101  50 101
M  END
>  <TORSDO>  (53) 
F 20

>  <SCORE>  (53) 
-15.292

>  <name>  (53) 
53

>  <ligand_id>  (53) 
53

>  <original_smiles>  (53) 
[H]Oc1c([H])c(N([H])C([H])([H])C([H])([H])C([H])([H])Oc2c([H])c([H])c3c(c2[H])C([H])([H])N(C(=O)C([H])(N([H])C(=O)C([H])(N([H])C([H])([H])[H])C([H])([H])[H])C(C([H])([H])[H])(C([H])([H])[H])C([H])([H])[H])C([H])(C(=O)N([H])C2([H])c4c([H])c([H])c([H])c([H])c4C([H])([H])C([H])([H])C2([H])[H])C3([H])[H])c2c([H])c1C([H])([H])N2C(=O)N1C([H])([H])C([H])([H])C([H])([H])C([H])(n2nc(-c3c([H])c([H])c(Oc4c([H])c([H])c(F)c([H])c4F)c([H])c3[H])c(C(=O)N([H])[H])c2N([H])[H])C1([H])[H]

>  <smiles>  (53) 
[H]Oc1c([H])c(N([H])C([H])([H])C([H])([H])C([H])([H])Oc2c([H])c([H])c3c(c2[H])C([H])([H])N(C(=O)C([H])(N([H])C(=O)C([H])(N([H])C([H])([H])[H])C([H])([H])[H])C(C([H])([H])[H])(C([H])([H])[H])C([H])([H])[H])C([H])(C(=O)N([H])C2([H])c4c([H])c([H])c([H])c([H])c4C([H])([H])C([H])([H])C2([H])[H])C3([H])[H])c2c([H])c1C([H])([H])N2C(=O)N1C([H])([H])C([H])([H])C([H])([H])C([H])(n2nc(-c3c([H])c([H])c(Oc4c([H])c([H])c(F)c([H])c4F)c([H])c3[H])c(C(=O)N([H])[H])c2N([H])[H])C1([H])[H]

$$$$
54:0:0
     RDKit          3D

 90 98  0  0  1  0  0  0  0  0999 V2000
  -29.6530  -20.6730   19.1490 C   0  0  0  0  0  0  0  0  0  0  0  0
  -30.2620  -19.2460   19.2580 C   0  0  0  0  0  2  0  0  0  0  0  0
  -30.4100  -19.5250   21.7000 C   0  0  0  0  0  2  0  0  0  0  0  0
  -29.5880  -20.8440   21.6130 C   0  0  0  0  0  2  0  0  0  0  0  0
  -30.0650  -18.4910   20.6040 C   0  0  0  0  0  3  0  0  0  0  0  0
  -29.4150  -21.4210   20.2620 N   0  0  0  0  0  0  0  0  0  0  0  0
  -29.4070  -21.1000   18.0170 O   0  0  0  0  0  0  0  0  0  0  0  0
  -30.9700  -17.1960   20.7100 C   0  0  0  0  0  2  0  0  0  0  0  0
  -31.0110  -14.7160   20.2390 C   0  0  0  0  0  0  0  0  0  0  0  0
  -30.6810  -12.4890   19.2210 C   0  0  0  0  0  2  0  0  0  0  0  0
  -29.7380  -12.6220   18.0080 C   0  0  0  0  0  2  0  0  0  0  0  0
  -28.2710  -12.4840   18.4600 C   0  0  0  0  0  2  0  0  0  0  0  0
  -27.9340  -13.3890   19.6770 C   0  0  0  0  0  3  0  0  0  0  0  0
  -29.0030  -13.2690   20.7860 C   0  0  0  0  0  2  0  0  0  0  0  0
  -30.3110  -13.5460   20.1770 N   0  0  0  0  0  0  0  0  0  0  0  0
  -32.1780  -14.7900   19.8490 O   0  0  0  0  0  0  0  0  0  0  0  0
  -30.3370  -15.8500   20.5730 N   0  0  0  0  0  0  0  0  0  0  0  0
  -29.3630  -15.7550   20.8150 H   0  0  0  0  0  0  0  0  0  0  0  0
  -25.5610  -14.0170   20.4360 C   0  0  0  0  0  0  0  0  0  0  0  0
  -24.4870  -13.2560   20.8140 C   0  0  0  0  0  0  0  0  0  0  0  0
  -24.9300  -11.8990   20.7670 C   0  0  0  0  0  0  0  0  0  0  0  0
  -26.5890  -13.1240   20.1820 N   0  0  0  0  0  0  0  0  0  0  0  0
  -26.2160  -11.8440   20.4430 N   0  0  0  0  0  0  0  0  0  0  0  0
  -24.1860  -10.6460   20.9560 C   0  0  0  0  0  0  0  0  0  0  0  0
  -24.5880   -9.6870   21.9120 C   0  0  0  0  0  3  0  0  0  0  0  0
  -23.8470   -8.4980   22.0890 C   0  0  0  0  0  3  0  0  0  0  0  0
  -22.6890   -8.2610   21.3100 C   0  0  0  0  0  0  0  0  0  0  0  0
  -22.3080   -9.2070   20.3420 C   0  0  0  0  0  3  0  0  0  0  0  0
  -23.0490  -10.3870   20.1630 C   0  0  0  0  0  3  0  0  0  0  0  0
  -21.9230   -7.1240   21.3960 O   0  0  0  0  0  0  0  0  0  0  0  0
  -21.7930   -6.4300   22.5710 C   0  0  0  0  0  0  0  0  0  0  0  0
  -21.2330   -7.0180   23.7270 C   0  0  0  0  0  3  0  0  0  0  0  0
  -21.0560   -6.2460   24.8940 C   0  0  0  0  0  3  0  0  0  0  0  0
  -21.4290   -4.8890   24.9030 C   0  0  0  0  0  0  0  0  0  0  0  0
  -21.9800   -4.3000   23.7530 C   0  0  0  0  0  3  0  0  0  0  0  0
  -22.1600   -5.0690   22.5900 C   0  0  0  0  0  0  0  0  0  0  0  0
  -22.6730   -4.4920   21.4760 F   0  0  0  0  0  0  0  0  0  0  0  0
  -21.2500   -4.1450   26.0210 F   0  0  0  0  0  0  0  0  0  0  0  0
  -23.1010  -13.7500   21.1090 C   0  0  0  0  0  0  0  0  0  0  0  0
  -22.3840  -13.0680   21.9940 N   0  0  0  0  0  0  0  0  0  0  0  0
  -22.6650  -14.7770   20.5890 O   0  0  0  0  0  0  0  0  0  0  0  0
  -22.7520  -12.2370   22.4330 H   0  0  0  0  0  0  0  0  0  0  0  0
  -21.4540  -13.3770   22.2350 H   0  0  0  0  0  0  0  0  0  0  0  0
  -25.7410  -15.3870   20.2680 N   0  0  0  0  0  0  0  0  0  0  0  0
  -24.9810  -16.0460   20.3940 H   0  0  0  0  0  0  0  0  0  0  0  0
  -26.5880  -15.8210   19.9250 H   0  0  0  0  0  0  0  0  0  0  0  0
  -28.5930  -22.6780   20.2040 C   0  0  0  0  0  2  0  0  0  0  0  0
  -29.2910  -24.0950   20.2370 C   0  0  0  0  0  2  0  0  0  0  0  0
  -28.2550  -25.2410   19.9380 C   0  0  0  0  0  2  0  0  0  0  0  0
  -28.5130  -26.6600   20.2210 O   0  0  0  0  0  0  0  0  0  0  0  0
  -24.6810  -31.9190   23.3070 C   0  0  0  0  0  0  0  0  0  0  0  0
  -27.3900  -27.4980   20.1670 C   0  0  0  0  0  0  0  0  0  0  0  0
  -23.5200  -30.5600   21.6030 C   0  0  0  0  0  3  0  0  0  0  0  0
  -25.0100  -29.0750   20.1640 C   0  0  0  0  0  0  0  0  0  0  0  0
  -26.0600  -30.9080   21.4850 C   0  0  0  0  0  2  0  0  0  0  0  0
  -26.1620  -29.5550   20.7980 C   0  0  0  0  0  0  0  0  0  0  0  0
  -27.3560  -28.7780   20.7960 C   0  0  0  0  0  3  0  0  0  0  0  0
  -26.2110  -27.0750   19.5040 C   0  0  0  0  0  3  0  0  0  0  0  0
  -25.0330  -27.8380   19.5100 C   0  0  0  0  0  3  0  0  0  0  0  0
  -23.7650  -29.9350   20.2090 C   0  0  0  0  0  2  0  0  0  0  0  0
  -24.7700  -31.1430   22.1880 N   0  0  0  0  0  0  0  0  0  0  0  0
  -23.5840  -32.1750   23.8250 O   0  0  0  0  0  0  0  0  0  0  0  0
  -22.8480  -29.5070   22.5170 C   0  0  0  0  0  0  0  0  0  0  0  0
  -21.5330  -29.2990   22.3340 N   0  0  0  0  0  0  0  0  0  0  0  0
  -23.5100  -28.8840   23.3510 O   0  0  0  0  0  0  0  0  0  0  0  0
  -21.0600  -29.8510   21.6330 H   0  0  0  0  0  0  0  0  0  0  0  0
  -18.1670  -28.0270   22.6940 C   0  0  0  0  0  0  0  0  0  0  0  0
  -20.7080  -28.3340   23.0620 C   0  0  0  0  0  3  0  0  0  0  0  0
  -20.8610  -26.9130   22.4710 C   0  0  0  0  0  2  0  0  0  0  0  0
  -19.8040  -26.5850   21.4120 C   0  0  0  0  0  2  0  0  0  0  0  0
  -18.3970  -26.6900   22.0080 C   0  0  0  0  0  2  0  0  0  0  0  0
  -19.2540  -28.8050   23.1740 C   0  0  0  0  0  0  0  0  0  0  0  0
  -18.9870  -30.0550   23.7760 C   0  0  0  0  0  3  0  0  0  0  0  0
  -17.6670  -30.5260   23.9020 C   0  0  0  0  0  3  0  0  0  0  0  0
  -16.5960  -29.7450   23.4370 C   0  0  0  0  0  3  0  0  0  0  0  0
  -16.8470  -28.4980   22.8380 C   0  0  0  0  0  3  0  0  0  0  0  0
  -25.9460  -32.5410   23.9710 C   0  0  0  0  0  3  0  0  0  0  0  0
  -26.4100  -31.7720   25.2680 C   0  0  1  0  0  0  0  0  0  0  0  0
  -25.2750  -31.5430   26.2930 C   0  0  0  0  0  1  0  0  0  0  0  0
  -27.0010  -30.3890   24.9060 C   0  0  0  0  0  1  0  0  0  0  0  0
  -27.5380  -32.5640   25.9710 C   0  0  0  0  0  1  0  0  0  0  0  0
  -25.6380  -33.9440   24.2810 N   0  0  0  0  0  0  0  0  0  0  0  0
  -25.9590  -34.9850   23.5000 C   0  0  0  0  0  0  0  0  0  0  0  0
  -26.6180  -34.8650   22.4640 O   0  0  0  0  0  0  0  0  0  0  0  0
  -25.0500  -34.1110   25.0830 H   0  0  0  0  0  0  0  0  0  0  0  0
  -24.2050  -36.7540   23.1550 C   0  0  0  0  0  1  0  0  0  0  0  0
  -25.4730  -36.3790   23.9390 C   0  0  0  0  0  3  0  0  0  0  0  0
  -27.6150  -37.3080   24.6980 C   0  0  0  0  0  1  0  0  0  0  0  0
  -26.4930  -37.4370   23.7720 N   0  0  0  0  0  0  0  0  0  0  0  0
  -26.0820  -38.3580   23.8970 H   0  0  0  0  0  0  0  0  0  0  0  0
  1  2  1  0
  1  6  1  0
  2  5  1  0
  4  3  1  0
  5  8  1  0
  5  3  1  0
  6  4  1  0
  7  1  2  0
  9 17  1  0
 10 15  1  0
 11 12  1  0
 11 10  1  0
 13 12  1  0
 13 22  1  0
 13 14  1  0
 15  9  1  0
 15 14  1  0
 16  9  2  0
 17  8  1  0
 17 18  1  0
 19 20  2  0
 20 39  1  0
 21 20  1  0
 21 24  1  0
 22 19  1  0
 22 23  1  0
 23 21  2  0
 24 25  1  0
 25 26  2  0
 27 30  1  0
 27 26  1  0
 28 27  2  0
 29 28  1  0
 29 24  2  0
 30 31  1  0
 31 36  2  0
 31 32  1  0
 32 33  2  0
 33 34  1  0
 34 38  1  0
 35 34  2  0
 36 35  1  0
 37 36  1  0
 39 40  1  0
 40 43  1  0
 40 42  1  0
 41 39  2  0
 44 45  1  0
 44 19  1  0
 46 44  1  0
 47 48  1  0
 47  6  1  0
 49 50  1  0
 49 48  1  0
 51 62  2  0
 52 50  1  0
 52 57  1  0
 53 61  1  0
 53 63  1  0
 54 60  1  0
 54 56  1  0
 55 61  1  0
 56 55  1  0
 57 56  2  0
 58 59  1  0
 58 52  2  0
 59 54  2  0
 60 53  1  0
 61 51  1  0
 63 65  2  0
 64 63  1  0
 66 64  1  0
 67 76  2  0
 67 72  1  0
 68 64  1  0
 68 72  1  0
 69 68  1  0
 70 71  1  0
 70 69  1  0
 71 67  1  0
 72 73  2  0
 73 74  1  0
 75 74  2  0
 76 75  1  0
 77 51  1  0
 77 82  1  0
 77 78  1  0
 78 81  1  1
 78 79  1  0
 80 78  1  0
 82 85  1  0
 83 87  1  0
 83 82  1  0
 84 83  2  0
 87 86  1  0
 89 90  1  0
 89 87  1  0
 89 88  1  0
M  ISO  4   9 100  17 100  49 101  50 101
M  END
>  <TORSDO>  (54) 
F 20

>  <SCORE>  (54) 
-13.525

>  <name>  (54) 
54

>  <ligand_id>  (54) 
54

>  <original_smiles>  (54) 
[H]c1c([H])c([H])c2c(c1[H])C([H])([H])C([H])([H])C([H])([H])C2([H])N([H])C(=O)C1([H])N(C(=O)C([H])(N([H])C(=O)C([H])(N([H])C([H])([H])[H])C([H])([H])[H])C(C([H])([H])[H])(C([H])([H])[H])C([H])([H])[H])C([H])([H])c2c([H])c(OC([H])([H])C([H])([H])C([H])([H])N3C(=O)C([H])([H])C([H])(C([H])([H])N([H])C(=O)N4C([H])([H])C([H])([H])C([H])([H])C([H])(n5nc(-c6c([H])c([H])c(Oc7c([H])c([H])c(F)c([H])c7F)c([H])c6[H])c(C(=O)N([H])[H])c5N([H])[H])C4([H])[H])C([H])([H])C3([H])[H])c([H])c([H])c2C1([H])[H]

>  <smiles>  (54) 
[H]c1c([H])c([H])c2c(c1[H])C([H])([H])C([H])([H])C([H])([H])C2([H])N([H])C(=O)C1([H])N(C(=O)C([H])(N([H])C(=O)C([H])(N([H])C([H])([H])[H])C([H])([H])[H])C(C([H])([H])[H])(C([H])([H])[H])C([H])([H])[H])C([H])([H])c2c([H])c(OC([H])([H])C([H])([H])C([H])([H])N3C(=O)C([H])([H])C([H])(C([H])([H])N([H])C(=O)N4C([H])([H])C([H])([H])C([H])([H])C([H])(n5nc(-c6c([H])c([H])c(Oc7c([H])c([H])c(F)c([H])c7F)c([H])c6[H])c(C(=O)N([H])[H])c5N([H])[H])C4([H])[H])C([H])([H])C3([H])[H])c([H])c([H])c2C1([H])[H]

$$$$
55:0:0
     RDKit          3D

 94103  0  0  1  0  0  0  0  0999 V2000
  -28.2740  -21.7520   22.0770 C   0  0  0  0  0  3  0  0  0  0  0  0
  -28.5440  -20.4960   21.4880 C   0  0  0  0  0  3  0  0  0  0  0  0
  -29.3090  -21.5820   19.4230 C   0  0  0  0  0  3  0  0  0  0  0  0
  -28.5360  -22.9080   21.3210 C   0  0  0  0  0  0  0  0  0  0  0  0
  -29.0320  -22.8240   20.0210 C   0  0  0  0  0  0  0  0  0  0  0  0
  -29.0670  -20.4060   20.1740 C   0  0  0  0  0  0  0  0  0  0  0  0
  -28.3660  -24.3190   21.7010 C   0  0  0  0  0  0  0  0  0  0  0  0
  -28.7880  -25.1250   20.5410 C   0  0  0  0  0  0  0  0  0  0  0  0
  -28.7630  -26.4720   20.5320 C   0  0  0  0  0  3  0  0  0  0  0  0
  -29.2070  -24.1940   19.4090 C   0  0  0  0  0  2  0  0  0  0  0  0
  -27.9510  -24.7430   22.7830 O   0  0  0  0  0  0  0  0  0  0  0  0
  -29.3470  -19.0380   19.5750 C   0  0  0  0  0  2  0  0  0  0  0  0
  -30.5490  -18.3300   20.2280 C   0  0  0  0  0  2  0  0  0  0  0  0
  -30.4800  -16.8010   20.0770 C   0  0  0  0  0  2  0  0  0  0  0  0
  -32.1740  -15.0330   20.2480 C   0  0  0  0  0  0  0  0  0  0  0  0
  -31.8990  -12.6830   19.5560 C   0  0  0  0  0  2  0  0  0  0  0  0
  -31.0260  -12.5760   18.2910 C   0  0  0  0  0  2  0  0  0  0  0  0
  -29.5280  -12.5350   18.6520 C   0  0  0  0  0  2  0  0  0  0  0  0
  -29.1270  -13.6610   19.6400 C   0  0  0  0  0  3  0  0  0  0  0  0
  -30.1050  -13.7050   20.8370 C   0  0  0  0  0  2  0  0  0  0  0  0
  -31.4680  -13.8720   20.3050 N   0  0  0  0  0  0  0  0  0  0  0  0
  -33.3100  -15.1150   19.7740 O   0  0  0  0  0  0  0  0  0  0  0  0
  -31.5890  -16.1260   20.7580 N   0  0  0  0  0  0  0  0  0  0  0  0
  -32.2760  -16.7910   21.0800 H   0  0  0  0  0  0  0  0  0  0  0  0
  -26.7730  -14.5080   20.2510 C   0  0  0  0  0  0  0  0  0  0  0  0
  -25.6300  -13.8430   20.6010 C   0  0  0  0  0  0  0  0  0  0  0  0
  -25.9700  -12.4550   20.6170 C   0  0  0  0  0  0  0  0  0  0  0  0
  -27.7430  -13.5300   20.0780 N   0  0  0  0  0  0  0  0  0  0  0  0
  -27.2590  -12.2930   20.3560 N   0  0  0  0  0  0  0  0  0  0  0  0
  -25.1330  -11.2660   20.8070 C   0  0  0  0  0  0  0  0  0  0  0  0
  -25.4230  -10.3150   21.8090 C   0  0  0  0  0  3  0  0  0  0  0  0
  -24.5940   -9.1870   21.9850 C   0  0  0  0  0  3  0  0  0  0  0  0
  -23.4620   -9.0030   21.1560 C   0  0  0  0  0  0  0  0  0  0  0  0
  -23.1920   -9.9410   20.1440 C   0  0  0  0  0  3  0  0  0  0  0  0
  -24.0210  -11.0600   19.9660 C   0  0  0  0  0  3  0  0  0  0  0  0
  -22.6150   -7.9240   21.2380 O   0  0  0  0  0  0  0  0  0  0  0  0
  -22.2820   -7.3580   22.4420 C   0  0  0  0  0  0  0  0  0  0  0  0
  -21.6580   -8.1000   23.4680 C   0  0  0  0  0  3  0  0  0  0  0  0
  -21.2690   -7.4610   24.6620 C   0  0  0  0  0  3  0  0  0  0  0  0
  -21.4970   -6.0820   24.8300 C   0  0  0  0  0  0  0  0  0  0  0  0
  -22.1160   -5.3410   23.8080 C   0  0  0  0  0  3  0  0  0  0  0  0
  -22.5040   -5.9770   22.6160 C   0  0  0  0  0  0  0  0  0  0  0  0
  -23.0780   -5.2530   21.6250 F   0  0  0  0  0  0  0  0  0  0  0  0
  -21.1170   -5.4670   25.9740 F   0  0  0  0  0  0  0  0  0  0  0  0
  -24.2710  -14.4450   20.8150 C   0  0  0  0  0  0  0  0  0  0  0  0
  -23.4800  -13.8710   21.7150 N   0  0  0  0  0  0  0  0  0  0  0  0
  -23.9190  -15.4600   20.2140 O   0  0  0  0  0  0  0  0  0  0  0  0
  -23.7770  -13.0510   22.2220 H   0  0  0  0  0  0  0  0  0  0  0  0
  -22.5660  -14.2580   21.9010 H   0  0  0  0  0  0  0  0  0  0  0  0
  -27.0650  -15.8540   20.0440 N   0  0  0  0  0  0  0  0  0  0  0  0
  -26.3540  -16.5760   20.0940 H   0  0  0  0  0  0  0  0  0  0  0  0
  -27.9500  -16.1950   19.6940 H   0  0  0  0  0  0  0  0  0  0  0  0
  -29.1480  -27.3230   19.3420 C   0  0  0  0  0  2  0  0  0  0  0  0
  -28.0710  -27.4030   18.4160 O   0  0  0  0  0  0  0  0  0  0  0  0
  -24.5230  -31.5110   23.0770 C   0  0  0  0  0  0  0  0  0  0  0  0
  -26.9180  -28.0460   18.8070 C   0  0  0  0  0  0  0  0  0  0  0  0
  -23.1630  -30.4300   21.3100 C   0  0  0  0  0  3  0  0  0  0  0  0
  -24.4790  -29.3240   19.4270 C   0  0  0  0  0  0  0  0  0  0  0  0
  -25.6210  -30.9860   20.9070 C   0  0  0  0  0  2  0  0  0  0  0  0
  -25.6750  -29.7870   19.9870 C   0  0  0  0  0  0  0  0  0  0  0  0
  -26.8970  -29.1490   19.6900 C   0  0  0  0  0  3  0  0  0  0  0  0
  -25.7070  -27.5900   18.2480 C   0  0  0  0  0  3  0  0  0  0  0  0
  -24.4860  -28.2160   18.5590 C   0  0  0  0  0  3  0  0  0  0  0  0
  -23.2190  -30.0700   19.7990 C   0  0  0  0  0  2  0  0  0  0  0  0
  -24.4600  -30.9780   21.8240 N   0  0  0  0  0  0  0  0  0  0  0  0
  -23.5100  -31.5940   23.7850 O   0  0  0  0  0  0  0  0  0  0  0  0
  -22.6710  -29.1910   22.0900 C   0  0  0  0  0  0  0  0  0  0  0  0
  -21.3630  -28.9060   21.9910 N   0  0  0  0  0  0  0  0  0  0  0  0
  -23.4580  -28.4970   22.7370 O   0  0  0  0  0  0  0  0  0  0  0  0
  -20.7830  -29.5280   21.4460 H   0  0  0  0  0  0  0  0  0  0  0  0
  -18.1870  -27.2060   22.2380 C   0  0  0  0  0  0  0  0  0  0  0  0
  -20.6830  -27.7630   22.6020 C   0  0  0  0  0  3  0  0  0  0  0  0
  -20.9820  -26.4590   21.8280 C   0  0  0  0  0  2  0  0  0  0  0  0
  -19.9380  -26.1440   20.7530 C   0  0  0  0  0  2  0  0  0  0  0  0
  -18.5470  -26.0080   21.3770 C   0  0  0  0  0  2  0  0  0  0  0  0
  -19.1900  -28.0400   22.7990 C   0  0  0  0  0  0  0  0  0  0  0  0
  -18.8000  -29.1620   23.5620 C   0  0  0  0  0  3  0  0  0  0  0  0
  -17.4390  -29.4570   23.7630 C   0  0  0  0  0  3  0  0  0  0  0  0
  -16.4520  -28.6200   23.2180 C   0  0  0  0  0  3  0  0  0  0  0  0
  -16.8250  -27.4950   22.4620 C   0  0  0  0  0  3  0  0  0  0  0  0
  -25.8590  -32.0600   23.6700 C   0  0  0  0  0  3  0  0  0  0  0  0
  -26.3840  -31.2250   24.9000 C   0  0  1  0  0  0  0  0  0  0  0  0
  -25.3210  -31.0060   26.0000 C   0  0  0  0  0  1  0  0  0  0  0  0
  -26.8830  -29.8350   24.4390 C   0  0  0  0  0  1  0  0  0  0  0  0
  -27.5950  -31.9410   25.5440 C   0  0  0  0  0  1  0  0  0  0  0  0
  -25.6300  -33.4600   24.0490 N   0  0  0  0  0  0  0  0  0  0  0  0
  -26.0380  -34.5170   23.3350 C   0  0  0  0  0  0  0  0  0  0  0  0
  -26.7200  -34.4100   22.3110 O   0  0  0  0  0  0  0  0  0  0  0  0
  -25.0300  -33.6200   24.8450 H   0  0  0  0  0  0  0  0  0  0  0  0
  -24.4320  -36.4250   23.0170 C   0  0  0  0  0  1  0  0  0  0  0  0
  -25.6270  -35.9140   23.8360 C   0  0  0  0  0  3  0  0  0  0  0  0
  -27.7920  -36.6310   24.7440 C   0  0  0  0  0  1  0  0  0  0  0  0
  -26.7230  -36.9040   23.7850 N   0  0  0  0  0  0  0  0  0  0  0  0
  -26.3710  -37.8410   23.9610 H   0  0  0  0  0  0  0  0  0  0  0  0
  2  1  1  0
  3  5  2  0
  3  6  1  0
  4  7  1  0
  4  1  2  0
  5  4  1  0
  6  2  2  0
  7 11  2  0
  8  7  1  0
  9  8  2  0
 10  5  1  0
 10  8  1  0
 12  6  1  0
 12 13  1  0
 14 13  1  0
 14 23  1  0
 15 21  1  0
 15 23  1  0
 16 21  1  0
 17 18  1  0
 17 16  1  0
 19 18  1  0
 19 28  1  0
 19 20  1  0
 21 20  1  0
 22 15  2  0
 23 24  1  0
 25 26  2  0
 26 27  1  0
 26 45  1  0
 27 30  1  0
 28 25  1  0
 28 29  1  0
 29 27  2  0
 30 31  1  0
 31 32  2  0
 33 36  1  0
 33 32  1  0
 34 33  2  0
 35 34  1  0
 35 30  2  0
 36 37  1  0
 37 42  2  0
 37 38  1  0
 38 39  2  0
 39 40  1  0
 40 44  1  0
 41 40  2  0
 42 41  1  0
 43 42  1  0
 45 46  1  0
 46 49  1  0
 46 48  1  0
 47 45  2  0
 50 51  1  0
 50 25  1  0
 52 50  1  0
 53  9  1  0
 54 56  1  0
 54 53  1  0
 55 66  2  0
 56 61  1  0
 57 65  1  0
 57 67  1  0
 58 64  1  0
 58 60  1  0
 59 65  1  0
 60 59  1  0
 61 60  2  0
 62 63  1  0
 62 56  2  0
 63 58  2  0
 64 57  1  0
 65 55  1  0
 67 69  2  0
 68 67  1  0
 70 68  1  0
 71 80  2  0
 71 76  1  0
 72 68  1  0
 72 76  1  0
 73 72  1  0
 74 75  1  0
 74 73  1  0
 75 71  1  0
 76 77  2  0
 77 78  1  0
 79 78  2  0
 80 79  1  0
 81 55  1  0
 81 86  1  0
 81 82  1  0
 82 85  1  1
 82 83  1  0
 84 82  1  0
 86 89  1  0
 87 91  1  0
 87 86  1  0
 88 87  2  0
 91 90  1  0
 93 91  1  0
 93 94  1  0
 93 92  1  0
M  ISO  4  15 100  23 100  53 101  54 101
M  END
>  <TORSDO>  (55) 
F 20

>  <SCORE>  (55) 
-9.558

>  <name>  (55) 
55

>  <ligand_id>  (55) 
55

>  <original_smiles>  (55) 
[H]C(=C1C(=O)c2c([H])c([H])c(C([H])([H])C([H])([H])C([H])([H])N([H])C(=O)N3C([H])([H])C([H])([H])C([H])([H])C([H])(n4nc(-c5c([H])c([H])c(Oc6c([H])c([H])c(F)c([H])c6F)c([H])c5[H])c(C(=O)N([H])[H])c4N([H])[H])C3([H])[H])c([H])c2C1([H])[H])C([H])([H])Oc1c([H])c([H])c2c(c1[H])C([H])([H])N(C(=O)C([H])(N([H])C(=O)C([H])(N([H])C([H])([H])[H])C([H])([H])[H])C(C([H])([H])[H])(C([H])([H])[H])C([H])([H])[H])C([H])(C(=O)N([H])C1([H])c3c([H])c([H])c([H])c([H])c3C([H])([H])C([H])([H])C1([H])[H])C2([H])[H]

>  <smiles>  (55) 
[H]C(=C1C(=O)c2c([H])c([H])c(C([H])([H])C([H])([H])C([H])([H])N([H])C(=O)N3C([H])([H])C([H])([H])C([H])([H])C([H])(n4nc(-c5c([H])c([H])c(Oc6c([H])c([H])c(F)c([H])c6F)c([H])c5[H])c(C(=O)N([H])[H])c4N([H])[H])C3([H])[H])c([H])c2C1([H])[H])C([H])([H])Oc1c([H])c([H])c2c(c1[H])C([H])([H])N(C(=O)C([H])(N([H])C(=O)C([H])(N([H])C([H])([H])[H])C([H])([H])[H])C(C([H])([H])[H])(C([H])([H])[H])C([H])([H])[H])C([H])(C(=O)N([H])C1([H])c3c([H])c([H])c([H])c([H])c3C([H])([H])C([H])([H])C1([H])[H])C2([H])[H]

$$$$
56:0:0
     RDKit          3D

 93102  0  0  1  0  0  0  0  0999 V2000
  -29.1250  -21.2400   16.9670 C   0  0  0  0  0  3  0  0  0  0  0  0
  -28.7730  -22.5710   17.2080 C   0  0  0  0  0  3  0  0  0  0  0  0
  -29.4180  -20.3850   18.0400 C   0  0  0  0  0  3  0  0  0  0  0  0
  -28.7400  -23.0780   18.5220 C   0  0  0  0  0  0  0  0  0  0  0  0
  -29.3800  -20.8240   19.3880 C   0  0  0  0  0  0  0  0  0  0  0  0
  -29.0630  -22.2230   19.6270 C   0  0  0  0  0  0  0  0  0  0  0  0
  -28.3790  -24.5310   18.6860 C   0  0  0  0  0  0  0  0  0  0  0  0
  -29.1670  -24.2280   21.0040 C   0  0  0  0  0  2  0  0  0  0  0  0
  -28.1760  -25.0450   20.1200 C   0  0  0  0  0  3  0  0  0  0  0  0
  -28.2180  -25.2980   17.7280 O   0  0  0  0  0  0  0  0  0  0  0  0
  -29.0550  -22.7760   20.8990 O   0  0  0  0  0  0  0  0  0  0  0  0
  -28.3170  -26.5200   20.1950 O   0  0  0  0  0  0  0  0  0  0  0  0
  -24.6020  -31.8800   23.2250 C   0  0  0  0  0  0  0  0  0  0  0  0
  -27.1740  -27.3310   20.1560 C   0  0  0  0  0  0  0  0  0  0  0  0
  -23.3750  -30.4820   21.5980 C   0  0  0  0  0  3  0  0  0  0  0  0
  -24.8080  -28.9290   20.1640 C   0  0  0  0  0  0  0  0  0  0  0  0
  -25.9090  -30.8050   21.3850 C   0  0  0  0  0  2  0  0  0  0  0  0
  -25.9800  -29.4260   20.7420 C   0  0  0  0  0  0  0  0  0  0  0  0
  -27.1670  -28.6370   20.7290 C   0  0  0  0  0  3  0  0  0  0  0  0
  -25.9730  -26.8790   19.5630 C   0  0  0  0  0  3  0  0  0  0  0  0
  -24.8030  -27.6610   19.5680 C   0  0  0  0  0  3  0  0  0  0  0  0
  -23.5740  -29.8010   20.2170 C   0  0  0  0  0  2  0  0  0  0  0  0
  -24.6480  -31.0710   22.1270 N   0  0  0  0  0  0  0  0  0  0  0  0
  -23.5250  -32.1600   23.7720 O   0  0  0  0  0  0  0  0  0  0  0  0
  -22.7210  -29.4680   22.5660 C   0  0  0  0  0  0  0  0  0  0  0  0
  -21.3950  -29.2900   22.4500 N   0  0  0  0  0  0  0  0  0  0  0  0
  -23.4070  -28.8440   23.3790 O   0  0  0  0  0  0  0  0  0  0  0  0
  -20.8970  -29.8450   21.7670 H   0  0  0  0  0  0  0  0  0  0  0  0
  -18.0270  -28.0880   22.9700 C   0  0  0  0  0  0  0  0  0  0  0  0
  -20.5840  -28.3560   23.2320 C   0  0  0  0  0  3  0  0  0  0  0  0
  -20.6890  -26.9190   22.6700 C   0  0  0  0  0  2  0  0  0  0  0  0
  -19.5860  -26.5850   21.6610 C   0  0  0  0  0  2  0  0  0  0  0  0
  -18.2060  -26.7330   22.3060 C   0  0  0  0  0  2  0  0  0  0  0  0
  -19.1430  -28.8560   23.3900 C   0  0  0  0  0  0  0  0  0  0  0  0
  -18.9220  -30.1260   23.9690 C   0  0  0  0  0  3  0  0  0  0  0  0
  -17.6170  -30.6240   24.1350 C   0  0  0  0  0  3  0  0  0  0  0  0
  -16.5140  -29.8520   23.7290 C   0  0  0  0  0  3  0  0  0  0  0  0
  -16.7190  -28.5860   23.1520 C   0  0  0  0  0  3  0  0  0  0  0  0
  -25.8940  -32.5090   23.8290 C   0  0  0  0  0  3  0  0  0  0  0  0
  -26.4330  -31.7300   25.0920 C   0  0  1  0  0  0  0  0  0  0  0  0
  -25.3590  -31.4880   26.1770 C   0  0  0  0  0  1  0  0  0  0  0  0
  -27.0080  -30.3530   24.6820 C   0  0  0  0  0  1  0  0  0  0  0  0
  -27.5930  -32.5190   25.7400 C   0  0  0  0  0  1  0  0  0  0  0  0
  -25.5900  -33.9050   24.1740 N   0  0  0  0  0  0  0  0  0  0  0  0
  -25.9090  -34.9630   23.4160 C   0  0  0  0  0  0  0  0  0  0  0  0
  -26.5620  -34.8670   22.3730 O   0  0  0  0  0  0  0  0  0  0  0  0
  -25.0110  -34.0540   24.9870 H   0  0  0  0  0  0  0  0  0  0  0  0
  -24.1770  -36.7580   23.1000 C   0  0  0  0  0  1  0  0  0  0  0  0
  -25.4290  -36.3470   23.8910 C   0  0  0  0  0  3  0  0  0  0  0  0
  -27.5760  -37.2270   24.6950 C   0  0  0  0  0  1  0  0  0  0  0  0
  -26.4590  -37.4020   23.7710 N   0  0  0  0  0  0  0  0  0  0  0  0
  -26.0550  -38.3200   23.9350 H   0  0  0  0  0  0  0  0  0  0  0  0
  -29.7680  -19.7680   20.4880 C   0  0  0  0  0  2  0  0  0  0  0  0
  -29.5110  -18.2100   20.1940 C   0  0  0  0  0  3  0  0  0  0  0  0
  -30.2200  -17.1310   21.1100 C   0  0  0  0  0  3  0  0  0  0  0  0
  -30.6190  -14.6230   20.5460 C   0  0  0  0  0  0  0  0  0  0  0  0
  -30.4130  -12.3950   19.4640 C   0  0  0  0  0  2  0  0  0  0  0  0
  -29.4840  -12.5090   18.2350 C   0  0  0  0  0  2  0  0  0  0  0  0
  -28.0060  -12.3500   18.6460 C   0  0  0  0  0  2  0  0  0  0  0  0
  -27.6290  -13.2220   19.8740 C   0  0  0  0  0  3  0  0  0  0  0  0
  -28.6710  -13.0750   21.0030 C   0  0  0  0  0  2  0  0  0  0  0  0
  -29.9850  -13.4150   20.4380 N   0  0  0  0  0  0  0  0  0  0  0  0
  -31.7930  -14.7710   20.1950 O   0  0  0  0  0  0  0  0  0  0  0  0
  -29.8410  -15.6900   20.8880 N   0  0  0  0  0  0  0  0  0  0  0  0
  -28.8770  -15.4590   21.0790 H   0  0  0  0  0  0  0  0  0  0  0  0
  -25.2220  -13.8140   20.5550 C   0  0  0  0  0  0  0  0  0  0  0  0
  -24.1540  -13.0380   20.9140 C   0  0  0  0  0  0  0  0  0  0  0  0
  -24.6240  -11.6880   20.8990 C   0  0  0  0  0  0  0  0  0  0  0  0
  -26.2750  -12.9380   20.3420 N   0  0  0  0  0  0  0  0  0  0  0  0
  -25.9190  -11.6560   20.6100 N   0  0  0  0  0  0  0  0  0  0  0  0
  -23.9010  -10.4240   21.0850 C   0  0  0  0  0  0  0  0  0  0  0  0
  -24.3390   -9.4530   22.0140 C   0  0  0  0  0  3  0  0  0  0  0  0
  -23.6190   -8.2510   22.1840 C   0  0  0  0  0  3  0  0  0  0  0  0
  -22.4450   -8.0130   21.4300 C   0  0  0  0  0  0  0  0  0  0  0  0
  -22.0290   -8.9720   20.4900 C   0  0  0  0  0  3  0  0  0  0  0  0
  -22.7500  -10.1650   20.3170 C   0  0  0  0  0  3  0  0  0  0  0  0
  -21.6920   -6.8670   21.5170 O   0  0  0  0  0  0  0  0  0  0  0  0
  -21.6620   -6.1100   22.6620 C   0  0  0  0  0  0  0  0  0  0  0  0
  -21.2620   -6.6500   23.9030 C   0  0  0  0  0  3  0  0  0  0  0  0
  -21.1770   -5.8190   25.0390 C   0  0  0  0  0  3  0  0  0  0  0  0
  -21.4810   -4.4490   24.9330 C   0  0  0  0  0  0  0  0  0  0  0  0
  -21.8730   -3.9080   23.6950 C   0  0  0  0  0  3  0  0  0  0  0  0
  -21.9590   -4.7360   22.5630 C   0  0  0  0  0  0  0  0  0  0  0  0
  -22.3170   -4.2050   21.3680 F   0  0  0  0  0  0  0  0  0  0  0  0
  -21.3920   -3.6480   26.0190 F   0  0  0  0  0  0  0  0  0  0  0  0
  -22.7480  -13.5070   21.1610 C   0  0  0  0  0  0  0  0  0  0  0  0
  -22.0100  -12.8120   22.0180 N   0  0  0  0  0  0  0  0  0  0  0  0
  -22.3130  -14.5280   20.6280 O   0  0  0  0  0  0  0  0  0  0  0  0
  -22.3730  -11.9860   22.4720 H   0  0  0  0  0  0  0  0  0  0  0  0
  -21.0660  -13.1080   22.2270 H   0  0  0  0  0  0  0  0  0  0  0  0
  -25.3830  -15.1840   20.3670 N   0  0  0  0  0  0  0  0  0  0  0  0
  -24.6100  -15.8340   20.4520 H   0  0  0  0  0  0  0  0  0  0  0  0
  -26.2270  -15.6210   20.0190 H   0  0  0  0  0  0  0  0  0  0  0  0
  1  2  2  0
  1  3  1  0
  2  4  1  0
  3  5  2  0
  4  7  1  0
  4  6  2  0
  5  6  1  0
  5 53  1  0
  6 11  1  0
  7  9  1  0
  9 12  1  0
  9  8  1  0
 10  7  2  0
 11  8  1  0
 13 24  2  0
 14 12  1  0
 14 19  1  0
 15 23  1  0
 15 25  1  0
 16 22  1  0
 16 18  1  0
 17 23  1  0
 18 17  1  0
 19 18  2  0
 20 21  1  0
 20 14  2  0
 21 16  2  0
 22 15  1  0
 23 13  1  0
 25 27  2  0
 26 25  1  0
 28 26  1  0
 29 38  2  0
 29 34  1  0
 30 26  1  0
 30 34  1  0
 31 30  1  0
 32 33  1  0
 32 31  1  0
 33 29  1  0
 34 35  2  0
 35 36  1  0
 37 36  2  0
 38 37  1  0
 39 13  1  0
 39 44  1  0
 39 40  1  0
 40 43  1  1
 40 41  1  0
 42 40  1  0
 44 47  1  0
 45 49  1  0
 45 44  1  0
 46 45  2  0
 49 48  1  0
 51 49  1  0
 51 52  1  0
 51 50  1  0
 54 53  1  0
 54 55  2  0
 56 64  1  0
 57 62  1  0
 58 59  1  0
 58 57  1  0
 60 59  1  0
 60 69  1  0
 60 61  1  0
 62 56  1  0
 62 61  1  0
 63 56  2  0
 64 65  1  0
 64 55  1  0
 66 67  2  0
 67 86  1  0
 68 67  1  0
 68 71  1  0
 69 66  1  0
 69 70  1  0
 70 68  2  0
 71 72  1  0
 72 73  2  0
 74 77  1  0
 74 73  1  0
 75 74  2  0
 76 75  1  0
 76 71  2  0
 77 78  1  0
 78 79  1  0
 79 80  2  0
 81 80  1  0
 81 85  1  0
 82 81  2  0
 83 78  2  0
 83 82  1  0
 84 83  1  0
 86 87  1  0
 87 90  1  0
 87 89  1  0
 88 86  2  0
 91 92  1  0
 91 66  1  0
 93 91  1  0
M  ISO  4   9 101  12 101  56 100  64 100
M  END
>  <TORSDO>  (56) 
F 19

>  <SCORE>  (56) 
-14.186

>  <name>  (56) 
56

>  <ligand_id>  (56) 
56

>  <original_smiles>  (56) 
[H]c1c([H])c2c(c(C([H])([H])C([H])([H])C([H])([H])N([H])C(=O)N3C([H])([H])C([H])([H])C([H])([H])C([H])(n4nc(-c5c([H])c([H])c(Oc6c([H])c([H])c(F)c([H])c6F)c([H])c5[H])c(C(=O)N([H])[H])c4N([H])[H])C3([H])[H])c1[H])OC([H])([H])C([H])(Oc1c([H])c([H])c3c(c1[H])C([H])([H])N(C(=O)C([H])(N([H])C(=O)C([H])(N([H])C([H])([H])[H])C([H])([H])[H])C(C([H])([H])[H])(C([H])([H])[H])C([H])([H])[H])C([H])(C(=O)N([H])C1([H])c4c([H])c([H])c([H])c([H])c4C([H])([H])C([H])([H])C1([H])[H])C3([H])[H])C2=O

>  <smiles>  (56) 
[H]c1c([H])c2c(c(C([H])([H])C([H])([H])C([H])([H])N([H])C(=O)N3C([H])([H])C([H])([H])C([H])([H])C([H])(n4nc(-c5c([H])c([H])c(Oc6c([H])c([H])c(F)c([H])c6F)c([H])c5[H])c(C(=O)N([H])[H])c4N([H])[H])C3([H])[H])c1[H])OC([H])([H])C([H])(Oc1c([H])c([H])c3c(c1[H])C([H])([H])N(C(=O)C([H])(N([H])C(=O)C([H])(N([H])C([H])([H])[H])C([H])([H])[H])C(C([H])([H])[H])(C([H])([H])[H])C([H])([H])[H])C([H])(C(=O)N([H])C1([H])c4c([H])c([H])c([H])c([H])c4C([H])([H])C([H])([H])C1([H])[H])C3([H])[H])C2=O

$$$$
57:0:0
     RDKit          3D

 95103  0  0  1  0  0  0  0  0999 V2000
  -26.5120  -22.2630   19.4260 C   0  0  0  0  0  2  0  0  0  0  0  0
  -26.2350  -23.2060   20.6030 C   0  0  0  0  0  0  0  0  0  0  0  0
  -27.0020  -24.2840   20.8040 N   0  0  0  0  0  0  0  0  0  0  0  0
  -25.2760  -22.9790   21.3400 O   0  0  0  0  0  0  0  0  0  0  0  0
  -26.7130  -24.8970   21.5530 H   0  0  0  0  0  0  0  0  0  0  0  0
  -28.2480  -24.6430   20.1300 C   0  0  0  0  0  2  0  0  0  0  0  0
  -28.7770  -26.0110   20.6050 C   0  0  0  0  0  2  0  0  0  0  0  0
  -28.5770  -27.0370   19.6360 O   0  0  0  0  0  0  0  0  0  0  0  0
  -24.5730  -31.7910   23.0910 C   0  0  0  0  0  0  0  0  0  0  0  0
  -27.3760  -27.6850   19.7290 C   0  0  0  0  0  0  0  0  0  0  0  0
  -23.4080  -30.4190   21.3920 C   0  0  0  0  0  3  0  0  0  0  0  0
  -24.9110  -29.0340   19.8700 C   0  0  0  0  0  0  0  0  0  0  0  0
  -25.9060  -30.9220   21.1770 C   0  0  0  0  0  2  0  0  0  0  0  0
  -26.0480  -29.5940   20.4670 C   0  0  0  0  0  0  0  0  0  0  0  0
  -27.2860  -28.9220   20.3980 C   0  0  0  0  0  3  0  0  0  0  0  0
  -26.2290  -27.1350   19.1220 C   0  0  0  0  0  3  0  0  0  0  0  0
  -24.9910  -27.8010   19.2020 C   0  0  0  0  0  3  0  0  0  0  0  0
  -23.6260  -29.8220   19.9770 C   0  0  0  0  0  2  0  0  0  0  0  0
  -24.6470  -31.0560   21.9460 N   0  0  0  0  0  0  0  0  0  0  0  0
  -23.4900  -31.9770   23.6620 O   0  0  0  0  0  0  0  0  0  0  0  0
  -22.8260  -29.3160   22.3060 C   0  0  0  0  0  0  0  0  0  0  0  0
  -21.5090  -29.0800   22.1940 N   0  0  0  0  0  0  0  0  0  0  0  0
  -23.5560  -28.6770   23.0670 O   0  0  0  0  0  0  0  0  0  0  0  0
  -20.9790  -29.6500   21.5490 H   0  0  0  0  0  0  0  0  0  0  0  0
  -18.2060  -27.6970   22.6620 C   0  0  0  0  0  0  0  0  0  0  0  0
  -20.7500  -28.0660   22.9250 C   0  0  0  0  0  3  0  0  0  0  0  0
  -20.9180  -26.6730   22.2740 C   0  0  0  0  0  2  0  0  0  0  0  0
  -19.8210  -26.3510   21.2540 C   0  0  0  0  0  2  0  0  0  0  0  0
  -18.4410  -26.3940   21.9150 C   0  0  0  0  0  2  0  0  0  0  0  0
  -19.2910  -28.4910   23.1200 C   0  0  0  0  0  0  0  0  0  0  0  0
  -19.0170  -29.7110   23.7740 C   0  0  0  0  0  3  0  0  0  0  0  0
  -17.6900  -30.1380   23.9750 C   0  0  0  0  0  3  0  0  0  0  0  0
  -16.6210  -29.3390   23.5350 C   0  0  0  0  0  3  0  0  0  0  0  0
  -16.8800  -28.1190   22.8830 C   0  0  0  0  0  3  0  0  0  0  0  0
  -25.8400  -32.4500   23.7230 C   0  0  0  0  0  3  0  0  0  0  0  0
  -25.4730  -33.8120   24.1300 N   0  0  0  0  0  0  0  0  0  0  0  0
  -25.7430  -34.9160   23.4190 C   0  0  0  0  0  0  0  0  0  0  0  0
  -26.3990  -34.8960   22.3740 O   0  0  0  0  0  0  0  0  0  0  0  0
  -24.8870  -33.8970   24.9470 H   0  0  0  0  0  0  0  0  0  0  0  0
  -23.9210  -36.6310   23.1820 C   0  0  0  0  0  1  0  0  0  0  0  0
  -25.1980  -36.2540   23.9510 C   0  0  0  0  0  3  0  0  0  0  0  0
  -27.3020  -37.2030   24.7860 C   0  0  0  0  0  1  0  0  0  0  0  0
  -26.1750  -37.3610   23.8690 N   0  0  0  0  0  0  0  0  0  0  0  0
  -25.7280  -38.2510   24.0670 H   0  0  0  0  0  0  0  0  0  0  0  0
  -26.4170  -31.6380   24.9460 C   0  0  1  0  0  0  0  0  0  0  0  0
  -25.3580  -31.2970   26.0190 C   0  0  0  0  0  1  0  0  0  0  0  0
  -27.0490  -30.3110   24.4670 C   0  0  0  0  0  1  0  0  0  0  0  0
  -27.5460  -32.4480   25.6270 C   0  0  0  0  0  1  0  0  0  0  0  0
  -27.1240  -20.9130   19.8460 C   0  0  0  0  0  2  0  0  0  0  0  0
  -28.6610  -20.9320   19.9680 C   0  0  0  0  0  2  0  0  0  0  0  0
  -29.5850  -19.1160   21.4960 C   0  0  0  0  0  3  0  0  0  0  0  0
  -30.1080  -17.8240   21.6890 C   0  0  0  0  0  3  0  0  0  0  0  0
  -29.4380  -18.6790   19.1110 C   0  0  0  0  0  3  0  0  0  0  0  0
  -29.2450  -19.5480   20.2010 C   0  0  0  0  0  0  0  0  0  0  0  0
  -29.9290  -17.3690   19.2930 C   0  0  0  0  0  0  0  0  0  0  0  0
  -30.2890  -16.9330   20.6060 C   0  0  0  0  0  0  0  0  0  0  0  0
  -29.9810  -16.4870   18.0550 C   0  0  0  0  0  1  0  0  0  0  0  0
  -31.3700  -14.6850   20.2890 C   0  0  0  0  0  0  0  0  0  0  0  0
  -31.1350  -12.4250   19.3310 C   0  0  0  0  0  2  0  0  0  0  0  0
  -30.1800  -12.4830   18.1190 C   0  0  0  0  0  2  0  0  0  0  0  0
  -28.7060  -12.3730   18.5620 C   0  0  0  0  0  2  0  0  0  0  0  0
  -28.3600  -13.3360   19.7290 C   0  0  0  0  0  3  0  0  0  0  0  0
  -29.4100  -13.2090   20.8520 C   0  0  0  0  0  2  0  0  0  0  0  0
  -30.7430  -13.4800   20.2750 N   0  0  0  0  0  0  0  0  0  0  0  0
  -32.4400  -14.9060   19.7100 O   0  0  0  0  0  0  0  0  0  0  0  0
  -30.7150  -15.6250   20.9850 N   0  0  0  0  0  0  0  0  0  0  0  0
  -30.1550  -15.2260   21.7220 H   0  0  0  0  0  0  0  0  0  0  0  0
  -26.0100  -14.0220   20.5360 C   0  0  0  0  0  0  0  0  0  0  0  0
  -24.9180  -13.2830   20.9050 C   0  0  0  0  0  0  0  0  0  0  0  0
  -25.3160  -11.9150   20.8000 C   0  0  0  0  0  0  0  0  0  0  0  0
  -27.0060  -13.1080   20.2330 N   0  0  0  0  0  0  0  0  0  0  0  0
  -26.5920  -11.8320   20.4440 N   0  0  0  0  0  0  0  0  0  0  0  0
  -24.5420  -10.6780   20.9600 C   0  0  0  0  0  0  0  0  0  0  0  0
  -24.9010   -9.7000   21.9140 C   0  0  0  0  0  3  0  0  0  0  0  0
  -24.1310   -8.5260   22.0590 C   0  0  0  0  0  3  0  0  0  0  0  0
  -22.9880   -8.3220   21.2490 C   0  0  0  0  0  0  0  0  0  0  0  0
  -22.6490   -9.2890   20.2860 C   0  0  0  0  0  3  0  0  0  0  0  0
  -23.4200  -10.4550   20.1390 C   0  0  0  0  0  3  0  0  0  0  0  0
  -22.1970   -7.2000   21.3010 O   0  0  0  0  0  0  0  0  0  0  0  0
  -21.9890   -6.5200   22.4740 C   0  0  0  0  0  0  0  0  0  0  0  0
  -21.4370   -7.1490   23.6130 C   0  0  0  0  0  3  0  0  0  0  0  0
  -21.1760   -6.3960   24.7750 C   0  0  0  0  0  3  0  0  0  0  0  0
  -21.4550   -5.0170   24.7990 C   0  0  0  0  0  0  0  0  0  0  0  0
  -22.0000   -4.3890   23.6660 C   0  0  0  0  0  3  0  0  0  0  0  0
  -22.2630   -5.1380   22.5060 C   0  0  0  0  0  0  0  0  0  0  0  0
  -22.7680   -4.5230   21.4100 F   0  0  0  0  0  0  0  0  0  0  0  0
  -21.1980   -4.2920   25.9140 F   0  0  0  0  0  0  0  0  0  0  0  0
  -23.5530  -13.8080   21.2490 C   0  0  0  0  0  0  0  0  0  0  0  0
  -22.8370  -13.1240   22.1330 N   0  0  0  0  0  0  0  0  0  0  0  0
  -23.1320  -14.8580   20.7650 O   0  0  0  0  0  0  0  0  0  0  0  0
  -23.1890  -12.2750   22.5500 H   0  0  0  0  0  0  0  0  0  0  0  0
  -21.9220  -13.4570   22.4000 H   0  0  0  0  0  0  0  0  0  0  0  0
  -26.2310  -15.3920   20.4180 N   0  0  0  0  0  0  0  0  0  0  0  0
  -25.5020  -16.0760   20.5930 H   0  0  0  0  0  0  0  0  0  0  0  0
  -27.1060  -15.8110   20.1270 H   0  0  0  0  0  0  0  0  0  0  0  0
  1 49  1  0
  1  2  1  0
  2  3  1  0
  2  4  2  0
  3  5  1  0
  6  7  1  0
  6  3  1  0
  8 10  1  0
  8  7  1  0
  9 20  2  0
 10 15  1  0
 11 19  1  0
 11 21  1  0
 12 18  1  0
 12 14  1  0
 13 19  1  0
 14 13  1  0
 15 14  2  0
 16 17  1  0
 16 10  2  0
 17 12  2  0
 18 11  1  0
 19  9  1  0
 21 23  2  0
 22 21  1  0
 24 22  1  0
 25 34  2  0
 25 30  1  0
 26 22  1  0
 26 30  1  0
 27 26  1  0
 28 29  1  0
 28 27  1  0
 29 25  1  0
 30 31  2  0
 31 32  1  0
 33 32  2  0
 34 33  1  0
 35  9  1  0
 35 36  1  0
 35 45  1  0
 36 39  1  0
 37 41  1  0
 37 36  1  0
 38 37  2  0
 41 40  1  0
 43 41  1  0
 43 44  1  0
 43 42  1  0
 45 48  1  1
 45 46  1  0
 47 45  1  0
 49 50  1  0
 50 54  1  0
 51 52  1  0
 53 55  2  0
 53 54  1  0
 54 51  2  0
 55 56  1  0
 56 66  1  0
 56 52  2  0
 57 55  1  0
 58 66  1  0
 59 64  1  0
 60 61  1  0
 60 59  1  0
 62 61  1  0
 62 71  1  0
 62 63  1  0
 64 58  1  0
 64 63  1  0
 65 58  2  0
 66 67  1  0
 68 69  2  0
 69 88  1  0
 70 69  1  0
 70 73  1  0
 71 72  1  0
 71 68  1  0
 72 70  2  0
 73 74  1  0
 74 75  2  0
 76 79  1  0
 76 75  1  0
 77 76  2  0
 78 77  1  0
 78 73  2  0
 79 80  1  0
 80 85  2  0
 80 81  1  0
 81 82  2  0
 82 83  1  0
 83 87  1  0
 84 83  2  0
 85 84  1  0
 86 85  1  0
 88 89  1  0
 89 92  1  0
 89 91  1  0
 90 88  2  0
 93 68  1  0
 93 94  1  0
 95 93  1  0
M  ISO  4   7 101   8 101  58 100  66 100
M  END
>  <TORSDO>  (57) 
F 22

>  <SCORE>  (57) 
-10.629

>  <name>  (57) 
57

>  <ligand_id>  (57) 
57

>  <original_smiles>  (57) 
[H]c1c([H])c([H])c2c(c1[H])C([H])([H])C([H])([H])C([H])([H])C2([H])N([H])C(=O)C1([H])N(C(=O)C([H])(N([H])C(=O)C([H])(N([H])C([H])([H])[H])C([H])([H])[H])C(C([H])([H])[H])(C([H])([H])[H])C([H])([H])[H])C([H])([H])c2c([H])c(OC([H])([H])C([H])([H])N([H])C(=O)C([H])([H])C([H])([H])C([H])([H])c3c([H])c([H])c(N([H])C(=O)N4C([H])([H])C([H])([H])C([H])([H])C([H])(n5nc(-c6c([H])c([H])c(Oc7c([H])c([H])c(F)c([H])c7F)c([H])c6[H])c(C(=O)N([H])[H])c5N([H])[H])C4([H])[H])c(C([H])([H])[H])c3[H])c([H])c([H])c2C1([H])[H]

>  <smiles>  (57) 
[H]c1c([H])c([H])c2c(c1[H])C([H])([H])C([H])([H])C([H])([H])C2([H])N([H])C(=O)C1([H])N(C(=O)C([H])(N([H])C(=O)C([H])(N([H])C([H])([H])[H])C([H])([H])[H])C(C([H])([H])[H])(C([H])([H])[H])C([H])([H])[H])C([H])([H])c2c([H])c(OC([H])([H])C([H])([H])N([H])C(=O)C([H])([H])C([H])([H])C([H])([H])c3c([H])c([H])c(N([H])C(=O)N4C([H])([H])C([H])([H])C([H])([H])C([H])(n5nc(-c6c([H])c([H])c(Oc7c([H])c([H])c(F)c([H])c7F)c([H])c6[H])c(C(=O)N([H])[H])c5N([H])[H])C4([H])[H])c(C([H])([H])[H])c3[H])c([H])c([H])c2C1([H])[H]

$$$$
58:0:0
     RDKit          3D

 97106  0  0  1  0  0  0  0  0999 V2000
  -27.3500  -22.9570   19.9600 C   0  0  0  0  0  0  0  0  0  0  0  0
  -27.1610  -21.6880   19.6040 N   0  0  0  0  0  4  0  0  0  0  0  0
  -28.0630  -23.2470   21.0590 N   0  0  0  0  0  0  0  0  0  0  0  0
  -26.5680  -21.4910   18.8130 H   0  0  0  0  0  0  0  0  0  0  0  0
  -27.4610  -20.9170   20.1720 H   0  0  0  0  0  0  0  0  0  0  0  0
  -28.2080  -24.2350   21.2290 H   0  0  0  0  0  0  0  0  0  0  0  0
  -26.6930  -25.4530   17.1810 C   0  0  0  0  0  3  0  0  0  0  0  0
  -27.3050  -24.4260   17.9280 C   0  0  0  0  0  3  0  0  0  0  0  0
  -25.5330  -26.0960   17.6640 C   0  0  0  0  0  3  0  0  0  0  0  0
  -25.6070  -24.6950   19.6540 C   0  0  0  0  0  3  0  0  0  0  0  0
  -26.7570  -24.0400   19.1710 C   0  0  0  0  0  0  0  0  0  0  0  0
  -24.9760  -25.7160   18.9070 C   0  0  0  0  0  0  0  0  0  0  0  0
  -19.5880  -27.2460   20.1210 C   0  0  0  0  0  0  0  0  0  0  0  0
  -17.3100  -26.7180   19.3530 C   0  0  0  0  0  2  0  0  0  0  0  0
  -17.1930  -25.2000   19.1130 C   0  0  0  0  0  2  0  0  0  0  0  0
  -17.6100  -24.8590   17.6690 C   0  0  0  0  0  2  0  0  0  0  0  0
  -18.9860  -25.4690   17.2950 C   0  0  0  0  0  3  0  0  0  0  0  0
  -19.0460  -26.9690   17.6690 C   0  0  0  0  0  2  0  0  0  0  0  0
  -18.7040  -27.1020   19.0960 N   0  0  0  0  0  0  0  0  0  0  0  0
  -19.2310  -27.3280   21.3030 O   0  0  0  0  0  0  0  0  0  0  0  0
  -23.0250  -27.4600   18.6620 C   0  0  0  0  0  2  0  0  0  0  0  0
  -22.6750  -25.2930   19.8860 C   0  0  0  0  0  2  0  0  0  0  0  0
  -21.8000  -28.0290   19.4230 C   0  0  0  0  0  2  0  0  0  0  0  0
  -21.5380  -25.9520   20.6660 C   0  0  0  0  0  2  0  0  0  0  0  0
  -23.7180  -26.3540   19.4960 C   0  0  0  0  0  3  0  0  0  0  0  0
  -20.8740  -26.9590   19.8270 N   0  0  0  0  0  0  0  0  0  0  0  0
  -20.2660  -24.4430   15.3090 C   0  0  0  0  0  0  0  0  0  0  0  0
  -20.0890  -24.5520   13.9570 C   0  0  0  0  0  0  0  0  0  0  0  0
  -18.9910  -25.4470   13.7720 C   0  0  0  0  0  0  0  0  0  0  0  0
  -19.2980  -25.2530   15.8860 N   0  0  0  0  0  0  0  0  0  0  0  0
  -18.5690  -25.9060   14.9440 N   0  0  0  0  0  0  0  0  0  0  0  0
  -18.2850  -25.8560   12.5510 C   0  0  0  0  0  0  0  0  0  0  0  0
  -18.5480  -27.0960   11.9290 C   0  0  0  0  0  3  0  0  0  0  0  0
  -17.8720  -27.4610   10.7460 C   0  0  0  0  0  3  0  0  0  0  0  0
  -16.9250  -26.5810   10.1710 C   0  0  0  0  0  0  0  0  0  0  0  0
  -16.6510  -25.3570   10.8060 C   0  0  0  0  0  3  0  0  0  0  0  0
  -17.3210  -24.9960   11.9860 C   0  0  0  0  0  3  0  0  0  0  0  0
  -16.2010  -26.8600    9.0380 O   0  0  0  0  0  0  0  0  0  0  0  0
  -16.7400  -27.5700    7.9940 C   0  0  0  0  0  0  0  0  0  0  0  0
  -17.6770  -26.9980    7.1080 C   0  0  0  0  0  3  0  0  0  0  0  0
  -18.1540  -27.7430    6.0100 C   0  0  0  0  0  3  0  0  0  0  0  0
  -17.6870  -29.0530    5.7940 C   0  0  0  0  0  0  0  0  0  0  0  0
  -16.7500  -29.6230    6.6730 C   0  0  0  0  0  3  0  0  0  0  0  0
  -16.2770  -28.8820    7.7690 C   0  0  0  0  0  0  0  0  0  0  0  0
  -15.3600  -29.4280    8.6030 F   0  0  0  0  0  0  0  0  0  0  0  0
  -18.1370  -29.7650    4.7340 F   0  0  0  0  0  0  0  0  0  0  0  0
  -20.8320  -23.7950   12.8920 C   0  0  0  0  0  0  0  0  0  0  0  0
  -21.1650  -24.4570   11.7890 N   0  0  0  0  0  0  0  0  0  0  0  0
  -21.1630  -22.6220   13.0550 O   0  0  0  0  0  0  0  0  0  0  0  0
  -20.9130  -25.4260   11.6640 H   0  0  0  0  0  0  0  0  0  0  0  0
  -21.6900  -23.9890   11.0620 H   0  0  0  0  0  0  0  0  0  0  0  0
  -21.1540  -23.7160   16.0970 N   0  0  0  0  0  0  0  0  0  0  0  0
  -21.8550  -23.1040   15.6920 H   0  0  0  0  0  0  0  0  0  0  0  0
  -21.1980  -23.7630   17.1060 H   0  0  0  0  0  0  0  0  0  0  0  0
  -28.7090  -22.3250   22.0150 C   0  0  0  0  0  2  0  0  0  0  0  0
  -30.2020  -22.1260   21.7090 C   0  0  0  0  0  2  0  0  0  0  0  0
  -30.6380  -20.8390   22.1550 O   0  0  0  0  0  0  0  0  0  0  0  0
  -35.6350  -18.3220   17.8350 C   0  0  0  0  0  0  0  0  0  0  0  0
  -30.9180  -19.9800   21.1260 C   0  0  0  0  0  0  0  0  0  0  0  0
  -33.3010  -17.8270   17.1760 C   0  0  0  0  0  3  0  0  0  0  0  0
  -31.5300  -18.3010   18.9470 C   0  0  0  0  0  0  0  0  0  0  0  0
  -33.9300  -18.1280   19.6360 C   0  0  0  0  0  2  0  0  0  0  0  0
  -32.5290  -18.6530   19.8650 C   0  0  0  0  0  0  0  0  0  0  0  0
  -32.2270  -19.4860   20.9610 C   0  0  0  0  0  3  0  0  0  0  0  0
  -29.9140  -19.6100   20.2040 C   0  0  0  0  0  3  0  0  0  0  0  0
  -30.2160  -18.7740   19.1140 C   0  0  0  0  0  3  0  0  0  0  0  0
  -31.9400  -17.4090   17.7980 C   0  0  0  0  0  2  0  0  0  0  0  0
  -34.3410  -18.1300   18.2130 N   0  0  0  0  0  0  0  0  0  0  0  0
  -35.9780  -18.2080   16.6500 O   0  0  0  0  0  0  0  0  0  0  0  0
  -33.0570  -18.9970   16.1960 C   0  0  0  0  0  0  0  0  0  0  0  0
  -32.5580  -18.6730   14.9930 N   0  0  0  0  0  0  0  0  0  0  0  0
  -33.2880  -20.1620   16.5310 O   0  0  0  0  0  0  0  0  0  0  0  0
  -32.4090  -17.6940   14.7910 H   0  0  0  0  0  0  0  0  0  0  0  0
  -31.2330  -18.8950   11.6390 C   0  0  0  0  0  0  0  0  0  0  0  0
  -32.2130  -19.6080   13.9230 C   0  0  0  0  0  3  0  0  0  0  0  0
  -30.8450  -20.2770   14.1880 C   0  0  0  0  0  2  0  0  0  0  0  0
  -29.6750  -19.5390   13.5270 C   0  0  0  0  0  2  0  0  0  0  0  0
  -29.8730  -19.4650   12.0110 C   0  0  0  0  0  2  0  0  0  0  0  0
  -32.3260  -18.9500   12.5430 C   0  0  0  0  0  0  0  0  0  0  0  0
  -33.5580  -18.3720   12.1640 C   0  0  0  0  0  3  0  0  0  0  0  0
  -33.7070  -17.7540   10.9090 C   0  0  0  0  0  3  0  0  0  0  0  0
  -32.6260  -17.7180   10.0110 C   0  0  0  0  0  3  0  0  0  0  0  0
  -31.3930  -18.2910   10.3750 C   0  0  0  0  0  3  0  0  0  0  0  0
  -36.7510  -18.6710   18.8710 C   0  0  0  0  0  3  0  0  0  0  0  0
  -37.3170  -20.1350   18.7080 C   0  0  1  0  0  0  0  0  0  0  0  0
  -38.0190  -20.3830   17.3540 C   0  0  0  0  0  1  0  0  0  0  0  0
  -36.1810  -21.1750   18.8470 C   0  0  0  0  0  1  0  0  0  0  0  0
  -38.3330  -20.4340   19.8340 C   0  0  0  0  0  1  0  0  0  0  0  0
  -37.8230  -17.6790   18.7180 N   0  0  0  0  0  0  0  0  0  0  0  0
  -37.9370  -16.5620   19.4500 C   0  0  0  0  0  0  0  0  0  0  0  0
  -37.1810  -16.2970   20.3880 O   0  0  0  0  0  0  0  0  0  0  0  0
  -38.4470  -17.8090   17.9360 H   0  0  0  0  0  0  0  0  0  0  0  0
  -38.4850  -14.3770   18.3360 C   0  0  0  0  0  1  0  0  0  0  0  0
  -39.0700  -15.5870   19.0820 C   0  0  0  0  0  3  0  0  0  0  0  0
  -40.7200  -16.1530   20.8090 C   0  0  0  0  0  1  0  0  0  0  0  0
  -39.8500  -15.1210   20.2490 N   0  0  0  0  0  0  0  0  0  0  0  0
  -40.4250  -14.3190   20.0040 H   0  0  0  0  0  0  0  0  0  0  0  0
  1  3  1  0
  2  1  2  0
  2  5  1  0
  3  6  1  0
  3 55  1  0
  4  2  1  0
  7  9  2  0
  7  8  1  0
  8 11  2  0
  9 12  1  0
 11 10  1  0
 11  1  1  0
 12 10  2  0
 13 20  2  0
 15 14  1  0
 16 15  1  0
 17 30  1  0
 17 18  1  0
 17 16  1  0
 18 19  1  0
 19 14  1  0
 19 13  1  0
 21 23  1  0
 21 25  1  0
 22 24  1  0
 23 26  1  0
 25 12  1  0
 25 22  1  0
 26 13  1  0
 26 24  1  0
 27 30  1  0
 27 52  1  0
 28 27  2  0
 29 28  1  0
 29 31  2  0
 31 30  1  0
 32 29  1  0
 33 32  2  0
 34 33  1  0
 35 34  2  0
 35 36  1  0
 36 37  2  0
 37 32  1  0
 38 35  1  0
 39 38  1  0
 40 39  2  0
 41 40  1  0
 42 41  2  0
 42 43  1  0
 43 44  2  0
 44 39  1  0
 44 45  1  0
 46 42  1  0
 47 49  2  0
 47 28  1  0
 48 47  1  0
 50 48  1  0
 51 48  1  0
 52 54  1  0
 53 52  1  0
 56 55  1  0
 56 57  1  0
 58 68  1  0
 59 57  1  0
 60 70  1  0
 60 67  1  0
 60 68  1  0
 61 66  2  0
 61 63  1  0
 62 63  1  0
 63 64  2  0
 64 59  1  0
 65 59  2  0
 66 65  1  0
 67 61  1  0
 68 62  1  0
 69 58  2  0
 70 72  2  0
 71 70  1  0
 73 71  1  0
 74 78  1  0
 74 79  1  0
 75 76  1  0
 75 71  1  0
 77 76  1  0
 78 77  1  0
 79 75  1  0
 80 79  2  0
 81 80  1  0
 82 83  1  0
 82 81  2  0
 83 74  2  0
 84 58  1  0
 85 87  1  1
 85 84  1  0
 85 88  1  0
 86 85  1  0
 89 84  1  0
 89 90  1  0
 90 91  2  0
 92 89  1  0
 94 93  1  0
 94 90  1  0
 94 96  1  0
 96 95  1  0
 97 96  1  0
M  ISO  4  13 100  26 100  56 101  57 101
M  END
>  <TORSDO>  (58) 
F 19

>  <SCORE>  (58) 
-6.619

>  <name>  (58) 
58

>  <ligand_id>  (58) 
58

>  <original_smiles>  (58) 
[H]c1c([H])c([H])c2c(c1[H])C([H])([H])C([H])([H])C([H])([H])C2([H])N([H])C(=O)C1([H])N(C(=O)C([H])(N([H])C(=O)C([H])(N([H])C([H])([H])[H])C([H])([H])[H])C(C([H])([H])[H])(C([H])([H])[H])C([H])([H])[H])C([H])([H])c2c([H])c(OC([H])([H])C([H])([H])[N+]([H])=C(c3c([H])c([H])c([H])c(C4([H])C([H])([H])C([H])([H])N(C(=O)N5C([H])([H])C([H])([H])C([H])([H])C([H])(n6nc(-c7c([H])c([H])c(Oc8c([H])c([H])c(F)c([H])c8F)c([H])c7[H])c(C(=O)N([H])[H])c6N([H])[H])C5([H])[H])C([H])([H])C4([H])[H])c3[H])N([H])[H])c([H])c([H])c2C1([H])[H]

>  <smiles>  (58) 
[H]c1c([H])c([H])c2c(c1[H])C([H])([H])C([H])([H])C([H])([H])C2([H])N([H])C(=O)C1([H])N(C(=O)C([H])(N([H])C(=O)C([H])(N([H])C([H])([H])[H])C([H])([H])[H])C(C([H])([H])[H])(C([H])([H])[H])C([H])([H])[H])C([H])([H])c2c([H])c(OC([H])([H])C([H])([H])[N+]([H])=C(c3c([H])c([H])c([H])c(C4([H])C([H])([H])C([H])([H])N(C(=O)N5C([H])([H])C([H])([H])C([H])([H])C([H])(n6nc(-c7c([H])c([H])c(Oc8c([H])c([H])c(F)c([H])c8F)c([H])c7[H])c(C(=O)N([H])[H])c6N([H])[H])C5([H])[H])C([H])([H])C4([H])[H])c3[H])N([H])[H])c([H])c([H])c2C1([H])[H]

$$$$
59:0:0
     RDKit          3D

 91100  0  0  1  0  0  0  0  0999 V2000
  -30.2760  -15.6570   20.2310 C   0  0  0  0  0  0  0  0  0  0  0  0
  -30.4260  -13.0820   19.5170 C   0  0  0  0  0  2  0  0  0  0  0  0
  -29.5460  -12.5710   18.3410 C   0  0  0  0  0  2  0  0  0  0  0  0
  -28.1620  -12.1660   18.8650 C   0  0  0  0  0  2  0  0  0  0  0  0
  -27.6040  -13.2350   19.8380 C   0  0  0  0  0  3  0  0  0  0  0  0
  -28.6230  -13.6700   20.9250 C   0  0  0  0  0  2  0  0  0  0  0  0
  -29.7720  -14.2790   20.2250 N   0  0  0  0  0  0  0  0  0  0  0  0
  -31.4930  -15.5920   19.9660 O   0  0  0  0  0  0  0  0  0  0  0  0
  -30.4630  -19.2240   21.6970 C   0  0  0  0  0  3  0  0  0  0  0  0
  -29.9940  -20.3180   21.0040 C   0  0  0  0  0  0  0  0  0  0  0  0
  -29.8550  -17.7610   21.7560 C   0  0  0  0  0  2  0  0  0  0  0  0
  -29.0430  -18.4400   19.5970 C   0  0  0  0  0  3  0  0  0  0  0  0
  -28.7380  -20.2010   20.1570 C   0  0  0  0  0  0  0  0  0  0  0  0
  -29.5780  -17.0410   20.4520 N   0  0  0  0  0  0  0  0  0  0  0  0
  -31.5680  -24.2640   20.3700 C   0  0  0  0  0  3  0  0  0  0  0  0
  -31.9350  -23.2050   19.5180 C   0  0  0  0  0  3  0  0  0  0  0  0
  -30.7650  -24.0000   21.4950 C   0  0  0  0  0  3  0  0  0  0  0  0
  -31.5020  -21.8910   19.7940 C   0  0  0  0  0  3  0  0  0  0  0  0
  -30.3250  -22.6860   21.7720 C   0  0  0  0  0  3  0  0  0  0  0  0
  -30.6900  -21.6220   20.9210 C   0  0  0  0  0  0  0  0  0  0  0  0
  -25.2610  -13.7310   20.6920 C   0  0  0  0  0  0  0  0  0  0  0  0
  -24.2150  -12.9330   21.0610 C   0  0  0  0  0  0  0  0  0  0  0  0
  -24.6860  -11.5870   20.9620 C   0  0  0  0  0  0  0  0  0  0  0  0
  -26.3010  -12.8750   20.3860 N   0  0  0  0  0  0  0  0  0  0  0  0
  -25.9700  -11.5760   20.6140 N   0  0  0  0  0  0  0  0  0  0  0  0
  -23.9700  -10.3150   21.1290 C   0  0  0  0  0  0  0  0  0  0  0  0
  -24.4170   -9.3230   22.0300 C   0  0  0  0  0  3  0  0  0  0  0  0
  -23.6970   -8.1190   22.1920 C   0  0  0  0  0  3  0  0  0  0  0  0
  -22.5100   -7.8980   21.4520 C   0  0  0  0  0  0  0  0  0  0  0  0
  -22.0800   -8.8780   20.5400 C   0  0  0  0  0  3  0  0  0  0  0  0
  -22.8030  -10.0700   20.3770 C   0  0  0  0  0  3  0  0  0  0  0  0
  -21.7590   -6.7470   21.5190 O   0  0  0  0  0  0  0  0  0  0  0  0
  -21.7040   -5.9900   22.6610 C   0  0  0  0  0  0  0  0  0  0  0  0
  -21.2420   -6.5260   23.8820 C   0  0  0  0  0  3  0  0  0  0  0  0
  -21.1320   -5.6960   25.0190 C   0  0  0  0  0  3  0  0  0  0  0  0
  -21.4810   -4.3350   24.9330 C   0  0  0  0  0  0  0  0  0  0  0  0
  -21.9380   -3.8020   23.7170 C   0  0  0  0  0  3  0  0  0  0  0  0
  -22.0470   -4.6260   22.5860 C   0  0  0  0  0  0  0  0  0  0  0  0
  -22.4680   -4.1020   21.4080 F   0  0  0  0  0  0  0  0  0  0  0  0
  -21.3680   -3.5400   26.0220 F   0  0  0  0  0  0  0  0  0  0  0  0
  -22.8260  -13.3930   21.3860 C   0  0  0  0  0  0  0  0  0  0  0  0
  -22.1250  -12.6810   22.2600 N   0  0  0  0  0  0  0  0  0  0  0  0
  -22.3770  -14.4320   20.9030 O   0  0  0  0  0  0  0  0  0  0  0  0
  -22.5050  -11.8480   22.6790 H   0  0  0  0  0  0  0  0  0  0  0  0
  -21.1960  -12.9890   22.5180 H   0  0  0  0  0  0  0  0  0  0  0  0
  -25.4100  -15.1080   20.5560 N   0  0  0  0  0  0  0  0  0  0  0  0
  -24.6510  -15.7570   20.7290 H   0  0  0  0  0  0  0  0  0  0  0  0
  -26.2580  -15.5600   20.2380 H   0  0  0  0  0  0  0  0  0  0  0  0
  -28.2130  -21.9030   19.3910 C   0  0  0  0  0  2  0  0  0  0  0  0
  -27.5940  -23.6980   19.8080 C   0  0  0  0  0  2  0  0  0  0  0  0
  -27.8020  -25.4260   19.5410 O   0  0  0  0  0  0  0  0  0  0  0  0
  -24.6700  -31.6910   22.9740 C   0  0  0  0  0  0  0  0  0  0  0  0
  -26.8690  -26.6600   19.6520 C   0  0  0  0  0  0  0  0  0  0  0  0
  -23.3570  -30.3820   21.3630 C   0  0  0  0  0  3  0  0  0  0  0  0
  -24.6740  -28.7570   19.8090 C   0  0  0  0  0  0  0  0  0  0  0  0
  -25.9300  -30.4610   21.1000 C   0  0  0  0  0  2  0  0  0  0  0  0
  -25.9140  -29.0540   20.3870 C   0  0  0  0  0  0  0  0  0  0  0  0
  -27.0020  -28.0360   20.2740 C   0  0  0  0  0  3  0  0  0  0  0  0
  -25.5980  -26.5760   19.0380 C   0  0  0  0  0  3  0  0  0  0  0  0
  -24.5540  -27.5420   19.1120 C   0  0  0  0  0  3  0  0  0  0  0  0
  -23.5030  -29.7390   19.9560 C   0  0  0  0  0  2  0  0  0  0  0  0
  -24.6810  -30.8760   21.8640 N   0  0  0  0  0  0  0  0  0  0  0  0
  -23.6160  -32.0010   23.5530 O   0  0  0  0  0  0  0  0  0  0  0  0
  -22.6740  -29.3830   22.3350 C   0  0  0  0  0  0  0  0  0  0  0  0
  -21.3330  -29.2630   22.2790 N   0  0  0  0  0  0  0  0  0  0  0  0
  -23.3590  -28.7170   23.1150 O   0  0  0  0  0  0  0  0  0  0  0  0
  -20.8240  -29.8480   21.6300 H   0  0  0  0  0  0  0  0  0  0  0  0
  -17.9540  -28.0690   22.8970 C   0  0  0  0  0  0  0  0  0  0  0  0
  -20.5270  -28.3160   23.0610 C   0  0  0  0  0  3  0  0  0  0  0  0
  -20.5920  -26.8940   22.4540 C   0  0  0  0  0  2  0  0  0  0  0  0
  -19.4500  -26.6000   21.4760 C   0  0  0  0  0  2  0  0  0  0  0  0
  -18.0950  -26.7360   22.1780 C   0  0  0  0  0  2  0  0  0  0  0  0
  -19.0950  -28.8180   23.2950 C   0  0  0  0  0  0  0  0  0  0  0  0
  -18.9070  -30.0620   23.9330 C   0  0  0  0  0  3  0  0  0  0  0  0
  -17.6130  -30.5650   24.1680 C   0  0  0  0  0  3  0  0  0  0  0  0
  -16.4880  -29.8150   23.7840 C   0  0  0  0  0  3  0  0  0  0  0  0
  -16.6590  -28.5690   23.1550 C   0  0  0  0  0  3  0  0  0  0  0  0
  -25.9820  -32.2890   23.5640 C   0  0  0  0  0  3  0  0  0  0  0  0
  -25.7020  -33.6690   24.0090 N   0  0  0  0  0  0  0  0  0  0  0  0
  -26.0320  -34.7810   23.3340 C   0  0  0  0  0  0  0  0  0  0  0  0
  -26.6610  -34.7490   22.2730 O   0  0  0  0  0  0  0  0  0  0  0  0
  -25.1370  -33.7700   24.8390 H   0  0  0  0  0  0  0  0  0  0  0  0
  -24.3340  -36.6370   23.2050 C   0  0  0  0  0  1  0  0  0  0  0  0
  -25.5970  -36.1400   23.9230 C   0  0  0  0  0  3  0  0  0  0  0  0
  -27.7820  -36.9150   24.7340 C   0  0  0  0  0  1  0  0  0  0  0  0
  -26.6490  -37.1790   23.8510 N   0  0  0  0  0  0  0  0  0  0  0  0
  -26.2700  -38.0930   24.0850 H   0  0  0  0  0  0  0  0  0  0  0  0
  -26.5570  -31.4470   24.7720 C   0  0  1  0  0  0  0  0  0  0  0  0
  -25.5260  -31.1870   25.8990 C   0  0  0  0  0  1  0  0  0  0  0  0
  -27.0760  -30.0730   24.2910 C   0  0  0  0  0  1  0  0  0  0  0  0
  -27.7720  -32.1770   25.3930 C   0  0  0  0  0  1  0  0  0  0  0  0
  1 14  1  0
  2  7  1  0
  3  4  1  0
  3  2  1  0
  5  4  1  0
  5 24  1  0
  5  6  1  0
  7  1  1  0
  7  6  1  0
  8  1  2  0
  9 11  1  0
 10  9  2  0
 12 13  2  0
 12 14  1  0
 13 10  1  0
 14 11  1  0
 15 17  1  0
 16 18  1  0
 16 15  2  0
 17 19  2  0
 18 20  2  0
 20 10  1  0
 20 19  1  0
 21 22  2  0
 22 41  1  0
 23 22  1  0
 23 26  1  0
 24 25  1  0
 24 21  1  0
 25 23  2  0
 26 27  1  0
 27 28  2  0
 29 32  1  0
 29 28  1  0
 30 29  2  0
 31 30  1  0
 31 26  2  0
 32 33  1  0
 33 34  1  0
 34 35  2  0
 36 35  1  0
 36 40  1  0
 37 36  2  0
 38 33  2  0
 38 37  1  0
 39 38  1  0
 41 42  1  0
 42 45  1  0
 42 44  1  0
 43 41  2  0
 46 21  1  0
 46 47  1  0
 48 46  1  0
 49 50  1  0
 49 13  1  0
 51 53  1  0
 51 50  1  0
 52 63  2  0
 53 58  1  0
 54 62  1  0
 54 64  1  0
 55 61  1  0
 55 57  1  0
 56 62  1  0
 57 56  1  0
 58 57  2  0
 59 60  1  0
 59 53  2  0
 60 55  2  0
 61 54  1  0
 62 52  1  0
 64 66  2  0
 65 64  1  0
 67 65  1  0
 68 77  2  0
 68 73  1  0
 69 65  1  0
 69 73  1  0
 70 69  1  0
 71 72  1  0
 71 70  1  0
 72 68  1  0
 73 74  2  0
 74 75  1  0
 76 75  2  0
 77 76  1  0
 78 52  1  0
 78 79  1  0
 78 88  1  0
 79 82  1  0
 80 84  1  0
 80 79  1  0
 81 80  2  0
 84 83  1  0
 86 84  1  0
 86 87  1  0
 86 85  1  0
 88 91  1  1
 88 89  1  0
 90 88  1  0
M  ISO  4   1 100  14 100  50 101  51 101
M  END
>  <TORSDO>  (59) 
F 18

>  <SCORE>  (59) 
-15.388

>  <name>  (59) 
59

>  <ligand_id>  (59) 
59

>  <original_smiles>  (59) 
[H]C1=C(c2c([H])c([H])c([H])c([H])c2[H])C([H])(C([H])([H])C([H])([H])Oc2c([H])c([H])c3c(c2[H])C([H])([H])N(C(=O)C([H])(N([H])C(=O)C([H])(N([H])C([H])([H])[H])C([H])([H])[H])C(C([H])([H])[H])(C([H])([H])[H])C([H])([H])[H])C([H])(C(=O)N([H])C2([H])c4c([H])c([H])c([H])c([H])c4C([H])([H])C([H])([H])C2([H])[H])C3([H])[H])C([H])([H])N(C(=O)N2C([H])([H])C([H])([H])C([H])([H])C([H])(n3nc(-c4c([H])c([H])c(Oc5c([H])c([H])c(F)c([H])c5F)c([H])c4[H])c(C(=O)N([H])[H])c3N([H])[H])C2([H])[H])C1([H])[H]

>  <smiles>  (59) 
[H]C1=C(c2c([H])c([H])c([H])c([H])c2[H])C([H])(C([H])([H])C([H])([H])Oc2c([H])c([H])c3c(c2[H])C([H])([H])N(C(=O)C([H])(N([H])C(=O)C([H])(N([H])C([H])([H])[H])C([H])([H])[H])C(C([H])([H])[H])(C([H])([H])[H])C([H])([H])[H])C([H])(C(=O)N([H])C2([H])c4c([H])c([H])c([H])c([H])c4C([H])([H])C([H])([H])C2([H])[H])C3([H])[H])C([H])([H])N(C(=O)N2C([H])([H])C([H])([H])C([H])([H])C([H])(n3nc(-c4c([H])c([H])c(Oc5c([H])c([H])c(F)c([H])c5F)c([H])c4[H])c(C(=O)N([H])[H])c3N([H])[H])C2([H])[H])C1([H])[H]

$$$$
60:0:0
     RDKit          3D

 87 95  0  0  1  0  0  0  0  0999 V2000
  -28.6020  -22.0740   19.9520 C   0  0  0  0  0  2  0  0  0  0  0  0
  -29.9610  -17.1610   20.6690 C   0  0  0  0  0  2  0  0  0  0  0  0
  -30.0190  -18.5260   20.6980 C   0  0  0  0  0  0  0  0  0  0  0  0
  -29.3810  -20.7220   20.4050 C   0  0  0  0  0  0  0  0  0  0  0  0
  -30.9610  -19.3270   21.5760 C   0  0  0  0  0  2  0  0  0  0  0  0
  -30.5480  -20.8080   21.3600 C   0  0  0  0  0  3  0  0  0  0  0  0
  -29.1410  -19.4730   20.0670 N   0  0  0  0  0  0  0  0  0  0  0  0
  -29.8070  -15.9350   20.8800 N   0  0  0  0  0  2  0  0  0  0  0  0
  -30.6090  -14.8270   20.4160 C   0  0  0  0  0  0  0  0  0  0  0  0
  -30.4460  -12.5390   19.3860 C   0  0  0  0  0  2  0  0  0  0  0  0
  -29.5240  -12.6250   18.1480 C   0  0  0  0  0  2  0  0  0  0  0  0
  -28.0480  -12.4450   18.5520 C   0  0  0  0  0  2  0  0  0  0  0  0
  -27.6580  -13.3210   19.7730 C   0  0  0  0  0  3  0  0  0  0  0  0
  -28.7000  -13.2090   20.9060 C   0  0  0  0  0  2  0  0  0  0  0  0
  -30.0090  -13.5810   20.3490 N   0  0  0  0  0  0  0  0  0  0  0  0
  -31.7700  -14.9330   20.0150 O   0  0  0  0  0  0  0  0  0  0  0  0
  -25.2540  -13.9130   20.4480 C   0  0  0  0  0  0  0  0  0  0  0  0
  -24.1830  -13.1410   20.8080 C   0  0  0  0  0  0  0  0  0  0  0  0
  -24.6510  -11.7910   20.8060 C   0  0  0  0  0  0  0  0  0  0  0  0
  -26.3050  -13.0330   20.2420 N   0  0  0  0  0  0  0  0  0  0  0  0
  -25.9460  -11.7520   20.5200 N   0  0  0  0  0  0  0  0  0  0  0  0
  -23.9260  -10.5290   21.0040 C   0  0  0  0  0  0  0  0  0  0  0  0
  -24.3500   -9.5720   21.9520 C   0  0  0  0  0  3  0  0  0  0  0  0
  -23.6240   -8.3760   22.1360 C   0  0  0  0  0  3  0  0  0  0  0  0
  -22.4590   -8.1270   21.3720 C   0  0  0  0  0  0  0  0  0  0  0  0
  -22.0540   -9.0730   20.4140 C   0  0  0  0  0  3  0  0  0  0  0  0
  -22.7800  -10.2610   20.2280 C   0  0  0  0  0  3  0  0  0  0  0  0
  -21.7060   -6.9830   21.4640 O   0  0  0  0  0  0  0  0  0  0  0  0
  -21.6490   -6.2480   22.6210 C   0  0  0  0  0  0  0  0  0  0  0  0
  -21.2110   -6.8100   23.8400 C   0  0  0  0  0  3  0  0  0  0  0  0
  -21.1030   -6.0010   24.9890 C   0  0  0  0  0  3  0  0  0  0  0  0
  -21.4240   -4.6310   24.9200 C   0  0  0  0  0  0  0  0  0  0  0  0
  -21.8540   -4.0700   23.7060 C   0  0  0  0  0  3  0  0  0  0  0  0
  -21.9630   -4.8760   22.5590 C   0  0  0  0  0  0  0  0  0  0  0  0
  -22.3580   -4.3240   21.3850 F   0  0  0  0  0  0  0  0  0  0  0  0
  -21.3120   -3.8520   26.0220 F   0  0  0  0  0  0  0  0  0  0  0  0
  -22.7810  -13.6170   21.0490 C   0  0  0  0  0  0  0  0  0  0  0  0
  -22.0400  -12.9280   21.9090 N   0  0  0  0  0  0  0  0  0  0  0  0
  -22.3500  -14.6350   20.5090 O   0  0  0  0  0  0  0  0  0  0  0  0
  -22.4020  -12.1040   22.3660 H   0  0  0  0  0  0  0  0  0  0  0  0
  -21.0970  -13.2260   22.1130 H   0  0  0  0  0  0  0  0  0  0  0  0
  -25.4220  -15.2820   20.2580 N   0  0  0  0  0  0  0  0  0  0  0  0
  -24.6610  -15.9460   20.3470 H   0  0  0  0  0  0  0  0  0  0  0  0
  -26.2950  -15.7140   19.9810 H   0  0  0  0  0  0  0  0  0  0  0  0
  -28.9890  -23.6000   20.4190 C   0  0  0  0  0  3  0  0  0  0  0  0
  -28.0090  -24.8480   20.0080 C   0  0  0  0  0  3  0  0  0  0  0  0
  -28.2670  -26.3260   20.2580 O   0  0  0  0  0  0  0  0  0  0  0  0
  -24.6060  -31.8860   23.2400 C   0  0  0  0  0  0  0  0  0  0  0  0
  -27.1860  -27.2520   20.1870 C   0  0  0  0  0  0  0  0  0  0  0  0
  -23.3970  -30.4920   21.6060 C   0  0  0  0  0  3  0  0  0  0  0  0
  -24.8390  -28.9320   20.1760 C   0  0  0  0  0  0  0  0  0  0  0  0
  -25.9440  -30.7810   21.4250 C   0  0  0  0  0  2  0  0  0  0  0  0
  -26.0170  -29.3980   20.7720 C   0  0  0  0  0  0  0  0  0  0  0  0
  -27.1930  -28.5730   20.7640 C   0  0  0  0  0  3  0  0  0  0  0  0
  -25.9830  -26.8690   19.5520 C   0  0  0  0  0  3  0  0  0  0  0  0
  -24.8280  -27.6750   19.5550 C   0  0  0  0  0  3  0  0  0  0  0  0
  -23.6080  -29.8180   20.2260 C   0  0  0  0  0  2  0  0  0  0  0  0
  -24.6680  -31.0720   22.1440 N   0  0  0  0  0  0  0  0  0  0  0  0
  -23.5220  -32.1690   23.7730 O   0  0  0  0  0  0  0  0  0  0  0  0
  -22.7290  -29.4780   22.5670 C   0  0  0  0  0  0  0  0  0  0  0  0
  -21.4020  -29.3040   22.4410 N   0  0  0  0  0  0  0  0  0  0  0  0
  -23.4050  -28.8530   23.3880 O   0  0  0  0  0  0  0  0  0  0  0  0
  -20.9130  -29.8630   21.7550 H   0  0  0  0  0  0  0  0  0  0  0  0
  -18.0220  -28.1090   22.9500 C   0  0  0  0  0  0  0  0  0  0  0  0
  -20.5820  -28.3680   23.2150 C   0  0  0  0  0  3  0  0  0  0  0  0
  -20.6800  -26.9350   22.6430 C   0  0  0  0  0  2  0  0  0  0  0  0
  -19.5770  -26.6110   21.6300 C   0  0  0  0  0  2  0  0  0  0  0  0
  -18.1950  -26.7580   22.2760 C   0  0  0  0  0  2  0  0  0  0  0  0
  -19.1420  -28.8710   23.3760 C   0  0  0  0  0  0  0  0  0  0  0  0
  -18.9240  -30.1350   23.9660 C   0  0  0  0  0  3  0  0  0  0  0  0
  -17.6190  -30.6360   24.1350 C   0  0  0  0  0  3  0  0  0  0  0  0
  -16.5140  -29.8710   23.7240 C   0  0  0  0  0  3  0  0  0  0  0  0
  -16.7160  -28.6090   23.1370 C   0  0  0  0  0  3  0  0  0  0  0  0
  -25.8890  -32.5180   23.8620 C   0  0  0  0  0  3  0  0  0  0  0  0
  -26.4000  -31.7510   25.1440 C   0  0  1  0  0  0  0  0  0  0  0  0
  -25.3050  -31.5230   26.2120 C   0  0  0  0  0  1  0  0  0  0  0  0
  -26.9800  -30.3670   24.7640 C   0  0  0  0  0  1  0  0  0  0  0  0
  -27.5520  -32.5440   25.8030 C   0  0  0  0  0  1  0  0  0  0  0  0
  -25.5820  -33.9180   24.1880 N   0  0  0  0  0  0  0  0  0  0  0  0
  -25.9120  -34.9700   23.4260 C   0  0  0  0  0  0  0  0  0  0  0  0
  -26.5770  -34.8630   22.3930 O   0  0  0  0  0  0  0  0  0  0  0  0
  -24.9920  -34.0760   24.9910 H   0  0  0  0  0  0  0  0  0  0  0  0
  -24.1880  -36.7690   23.0770 C   0  0  0  0  0  1  0  0  0  0  0  0
  -25.4310  -36.3610   23.8840 C   0  0  0  0  0  3  0  0  0  0  0  0
  -27.5700  -37.2420   24.7080 C   0  0  0  0  0  1  0  0  0  0  0  0
  -26.4660  -37.4100   23.7660 N   0  0  0  0  0  0  0  0  0  0  0  0
  -26.0640  -38.3330   23.9100 H   0  0  0  0  0  0  0  0  0  0  0  0
  1  4  1  0
  1 45  1  0
  2  3  1  0
  2  8  1  0
  3  5  1  0
  4  6  2  0
  6  5  1  0
  7  4  1  0
  7  3  2  0
  9  8  1  0
 10 15  1  0
 11 12  1  0
 11 10  1  0
 13 12  1  0
 13 20  1  0
 13 14  1  0
 15  9  1  0
 15 14  1  0
 16  9  2  0
 17 18  2  0
 18 37  1  0
 19 18  1  0
 19 22  1  0
 20 17  1  0
 20 21  1  0
 21 19  2  0
 22 23  1  0
 23 24  2  0
 25 28  1  0
 25 24  1  0
 26 25  2  0
 27 26  1  0
 27 22  2  0
 28 29  1  0
 29 30  1  0
 30 31  2  0
 32 31  1  0
 32 36  1  0
 33 32  2  0
 34 29  2  0
 34 33  1  0
 35 34  1  0
 37 38  1  0
 38 41  1  0
 38 40  1  0
 39 37  2  0
 42 43  1  0
 42 17  1  0
 44 42  1  0
 46 47  1  0
 46 45  2  0
 48 59  2  0
 49 47  1  0
 49 54  1  0
 50 58  1  0
 50 60  1  0
 51 57  1  0
 51 53  1  0
 52 58  1  0
 53 52  1  0
 54 53  2  0
 55 56  1  0
 55 49  2  0
 56 51  2  0
 57 50  1  0
 58 48  1  0
 60 62  2  0
 61 60  1  0
 63 61  1  0
 64 73  2  0
 64 69  1  0
 65 61  1  0
 65 69  1  0
 66 65  1  0
 67 68  1  0
 67 66  1  0
 68 64  1  0
 69 70  2  0
 70 71  1  0
 72 71  2  0
 73 72  1  0
 74 48  1  0
 74 79  1  0
 74 75  1  0
 75 78  1  1
 75 76  1  0
 77 75  1  0
 79 82  1  0
 80 84  1  0
 80 79  1  0
 81 80  2  0
 84 83  1  0
 86 84  1  0
 86 87  1  0
 86 85  1  0
M  ISO  4   8 100   9 100  46 101  47 101
M  END
>  <TORSDO>  (60) 
F 19

>  <SCORE>  (60) 
-14.260

>  <name>  (60) 
60

>  <ligand_id>  (60) 
60

>  <original_smiles>  (60) 
[H]c1c([H])c([H])c2c(c1[H])C([H])([H])C([H])([H])C([H])([H])C2([H])N([H])C(=O)C1([H])N(C(=O)C([H])(N([H])C(=O)C([H])(N([H])C([H])([H])[H])C([H])([H])[H])C(C([H])([H])[H])(C([H])([H])[H])C([H])([H])[H])C([H])([H])c2c([H])c(OC([H])([H])C([H])([H])C([H])([H])C3=NC(=C=NC(=O)N4C([H])([H])C([H])([H])C([H])([H])C([H])(n5nc(-c6c([H])c([H])c(Oc7c([H])c([H])c(F)c([H])c7F)c([H])c6[H])c(C(=O)N([H])[H])c5N([H])[H])C4([H])[H])C([H])([H])C3([H])[H])c([H])c([H])c2C1([H])[H]

>  <smiles>  (60) 
[H]c1c([H])c([H])c2c(c1[H])C([H])([H])C([H])([H])C([H])([H])C2([H])N([H])C(=O)C1([H])N(C(=O)C([H])(N([H])C(=O)C([H])(N([H])C([H])([H])[H])C([H])([H])[H])C(C([H])([H])[H])(C([H])([H])[H])C([H])([H])[H])C([H])([H])c2c([H])c(OC([H])([H])C([H])([H])C([H])([H])C3=NC(=C=NC(=O)N4C([H])([H])C([H])([H])C([H])([H])C([H])(n5nc(-c6c([H])c([H])c(Oc7c([H])c([H])c(F)c([H])c7F)c([H])c6[H])c(C(=O)N([H])[H])c5N([H])[H])C4([H])[H])C([H])([H])C3([H])[H])c([H])c([H])c2C1([H])[H]

$$$$
61:0:0
     RDKit          3D

 91 99  0  0  1  0  0  0  0  0999 V2000
  -30.3770  -15.5340   20.3280 C   0  0  0  0  0  0  0  0  0  0  0  0
  -30.3570  -13.0470   19.4650 C   0  0  0  0  0  2  0  0  0  0  0  0
  -29.4620  -12.7120   18.2470 C   0  0  0  0  0  2  0  0  0  0  0  0
  -28.0360  -12.3820   18.7080 C   0  0  0  0  0  2  0  0  0  0  0  0
  -27.5400  -13.3760   19.7820 C   0  0  0  0  0  3  0  0  0  0  0  0
  -28.5740  -13.6580   20.8950 C   0  0  0  0  0  2  0  0  0  0  0  0
  -29.7610  -14.2290   20.2250 N   0  0  0  0  0  0  0  0  0  0  0  0
  -31.6090  -15.3950   20.2220 O   0  0  0  0  0  0  0  0  0  0  0  0
  -30.0210  -19.8010   21.2280 C   0  0  0  0  0  2  0  0  0  0  0  0
  -30.6130  -18.2610   20.7520 C   0  0  0  0  0  2  0  0  0  0  0  0
  -28.5570  -17.7660   19.9270 C   0  0  0  0  0  2  0  0  0  0  0  0
  -28.8190  -20.7420   20.5680 C   0  0  0  0  0  3  0  0  0  0  0  0
  -28.4840  -19.4650   19.5330 C   0  0  0  0  0  3  0  0  0  0  0  0
  -29.8050  -16.9620   20.4370 N   0  0  0  0  0  0  0  0  0  0  0  0
  -25.1740  -13.9020   20.5430 C   0  0  0  0  0  0  0  0  0  0  0  0
  -24.1160  -13.1150   20.9010 C   0  0  0  0  0  0  0  0  0  0  0  0
  -24.5940  -11.7690   20.8690 C   0  0  0  0  0  0  0  0  0  0  0  0
  -26.2230  -13.0360   20.3000 N   0  0  0  0  0  0  0  0  0  0  0  0
  -25.8880  -11.7460   20.5640 N   0  0  0  0  0  0  0  0  0  0  0  0
  -23.8730  -10.5000   21.0490 C   0  0  0  0  0  0  0  0  0  0  0  0
  -24.2960   -9.5360   21.9890 C   0  0  0  0  0  3  0  0  0  0  0  0
  -23.5720   -8.3360   22.1600 C   0  0  0  0  0  3  0  0  0  0  0  0
  -22.4100   -8.0920   21.3880 C   0  0  0  0  0  0  0  0  0  0  0  0
  -22.0070   -9.0450   20.4370 C   0  0  0  0  0  3  0  0  0  0  0  0
  -22.7320  -10.2360   20.2650 C   0  0  0  0  0  3  0  0  0  0  0  0
  -21.6590   -6.9440   21.4660 O   0  0  0  0  0  0  0  0  0  0  0  0
  -21.5830   -6.2110   22.6240 C   0  0  0  0  0  0  0  0  0  0  0  0
  -21.1200   -6.7760   23.8320 C   0  0  0  0  0  3  0  0  0  0  0  0
  -20.9900   -5.9700   24.9810 C   0  0  0  0  0  3  0  0  0  0  0  0
  -21.3130   -4.6010   24.9220 C   0  0  0  0  0  0  0  0  0  0  0  0
  -21.7690   -4.0350   23.7180 C   0  0  0  0  0  3  0  0  0  0  0  0
  -21.9000   -4.8390   22.5720 C   0  0  0  0  0  0  0  0  0  0  0  0
  -22.3200   -4.2850   21.4090 F   0  0  0  0  0  0  0  0  0  0  0  0
  -21.1820   -3.8250   26.0240 F   0  0  0  0  0  0  0  0  0  0  0  0
  -22.7140  -13.5840   21.1580 C   0  0  0  0  0  0  0  0  0  0  0  0
  -21.9830  -12.8880   22.0210 N   0  0  0  0  0  0  0  0  0  0  0  0
  -22.2760  -14.6040   20.6270 O   0  0  0  0  0  0  0  0  0  0  0  0
  -22.3520  -12.0660   22.4730 H   0  0  0  0  0  0  0  0  0  0  0  0
  -21.0450  -13.1900   22.2380 H   0  0  0  0  0  0  0  0  0  0  0  0
  -25.3290  -15.2750   20.3750 N   0  0  0  0  0  0  0  0  0  0  0  0
  -24.5600  -15.9240   20.4920 H   0  0  0  0  0  0  0  0  0  0  0  0
  -26.1860  -15.7160   20.0700 H   0  0  0  0  0  0  0  0  0  0  0  0
  -27.1650  -19.7310   18.9340 N   0  0  0  0  0  4  0  0  0  0  0  0
  -26.4270  -19.6090   19.6040 H   0  0  0  0  0  0  0  0  0  0  0  0
  -26.9940  -19.1170   18.1590 H   0  0  0  0  0  0  0  0  0  0  0  0
  -27.1220  -20.6720   18.5850 H   0  0  0  0  0  0  0  0  0  0  0  0
  -28.9440  -22.6150   20.2970 C   0  0  0  0  0  2  0  0  0  0  0  0
  -27.8550  -24.1040   20.4300 C   0  0  0  0  0  0  0  0  0  0  0  0
  -26.6480  -23.7890   20.6310 N   0  0  0  0  0  0  0  0  0  0  0  0
  -26.5260  -22.7850   20.6790 H   0  0  0  0  0  0  0  0  0  0  0  0
  -28.1480  -25.6570   20.3380 O   0  0  0  0  0  0  0  0  0  0  0  0
  -24.6480  -31.9030   23.2070 C   0  0  0  0  0  0  0  0  0  0  0  0
  -27.1850  -26.8500   20.2930 C   0  0  0  0  0  0  0  0  0  0  0  0
  -23.4690  -30.4900   21.5770 C   0  0  0  0  0  3  0  0  0  0  0  0
  -24.9220  -28.8420   20.1920 C   0  0  0  0  0  0  0  0  0  0  0  0
  -26.0450  -30.6440   21.4730 C   0  0  0  0  0  2  0  0  0  0  0  0
  -26.1090  -29.2100   20.8380 C   0  0  0  0  0  0  0  0  0  0  0  0
  -27.2280  -28.2380   20.8690 C   0  0  0  0  0  3  0  0  0  0  0  0
  -25.9770  -26.6900   19.5700 C   0  0  0  0  0  3  0  0  0  0  0  0
  -24.8910  -27.6040   19.5360 C   0  0  0  0  0  3  0  0  0  0  0  0
  -23.7150  -29.7860   20.2130 C   0  0  0  0  0  2  0  0  0  0  0  0
  -24.7430  -31.0430   22.1390 N   0  0  0  0  0  0  0  0  0  0  0  0
  -23.5530  -32.2100   23.7070 O   0  0  0  0  0  0  0  0  0  0  0  0
  -22.7500  -29.5170   22.5500 C   0  0  0  0  0  0  0  0  0  0  0  0
  -21.4180  -29.3700   22.4240 N   0  0  0  0  0  0  0  0  0  0  0  0
  -23.4020  -28.8930   23.3920 O   0  0  0  0  0  0  0  0  0  0  0  0
  -20.9430  -29.9220   21.7230 H   0  0  0  0  0  0  0  0  0  0  0  0
  -18.0190  -28.2020   22.9430 C   0  0  0  0  0  0  0  0  0  0  0  0
  -20.5820  -28.4490   23.2030 C   0  0  0  0  0  3  0  0  0  0  0  0
  -20.6700  -27.0100   22.6410 C   0  0  0  0  0  2  0  0  0  0  0  0
  -19.5640  -26.6900   21.6300 C   0  0  0  0  0  2  0  0  0  0  0  0
  -18.1840  -26.8490   22.2720 C   0  0  0  0  0  2  0  0  0  0  0  0
  -19.1440  -28.9600   23.3650 C   0  0  0  0  0  0  0  0  0  0  0  0
  -18.9330  -30.2240   23.9580 C   0  0  0  0  0  3  0  0  0  0  0  0
  -17.6310  -30.7310   24.1290 C   0  0  0  0  0  3  0  0  0  0  0  0
  -16.5210  -29.9730   23.7190 C   0  0  0  0  0  3  0  0  0  0  0  0
  -16.7160  -28.7090   23.1320 C   0  0  0  0  0  3  0  0  0  0  0  0
  -25.9120  -32.5530   23.8450 C   0  0  0  0  0  3  0  0  0  0  0  0
  -26.4050  -31.7990   25.1430 C   0  0  1  0  0  0  0  0  0  0  0  0
  -25.2940  -31.5830   26.1990 C   0  0  0  0  0  1  0  0  0  0  0  0
  -26.9900  -30.4130   24.7920 C   0  0  0  0  0  1  0  0  0  0  0  0
  -27.5490  -32.5990   25.8080 C   0  0  0  0  0  1  0  0  0  0  0  0
  -25.5880  -33.9550   24.1710 N   0  0  0  0  0  0  0  0  0  0  0  0
  -25.9180  -35.0170   23.4220 C   0  0  0  0  0  0  0  0  0  0  0  0
  -26.5870  -34.9200   22.3920 O   0  0  0  0  0  0  0  0  0  0  0  0
  -24.9910  -34.1030   24.9710 H   0  0  0  0  0  0  0  0  0  0  0  0
  -24.1820  -36.8140   23.0950 C   0  0  0  0  0  1  0  0  0  0  0  0
  -25.4330  -36.4060   23.8900 C   0  0  0  0  0  3  0  0  0  0  0  0
  -27.5730  -37.3000   24.7010 C   0  0  0  0  0  1  0  0  0  0  0  0
  -26.4620  -37.4630   23.7670 N   0  0  0  0  0  0  0  0  0  0  0  0
  -26.0540  -38.3820   23.9150 H   0  0  0  0  0  0  0  0  0  0  0  0
  1 14  1  0
  2  7  1  0
  3  4  1  0
  3  2  1  0
  5  4  1  0
  5 18  1  0
  5  6  1  0
  7  1  1  0
  7  6  1  0
  8  1  2  0
 10  9  1  0
 11 14  1  0
 12 47  1  0
 12  9  1  0
 13 43  1  0
 13 11  1  0
 13 12  1  0
 14 10  1  0
 15 16  2  0
 16 35  1  0
 17 16  1  0
 17 20  1  0
 18 15  1  0
 18 19  1  0
 19 17  2  0
 20 21  1  0
 21 22  2  0
 23 26  1  0
 23 22  1  0
 24 23  2  0
 25 24  1  0
 25 20  2  0
 26 27  1  0
 27 28  1  0
 28 29  2  0
 30 29  1  0
 30 34  1  0
 31 30  2  0
 32 27  2  0
 32 31  1  0
 33 32  1  0
 35 36  1  0
 36 39  1  0
 36 38  1  0
 37 35  2  0
 40 41  1  0
 40 15  1  0
 42 40  1  0
 43 44  1  0
 45 43  1  0
 46 43  1  0
 47 48  1  0
 48 49  2  0
 49 50  1  0
 51 48  1  0
 52 63  2  0
 53 51  1  0
 53 58  1  0
 54 62  1  0
 54 64  1  0
 55 61  1  0
 55 57  1  0
 56 62  1  0
 57 58  2  0
 57 56  1  0
 59 53  2  0
 60 59  1  0
 60 55  2  0
 61 54  1  0
 62 52  1  0
 64 66  2  0
 65 64  1  0
 67 65  1  0
 68 77  2  0
 68 73  1  0
 69 65  1  0
 69 73  1  0
 70 69  1  0
 71 72  1  0
 71 70  1  0
 72 68  1  0
 73 74  2  0
 74 75  1  0
 76 75  2  0
 77 76  1  0
 78 52  1  0
 78 83  1  0
 78 79  1  0
 79 82  1  1
 79 80  1  0
 81 79  1  0
 83 86  1  0
 84 88  1  0
 84 83  1  0
 85 84  2  0
 88 87  1  0
 90 88  1  0
 90 91  1  0
 90 89  1  0
M  ISO  4   1 100  14 100  48 101  51 101
M  END
>  <TORSDO>  (61) 
F 18

>  <SCORE>  (61) 
-15.794

>  <name>  (61) 
61

>  <ligand_id>  (61) 
61

>  <original_smiles>  (61) 
[H]N=C(Oc1c([H])c([H])c2c(c1[H])C([H])([H])N(C(=O)C([H])(N([H])C(=O)C([H])(N([H])C([H])([H])[H])C([H])([H])[H])C(C([H])([H])[H])(C([H])([H])[H])C([H])([H])[H])C([H])(C(=O)N([H])C1([H])c3c([H])c([H])c([H])c([H])c3C([H])([H])C([H])([H])C1([H])[H])C2([H])[H])C([H])([H])C1([H])C([H])([H])C([H])([H])N(C(=O)N2C([H])([H])C([H])([H])C([H])([H])C([H])(n3nc(-c4c([H])c([H])c(Oc5c([H])c([H])c(F)c([H])c5F)c([H])c4[H])c(C(=O)N([H])[H])c3N([H])[H])C2([H])[H])C([H])([H])C1([H])[N+]([H])([H])[H]

>  <smiles>  (61) 
[H]N=C(Oc1c([H])c([H])c2c(c1[H])C([H])([H])N(C(=O)C([H])(N([H])C(=O)C([H])(N([H])C([H])([H])[H])C([H])([H])[H])C(C([H])([H])[H])(C([H])([H])[H])C([H])([H])[H])C([H])(C(=O)N([H])C1([H])c3c([H])c([H])c([H])c([H])c3C([H])([H])C([H])([H])C1([H])[H])C2([H])[H])C([H])([H])C1([H])C([H])([H])C([H])([H])N(C(=O)N2C([H])([H])C([H])([H])C([H])([H])C([H])(n3nc(-c4c([H])c([H])c(Oc5c([H])c([H])c(F)c([H])c5F)c([H])c4[H])c(C(=O)N([H])[H])c3N([H])[H])C2([H])[H])C([H])([H])C1([H])[N+]([H])([H])[H]

$$$$
62:0:0
     RDKit          3D

 89 97  0  0  1  0  0  0  0  0999 V2000
  -28.7640  -22.1570   20.4930 N   0  0  0  0  0  4  0  0  0  0  0  0
  -29.5400  -22.1710   21.1360 H   0  0  0  0  0  0  0  0  0  0  0  0
  -27.9360  -22.0240   21.0530 H   0  0  0  0  0  0  0  0  0  0  0  0
  -28.9120  -20.8830   19.6100 C   0  0  0  0  0  2  0  0  0  0  0  0
  -30.6800  -14.8640   20.0830 C   0  0  0  0  0  0  0  0  0  0  0  0
  -30.3840  -12.5830   19.0730 C   0  0  0  0  0  2  0  0  0  0  0  0
  -29.4050  -12.6040   17.8820 C   0  0  0  0  0  2  0  0  0  0  0  0
  -27.9620  -12.4130   18.3800 C   0  0  0  0  0  2  0  0  0  0  0  0
  -27.6240  -13.3170   19.5960 C   0  0  0  0  0  3  0  0  0  0  0  0
  -28.7300  -13.2890   20.6710 C   0  0  0  0  0  2  0  0  0  0  0  0
  -29.9720  -13.6750   19.9950 N   0  0  0  0  0  0  0  0  0  0  0  0
  -31.8850  -14.8000   19.8110 O   0  0  0  0  0  0  0  0  0  0  0  0
  -30.1360  -18.5970   18.9460 C   0  0  0  0  0  2  0  0  0  0  0  0
  -28.6100  -18.2990   20.7400 C   0  0  0  0  0  2  0  0  0  0  0  0
  -30.8390  -17.2230   19.2980 C   0  0  0  0  0  2  0  0  0  0  0  0
  -29.2340  -16.8350   21.0450 C   0  0  0  0  0  2  0  0  0  0  0  0
  -29.5320  -19.4280   20.1240 C   0  0  0  0  0  3  0  0  0  0  0  0
  -30.0630  -16.1430   19.9970 N   0  0  0  0  0  0  0  0  0  0  0  0
  -25.2750  -13.8830   20.4390 C   0  0  0  0  0  0  0  0  0  0  0  0
  -24.2260  -13.1000   20.8360 C   0  0  0  0  0  0  0  0  0  0  0  0
  -24.6920  -11.7520   20.7700 C   0  0  0  0  0  0  0  0  0  0  0  0
  -26.3090  -13.0110   20.1480 N   0  0  0  0  0  0  0  0  0  0  0  0
  -25.9710  -11.7230   20.4130 N   0  0  0  0  0  0  0  0  0  0  0  0
  -23.9750  -10.4840   20.9670 C   0  0  0  0  0  0  0  0  0  0  0  0
  -24.4230   -9.5180   21.8950 C   0  0  0  0  0  3  0  0  0  0  0  0
  -23.7030   -8.3190   22.0820 C   0  0  0  0  0  3  0  0  0  0  0  0
  -22.5230   -8.0740   21.3400 C   0  0  0  0  0  0  0  0  0  0  0  0
  -22.0950   -9.0290   20.4010 C   0  0  0  0  0  3  0  0  0  0  0  0
  -22.8150  -10.2210   20.2120 C   0  0  0  0  0  3  0  0  0  0  0  0
  -21.7740   -6.9270   21.4370 O   0  0  0  0  0  0  0  0  0  0  0  0
  -21.7120   -6.2030   22.6010 C   0  0  0  0  0  0  0  0  0  0  0  0
  -21.2660   -6.7750   23.8120 C   0  0  0  0  0  3  0  0  0  0  0  0
  -21.1530   -5.9790   24.9680 C   0  0  0  0  0  3  0  0  0  0  0  0
  -21.4760   -4.6090   24.9150 C   0  0  0  0  0  0  0  0  0  0  0  0
  -21.9160   -4.0360   23.7090 C   0  0  0  0  0  3  0  0  0  0  0  0
  -22.0300   -4.8310   22.5540 C   0  0  0  0  0  0  0  0  0  0  0  0
  -22.4340   -4.2690   21.3890 F   0  0  0  0  0  0  0  0  0  0  0  0
  -21.3610   -3.8410   26.0230 F   0  0  0  0  0  0  0  0  0  0  0  0
  -22.8390  -13.5700   21.1620 C   0  0  0  0  0  0  0  0  0  0  0  0
  -22.1440  -12.8600   22.0430 N   0  0  0  0  0  0  0  0  0  0  0  0
  -22.3830  -14.6030   20.6740 O   0  0  0  0  0  0  0  0  0  0  0  0
  -22.5280  -12.0240   22.4580 H   0  0  0  0  0  0  0  0  0  0  0  0
  -21.2150  -13.1550   22.3070 H   0  0  0  0  0  0  0  0  0  0  0  0
  -25.4320  -15.2560   20.2730 N   0  0  0  0  0  0  0  0  0  0  0  0
  -24.6730  -15.9110   20.4230 H   0  0  0  0  0  0  0  0  0  0  0  0
  -26.2750  -15.6980   19.9300 H   0  0  0  0  0  0  0  0  0  0  0  0
  -28.6900  -23.5750   19.8290 C   0  0  0  0  0  3  0  0  0  0  0  0
  -28.1320  -24.8860   20.6520 C   0  0  0  0  0  3  0  0  0  0  0  0
  -28.3390  -26.3410   20.2400 O   0  0  0  0  0  0  0  0  0  0  0  0
  -24.6130  -31.8880   23.2110 C   0  0  0  0  0  0  0  0  0  0  0  0
  -27.2490  -27.2500   20.2160 C   0  0  0  0  0  0  0  0  0  0  0  0
  -23.4330  -30.4800   21.5650 C   0  0  0  0  0  3  0  0  0  0  0  0
  -24.9020  -28.9180   20.1580 C   0  0  0  0  0  0  0  0  0  0  0  0
  -25.9780  -30.7860   21.4100 C   0  0  0  0  0  2  0  0  0  0  0  0
  -26.0680  -29.3970   20.7690 C   0  0  0  0  0  0  0  0  0  0  0  0
  -27.2500  -28.5780   20.7800 C   0  0  0  0  0  3  0  0  0  0  0  0
  -26.0610  -26.8460   19.5750 C   0  0  0  0  0  3  0  0  0  0  0  0
  -24.9060  -27.6550   19.5480 C   0  0  0  0  0  3  0  0  0  0  0  0
  -23.6660  -29.7990   20.1890 C   0  0  0  0  0  2  0  0  0  0  0  0
  -24.6930  -31.0710   22.1170 N   0  0  0  0  0  0  0  0  0  0  0  0
  -23.5220  -32.1640   23.7320 O   0  0  0  0  0  0  0  0  0  0  0  0
  -22.7590  -29.4670   22.5230 C   0  0  0  0  0  0  0  0  0  0  0  0
  -21.4320  -29.2930   22.3910 N   0  0  0  0  0  0  0  0  0  0  0  0
  -23.4310  -28.8400   23.3460 O   0  0  0  0  0  0  0  0  0  0  0  0
  -20.9480  -29.8500   21.7010 H   0  0  0  0  0  0  0  0  0  0  0  0
  -18.0460  -28.1100   22.8920 C   0  0  0  0  0  0  0  0  0  0  0  0
  -20.6070  -28.3570   23.1580 C   0  0  0  0  0  3  0  0  0  0  0  0
  -20.7020  -26.9270   22.5770 C   0  0  0  0  0  2  0  0  0  0  0  0
  -19.5970  -26.6150   21.5630 C   0  0  0  0  0  2  0  0  0  0  0  0
  -18.2160  -26.7630   22.2090 C   0  0  0  0  0  2  0  0  0  0  0  0
  -19.1700  -28.8660   23.3230 C   0  0  0  0  0  0  0  0  0  0  0  0
  -18.9570  -30.1260   23.9230 C   0  0  0  0  0  3  0  0  0  0  0  0
  -17.6540  -30.6330   24.0930 C   0  0  0  0  0  3  0  0  0  0  0  0
  -16.5460  -29.8740   23.6780 C   0  0  0  0  0  3  0  0  0  0  0  0
  -16.7430  -28.6150   23.0830 C   0  0  0  0  0  3  0  0  0  0  0  0
  -25.8850  -32.5300   23.8450 C   0  0  0  0  0  3  0  0  0  0  0  0
  -26.3860  -31.7700   25.1340 C   0  0  1  0  0  0  0  0  0  0  0  0
  -25.2790  -31.5350   26.1890 C   0  0  0  0  0  1  0  0  0  0  0  0
  -26.9790  -30.3920   24.7610 C   0  0  0  0  0  1  0  0  0  0  0  0
  -27.5260  -32.5730   25.8040 C   0  0  0  0  0  1  0  0  0  0  0  0
  -25.5640  -33.9300   24.1640 N   0  0  0  0  0  0  0  0  0  0  0  0
  -25.9080  -34.9820   23.4100 C   0  0  0  0  0  0  0  0  0  0  0  0
  -26.5960  -34.8770   22.3920 O   0  0  0  0  0  0  0  0  0  0  0  0
  -24.9550  -34.0840   24.9550 H   0  0  0  0  0  0  0  0  0  0  0  0
  -24.1890  -36.7780   23.0200 C   0  0  0  0  0  1  0  0  0  0  0  0
  -25.4130  -36.3720   23.8570 C   0  0  0  0  0  3  0  0  0  0  0  0
  -27.5290  -37.2570   24.7330 C   0  0  0  0  0  1  0  0  0  0  0  0
  -26.4480  -37.4250   23.7660 N   0  0  0  0  0  0  0  0  0  0  0  0
  -26.0400  -38.3450   23.9050 H   0  0  0  0  0  0  0  0  0  0  0  0
  1  3  1  0
  1  2  1  0
  4  1  1  0
  6 11  1  0
  7  8  1  0
  7  6  1  0
  9  8  1  0
  9 22  1  0
  9 10  1  0
 11  5  1  0
 11 10  1  0
 12  5  2  0
 13 15  1  0
 13 17  1  0
 14 16  1  0
 15 18  1  0
 17  4  1  0
 17 14  1  0
 18  5  1  0
 18 16  1  0
 19 20  2  0
 20 39  1  0
 21 20  1  0
 21 24  1  0
 22 23  1  0
 22 19  1  0
 23 21  2  0
 24 25  1  0
 25 26  2  0
 27 30  1  0
 27 26  1  0
 28 27  2  0
 29 28  1  0
 29 24  2  0
 30 31  1  0
 31 32  1  0
 32 33  2  0
 34 33  1  0
 34 38  1  0
 35 34  2  0
 36 31  2  0
 36 35  1  0
 37 36  1  0
 39 40  1  0
 40 43  1  0
 40 42  1  0
 41 39  2  0
 44 45  1  0
 44 19  1  0
 46 44  1  0
 47  1  1  0
 47 48  2  0
 49 48  1  0
 50 61  2  0
 51 49  1  0
 51 56  1  0
 52 60  1  0
 52 62  1  0
 53 59  1  0
 53 55  1  0
 54 60  1  0
 55 56  2  0
 55 54  1  0
 57 51  2  0
 58 57  1  0
 58 53  2  0
 59 52  1  0
 60 50  1  0
 62 64  2  0
 63 62  1  0
 65 63  1  0
 66 75  2  0
 66 71  1  0
 67 63  1  0
 67 71  1  0
 68 67  1  0
 69 70  1  0
 69 68  1  0
 70 66  1  0
 71 72  2  0
 72 73  1  0
 74 73  2  0
 75 74  1  0
 76 50  1  0
 76 81  1  0
 76 77  1  0
 77 80  1  1
 77 78  1  0
 79 77  1  0
 81 84  1  0
 82 86  1  0
 82 81  1  0
 83 82  2  0
 86 85  1  0
 88 86  1  0
 88 89  1  0
 88 87  1  0
M  ISO  4   5 100  18 100  48 101  49 101
M  END
>  <TORSDO>  (62) 
F 19

>  <SCORE>  (62) 
-14.057

>  <name>  (62) 
62

>  <ligand_id>  (62) 
62

>  <original_smiles>  (62) 
[H]c1c([H])c([H])c2c(c1[H])C([H])([H])C([H])([H])C([H])([H])C2([H])N([H])C(=O)C1([H])N(C(=O)C([H])(N([H])C(=O)C([H])(N([H])C([H])([H])[H])C([H])([H])[H])C(C([H])([H])[H])(C([H])([H])[H])C([H])([H])[H])C([H])([H])c2c([H])c(OC([H])([H])C([H])([H])[N+]([H])([H])C([H])([H])C3([H])C([H])([H])C([H])([H])N(C(=O)N4C([H])([H])C([H])([H])C([H])([H])C([H])(n5nc(-c6c([H])c([H])c(Oc7c([H])c([H])c(F)c([H])c7F)c([H])c6[H])c(C(=O)N([H])[H])c5N([H])[H])C4([H])[H])C([H])([H])C3([H])[H])c([H])c([H])c2C1([H])[H]

>  <smiles>  (62) 
[H]c1c([H])c([H])c2c(c1[H])C([H])([H])C([H])([H])C([H])([H])C2([H])N([H])C(=O)C1([H])N(C(=O)C([H])(N([H])C(=O)C([H])(N([H])C([H])([H])[H])C([H])([H])[H])C(C([H])([H])[H])(C([H])([H])[H])C([H])([H])[H])C([H])([H])c2c([H])c(OC([H])([H])C([H])([H])[N+]([H])([H])C([H])([H])C3([H])C([H])([H])C([H])([H])N(C(=O)N4C([H])([H])C([H])([H])C([H])([H])C([H])(n5nc(-c6c([H])c([H])c(Oc7c([H])c([H])c(F)c([H])c7F)c([H])c6[H])c(C(=O)N([H])[H])c5N([H])[H])C4([H])[H])C([H])([H])C3([H])[H])c([H])c([H])c2C1([H])[H]

$$$$
63:0:0
     RDKit          3D

 98108  0  0  1  0  0  0  0  0999 V2000
  -29.8560  -23.1500   19.2440 C   0  0  0  0  0  3  0  0  0  0  0  0
  -29.8090  -21.7460   19.3410 C   0  0  0  0  0  3  0  0  0  0  0  0
  -30.1570  -24.1600   22.7130 C   0  0  0  0  0  3  0  0  0  0  0  0
  -30.0470  -23.1820   21.6770 C   0  0  0  0  0  0  0  0  0  0  0  0
  -29.9860  -23.8820   20.4370 C   0  0  0  0  0  0  0  0  0  0  0  0
  -29.9020  -21.1380   20.6110 C   0  0  0  0  0  0  0  0  0  0  0  0
  -30.2000  -25.3850   22.1090 C   0  0  0  0  0  0  0  0  0  0  0  0
  -30.0100  -21.8440   21.7630 N   0  0  0  0  0  0  0  0  0  0  0  0
  -30.1010  -25.2390   20.7260 N   0  0  0  0  0  0  0  0  0  0  0  0
  -28.7730  -18.9150   20.3280 C   0  0  0  0  0  3  0  0  0  0  0  0
  -30.9750  -18.9790   21.3430 C   0  0  0  0  0  3  0  0  0  0  0  0
  -28.7450  -17.5140   20.4720 C   0  0  0  0  0  3  0  0  0  0  0  0
  -30.9640  -17.5730   21.4700 C   0  0  0  0  0  3  0  0  0  0  0  0
  -29.8850  -19.6690   20.7640 C   0  0  0  0  0  0  0  0  0  0  0  0
  -29.8480  -16.8310   21.0250 C   0  0  0  0  0  0  0  0  0  0  0  0
  -30.4600  -14.5140   20.4530 C   0  0  0  0  0  0  0  0  0  0  0  0
  -30.2140  -12.3580   19.2790 C   0  0  0  0  0  2  0  0  0  0  0  0
  -29.2280  -12.5330   18.1060 C   0  0  0  0  0  2  0  0  0  0  0  0
  -27.7710  -12.3470   18.5740 C   0  0  0  0  0  2  0  0  0  0  0  0
  -27.4410  -13.1710   19.8460 C   0  0  0  0  0  3  0  0  0  0  0  0
  -28.5290  -12.9590   20.9230 C   0  0  0  0  0  2  0  0  0  0  0  0
  -29.8350  -13.3120   20.3310 N   0  0  0  0  0  0  0  0  0  0  0  0
  -31.5320  -14.7780   19.8980 O   0  0  0  0  0  0  0  0  0  0  0  0
  -29.7700  -15.4220   21.1600 N   0  0  0  0  0  0  0  0  0  0  0  0
  -28.9030  -15.0640   21.5310 H   0  0  0  0  0  0  0  0  0  0  0  0
  -25.0510  -13.7100   20.6420 C   0  0  0  0  0  0  0  0  0  0  0  0
  -24.0110  -12.9050   21.0240 C   0  0  0  0  0  0  0  0  0  0  0  0
  -24.4990  -11.5650   20.9400 C   0  0  0  0  0  0  0  0  0  0  0  0
  -26.1070  -12.8570   20.3550 N   0  0  0  0  0  0  0  0  0  0  0  0
  -25.7790  -11.5610   20.5880 N   0  0  0  0  0  0  0  0  0  0  0  0
  -23.8060  -10.2820   21.1180 C   0  0  0  0  0  0  0  0  0  0  0  0
  -24.2810   -9.3070   22.0220 C   0  0  0  0  0  3  0  0  0  0  0  0
  -23.5870   -8.0880   22.1890 C   0  0  0  0  0  3  0  0  0  0  0  0
  -22.4070   -7.8370   21.4520 C   0  0  0  0  0  0  0  0  0  0  0  0
  -21.9520   -8.8010   20.5350 C   0  0  0  0  0  3  0  0  0  0  0  0
  -22.6460  -10.0110   20.3660 C   0  0  0  0  0  3  0  0  0  0  0  0
  -21.6820   -6.6720   21.5280 O   0  0  0  0  0  0  0  0  0  0  0  0
  -21.6590   -5.9130   22.6720 C   0  0  0  0  0  0  0  0  0  0  0  0
  -21.1960   -6.4310   23.9000 C   0  0  0  0  0  3  0  0  0  0  0  0
  -21.1230   -5.5970   25.0330 C   0  0  0  0  0  3  0  0  0  0  0  0
  -21.5040   -4.2450   24.9390 C   0  0  0  0  0  0  0  0  0  0  0  0
  -21.9620   -3.7260   23.7150 C   0  0  0  0  0  3  0  0  0  0  0  0
  -22.0360   -4.5580   22.5840 C   0  0  0  0  0  0  0  0  0  0  0  0
  -22.4570   -4.0470   21.4020 F   0  0  0  0  0  0  0  0  0  0  0  0
  -21.4270   -3.4410   26.0250 F   0  0  0  0  0  0  0  0  0  0  0  0
  -22.6150  -13.3430   21.3560 C   0  0  0  0  0  0  0  0  0  0  0  0
  -21.9360  -12.6170   22.2390 N   0  0  0  0  0  0  0  0  0  0  0  0
  -22.1320  -14.3660   20.8700 O   0  0  0  0  0  0  0  0  0  0  0  0
  -22.3380  -11.7890   22.6520 H   0  0  0  0  0  0  0  0  0  0  0  0
  -21.0010  -12.8930   22.5030 H   0  0  0  0  0  0  0  0  0  0  0  0
  -25.1800  -15.0870   20.4940 N   0  0  0  0  0  0  0  0  0  0  0  0
  -24.4000  -15.7210   20.6270 H   0  0  0  0  0  0  0  0  0  0  0  0
  -25.9990  -15.5440   20.1110 H   0  0  0  0  0  0  0  0  0  0  0  0
  -30.3380  -26.6430   22.6040 O   0  0  0  0  0  0  0  0  0  0  0  0
  -30.4430  -26.5790   23.5480 H   0  0  0  0  0  0  0  0  0  0  0  0
  -30.1820  -26.3310   19.7580 C   0  0  0  0  0  2  0  0  0  0  0  0
  -29.1010  -27.4140   19.9350 C   0  0  0  0  0  2  0  0  0  0  0  0
  -27.8300  -26.8950   19.5610 O   0  0  0  0  0  0  0  0  0  0  0  0
  -24.3420  -31.9390   23.2620 C   0  0  0  0  0  0  0  0  0  0  0  0
  -26.7150  -27.6830   19.7520 C   0  0  0  0  0  0  0  0  0  0  0  0
  -22.9960  -30.6380   21.6420 C   0  0  0  0  0  3  0  0  0  0  0  0
  -24.3230  -29.1720   20.0310 C   0  0  0  0  0  0  0  0  0  0  0  0
  -25.4970  -31.0020   21.2670 C   0  0  0  0  0  2  0  0  0  0  0  0
  -25.5230  -29.6660   20.5560 C   0  0  0  0  0  0  0  0  0  0  0  0
  -26.7190  -28.9310   20.4230 C   0  0  0  0  0  3  0  0  0  0  0  0
  -25.4960  -27.1960   19.2360 C   0  0  0  0  0  3  0  0  0  0  0  0
  -24.3030  -27.9310   19.3700 C   0  0  0  0  0  3  0  0  0  0  0  0
  -23.0920  -30.0290   20.2160 C   0  0  0  0  0  2  0  0  0  0  0  0
  -24.3010  -31.2040   22.1160 N   0  0  0  0  0  0  0  0  0  0  0  0
  -23.3110  -32.1890   23.9010 O   0  0  0  0  0  0  0  0  0  0  0  0
  -22.4110  -29.5710   22.5940 C   0  0  0  0  0  0  0  0  0  0  0  0
  -21.0920  -29.3410   22.4930 N   0  0  0  0  0  0  0  0  0  0  0  0
  -23.1370  -28.9540   23.3760 O   0  0  0  0  0  0  0  0  0  0  0  0
  -20.5640  -29.8930   21.8300 H   0  0  0  0  0  0  0  0  0  0  0  0
  -17.7950  -27.9440   22.9660 C   0  0  0  0  0  0  0  0  0  0  0  0
  -20.3290  -28.3550   23.2580 C   0  0  0  0  0  3  0  0  0  0  0  0
  -20.5240  -26.9330   22.6820 C   0  0  0  0  0  2  0  0  0  0  0  0
  -19.4520  -26.5460   21.6600 C   0  0  0  0  0  2  0  0  0  0  0  0
  -18.0580  -26.6070   22.2930 C   0  0  0  0  0  2  0  0  0  0  0  0
  -18.8620  -28.7720   23.4050 C   0  0  0  0  0  0  0  0  0  0  0  0
  -18.5640  -30.0210   23.9920 C   0  0  0  0  0  3  0  0  0  0  0  0
  -17.2300  -30.4430   24.1470 C   0  0  0  0  0  3  0  0  0  0  0  0
  -16.1770  -29.6120   23.7250 C   0  0  0  0  0  3  0  0  0  0  0  0
  -16.4600  -28.3650   23.1410 C   0  0  0  0  0  3  0  0  0  0  0  0
  -25.6820  -32.5230   23.8140 C   0  0  0  0  0  3  0  0  0  0  0  0
  -26.2390  -31.7320   25.0610 C   0  0  1  0  0  0  0  0  0  0  0  0
  -25.1960  -31.5240   26.1830 C   0  0  0  0  0  1  0  0  0  0  0  0
  -26.7570  -30.3380   24.6340 C   0  0  0  0  0  1  0  0  0  0  0  0
  -27.4460  -32.4870   25.6660 C   0  0  0  0  0  1  0  0  0  0  0  0
  -25.4450  -33.9320   24.1540 N   0  0  0  0  0  0  0  0  0  0  0  0
  -25.8170  -34.9690   23.3930 C   0  0  0  0  0  0  0  0  0  0  0  0
  -26.4700  -34.8380   22.3520 O   0  0  0  0  0  0  0  0  0  0  0  0
  -24.8700  -34.1110   24.9640 H   0  0  0  0  0  0  0  0  0  0  0  0
  -24.1690  -36.8370   23.0620 C   0  0  0  0  0  1  0  0  0  0  0  0
  -25.4000  -36.3760   23.8580 C   0  0  0  0  0  3  0  0  0  0  0  0
  -27.5810  -37.1630   24.6660 C   0  0  0  0  0  1  0  0  0  0  0  0
  -26.4780  -37.3810   23.7340 N   0  0  0  0  0  0  0  0  0  0  0  0
  -26.1160  -38.3190   23.8850 H   0  0  0  0  0  0  0  0  0  0  0  0
  1  2  2  0
  1  5  1  0
  2  6  1  0
  4  8  1  0
  4  3  1  0
  5  9  1  0
  5  4  2  0
  6 14  1  0
  6  8  2  0
  7 54  1  0
  7  3  2  0
  9  7  1  0
 10 12  2  0
 10 14  1  0
 11 13  1  0
 12 15  1  0
 14 11  2  0
 15 24  1  0
 15 13  2  0
 16 24  1  0
 17 22  1  0
 18 19  1  0
 18 17  1  0
 20 19  1  0
 20 29  1  0
 20 21  1  0
 22 16  1  0
 22 21  1  0
 23 16  2  0
 24 25  1  0
 26 27  2  0
 27 46  1  0
 28 27  1  0
 28 31  1  0
 29 30  1  0
 29 26  1  0
 30 28  2  0
 31 32  1  0
 32 33  2  0
 34 37  1  0
 34 33  1  0
 35 34  2  0
 36 35  1  0
 36 31  2  0
 37 38  1  0
 38 39  1  0
 39 40  2  0
 41 40  1  0
 41 45  1  0
 42 41  2  0
 43 38  2  0
 43 42  1  0
 44 43  1  0
 46 47  1  0
 47 50  1  0
 47 49  1  0
 48 46  2  0
 51 52  1  0
 51 26  1  0
 53 51  1  0
 54 55  1  0
 56 57  1  0
 56  9  1  0
 58 60  1  0
 58 57  1  0
 59 70  2  0
 60 65  1  0
 61 69  1  0
 61 71  1  0
 62 68  1  0
 62 64  1  0
 63 69  1  0
 64 63  1  0
 65 64  2  0
 66 67  1  0
 66 60  2  0
 67 62  2  0
 68 61  1  0
 69 59  1  0
 71 73  2  0
 72 71  1  0
 74 72  1  0
 75 84  2  0
 75 80  1  0
 76 72  1  0
 76 80  1  0
 77 76  1  0
 78 79  1  0
 78 77  1  0
 79 75  1  0
 80 81  2  0
 81 82  1  0
 83 82  2  0
 84 83  1  0
 85 59  1  0
 85 90  1  0
 85 86  1  0
 86 89  1  1
 86 87  1  0
 88 86  1  0
 90 93  1  0
 91 95  1  0
 91 90  1  0
 92 91  2  0
 95 94  1  0
 97 95  1  0
 97 98  1  0
 97 96  1  0
M  ISO  4  16 100  24 100  57 101  58 101
M  END
>  <TORSDO>  (63) 
F 20

>  <SCORE>  (63) 
-13.982

>  <name>  (63) 
63

>  <ligand_id>  (63) 
63

>  <original_smiles>  (63) 
[H]Oc1c([H])c2nc(-c3c([H])c([H])c(N([H])C(=O)N4C([H])([H])C([H])([H])C([H])([H])C([H])(n5nc(-c6c([H])c([H])c(Oc7c([H])c([H])c(F)c([H])c7F)c([H])c6[H])c(C(=O)N([H])[H])c5N([H])[H])C4([H])[H])c([H])c3[H])c([H])c([H])c2n1C([H])([H])C([H])([H])Oc1c([H])c([H])c2c(c1[H])C([H])([H])N(C(=O)C([H])(N([H])C(=O)C([H])(N([H])C([H])([H])[H])C([H])([H])[H])C(C([H])([H])[H])(C([H])([H])[H])C([H])([H])[H])C([H])(C(=O)N([H])C1([H])c3c([H])c([H])c([H])c([H])c3C([H])([H])C([H])([H])C1([H])[H])C2([H])[H]

>  <smiles>  (63) 
[H]Oc1c([H])c2nc(-c3c([H])c([H])c(N([H])C(=O)N4C([H])([H])C([H])([H])C([H])([H])C([H])(n5nc(-c6c([H])c([H])c(Oc7c([H])c([H])c(F)c([H])c7F)c([H])c6[H])c(C(=O)N([H])[H])c5N([H])[H])C4([H])[H])c([H])c3[H])c([H])c([H])c2n1C([H])([H])C([H])([H])Oc1c([H])c([H])c2c(c1[H])C([H])([H])N(C(=O)C([H])(N([H])C(=O)C([H])(N([H])C([H])([H])[H])C([H])([H])[H])C(C([H])([H])[H])(C([H])([H])[H])C([H])([H])[H])C([H])(C(=O)N([H])C1([H])c3c([H])c([H])c([H])c([H])c3C([H])([H])C([H])([H])C1([H])[H])C2([H])[H]

$$$$
64:0:0
     RDKit          3D

 95105  0  0  1  0  0  0  0  0999 V2000
  -26.1800  -21.3580   22.3390 C   0  0  0  0  0  2  0  0  0  0  0  0
  -26.6950  -23.8310   22.5270 C   0  0  0  0  0  2  0  0  0  0  0  0
  -27.6940  -22.5660   20.5060 C   0  0  0  0  0  2  0  0  0  0  0  0
  -27.8700  -24.7600   22.1570 C   0  0  0  0  0  2  0  0  0  0  0  0
  -28.1290  -23.9180   19.8420 C   0  0  0  0  0  2  0  0  0  0  0  0
  -26.5190  -22.6450   21.5410 C   0  0  0  0  0  3  0  0  0  0  0  0
  -27.7120  -25.1280   20.6860 C   0  0  0  0  0  3  0  0  0  0  0  0
  -28.1990  -26.4620   20.2890 O   0  0  0  0  0  0  0  0  0  0  0  0
  -24.6190  -31.8640   23.2220 C   0  0  0  0  0  0  0  0  0  0  0  0
  -27.1700  -27.3810   20.1420 C   0  0  0  0  0  0  0  0  0  0  0  0
  -23.3980  -30.5080   21.5580 C   0  0  0  0  0  3  0  0  0  0  0  0
  -24.8490  -29.0010   20.1050 C   0  0  0  0  0  0  0  0  0  0  0  0
  -25.9460  -30.8320   21.3890 C   0  0  0  0  0  2  0  0  0  0  0  0
  -26.0140  -29.4740   20.7220 C   0  0  0  0  0  0  0  0  0  0  0  0
  -27.1850  -28.6660   20.7540 C   0  0  0  0  0  3  0  0  0  0  0  0
  -26.0140  -27.0020   19.4200 C   0  0  0  0  0  3  0  0  0  0  0  0
  -24.8480  -27.7700   19.4470 C   0  0  0  0  0  3  0  0  0  0  0  0
  -23.6170  -29.8740   20.1620 C   0  0  0  0  0  2  0  0  0  0  0  0
  -24.6720  -31.0760   22.1180 N   0  0  0  0  0  0  0  0  0  0  0  0
  -23.5450  -32.1510   23.7630 O   0  0  0  0  0  0  0  0  0  0  0  0
  -22.7400  -29.4670   22.4990 C   0  0  0  0  0  0  0  0  0  0  0  0
  -21.4050  -29.3380   22.4110 N   0  0  0  0  0  0  0  0  0  0  0  0
  -23.4290  -28.7850   23.2720 O   0  0  0  0  0  0  0  0  0  0  0  0
  -20.9070  -30.0110   21.8450 H   0  0  0  0  0  0  0  0  0  0  0  0
  -18.0090  -28.1260   22.8610 C   0  0  0  0  0  0  0  0  0  0  0  0
  -20.5850  -28.3660   23.1200 C   0  0  0  0  0  3  0  0  0  0  0  0
  -20.6960  -26.9580   22.4670 C   0  0  0  0  0  2  0  0  0  0  0  0
  -19.5530  -26.6550   21.5120 C   0  0  0  0  0  2  0  0  0  0  0  0
  -18.2030  -26.7590   22.2330 C   0  0  0  0  0  2  0  0  0  0  0  0
  -19.1450  -28.8720   23.2780 C   0  0  0  0  0  0  0  0  0  0  0  0
  -18.9300  -30.1450   23.8490 C   0  0  0  0  0  3  0  0  0  0  0  0
  -17.6280  -30.6510   24.0290 C   0  0  0  0  0  3  0  0  0  0  0  0
  -16.5110  -29.9080   23.6130 C   0  0  0  0  0  3  0  0  0  0  0  0
  -16.7010  -28.6480   23.0200 C   0  0  0  0  0  3  0  0  0  0  0  0
  -25.9100  -32.4800   23.8430 C   0  0  0  0  0  3  0  0  0  0  0  0
  -25.6050  -33.8670   24.2400 N   0  0  0  0  0  0  0  0  0  0  0  0
  -25.9110  -34.9450   23.5090 C   0  0  0  0  0  0  0  0  0  0  0  0
  -26.5590  -34.8890   22.4620 O   0  0  0  0  0  0  0  0  0  0  0  0
  -25.0290  -33.9830   25.0620 H   0  0  0  0  0  0  0  0  0  0  0  0
  -24.1540  -36.7300   23.2610 C   0  0  0  0  0  1  0  0  0  0  0  0
  -25.4160  -36.3110   24.0300 C   0  0  0  0  0  3  0  0  0  0  0  0
  -27.5610  -37.1830   24.8460 C   0  0  0  0  0  1  0  0  0  0  0  0
  -26.4330  -37.3800   23.9390 N   0  0  0  0  0  0  0  0  0  0  0  0
  -26.0190  -38.2880   24.1400 H   0  0  0  0  0  0  0  0  0  0  0  0
  -26.4550  -31.6580   25.0730 C   0  0  1  0  0  0  0  0  0  0  0  0
  -25.3760  -31.3690   26.1440 C   0  0  0  0  0  1  0  0  0  0  0  0
  -27.0360  -30.2980   24.6130 C   0  0  0  0  0  1  0  0  0  0  0  0
  -27.6160  -32.4290   25.7550 C   0  0  0  0  0  1  0  0  0  0  0  0
  -26.3330  -20.0260   21.5820 C   0  0  0  0  0  2  0  0  0  0  0  0
  -30.5740  -14.4730   20.6670 C   0  0  0  0  0  0  0  0  0  0  0  0
  -30.4680  -12.3870   19.3320 C   0  0  0  0  0  2  0  0  0  0  0  0
  -29.4840  -12.5440   18.1500 C   0  0  0  0  0  2  0  0  0  0  0  0
  -28.0020  -12.3470   18.5700 C   0  0  0  0  0  2  0  0  0  0  0  0
  -27.6640  -13.1100   19.8630 C   0  0  0  0  0  3  0  0  0  0  0  0
  -28.7410  -12.7140   20.9070 C   0  0  0  0  0  2  0  0  0  0  0  0
  -30.0110  -13.2570   20.4190 N   0  0  0  0  0  0  0  0  0  0  0  0
  -31.7070  -14.7550   20.2210 O   0  0  0  0  0  0  0  0  0  0  0  0
  -26.7090  -16.8460   22.8880 C   0  0  0  0  0  2  0  0  0  0  0  0
  -28.4000  -15.4970   21.6400 C   0  0  0  0  0  2  0  0  0  0  0  0
  -30.3280  -16.7850   21.6590 C   0  0  0  0  0  2  0  0  0  0  0  0
  -26.5840  -18.2840   23.3170 C   0  0  0  0  0  2  0  0  0  0  0  0
  -28.3890  -18.5930   21.5470 C   0  0  0  0  0  2  0  0  0  0  0  0
  -28.2010  -16.4570   22.7640 C   0  0  0  0  0  3  0  0  0  0  0  0
  -29.1750  -17.5580   22.3800 C   0  0  0  0  0  3  0  0  0  0  0  0
  -29.8420  -15.4150   21.3490 N   0  0  0  0  0  0  0  0  0  0  0  0
  -27.2760  -19.1860   22.3510 N   0  0  1  0  0  4  0  0  0  0  0  0
  -27.7400  -19.8480   22.9570 H   0  0  0  0  0  0  0  0  0  0  0  0
  -25.2530  -13.7750   20.5030 C   0  0  0  0  0  0  0  0  0  0  0  0
  -24.1830  -13.0260   20.9070 C   0  0  0  0  0  0  0  0  0  0  0  0
  -24.6340  -11.6780   20.8840 C   0  0  0  0  0  0  0  0  0  0  0  0
  -26.2980  -12.8830   20.3230 N   0  0  0  0  0  0  0  0  0  0  0  0
  -25.9230  -11.6110   20.5870 N   0  0  0  0  0  0  0  0  0  0  0  0
  -23.8970  -10.4230   21.0430 C   0  0  0  0  0  0  0  0  0  0  0  0
  -24.3530   -9.4190   21.9210 C   0  0  0  0  0  3  0  0  0  0  0  0
  -23.6220   -8.2230   22.0780 C   0  0  0  0  0  3  0  0  0  0  0  0
  -22.4190   -8.0270   21.3580 C   0  0  0  0  0  0  0  0  0  0  0  0
  -21.9830   -9.0240   20.4680 C   0  0  0  0  0  3  0  0  0  0  0  0
  -22.7150  -10.2130   20.3090 C   0  0  0  0  0  3  0  0  0  0  0  0
  -21.6630   -6.8850   21.4210 O   0  0  0  0  0  0  0  0  0  0  0  0
  -21.6860   -6.0710   22.5260 C   0  0  0  0  0  0  0  0  0  0  0  0
  -21.4010   -6.5630   23.8170 C   0  0  0  0  0  3  0  0  0  0  0  0
  -21.3630   -5.6780   24.9150 C   0  0  0  0  0  3  0  0  0  0  0  0
  -21.6050   -4.3040   24.7220 C   0  0  0  0  0  0  0  0  0  0  0  0
  -21.8830   -3.8150   23.4350 C   0  0  0  0  0  3  0  0  0  0  0  0
  -21.9210   -4.6940   22.3400 C   0  0  0  0  0  0  0  0  0  0  0  0
  -22.1670   -4.2150   21.0970 F   0  0  0  0  0  0  0  0  0  0  0  0
  -21.5620   -3.4530   25.7730 F   0  0  0  0  0  0  0  0  0  0  0  0
  -22.7910  -13.5300   21.1820 C   0  0  0  0  0  0  0  0  0  0  0  0
  -22.0550  -12.8300   22.0370 N   0  0  0  0  0  0  0  0  0  0  0  0
  -22.3670  -14.5590   20.6610 O   0  0  0  0  0  0  0  0  0  0  0  0
  -22.4120  -11.9950   22.4800 H   0  0  0  0  0  0  0  0  0  0  0  0
  -21.1170  -13.1380   22.2570 H   0  0  0  0  0  0  0  0  0  0  0  0
  -25.4040  -15.1320   20.2480 N   0  0  0  0  0  0  0  0  0  0  0  0
  -24.5650  -15.6880   20.1550 H   0  0  0  0  0  0  0  0  0  0  0  0
  -26.1260  -15.4380   19.6120 H   0  0  0  0  0  0  0  0  0  0  0  0
  3  6  1  0
  4  2  1  0
  5  3  1  0
  5  7  1  0
  6  1  1  0
  6  2  1  0
  7  8  1  0
  7  4  1  0
  9 20  2  0
 10  8  1  0
 10 15  1  0
 11 19  1  0
 11 21  1  0
 12 18  1  0
 12 14  1  0
 13 19  1  0
 14 15  2  0
 14 13  1  0
 16 17  1  0
 16 10  2  0
 17 12  2  0
 18 11  1  0
 19  9  1  0
 21 23  2  0
 22 21  1  0
 24 22  1  0
 25 34  2  0
 25 30  1  0
 26 22  1  0
 26 30  1  0
 27 26  1  0
 28 29  1  0
 28 27  1  0
 29 25  1  0
 30 31  2  0
 31 32  1  0
 33 32  2  0
 34 33  1  0
 35  9  1  0
 35 36  1  0
 35 45  1  0
 36 39  1  0
 37 41  1  0
 37 36  1  0
 38 37  2  0
 41 40  1  0
 43 41  1  0
 43 44  1  0
 43 42  1  0
 45 48  1  1
 45 46  1  0
 47 45  1  0
 49  1  1  0
 49 66  1  0
 50 65  1  0
 51 56  1  0
 52 53  1  0
 52 51  1  0
 54 53  1  0
 54 71  1  0
 54 55  1  0
 56 50  1  0
 56 55  1  0
 57 50  2  0
 58 61  1  0
 60 64  1  0
 62 66  1  0
 63 59  1  0
 63 58  1  0
 64 62  1  0
 64 63  1  0
 65 59  1  0
 65 60  1  0
 66 67  1  1
 66 61  1  0
 68 69  2  0
 69 88  1  0
 70 69  1  0
 70 73  1  0
 71 68  1  0
 71 72  1  0
 72 70  2  0
 73 74  1  0
 74 75  2  0
 76 79  1  0
 76 75  1  0
 77 76  2  0
 78 77  1  0
 78 73  2  0
 79 80  1  0
 80 81  1  0
 81 82  2  0
 83 82  1  0
 83 87  1  0
 84 83  2  0
 85 80  2  0
 85 84  1  0
 86 85  1  0
 88 89  1  0
 89 92  1  0
 89 91  1  0
 90 88  2  0
 93 68  1  0
 94 93  1  0
 95 93  1  0
M  ISO  4   7 101   8 101  50 100  65 100
M  END
>  <TORSDO>  (64) 
F 18

>  <SCORE>  (64) 
35.116

>  <name>  (64) 
64

>  <ligand_id>  (64) 
64

>  <original_smiles>  (64) 
[H]c1c([H])c([H])c2c(c1[H])C([H])([H])C([H])([H])C([H])([H])C2([H])N([H])C(=O)C1([H])N(C(=O)C([H])(N([H])C(=O)C([H])(N([H])C([H])([H])[H])C([H])([H])[H])C(C([H])([H])[H])(C([H])([H])[H])C([H])([H])[H])C([H])([H])c2c([H])c(OC3([H])C([H])([H])C([H])([H])C([H])(C([H])([H])C([H])([H])[N+]4([H])C([H])([H])C([H])([H])C5([H])C([H])([H])N(C(=O)N6C([H])([H])C([H])([H])C([H])([H])C([H])(n7nc(-c8c([H])c([H])c(Oc9c([H])c([H])c(F)c([H])c9F)c([H])c8[H])c(C(=O)N([H])[H])c7N([H])[H])C6([H])[H])C([H])([H])C5([H])C4([H])[H])C([H])([H])C3([H])[H])c([H])c([H])c2C1([H])[H]

>  <smiles>  (64) 
[H]c1c([H])c([H])c2c(c1[H])C([H])([H])C([H])([H])C([H])([H])C2([H])N([H])C(=O)C1([H])N(C(=O)C([H])(N([H])C(=O)C([H])(N([H])C([H])([H])[H])C([H])([H])[H])C(C([H])([H])[H])(C([H])([H])[H])C([H])([H])[H])C([H])([H])c2c([H])c(OC3([H])C([H])([H])C([H])([H])C([H])(C([H])([H])C([H])([H])[N+]4([H])C([H])([H])C([H])([H])C5([H])C([H])([H])N(C(=O)N6C([H])([H])C([H])([H])C([H])([H])C([H])(n7nc(-c8c([H])c([H])c(Oc9c([H])c([H])c(F)c([H])c9F)c([H])c8[H])c(C(=O)N([H])[H])c7N([H])[H])C6([H])[H])C([H])([H])C5([H])C4([H])[H])C([H])([H])C3([H])[H])c([H])c([H])c2C1([H])[H]

$$$$
65:0:0
     RDKit          3D

 95105  0  0  1  0  0  0  0  0999 V2000
  -30.4160  -15.3420   20.3970 C   0  0  0  0  0  0  0  0  0  0  0  0
  -30.4060  -12.9190   19.4850 C   0  0  0  0  0  2  0  0  0  0  0  0
  -29.4830  -12.6570   18.2650 C   0  0  0  0  0  2  0  0  0  0  0  0
  -28.0460  -12.3560   18.7230 C   0  0  0  0  0  2  0  0  0  0  0  0
  -27.5710  -13.3510   19.8070 C   0  0  0  0  0  3  0  0  0  0  0  0
  -28.6090  -13.5380   20.9310 C   0  0  0  0  0  2  0  0  0  0  0  0
  -29.8320  -14.0530   20.2910 N   0  0  0  0  0  0  0  0  0  0  0  0
  -31.6550  -15.3140   20.3470 O   0  0  0  0  0  0  0  0  0  0  0  0
  -30.3530  -18.0050   18.2500 C   0  0  0  0  0  3  0  0  0  0  0  0
  -30.3020  -19.2810   18.7000 C   0  0  0  0  0  0  0  0  0  0  0  0
  -29.4120  -16.9040   18.7770 C   0  0  0  0  0  2  0  0  0  0  0  0
  -29.5800  -18.1670   20.8060 C   0  0  0  0  0  2  0  0  0  0  0  0
  -29.2990  -19.5990   19.8110 C   0  0  0  0  0  3  0  0  0  0  0  0
  -29.6790  -16.6240   20.1960 N   0  0  0  0  0  0  0  0  0  0  0  0
  -28.0520  -22.1140   19.2540 C   0  0  0  0  0  3  0  0  0  0  0  0
  -29.6170  -22.2790   20.9260 C   0  0  0  0  0  3  0  0  0  0  0  0
  -27.7840  -23.5790   19.3250 C   0  0  0  0  0  3  0  0  0  0  0  0
  -29.3490  -23.7430   20.9950 C   0  0  0  0  0  3  0  0  0  0  0  0
  -28.9780  -21.3070   20.0590 C   0  0  0  0  0  0  0  0  0  0  0  0
  -28.3930  -24.5410   20.2340 C   0  0  0  0  0  0  0  0  0  0  0  0
  -28.3100  -26.0650   20.2930 O   0  0  0  0  0  0  0  0  0  0  0  0
  -24.6230  -31.9420   23.2640 C   0  0  0  0  0  0  0  0  0  0  0  0
  -27.2180  -27.0670   20.2960 C   0  0  0  0  0  0  0  0  0  0  0  0
  -23.4360  -30.5300   21.6300 C   0  0  0  0  0  3  0  0  0  0  0  0
  -24.8950  -28.8990   20.2460 C   0  0  0  0  0  0  0  0  0  0  0  0
  -26.0020  -30.7430   21.5000 C   0  0  0  0  0  2  0  0  0  0  0  0
  -26.0770  -29.3270   20.8640 C   0  0  0  0  0  0  0  0  0  0  0  0
  -27.2300  -28.4280   20.8660 C   0  0  0  0  0  3  0  0  0  0  0  0
  -25.9980  -26.7660   19.6510 C   0  0  0  0  0  3  0  0  0  0  0  0
  -24.8760  -27.6380   19.6260 C   0  0  0  0  0  3  0  0  0  0  0  0
  -23.6740  -29.8190   20.2670 C   0  0  0  0  0  2  0  0  0  0  0  0
  -24.7070  -31.0980   22.1860 N   0  0  0  0  0  0  0  0  0  0  0  0
  -23.5310  -32.2470   23.7710 O   0  0  0  0  0  0  0  0  0  0  0  0
  -22.7310  -29.5530   22.6040 C   0  0  0  0  0  0  0  0  0  0  0  0
  -21.4030  -29.3940   22.4710 N   0  0  0  0  0  0  0  0  0  0  0  0
  -23.3890  -28.9330   23.4450 O   0  0  0  0  0  0  0  0  0  0  0  0
  -20.9280  -29.9410   21.7670 H   0  0  0  0  0  0  0  0  0  0  0  0
  -18.0070  -28.2210   22.9660 C   0  0  0  0  0  0  0  0  0  0  0  0
  -20.5680  -28.4720   23.2480 C   0  0  0  0  0  3  0  0  0  0  0  0
  -20.6620  -27.0320   22.6900 C   0  0  0  0  0  2  0  0  0  0  0  0
  -19.5660  -26.7060   21.6710 C   0  0  0  0  0  2  0  0  0  0  0  0
  -18.1810  -26.8650   22.3030 C   0  0  0  0  0  2  0  0  0  0  0  0
  -19.1280  -28.9840   23.3950 C   0  0  0  0  0  0  0  0  0  0  0  0
  -18.9080  -30.2510   23.9760 C   0  0  0  0  0  3  0  0  0  0  0  0
  -17.6040  -30.7560   24.1310 C   0  0  0  0  0  3  0  0  0  0  0  0
  -16.4990  -29.9910   23.7170 C   0  0  0  0  0  3  0  0  0  0  0  0
  -16.7030  -28.7260   23.1380 C   0  0  0  0  0  3  0  0  0  0  0  0
  -25.8930  -32.5860   23.9000 C   0  0  0  0  0  3  0  0  0  0  0  0
  -25.5800  -33.9910   24.2190 N   0  0  0  0  0  0  0  0  0  0  0  0
  -25.9090  -35.0420   23.4570 C   0  0  0  0  0  0  0  0  0  0  0  0
  -26.5730  -34.9310   22.4210 O   0  0  0  0  0  0  0  0  0  0  0  0
  -24.9890  -34.1500   25.0210 H   0  0  0  0  0  0  0  0  0  0  0  0
  -24.1760  -36.8350   23.1160 C   0  0  0  0  0  1  0  0  0  0  0  0
  -25.4310  -36.4370   23.9080 C   0  0  0  0  0  3  0  0  0  0  0  0
  -27.5760  -37.3390   24.6960 C   0  0  0  0  0  1  0  0  0  0  0  0
  -26.4620  -37.4880   23.7640 N   0  0  0  0  0  0  0  0  0  0  0  0
  -26.0550  -38.4110   23.8970 H   0  0  0  0  0  0  0  0  0  0  0  0
  -26.3850  -31.8320   25.1970 C   0  0  1  0  0  0  0  0  0  0  0  0
  -25.2730  -31.6140   26.2510 C   0  0  0  0  0  1  0  0  0  0  0  0
  -26.9680  -30.4450   24.8420 C   0  0  0  0  0  1  0  0  0  0  0  0
  -27.5280  -32.6310   25.8670 C   0  0  0  0  0  1  0  0  0  0  0  0
  -33.3890  -22.2030   18.1980 C   0  0  0  0  0  3  0  0  0  0  0  0
  -33.5870  -21.1130   19.0660 C   0  0  0  0  0  3  0  0  0  0  0  0
  -32.2140  -22.2790   17.4200 C   0  0  0  0  0  3  0  0  0  0  0  0
  -32.6020  -20.1080   19.1690 C   0  0  0  0  0  3  0  0  0  0  0  0
  -31.2260  -21.2810   17.5280 C   0  0  0  0  0  3  0  0  0  0  0  0
  -31.4070  -20.2100   18.4220 C   0  0  0  0  0  0  0  0  0  0  0  0
  -25.1960  -13.8910   20.5510 C   0  0  0  0  0  0  0  0  0  0  0  0
  -24.1410  -13.1040   20.9130 C   0  0  0  0  0  0  0  0  0  0  0  0
  -24.6230  -11.7580   20.8920 C   0  0  0  0  0  0  0  0  0  0  0  0
  -26.2470  -13.0260   20.3180 N   0  0  0  0  0  0  0  0  0  0  0  0
  -25.9180  -11.7380   20.5980 N   0  0  0  0  0  0  0  0  0  0  0  0
  -23.9090  -10.4860   21.0750 C   0  0  0  0  0  0  0  0  0  0  0  0
  -24.3470   -9.5180   22.0070 C   0  0  0  0  0  3  0  0  0  0  0  0
  -23.6310   -8.3140   22.1780 C   0  0  0  0  0  3  0  0  0  0  0  0
  -22.4630   -8.0700   21.4160 C   0  0  0  0  0  0  0  0  0  0  0  0
  -22.0440   -9.0240   20.4740 C   0  0  0  0  0  3  0  0  0  0  0  0
  -22.7620  -10.2210   20.3010 C   0  0  0  0  0  3  0  0  0  0  0  0
  -21.7150   -6.9220   21.5010 O   0  0  0  0  0  0  0  0  0  0  0  0
  -21.6740   -6.1720   22.6500 C   0  0  0  0  0  0  0  0  0  0  0  0
  -21.2270   -6.7120   23.8760 C   0  0  0  0  0  3  0  0  0  0  0  0
  -21.1320   -5.8870   25.0150 C   0  0  0  0  0  3  0  0  0  0  0  0
  -21.4790   -4.5240   24.9290 C   0  0  0  0  0  0  0  0  0  0  0  0
  -21.9220   -3.9860   23.7080 C   0  0  0  0  0  3  0  0  0  0  0  0
  -22.0180   -4.8080   22.5720 C   0  0  0  0  0  0  0  0  0  0  0  0
  -22.4240   -4.2780   21.3920 F   0  0  0  0  0  0  0  0  0  0  0  0
  -21.3830   -3.7320   26.0200 F   0  0  0  0  0  0  0  0  0  0  0  0
  -22.7340  -13.5650   21.1590 C   0  0  0  0  0  0  0  0  0  0  0  0
  -21.9970  -12.8740   22.0210 N   0  0  0  0  0  0  0  0  0  0  0  0
  -22.2970  -14.5830   20.6230 O   0  0  0  0  0  0  0  0  0  0  0  0
  -22.3580  -12.0560   22.4870 H   0  0  0  0  0  0  0  0  0  0  0  0
  -21.0550  -13.1800   22.2290 H   0  0  0  0  0  0  0  0  0  0  0  0
  -25.3470  -15.2660   20.3740 N   0  0  0  0  0  0  0  0  0  0  0  0
  -24.5760  -15.9170   20.4850 H   0  0  0  0  0  0  0  0  0  0  0  0
  -26.2100  -15.7080   20.0860 H   0  0  0  0  0  0  0  0  0  0  0  0
  2  7  1  0
  3  4  1  0
  3  2  1  0
  5  4  1  0
  5 71  1  0
  5  6  1  0
  7  1  1  0
  7  6  1  0
  8  1  2  0
  9 10  2  0
  9 11  1  0
 10 13  1  0
 11 14  1  0
 13 19  1  0
 13 12  1  0
 14  1  1  0
 14 12  1  0
 15 17  2  0
 15 19  1  0
 16 18  1  0
 17 20  1  0
 19 16  2  0
 20 21  1  0
 20 18  2  0
 21 23  1  0
 22 33  2  0
 23 28  1  0
 24 32  1  0
 24 34  1  0
 25 31  1  0
 25 27  1  0
 26 32  1  0
 27 28  2  0
 27 26  1  0
 29 23  2  0
 30 29  1  0
 30 25  2  0
 31 24  1  0
 32 22  1  0
 34 36  2  0
 35 34  1  0
 37 35  1  0
 38 47  2  0
 38 43  1  0
 39 35  1  0
 39 43  1  0
 40 39  1  0
 41 42  1  0
 41 40  1  0
 42 38  1  0
 43 44  2  0
 44 45  1  0
 46 45  2  0
 47 46  1  0
 48 22  1  0
 48 49  1  0
 48 58  1  0
 49 52  1  0
 50 54  1  0
 50 49  1  0
 51 50  2  0
 54 53  1  0
 56 57  1  0
 56 54  1  0
 56 55  1  0
 58 61  1  1
 58 59  1  0
 60 58  1  0
 62 63  1  0
 63 65  2  0
 64 66  1  0
 64 62  2  0
 66 67  2  0
 67 10  1  0
 67 65  1  0
 68 69  2  0
 69 88  1  0
 70 69  1  0
 70 73  1  0
 71 68  1  0
 71 72  1  0
 72 70  2  0
 73 74  1  0
 74 75  2  0
 76 79  1  0
 76 75  1  0
 77 76  2  0
 78 77  1  0
 78 73  2  0
 79 80  1  0
 80 81  1  0
 81 82  2  0
 83 82  1  0
 83 87  1  0
 84 83  2  0
 85 80  2  0
 85 84  1  0
 86 85  1  0
 88 89  1  0
 89 92  1  0
 89 91  1  0
 90 88  2  0
 93 94  1  0
 93 68  1  0
 95 93  1  0
M  ISO  4   1 100  14 100  20 101  21 101
M  END
>  <TORSDO>  (65) 
F 17

>  <SCORE>  (65) 
-15.532

>  <name>  (65) 
65

>  <ligand_id>  (65) 
65

>  <original_smiles>  (65) 
[H]C1=C(c2c([H])c([H])c([H])c([H])c2[H])C([H])(c2c([H])c([H])c(Oc3c([H])c([H])c4c(c3[H])C([H])([H])N(C(=O)C([H])(N([H])C(=O)C([H])(N([H])C([H])([H])[H])C([H])([H])[H])C(C([H])([H])[H])(C([H])([H])[H])C([H])([H])[H])C([H])(C(=O)N([H])C3([H])c5c([H])c([H])c([H])c([H])c5C([H])([H])C([H])([H])C3([H])[H])C4([H])[H])c([H])c2[H])C([H])([H])N(C(=O)N2C([H])([H])C([H])([H])C([H])([H])C([H])(n3nc(-c4c([H])c([H])c(Oc5c([H])c([H])c(F)c([H])c5F)c([H])c4[H])c(C(=O)N([H])[H])c3N([H])[H])C2([H])[H])C1([H])[H]

>  <smiles>  (65) 
[H]C1=C(c2c([H])c([H])c([H])c([H])c2[H])C([H])(c2c([H])c([H])c(Oc3c([H])c([H])c4c(c3[H])C([H])([H])N(C(=O)C([H])(N([H])C(=O)C([H])(N([H])C([H])([H])[H])C([H])([H])[H])C(C([H])([H])[H])(C([H])([H])[H])C([H])([H])[H])C([H])(C(=O)N([H])C3([H])c5c([H])c([H])c([H])c([H])c5C([H])([H])C([H])([H])C3([H])[H])C4([H])[H])c([H])c2[H])C([H])([H])N(C(=O)N2C([H])([H])C([H])([H])C([H])([H])C([H])(n3nc(-c4c([H])c([H])c(Oc5c([H])c([H])c(F)c([H])c5F)c([H])c4[H])c(C(=O)N([H])[H])c3N([H])[H])C2([H])[H])C1([H])[H]

$$$$
66:0:0
     RDKit          3D

 96104  0  0  1  0  0  0  0  0999 V2000
  -29.5110  -23.9560   21.7860 C   0  0  0  0  0  3  0  0  0  0  0  0
  -27.3370  -24.5170   20.8720 C   0  0  0  0  0  3  0  0  0  0  0  0
  -29.1910  -22.5870   21.7050 C   0  0  0  0  0  3  0  0  0  0  0  0
  -27.0280  -23.1450   20.7580 C   0  0  0  0  0  3  0  0  0  0  0  0
  -28.5990  -24.9450   21.3500 C   0  0  0  0  0  0  0  0  0  0  0  0
  -27.9640  -22.1640   21.1540 C   0  0  0  0  0  0  0  0  0  0  0  0
  -28.9970  -26.3840   21.4280 C   0  0  0  0  0  0  0  0  0  0  0  0
  -29.7030  -26.8920   22.3460 N   0  0  0  0  0  0  0  0  0  0  0  0
  -29.9260  -26.2050   23.0590 H   0  0  0  0  0  0  0  0  0  0  0  0
  -28.6660  -27.1140   20.3100 O   0  0  0  0  0  0  0  0  0  0  0  0
  -24.5620  -32.0510   23.4000 C   0  0  0  0  0  0  0  0  0  0  0  0
  -27.4970  -27.8340   20.3050 C   0  0  0  0  0  0  0  0  0  0  0  0
  -23.4800  -30.6590   21.6630 C   0  0  0  0  0  3  0  0  0  0  0  0
  -25.0470  -29.2320   20.2490 C   0  0  0  0  0  0  0  0  0  0  0  0
  -25.9910  -31.1290   21.5830 C   0  0  0  0  0  2  0  0  0  0  0  0
  -26.1520  -29.7830   20.9100 C   0  0  0  0  0  0  0  0  0  0  0  0
  -27.3800  -29.0880   20.9440 C   0  0  0  0  0  3  0  0  0  0  0  0
  -26.3840  -27.3010   19.6200 C   0  0  0  0  0  3  0  0  0  0  0  0
  -25.1540  -27.9860   19.6060 C   0  0  0  0  0  3  0  0  0  0  0  0
  -23.7710  -30.0370   20.2690 C   0  0  0  0  0  2  0  0  0  0  0  0
  -24.6920  -31.2940   22.2760 N   0  0  0  0  0  0  0  0  0  0  0  0
  -23.4500  -32.2580   23.9050 O   0  0  0  0  0  0  0  0  0  0  0  0
  -22.8350  -29.5800   22.5630 C   0  0  0  0  0  0  0  0  0  0  0  0
  -21.5190  -29.3700   22.3950 N   0  0  0  0  0  0  0  0  0  0  0  0
  -23.5170  -28.9350   23.3650 O   0  0  0  0  0  0  0  0  0  0  0  0
  -21.0340  -29.9370   21.7140 H   0  0  0  0  0  0  0  0  0  0  0  0
  -18.1550  -28.1030   22.7850 C   0  0  0  0  0  0  0  0  0  0  0  0
  -20.7070  -28.3780   23.1000 C   0  0  0  0  0  3  0  0  0  0  0  0
  -20.8390  -26.9890   22.4350 C   0  0  0  0  0  2  0  0  0  0  0  0
  -19.7440  -26.7070   21.4030 C   0  0  0  0  0  2  0  0  0  0  0  0
  -18.3590  -26.7930   22.0480 C   0  0  0  0  0  2  0  0  0  0  0  0
  -19.2580  -28.8550   23.2680 C   0  0  0  0  0  0  0  0  0  0  0  0
  -19.0130  -30.0850   23.9200 C   0  0  0  0  0  3  0  0  0  0  0  0
  -17.7000  -30.5580   24.0920 C   0  0  0  0  0  3  0  0  0  0  0  0
  -16.6120  -29.8010   23.6250 C   0  0  0  0  0  3  0  0  0  0  0  0
  -16.8400  -28.5740   22.9790 C   0  0  0  0  0  3  0  0  0  0  0  0
  -25.7970  -32.7090   24.0890 C   0  0  0  0  0  3  0  0  0  0  0  0
  -25.4670  -34.1190   24.3350 N   0  0  0  0  0  0  0  0  0  0  0  0
  -25.8540  -35.1360   23.5530 C   0  0  0  0  0  0  0  0  0  0  0  0
  -26.5940  -34.9870   22.5780 O   0  0  0  0  0  0  0  0  0  0  0  0
  -24.8160  -34.3050   25.0840 H   0  0  0  0  0  0  0  0  0  0  0  0
  -24.1430  -36.8970   23.0070 C   0  0  0  0  0  1  0  0  0  0  0  0
  -25.3340  -36.5420   23.9100 C   0  0  0  0  0  3  0  0  0  0  0  0
  -27.4190  -37.4720   24.8150 C   0  0  0  0  0  1  0  0  0  0  0  0
  -26.3680  -37.5950   23.8090 N   0  0  0  0  0  0  0  0  0  0  0  0
  -25.9530  -38.5180   23.8940 H   0  0  0  0  0  0  0  0  0  0  0  0
  -26.2130  -31.9900   25.4310 C   0  0  1  0  0  0  0  0  0  0  0  0
  -25.0360  -31.7720   26.4110 C   0  0  0  0  0  1  0  0  0  0  0  0
  -26.8460  -30.6090   25.1400 C   0  0  0  0  0  1  0  0  0  0  0  0
  -27.2930  -32.8260   26.1590 C   0  0  0  0  0  1  0  0  0  0  0  0
  -27.6430  -20.6750   21.0070 C   0  0  0  0  0  2  0  0  0  0  0  0
  -28.2870  -20.0440   19.8310 N   0  0  0  0  0  4  0  0  0  0  0  0
  -28.1910  -20.6690   19.0480 H   0  0  0  0  0  0  0  0  0  0  0  0
  -27.7570  -19.2190   19.6120 H   0  0  0  0  0  0  0  0  0  0  0  0
  -29.7090  -19.6430   19.9880 C   0  0  0  0  0  2  0  0  0  0  0  0
  -29.9160  -18.0990   19.9290 C   0  0  0  0  0  2  0  0  0  0  0  0
  -30.8590  -17.5390   21.0310 C   0  0  0  0  0  2  0  0  0  0  0  0
  -31.9660  -16.5780   20.5410 C   0  0  0  0  0  2  0  0  0  0  0  0
  -31.9920  -14.1550   19.8580 C   0  0  0  0  0  0  0  0  0  0  0  0
  -31.4580  -11.9020   19.0140 C   0  0  0  0  0  2  0  0  0  0  0  0
  -30.4680  -11.9860   17.8340 C   0  0  0  0  0  2  0  0  0  0  0  0
  -29.0110  -12.0610   18.3340 C   0  0  0  0  0  2  0  0  0  0  0  0
  -28.8100  -13.1320   19.4340 C   0  0  0  0  0  3  0  0  0  0  0  0
  -29.8780  -12.9640   20.5390 C   0  0  0  0  0  2  0  0  0  0  0  0
  -31.2100  -13.0460   19.9020 N   0  0  0  0  0  0  0  0  0  0  0  0
  -33.0440  -14.2280   19.2120 O   0  0  0  0  0  0  0  0  0  0  0  0
  -31.5020  -15.1930   20.5480 N   0  0  0  0  0  0  0  0  0  0  0  0
  -30.7050  -14.9850   21.1310 H   0  0  0  0  0  0  0  0  0  0  0  0
  -26.6170  -14.1530   20.3240 C   0  0  0  0  0  0  0  0  0  0  0  0
  -25.4310  -13.5740   20.7030 C   0  0  0  0  0  0  0  0  0  0  0  0
  -25.6120  -12.1690   20.5530 C   0  0  0  0  0  0  0  0  0  0  0  0
  -27.4520  -13.1020   19.9710 N   0  0  0  0  0  0  0  0  0  0  0  0
  -26.8510  -11.9030   20.1650 N   0  0  0  0  0  0  0  0  0  0  0  0
  -24.6610  -11.0620   20.7060 C   0  0  0  0  0  0  0  0  0  0  0  0
  -24.9560   -9.9520   21.5260 C   0  0  0  0  0  3  0  0  0  0  0  0
  -24.0220   -8.9050   21.6750 C   0  0  0  0  0  3  0  0  0  0  0  0
  -22.7790   -8.9620   21.0030 C   0  0  0  0  0  0  0  0  0  0  0  0
  -22.4980  -10.0600   20.1700 C   0  0  0  0  0  3  0  0  0  0  0  0
  -23.4310  -11.1000   20.0180 C   0  0  0  0  0  3  0  0  0  0  0  0
  -21.8200   -7.9800   21.0640 O   0  0  0  0  0  0  0  0  0  0  0  0
  -21.6980   -7.1590   22.1560 C   0  0  0  0  0  0  0  0  0  0  0  0
  -21.4940   -7.6760   23.4520 C   0  0  0  0  0  3  0  0  0  0  0  0
  -21.3050   -6.7990   24.5380 C   0  0  0  0  0  3  0  0  0  0  0  0
  -21.3080   -5.4060   24.3280 C   0  0  0  0  0  0  0  0  0  0  0  0
  -21.5080   -4.8890   23.0350 C   0  0  0  0  0  3  0  0  0  0  0  0
  -21.6980   -5.7640   21.9520 C   0  0  0  0  0  0  0  0  0  0  0  0
  -21.8670   -5.2630   20.7040 F   0  0  0  0  0  0  0  0  0  0  0  0
  -21.1190   -4.5600   25.3690 F   0  0  0  0  0  0  0  0  0  0  0  0
  -24.1690  -14.2920   21.0960 C   0  0  0  0  0  0  0  0  0  0  0  0
  -23.3750  -13.6900   21.9790 N   0  0  0  0  0  0  0  0  0  0  0  0
  -23.9060  -15.4150   20.6670 O   0  0  0  0  0  0  0  0  0  0  0  0
  -23.6060  -12.7830   22.3570 H   0  0  0  0  0  0  0  0  0  0  0  0
  -22.5250  -14.1430   22.2870 H   0  0  0  0  0  0  0  0  0  0  0  0
  -27.0450  -15.4750   20.2420 N   0  0  0  0  0  0  0  0  0  0  0  0
  -26.4150  -16.2480   20.4250 H   0  0  0  0  0  0  0  0  0  0  0  0
  -27.9560  -15.7690   19.9120 H   0  0  0  0  0  0  0  0  0  0  0  0
  2  5  1  0
  3  1  1  0
  4  2  2  0
  4  6  1  0
  5  7  1  0
  5  1  2  0
  6  3  2  0
  7  8  2  0
  8  9  1  0
 10  7  1  0
 11 22  2  0
 12 10  1  0
 12 17  1  0
 13 21  1  0
 13 23  1  0
 14 20  1  0
 14 16  1  0
 15 21  1  0
 16 17  2  0
 16 15  1  0
 18 12  2  0
 19 18  1  0
 19 14  2  0
 20 13  1  0
 21 11  1  0
 23 25  2  0
 24 23  1  0
 26 24  1  0
 27 36  2  0
 27 32  1  0
 28 24  1  0
 28 32  1  0
 29 28  1  0
 30 31  1  0
 30 29  1  0
 31 27  1  0
 32 33  2  0
 33 34  1  0
 35 34  2  0
 36 35  1  0
 37 11  1  0
 37 38  1  0
 37 47  1  0
 38 41  1  0
 39 43  1  0
 39 38  1  0
 40 39  2  0
 43 42  1  0
 45 46  1  0
 45 43  1  0
 45 44  1  0
 47 50  1  1
 47 48  1  0
 49 47  1  0
 51  6  1  0
 52 55  1  0
 52 51  1  0
 53 52  1  0
 54 52  1  0
 56 55  1  0
 56 57  1  0
 58 67  1  0
 58 57  1  0
 59 65  1  0
 59 67  1  0
 60 65  1  0
 61 62  1  0
 61 60  1  0
 63 62  1  0
 63 72  1  0
 63 64  1  0
 65 64  1  0
 66 59  2  0
 67 68  1  0
 69 70  2  0
 70 89  1  0
 71 70  1  0
 71 74  1  0
 72 73  1  0
 72 69  1  0
 73 71  2  0
 74 75  1  0
 75 76  2  0
 77 80  1  0
 77 76  1  0
 78 77  2  0
 79 78  1  0
 79 74  2  0
 80 81  1  0
 81 82  1  0
 82 83  2  0
 84 83  1  0
 84 88  1  0
 85 84  2  0
 86 81  2  0
 86 85  1  0
 87 86  1  0
 89 90  1  0
 90 93  1  0
 90 92  1  0
 91 89  2  0
 94 69  1  0
 94 95  1  0
 96 94  1  0
M  ISO  4   7 101  10 101  59 100  67 100
M  END
>  <TORSDO>  (66) 
F 23

>  <SCORE>  (66) 
-11.344

>  <name>  (66) 
66

>  <ligand_id>  (66) 
66

>  <original_smiles>  (66) 
[H]N=C(Oc1c([H])c([H])c2c(c1[H])C([H])([H])N(C(=O)C([H])(N([H])C(=O)C([H])(N([H])C([H])([H])[H])C([H])([H])[H])C(C([H])([H])[H])(C([H])([H])[H])C([H])([H])[H])C([H])(C(=O)N([H])C1([H])c3c([H])c([H])c([H])c([H])c3C([H])([H])C([H])([H])C1([H])[H])C2([H])[H])c1c([H])c([H])c(C([H])([H])[N+]([H])([H])C([H])([H])C([H])([H])C([H])([H])C([H])([H])N([H])C(=O)N2C([H])([H])C([H])([H])C([H])([H])C([H])(n3nc(-c4c([H])c([H])c(Oc5c([H])c([H])c(F)c([H])c5F)c([H])c4[H])c(C(=O)N([H])[H])c3N([H])[H])C2([H])[H])c([H])c1[H]

>  <smiles>  (66) 
[H]N=C(Oc1c([H])c([H])c2c(c1[H])C([H])([H])N(C(=O)C([H])(N([H])C(=O)C([H])(N([H])C([H])([H])[H])C([H])([H])[H])C(C([H])([H])[H])(C([H])([H])[H])C([H])([H])[H])C([H])(C(=O)N([H])C1([H])c3c([H])c([H])c([H])c([H])c3C([H])([H])C([H])([H])C1([H])[H])C2([H])[H])c1c([H])c([H])c(C([H])([H])[N+]([H])([H])C([H])([H])C([H])([H])C([H])([H])C([H])([H])N([H])C(=O)N2C([H])([H])C([H])([H])C([H])([H])C([H])(n3nc(-c4c([H])c([H])c(Oc5c([H])c([H])c(F)c([H])c5F)c([H])c4[H])c(C(=O)N([H])[H])c3N([H])[H])C2([H])[H])c([H])c1[H]

$$$$
67:0:0
     RDKit          3D

 87 95  0  0  1  0  0  0  0  0999 V2000
  -29.8280  -20.6930   20.4800 C   0  0  0  0  0  3  0  0  0  0  0  0
  -29.4100  -19.3640   20.2830 C   0  0  0  0  0  3  0  0  0  0  0  0
  -28.8310  -21.8350   20.2230 C   0  0  0  0  0  0  0  0  0  0  0  0
  -28.9650  -23.2700   20.3110 C   0  0  0  0  0  3  0  0  0  0  0  0
  -27.9560  -19.4930   19.8310 C   0  0  0  0  0  3  0  0  0  0  0  0
  -27.5890  -21.0490   19.8040 C   0  0  0  0  0  3  0  0  0  0  0  0
  -30.2600  -17.9100   20.3610 C   0  0  0  0  0  2  0  0  0  0  0  0
  -30.5360  -15.1380   20.2910 C   0  0  0  0  0  0  0  0  0  0  0  0
  -30.4140  -12.7700   19.3460 C   0  0  0  0  0  2  0  0  0  0  0  0
  -29.4690  -12.6910   18.1230 C   0  0  0  0  0  2  0  0  0  0  0  0
  -28.0170  -12.4570   18.5770 C   0  0  0  0  0  2  0  0  0  0  0  0
  -27.6120  -13.3820   19.7540 C   0  0  0  0  0  3  0  0  0  0  0  0
  -28.6820  -13.4310   20.8660 C   0  0  0  0  0  2  0  0  0  0  0  0
  -29.9290  -13.8750   20.2320 N   0  0  0  0  0  0  0  0  0  0  0  0
  -31.7420  -15.1650   20.0220 O   0  0  0  0  0  0  0  0  0  0  0  0
  -29.7990  -16.3710   20.4360 N   0  0  0  0  0  0  0  0  0  0  0  0
  -28.8120  -16.2380   20.6010 H   0  0  0  0  0  0  0  0  0  0  0  0
  -25.2460  -13.9380   20.5430 C   0  0  0  0  0  0  0  0  0  0  0  0
  -24.1890  -13.1560   20.9150 C   0  0  0  0  0  0  0  0  0  0  0  0
  -24.6550  -11.8060   20.8570 C   0  0  0  0  0  0  0  0  0  0  0  0
  -26.2860  -13.0670   20.2720 N   0  0  0  0  0  0  0  0  0  0  0  0
  -25.9430  -11.7780   20.5290 N   0  0  0  0  0  0  0  0  0  0  0  0
  -23.9320  -10.5400   21.0360 C   0  0  0  0  0  0  0  0  0  0  0  0
  -24.3610   -9.5680   21.9660 C   0  0  0  0  0  3  0  0  0  0  0  0
  -23.6360   -8.3680   22.1330 C   0  0  0  0  0  3  0  0  0  0  0  0
  -22.4660   -8.1330   21.3710 C   0  0  0  0  0  0  0  0  0  0  0  0
  -22.0560   -9.0950   20.4310 C   0  0  0  0  0  3  0  0  0  0  0  0
  -22.7830  -10.2840   20.2610 C   0  0  0  0  0  3  0  0  0  0  0  0
  -21.7130   -6.9870   21.4500 O   0  0  0  0  0  0  0  0  0  0  0  0
  -21.6390   -6.2520   22.6060 C   0  0  0  0  0  0  0  0  0  0  0  0
  -21.1370   -6.7990   23.8060 C   0  0  0  0  0  3  0  0  0  0  0  0
  -21.0120   -5.9880   24.9520 C   0  0  0  0  0  3  0  0  0  0  0  0
  -21.3790   -4.6310   24.8980 C   0  0  0  0  0  0  0  0  0  0  0  0
  -21.8750   -4.0830   23.7020 C   0  0  0  0  0  3  0  0  0  0  0  0
  -22.0000   -4.8910   22.5580 C   0  0  0  0  0  0  0  0  0  0  0  0
  -22.4580   -4.3510   21.4020 F   0  0  0  0  0  0  0  0  0  0  0  0
  -21.2540   -3.8500   25.9960 F   0  0  0  0  0  0  0  0  0  0  0  0
  -22.7950  -13.6270   21.2080 C   0  0  0  0  0  0  0  0  0  0  0  0
  -22.0790  -12.9200   22.0760 N   0  0  0  0  0  0  0  0  0  0  0  0
  -22.3500  -14.6570   20.7040 O   0  0  0  0  0  0  0  0  0  0  0  0
  -22.4530  -12.0870   22.5050 H   0  0  0  0  0  0  0  0  0  0  0  0
  -21.1440  -13.2180   22.3140 H   0  0  0  0  0  0  0  0  0  0  0  0
  -25.4040  -15.3120   20.3830 N   0  0  0  0  0  0  0  0  0  0  0  0
  -24.6330  -15.9580   20.5090 H   0  0  0  0  0  0  0  0  0  0  0  0
  -26.2340  -15.7570   20.0150 H   0  0  0  0  0  0  0  0  0  0  0  0
  -27.9670  -24.5850   20.0170 C   0  0  0  0  0  3  0  0  0  0  0  0
  -28.2750  -26.1250   20.2590 O   0  0  0  0  0  0  0  0  0  0  0  0
  -24.6860  -31.8980   23.2770 C   0  0  0  0  0  0  0  0  0  0  0  0
  -27.2430  -27.1560   20.2000 C   0  0  0  0  0  0  0  0  0  0  0  0
  -23.4820  -30.5160   21.6330 C   0  0  0  0  0  3  0  0  0  0  0  0
  -24.9240  -28.9470   20.1880 C   0  0  0  0  0  0  0  0  0  0  0  0
  -26.0390  -30.7660   21.4640 C   0  0  0  0  0  2  0  0  0  0  0  0
  -26.1100  -29.3750   20.7990 C   0  0  0  0  0  0  0  0  0  0  0  0
  -27.2690  -28.4980   20.7850 C   0  0  0  0  0  3  0  0  0  0  0  0
  -26.0290  -26.8510   19.5470 C   0  0  0  0  0  3  0  0  0  0  0  0
  -24.9000  -27.7010   19.5440 C   0  0  0  0  0  3  0  0  0  0  0  0
  -23.7000  -29.8500   20.2490 C   0  0  0  0  0  2  0  0  0  0  0  0
  -24.7560  -31.0830   22.1790 N   0  0  0  0  0  0  0  0  0  0  0  0
  -23.6020  -32.1790   23.8100 O   0  0  0  0  0  0  0  0  0  0  0  0
  -22.8030  -29.5030   22.5900 C   0  0  0  0  0  0  0  0  0  0  0  0
  -21.4780  -29.3160   22.4520 N   0  0  0  0  0  0  0  0  0  0  0  0
  -23.4730  -28.8880   23.4230 O   0  0  0  0  0  0  0  0  0  0  0  0
  -20.9910  -29.8640   21.7560 H   0  0  0  0  0  0  0  0  0  0  0  0
  -18.1090  -28.0640   22.9230 C   0  0  0  0  0  0  0  0  0  0  0  0
  -20.6610  -28.3690   23.2180 C   0  0  0  0  0  3  0  0  0  0  0  0
  -20.7900  -26.9360   22.6490 C   0  0  0  0  0  2  0  0  0  0  0  0
  -19.7060  -26.5930   21.6240 C   0  0  0  0  0  2  0  0  0  0  0  0
  -18.3150  -26.7170   22.2530 C   0  0  0  0  0  2  0  0  0  0  0  0
  -19.2100  -28.8470   23.3630 C   0  0  0  0  0  0  0  0  0  0  0  0
  -18.9620  -30.1050   23.9530 C   0  0  0  0  0  3  0  0  0  0  0  0
  -17.6470  -30.5820   24.1060 C   0  0  0  0  0  3  0  0  0  0  0  0
  -16.5610  -29.7990   23.6820 C   0  0  0  0  0  3  0  0  0  0  0  0
  -16.7930  -28.5400   23.0970 C   0  0  0  0  0  3  0  0  0  0  0  0
  -25.9640  -32.5320   23.9060 C   0  0  0  0  0  3  0  0  0  0  0  0
  -25.6560  -33.9340   24.2340 N   0  0  0  0  0  0  0  0  0  0  0  0
  -25.9610  -34.9860   23.4630 C   0  0  0  0  0  0  0  0  0  0  0  0
  -26.5980  -34.8790   22.4120 O   0  0  0  0  0  0  0  0  0  0  0  0
  -25.0860  -34.0900   25.0530 H   0  0  0  0  0  0  0  0  0  0  0  0
  -24.2070  -36.7690   23.1770 C   0  0  0  0  0  1  0  0  0  0  0  0
  -25.4890  -36.3770   23.9310 C   0  0  0  0  0  3  0  0  0  0  0  0
  -27.6480  -37.2930   24.6600 C   0  0  0  0  0  1  0  0  0  0  0  0
  -26.5070  -37.4350   23.7580 N   0  0  0  0  0  0  0  0  0  0  0  0
  -26.1020  -38.3560   23.9050 H   0  0  0  0  0  0  0  0  0  0  0  0
  -26.4660  -31.7660   25.1920 C   0  0  1  0  0  0  0  0  0  0  0  0
  -25.3630  -31.5390   26.2520 C   0  0  0  0  0  1  0  0  0  0  0  0
  -27.0500  -30.3840   24.8200 C   0  0  0  0  0  1  0  0  0  0  0  0
  -27.6130  -32.5620   25.8600 C   0  0  0  0  0  1  0  0  0  0  0  0
  2  7  1  0
  2  1  1  0
  3  4  1  0
  3  1  2  0
  5  2  1  0
  6  5  2  0
  6  3  1  0
  7 16  1  0
  8 16  1  0
  9 14  1  0
 10 11  1  0
 10  9  1  0
 12 11  1  0
 12 21  1  0
 12 13  1  0
 14  8  1  0
 14 13  1  0
 15  8  2  0
 16 17  1  0
 18 19  2  0
 19 38  1  0
 20 19  1  0
 20 23  1  0
 21 22  1  0
 21 18  1  0
 22 20  2  0
 23 24  1  0
 24 25  2  0
 26 29  1  0
 26 25  1  0
 27 26  2  0
 28 27  1  0
 28 23  2  0
 29 30  1  0
 30 31  1  0
 31 32  2  0
 33 32  1  0
 33 37  1  0
 34 33  2  0
 35 30  2  0
 35 34  1  0
 36 35  1  0
 38 39  1  0
 39 42  1  0
 39 41  1  0
 40 38  2  0
 43 44  1  0
 43 18  1  0
 45 43  1  0
 46 47  1  0
 46  4  2  0
 48 59  2  0
 49 47  1  0
 49 54  1  0
 50 58  1  0
 50 60  1  0
 51 57  1  0
 51 53  1  0
 52 58  1  0
 53 52  1  0
 54 53  2  0
 55 49  2  0
 56 55  1  0
 56 51  2  0
 57 50  1  0
 58 48  1  0
 60 62  2  0
 61 60  1  0
 63 61  1  0
 64 73  2  0
 64 69  1  0
 65 61  1  0
 65 69  1  0
 66 65  1  0
 67 68  1  0
 67 66  1  0
 68 64  1  0
 69 70  2  0
 70 71  1  0
 72 71  2  0
 73 72  1  0
 74 48  1  0
 74 75  1  0
 74 84  1  0
 75 78  1  0
 76 80  1  0
 76 75  1  0
 77 76  2  0
 80 79  1  0
 82 83  1  0
 82 80  1  0
 82 81  1  0
 84 87  1  1
 84 85  1  0
 86 84  1  0
M  ISO  4   8 100  16 100  46 101  47 101
M  END
>  <TORSDO>  (67) 
F 18

>  <SCORE>  (67) 
-14.405

>  <name>  (67) 
67

>  <ligand_id>  (67) 
67

>  <original_smiles>  (67) 
[H]C1=C(C([H])([H])N([H])C(=O)N2C([H])([H])C([H])([H])C([H])([H])C([H])(n3nc(-c4c([H])c([H])c(Oc5c([H])c([H])c(F)c([H])c5F)c([H])c4[H])c(C(=O)N([H])[H])c3N([H])[H])C2([H])[H])C([H])([H])C([H])([H])C1=C([H])C([H])([H])Oc1c([H])c([H])c2c(c1[H])C([H])([H])N(C(=O)C([H])(N([H])C(=O)C([H])(N([H])C([H])([H])[H])C([H])([H])[H])C(C([H])([H])[H])(C([H])([H])[H])C([H])([H])[H])C([H])(C(=O)N([H])C1([H])c3c([H])c([H])c([H])c([H])c3C([H])([H])C([H])([H])C1([H])[H])C2([H])[H]

>  <smiles>  (67) 
[H]C1=C(C([H])([H])N([H])C(=O)N2C([H])([H])C([H])([H])C([H])([H])C([H])(n3nc(-c4c([H])c([H])c(Oc5c([H])c([H])c(F)c([H])c5F)c([H])c4[H])c(C(=O)N([H])[H])c3N([H])[H])C2([H])[H])C([H])([H])C([H])([H])C1=C([H])C([H])([H])Oc1c([H])c([H])c2c(c1[H])C([H])([H])N(C(=O)C([H])(N([H])C(=O)C([H])(N([H])C([H])([H])[H])C([H])([H])[H])C(C([H])([H])[H])(C([H])([H])[H])C([H])([H])[H])C([H])(C(=O)N([H])C1([H])c3c([H])c([H])c([H])c([H])c3C([H])([H])C([H])([H])C1([H])[H])C2([H])[H]

$$$$
68:0:0
     RDKit          3D

 93102  0  0  1  0  0  0  0  0999 V2000
  -30.2180  -16.8720   20.7400 C   0  0  0  0  0  0  0  0  0  0  0  0
  -31.7140  -18.8810   20.1220 C   0  0  0  0  0  0  0  0  0  0  0  0
  -31.6300  -17.3670   20.3350 C   0  0  0  0  0  2  0  0  0  0  0  0
  -29.2330  -18.0340   21.0520 C   0  0  0  0  0  2  0  0  0  0  0  0
  -30.5910  -20.9940   19.0830 C   0  0  0  0  0  2  0  0  0  0  0  0
  -30.5660  -19.4750   19.3030 C   0  0  0  0  0  3  0  0  0  0  0  0
  -29.2080  -19.1760   19.9640 C   0  0  0  0  0  3  0  0  0  0  0  0
  -29.5750  -21.6090   20.0660 C   0  0  0  0  0  3  0  0  0  0  0  0
  -29.8360  -15.6330   20.8600 N   0  0  0  0  0  0  0  0  0  0  0  0
  -28.6510  -20.4900   20.4200 N   0  0  0  0  0  4  0  0  0  0  0  0
  -32.6530  -19.5570   20.5580 O   0  0  0  0  0  0  0  0  0  0  0  0
  -28.4810  -20.4930   21.4140 H   0  0  0  0  0  0  0  0  0  0  0  0
  -27.7620  -20.6320   19.9660 H   0  0  0  0  0  0  0  0  0  0  0  0
  -30.6460  -14.5370   20.4910 C   0  0  0  0  0  0  0  0  0  0  0  0
  -30.3690  -12.3420   19.3890 C   0  0  0  0  0  2  0  0  0  0  0  0
  -29.4580  -12.5470   18.1600 C   0  0  0  0  0  2  0  0  0  0  0  0
  -27.9730  -12.4220   18.5550 C   0  0  0  0  0  2  0  0  0  0  0  0
  -27.6130  -13.2660   19.8080 C   0  0  0  0  0  3  0  0  0  0  0  0
  -28.6460  -13.0590   20.9360 C   0  0  0  0  0  2  0  0  0  0  0  0
  -29.9820  -13.3490   20.3940 N   0  0  0  0  0  0  0  0  0  0  0  0
  -31.8170  -14.6070   20.1140 O   0  0  0  0  0  0  0  0  0  0  0  0
  -25.2050  -13.8850   20.4640 C   0  0  0  0  0  0  0  0  0  0  0  0
  -24.1270  -13.1210   20.8200 C   0  0  0  0  0  0  0  0  0  0  0  0
  -24.5850  -11.7680   20.8190 C   0  0  0  0  0  0  0  0  0  0  0  0
  -26.2520  -12.9980   20.2650 N   0  0  0  0  0  0  0  0  0  0  0  0
  -25.8820  -11.7200   20.5380 N   0  0  0  0  0  0  0  0  0  0  0  0
  -23.8510  -10.5100   21.0120 C   0  0  0  0  0  0  0  0  0  0  0  0
  -24.2700   -9.5470   21.9550 C   0  0  0  0  0  3  0  0  0  0  0  0
  -23.5370   -8.3540   22.1350 C   0  0  0  0  0  3  0  0  0  0  0  0
  -22.3700   -8.1160   21.3720 C   0  0  0  0  0  0  0  0  0  0  0  0
  -21.9700   -9.0680   20.4180 C   0  0  0  0  0  3  0  0  0  0  0  0
  -22.7040  -10.2520   20.2360 C   0  0  0  0  0  3  0  0  0  0  0  0
  -21.6100   -6.9760   21.4600 O   0  0  0  0  0  0  0  0  0  0  0  0
  -21.5550   -6.2350   22.6130 C   0  0  0  0  0  0  0  0  0  0  0  0
  -21.1350   -6.7950   23.8390 C   0  0  0  0  0  3  0  0  0  0  0  0
  -21.0270   -5.9800   24.9850 C   0  0  0  0  0  3  0  0  0  0  0  0
  -21.3280   -4.6080   24.9050 C   0  0  0  0  0  0  0  0  0  0  0  0
  -21.7410   -4.0480   23.6830 C   0  0  0  0  0  3  0  0  0  0  0  0
  -21.8510   -4.8580   22.5400 C   0  0  0  0  0  0  0  0  0  0  0  0
  -22.2290   -4.3090   21.3600 F   0  0  0  0  0  0  0  0  0  0  0  0
  -21.2170   -3.8240   26.0020 F   0  0  0  0  0  0  0  0  0  0  0  0
  -22.7260  -13.6060   21.0570 C   0  0  0  0  0  0  0  0  0  0  0  0
  -21.9780  -12.9230   21.9160 N   0  0  0  0  0  0  0  0  0  0  0  0
  -22.3030  -14.6260   20.5140 O   0  0  0  0  0  0  0  0  0  0  0  0
  -22.3330  -12.0970   22.3750 H   0  0  0  0  0  0  0  0  0  0  0  0
  -21.0370  -13.2300   22.1180 H   0  0  0  0  0  0  0  0  0  0  0  0
  -25.3810  -15.2530   20.2720 N   0  0  0  0  0  0  0  0  0  0  0  0
  -24.6240  -15.9210   20.3650 H   0  0  0  0  0  0  0  0  0  0  0  0
  -26.2580  -15.6760   19.9950 H   0  0  0  0  0  0  0  0  0  0  0  0
  -28.8900  -22.8850   19.4480 C   0  0  0  0  0  2  0  0  0  0  0  0
  -28.7160  -24.1650   20.3290 C   0  0  0  0  0  2  0  0  0  0  0  0
  -28.6640  -25.4790   19.4830 C   0  0  0  0  0  2  0  0  0  0  0  0
  -28.4770  -26.7030   20.2310 O   0  0  0  0  0  0  0  0  0  0  0  0
  -24.6010  -31.8880   23.2330 C   0  0  0  0  0  0  0  0  0  0  0  0
  -27.2840  -27.4110   20.1920 C   0  0  0  0  0  0  0  0  0  0  0  0
  -23.4140  -30.4740   21.5880 C   0  0  0  0  0  3  0  0  0  0  0  0
  -24.8830  -28.9340   20.1820 C   0  0  0  0  0  0  0  0  0  0  0  0
  -25.9430  -30.8330   21.4110 C   0  0  0  0  0  2  0  0  0  0  0  0
  -26.0370  -29.4570   20.7760 C   0  0  0  0  0  0  0  0  0  0  0  0
  -27.2350  -28.7020   20.7780 C   0  0  0  0  0  3  0  0  0  0  0  0
  -26.0980  -26.9020   19.6120 C   0  0  0  0  0  3  0  0  0  0  0  0
  -24.9090  -27.6560   19.6000 C   0  0  0  0  0  3  0  0  0  0  0  0
  -23.6370  -29.7920   20.2130 C   0  0  0  0  0  2  0  0  0  0  0  0
  -24.6710  -31.0810   22.1350 N   0  0  0  0  0  0  0  0  0  0  0  0
  -23.5130  -32.1580   23.7620 O   0  0  0  0  0  0  0  0  0  0  0  0
  -22.7580  -29.4540   22.5470 C   0  0  0  0  0  0  0  0  0  0  0  0
  -21.4330  -29.2760   22.4190 N   0  0  0  0  0  0  0  0  0  0  0  0
  -23.4380  -28.8270   23.3630 O   0  0  0  0  0  0  0  0  0  0  0  0
  -20.9450  -29.8350   21.7330 H   0  0  0  0  0  0  0  0  0  0  0  0
  -18.0500  -28.1090   22.9290 C   0  0  0  0  0  0  0  0  0  0  0  0
  -20.6130  -28.3410   23.1870 C   0  0  0  0  0  3  0  0  0  0  0  0
  -20.6990  -26.9130   22.6010 C   0  0  0  0  0  2  0  0  0  0  0  0
  -19.5870  -26.6090   21.5900 C   0  0  0  0  0  2  0  0  0  0  0  0
  -18.2110  -26.7630   22.2440 C   0  0  0  0  0  2  0  0  0  0  0  0
  -19.1790  -28.8570   23.3580 C   0  0  0  0  0  0  0  0  0  0  0  0
  -18.9760  -30.1190   23.9580 C   0  0  0  0  0  3  0  0  0  0  0  0
  -17.6770  -30.6330   24.1350 C   0  0  0  0  0  3  0  0  0  0  0  0
  -16.5640  -29.8810   23.7220 C   0  0  0  0  0  3  0  0  0  0  0  0
  -16.7510  -28.6220   23.1250 C   0  0  0  0  0  3  0  0  0  0  0  0
  -25.8780  -32.5280   23.8600 C   0  0  0  0  0  3  0  0  0  0  0  0
  -26.3930  -31.7610   25.1400 C   0  0  1  0  0  0  0  0  0  0  0  0
  -25.2960  -31.5160   26.2020 C   0  0  0  0  0  1  0  0  0  0  0  0
  -26.9870  -30.3870   24.7500 C   0  0  0  0  0  1  0  0  0  0  0  0
  -27.5350  -32.5620   25.8070 C   0  0  0  0  0  1  0  0  0  0  0  0
  -25.5590  -33.9240   24.1860 N   0  0  0  0  0  0  0  0  0  0  0  0
  -25.8900  -34.9770   23.4260 C   0  0  0  0  0  0  0  0  0  0  0  0
  -26.5680  -34.8760   22.3990 O   0  0  0  0  0  0  0  0  0  0  0  0
  -24.9580  -34.0770   24.9830 H   0  0  0  0  0  0  0  0  0  0  0  0
  -24.1540  -36.7590   23.0540 C   0  0  0  0  0  1  0  0  0  0  0  0
  -25.3910  -36.3630   23.8780 C   0  0  0  0  0  3  0  0  0  0  0  0
  -27.5140  -37.2600   24.7230 C   0  0  0  0  0  1  0  0  0  0  0  0
  -26.4180  -37.4220   23.7710 N   0  0  0  0  0  0  0  0  0  0  0  0
  -26.0060  -38.3400   23.9150 H   0  0  0  0  0  0  0  0  0  0  0  0
  1  9  2  0
  1  4  1  0
  2  3  1  0
  2 11  2  0
  3  1  1  0
  5  8  1  0
  6  5  1  0
  6  7  1  0
  6  2  1  0
  7 10  1  0
  7  4  1  0
  8 50  1  0
  8 10  1  0
 10 12  1  0
 13 10  1  0
 14  9  1  0
 15 20  1  0
 16 17  1  0
 16 15  1  0
 18 17  1  0
 18 25  1  0
 18 19  1  0
 20 14  1  0
 20 19  1  0
 21 14  2  0
 22 23  2  0
 23 42  1  0
 24 23  1  0
 24 27  1  0
 25 22  1  0
 25 26  1  0
 26 24  2  0
 27 28  1  0
 28 29  2  0
 30 33  1  0
 30 29  1  0
 31 30  2  0
 32 31  1  0
 32 27  2  0
 33 34  1  0
 34 35  1  0
 35 36  2  0
 37 36  1  0
 37 41  1  0
 38 37  2  0
 39 34  2  0
 39 38  1  0
 40 39  1  0
 42 43  1  0
 43 46  1  0
 43 45  1  0
 44 42  2  0
 47 48  1  0
 47 22  1  0
 49 47  1  0
 50 51  1  0
 52 53  1  0
 52 51  1  0
 54 65  2  0
 55 53  1  0
 55 60  1  0
 56 64  1  0
 56 66  1  0
 57 63  1  0
 57 59  1  0
 58 64  1  0
 59 60  2  0
 59 58  1  0
 61 55  2  0
 62 61  1  0
 62 57  2  0
 63 56  1  0
 64 54  1  0
 66 68  2  0
 67 66  1  0
 69 67  1  0
 70 79  2  0
 70 75  1  0
 71 67  1  0
 71 75  1  0
 72 71  1  0
 73 74  1  0
 73 72  1  0
 74 70  1  0
 75 76  2  0
 76 77  1  0
 78 77  2  0
 79 78  1  0
 80 54  1  0
 80 85  1  0
 80 81  1  0
 81 84  1  1
 81 82  1  0
 83 81  1  0
 85 88  1  0
 86 90  1  0
 86 85  1  0
 87 86  2  0
 90 89  1  0
 92 90  1  0
 92 93  1  0
 92 91  1  0
M  ISO  4   9 100  14 100  52 101  53 101
M  END
>  <TORSDO>  (68) 
F 19

>  <SCORE>  (68) 
-14.279

>  <name>  (68) 
68

>  <ligand_id>  (68) 
68

>  <original_smiles>  (68) 
[H]c1c([H])c([H])c2c(c1[H])C([H])([H])C([H])([H])C([H])([H])C2([H])N([H])C(=O)C1([H])N(C(=O)C([H])(N([H])C(=O)C([H])(N([H])C([H])([H])[H])C([H])([H])[H])C(C([H])([H])[H])(C([H])([H])[H])C([H])([H])[H])C([H])([H])c2c([H])c(OC([H])([H])C([H])([H])C([H])([H])C3([H])C([H])([H])C4([H])C(=O)C([H])([H])C(=NC(=O)N5C([H])([H])C([H])([H])C([H])([H])C([H])(n6nc(-c7c([H])c([H])c(Oc8c([H])c([H])c(F)c([H])c8F)c([H])c7[H])c(C(=O)N([H])[H])c6N([H])[H])C5([H])[H])C([H])([H])C4([H])[N+]3([H])[H])c([H])c([H])c2C1([H])[H]

>  <smiles>  (68) 
[H]c1c([H])c([H])c2c(c1[H])C([H])([H])C([H])([H])C([H])([H])C2([H])N([H])C(=O)C1([H])N(C(=O)C([H])(N([H])C(=O)C([H])(N([H])C([H])([H])[H])C([H])([H])[H])C(C([H])([H])[H])(C([H])([H])[H])C([H])([H])[H])C([H])([H])c2c([H])c(OC([H])([H])C([H])([H])C([H])([H])C3([H])C([H])([H])C4([H])C(=O)C([H])([H])C(=NC(=O)N5C([H])([H])C([H])([H])C([H])([H])C([H])(n6nc(-c7c([H])c([H])c(Oc8c([H])c([H])c(F)c([H])c8F)c([H])c7[H])c(C(=O)N([H])[H])c6N([H])[H])C5([H])[H])C([H])([H])C4([H])[N+]3([H])[H])c([H])c([H])c2C1([H])[H]

$$$$
69:0:0
     RDKit          3D

 86 95  0  0  1  0  0  0  0  0999 V2000
  -30.2820  -15.7330   20.2970 C   0  0  0  0  0  0  0  0  0  0  0  0
  -30.3710  -13.1870   19.4610 C   0  0  0  0  0  2  0  0  0  0  0  0
  -29.4930  -12.7360   18.2570 C   0  0  0  0  0  2  0  0  0  0  0  0
  -28.0680  -12.3830   18.7060 C   0  0  0  0  0  2  0  0  0  0  0  0
  -27.5440  -13.3920   19.7530 C   0  0  0  0  0  3  0  0  0  0  0  0
  -28.5690  -13.7430   20.8580 C   0  0  0  0  0  2  0  0  0  0  0  0
  -29.7260  -14.3780   20.1800 N   0  0  0  0  0  0  0  0  0  0  0  0
  -31.5250  -15.6090   20.2820 O   0  0  0  0  0  0  0  0  0  0  0  0
  -28.7360  -22.0990   20.1240 C   0  0  0  0  0  3  0  0  0  0  0  0
  -29.1840  -19.0730   18.3400 C   0  0  0  0  0  2  0  0  0  0  0  0
  -28.9320  -17.5790   18.9390 C   0  0  0  0  0  2  0  0  0  0  0  0
  -29.7360  -18.7610   20.8520 C   0  0  0  0  0  2  0  0  0  0  0  0
  -28.6850  -20.2990   20.5810 C   0  0  0  0  0  3  0  0  0  0  0  0
  -28.5060  -20.3010   19.0840 C   0  0  0  0  0  3  0  0  0  0  0  0
  -29.1930  -21.7410   19.0010 N   0  0  0  0  0  2  0  0  0  0  0  0
  -29.5920  -17.1550   20.2320 N   0  0  0  0  0  0  0  0  0  0  0  0
  -25.1790  -13.9160   20.5000 C   0  0  0  0  0  0  0  0  0  0  0  0
  -24.1180  -13.1330   20.8570 C   0  0  0  0  0  0  0  0  0  0  0  0
  -24.5950  -11.7860   20.8380 C   0  0  0  0  0  0  0  0  0  0  0  0
  -26.2280  -13.0480   20.2710 N   0  0  0  0  0  0  0  0  0  0  0  0
  -25.8920  -11.7590   20.5430 N   0  0  0  0  0  0  0  0  0  0  0  0
  -23.8680  -10.5210   21.0250 C   0  0  0  0  0  0  0  0  0  0  0  0
  -24.2850   -9.5590   21.9710 C   0  0  0  0  0  3  0  0  0  0  0  0
  -23.5550   -8.3640   22.1460 C   0  0  0  0  0  3  0  0  0  0  0  0
  -22.3930   -8.1210   21.3770 C   0  0  0  0  0  0  0  0  0  0  0  0
  -21.9940   -9.0720   20.4190 C   0  0  0  0  0  3  0  0  0  0  0  0
  -22.7250  -10.2580   20.2430 C   0  0  0  0  0  3  0  0  0  0  0  0
  -21.6350   -6.9770   21.4610 O   0  0  0  0  0  0  0  0  0  0  0  0
  -21.5650   -6.2440   22.6190 C   0  0  0  0  0  0  0  0  0  0  0  0
  -21.1150   -6.8090   23.8330 C   0  0  0  0  0  3  0  0  0  0  0  0
  -20.9920   -6.0030   24.9820 C   0  0  0  0  0  3  0  0  0  0  0  0
  -21.3100   -4.6340   24.9190 C   0  0  0  0  0  0  0  0  0  0  0  0
  -21.7500   -4.0670   23.7100 C   0  0  0  0  0  3  0  0  0  0  0  0
  -21.8750   -4.8710   22.5620 C   0  0  0  0  0  0  0  0  0  0  0  0
  -22.2810   -4.3150   21.3950 F   0  0  0  0  0  0  0  0  0  0  0  0
  -21.1830   -3.8570   26.0200 F   0  0  0  0  0  0  0  0  0  0  0  0
  -22.7150  -13.6060   21.0980 C   0  0  0  0  0  0  0  0  0  0  0  0
  -21.9770  -12.9210   21.9630 N   0  0  0  0  0  0  0  0  0  0  0  0
  -22.2810  -14.6210   20.5540 O   0  0  0  0  0  0  0  0  0  0  0  0
  -22.3390  -12.0990   22.4240 H   0  0  0  0  0  0  0  0  0  0  0  0
  -21.0350  -13.2230   22.1690 H   0  0  0  0  0  0  0  0  0  0  0  0
  -25.3360  -15.2870   20.3200 N   0  0  0  0  0  0  0  0  0  0  0  0
  -24.5670  -15.9390   20.4280 H   0  0  0  0  0  0  0  0  0  0  0  0
  -26.1950  -15.7320   20.0200 H   0  0  0  0  0  0  0  0  0  0  0  0
  -28.0700  -23.7930   20.6020 C   0  0  0  0  0  2  0  0  0  0  0  0
  -28.2130  -25.5190   20.2170 O   0  0  0  0  0  0  0  0  0  0  0  0
  -24.6540  -31.8510   23.1350 C   0  0  0  0  0  0  0  0  0  0  0  0
  -27.2210  -26.7270   20.2320 C   0  0  0  0  0  0  0  0  0  0  0  0
  -23.4760  -30.4180   21.5240 C   0  0  0  0  0  3  0  0  0  0  0  0
  -24.9340  -28.7520   20.1440 C   0  0  0  0  0  0  0  0  0  0  0  0
  -26.0550  -30.5750   21.3950 C   0  0  0  0  0  2  0  0  0  0  0  0
  -26.1320  -29.1280   20.7650 C   0  0  0  0  0  0  0  0  0  0  0  0
  -27.2620  -28.1480   20.7650 C   0  0  0  0  0  3  0  0  0  0  0  0
  -25.9820  -26.5650   19.5590 C   0  0  0  0  0  3  0  0  0  0  0  0
  -24.8990  -27.4970   19.5160 C   0  0  0  0  0  3  0  0  0  0  0  0
  -23.7210  -29.6980   20.1660 C   0  0  0  0  0  2  0  0  0  0  0  0
  -24.7540  -30.9820   22.0690 N   0  0  0  0  0  0  0  0  0  0  0  0
  -23.5570  -32.1500   23.6410 O   0  0  0  0  0  0  0  0  0  0  0  0
  -22.7660  -29.4520   22.5110 C   0  0  0  0  0  0  0  0  0  0  0  0
  -21.4330  -29.2880   22.3910 N   0  0  0  0  0  0  0  0  0  0  0  0
  -23.4260  -28.8430   23.3570 O   0  0  0  0  0  0  0  0  0  0  0  0
  -20.9490  -29.8300   21.6880 H   0  0  0  0  0  0  0  0  0  0  0  0
  -18.0530  -28.0650   22.9310 C   0  0  0  0  0  0  0  0  0  0  0  0
  -20.6130  -28.3580   23.1790 C   0  0  0  0  0  3  0  0  0  0  0  0
  -20.7220  -26.9170   22.6270 C   0  0  0  0  0  2  0  0  0  0  0  0
  -19.6200  -26.5710   21.6200 C   0  0  0  0  0  2  0  0  0  0  0  0
  -18.2390  -26.7110   22.2670 C   0  0  0  0  0  2  0  0  0  0  0  0
  -19.1670  -28.8460   23.3440 C   0  0  0  0  0  0  0  0  0  0  0  0
  -18.9350  -30.1090   23.9290 C   0  0  0  0  0  3  0  0  0  0  0  0
  -17.6240  -30.5930   24.1030 C   0  0  0  0  0  3  0  0  0  0  0  0
  -16.5270  -29.8120   23.7020 C   0  0  0  0  0  3  0  0  0  0  0  0
  -16.7420  -28.5490   23.1220 C   0  0  0  0  0  3  0  0  0  0  0  0
  -25.9100  -32.5210   23.7680 C   0  0  0  0  0  3  0  0  0  0  0  0
  -25.5630  -33.9130   24.1180 N   0  0  0  0  0  0  0  0  0  0  0  0
  -25.8700  -34.9930   23.3880 C   0  0  0  0  0  0  0  0  0  0  0  0
  -26.5330  -34.9250   22.3500 O   0  0  0  0  0  0  0  0  0  0  0  0
  -24.9710  -34.0360   24.9260 H   0  0  0  0  0  0  0  0  0  0  0  0
  -24.1090  -36.7740   23.1000 C   0  0  0  0  0  1  0  0  0  0  0  0
  -25.3670  -36.3670   23.8840 C   0  0  0  0  0  3  0  0  0  0  0  0
  -27.4980  -37.2760   24.7040 C   0  0  0  0  0  1  0  0  0  0  0  0
  -26.3800  -37.4410   23.7790 N   0  0  0  0  0  0  0  0  0  0  0  0
  -25.9600  -38.3510   23.9480 H   0  0  0  0  0  0  0  0  0  0  0  0
  -26.4350  -31.7630   25.0500 C   0  0  1  0  0  0  0  0  0  0  0  0
  -25.3510  -31.5370   26.1310 C   0  0  0  0  0  1  0  0  0  0  0  0
  -27.0150  -30.3800   24.6800 C   0  0  0  0  0  1  0  0  0  0  0  0
  -27.5910  -32.5640   25.6950 C   0  0  0  0  0  1  0  0  0  0  0  0
  2  7  1  0
  3  4  1  0
  3  2  1  0
  5  4  1  0
  5 20  1  0
  5  6  1  0
  7  1  1  0
  7  6  1  0
  8  1  2  0
  9 13  1  0
  9 45  1  0
 10 11  1  0
 11 16  1  0
 13 12  1  0
 14 10  1  0
 14 13  1  0
 15 14  1  0
 15  9  1  0
 16  1  1  0
 16 12  1  0
 17 18  2  0
 18 37  1  0
 19 18  1  0
 19 22  1  0
 20 17  1  0
 20 21  1  0
 21 19  2  0
 22 23  1  0
 23 24  2  0
 25 28  1  0
 25 24  1  0
 26 25  2  0
 27 26  1  0
 27 22  2  0
 28 29  1  0
 29 30  1  0
 30 31  2  0
 32 31  1  0
 32 36  1  0
 33 32  2  0
 34 29  2  0
 34 33  1  0
 35 34  1  0
 37 38  1  0
 38 41  1  0
 38 40  1  0
 39 37  2  0
 42 43  1  0
 42 17  1  0
 44 42  1  0
 46 48  1  0
 46 45  1  0
 47 58  2  0
 48 53  1  0
 49 57  1  0
 49 59  1  0
 50 56  1  0
 50 52  1  0
 51 57  1  0
 52 51  1  0
 53 52  2  0
 54 48  2  0
 55 54  1  0
 55 50  2  0
 56 49  1  0
 57 47  1  0
 59 61  2  0
 60 59  1  0
 62 60  1  0
 63 72  2  0
 63 68  1  0
 64 60  1  0
 64 68  1  0
 65 64  1  0
 66 67  1  0
 66 65  1  0
 67 63  1  0
 68 69  2  0
 69 70  1  0
 71 70  2  0
 72 71  1  0
 73 47  1  0
 73 74  1  0
 73 83  1  0
 74 77  1  0
 75 79  1  0
 75 74  1  0
 76 75  2  0
 79 78  1  0
 81 79  1  0
 81 82  1  0
 81 80  1  0
 83 86  1  1
 83 84  1  0
 85 83  1  0
M  ISO  4   1 100  16 100  45 101  46 101
M  END
>  <TORSDO>  (69) 
F 16

>  <SCORE>  (69) 
-16.537

>  <name>  (69) 
69

>  <ligand_id>  (69) 
69

>  <original_smiles>  (69) 
[H]c1c([H])c([H])c2c(c1[H])C([H])([H])C([H])([H])C([H])([H])C2([H])N([H])C(=O)C1([H])N(C(=O)C([H])(N([H])C(=O)C([H])(N([H])C([H])([H])[H])C([H])([H])[H])C(C([H])([H])[H])(C([H])([H])[H])C([H])([H])[H])C([H])([H])c2c([H])c(OC([H])([H])C3=NC4([H])C([H])([H])C([H])([H])N(C(=O)N5C([H])([H])C([H])([H])C([H])([H])C([H])(n6nc(-c7c([H])c([H])c(Oc8c([H])c([H])c(F)c([H])c8F)c([H])c7[H])c(C(=O)N([H])[H])c6N([H])[H])C5([H])[H])C([H])([H])C34[H])c([H])c([H])c2C1([H])[H]

>  <smiles>  (69) 
[H]c1c([H])c([H])c2c(c1[H])C([H])([H])C([H])([H])C([H])([H])C2([H])N([H])C(=O)C1([H])N(C(=O)C([H])(N([H])C(=O)C([H])(N([H])C([H])([H])[H])C([H])([H])[H])C(C([H])([H])[H])(C([H])([H])[H])C([H])([H])[H])C([H])([H])c2c([H])c(OC([H])([H])C3=NC4([H])C([H])([H])C([H])([H])N(C(=O)N5C([H])([H])C([H])([H])C([H])([H])C([H])(n6nc(-c7c([H])c([H])c(Oc8c([H])c([H])c(F)c([H])c8F)c([H])c7[H])c(C(=O)N([H])[H])c6N([H])[H])C5([H])[H])C([H])([H])C34[H])c([H])c([H])c2C1([H])[H]

$$$$
70:0:0
     RDKit          3D

 91100  0  0  1  0  0  0  0  0999 V2000
  -31.1300  -19.9740   19.1290 C   0  0  0  0  0  3  0  0  0  0  0  0
  -31.1330  -18.5490   19.3790 C   0  0  0  0  0  3  0  0  0  0  0  0
  -29.0430  -18.7990   20.4840 C   0  0  0  0  0  3  0  0  0  0  0  0
  -29.0320  -20.2470   20.2340 C   0  0  0  0  0  0  0  0  0  0  0  0
  -30.0890  -20.8750   19.5320 C   0  0  0  0  0  0  0  0  0  0  0  0
  -30.0820  -17.8640   20.0610 C   0  0  0  0  0  0  0  0  0  0  0  0
  -27.9460  -21.1780   20.7290 C   0  0  0  0  0  0  0  0  0  0  0  0
  -30.1050  -22.4510   19.1910 C   0  0  0  0  0  2  0  0  0  0  0  0
  -27.7880  -22.6300   20.1310 C   0  0  0  0  0  2  0  0  0  0  0  0
  -29.0640  -23.5100   19.8660 C   0  0  0  0  0  3  0  0  0  0  0  0
  -27.1240  -20.8140   21.5750 O   0  0  0  0  0  0  0  0  0  0  0  0
  -30.8020  -15.2030   20.0240 C   0  0  0  0  0  0  0  0  0  0  0  0
  -30.6600  -12.8400   19.1230 C   0  0  0  0  0  2  0  0  0  0  0  0
  -29.7050  -12.8000   17.9070 C   0  0  0  0  0  2  0  0  0  0  0  0
  -28.2440  -12.6210   18.3620 C   0  0  0  0  0  2  0  0  0  0  0  0
  -27.8720  -13.5660   19.5330 C   0  0  0  0  0  3  0  0  0  0  0  0
  -28.9410  -13.5560   20.6470 C   0  0  0  0  0  2  0  0  0  0  0  0
  -30.2150  -13.9390   20.0250 N   0  0  0  0  0  0  0  0  0  0  0  0
  -31.9830  -15.2830   19.6670 O   0  0  0  0  0  0  0  0  0  0  0  0
  -30.0020  -16.3470   20.2880 N   0  0  0  0  0  0  0  0  0  0  0  0
  -29.1110  -16.0610   20.6650 H   0  0  0  0  0  0  0  0  0  0  0  0
  -25.5240  -14.2050   20.3320 C   0  0  0  0  0  0  0  0  0  0  0  0
  -24.4430  -13.4560   20.7070 C   0  0  0  0  0  0  0  0  0  0  0  0
  -24.8640  -12.0920   20.6340 C   0  0  0  0  0  0  0  0  0  0  0  0
  -26.5330  -13.3010   20.0490 N   0  0  0  0  0  0  0  0  0  0  0  0
  -26.1460  -12.0220   20.2960 N   0  0  0  0  0  0  0  0  0  0  0  0
  -24.1020  -10.8480   20.8100 C   0  0  0  0  0  0  0  0  0  0  0  0
  -24.5280   -9.8410   21.7020 C   0  0  0  0  0  3  0  0  0  0  0  0
  -23.7660   -8.6630   21.8700 C   0  0  0  0  0  3  0  0  0  0  0  0
  -22.5650   -8.4860   21.1420 C   0  0  0  0  0  0  0  0  0  0  0  0
  -22.1580   -9.4810   20.2380 C   0  0  0  0  0  3  0  0  0  0  0  0
  -22.9190  -10.6500   20.0690 C   0  0  0  0  0  3  0  0  0  0  0  0
  -21.7760   -7.3640   21.2200 O   0  0  0  0  0  0  0  0  0  0  0  0
  -21.7660   -6.5670   22.3360 C   0  0  0  0  0  0  0  0  0  0  0  0
  -21.4150   -7.0710   23.6070 C   0  0  0  0  0  3  0  0  0  0  0  0
  -21.3490   -6.2020   24.7150 C   0  0  0  0  0  3  0  0  0  0  0  0
  -21.6240   -4.8320   24.5530 C   0  0  0  0  0  0  0  0  0  0  0  0
  -21.9680   -4.3270   23.2870 C   0  0  0  0  0  3  0  0  0  0  0  0
  -22.0350   -5.1920   22.1810 C   0  0  0  0  0  0  0  0  0  0  0  0
  -22.3470   -4.6970   20.9590 F   0  0  0  0  0  0  0  0  0  0  0  0
  -21.5530   -3.9950   25.6160 F   0  0  0  0  0  0  0  0  0  0  0  0
  -23.0680  -13.9700   21.0170 C   0  0  0  0  0  0  0  0  0  0  0  0
  -22.3410  -13.2810   21.8900 N   0  0  0  0  0  0  0  0  0  0  0  0
  -22.6490  -15.0160   20.5230 O   0  0  0  0  0  0  0  0  0  0  0  0
  -22.6920  -12.4340   22.3110 H   0  0  0  0  0  0  0  0  0  0  0  0
  -21.4170  -13.6080   22.1430 H   0  0  0  0  0  0  0  0  0  0  0  0
  -25.7280  -15.5740   20.1800 N   0  0  0  0  0  0  0  0  0  0  0  0
  -24.9810  -16.2470   20.3190 H   0  0  0  0  0  0  0  0  0  0  0  0
  -26.5650  -15.9910   19.7950 H   0  0  0  0  0  0  0  0  0  0  0  0
  -28.7490  -24.9900   19.0970 C   0  0  0  0  0  2  0  0  0  0  0  0
  -28.6580  -26.4500   19.6410 O   0  0  0  0  0  0  0  0  0  0  0  0
  -24.5780  -31.6160   22.9240 C   0  0  0  0  0  0  0  0  0  0  0  0
  -27.5160  -27.3340   19.5860 C   0  0  0  0  0  0  0  0  0  0  0  0
  -23.4930  -30.2510   21.1830 C   0  0  0  0  0  3  0  0  0  0  0  0
  -25.0590  -28.8980   19.6590 C   0  0  0  0  0  0  0  0  0  0  0  0
  -26.0200  -30.7180   21.0580 C   0  0  0  0  0  2  0  0  0  0  0  0
  -26.1980  -29.3870   20.3100 C   0  0  0  0  0  0  0  0  0  0  0  0
  -27.4210  -28.6180   20.2610 C   0  0  0  0  0  3  0  0  0  0  0  0
  -26.3410  -26.9500   18.9000 C   0  0  0  0  0  3  0  0  0  0  0  0
  -25.1430  -27.6960   18.9420 C   0  0  0  0  0  3  0  0  0  0  0  0
  -23.7660  -29.6920   19.7610 C   0  0  0  0  0  2  0  0  0  0  0  0
  -24.7150  -30.8810   21.7790 N   0  0  0  0  0  0  0  0  0  0  0  0
  -23.4710  -31.7830   23.4590 O   0  0  0  0  0  0  0  0  0  0  0  0
  -22.8910  -29.1300   22.0680 C   0  0  0  0  0  0  0  0  0  0  0  0
  -21.5720  -28.8950   21.9450 N   0  0  0  0  0  0  0  0  0  0  0  0
  -23.6110  -28.4800   22.8290 O   0  0  0  0  0  0  0  0  0  0  0  0
  -21.0440  -29.4780   21.3100 H   0  0  0  0  0  0  0  0  0  0  0  0
  -18.2620  -27.5040   22.4320 C   0  0  0  0  0  0  0  0  0  0  0  0
  -20.8170  -27.8540   22.6460 C   0  0  0  0  0  3  0  0  0  0  0  0
  -20.9570  -26.4880   21.9340 C   0  0  0  0  0  2  0  0  0  0  0  0
  -19.8350  -26.2140   20.9280 C   0  0  0  0  0  2  0  0  0  0  0  0
  -18.4710  -26.2340   21.6240 C   0  0  0  0  0  2  0  0  0  0  0  0
  -19.3630  -28.2710   22.8990 C   0  0  0  0  0  0  0  0  0  0  0  0
  -19.1110  -29.4590   23.6190 C   0  0  0  0  0  3  0  0  0  0  0  0
  -17.7930  -29.8810   23.8760 C   0  0  0  0  0  3  0  0  0  0  0  0
  -16.7080  -29.1090   23.4250 C   0  0  0  0  0  3  0  0  0  0  0  0
  -16.9440  -27.9220   22.7080 C   0  0  0  0  0  3  0  0  0  0  0  0
  -25.8020  -32.3010   23.6030 C   0  0  0  0  0  3  0  0  0  0  0  0
  -25.3960  -33.6620   23.9910 N   0  0  0  0  0  0  0  0  0  0  0  0
  -25.6930  -34.7740   23.3050 C   0  0  0  0  0  0  0  0  0  0  0  0
  -26.4030  -34.7650   22.2950 O   0  0  0  0  0  0  0  0  0  0  0  0
  -24.7630  -33.7380   24.7730 H   0  0  0  0  0  0  0  0  0  0  0  0
  -23.8710  -36.4830   22.9900 C   0  0  0  0  0  1  0  0  0  0  0  0
  -25.1100  -36.1070   23.8180 C   0  0  0  0  0  3  0  0  0  0  0  0
  -27.1600  -37.0740   24.7630 C   0  0  0  0  0  1  0  0  0  0  0  0
  -26.0810  -37.2230   23.7900 N   0  0  0  0  0  0  0  0  0  0  0  0
  -25.6150  -38.1090   23.9680 H   0  0  0  0  0  0  0  0  0  0  0  0
  -26.3370  -31.5090   24.8600 C   0  0  1  0  0  0  0  0  0  0  0  0
  -25.2380  -31.1680   25.8940 C   0  0  0  0  0  1  0  0  0  0  0  0
  -27.0070  -30.1840   24.4320 C   0  0  0  0  0  1  0  0  0  0  0  0
  -27.4250  -32.3420   25.5780 C   0  0  0  0  0  1  0  0  0  0  0  0
  1  2  2  0
  1  5  1  0
  2  6  1  0
  4  3  1  0
  4  7  1  0
  5  4  2  0
  6 20  1  0
  6  3  2  0
  7 11  2  0
  8  5  1  0
  8 10  1  0
  9  7  1  0
 10 50  1  0
 10  9  1  0
 12 18  1  0
 12 20  1  0
 13 18  1  0
 14 15  1  0
 14 13  1  0
 16 15  1  0
 16 25  1  0
 16 17  1  0
 18 17  1  0
 19 12  2  0
 20 21  1  0
 22 23  2  0
 23 42  1  0
 24 23  1  0
 24 27  1  0
 25 26  1  0
 25 22  1  0
 26 24  2  0
 27 28  1  0
 28 29  2  0
 30 33  1  0
 30 29  1  0
 31 30  2  0
 32 31  1  0
 32 27  2  0
 33 34  1  0
 34 35  1  0
 35 36  2  0
 37 36  1  0
 37 41  1  0
 38 37  2  0
 39 34  2  0
 39 38  1  0
 40 39  1  0
 42 43  1  0
 43 46  1  0
 43 45  1  0
 44 42  2  0
 47 48  1  0
 47 22  1  0
 49 47  1  0
 50 51  1  0
 52 63  2  0
 53 51  1  0
 53 58  1  0
 54 62  1  0
 54 64  1  0
 55 61  1  0
 55 57  1  0
 56 62  1  0
 57 56  1  0
 58 57  2  0
 59 60  1  0
 59 53  2  0
 60 55  2  0
 61 54  1  0
 62 52  1  0
 64 66  2  0
 65 64  1  0
 67 65  1  0
 68 77  2  0
 68 73  1  0
 69 65  1  0
 69 73  1  0
 70 69  1  0
 71 72  1  0
 71 70  1  0
 72 68  1  0
 73 74  2  0
 74 75  1  0
 76 75  2  0
 77 76  1  0
 78 52  1  0
 78 79  1  0
 78 88  1  0
 79 82  1  0
 80 84  1  0
 80 79  1  0
 81 80  2  0
 84 83  1  0
 86 84  1  0
 86 87  1  0
 86 85  1  0
 88 91  1  1
 88 89  1  0
 90 88  1  0
M  ISO  4  12 100  20 100  50 101  51 101
M  END
>  <TORSDO>  (70) 
F 17

>  <SCORE>  (70) 
-13.011

>  <name>  (70) 
70

>  <ligand_id>  (70) 
70

>  <original_smiles>  (70) 
[H]c1c([H])c([H])c2c(c1[H])C([H])([H])C([H])([H])C([H])([H])C2([H])N([H])C(=O)C1([H])N(C(=O)C([H])(N([H])C(=O)C([H])(N([H])C([H])([H])[H])C([H])([H])[H])C(C([H])([H])[H])(C([H])([H])[H])C([H])([H])[H])C([H])([H])c2c([H])c(OC([H])([H])C3([H])C([H])([H])C(=O)c4c([H])c(N([H])C(=O)N5C([H])([H])C([H])([H])C([H])([H])C([H])(n6nc(-c7c([H])c([H])c(Oc8c([H])c([H])c(F)c([H])c8F)c([H])c7[H])c(C(=O)N([H])[H])c6N([H])[H])C5([H])[H])c([H])c([H])c4C3([H])[H])c([H])c([H])c2C1([H])[H]

>  <smiles>  (70) 
[H]c1c([H])c([H])c2c(c1[H])C([H])([H])C([H])([H])C([H])([H])C2([H])N([H])C(=O)C1([H])N(C(=O)C([H])(N([H])C(=O)C([H])(N([H])C([H])([H])[H])C([H])([H])[H])C(C([H])([H])[H])(C([H])([H])[H])C([H])([H])[H])C([H])([H])c2c([H])c(OC([H])([H])C3([H])C([H])([H])C(=O)c4c([H])c(N([H])C(=O)N5C([H])([H])C([H])([H])C([H])([H])C([H])(n6nc(-c7c([H])c([H])c(Oc8c([H])c([H])c(F)c([H])c8F)c([H])c7[H])c(C(=O)N([H])[H])c6N([H])[H])C5([H])[H])c([H])c([H])c4C3([H])[H])c([H])c([H])c2C1([H])[H]

$$$$
71:0:0
     RDKit          3D

 89 97  0  0  1  0  0  0  0  0999 V2000
  -30.4080  -15.5450   20.3360 C   0  0  0  0  0  0  0  0  0  0  0  0
  -30.4100  -13.0320   19.5160 C   0  0  0  0  0  2  0  0  0  0  0  0
  -29.5350  -12.6440   18.2980 C   0  0  0  0  0  2  0  0  0  0  0  0
  -28.1030  -12.3150   18.7430 C   0  0  0  0  0  2  0  0  0  0  0  0
  -27.5920  -13.3220   19.8000 C   0  0  0  0  0  3  0  0  0  0  0  0
  -28.6140  -13.6500   20.9130 C   0  0  0  0  0  2  0  0  0  0  0  0
  -29.7940  -14.2330   20.2360 N   0  0  0  0  0  0  0  0  0  0  0  0
  -31.6390  -15.3860   20.2470 O   0  0  0  0  0  0  0  0  0  0  0  0
  -28.2330  -19.4720   20.0590 C   0  0  0  0  0  0  0  0  0  0  0  0
  -30.3200  -19.8800   20.5290 C   0  0  0  0  0  0  0  0  0  0  0  0
  -28.5020  -17.7930   20.3380 C   0  0  0  0  0  2  0  0  0  0  0  0
  -30.7460  -18.2870   20.1320 C   0  0  0  0  0  3  0  0  0  0  0  0
  -29.1110  -20.5650   20.2800 N   0  0  0  0  0  0  0  0  0  0  0  0
  -29.8660  -16.9960   20.2940 N   0  0  0  0  0  0  0  0  0  0  0  0
  -27.1080  -19.7530   19.6370 O   0  0  0  0  0  0  0  0  0  0  0  0
  -31.2330  -20.5370   21.0370 O   0  0  0  0  0  0  0  0  0  0  0  0
  -25.2200  -13.8430   20.5400 C   0  0  0  0  0  0  0  0  0  0  0  0
  -24.1630  -13.0560   20.8970 C   0  0  0  0  0  0  0  0  0  0  0  0
  -24.6470  -11.7100   20.8830 C   0  0  0  0  0  0  0  0  0  0  0  0
  -26.2740  -12.9790   20.3130 N   0  0  0  0  0  0  0  0  0  0  0  0
  -25.9430  -11.6900   20.5870 N   0  0  0  0  0  0  0  0  0  0  0  0
  -23.9280  -10.4420   21.0680 C   0  0  0  0  0  0  0  0  0  0  0  0
  -24.3680   -9.4720   21.9960 C   0  0  0  0  0  3  0  0  0  0  0  0
  -23.6460   -8.2720   22.1740 C   0  0  0  0  0  3  0  0  0  0  0  0
  -22.4690   -8.0340   21.4260 C   0  0  0  0  0  0  0  0  0  0  0  0
  -22.0470   -8.9930   20.4870 C   0  0  0  0  0  3  0  0  0  0  0  0
  -22.7700  -10.1840   20.3070 C   0  0  0  0  0  3  0  0  0  0  0  0
  -21.7170   -6.8860   21.5140 O   0  0  0  0  0  0  0  0  0  0  0  0
  -21.6920   -6.1260   22.6550 C   0  0  0  0  0  0  0  0  0  0  0  0
  -21.3130   -6.6700   23.9020 C   0  0  0  0  0  3  0  0  0  0  0  0
  -21.2360   -5.8380   25.0380 C   0  0  0  0  0  3  0  0  0  0  0  0
  -21.5270   -4.4650   24.9270 C   0  0  0  0  0  0  0  0  0  0  0  0
  -21.8980   -3.9220   23.6850 C   0  0  0  0  0  3  0  0  0  0  0  0
  -21.9780   -4.7510   22.5530 C   0  0  0  0  0  0  0  0  0  0  0  0
  -22.3170   -4.2180   21.3530 F   0  0  0  0  0  0  0  0  0  0  0  0
  -21.4450   -3.6650   26.0150 F   0  0  0  0  0  0  0  0  0  0  0  0
  -22.7580  -13.5220   21.1380 C   0  0  0  0  0  0  0  0  0  0  0  0
  -22.0250  -12.8320   22.0030 N   0  0  0  0  0  0  0  0  0  0  0  0
  -22.3200  -14.5340   20.5930 O   0  0  0  0  0  0  0  0  0  0  0  0
  -22.3950  -12.0150   22.4670 H   0  0  0  0  0  0  0  0  0  0  0  0
  -21.0800  -13.1270   22.2080 H   0  0  0  0  0  0  0  0  0  0  0  0
  -25.3730  -15.2140   20.3500 N   0  0  0  0  0  0  0  0  0  0  0  0
  -24.5990  -15.8610   20.4350 H   0  0  0  0  0  0  0  0  0  0  0  0
  -26.2190  -15.6470   20.0040 H   0  0  0  0  0  0  0  0  0  0  0  0
  -32.4560  -19.2790   18.3840 C   0  0  0  0  0  1  0  0  0  0  0  0
  -31.3290  -18.2730   18.6870 C   0  0  0  0  0  2  0  0  0  0  0  0
  -29.0540  -22.3300   20.1380 C   0  0  0  0  0  3  0  0  0  0  0  0
  -27.9690  -23.8840   20.2270 C   0  0  0  0  0  3  0  0  0  0  0  0
  -28.1740  -25.6050   20.2110 O   0  0  0  0  0  0  0  0  0  0  0  0
  -24.6860  -31.8370   23.1250 C   0  0  0  0  0  0  0  0  0  0  0  0
  -27.1880  -26.7830   20.1690 C   0  0  0  0  0  0  0  0  0  0  0  0
  -23.4860  -30.4310   21.5040 C   0  0  0  0  0  3  0  0  0  0  0  0
  -24.9230  -28.7780   20.1010 C   0  0  0  0  0  0  0  0  0  0  0  0
  -26.0620  -30.5830   21.3680 C   0  0  0  0  0  2  0  0  0  0  0  0
  -26.1190  -29.1510   20.7230 C   0  0  0  0  0  0  0  0  0  0  0  0
  -27.2410  -28.1790   20.7240 C   0  0  0  0  0  3  0  0  0  0  0  0
  -25.9570  -26.6000   19.4940 C   0  0  0  0  0  3  0  0  0  0  0  0
  -24.8760  -27.5270   19.4630 C   0  0  0  0  0  3  0  0  0  0  0  0
  -23.7150  -29.7250   20.1390 C   0  0  0  0  0  2  0  0  0  0  0  0
  -24.7680  -30.9830   22.0510 N   0  0  0  0  0  0  0  0  0  0  0  0
  -23.5970  -32.1430   23.6400 O   0  0  0  0  0  0  0  0  0  0  0  0
  -22.7770  -29.4590   22.4840 C   0  0  0  0  0  0  0  0  0  0  0  0
  -21.4410  -29.3170   22.3750 N   0  0  0  0  0  0  0  0  0  0  0  0
  -23.4360  -28.8300   23.3140 O   0  0  0  0  0  0  0  0  0  0  0  0
  -20.9590  -29.8740   21.6820 H   0  0  0  0  0  0  0  0  0  0  0  0
  -18.0470  -28.1480   22.9280 C   0  0  0  0  0  0  0  0  0  0  0  0
  -20.6130  -28.3930   23.1600 C   0  0  0  0  0  3  0  0  0  0  0  0
  -20.6930  -26.9570   22.5910 C   0  0  0  0  0  2  0  0  0  0  0  0
  -19.5780  -26.6410   21.5900 C   0  0  0  0  0  2  0  0  0  0  0  0
  -18.2050  -26.7970   22.2490 C   0  0  0  0  0  2  0  0  0  0  0  0
  -19.1780  -28.9050   23.3400 C   0  0  0  0  0  0  0  0  0  0  0  0
  -18.9720  -30.1650   23.9410 C   0  0  0  0  0  3  0  0  0  0  0  0
  -17.6730  -30.6720   24.1270 C   0  0  0  0  0  3  0  0  0  0  0  0
  -16.5590  -29.9150   23.7280 C   0  0  0  0  0  3  0  0  0  0  0  0
  -16.7470  -28.6540   23.1350 C   0  0  0  0  0  3  0  0  0  0  0  0
  -25.9550  -32.4870   23.7560 C   0  0  0  0  0  3  0  0  0  0  0  0
  -25.6260  -33.8790   24.1200 N   0  0  0  0  0  0  0  0  0  0  0  0
  -25.9340  -34.9610   23.3920 C   0  0  0  0  0  0  0  0  0  0  0  0
  -26.5810  -34.8920   22.3450 O   0  0  0  0  0  0  0  0  0  0  0  0
  -25.0460  -34.0030   24.9370 H   0  0  0  0  0  0  0  0  0  0  0  0
  -24.1730  -36.7470   23.1460 C   0  0  0  0  0  1  0  0  0  0  0  0
  -25.4480  -36.3340   23.9010 C   0  0  0  0  0  3  0  0  0  0  0  0
  -27.6020  -37.2290   24.6740 C   0  0  0  0  0  1  0  0  0  0  0  0
  -26.4630  -37.4030   23.7760 N   0  0  0  0  0  0  0  0  0  0  0  0
  -26.0520  -38.3140   23.9610 H   0  0  0  0  0  0  0  0  0  0  0  0
  -26.4820  -31.7100   25.0260 C   0  0  1  0  0  0  0  0  0  0  0  0
  -25.3960  -31.4630   26.1010 C   0  0  0  0  0  1  0  0  0  0  0  0
  -27.0670  -30.3350   24.6340 C   0  0  0  0  0  1  0  0  0  0  0  0
  -27.6360  -32.5020   25.6850 C   0  0  0  0  0  1  0  0  0  0  0  0
  2  7  1  0
  3  4  1  0
  3  2  1  0
  5  4  1  0
  5 20  1  0
  5  6  1  0
  7  1  1  0
  7  6  1  0
  8  1  2  0
  9 13  1  0
  9 11  1  0
 10 16  2  0
 12 46  1  0
 12 14  1  0
 12 10  1  0
 13 10  1  0
 14  1  1  0
 14 11  1  0
 15  9  2  0
 17 18  2  0
 18 37  1  0
 19 18  1  0
 19 22  1  0
 20 17  1  0
 20 21  1  0
 21 19  2  0
 22 23  1  0
 23 24  2  0
 25 28  1  0
 25 24  1  0
 26 25  2  0
 27 26  1  0
 27 22  2  0
 28 29  1  0
 29 30  1  0
 30 31  2  0
 32 31  1  0
 32 36  1  0
 33 32  2  0
 34 29  2  0
 34 33  1  0
 35 34  1  0
 37 38  1  0
 38 41  1  0
 38 40  1  0
 39 37  2  0
 42 43  1  0
 42 17  1  0
 44 42  1  0
 45 46  1  0
 47 48  2  0
 47 13  1  0
 49 48  1  0
 50 61  2  0
 51 49  1  0
 51 56  1  0
 52 60  1  0
 52 62  1  0
 53 59  1  0
 53 55  1  0
 54 60  1  0
 55 56  2  0
 55 54  1  0
 57 51  2  0
 58 57  1  0
 58 53  2  0
 59 52  1  0
 60 50  1  0
 62 64  2  0
 63 62  1  0
 65 63  1  0
 66 75  2  0
 66 71  1  0
 67 63  1  0
 67 71  1  0
 68 67  1  0
 69 70  1  0
 69 68  1  0
 70 66  1  0
 71 72  2  0
 72 73  1  0
 74 73  2  0
 75 74  1  0
 76 50  1  0
 76 77  1  0
 76 86  1  0
 77 80  1  0
 78 82  1  0
 78 77  1  0
 79 78  2  0
 82 81  1  0
 84 82  1  0
 84 85  1  0
 84 83  1  0
 86 89  1  1
 86 87  1  0
 88 86  1  0
M  ISO  4   1 100  14 100  48 101  49 101
M  END
>  <TORSDO>  (71) 
F 18

>  <SCORE>  (71) 
-16.139

>  <name>  (71) 
71

>  <ligand_id>  (71) 
71

>  <original_smiles>  (71) 
[H]c1c([H])c([H])c2c(c1[H])C([H])([H])C([H])([H])C([H])([H])C2([H])N([H])C(=O)C1([H])N(C(=O)C([H])(N([H])C(=O)C([H])(N([H])C([H])([H])[H])C([H])([H])[H])C(C([H])([H])[H])(C([H])([H])[H])C([H])([H])[H])C([H])([H])c2c([H])c(OC([H])([H])C([H])([H])N3C(=O)C([H])([H])N(C(=O)N4C([H])([H])C([H])([H])C([H])([H])C([H])(n5nc(-c6c([H])c([H])c(Oc7c([H])c([H])c(F)c([H])c7F)c([H])c6[H])c(C(=O)N([H])[H])c5N([H])[H])C4([H])[H])C([H])(C([H])([H])C([H])([H])[H])C3=O)c([H])c([H])c2C1([H])[H]

>  <smiles>  (71) 
[H]c1c([H])c([H])c2c(c1[H])C([H])([H])C([H])([H])C([H])([H])C2([H])N([H])C(=O)C1([H])N(C(=O)C([H])(N([H])C(=O)C([H])(N([H])C([H])([H])[H])C([H])([H])[H])C(C([H])([H])[H])(C([H])([H])[H])C([H])([H])[H])C([H])([H])c2c([H])c(OC([H])([H])C([H])([H])N3C(=O)C([H])([H])N(C(=O)N4C([H])([H])C([H])([H])C([H])([H])C([H])(n5nc(-c6c([H])c([H])c(Oc7c([H])c([H])c(F)c([H])c7F)c([H])c6[H])c(C(=O)N([H])[H])c5N([H])[H])C4([H])[H])C([H])(C([H])([H])C([H])([H])[H])C3=O)c([H])c([H])c2C1([H])[H]

$$$$
72:0:0
     RDKit          3D

 97106  0  0  1  0  0  0  0  0999 V2000
  -30.4570  -20.5260   21.0790 C   0  0  0  0  0  3  0  0  0  0  0  0
  -29.7470  -21.5610   21.5790 C   0  0  0  0  0  3  0  0  0  0  0  0
  -28.4120  -18.3270   18.7200 C   0  0  0  0  0  3  0  0  0  0  0  0
  -28.7380  -17.0400   19.1880 C   0  0  0  0  0  3  0  0  0  0  0  0
  -30.1790  -18.0240   20.8880 C   0  0  0  0  0  3  0  0  0  0  0  0
  -28.9740  -19.4730   19.3190 C   0  0  0  0  0  0  0  0  0  0  0  0
  -29.8650  -19.3320   20.4230 C   0  0  0  0  0  0  0  0  0  0  0  0
  -29.6200  -16.8680   20.2780 C   0  0  0  0  0  0  0  0  0  0  0  0
  -30.5770  -14.5740   20.3170 C   0  0  0  0  0  0  0  0  0  0  0  0
  -30.3270  -12.4090   19.1670 C   0  0  0  0  0  2  0  0  0  0  0  0
  -29.3470  -12.6280   17.9920 C   0  0  0  0  0  2  0  0  0  0  0  0
  -27.8870  -12.4710   18.4550 C   0  0  0  0  0  2  0  0  0  0  0  0
  -27.5740  -13.2680   19.7480 C   0  0  0  0  0  3  0  0  0  0  0  0
  -28.6590  -13.0160   20.8220 C   0  0  0  0  0  2  0  0  0  0  0  0
  -29.9630  -13.3610   20.2280 N   0  0  0  0  0  0  0  0  0  0  0  0
  -31.7010  -14.7920   19.8550 O   0  0  0  0  0  0  0  0  0  0  0  0
  -29.8040  -15.5580   20.8320 N   0  0  0  0  0  0  0  0  0  0  0  0
  -28.9720  -15.1790   21.2620 H   0  0  0  0  0  0  0  0  0  0  0  0
  -25.1850  -13.8560   20.4910 C   0  0  0  0  0  0  0  0  0  0  0  0
  -24.1290  -13.0740   20.8730 C   0  0  0  0  0  0  0  0  0  0  0  0
  -24.6010  -11.7260   20.8310 C   0  0  0  0  0  0  0  0  0  0  0  0
  -26.2330  -12.9830   20.2450 N   0  0  0  0  0  0  0  0  0  0  0  0
  -25.8860  -11.6970   20.5050 N   0  0  0  0  0  0  0  0  0  0  0  0
  -23.8920  -10.4550   21.0240 C   0  0  0  0  0  0  0  0  0  0  0  0
  -24.3430   -9.4900   21.9520 C   0  0  0  0  0  3  0  0  0  0  0  0
  -23.6330   -8.2840   22.1320 C   0  0  0  0  0  3  0  0  0  0  0  0
  -22.4580   -8.0330   21.3840 C   0  0  0  0  0  0  0  0  0  0  0  0
  -22.0260   -8.9870   20.4460 C   0  0  0  0  0  3  0  0  0  0  0  0
  -22.7370  -10.1850   20.2640 C   0  0  0  0  0  3  0  0  0  0  0  0
  -21.7200   -6.8770   21.4750 O   0  0  0  0  0  0  0  0  0  0  0  0
  -21.6830   -6.1370   22.6290 C   0  0  0  0  0  0  0  0  0  0  0  0
  -21.2330   -6.6830   23.8510 C   0  0  0  0  0  3  0  0  0  0  0  0
  -21.1480   -5.8680   24.9980 C   0  0  0  0  0  3  0  0  0  0  0  0
  -21.4980   -4.5060   24.9230 C   0  0  0  0  0  0  0  0  0  0  0  0
  -21.9370   -3.9590   23.7050 C   0  0  0  0  0  3  0  0  0  0  0  0
  -22.0280   -4.7730   22.5610 C   0  0  0  0  0  0  0  0  0  0  0  0
  -22.4340   -4.2350   21.3850 F   0  0  0  0  0  0  0  0  0  0  0  0
  -21.4070   -3.7210   26.0210 F   0  0  0  0  0  0  0  0  0  0  0  0
  -22.7310  -13.5370   21.1660 C   0  0  0  0  0  0  0  0  0  0  0  0
  -22.0180  -12.8300   22.0360 N   0  0  0  0  0  0  0  0  0  0  0  0
  -22.2790  -14.5640   20.6590 O   0  0  0  0  0  0  0  0  0  0  0  0
  -22.3890  -11.9980   22.4700 H   0  0  0  0  0  0  0  0  0  0  0  0
  -21.0850  -13.1350   22.2760 H   0  0  0  0  0  0  0  0  0  0  0  0
  -25.3410  -15.2270   20.3120 N   0  0  0  0  0  0  0  0  0  0  0  0
  -24.5730  -15.8840   20.4150 H   0  0  0  0  0  0  0  0  0  0  0  0
  -26.1820  -15.6630   19.9590 H   0  0  0  0  0  0  0  0  0  0  0  0
  -29.4080  -21.8140   18.3340 C   0  0  0  0  0  2  0  0  0  0  0  0
  -28.6480  -20.7720   18.6880 C   0  0  0  0  0  3  0  0  0  0  0  0
  -28.2000  -22.6560   17.9410 C   0  0  0  0  0  2  0  0  0  0  0  0
  -27.3370  -21.5130   18.5250 C   0  0  0  0  0  2  0  0  0  0  0  0
  -30.3230  -22.8830   22.0820 C   0  0  0  0  0  2  0  0  0  0  0  0
  -29.5000  -24.0300   21.6070 N   0  0  0  0  0  4  0  0  0  0  0  0
  -28.6950  -24.0980   22.2090 H   0  0  0  0  0  0  0  0  0  0  0  0
  -29.1660  -23.8150   20.6810 H   0  0  0  0  0  0  0  0  0  0  0  0
  -30.1840  -25.3540   21.5500 C   0  0  0  0  0  2  0  0  0  0  0  0
  -29.2120  -26.5680   21.4950 C   0  0  0  0  0  2  0  0  0  0  0  0
  -28.4840  -26.6510   20.2640 O   0  0  0  0  0  0  0  0  0  0  0  0
  -24.6100  -31.8780   23.2630 C   0  0  0  0  0  0  0  0  0  0  0  0
  -27.3510  -27.4440   20.2700 C   0  0  0  0  0  0  0  0  0  0  0  0
  -23.4440  -30.4690   21.5990 C   0  0  0  0  0  3  0  0  0  0  0  0
  -24.9410  -28.9340   20.2110 C   0  0  0  0  0  0  0  0  0  0  0  0
  -25.9680  -30.8430   21.4480 C   0  0  0  0  0  2  0  0  0  0  0  0
  -26.0790  -29.4650   20.8310 C   0  0  0  0  0  0  0  0  0  0  0  0
  -27.2820  -28.7250   20.8700 C   0  0  0  0  0  3  0  0  0  0  0  0
  -26.2030  -26.9390   19.6210 C   0  0  0  0  0  3  0  0  0  0  0  0
  -24.9970  -27.6670   19.6040 C   0  0  0  0  0  3  0  0  0  0  0  0
  -23.6870  -29.7820   20.2260 C   0  0  0  0  0  2  0  0  0  0  0  0
  -24.6910  -31.0780   22.1640 N   0  0  0  0  0  0  0  0  0  0  0  0
  -23.5170  -32.1480   23.7800 O   0  0  0  0  0  0  0  0  0  0  0  0
  -22.7770  -29.4480   22.5490 C   0  0  0  0  0  0  0  0  0  0  0  0
  -21.4540  -29.2630   22.3990 N   0  0  0  0  0  0  0  0  0  0  0  0
  -23.4460  -28.8240   23.3760 O   0  0  0  0  0  0  0  0  0  0  0  0
  -20.9760  -29.8170   21.7020 H   0  0  0  0  0  0  0  0  0  0  0  0
  -18.0700  -28.0850   22.8520 C   0  0  0  0  0  0  0  0  0  0  0  0
  -20.6250  -28.3250   23.1560 C   0  0  0  0  0  3  0  0  0  0  0  0
  -20.7250  -26.8960   22.5720 C   0  0  0  0  0  2  0  0  0  0  0  0
  -19.6330  -26.5880   21.5420 C   0  0  0  0  0  2  0  0  0  0  0  0
  -18.2450  -26.7390   22.1710 C   0  0  0  0  0  2  0  0  0  0  0  0
  -19.1870  -28.8380   23.2980 C   0  0  0  0  0  0  0  0  0  0  0  0
  -18.9680  -30.1020   23.8910 C   0  0  0  0  0  3  0  0  0  0  0  0
  -17.6640  -30.6090   24.0410 C   0  0  0  0  0  3  0  0  0  0  0  0
  -16.5620  -29.8520   23.6100 C   0  0  0  0  0  3  0  0  0  0  0  0
  -16.7650  -28.5910   23.0210 C   0  0  0  0  0  3  0  0  0  0  0  0
  -25.8810  -32.5160   23.9070 C   0  0  0  0  0  3  0  0  0  0  0  0
  -25.5640  -33.9170   24.2100 N   0  0  0  0  0  0  0  0  0  0  0  0
  -25.9190  -34.9590   23.4450 C   0  0  0  0  0  0  0  0  0  0  0  0
  -26.6120  -34.8400   22.4310 O   0  0  0  0  0  0  0  0  0  0  0  0
  -24.9440  -34.0830   24.9900 H   0  0  0  0  0  0  0  0  0  0  0  0
  -24.2020  -36.7520   23.0250 C   0  0  0  0  0  1  0  0  0  0  0  0
  -25.4210  -36.3530   23.8710 C   0  0  0  0  0  3  0  0  0  0  0  0
  -27.5360  -37.2470   24.7450 C   0  0  0  0  0  1  0  0  0  0  0  0
  -26.4580  -37.4030   23.7710 N   0  0  0  0  0  0  0  0  0  0  0  0
  -26.0490  -38.3240   23.8940 H   0  0  0  0  0  0  0  0  0  0  0  0
  -26.3720  -31.7570   25.2000 C   0  0  1  0  0  0  0  0  0  0  0  0
  -25.2590  -31.5300   26.2480 C   0  0  0  0  0  1  0  0  0  0  0  0
  -26.9600  -30.3760   24.8290 C   0  0  0  0  0  1  0  0  0  0  0  0
  -27.5120  -32.5560   25.8730 C   0  0  0  0  0  1  0  0  0  0  0  0
  1  2  2  0
  2 51  1  0
  3  4  2  0
  3  6  1  0
  4  8  1  0
  6  7  2  0
  7  5  1  0
  7  1  1  0
  8 17  1  0
  8  5  2  0
  9 17  1  0
 10 15  1  0
 11 12  1  0
 11 10  1  0
 13 12  1  0
 13 22  1  0
 13 14  1  0
 15  9  1  0
 15 14  1  0
 16  9  2  0
 17 18  1  0
 19 20  2  0
 20 39  1  0
 21 20  1  0
 21 24  1  0
 22 19  1  0
 22 23  1  0
 23 21  2  0
 24 25  1  0
 25 26  2  0
 27 30  1  0
 27 26  1  0
 28 27  2  0
 29 28  1  0
 29 24  2  0
 30 31  1  0
 31 32  1  0
 32 33  2  0
 34 33  1  0
 34 38  1  0
 35 34  2  0
 36 31  2  0
 36 35  1  0
 37 36  1  0
 39 40  1  0
 40 43  1  0
 40 42  1  0
 41 39  2  0
 44 45  1  0
 44 19  1  0
 46 44  1  0
 47 48  1  0
 48  6  1  0
 49 47  1  0
 49 50  1  0
 50 48  1  0
 52 51  1  0
 52 53  1  0
 54 52  1  0
 55 52  1  0
 56 55  1  0
 57 59  1  0
 57 56  1  0
 58 69  2  0
 59 64  1  0
 60 68  1  0
 60 70  1  0
 61 67  1  0
 61 63  1  0
 62 68  1  0
 63 64  2  0
 63 62  1  0
 65 59  2  0
 66 65  1  0
 66 61  2  0
 67 60  1  0
 68 58  1  0
 70 72  2  0
 71 70  1  0
 73 71  1  0
 74 83  2  0
 74 79  1  0
 75 71  1  0
 75 79  1  0
 76 75  1  0
 77 78  1  0
 77 76  1  0
 78 74  1  0
 79 80  2  0
 80 81  1  0
 82 81  2  0
 83 82  1  0
 84 58  1  0
 84 85  1  0
 84 94  1  0
 85 88  1  0
 86 90  1  0
 86 85  1  0
 87 86  2  0
 90 89  1  0
 92 90  1  0
 92 93  1  0
 92 91  1  0
 94 97  1  1
 94 95  1  0
 96 94  1  0
M  ISO  4   9 100  17 100  56 101  57 101
M  END
>  <TORSDO>  (72) 
F 22

>  <SCORE>  (72) 
-13.865

>  <name>  (72) 
72

>  <ligand_id>  (72) 
72

>  <original_smiles>  (72) 
[H]C(=C([H])C([H])([H])[N+]([H])([H])C([H])([H])C([H])([H])Oc1c([H])c([H])c2c(c1[H])C([H])([H])N(C(=O)C([H])(N([H])C(=O)C([H])(N([H])C([H])([H])[H])C([H])([H])[H])C(C([H])([H])[H])(C([H])([H])[H])C([H])([H])[H])C([H])(C(=O)N([H])C1([H])c3c([H])c([H])c([H])c([H])c3C([H])([H])C([H])([H])C1([H])[H])C2([H])[H])c1c([H])c(N([H])C(=O)N2C([H])([H])C([H])([H])C([H])([H])C([H])(n3nc(-c4c([H])c([H])c(Oc5c([H])c([H])c(F)c([H])c5F)c([H])c4[H])c(C(=O)N([H])[H])c3N([H])[H])C2([H])[H])c([H])c([H])c1C1=C([H])C([H])([H])C1([H])[H]

>  <smiles>  (72) 
[H]C(=C([H])C([H])([H])[N+]([H])([H])C([H])([H])C([H])([H])Oc1c([H])c([H])c2c(c1[H])C([H])([H])N(C(=O)C([H])(N([H])C(=O)C([H])(N([H])C([H])([H])[H])C([H])([H])[H])C(C([H])([H])[H])(C([H])([H])[H])C([H])([H])[H])C([H])(C(=O)N([H])C1([H])c3c([H])c([H])c([H])c([H])c3C([H])([H])C([H])([H])C1([H])[H])C2([H])[H])c1c([H])c(N([H])C(=O)N2C([H])([H])C([H])([H])C([H])([H])C([H])(n3nc(-c4c([H])c([H])c(Oc5c([H])c([H])c(F)c([H])c5F)c([H])c4[H])c(C(=O)N([H])[H])c3N([H])[H])C2([H])[H])c([H])c([H])c1C1=C([H])C([H])([H])C1([H])[H]

$$$$
73:0:0
     RDKit          3D

 93102  0  0  1  0  0  0  0  0999 V2000
  -29.1090  -22.6650   19.5790 C   0  0  0  0  0  3  0  0  0  0  0  0
  -30.7630  -24.1690   19.4260 C   0  0  0  0  0  3  0  0  0  0  0  0
  -30.2130  -21.8720   19.6370 C   0  0  0  0  0  3  0  0  0  0  0  0
  -29.4260  -24.0960   19.4240 C   0  0  0  0  0  0  0  0  0  0  0  0
  -31.4270  -22.7960   19.5670 C   0  0  0  0  0  3  0  0  0  0  0  0
  -31.4070  -19.6160   19.3750 C   0  0  0  0  0  3  0  0  0  0  0  0
  -31.5360  -18.2020   19.5540 C   0  0  0  0  0  3  0  0  0  0  0  0
  -29.4440  -18.1900   20.7310 C   0  0  0  0  0  3  0  0  0  0  0  0
  -30.2930  -20.3580   19.8580 C   0  0  0  0  0  0  0  0  0  0  0  0
  -29.3140  -19.6050   20.5730 C   0  0  0  0  0  0  0  0  0  0  0  0
  -30.5430  -17.4430   20.2300 C   0  0  0  0  0  0  0  0  0  0  0  0
  -31.2850  -14.9610   19.8990 C   0  0  0  0  0  0  0  0  0  0  0  0
  -31.0760  -12.6860   18.9090 C   0  0  0  0  0  2  0  0  0  0  0  0
  -30.0620  -12.7510   17.7440 C   0  0  0  0  0  2  0  0  0  0  0  0
  -28.6190  -12.5670   18.2570 C   0  0  0  0  0  2  0  0  0  0  0  0
  -28.3070  -13.4550   19.4900 C   0  0  0  0  0  3  0  0  0  0  0  0
  -29.4280  -13.3590   20.5500 C   0  0  0  0  0  2  0  0  0  0  0  0
  -30.6990  -13.7190   19.8950 N   0  0  0  0  0  0  0  0  0  0  0  0
  -32.3930  -15.1470   19.3870 O   0  0  0  0  0  0  0  0  0  0  0  0
  -30.5230  -15.9860   20.3970 N   0  0  0  0  0  0  0  0  0  0  0  0
  -29.7210  -15.6440   20.9040 H   0  0  0  0  0  0  0  0  0  0  0  0
  -25.9700  -14.0240   20.4020 C   0  0  0  0  0  0  0  0  0  0  0  0
  -24.9280  -13.2350   20.8100 C   0  0  0  0  0  0  0  0  0  0  0  0
  -25.3790  -11.8860   20.6810 C   0  0  0  0  0  0  0  0  0  0  0  0
  -26.9920  -13.1530   20.0530 N   0  0  0  0  0  0  0  0  0  0  0  0
  -26.6450  -11.8600   20.2800 N   0  0  0  0  0  0  0  0  0  0  0  0
  -24.6610  -10.6180   20.8610 C   0  0  0  0  0  0  0  0  0  0  0  0
  -25.0520   -9.6810   21.8430 C   0  0  0  0  0  3  0  0  0  0  0  0
  -24.3340   -8.4760   22.0080 C   0  0  0  0  0  3  0  0  0  0  0  0
  -23.2110   -8.2010   21.1930 C   0  0  0  0  0  0  0  0  0  0  0  0
  -22.8390   -9.1280   20.2030 C   0  0  0  0  0  3  0  0  0  0  0  0
  -23.5580  -10.3230   20.0350 C   0  0  0  0  0  3  0  0  0  0  0  0
  -22.4680   -7.0470   21.2670 O   0  0  0  0  0  0  0  0  0  0  0  0
  -22.1980   -6.4400   22.4670 C   0  0  0  0  0  0  0  0  0  0  0  0
  -21.5180   -7.1110   23.5050 C   0  0  0  0  0  3  0  0  0  0  0  0
  -21.2010   -6.4280   24.6960 C   0  0  0  0  0  3  0  0  0  0  0  0
  -21.5520   -5.0740   24.8470 C   0  0  0  0  0  0  0  0  0  0  0  0
  -22.2250   -4.4010   23.8110 C   0  0  0  0  0  3  0  0  0  0  0  0
  -22.5440   -5.0820   22.6230 C   0  0  0  0  0  0  0  0  0  0  0  0
  -23.1730   -4.4230   21.6200 F   0  0  0  0  0  0  0  0  0  0  0  0
  -21.2400   -4.4140   25.9870 F   0  0  0  0  0  0  0  0  0  0  0  0
  -23.5560  -13.7010   21.2050 C   0  0  0  0  0  0  0  0  0  0  0  0
  -22.9040  -12.9870   22.1150 N   0  0  0  0  0  0  0  0  0  0  0  0
  -23.0740  -14.7340   20.7420 O   0  0  0  0  0  0  0  0  0  0  0  0
  -23.3080  -12.1500   22.5110 H   0  0  0  0  0  0  0  0  0  0  0  0
  -21.9880  -13.2810   22.4220 H   0  0  0  0  0  0  0  0  0  0  0  0
  -26.1300  -15.4010   20.2780 N   0  0  0  0  0  0  0  0  0  0  0  0
  -25.3760  -16.0520   20.4700 H   0  0  0  0  0  0  0  0  0  0  0  0
  -26.9530  -15.8520   19.9000 H   0  0  0  0  0  0  0  0  0  0  0  0
  -26.9570  -20.5060   20.2730 C   0  0  0  0  0  1  0  0  0  0  0  0
  -28.1210  -20.2730   21.2410 C   0  0  0  0  0  2  0  0  0  0  0  0
  -28.3770  -25.2400   19.2390 C   0  0  0  0  0  2  0  0  0  0  0  0
  -28.6760  -26.6690   19.5110 O   0  0  0  0  0  0  0  0  0  0  0  0
  -24.9270  -31.7020   23.1090 C   0  0  0  0  0  0  0  0  0  0  0  0
  -27.5510  -27.5210   19.5580 C   0  0  0  0  0  0  0  0  0  0  0  0
  -23.7120  -30.4370   21.3770 C   0  0  0  0  0  3  0  0  0  0  0  0
  -25.1540  -29.0810   19.7700 C   0  0  0  0  0  0  0  0  0  0  0  0
  -26.2410  -30.8340   21.1630 C   0  0  0  0  0  2  0  0  0  0  0  0
  -26.3320  -29.5310   20.3780 C   0  0  0  0  0  0  0  0  0  0  0  0
  -27.5330  -28.7650   20.2630 C   0  0  0  0  0  3  0  0  0  0  0  0
  -26.3390  -27.1370   18.9280 C   0  0  0  0  0  3  0  0  0  0  0  0
  -25.1600  -27.8890   19.0370 C   0  0  0  0  0  3  0  0  0  0  0  0
  -23.9030  -29.9160   19.9310 C   0  0  0  0  0  2  0  0  0  0  0  0
  -24.9800  -31.0020   21.9400 N   0  0  0  0  0  0  0  0  0  0  0  0
  -23.8520  -31.9000   23.6940 O   0  0  0  0  0  0  0  0  0  0  0  0
  -23.1010  -29.3130   22.2460 C   0  0  0  0  0  0  0  0  0  0  0  0
  -21.7810  -29.0930   22.1160 N   0  0  0  0  0  0  0  0  0  0  0  0
  -23.8130  -28.6450   23.0020 O   0  0  0  0  0  0  0  0  0  0  0  0
  -21.2640  -29.6920   21.4880 H   0  0  0  0  0  0  0  0  0  0  0  0
  -18.4590  -27.7220   22.5300 C   0  0  0  0  0  0  0  0  0  0  0  0
  -21.0070  -28.0630   22.8110 C   0  0  0  0  0  3  0  0  0  0  0  0
  -21.1620  -26.6870   22.1230 C   0  0  0  0  0  2  0  0  0  0  0  0
  -20.0670  -26.4020   21.0900 C   0  0  0  0  0  2  0  0  0  0  0  0
  -18.6840  -26.4400   21.7480 C   0  0  0  0  0  2  0  0  0  0  0  0
  -19.5480  -28.4920   23.0150 C   0  0  0  0  0  0  0  0  0  0  0  0
  -19.2820  -29.6930   23.7080 C   0  0  0  0  0  3  0  0  0  0  0  0
  -17.9590  -30.1260   23.9180 C   0  0  0  0  0  3  0  0  0  0  0  0
  -16.8840  -29.3520   23.4480 C   0  0  0  0  0  3  0  0  0  0  0  0
  -17.1350  -28.1510   22.7600 C   0  0  0  0  0  3  0  0  0  0  0  0
  -26.2120  -32.3060   23.7560 C   0  0  0  0  0  3  0  0  0  0  0  0
  -26.7300  -31.4780   24.9950 C   0  0  1  0  0  0  0  0  0  0  0  0
  -25.6380  -31.1890   26.0510 C   0  0  0  0  0  1  0  0  0  0  0  0
  -27.3170  -30.1230   24.5390 C   0  0  0  0  0  1  0  0  0  0  0  0
  -27.8780  -32.2450   25.6920 C   0  0  0  0  0  1  0  0  0  0  0  0
  -25.9020  -33.6860   24.1510 N   0  0  0  0  0  0  0  0  0  0  0  0
  -26.1820  -34.7710   23.4140 C   0  0  0  0  0  0  0  0  0  0  0  0
  -26.8000  -34.7130   22.3480 O   0  0  0  0  0  0  0  0  0  0  0  0
  -25.3470  -33.8050   24.9860 H   0  0  0  0  0  0  0  0  0  0  0  0
  -24.3950  -36.5310   23.2400 C   0  0  0  0  0  1  0  0  0  0  0  0
  -25.7010  -36.1340   23.9460 C   0  0  0  0  0  3  0  0  0  0  0  0
  -27.8680  -37.0500   24.6490 C   0  0  0  0  0  1  0  0  0  0  0  0
  -26.7010  -37.2130   23.7860 N   0  0  0  0  0  0  0  0  0  0  0  0
  -26.2880  -38.1210   23.9800 H   0  0  0  0  0  0  0  0  0  0  0  0
  1  3  1  0
  2  5  2  0
  3  9  1  0
  4  2  1  0
  4  1  2  0
  5  3  1  0
  6  7  2  0
  6  9  1  0
  7 11  1  0
  9 10  2  0
 10  8  1  0
 10 51  1  0
 11 20  1  0
 11  8  2  0
 12 20  1  0
 13 18  1  0
 14 15  1  0
 14 13  1  0
 16 15  1  0
 16 25  1  0
 16 17  1  0
 18 12  1  0
 18 17  1  0
 19 12  2  0
 20 21  1  0
 22 23  2  0
 23 42  1  0
 24 23  1  0
 24 27  1  0
 25 26  1  0
 25 22  1  0
 26 24  2  0
 27 28  1  0
 28 29  2  0
 30 33  1  0
 30 29  1  0
 31 30  2  0
 32 31  1  0
 32 27  2  0
 33 34  1  0
 34 39  2  0
 34 35  1  0
 35 36  2  0
 36 37  1  0
 37 41  1  0
 38 37  2  0
 39 38  1  0
 40 39  1  0
 42 43  1  0
 43 46  1  0
 43 45  1  0
 44 42  2  0
 47 22  1  0
 47 48  1  0
 49 47  1  0
 50 51  1  0
 52  4  1  0
 52 53  1  0
 53 55  1  0
 54 65  2  0
 55 60  1  0
 56 64  1  0
 56 66  1  0
 57 63  1  0
 57 59  1  0
 58 64  1  0
 59 58  1  0
 60 59  2  0
 61 62  1  0
 61 55  2  0
 62 57  2  0
 63 56  1  0
 64 54  1  0
 66 68  2  0
 67 66  1  0
 69 67  1  0
 70 79  2  0
 70 75  1  0
 71 67  1  0
 71 75  1  0
 72 71  1  0
 73 74  1  0
 73 72  1  0
 74 70  1  0
 75 76  2  0
 76 77  1  0
 78 77  2  0
 79 78  1  0
 80 54  1  0
 80 85  1  0
 80 81  1  0
 81 84  1  1
 81 82  1  0
 83 81  1  0
 85 88  1  0
 86 90  1  0
 86 85  1  0
 87 86  2  0
 90 89  1  0
 92 90  1  0
 92 93  1  0
 92 91  1  0
M  ISO  4  12 100  20 100  52 101  53 101
M  END
>  <TORSDO>  (73) 
F 19

>  <SCORE>  (73) 
-10.631

>  <name>  (73) 
73

>  <ligand_id>  (73) 
73

>  <original_smiles>  (73) 
[H]C1=C(c2c([H])c([H])c(N([H])C(=O)N3C([H])([H])C([H])([H])C([H])([H])C([H])(n4nc(-c5c([H])c([H])c(Oc6c([H])c([H])c(F)c([H])c6F)c([H])c5[H])c(C(=O)N([H])[H])c4N([H])[H])C3([H])[H])c([H])c2C([H])([H])C([H])([H])[H])C([H])([H])C([H])=C1C([H])([H])Oc1c([H])c([H])c2c(c1[H])C([H])([H])N(C(=O)C([H])(N([H])C(=O)C([H])(N([H])C([H])([H])[H])C([H])([H])[H])C(C([H])([H])[H])(C([H])([H])[H])C([H])([H])[H])C([H])(C(=O)N([H])C1([H])c3c([H])c([H])c([H])c([H])c3C([H])([H])C([H])([H])C1([H])[H])C2([H])[H]

>  <smiles>  (73) 
[H]C1=C(c2c([H])c([H])c(N([H])C(=O)N3C([H])([H])C([H])([H])C([H])([H])C([H])(n4nc(-c5c([H])c([H])c(Oc6c([H])c([H])c(F)c([H])c6F)c([H])c5[H])c(C(=O)N([H])[H])c4N([H])[H])C3([H])[H])c([H])c2C([H])([H])C([H])([H])[H])C([H])([H])C([H])=C1C([H])([H])Oc1c([H])c([H])c2c(c1[H])C([H])([H])N(C(=O)C([H])(N([H])C(=O)C([H])(N([H])C([H])([H])[H])C([H])([H])[H])C(C([H])([H])[H])(C([H])([H])[H])C([H])([H])[H])C([H])(C(=O)N([H])C1([H])c3c([H])c([H])c([H])c([H])c3C([H])([H])C([H])([H])C1([H])[H])C2([H])[H]

$$$$
74:0:0
     RDKit          3D

 89 97  0  0  1  0  0  0  0  0999 V2000
  -27.9310  -21.2880   21.8940 C   0  0  0  0  0  2  0  0  0  0  0  0
  -27.9280  -20.3590   20.6750 C   0  0  0  0  0  2  0  0  0  0  0  0
  -29.2420  -22.0750   21.8230 C   0  0  0  0  0  2  0  0  0  0  0  0
  -29.1840  -20.7150   19.8630 C   0  0  0  0  0  3  0  0  0  0  0  0
  -29.6000  -22.1540   20.3930 N   0  0  1  0  0  4  0  0  0  0  0  0
  -30.6080  -22.2040   20.3580 H   0  0  0  0  0  0  0  0  0  0  0  0
  -30.1740  -19.3400   19.6280 C   0  0  0  0  0  2  0  0  0  0  0  0
  -30.4590  -17.9480   20.5540 C   0  0  0  0  0  2  0  0  0  0  0  0
  -30.9960  -15.2350   20.0740 C   0  0  0  0  0  0  0  0  0  0  0  0
  -30.8210  -12.8880   19.1130 C   0  0  0  0  0  2  0  0  0  0  0  0
  -29.8520  -12.8410   17.9090 C   0  0  0  0  0  2  0  0  0  0  0  0
  -28.3990  -12.6530   18.3860 C   0  0  0  0  0  2  0  0  0  0  0  0
  -28.0320  -13.5990   19.5570 C   0  0  0  0  0  3  0  0  0  0  0  0
  -29.1140  -13.6030   20.6560 C   0  0  0  0  0  2  0  0  0  0  0  0
  -30.3730  -13.9920   20.0070 N   0  0  0  0  0  0  0  0  0  0  0  0
  -32.2140  -15.2720   19.8700 O   0  0  0  0  0  0  0  0  0  0  0  0
  -30.2160  -16.4260   20.1620 N   0  0  0  0  0  0  0  0  0  0  0  0
  -29.2330  -16.2020   20.1250 H   0  0  0  0  0  0  0  0  0  0  0  0
  -25.7010  -14.2340   20.4000 C   0  0  0  0  0  0  0  0  0  0  0  0
  -24.6180  -13.4830   20.7670 C   0  0  0  0  0  0  0  0  0  0  0  0
  -25.0300  -12.1190   20.6630 C   0  0  0  0  0  0  0  0  0  0  0  0
  -26.7020  -13.3300   20.0890 N   0  0  0  0  0  0  0  0  0  0  0  0
  -26.3100  -12.0490   20.3160 N   0  0  0  0  0  0  0  0  0  0  0  0
  -24.2620  -10.8770   20.8140 C   0  0  0  0  0  0  0  0  0  0  0  0
  -24.6390   -9.8830   21.7430 C   0  0  0  0  0  3  0  0  0  0  0  0
  -23.8700   -8.7070   21.8830 C   0  0  0  0  0  3  0  0  0  0  0  0
  -22.7110   -8.5180   21.0940 C   0  0  0  0  0  0  0  0  0  0  0  0
  -22.3530   -9.5010   20.1550 C   0  0  0  0  0  3  0  0  0  0  0  0
  -23.1220  -10.6680   20.0130 C   0  0  0  0  0  3  0  0  0  0  0  0
  -21.9180   -7.3970   21.1440 O   0  0  0  0  0  0  0  0  0  0  0  0
  -21.7550   -6.6820   22.3030 C   0  0  0  0  0  0  0  0  0  0  0  0
  -21.2200   -7.2670   23.4720 C   0  0  0  0  0  3  0  0  0  0  0  0
  -21.0070   -6.4800   24.6200 C   0  0  0  0  0  3  0  0  0  0  0  0
  -21.3170   -5.1070   24.6000 C   0  0  0  0  0  0  0  0  0  0  0  0
  -21.8460   -4.5200   23.4370 C   0  0  0  0  0  3  0  0  0  0  0  0
  -22.0610   -5.3060   22.2910 C   0  0  0  0  0  0  0  0  0  0  0  0
  -22.5500   -4.7310   21.1650 F   0  0  0  0  0  0  0  0  0  0  0  0
  -21.1050   -4.3480   25.7010 F   0  0  0  0  0  0  0  0  0  0  0  0
  -23.2470  -13.9990   21.0940 C   0  0  0  0  0  0  0  0  0  0  0  0
  -22.5160  -13.2960   21.9520 N   0  0  0  0  0  0  0  0  0  0  0  0
  -22.8370  -15.0600   20.6260 O   0  0  0  0  0  0  0  0  0  0  0  0
  -22.8600  -12.4350   22.3480 H   0  0  0  0  0  0  0  0  0  0  0  0
  -21.5990  -13.6260   22.2170 H   0  0  0  0  0  0  0  0  0  0  0  0
  -25.9090  -15.6060   20.2780 N   0  0  0  0  0  0  0  0  0  0  0  0
  -25.1640  -16.2750   20.4410 H   0  0  0  0  0  0  0  0  0  0  0  0
  -26.7470  -16.0330   19.9060 H   0  0  0  0  0  0  0  0  0  0  0  0
  -29.1000  -23.5230   19.7150 C   0  0  0  0  0  2  0  0  0  0  0  0
  -28.7390  -24.9660   20.5380 C   0  0  0  0  0  2  0  0  0  0  0  0
  -28.7380  -26.4540   20.0610 O   0  0  0  0  0  0  0  0  0  0  0  0
  -24.7140  -31.8280   23.1860 C   0  0  0  0  0  0  0  0  0  0  0  0
  -27.6030  -27.3390   20.1020 C   0  0  0  0  0  0  0  0  0  0  0  0
  -23.6280  -30.4310   21.4690 C   0  0  0  0  0  3  0  0  0  0  0  0
  -25.1900  -28.9580   20.0510 C   0  0  0  0  0  0  0  0  0  0  0  0
  -26.1700  -30.8190   21.3860 C   0  0  0  0  0  2  0  0  0  0  0  0
  -26.3290  -29.4510   20.7020 C   0  0  0  0  0  0  0  0  0  0  0  0
  -27.5390  -28.6610   20.7010 C   0  0  0  0  0  3  0  0  0  0  0  0
  -26.4300  -26.9330   19.4320 C   0  0  0  0  0  3  0  0  0  0  0  0
  -25.2520  -27.7140   19.4030 C   0  0  0  0  0  3  0  0  0  0  0  0
  -23.9210  -29.7980   20.0820 C   0  0  0  0  0  2  0  0  0  0  0  0
  -24.8550  -31.0470   22.0700 N   0  0  0  0  0  0  0  0  0  0  0  0
  -23.6010  -32.0450   23.6890 O   0  0  0  0  0  0  0  0  0  0  0  0
  -22.9700  -29.3650   22.3820 C   0  0  0  0  0  0  0  0  0  0  0  0
  -21.6510  -29.1530   22.2210 N   0  0  0  0  0  0  0  0  0  0  0  0
  -23.6490  -28.7320   23.1930 O   0  0  0  0  0  0  0  0  0  0  0  0
  -21.1590  -29.7180   21.5450 H   0  0  0  0  0  0  0  0  0  0  0  0
  -18.3000  -27.8460   22.6420 C   0  0  0  0  0  0  0  0  0  0  0  0
  -20.8490  -28.1590   22.9400 C   0  0  0  0  0  3  0  0  0  0  0  0
  -20.9900  -26.7590   22.2970 C   0  0  0  0  0  2  0  0  0  0  0  0
  -19.9040  -26.4620   21.2590 C   0  0  0  0  0  2  0  0  0  0  0  0
  -18.5140  -26.5390   21.8990 C   0  0  0  0  0  2  0  0  0  0  0  0
  -19.3960  -28.6160   23.1160 C   0  0  0  0  0  0  0  0  0  0  0  0
  -19.1410  -29.8400   23.7710 C   0  0  0  0  0  3  0  0  0  0  0  0
  -17.8230  -30.2960   23.9570 C   0  0  0  0  0  3  0  0  0  0  0  0
  -16.7410  -29.5250   23.4980 C   0  0  0  0  0  3  0  0  0  0  0  0
  -16.9810  -28.3020   22.8470 C   0  0  0  0  0  3  0  0  0  0  0  0
  -25.9420  -32.5000   23.8720 C   0  0  0  0  0  3  0  0  0  0  0  0
  -26.4130  -31.7470   25.1770 C   0  0  1  0  0  0  0  0  0  0  0  0
  -25.2690  -31.4580   26.1780 C   0  0  0  0  0  1  0  0  0  0  0  0
  -27.0770  -30.3970   24.8240 C   0  0  0  0  0  1  0  0  0  0  0  0
  -27.4870  -32.5870   25.9060 C   0  0  0  0  0  1  0  0  0  0  0  0
  -25.5720  -33.8900   24.1880 N   0  0  0  0  0  0  0  0  0  0  0  0
  -25.9040  -34.9570   23.4490 C   0  0  0  0  0  0  0  0  0  0  0  0
  -26.6200  -34.8780   22.4480 O   0  0  0  0  0  0  0  0  0  0  0  0
  -24.9380  -34.0230   24.9630 H   0  0  0  0  0  0  0  0  0  0  0  0
  -24.1320  -36.6980   23.0380 C   0  0  0  0  0  1  0  0  0  0  0  0
  -25.3590  -36.3300   23.8900 C   0  0  0  0  0  3  0  0  0  0  0  0
  -27.4320  -37.2900   24.7930 C   0  0  0  0  0  1  0  0  0  0  0  0
  -26.3600  -37.4170   23.8090 N   0  0  0  0  0  0  0  0  0  0  0  0
  -25.9190  -38.3240   23.9350 H   0  0  0  0  0  0  0  0  0  0  0  0
  2  1  1  0
  3  1  1  0
  4  7  1  0
  4  5  1  0
  4  2  1  0
  5  3  1  0
  5  6  1  1
  7  8  1  0
  9 17  1  0
 10 15  1  0
 11 12  1  0
 11 10  1  0
 13 12  1  0
 13 22  1  0
 13 14  1  0
 15  9  1  0
 15 14  1  0
 16  9  2  0
 17  8  1  0
 18 17  1  0
 19 20  2  0
 20 39  1  0
 21 20  1  0
 21 24  1  0
 22 23  1  0
 22 19  1  0
 23 21  2  0
 24 25  1  0
 25 26  2  0
 27 30  1  0
 27 26  1  0
 28 27  2  0
 29 28  1  0
 29 24  2  0
 30 31  1  0
 31 32  1  0
 32 33  2  0
 34 33  1  0
 34 38  1  0
 35 34  2  0
 36 31  2  0
 36 35  1  0
 37 36  1  0
 39 40  1  0
 40 43  1  0
 40 42  1  0
 41 39  2  0
 44 19  1  0
 44 45  1  0
 46 44  1  0
 47  5  1  0
 47 48  1  0
 49 51  1  0
 49 48  1  0
 50 61  2  0
 51 56  1  0
 52 60  1  0
 52 62  1  0
 53 59  1  0
 53 55  1  0
 54 60  1  0
 55 54  1  0
 56 55  2  0
 57 51  2  0
 58 57  1  0
 58 53  2  0
 59 52  1  0
 60 50  1  0
 62 64  2  0
 63 62  1  0
 65 63  1  0
 66 75  2  0
 66 71  1  0
 67 63  1  0
 67 71  1  0
 68 67  1  0
 69 70  1  0
 69 68  1  0
 70 66  1  0
 71 72  2  0
 72 73  1  0
 74 73  2  0
 75 74  1  0
 76 50  1  0
 76 81  1  0
 76 77  1  0
 77 80  1  1
 77 78  1  0
 79 77  1  0
 81 84  1  0
 82 86  1  0
 82 81  1  0
 83 82  2  0
 86 85  1  0
 88 86  1  0
 88 89  1  0
 88 87  1  0
M  ISO  4   9 100  17 100  48 101  49 101
M  END
>  <TORSDO>  (74) 
F 20

>  <SCORE>  (74) 
-14.041

>  <name>  (74) 
74

>  <ligand_id>  (74) 
74

>  <original_smiles>  (74) 
[H]c1c([H])c([H])c2c(c1[H])C([H])([H])C([H])([H])C([H])([H])C2([H])N([H])C(=O)C1([H])N(C(=O)C([H])(N([H])C(=O)C([H])(N([H])C([H])([H])[H])C([H])([H])[H])C(C([H])([H])[H])(C([H])([H])[H])C([H])([H])[H])C([H])([H])c2c([H])c(OC([H])([H])C([H])([H])[N+]3([H])C([H])([H])C([H])([H])C([H])([H])C3([H])C([H])([H])C([H])([H])N([H])C(=O)N3C([H])([H])C([H])([H])C([H])([H])C([H])(n4nc(-c5c([H])c([H])c(Oc6c([H])c([H])c(F)c([H])c6F)c([H])c5[H])c(C(=O)N([H])[H])c4N([H])[H])C3([H])[H])c([H])c([H])c2C1([H])[H]

>  <smiles>  (74) 
[H]c1c([H])c([H])c2c(c1[H])C([H])([H])C([H])([H])C([H])([H])C2([H])N([H])C(=O)C1([H])N(C(=O)C([H])(N([H])C(=O)C([H])(N([H])C([H])([H])[H])C([H])([H])[H])C(C([H])([H])[H])(C([H])([H])[H])C([H])([H])[H])C([H])([H])c2c([H])c(OC([H])([H])C([H])([H])[N+]3([H])C([H])([H])C([H])([H])C([H])([H])C3([H])C([H])([H])C([H])([H])N([H])C(=O)N3C([H])([H])C([H])([H])C([H])([H])C([H])(n4nc(-c5c([H])c([H])c(Oc6c([H])c([H])c(F)c([H])c6F)c([H])c5[H])c(C(=O)N([H])[H])c4N([H])[H])C3([H])[H])c([H])c([H])c2C1([H])[H]

$$$$
75:0:0
     RDKit          3D

 96105  0  0  1  0  0  0  0  0999 V2000
  -29.9810  -21.8710   18.5670 C   0  0  0  0  0  3  0  0  0  0  0  0
  -31.2560  -22.1180   20.5530 C   0  0  0  0  0  3  0  0  0  0  0  0
  -29.7320  -23.2990   18.5310 C   0  0  0  0  0  3  0  0  0  0  0  0
  -31.0060  -23.5300   20.5160 C   0  0  0  0  0  3  0  0  0  0  0  0
  -30.7320  -21.2100   19.5970 C   0  0  0  0  0  0  0  0  0  0  0  0
  -30.2250  -24.2060   19.5200 C   0  0  0  0  0  0  0  0  0  0  0  0
  -32.1930  -15.2560   19.7080 C   0  0  0  0  0  0  0  0  0  0  0  0
  -31.9730  -12.8540   18.9740 C   0  0  0  0  0  2  0  0  0  0  0  0
  -31.0460  -12.6380   17.7570 C   0  0  0  0  0  2  0  0  0  0  0  0
  -29.5580  -12.6230   18.1590 C   0  0  0  0  0  2  0  0  0  0  0  0
  -29.1790  -13.6510   19.2600 C   0  0  0  0  0  3  0  0  0  0  0  0
  -30.2330  -13.7130   20.3810 C   0  0  0  0  0  2  0  0  0  0  0  0
  -31.5070  -14.0480   19.7320 N   0  0  0  0  0  0  0  0  0  0  0  0
  -33.4030  -15.1960   19.4630 O   0  0  0  0  0  0  0  0  0  0  0  0
  -31.7780  -19.0580   18.7330 C   0  0  0  0  0  3  0  0  0  0  0  0
  -31.0140  -19.6620   19.6640 C   0  0  0  0  0  0  0  0  0  0  0  0
  -30.4330  -17.0850   20.3170 C   0  0  0  0  0  2  0  0  0  0  0  0
  -32.0550  -17.5370   18.5130 C   0  0  0  0  0  3  0  0  0  0  0  0
  -30.4020  -18.6520   20.6770 C   0  0  0  0  0  3  0  0  0  0  0  0
  -31.5390  -16.5040   19.5040 N   0  0  0  0  0  0  0  0  0  0  0  0
  -26.7870  -14.3030   19.9150 C   0  0  0  0  0  0  0  0  0  0  0  0
  -25.7210  -13.5680   20.3540 C   0  0  0  0  0  0  0  0  0  0  0  0
  -26.1900  -12.2230   20.4700 C   0  0  0  0  0  0  0  0  0  0  0  0
  -27.8360  -13.4100   19.7810 N   0  0  0  0  0  0  0  0  0  0  0  0
  -27.4850  -12.1620   20.1860 N   0  0  0  0  0  0  0  0  0  0  0  0
  -25.4640  -10.9830   20.7770 C   0  0  0  0  0  0  0  0  0  0  0  0
  -25.7170  -10.2510   21.9580 C   0  0  0  0  0  3  0  0  0  0  0  0
  -24.9890   -9.0740   22.2390 C   0  0  0  0  0  3  0  0  0  0  0  0
  -23.9960   -8.6210   21.3400 C   0  0  0  0  0  0  0  0  0  0  0  0
  -23.7640   -9.3400   20.1560 C   0  0  0  0  0  3  0  0  0  0  0  0
  -24.4930  -10.5080   19.8730 C   0  0  0  0  0  3  0  0  0  0  0  0
  -23.2570   -7.4770   21.5210 O   0  0  0  0  0  0  0  0  0  0  0  0
  -22.5270   -7.2630   22.6620 C   0  0  0  0  0  0  0  0  0  0  0  0
  -21.5250   -8.1630   23.0850 C   0  0  0  0  0  3  0  0  0  0  0  0
  -20.7530   -7.8700   24.2270 C   0  0  0  0  0  3  0  0  0  0  0  0
  -20.9730   -6.6770   24.9400 C   0  0  0  0  0  0  0  0  0  0  0  0
  -21.9670   -5.7770   24.5160 C   0  0  0  0  0  3  0  0  0  0  0  0
  -22.7390   -6.0680   23.3780 C   0  0  0  0  0  0  0  0  0  0  0  0
  -23.6820   -5.1880   22.9600 F   0  0  0  0  0  0  0  0  0  0  0  0
  -20.2270   -6.3890   26.0310 F   0  0  0  0  0  0  0  0  0  0  0  0
  -24.3210  -14.0660   20.5560 C   0  0  0  0  0  0  0  0  0  0  0  0
  -23.6060  -13.5040   21.5250 N   0  0  0  0  0  0  0  0  0  0  0  0
  -23.8690  -14.9940   19.8860 O   0  0  0  0  0  0  0  0  0  0  0  0
  -23.9830  -12.7560   22.0870 H   0  0  0  0  0  0  0  0  0  0  0  0
  -22.6660  -13.8290   21.7070 H   0  0  0  0  0  0  0  0  0  0  0  0
  -26.9420  -15.6460   19.5910 N   0  0  0  0  0  0  0  0  0  0  0  0
  -26.1650  -16.2980   19.6200 H   0  0  0  0  0  0  0  0  0  0  0  0
  -27.7830  -16.0500   19.2010 H   0  0  0  0  0  0  0  0  0  0  0  0
  -31.9420  -16.0290   16.3600 C   0  0  0  0  0  1  0  0  0  0  0  0
  -31.5370  -17.3090   17.0700 C   0  0  0  0  0  2  0  0  0  0  0  0
  -27.9740  -17.8830   21.1150 C   0  0  0  0  0  1  0  0  0  0  0  0
  -28.9740  -19.0490   21.1180 C   0  0  0  0  0  2  0  0  0  0  0  0
  -29.9480  -25.7550   19.6820 C   0  0  0  0  0  0  0  0  0  0  0  0
  -30.1090  -26.2930   20.8200 N   0  0  0  0  0  0  0  0  0  0  0  0
  -30.3900  -25.6130   21.5160 H   0  0  0  0  0  0  0  0  0  0  0  0
  -29.5470  -26.6070   18.6050 O   0  0  0  0  0  0  0  0  0  0  0  0
  -24.9820  -30.6270   22.6050 C   0  0  0  0  0  0  0  0  0  0  0  0
  -28.3280  -27.3230   18.7300 C   0  0  0  0  0  0  0  0  0  0  0  0
  -24.0150  -29.3160   20.7480 C   0  0  0  0  0  3  0  0  0  0  0  0
  -25.6860  -28.4030   19.0310 C   0  0  0  0  0  0  0  0  0  0  0  0
  -26.4200  -30.2020   20.5920 C   0  0  0  0  0  2  0  0  0  0  0  0
  -26.7590  -29.0080   19.6990 C   0  0  0  0  0  0  0  0  0  0  0  0
  -28.0840  -28.4820   19.5430 C   0  0  0  0  0  3  0  0  0  0  0  0
  -27.2230  -26.7960   18.0310 C   0  0  0  0  0  3  0  0  0  0  0  0
  -25.9200  -27.3090   18.1840 C   0  0  0  0  0  3  0  0  0  0  0  0
  -24.2940  -28.9660   19.2630 C   0  0  0  0  0  2  0  0  0  0  0  0
  -25.1570  -30.0590   21.3740 N   0  0  0  0  0  0  0  0  0  0  0  0
  -23.8940  -30.5610   23.1950 O   0  0  0  0  0  0  0  0  0  0  0  0
  -23.6330  -28.0240   21.5130 C   0  0  0  0  0  0  0  0  0  0  0  0
  -22.3710  -27.5850   21.3700 N   0  0  0  0  0  0  0  0  0  0  0  0
  -24.4700  -27.4290   22.1980 O   0  0  0  0  0  0  0  0  0  0  0  0
  -21.7390  -28.1320   20.8030 H   0  0  0  0  0  0  0  0  0  0  0  0
  -19.3610  -25.5990   21.6840 C   0  0  0  0  0  0  0  0  0  0  0  0
  -21.8140  -26.3660   21.9630 C   0  0  0  0  0  3  0  0  0  0  0  0
  -22.1910  -25.1190   21.1310 C   0  0  0  0  0  2  0  0  0  0  0  0
  -21.1320  -24.7470   20.0890 C   0  0  0  0  0  2  0  0  0  0  0  0
  -19.7870  -24.4660   20.7650 C   0  0  0  0  0  2  0  0  0  0  0  0
  -20.3100  -26.5010   22.2340 C   0  0  0  0  0  0  0  0  0  0  0  0
  -19.8570  -27.5570   23.0540 C   0  0  0  0  0  3  0  0  0  0  0  0
  -18.4850  -27.7180   23.3270 C   0  0  0  0  0  3  0  0  0  0  0  0
  -17.5510  -26.8130   22.7920 C   0  0  0  0  0  3  0  0  0  0  0  0
  -17.9900  -25.7540   21.9770 C   0  0  0  0  0  3  0  0  0  0  0  0
  -26.1310  -31.4030   23.3160 C   0  0  0  0  0  3  0  0  0  0  0  0
  -26.8600  -30.5510   24.4260 C   0  0  1  0  0  0  0  0  0  0  0  0
  -25.8970  -29.8970   25.4460 C   0  0  0  0  0  1  0  0  0  0  0  0
  -27.7010  -29.4220   23.7870 C   0  0  0  0  0  1  0  0  0  0  0  0
  -27.8520  -31.4450   25.2070 C   0  0  0  0  0  1  0  0  0  0  0  0
  -25.5510  -32.6220   23.9000 N   0  0  0  0  0  0  0  0  0  0  0  0
  -25.6510  -33.8450   23.3640 C   0  0  0  0  0  0  0  0  0  0  0  0
  -26.3080  -34.0770   22.3450 O   0  0  0  0  0  0  0  0  0  0  0  0
  -24.9560  -32.4990   24.7050 H   0  0  0  0  0  0  0  0  0  0  0  0
  -23.6020  -35.3030   23.3070 C   0  0  0  0  0  1  0  0  0  0  0  0
  -24.9020  -34.9950   24.0660 C   0  0  0  0  0  3  0  0  0  0  0  0
  -26.8110  -36.1010   25.1440 C   0  0  0  0  0  1  0  0  0  0  0  0
  -25.7060  -36.2290   24.1960 N   0  0  0  0  0  0  0  0  0  0  0  0
  -25.1250  -37.0100   24.4910 H   0  0  0  0  0  0  0  0  0  0  0  0
  1  5  1  0
  3  1  2  0
  3  6  1  0
  4  2  1  0
  5 16  1  0
  5  2  2  0
  6 53  1  0
  6  4  2  0
  7 13  1  0
  8 13  1  0
  9 10  1  0
  9  8  1  0
 11 10  1  0
 11 24  1  0
 11 12  1  0
 13 12  1  0
 14  7  2  0
 15 16  2  0
 16 19  1  0
 17 19  1  0
 18 50  1  0
 18 15  1  0
 18 20  1  0
 19 52  1  0
 20  7  1  0
 20 17  1  0
 21 22  2  0
 22 23  1  0
 22 41  1  0
 23 26  1  0
 24 21  1  0
 24 25  1  0
 25 23  2  0
 26 27  1  0
 27 28  2  0
 29 32  1  0
 29 28  1  0
 30 29  2  0
 31 30  1  0
 31 26  2  0
 32 33  1  0
 33 34  2  0
 33 38  1  0
 34 35  1  0
 35 36  2  0
 36 40  1  0
 37 36  1  0
 38 37  2  0
 39 38  1  0
 41 42  1  0
 42 45  1  0
 42 44  1  0
 43 41  2  0
 46 47  1  0
 46 21  1  0
 48 46  1  0
 49 50  1  0
 51 52  1  0
 53 54  2  0
 54 55  1  0
 56 58  1  0
 56 53  1  0
 57 68  2  0
 58 63  1  0
 59 67  1  0
 59 69  1  0
 60 66  1  0
 60 62  1  0
 61 67  1  0
 62 61  1  0
 63 62  2  0
 64 65  1  0
 64 58  2  0
 65 60  2  0
 66 59  1  0
 67 57  1  0
 69 71  2  0
 70 69  1  0
 72 70  1  0
 73 82  2  0
 73 78  1  0
 74 70  1  0
 74 78  1  0
 75 74  1  0
 76 77  1  0
 76 75  1  0
 77 73  1  0
 78 79  2  0
 79 80  1  0
 81 80  2  0
 82 81  1  0
 83 57  1  0
 83 88  1  0
 83 84  1  0
 84 87  1  1
 84 85  1  0
 86 84  1  0
 88 91  1  0
 89 88  1  0
 89 93  1  0
 90 89  2  0
 93 92  1  0
 93 95  1  0
 95 96  1  0
 95 94  1  0
M  ISO  4   7 100  20 100  53 101  56 101
M  END
>  <TORSDO>  (75) 
F 19

>  <SCORE>  (75) 
-5.162

>  <name>  (75) 
75

>  <ligand_id>  (75) 
75

>  <original_smiles>  (75) 
[H]N=C(Oc1c([H])c([H])c2c(c1[H])C([H])([H])N(C(=O)C([H])(N([H])C(=O)C([H])(N([H])C([H])([H])[H])C([H])([H])[H])C(C([H])([H])[H])(C([H])([H])[H])C([H])([H])[H])C([H])(C(=O)N([H])C1([H])c3c([H])c([H])c([H])c([H])c3C([H])([H])C([H])([H])C1([H])[H])C2([H])[H])c1c([H])c([H])c(C2=C([H])C([H])(C([H])([H])C([H])([H])[H])N(C(=O)N3C([H])([H])C([H])([H])C([H])([H])C([H])(n4nc(-c5c([H])c([H])c(Oc6c([H])c([H])c(F)c([H])c6F)c([H])c5[H])c(C(=O)N([H])[H])c4N([H])[H])C3([H])[H])C([H])([H])C2([H])C([H])([H])C([H])([H])[H])c([H])c1[H]

>  <smiles>  (75) 
[H]N=C(Oc1c([H])c([H])c2c(c1[H])C([H])([H])N(C(=O)C([H])(N([H])C(=O)C([H])(N([H])C([H])([H])[H])C([H])([H])[H])C(C([H])([H])[H])(C([H])([H])[H])C([H])([H])[H])C([H])(C(=O)N([H])C1([H])c3c([H])c([H])c([H])c([H])c3C([H])([H])C([H])([H])C1([H])[H])C2([H])[H])c1c([H])c([H])c(C2=C([H])C([H])(C([H])([H])C([H])([H])[H])N(C(=O)N3C([H])([H])C([H])([H])C([H])([H])C([H])(n4nc(-c5c([H])c([H])c(Oc6c([H])c([H])c(F)c([H])c6F)c([H])c5[H])c(C(=O)N([H])[H])c4N([H])[H])C3([H])[H])C([H])([H])C2([H])C([H])([H])C([H])([H])[H])c([H])c1[H]

$$$$
76:0:0
     RDKit          3D

 97 95  0  0  1  0  0  0  0  0999 V2000
  -20.0080  -28.4190   21.8590 C   0  0  0  0  0  0  0  0  0  0  0  0
  -19.2200  -29.1720   21.0960 N   0  0  0  0  0  0  0  0  0  0  0  0
  -20.9450  -29.2460   22.9640 N   0  0  0  0  0  0  0  0  0  0  0  0
  -18.5900  -28.7180   20.4500 H   0  0  0  0  0  0  0  0  0  0  0  0
  -19.1800  -30.1750   21.1700 H   0  0  0  0  0  0  0  0  0  0  0  0
  -20.7010  -30.2180   23.0840 H   0  0  0  0  0  0  0  0  0  0  0  0
  -18.8120  -23.7960   21.9820 C   0  0  0  0  0  3  0  0  0  0  0  0
  -18.4300  -25.4610   21.4230 C   0  0  0  0  0  2  0  0  0  0  0  0
  -20.2670  -22.8030   22.1180 C   0  0  0  0  0  3  0  0  0  0  0  0
  -21.3370  -24.6850   22.4010 C   0  0  0  0  0 15  0  0  0  0  0  0
  -19.9220  -26.5410   21.5510 C   0  0  0  0  0  2  0  0  0  0  0  0
  -21.9810  -22.7940   21.9890 C   0  0  0  0  0  1  0  0  0  0  0  0
  -27.3620  -17.4040   20.9070 C   0  0  0  0  0  2  0  0  0  0  0  0
  -29.2980  -14.9210   19.7770 C   0  0  0  0  0  2  0  0  0  0  0  0
  -29.2800  -13.5840   18.7600 C   0  0  0  0  0  2  0  0  0  0  0  0
  -28.2360  -12.5380   19.1280 C   0  0  0  0  0  2  0  0  0  0  0  0
  -27.2980  -13.4130   19.9320 C   0  0  0  0  0  3  0  0  0  0  0  0
  -27.8210  -14.3060   21.1160 C   0  0  0  0  0  2  0  0  0  0  0  0
  -27.9390  -15.7420   20.5470 N   0  0  0  0  0  0  0  0  0  0  0  0
  -28.7210  -17.4380   20.7660 O   0  0  0  0  0  1  0  0  0  0  0  0
  -23.7820  -20.7070   21.6860 C   0  0  0  0  0  1  0  0  0  0  0  0
  -25.5340  -19.3580   21.2770 N   0  0  0  0  0  1  0  0  0  0  0  0
  -22.9450  -19.7390   22.0800 N   0  0  0  0  0  0  0  0  0  0  0  0
  -26.1120  -20.1810   21.1880 H   0  0  0  0  0  0  0  0  0  0  0  0
  -22.0120  -19.9620   22.3870 H   0  0  0  0  0  0  0  0  0  0  0  0
  -23.2350  -18.7750   22.0790 H   0  0  0  0  0  0  0  0  0  0  0  0
  -25.0210  -13.7950   20.5400 C   0  0  0  0  0  0  0  0  0  0  0  0
  -24.0280  -12.9910   20.9410 C   0  0  0  0  0  0  0  0  0  0  0  0
  -24.5490  -11.6600   20.8960 C   0  0  0  0  0  0  0  0  0  0  0  0
  -26.0660  -12.9380   20.3150 N   0  0  0  0  0  0  0  0  0  0  0  0
  -25.8340  -11.6440   20.5780 N   0  0  0  0  0  0  0  0  0  0  0  0
  -23.8610  -10.3970   21.0540 C   0  0  0  0  0  0  0  0  0  0  0  0
  -24.3370   -9.3990   21.9280 C   0  0  0  0  0  3  0  0  0  0  0  0
  -23.6150   -8.2000   22.0780 C   0  0  0  0  0  3  0  0  0  0  0  0
  -22.4140   -8.0040   21.3540 C   0  0  0  0  0  0  0  0  0  0  0  0
  -21.9680   -8.9940   20.4630 C   0  0  0  0  0  3  0  0  0  0  0  0
  -22.6890  -10.1840   20.3080 C   0  0  0  0  0  3  0  0  0  0  0  0
  -21.6530   -6.8670   21.4240 O   0  0  0  0  0  0  0  0  0  0  0  0
  -21.6780   -6.0610   22.5310 C   0  0  0  0  0  0  0  0  0  0  0  0
  -21.3950   -6.5560   23.8220 C   0  0  0  0  0  3  0  0  0  0  0  0
  -21.3630   -5.6750   24.9200 C   0  0  0  0  0  3  0  0  0  0  0  0
  -21.6040   -4.3010   24.7270 C   0  0  0  0  0  0  0  0  0  0  0  0
  -21.8830   -3.8070   23.4400 C   0  0  0  0  0  3  0  0  0  0  0  0
  -21.9170   -4.6860   22.3440 C   0  0  0  0  0  0  0  0  0  0  0  0
  -22.1660   -4.2050   21.1020 F   0  0  0  0  0  0  0  0  0  0  0  0
  -21.5640   -3.4510   25.7790 F   0  0  0  0  0  0  0  0  0  0  0  0
  -22.6480  -13.4680   21.2170 C   0  0  0  0  0  0  0  0  0  0  0  0
  -21.9360  -12.7760   22.0900 N   0  0  0  0  0  0  0  0  0  0  0  0
  -22.2290  -14.5080   20.7060 O   0  0  0  0  0  0  0  0  0  0  0  0
  -22.3070  -11.9440   22.5240 H   0  0  0  0  0  0  0  0  0  0  0  0
  -21.0040  -13.0820   22.3300 H   0  0  0  0  0  0  0  0  0  0  0  0
  -25.0990  -15.1740   20.3300 N   0  0  0  0  0  0  0  0  0  0  0  0
  -24.1960  -15.6290   20.2330 H   0  0  0  0  0  0  0  0  0  0  0  0
  -25.7560  -15.4640   19.6190 H   0  0  0  0  0  0  0  0  0  0  0  0
  -22.4730  -28.7550   24.1890 C   0  0  0  0  0 15  0  0  0  0  0  0
  -24.3550  -27.6300   23.8160 C   0  0  0  0  0 15  0  0  0  0  0  0
  -25.6050  -27.1170   22.5060 O   0  0  0  0  0  1  0  0  0  0  0  0
  -24.6540  -32.1340   22.9620 C   0  0  0  0  0  0  0  0  0  0  0  0
  -26.2750  -27.5370   21.2650 C   0  0  0  0  0  3  0  0  0  0  0  0
  -23.5210  -30.7620   21.0670 C   0  0  0  0  0  3  0  0  0  0  0  0
  -25.0460  -29.2580   19.7270 C   0  0  0  0  0  3  0  0  0  0  0  0
  -26.0340  -31.1500   21.1010 C   0  0  0  0  0  2  0  0  0  0  0  0
  -26.0850  -29.7220   20.5620 C   0  0  0  0  0  3  0  0  0  0  0  0
  -26.9090  -28.7810   21.1850 C   0  0  0  0  0  2  0  0  0  0  0  0
  -25.8130  -27.0010   20.0310 C   0  0  0  0  0  2  0  0  0  0  0  0
  -25.0290  -27.9100   19.3000 C   0  0  0  0  0  2  0  0  0  0  0  0
  -23.8250  -30.1710   19.6680 C   0  0  0  0  0  2  0  0  0  0  0  0
  -24.7240  -31.5440   21.6900 N   0  0  0  0  0  0  0  0  0  0  0  0
  -23.5650  -32.2660   23.5500 O   0  0  0  0  0  0  0  0  0  0  0  0
  -23.3820  -29.4960   21.8460 C   0  0  0  0  0  0  0  0  0  0  0  0
  -22.6620  -28.3280   21.6630 N   0  0  0  0  0  0  0  0  0  0  0  0
  -24.1340  -29.6080   22.7360 O   0  0  0  0  0  0  0  0  0  0  0  0
  -22.2560  -28.3180   20.7410 H   0  0  0  0  0  0  0  0  0  0  0  0
  -19.4180  -25.7540   23.4650 C   0  0  0  0  0  2  0  0  0  0  0  0
  -22.0200  -27.0790   22.6090 C   0  0  0  0  0  2  0  0  0  0  0  0
  -22.3600  -26.4530   21.0670 C   0  0  0  0  0  2  0  0  0  0  0  0
  -21.4180  -25.7450   19.9220 C   0  0  0  0  0  2  0  0  0  0  0  0
  -20.2910  -24.7280   20.4750 C   0  0  0  0  0  1  0  0  0  0  0  0
  -20.3690  -26.9500   23.8990 C   0  0  0  0  0  2  0  0  0  0  0  0
  -19.6460  -28.1700   24.6970 C   0  0  0  0  0  2  0  0  0  0  0  0
  -18.4210  -28.9250   24.3930 C   0  0  0  0  0  2  0  0  0  0  0  0
  -17.5210  -28.0650   23.7850 C   0  0  0  0  0  2  0  0  0  0  0  0
  -17.9870  -26.6350   23.6130 C   0  0  0  0  0  2  0  0  0  0  0  0
  -25.9340  -32.5770   23.7670 C   0  0  0  0  0  3  0  0  0  0  0  0
  -26.4220  -31.6960   25.0010 C   0  0  1  0  0  0  0  0  0  0  0  0
  -25.3270  -31.3750   26.0410 C   0  0  0  0  0  1  0  0  0  0  0  0
  -27.0330  -30.3650   24.5170 C   0  0  0  0  0  1  0  0  0  0  0  0
  -27.5690  -32.4360   25.7430 C   0  0  0  0  0  1  0  0  0  0  0  0
  -25.6260  -33.9230   24.2250 N   0  0  0  0  0  0  0  0  0  0  0  0
  -25.9140  -35.0070   23.5040 C   0  0  0  0  0  0  0  0  0  0  0  0
  -26.5550  -34.9570   22.4490 O   0  0  0  0  0  0  0  0  0  0  0  0
  -25.0520  -34.0170   25.0500 H   0  0  0  0  0  0  0  0  0  0  0  0
  -24.1470  -36.7650   23.2630 C   0  0  0  0  0  1  0  0  0  0  0  0
  -25.4120  -36.3550   24.0340 C   0  0  0  0  0  3  0  0  0  0  0  0
  -27.5630  -37.2030   24.8470 C   0  0  0  0  0  1  0  0  0  0  0  0
  -26.4300  -37.4210   23.9500 N   0  0  0  0  0  0  0  0  0  0  0  0
  -26.0240  -38.3260   24.1720 H   0  0  0  0  0  0  0  0  0  0  0  0
  1  3  2  0
  2  5  1  0
  2  1  1  0
  3  6  1  0
  4  2  1  0
  7  9  2  0
  8 11  1  0
  8  7  1  0
 11  1  1  0
 12  9  1  0
 14 19  1  0
 15 16  1  0
 15 14  1  0
 17 16  1  0
 17 30  1  0
 17 18  1  0
 19 13  1  0
 19 18  1  0
 20 13  1  0
 21 23  1  0
 23 25  1  0
 24 22  1  0
 26 23  1  0
 27 28  2  0
 28 47  1  0
 29 28  1  0
 29 32  1  0
 30 27  1  0
 30 31  1  0
 31 29  2  0
 32 33  1  0
 33 34  2  0
 35 38  1  0
 35 34  1  0
 36 35  2  0
 37 36  1  0
 37 32  2  0
 38 39  1  0
 39 40  1  0
 40 41  2  0
 42 41  1  0
 42 46  1  0
 43 42  2  0
 44 39  2  0
 44 43  1  0
 45 44  1  0
 47 48  1  0
 48 51  1  0
 48 50  1  0
 49 47  2  0
 52 27  1  0
 53 52  1  0
 54 52  1  0
 58 69  2  0
 59 57  1  0
 60 68  1  0
 60 70  1  0
 61 66  1  0
 61 63  1  0
 62 68  1  0
 63 62  1  0
 63 64  1  0
 64 59  1  0
 65 59  1  0
 66 65  1  0
 67 61  1  0
 67 60  1  0
 68 58  1  0
 70 72  2  0
 71 70  1  0
 71 75  1  0
 73 71  1  0
 74 83  1  0
 74 79  1  0
 76 75  1  0
 77 78  1  0
 77 76  1  0
 79 80  1  0
 81 80  1  0
 82 81  1  0
 83 82  1  0
 84 58  1  0
 84 89  1  0
 84 85  1  0
 85 88  1  1
 85 86  1  0
 87 85  1  0
 89 92  1  0
 90 94  1  0
 90 89  1  0
 91 90  2  0
 94 93  1  0
 96 94  1  0
 96 97  1  0
 96 95  1  0
M  ISO  4  13 100  22 100  56 101  57 101
M  END
>  <TORSDO>  (76) 
F 19

>  <SCORE>  (76) 
31.110

>  <name>  (76) 
76

>  <ligand_id>  (76) 
76

>  <original_smiles>  (76) 
[H]c1c([H])c(C(N([H])C(=O)N2C([H])([H])C([H])([H])C([H])([H])C([H])(n3nc(-c4c([H])c([H])c(Oc5c([H])c([H])c(F)c([H])c5F)c([H])c4[H])c(C(=O)N([H])[H])c3N([H])[H])C2([H])[H])=[N+]([H])[H])c([H])c(C(N([H])[H])=[N+]([H])C([H])([H])C([H])([H])Oc2c([H])c([H])c3c(c2[H])C([H])([H])N(C(=O)C([H])(N([H])C(=O)C([H])(N([H])C([H])([H])[H])C([H])([H])[H])C(C([H])([H])[H])(C([H])([H])[H])C([H])([H])[H])C([H])(C(=O)N([H])C2([H])c4c([H])c([H])c([H])c([H])c4C([H])([H])C([H])([H])C2([H])[H])C3([H])[H])c1[H]

>  <smiles>  (76) 
[H]c1c([H])c(C(N([H])C(=O)N2C([H])([H])C([H])([H])C([H])([H])C([H])(n3nc(-c4c([H])c([H])c(Oc5c([H])c([H])c(F)c([H])c5F)c([H])c4[H])c(C(=O)N([H])[H])c3N([H])[H])C2([H])[H])=[N+]([H])[H])c([H])c(C(N([H])[H])=[N+]([H])C([H])([H])C([H])([H])Oc2c([H])c([H])c3c(c2[H])C([H])([H])N(C(=O)C([H])(N([H])C(=O)C([H])(N([H])C([H])([H])[H])C([H])([H])[H])C(C([H])([H])[H])(C([H])([H])[H])C([H])([H])[H])C([H])(C(=O)N([H])C2([H])c4c([H])c([H])c([H])c([H])c4C([H])([H])C([H])([H])C2([H])[H])C3([H])[H])c1[H]

$$$$
77:0:0
     RDKit          3D

 94103  0  0  1  0  0  0  0  0999 V2000
  -28.4340  -22.1160   18.8970 C   0  0  0  0  0  3  0  0  0  0  0  0
  -28.1370  -23.4710   18.7040 C   0  0  0  0  0  3  0  0  0  0  0  0
  -28.5680  -22.4660   21.2650 C   0  0  0  0  0  3  0  0  0  0  0  0
  -28.2280  -23.8380   21.1190 C   0  0  0  0  0  0  0  0  0  0  0  0
  -28.4830  -21.2570   20.2300 C   0  0  0  0  0  3  0  0  0  0  0  0
  -27.7270  -24.5550   19.7690 C   0  0  0  0  0  3  0  0  0  0  0  0
  -29.3200  -24.5100   23.3080 C   0  0  0  0  0  3  0  0  0  0  0  0
  -27.4540  -25.8210   22.4610 C   0  0  0  0  0  3  0  0  0  0  0  0
  -29.4300  -25.3910   24.4020 C   0  0  0  0  0  3  0  0  0  0  0  0
  -27.5960  -26.7250   23.5300 C   0  0  0  0  0  3  0  0  0  0  0  0
  -28.3440  -24.7300   22.3050 C   0  0  0  0  0  0  0  0  0  0  0  0
  -28.5890  -26.5130   24.4970 C   0  0  0  0  0  0  0  0  0  0  0  0
  -28.7360  -27.3890   25.5200 F   0  0  0  0  0  0  0  0  0  0  0  0
  -27.9560  -26.1360   19.5070 O   0  0  0  0  0  0  0  0  0  0  0  0
  -24.6680  -31.8450   23.0280 C   0  0  0  0  0  0  0  0  0  0  0  0
  -26.9340  -27.1890   19.5840 C   0  0  0  0  0  0  0  0  0  0  0  0
  -23.3340  -30.5440   21.4170 C   0  0  0  0  0  3  0  0  0  0  0  0
  -24.6500  -29.0220   19.8060 C   0  0  0  0  0  0  0  0  0  0  0  0
  -25.8760  -30.7750   21.0750 C   0  0  0  0  0  2  0  0  0  0  0  0
  -25.8820  -29.4070   20.3480 C   0  0  0  0  0  0  0  0  0  0  0  0
  -27.0220  -28.5110   20.2160 C   0  0  0  0  0  3  0  0  0  0  0  0
  -25.6740  -26.9340   19.0030 C   0  0  0  0  0  3  0  0  0  0  0  0
  -24.5640  -27.8030   19.1120 C   0  0  0  0  0  3  0  0  0  0  0  0
  -23.4460  -29.9370   19.9930 C   0  0  0  0  0  2  0  0  0  0  0  0
  -24.6520  -31.0760   21.8950 N   0  0  0  0  0  0  0  0  0  0  0  0
  -23.6280  -32.1090   23.6500 O   0  0  0  0  0  0  0  0  0  0  0  0
  -22.7170  -29.4940   22.3790 C   0  0  0  0  0  0  0  0  0  0  0  0
  -21.3860  -29.3150   22.3260 N   0  0  0  0  0  0  0  0  0  0  0  0
  -23.4380  -28.8470   23.1430 O   0  0  0  0  0  0  0  0  0  0  0  0
  -20.8540  -29.8890   21.6860 H   0  0  0  0  0  0  0  0  0  0  0  0
  -18.0610  -27.9980   22.9230 C   0  0  0  0  0  0  0  0  0  0  0  0
  -20.6190  -28.3390   23.1080 C   0  0  0  0  0  3  0  0  0  0  0  0
  -20.7450  -26.9210   22.5030 C   0  0  0  0  0  2  0  0  0  0  0  0
  -19.6190  -26.5830   21.5220 C   0  0  0  0  0  2  0  0  0  0  0  0
  -18.2570  -26.6700   22.2170 C   0  0  0  0  0  2  0  0  0  0  0  0
  -19.1700  -28.7910   23.3290 C   0  0  0  0  0  0  0  0  0  0  0  0
  -18.9270  -30.0320   23.9530 C   0  0  0  0  0  3  0  0  0  0  0  0
  -17.6130  -30.4840   24.1770 C   0  0  0  0  0  3  0  0  0  0  0  0
  -16.5210  -29.6900   23.7860 C   0  0  0  0  0  3  0  0  0  0  0  0
  -16.7470  -28.4490   23.1650 C   0  0  0  0  0  3  0  0  0  0  0  0
  -25.9940  -32.4450   23.5890 C   0  0  0  0  0  3  0  0  0  0  0  0
  -26.6330  -31.5680   24.7350 C   0  0  1  0  0  0  0  0  0  0  0  0
  -25.6480  -31.2260   25.8790 C   0  0  0  0  0  1  0  0  0  0  0  0
  -27.1780  -30.2370   24.1690 C   0  0  0  0  0  1  0  0  0  0  0  0
  -27.8430  -32.3080   25.3490 C   0  0  0  0  0  1  0  0  0  0  0  0
  -25.7030  -33.7980   24.0930 N   0  0  0  0  0  0  0  0  0  0  0  0
  -26.0030  -34.9340   23.4500 C   0  0  0  0  0  0  0  0  0  0  0  0
  -26.6250  -34.9520   22.3830 O   0  0  0  0  0  0  0  0  0  0  0  0
  -25.1590  -33.8580   24.9420 H   0  0  0  0  0  0  0  0  0  0  0  0
  -24.2820  -36.7640   23.3730 C   0  0  0  0  0  1  0  0  0  0  0  0
  -25.5460  -36.2600   24.0890 C   0  0  0  0  0  3  0  0  0  0  0  0
  -27.7190  -37.0200   24.9390 C   0  0  0  0  0  1  0  0  0  0  0  0
  -26.5820  -37.3160   24.0710 N   0  0  0  0  0  0  0  0  0  0  0  0
  -26.1900  -38.2110   24.3540 H   0  0  0  0  0  0  0  0  0  0  0  0
  -29.3600  -19.7090   20.2260 C   0  0  0  0  0  2  0  0  0  0  0  0
  -29.4410  -18.2850   21.2520 C   0  0  0  0  0  2  0  0  0  0  0  0
  -30.4160  -15.5040   21.1370 C   0  0  0  0  0  0  0  0  0  0  0  0
  -30.6310  -13.0230   20.4530 C   0  0  0  0  0  2  0  0  0  0  0  0
  -29.8970  -12.6770   19.1350 C   0  0  0  0  0  2  0  0  0  0  0  0
  -28.4090  -12.3850   19.3960 C   0  0  0  0  0  2  0  0  0  0  0  0
  -27.7640  -13.4230   20.3470 C   0  0  0  0  0  3  0  0  0  0  0  0
  -28.6320  -13.6910   21.5920 C   0  0  0  0  0  2  0  0  0  0  0  0
  -29.9260  -14.1820   21.0940 N   0  0  0  0  0  0  0  0  0  0  0  0
  -31.6500  -15.5940   21.1620 O   0  0  0  0  0  0  0  0  0  0  0  0
  -29.5500  -16.6690   20.9470 N   0  0  0  0  0  0  0  0  0  0  0  0
  -28.6300  -16.3230   20.7210 H   0  0  0  0  0  0  0  0  0  0  0  0
  -25.3000  -13.9420   20.7700 C   0  0  0  0  0  0  0  0  0  0  0  0
  -24.2160  -13.1450   21.0170 C   0  0  0  0  0  0  0  0  0  0  0  0
  -24.7170  -11.8090   21.0790 C   0  0  0  0  0  0  0  0  0  0  0  0
  -26.3870  -13.0910   20.6860 N   0  0  0  0  0  0  0  0  0  0  0  0
  -26.0390  -11.8030   20.9400 N   0  0  0  0  0  0  0  0  0  0  0  0
  -24.0030  -10.5290   21.1980 C   0  0  0  0  0  0  0  0  0  0  0  0
  -24.3650   -9.5660   22.1670 C   0  0  0  0  0  3  0  0  0  0  0  0
  -23.6490   -8.3560   22.2740 C   0  0  0  0  0  3  0  0  0  0  0  0
  -22.5550   -8.1000   21.4130 C   0  0  0  0  0  0  0  0  0  0  0  0
  -22.2150   -9.0500   20.4340 C   0  0  0  0  0  3  0  0  0  0  0  0
  -22.9330  -10.2520   20.3250 C   0  0  0  0  0  3  0  0  0  0  0  0
  -21.8160   -6.9410   21.4300 O   0  0  0  0  0  0  0  0  0  0  0  0
  -21.7100   -6.1720   22.5620 C   0  0  0  0  0  0  0  0  0  0  0  0
  -21.2110   -6.6950   23.7750 C   0  0  0  0  0  3  0  0  0  0  0  0
  -21.0540   -5.8530   24.8930 C   0  0  0  0  0  3  0  0  0  0  0  0
  -21.3840   -4.4870   24.7990 C   0  0  0  0  0  0  0  0  0  0  0  0
  -21.8740   -3.9630   23.5890 C   0  0  0  0  0  3  0  0  0  0  0  0
  -22.0320   -4.8030   22.4730 C   0  0  0  0  0  0  0  0  0  0  0  0
  -22.4850   -4.2890   21.3040 F   0  0  0  0  0  0  0  0  0  0  0  0
  -21.2250   -3.6750   25.8690 F   0  0  0  0  0  0  0  0  0  0  0  0
  -22.7840  -13.5880   21.0870 C   0  0  0  0  0  0  0  0  0  0  0  0
  -21.9680  -12.8940   21.8720 N   0  0  0  0  0  0  0  0  0  0  0  0
  -22.3950  -14.5830   20.4790 O   0  0  0  0  0  0  0  0  0  0  0  0
  -22.2970  -12.0890   22.3820 H   0  0  0  0  0  0  0  0  0  0  0  0
  -21.0010  -13.1700   21.9650 H   0  0  0  0  0  0  0  0  0  0  0  0
  -25.4490  -15.3140   20.5820 N   0  0  0  0  0  0  0  0  0  0  0  0
  -24.6560  -15.9470   20.5810 H   0  0  0  0  0  0  0  0  0  0  0  0
  -26.3180  -15.7670   20.3350 H   0  0  0  0  0  0  0  0  0  0  0  0
  1  5  1  0
  2  1  2  0
  2  6  1  0
  4  3  2  0
  4 11  1  0
  5 55  1  0
  5  3  1  0
  6 14  1  0
  6  4  1  0
  7  9  1  0
  8 10  2  0
  9 12  2  0
 10 12  1  0
 11  8  1  0
 11  7  2  0
 12 13  1  0
 14 16  1  0
 15 26  2  0
 16 21  1  0
 17 25  1  0
 17 27  1  0
 18 24  1  0
 18 20  1  0
 19 25  1  0
 20 19  1  0
 21 20  2  0
 22 23  1  0
 22 16  2  0
 23 18  2  0
 24 17  1  0
 25 15  1  0
 27 29  2  0
 28 27  1  0
 30 28  1  0
 31 40  2  0
 31 36  1  0
 32 28  1  0
 32 36  1  0
 33 32  1  0
 34 35  1  0
 34 33  1  0
 35 31  1  0
 36 37  2  0
 37 38  1  0
 39 38  2  0
 40 39  1  0
 41 15  1  0
 41 46  1  0
 41 42  1  0
 42 45  1  1
 42 43  1  0
 44 42  1  0
 46 49  1  0
 47 51  1  0
 47 46  1  0
 48 47  2  0
 51 50  1  0
 53 51  1  0
 53 54  1  0
 53 52  1  0
 55 56  1  0
 57 64  2  0
 58 63  1  0
 59 60  1  0
 59 58  1  0
 61 60  1  0
 61 70  1  0
 61 62  1  0
 63 57  1  0
 63 62  1  0
 65 57  1  0
 65 56  1  0
 66 65  1  0
 67 68  2  0
 68 69  1  0
 68 87  1  0
 69 72  1  0
 70 67  1  0
 70 71  1  0
 71 69  2  0
 72 73  1  0
 73 74  2  0
 75 78  1  0
 75 74  1  0
 76 75  2  0
 77 76  1  0
 77 72  2  0
 78 79  1  0
 79 80  1  0
 80 81  2  0
 82 81  1  0
 82 86  1  0
 83 82  2  0
 84 79  2  0
 84 83  1  0
 85 84  1  0
 87 88  1  0
 88 91  1  0
 88 90  1  0
 89 87  2  0
 92 67  1  0
 93 92  1  0
 94 92  1  0
M  ISO  4   6 101  14 101  57 100  65 100
M  END
>  <TORSDO>  (77) 
F 19

>  <SCORE>  (77) 
-13.756

>  <name>  (77) 
77

>  <ligand_id>  (77) 
77

>  <original_smiles>  (77) 
[H]C1=C([H])C([H])(C([H])([H])C([H])([H])N([H])C(=O)N2C([H])([H])C([H])([H])C([H])([H])C([H])(n3nc(-c4c([H])c([H])c(Oc5c([H])c([H])c(F)c([H])c5F)c([H])c4[H])c(C(=O)N([H])[H])c3N([H])[H])C2([H])[H])C([H])=C(c2c([H])c([H])c(F)c([H])c2[H])C1([H])Oc1c([H])c([H])c2c(c1[H])C([H])([H])N(C(=O)C([H])(N([H])C(=O)C([H])(N([H])C([H])([H])[H])C([H])([H])[H])C(C([H])([H])[H])(C([H])([H])[H])C([H])([H])[H])C([H])(C(=O)N([H])C1([H])c3c([H])c([H])c([H])c([H])c3C([H])([H])C([H])([H])C1([H])[H])C2([H])[H]

>  <smiles>  (77) 
[H]C1=C([H])C([H])(C([H])([H])C([H])([H])N([H])C(=O)N2C([H])([H])C([H])([H])C([H])([H])C([H])(n3nc(-c4c([H])c([H])c(Oc5c([H])c([H])c(F)c([H])c5F)c([H])c4[H])c(C(=O)N([H])[H])c3N([H])[H])C2([H])[H])C([H])=C(c2c([H])c([H])c(F)c([H])c2[H])C1([H])Oc1c([H])c([H])c2c(c1[H])C([H])([H])N(C(=O)C([H])(N([H])C(=O)C([H])(N([H])C([H])([H])[H])C([H])([H])[H])C(C([H])([H])[H])(C([H])([H])[H])C([H])([H])[H])C([H])(C(=O)N([H])C1([H])c3c([H])c([H])c([H])c([H])c3C([H])([H])C([H])([H])C1([H])[H])C2([H])[H]

$$$$
78:0:0
     RDKit          3D

 92100  0  0  1  0  0  0  0  0999 V2000
  -30.2510  -22.1360   20.4520 C   0  0  0  0  0  2  0  0  0  0  0  0
  -29.1100  -23.0890   20.4660 N   0  0  0  0  0  4  0  0  0  0  0  0
  -28.3880  -22.6940   21.0500 H   0  0  0  0  0  0  0  0  0  0  0  0
  -28.7380  -23.1410   19.5290 H   0  0  0  0  0  0  0  0  0  0  0  0
  -29.4830  -24.4650   20.9180 C   0  0  0  0  0  2  0  0  0  0  0  0
  -28.2940  -25.4620   21.0090 C   0  0  0  0  0  2  0  0  0  0  0  0
  -28.4420  -26.6330   20.1670 O   0  0  0  0  0  0  0  0  0  0  0  0
  -24.5680  -31.7760   23.1990 C   0  0  0  0  0  0  0  0  0  0  0  0
  -27.3040  -27.4080   20.1100 C   0  0  0  0  0  0  0  0  0  0  0  0
  -23.4000  -30.3980   21.5080 C   0  0  0  0  0  3  0  0  0  0  0  0
  -24.9000  -28.9000   20.0800 C   0  0  0  0  0  0  0  0  0  0  0  0
  -25.9240  -30.7860   21.3540 C   0  0  0  0  0  2  0  0  0  0  0  0
  -26.0380  -29.4230   20.7020 C   0  0  0  0  0  0  0  0  0  0  0  0
  -27.2460  -28.6860   20.7160 C   0  0  0  0  0  3  0  0  0  0  0  0
  -26.1550  -26.9080   19.4640 C   0  0  0  0  0  3  0  0  0  0  0  0
  -24.9530  -27.6410   19.4540 C   0  0  0  0  0  3  0  0  0  0  0  0
  -23.6410  -29.7410   20.1210 C   0  0  0  0  0  2  0  0  0  0  0  0
  -24.6470  -31.0000   22.0810 N   0  0  0  0  0  0  0  0  0  0  0  0
  -23.4770  -32.0260   23.7300 O   0  0  0  0  0  0  0  0  0  0  0  0
  -22.7470  -29.3530   22.4380 C   0  0  0  0  0  0  0  0  0  0  0  0
  -21.4230  -29.1770   22.3040 N   0  0  0  0  0  0  0  0  0  0  0  0
  -23.4290  -28.7060   23.2410 O   0  0  0  0  0  0  0  0  0  0  0  0
  -20.9350  -29.7450   21.6230 H   0  0  0  0  0  0  0  0  0  0  0  0
  -18.0420  -28.0060   22.7880 C   0  0  0  0  0  0  0  0  0  0  0  0
  -20.6040  -28.2210   23.0490 C   0  0  0  0  0  3  0  0  0  0  0  0
  -20.6830  -26.8110   22.4180 C   0  0  0  0  0  2  0  0  0  0  0  0
  -19.5690  -26.5420   21.4010 C   0  0  0  0  0  2  0  0  0  0  0  0
  -18.1950  -26.6810   22.0600 C   0  0  0  0  0  2  0  0  0  0  0  0
  -19.1730  -28.7350   23.2400 C   0  0  0  0  0  0  0  0  0  0  0  0
  -18.9770  -29.9780   23.8800 C   0  0  0  0  0  3  0  0  0  0  0  0
  -17.6800  -30.4890   24.0780 C   0  0  0  0  0  3  0  0  0  0  0  0
  -16.5630  -29.7540   23.6420 C   0  0  0  0  0  3  0  0  0  0  0  0
  -16.7450  -28.5150   23.0020 C   0  0  0  0  0  3  0  0  0  0  0  0
  -25.8400  -32.4040   23.8480 C   0  0  0  0  0  3  0  0  0  0  0  0
  -26.3460  -31.6150   25.1200 C   0  0  1  0  0  0  0  0  0  0  0  0
  -25.2390  -31.3550   26.1690 C   0  0  0  0  0  1  0  0  0  0  0  0
  -26.9430  -30.2460   24.7170 C   0  0  0  0  0  1  0  0  0  0  0  0
  -27.4760  -32.4160   25.8090 C   0  0  0  0  0  1  0  0  0  0  0  0
  -25.5150  -33.7940   24.1950 N   0  0  0  0  0  0  0  0  0  0  0  0
  -25.8610  -34.8600   23.4630 C   0  0  0  0  0  0  0  0  0  0  0  0
  -26.5590  -34.7770   22.4480 O   0  0  0  0  0  0  0  0  0  0  0  0
  -24.8880  -33.9270   24.9740 H   0  0  0  0  0  0  0  0  0  0  0  0
  -24.1400  -36.6610   23.0960 C   0  0  0  0  0  1  0  0  0  0  0  0
  -25.3570  -36.2380   23.9340 C   0  0  0  0  0  3  0  0  0  0  0  0
  -27.4640  -37.1170   24.8400 C   0  0  0  0  0  1  0  0  0  0  0  0
  -26.3880  -37.2960   23.8710 N   0  0  0  0  0  0  0  0  0  0  0  0
  -25.9740  -38.2120   24.0260 H   0  0  0  0  0  0  0  0  0  0  0  0
  -29.9150  -20.7810   19.7890 C   0  0  0  0  0  2  0  0  0  0  0  0
  -30.9010  -14.5340   20.0610 C   0  0  0  0  0  0  0  0  0  0  0  0
  -30.3940  -12.4280   18.8420 C   0  0  0  0  0  2  0  0  0  0  0  0
  -29.3740  -12.6510   17.7100 C   0  0  0  0  0  2  0  0  0  0  0  0
  -27.9400  -12.4640   18.2350 C   0  0  0  0  0  2  0  0  0  0  0  0
  -27.6990  -13.2550   19.5440 C   0  0  0  0  0  3  0  0  0  0  0  0
  -28.8490  -13.0060   20.5660 C   0  0  0  0  0  2  0  0  0  0  0  0
  -30.1030  -13.4150   19.9170 N   0  0  0  0  0  0  0  0  0  0  0  0
  -31.9920  -14.5060   19.4890 O   0  0  0  0  0  0  0  0  0  0  0  0
  -29.9170  -18.6580   20.9180 C   0  0  0  0  0  0  0  0  0  0  0  0
  -29.3530  -16.2200   21.1230 C   0  0  0  0  0  0  0  0  0  0  0  0
  -29.2900  -17.6020   21.8170 C   0  0  0  0  0  2  0  0  0  0  0  0
  -31.2170  -18.1720   20.2840 C   0  0  0  0  0  2  0  0  0  0  0  0
  -31.6430  -16.7720   20.8050 C   0  0  0  0  0  2  0  0  0  0  0  0
  -29.3660  -19.8090   20.7400 N   0  0  0  0  0  0  0  0  0  0  0  0
  -30.5610  -15.7350   20.6860 N   0  0  0  0  0  0  0  0  0  0  0  0
  -28.2580  -15.6960   20.9740 O   0  0  0  0  0  0  0  0  0  0  0  0
  -25.3670  -13.8690   20.4530 C   0  0  0  0  0  0  0  0  0  0  0  0
  -24.3220  -13.0950   20.8790 C   0  0  0  0  0  0  0  0  0  0  0  0
  -24.7720  -11.7440   20.7750 C   0  0  0  0  0  0  0  0  0  0  0  0
  -26.3860  -12.9850   20.1200 N   0  0  0  0  0  0  0  0  0  0  0  0
  -26.0330  -11.7010   20.3650 N   0  0  0  0  0  0  0  0  0  0  0  0
  -24.0480  -10.4840   20.9700 C   0  0  0  0  0  0  0  0  0  0  0  0
  -24.4970   -9.5100   21.8870 C   0  0  0  0  0  3  0  0  0  0  0  0
  -23.7730   -8.3130   22.0720 C   0  0  0  0  0  3  0  0  0  0  0  0
  -22.5850   -8.0850   21.3380 C   0  0  0  0  0  0  0  0  0  0  0  0
  -22.1590   -9.0470   20.4030 C   0  0  0  0  0  3  0  0  0  0  0  0
  -22.8840  -10.2340   20.2180 C   0  0  0  0  0  3  0  0  0  0  0  0
  -21.8290   -6.9420   21.4320 O   0  0  0  0  0  0  0  0  0  0  0  0
  -21.7490   -6.2270   22.6010 C   0  0  0  0  0  0  0  0  0  0  0  0
  -21.2830   -6.8070   23.8000 C   0  0  0  0  0  3  0  0  0  0  0  0
  -21.1510   -6.0160   24.9590 C   0  0  0  0  0  3  0  0  0  0  0  0
  -21.4750   -4.6480   24.9200 C   0  0  0  0  0  0  0  0  0  0  0  0
  -21.9380   -4.0670   23.7250 C   0  0  0  0  0  3  0  0  0  0  0  0
  -22.0700   -4.8550   22.5680 C   0  0  0  0  0  0  0  0  0  0  0  0
  -22.4920   -4.2860   21.4140 F   0  0  0  0  0  0  0  0  0  0  0  0
  -21.3390   -3.8860   26.0310 F   0  0  0  0  0  0  0  0  0  0  0  0
  -22.9560  -13.5780   21.2710 C   0  0  0  0  0  0  0  0  0  0  0  0
  -22.2930  -12.8730   22.1820 N   0  0  0  0  0  0  0  0  0  0  0  0
  -22.4850  -14.6140   20.8050 O   0  0  0  0  0  0  0  0  0  0  0  0
  -22.6950  -12.0410   22.5870 H   0  0  0  0  0  0  0  0  0  0  0  0
  -21.3720  -13.1720   22.4740 H   0  0  0  0  0  0  0  0  0  0  0  0
  -25.5280  -15.2410   20.3100 N   0  0  0  0  0  0  0  0  0  0  0  0
  -24.8340  -15.8950   20.6490 H   0  0  0  0  0  0  0  0  0  0  0  0
  -26.4790  -15.6120   20.3200 H   0  0  0  0  0  0  0  0  0  0  0  0
  1  2  1  0
  2  5  1  0
  2  3  1  0
  4  2  1  0
  5  6  1  0
  7  6  1  0
  8 19  2  0
  9  7  1  0
  9 14  1  0
 10 18  1  0
 10 20  1  0
 11 17  1  0
 11 13  1  0
 12 18  1  0
 13 14  2  0
 13 12  1  0
 15  9  2  0
 16 15  1  0
 16 11  2  0
 17 10  1  0
 18  8  1  0
 20 22  2  0
 21 20  1  0
 23 21  1  0
 24 33  2  0
 24 29  1  0
 25 21  1  0
 25 29  1  0
 26 25  1  0
 27 28  1  0
 27 26  1  0
 28 24  1  0
 29 30  2  0
 30 31  1  0
 32 31  2  0
 33 32  1  0
 34  8  1  0
 34 39  1  0
 34 35  1  0
 35 38  1  1
 35 36  1  0
 37 35  1  0
 39 42  1  0
 40 44  1  0
 40 39  1  0
 41 40  2  0
 44 43  1  0
 46 44  1  0
 46 47  1  0
 46 45  1  0
 48  1  1  0
 48 62  1  0
 49 63  1  0
 50 55  1  0
 51 52  1  0
 51 50  1  0
 53 52  1  0
 53 68  1  0
 53 54  1  0
 55 49  1  0
 55 54  1  0
 56 49  2  0
 57 59  1  0
 58 59  1  0
 60 61  1  0
 60 57  1  0
 62 57  2  0
 63 61  1  0
 63 58  1  0
 64 58  2  0
 65 66  2  0
 66 85  1  0
 67 66  1  0
 67 70  1  0
 68 69  1  0
 68 65  1  0
 69 67  2  0
 70 71  1  0
 71 72  2  0
 73 76  1  0
 73 72  1  0
 74 73  2  0
 75 74  1  0
 75 70  2  0
 76 77  1  0
 77 78  1  0
 78 79  2  0
 80 79  1  0
 80 84  1  0
 81 80  2  0
 82 77  2  0
 82 81  1  0
 83 82  1  0
 85 86  1  0
 86 89  1  0
 86 88  1  0
 87 85  2  0
 90 92  1  0
 90 65  1  0
 90 91  1  0
M  ISO  4   6 101   7 101  49 100  63 100
M  END
>  <TORSDO>  (78) 
F 20

>  <SCORE>  (78) 
-12.908

>  <name>  (78) 
78

>  <ligand_id>  (78) 
78

>  <original_smiles>  (78) 
[H]c1c([H])c([H])c2c(c1[H])C([H])([H])C([H])([H])C([H])([H])C2([H])N([H])C(=O)C1([H])N(C(=O)C([H])(N([H])C(=O)C([H])(N([H])C([H])([H])[H])C([H])([H])[H])C(C([H])([H])[H])(C([H])([H])[H])C([H])([H])[H])C([H])([H])c2c([H])c(OC([H])([H])C([H])([H])[N+]([H])([H])C([H])([H])C([H])([H])N=C3C([H])([H])C(=O)N(C(=O)N4C([H])([H])C([H])([H])C([H])([H])C([H])(n5nc(-c6c([H])c([H])c(Oc7c([H])c([H])c(F)c([H])c7F)c([H])c6[H])c(C(=O)N([H])[H])c5N([H])[H])C4([H])[H])C([H])([H])C3([H])[H])c([H])c([H])c2C1([H])[H]

>  <smiles>  (78) 
[H]c1c([H])c([H])c2c(c1[H])C([H])([H])C([H])([H])C([H])([H])C2([H])N([H])C(=O)C1([H])N(C(=O)C([H])(N([H])C(=O)C([H])(N([H])C([H])([H])[H])C([H])([H])[H])C(C([H])([H])[H])(C([H])([H])[H])C([H])([H])[H])C([H])([H])c2c([H])c(OC([H])([H])C([H])([H])[N+]([H])([H])C([H])([H])C([H])([H])N=C3C([H])([H])C(=O)N(C(=O)N4C([H])([H])C([H])([H])C([H])([H])C([H])(n5nc(-c6c([H])c([H])c(Oc7c([H])c([H])c(F)c([H])c7F)c([H])c6[H])c(C(=O)N([H])[H])c5N([H])[H])C4([H])[H])C([H])([H])C3([H])[H])c([H])c([H])c2C1([H])[H]

$$$$
79:0:0
     RDKit          3D

 99108  0  0  1  0  0  0  0  0999 V2000
  -31.3560  -17.6870   17.2940 C   0  0  0  0  0  3  0  0  0  0  0  0
  -30.9090  -16.7860   18.2710 C   0  0  0  0  0  3  0  0  0  0  0  0
  -30.3960  -19.5030   18.5540 C   0  0  0  0  0  0  0  0  0  0  0  0
  -29.9260  -18.6160   19.5600 C   0  0  0  0  0  0  0  0  0  0  0  0
  -31.1220  -19.0620   17.4220 C   0  0  0  0  0  0  0  0  0  0  0  0
  -30.2270  -17.1640   19.4640 C   0  0  0  0  0  0  0  0  0  0  0  0
  -30.0560  -20.9270   18.8320 C   0  0  0  0  0  0  0  0  0  0  0  0
  -29.1620  -19.5470   20.5730 C   0  0  0  0  0  2  0  0  0  0  0  0
  -28.9340  -20.9930   19.8640 C   0  0  0  0  0  3  0  0  0  0  0  0
  -30.6190  -21.8960   18.3150 O   0  0  0  0  0  0  0  0  0  0  0  0
  -30.6080  -14.7910   20.4050 C   0  0  0  0  0  0  0  0  0  0  0  0
  -30.3840  -12.4950   19.4730 C   0  0  0  0  0  2  0  0  0  0  0  0
  -29.4830  -12.5470   18.2220 C   0  0  0  0  0  2  0  0  0  0  0  0
  -28.0040  -12.3870   18.6220 C   0  0  0  0  0  2  0  0  0  0  0  0
  -27.6030  -13.3020   19.8090 C   0  0  0  0  0  3  0  0  0  0  0  0
  -28.6350  -13.2640   20.9560 C   0  0  0  0  0  2  0  0  0  0  0  0
  -29.9410  -13.5870   20.3730 N   0  0  0  0  0  0  0  0  0  0  0  0
  -31.8310  -14.7910   20.2360 O   0  0  0  0  0  0  0  0  0  0  0  0
  -29.9020  -16.0020   20.3460 N   0  0  0  0  0  0  0  0  0  0  0  0
  -28.9620  -15.9790   20.7120 H   0  0  0  0  0  0  0  0  0  0  0  0
  -25.2050  -13.8990   20.4860 C   0  0  0  0  0  0  0  0  0  0  0  0
  -24.1310  -13.1290   20.8420 C   0  0  0  0  0  0  0  0  0  0  0  0
  -24.5950  -11.7770   20.8390 C   0  0  0  0  0  0  0  0  0  0  0  0
  -26.2520  -13.0170   20.2810 N   0  0  0  0  0  0  0  0  0  0  0  0
  -25.8920  -11.7360   20.5610 N   0  0  0  0  0  0  0  0  0  0  0  0
  -23.8620  -10.5180   21.0280 C   0  0  0  0  0  0  0  0  0  0  0  0
  -24.2760   -9.5570   21.9760 C   0  0  0  0  0  3  0  0  0  0  0  0
  -23.5440   -8.3630   22.1530 C   0  0  0  0  0  3  0  0  0  0  0  0
  -22.3830   -8.1210   21.3800 C   0  0  0  0  0  0  0  0  0  0  0  0
  -21.9890   -9.0710   20.4220 C   0  0  0  0  0  3  0  0  0  0  0  0
  -22.7220  -10.2560   20.2440 C   0  0  0  0  0  3  0  0  0  0  0  0
  -21.6230   -6.9800   21.4660 O   0  0  0  0  0  0  0  0  0  0  0  0
  -21.5580   -6.2440   22.6220 C   0  0  0  0  0  0  0  0  0  0  0  0
  -21.1280   -6.8100   23.8420 C   0  0  0  0  0  3  0  0  0  0  0  0
  -21.0080   -6.0010   24.9890 C   0  0  0  0  0  3  0  0  0  0  0  0
  -21.3070   -4.6280   24.9180 C   0  0  0  0  0  0  0  0  0  0  0  0
  -21.7310   -4.0610   23.7030 C   0  0  0  0  0  3  0  0  0  0  0  0
  -21.8520   -4.8660   22.5570 C   0  0  0  0  0  0  0  0  0  0  0  0
  -22.2400   -4.3120   21.3840 F   0  0  0  0  0  0  0  0  0  0  0  0
  -21.1860   -3.8480   26.0190 F   0  0  0  0  0  0  0  0  0  0  0  0
  -22.7280  -13.6100   21.0730 C   0  0  0  0  0  0  0  0  0  0  0  0
  -21.9790  -12.9250   21.9290 N   0  0  0  0  0  0  0  0  0  0  0  0
  -22.3050  -14.6280   20.5280 O   0  0  0  0  0  0  0  0  0  0  0  0
  -22.3340  -12.1020   22.3920 H   0  0  0  0  0  0  0  0  0  0  0  0
  -21.0360  -13.2300   22.1270 H   0  0  0  0  0  0  0  0  0  0  0  0
  -25.3730  -15.2660   20.2930 N   0  0  0  0  0  0  0  0  0  0  0  0
  -24.6000  -15.9190   20.3740 H   0  0  0  0  0  0  0  0  0  0  0  0
  -26.2210  -15.6980   19.9510 H   0  0  0  0  0  0  0  0  0  0  0  0
  -28.9200  -22.3440   20.6300 N   0  0  0  0  0  4  0  0  0  0  0  0
  -29.8030  -22.4250   21.1100 H   0  0  0  0  0  0  0  0  0  0  0  0
  -28.2150  -22.2430   21.3420 H   0  0  0  0  0  0  0  0  0  0  0  0
  -28.6530  -23.6960   19.8990 C   0  0  0  0  0  3  0  0  0  0  0  0
  -28.2400  -25.0200   20.7500 C   0  0  0  0  0  3  0  0  0  0  0  0
  -28.3820  -26.4260   20.2190 O   0  0  0  0  0  0  0  0  0  0  0  0
  -24.6480  -31.8880   23.2460 C   0  0  0  0  0  0  0  0  0  0  0  0
  -27.2730  -27.2980   20.2140 C   0  0  0  0  0  0  0  0  0  0  0  0
  -23.4510  -30.4790   21.6100 C   0  0  0  0  0  3  0  0  0  0  0  0
  -24.9090  -28.9250   20.1880 C   0  0  0  0  0  0  0  0  0  0  0  0
  -25.9910  -30.8040   21.4230 C   0  0  0  0  0  2  0  0  0  0  0  0
  -26.0790  -29.4180   20.7820 C   0  0  0  0  0  0  0  0  0  0  0  0
  -27.2670  -28.6200   20.7750 C   0  0  0  0  0  3  0  0  0  0  0  0
  -26.0820  -26.8650   19.5980 C   0  0  0  0  0  3  0  0  0  0  0  0
  -24.9150  -27.6570   19.5840 C   0  0  0  0  0  3  0  0  0  0  0  0
  -23.6690  -29.7980   20.2320 C   0  0  0  0  0  2  0  0  0  0  0  0
  -24.7160  -31.0760   22.1490 N   0  0  0  0  0  0  0  0  0  0  0  0
  -23.5630  -32.1610   23.7800 O   0  0  0  0  0  0  0  0  0  0  0  0
  -22.7940  -29.4630   22.5750 C   0  0  0  0  0  0  0  0  0  0  0  0
  -21.4680  -29.2780   22.4510 N   0  0  0  0  0  0  0  0  0  0  0  0
  -23.4760  -28.8430   23.3940 O   0  0  0  0  0  0  0  0  0  0  0  0
  -20.9750  -29.8300   21.7630 H   0  0  0  0  0  0  0  0  0  0  0  0
  -18.1000  -28.0540   22.9520 C   0  0  0  0  0  0  0  0  0  0  0  0
  -20.6550  -28.3380   23.2250 C   0  0  0  0  0  3  0  0  0  0  0  0
  -20.7720  -26.9040   22.6580 C   0  0  0  0  0  2  0  0  0  0  0  0
  -19.6750  -26.5660   21.6430 C   0  0  0  0  0  2  0  0  0  0  0  0
  -18.2910  -26.7020   22.2830 C   0  0  0  0  0  2  0  0  0  0  0  0
  -19.2110  -28.8280   23.3800 C   0  0  0  0  0  0  0  0  0  0  0  0
  -18.9800  -30.0910   23.9660 C   0  0  0  0  0  3  0  0  0  0  0  0
  -17.6690  -30.5810   24.1280 C   0  0  0  0  0  3  0  0  0  0  0  0
  -16.5720  -29.8030   23.7160 C   0  0  0  0  0  3  0  0  0  0  0  0
  -16.7890  -28.5410   23.1340 C   0  0  0  0  0  3  0  0  0  0  0  0
  -25.9270  -32.5320   23.8660 C   0  0  0  0  0  3  0  0  0  0  0  0
  -25.6080  -33.9300   24.1920 N   0  0  0  0  0  0  0  0  0  0  0  0
  -25.9350  -34.9840   23.4320 C   0  0  0  0  0  0  0  0  0  0  0  0
  -26.6040  -34.8830   22.4010 O   0  0  0  0  0  0  0  0  0  0  0  0
  -25.0130  -34.0830   24.9930 H   0  0  0  0  0  0  0  0  0  0  0  0
  -24.1980  -36.7690   23.0770 C   0  0  0  0  0  1  0  0  0  0  0  0
  -25.4420  -36.3710   23.8880 C   0  0  0  0  0  3  0  0  0  0  0  0
  -27.5730  -37.2680   24.7150 C   0  0  0  0  0  1  0  0  0  0  0  0
  -26.4690  -37.4290   23.7730 N   0  0  0  0  0  0  0  0  0  0  0  0
  -26.0590  -38.3470   23.9190 H   0  0  0  0  0  0  0  0  0  0  0  0
  -26.4460  -31.7700   25.1460 C   0  0  1  0  0  0  0  0  0  0  0  0
  -25.3540  -31.5340   26.2160 C   0  0  0  0  0  1  0  0  0  0  0  0
  -27.0330  -30.3920   24.7620 C   0  0  0  0  0  1  0  0  0  0  0  0
  -27.5940  -32.5710   25.8030 C   0  0  0  0  0  1  0  0  0  0  0  0
  -31.6170  -19.9920   16.3110 C   0  0  0  0  0  2  0  0  0  0  0  0
  -32.8580  -20.6790   16.6890 N   0  0  0  0  0  4  0  0  0  0  0  0
  -32.6820  -21.3070   17.4530 H   0  0  0  0  0  0  0  0  0  0  0  0
  -33.1990  -21.2130   15.9110 H   0  0  0  0  0  0  0  0  0  0  0  0
  -33.5610  -20.0140   16.9560 H   0  0  0  0  0  0  0  0  0  0  0  0
  1  5  2  0
  1  2  1  0
  2  6  2  0
  3  7  1  0
  3  4  2  0
  4  8  1  0
  5  3  1  0
  6  4  1  0
  6 19  1  0
  7  9  1  0
  9  8  1  0
  9 49  1  0
 10  7  2  0
 12 17  1  0
 13 14  1  0
 13 12  1  0
 15 14  1  0
 15 24  1  0
 15 16  1  0
 17 11  1  0
 17 16  1  0
 18 11  2  0
 19 11  1  0
 19 20  1  0
 21 22  2  0
 22 41  1  0
 23 22  1  0
 23 26  1  0
 24 21  1  0
 24 25  1  0
 25 23  2  0
 26 27  1  0
 27 28  2  0
 29 32  1  0
 29 28  1  0
 30 29  2  0
 31 30  1  0
 31 26  2  0
 32 33  1  0
 33 34  1  0
 34 35  2  0
 36 35  1  0
 36 40  1  0
 37 36  2  0
 38 33  2  0
 38 37  1  0
 39 38  1  0
 41 42  1  0
 42 45  1  0
 42 44  1  0
 43 41  2  0
 46 47  1  0
 46 21  1  0
 48 46  1  0
 49 50  1  0
 49 51  1  0
 52 49  1  0
 52 53  2  0
 54 53  1  0
 55 66  2  0
 56 54  1  0
 56 61  1  0
 57 65  1  0
 57 67  1  0
 58 64  1  0
 58 60  1  0
 59 65  1  0
 60 59  1  0
 61 60  2  0
 62 56  2  0
 63 62  1  0
 63 58  2  0
 64 57  1  0
 65 55  1  0
 67 69  2  0
 68 67  1  0
 70 68  1  0
 71 80  2  0
 71 76  1  0
 72 68  1  0
 72 76  1  0
 73 72  1  0
 74 75  1  0
 74 73  1  0
 75 71  1  0
 76 77  2  0
 77 78  1  0
 79 78  2  0
 80 79  1  0
 81 55  1  0
 81 82  1  0
 81 91  1  0
 82 85  1  0
 83 87  1  0
 83 82  1  0
 84 83  2  0
 87 86  1  0
 89 87  1  0
 89 90  1  0
 89 88  1  0
 91 94  1  1
 91 92  1  0
 93 91  1  0
 95 96  1  0
 95  5  1  0
 96 99  1  0
 96 97  1  0
 98 96  1  0
M  ISO  4  11 100  19 100  53 101  54 101
M  END
>  <TORSDO>  (79) 
F 21

>  <SCORE>  (79) 
-13.544

>  <name>  (79) 
79

>  <ligand_id>  (79) 
79

>  <original_smiles>  (79) 
[H]c1c([H])c([H])c2c(c1[H])C([H])([H])C([H])([H])C([H])([H])C2([H])N([H])C(=O)C1([H])N(C(=O)C([H])(N([H])C(=O)C([H])(N([H])C([H])([H])[H])C([H])([H])[H])C(C([H])([H])[H])(C([H])([H])[H])C([H])([H])[H])C([H])([H])c2c([H])c(OC([H])([H])C([H])([H])[N+]([H])([H])C3([H])C(=O)c4c(c(N([H])C(=O)N5C([H])([H])C([H])([H])C([H])([H])C([H])(n6nc(-c7c([H])c([H])c(Oc8c([H])c([H])c(F)c([H])c8F)c([H])c7[H])c(C(=O)N([H])[H])c6N([H])[H])C5([H])[H])c([H])c([H])c4C([H])([H])[N+]([H])([H])[H])C3([H])[H])c([H])c([H])c2C1([H])[H]

>  <smiles>  (79) 
[H]c1c([H])c([H])c2c(c1[H])C([H])([H])C([H])([H])C([H])([H])C2([H])N([H])C(=O)C1([H])N(C(=O)C([H])(N([H])C(=O)C([H])(N([H])C([H])([H])[H])C([H])([H])[H])C(C([H])([H])[H])(C([H])([H])[H])C([H])([H])[H])C([H])([H])c2c([H])c(OC([H])([H])C([H])([H])[N+]([H])([H])C3([H])C(=O)c4c(c(N([H])C(=O)N5C([H])([H])C([H])([H])C([H])([H])C([H])(n6nc(-c7c([H])c([H])c(Oc8c([H])c([H])c(F)c([H])c8F)c([H])c7[H])c(C(=O)N([H])[H])c6N([H])[H])C5([H])[H])c([H])c([H])c4C([H])([H])[N+]([H])([H])[H])C3([H])[H])c([H])c([H])c2C1([H])[H]

$$$$
80:0:0
     RDKit          3D

 92101  0  0  1  0  0  0  0  0999 V2000
  -29.7270  -21.4080   22.8150 C   0  0  0  0  0  3  0  0  0  0  0  0
  -29.3470  -22.7450   23.0680 C   0  0  0  0  0  3  0  0  0  0  0  0
  -29.5220  -21.7560   20.4040 C   0  0  0  0  0  3  0  0  0  0  0  0
  -29.1550  -23.1090   20.6700 C   0  0  0  0  0  0  0  0  0  0  0  0
  -29.8390  -20.8920   21.4970 C   0  0  0  0  0  0  0  0  0  0  0  0
  -29.0760  -23.5880   21.9770 C   0  0  0  0  0  0  0  0  0  0  0  0
  -28.8260  -24.2380   19.7570 C   0  0  0  0  0  0  0  0  0  0  0  0
  -28.6960  -25.0580   22.0420 C   0  0  0  0  0  2  0  0  0  0  0  0
  -28.2090  -25.3780   20.6110 C   0  0  0  0  0  3  0  0  0  0  0  0
  -28.9610  -24.2760   18.5290 O   0  0  0  0  0  0  0  0  0  0  0  0
  -30.3690  -19.4980   21.3810 C   0  0  0  0  0  3  0  0  0  0  0  0
  -30.0690  -18.4660   20.5530 C   0  0  0  0  0  3  0  0  0  0  0  0
  -30.9030  -17.1650   20.5330 C   0  0  0  0  0  2  0  0  0  0  0  0
  -30.8640  -14.7170   20.0720 C   0  0  0  0  0  0  0  0  0  0  0  0
  -30.4860  -12.5320   18.9900 C   0  0  0  0  0  2  0  0  0  0  0  0
  -29.4890  -12.7020   17.8270 C   0  0  0  0  0  2  0  0  0  0  0  0
  -28.0430  -12.5540   18.3370 C   0  0  0  0  0  2  0  0  0  0  0  0
  -27.7610  -13.4120   19.6020 C   0  0  0  0  0  3  0  0  0  0  0  0
  -28.8780  -13.2580   20.6580 C   0  0  0  0  0  2  0  0  0  0  0  0
  -30.1580  -13.5520   20.0030 N   0  0  0  0  0  0  0  0  0  0  0  0
  -32.0000  -14.8080   19.6040 O   0  0  0  0  0  0  0  0  0  0  0  0
  -30.2270  -15.8380   20.5040 N   0  0  0  0  0  0  0  0  0  0  0  0
  -29.2780  -15.7600   20.8400 H   0  0  0  0  0  0  0  0  0  0  0  0
  -25.4210  -14.0010   20.4850 C   0  0  0  0  0  0  0  0  0  0  0  0
  -24.3710  -13.2230   20.8900 C   0  0  0  0  0  0  0  0  0  0  0  0
  -24.8180  -11.8700   20.7840 C   0  0  0  0  0  0  0  0  0  0  0  0
  -26.4420  -13.1230   20.1580 N   0  0  0  0  0  0  0  0  0  0  0  0
  -26.0880  -11.8330   20.3980 N   0  0  0  0  0  0  0  0  0  0  0  0
  -24.0930  -10.6070   20.9720 C   0  0  0  0  0  0  0  0  0  0  0  0
  -24.5180   -9.6430   21.9120 C   0  0  0  0  0  3  0  0  0  0  0  0
  -23.7930   -8.4450   22.0880 C   0  0  0  0  0  3  0  0  0  0  0  0
  -22.6270   -8.2010   21.3230 C   0  0  0  0  0  0  0  0  0  0  0  0
  -22.2210   -9.1530   20.3720 C   0  0  0  0  0  3  0  0  0  0  0  0
  -22.9480  -10.3440   20.1950 C   0  0  0  0  0  3  0  0  0  0  0  0
  -21.8750   -7.0560   21.4080 O   0  0  0  0  0  0  0  0  0  0  0  0
  -21.7470   -6.3630   22.5860 C   0  0  0  0  0  0  0  0  0  0  0  0
  -21.1730   -6.9490   23.7360 C   0  0  0  0  0  3  0  0  0  0  0  0
  -20.9980   -6.1800   24.9050 C   0  0  0  0  0  3  0  0  0  0  0  0
  -21.3860   -4.8270   24.9230 C   0  0  0  0  0  0  0  0  0  0  0  0
  -21.9530   -4.2420   23.7770 C   0  0  0  0  0  3  0  0  0  0  0  0
  -22.1300   -5.0070   22.6110 C   0  0  0  0  0  0  0  0  0  0  0  0
  -22.6560   -4.4320   21.5030 F   0  0  0  0  0  0  0  0  0  0  0  0
  -21.2110   -4.0860   26.0420 F   0  0  0  0  0  0  0  0  0  0  0  0
  -22.9980  -13.6990   21.2620 C   0  0  0  0  0  0  0  0  0  0  0  0
  -22.3130  -12.9730   22.1390 N   0  0  0  0  0  0  0  0  0  0  0  0
  -22.5410  -14.7500   20.8110 O   0  0  0  0  0  0  0  0  0  0  0  0
  -22.6960  -12.1230   22.5240 H   0  0  0  0  0  0  0  0  0  0  0  0
  -21.3940  -13.2740   22.4310 H   0  0  0  0  0  0  0  0  0  0  0  0
  -25.5880  -15.3760   20.3460 N   0  0  0  0  0  0  0  0  0  0  0  0
  -24.8360  -16.0330   20.5220 H   0  0  0  0  0  0  0  0  0  0  0  0
  -26.4200  -15.8190   19.9770 H   0  0  0  0  0  0  0  0  0  0  0  0
  -28.4610  -26.7460   20.1530 O   0  0  0  0  0  0  0  0  0  0  0  0
  -24.6580  -31.9620   23.2560 C   0  0  0  0  0  0  0  0  0  0  0  0
  -27.3290  -27.5490   20.1220 C   0  0  0  0  0  0  0  0  0  0  0  0
  -23.4630  -30.5620   21.6100 C   0  0  0  0  0  3  0  0  0  0  0  0
  -24.9300  -29.0660   20.1510 C   0  0  0  0  0  0  0  0  0  0  0  0
  -25.9880  -30.9480   21.4030 C   0  0  0  0  0  2  0  0  0  0  0  0
  -26.0890  -29.5840   20.7430 C   0  0  0  0  0  0  0  0  0  0  0  0
  -27.2950  -28.8350   20.7230 C   0  0  0  0  0  3  0  0  0  0  0  0
  -26.1570  -27.0770   19.4910 C   0  0  0  0  0  3  0  0  0  0  0  0
  -24.9610  -27.8140   19.5170 C   0  0  0  0  0  3  0  0  0  0  0  0
  -23.6740  -29.9070   20.2190 C   0  0  0  0  0  2  0  0  0  0  0  0
  -24.7220  -31.1720   22.1480 N   0  0  0  0  0  0  0  0  0  0  0  0
  -23.5760  -32.2140   23.8060 O   0  0  0  0  0  0  0  0  0  0  0  0
  -22.8320  -29.5190   22.5610 C   0  0  0  0  0  0  0  0  0  0  0  0
  -21.5130  -29.3030   22.4290 N   0  0  0  0  0  0  0  0  0  0  0  0
  -23.5280  -28.9080   23.3770 O   0  0  0  0  0  0  0  0  0  0  0  0
  -21.0120  -29.8510   21.7430 H   0  0  0  0  0  0  0  0  0  0  0  0
  -18.1650  -28.0330   22.9230 C   0  0  0  0  0  0  0  0  0  0  0  0
  -20.7170  -28.3410   23.1910 C   0  0  0  0  0  3  0  0  0  0  0  0
  -20.8480  -26.9190   22.6010 C   0  0  0  0  0  2  0  0  0  0  0  0
  -19.7510  -26.5830   21.5870 C   0  0  0  0  0  2  0  0  0  0  0  0
  -18.3670  -26.6930   22.2340 C   0  0  0  0  0  2  0  0  0  0  0  0
  -19.2680  -28.8130   23.3570 C   0  0  0  0  0  0  0  0  0  0  0  0
  -19.0250  -30.0670   23.9600 C   0  0  0  0  0  3  0  0  0  0  0  0
  -17.7110  -30.5400   24.1340 C   0  0  0  0  0  3  0  0  0  0  0  0
  -16.6220  -29.7570   23.7150 C   0  0  0  0  0  3  0  0  0  0  0  0
  -16.8500  -28.5050   23.1150 C   0  0  0  0  0  3  0  0  0  0  0  0
  -25.9370  -32.6080   23.8740 C   0  0  0  0  0  3  0  0  0  0  0  0
  -25.6150  -34.0040   24.2000 N   0  0  0  0  0  0  0  0  0  0  0  0
  -25.9170  -35.0550   23.4260 C   0  0  0  0  0  0  0  0  0  0  0  0
  -26.5680  -34.9520   22.3830 O   0  0  0  0  0  0  0  0  0  0  0  0
  -25.0350  -34.1570   25.0120 H   0  0  0  0  0  0  0  0  0  0  0  0
  -24.1550  -36.8180   23.0950 C   0  0  0  0  0  1  0  0  0  0  0  0
  -25.4190  -36.4400   23.8820 C   0  0  0  0  0  3  0  0  0  0  0  0
  -27.5490  -37.3730   24.6690 C   0  0  0  0  0  1  0  0  0  0  0  0
  -26.4340  -37.5070   23.7370 N   0  0  0  0  0  0  0  0  0  0  0  0
  -26.0150  -38.4230   23.8720 H   0  0  0  0  0  0  0  0  0  0  0  0
  -26.4630  -31.8450   25.1510 C   0  0  1  0  0  0  0  0  0  0  0  0
  -25.3700  -31.5830   26.2130 C   0  0  0  0  0  1  0  0  0  0  0  0
  -27.0770  -30.4810   24.7580 C   0  0  0  0  0  1  0  0  0  0  0  0
  -27.5940  -32.6620   25.8200 C   0  0  0  0  0  1  0  0  0  0  0  0
  1  2  1  0
  3  4  2  0
  3  5  1  0
  4  6  1  0
  5  1  2  0
  6  8  1  0
  6  2  2  0
  7  9  1  0
  7  4  1  0
  9 52  1  0
  9  8  1  0
 10  7  2  0
 11  5  1  0
 12 11  2  0
 13 12  1  0
 14 22  1  0
 15 20  1  0
 16 17  1  0
 16 15  1  0
 18 17  1  0
 18 27  1  0
 18 19  1  0
 20 14  1  0
 20 19  1  0
 21 14  2  0
 22 13  1  0
 22 23  1  0
 24 25  2  0
 25 44  1  0
 26 25  1  0
 26 29  1  0
 27 28  1  0
 27 24  1  0
 28 26  2  0
 29 30  1  0
 30 31  2  0
 32 35  1  0
 32 31  1  0
 33 32  2  0
 34 33  1  0
 34 29  2  0
 35 36  1  0
 36 41  2  0
 36 37  1  0
 37 38  2  0
 38 39  1  0
 39 43  1  0
 40 39  2  0
 41 40  1  0
 42 41  1  0
 44 45  1  0
 45 48  1  0
 45 47  1  0
 46 44  2  0
 49 24  1  0
 49 50  1  0
 51 49  1  0
 53 64  2  0
 54 52  1  0
 54 59  1  0
 55 63  1  0
 55 65  1  0
 56 62  1  0
 56 58  1  0
 57 63  1  0
 58 57  1  0
 59 58  2  0
 60 61  1  0
 60 54  2  0
 61 56  2  0
 62 55  1  0
 63 53  1  0
 65 67  2  0
 66 65  1  0
 68 66  1  0
 69 78  2  0
 69 74  1  0
 70 66  1  0
 70 74  1  0
 71 70  1  0
 72 73  1  0
 72 71  1  0
 73 69  1  0
 74 75  2  0
 75 76  1  0
 77 76  2  0
 78 77  1  0
 79 53  1  0
 79 80  1  0
 79 89  1  0
 80 83  1  0
 81 85  1  0
 81 80  1  0
 82 81  2  0
 85 84  1  0
 87 88  1  0
 87 85  1  0
 87 86  1  0
 89 92  1  1
 89 90  1  0
 91 89  1  0
M  ISO  4   9 101  14 100  22 100  52 101
M  END
>  <TORSDO>  (80) 
F 18

>  <SCORE>  (80) 
-14.410

>  <name>  (80) 
80

>  <ligand_id>  (80) 
80

>  <original_smiles>  (80) 
[H]C(=C([H])C([H])([H])N([H])C(=O)N1C([H])([H])C([H])([H])C([H])([H])C([H])(n2nc(-c3c([H])c([H])c(Oc4c([H])c([H])c(F)c([H])c4F)c([H])c3[H])c(C(=O)N([H])[H])c2N([H])[H])C1([H])[H])c1c([H])c([H])c2c(c1[H])C(=O)C([H])(Oc1c([H])c([H])c3c(c1[H])C([H])([H])N(C(=O)C([H])(N([H])C(=O)C([H])(N([H])C([H])([H])[H])C([H])([H])[H])C(C([H])([H])[H])(C([H])([H])[H])C([H])([H])[H])C([H])(C(=O)N([H])C1([H])c4c([H])c([H])c([H])c([H])c4C([H])([H])C([H])([H])C1([H])[H])C3([H])[H])C2([H])[H]

>  <smiles>  (80) 
[H]C(=C([H])C([H])([H])N([H])C(=O)N1C([H])([H])C([H])([H])C([H])([H])C([H])(n2nc(-c3c([H])c([H])c(Oc4c([H])c([H])c(F)c([H])c4F)c([H])c3[H])c(C(=O)N([H])[H])c2N([H])[H])C1([H])[H])c1c([H])c([H])c2c(c1[H])C(=O)C([H])(Oc1c([H])c([H])c3c(c1[H])C([H])([H])N(C(=O)C([H])(N([H])C(=O)C([H])(N([H])C([H])([H])[H])C([H])([H])[H])C(C([H])([H])[H])(C([H])([H])[H])C([H])([H])[H])C([H])(C(=O)N([H])C1([H])c4c([H])c([H])c([H])c([H])c4C([H])([H])C([H])([H])C1([H])[H])C3([H])[H])C2([H])[H]

$$$$
82:0:0
     RDKit          3D

 89 97  0  0  1  0  0  0  0  0999 V2000
  -28.5700  -21.9740   19.7960 N   0  0  0  0  0  4  0  0  0  0  0  0
  -28.8860  -21.9350   18.8400 H   0  0  0  0  0  0  0  0  0  0  0  0
  -27.5650  -21.9240   19.7310 H   0  0  0  0  0  0  0  0  0  0  0  0
  -28.1100  -18.1210   20.2890 C   0  0  0  0  0  3  0  0  0  0  0  0
  -30.5270  -18.4680   20.0340 C   0  0  0  0  0  3  0  0  0  0  0  0
  -27.9050  -19.4780   20.4270 C   0  0  0  0  0  3  0  0  0  0  0  0
  -30.3140  -19.8410   20.1710 C   0  0  0  0  0  3  0  0  0  0  0  0
  -29.4410  -17.4140   20.1520 C   0  0  0  0  0  0  0  0  0  0  0  0
  -28.9710  -20.6100   20.4950 C   0  0  0  0  0  0  0  0  0  0  0  0
  -29.4430  -16.0600   20.1600 N   0  0  0  0  0  2  0  0  0  0  0  0
  -30.4440  -15.0020   19.9480 C   0  0  0  0  0  0  0  0  0  0  0  0
  -30.4240  -12.6330   19.0410 C   0  0  0  0  0  2  0  0  0  0  0  0
  -29.4170  -12.5640   17.8640 C   0  0  0  0  0  2  0  0  0  0  0  0
  -27.9760  -12.3320   18.3710 C   0  0  0  0  0  2  0  0  0  0  0  0
  -27.6040  -13.2810   19.5380 C   0  0  0  0  0  3  0  0  0  0  0  0
  -28.7060  -13.2700   20.6130 C   0  0  0  0  0  2  0  0  0  0  0  0
  -29.9610  -13.6980   19.9750 N   0  0  0  0  0  0  0  0  0  0  0  0
  -31.6180  -15.1550   19.5990 O   0  0  0  0  0  0  0  0  0  0  0  0
  -25.2780  -13.8780   20.4510 C   0  0  0  0  0  0  0  0  0  0  0  0
  -24.2290  -13.1100   20.8680 C   0  0  0  0  0  0  0  0  0  0  0  0
  -24.6670  -11.7530   20.7660 C   0  0  0  0  0  0  0  0  0  0  0  0
  -26.2900  -12.9930   20.1070 N   0  0  0  0  0  0  0  0  0  0  0  0
  -25.9330  -11.7070   20.3640 N   0  0  0  0  0  0  0  0  0  0  0  0
  -23.9350  -10.4970   20.9650 C   0  0  0  0  0  0  0  0  0  0  0  0
  -24.3810   -9.5190   21.8790 C   0  0  0  0  0  3  0  0  0  0  0  0
  -23.6490   -8.3270   22.0640 C   0  0  0  0  0  3  0  0  0  0  0  0
  -22.4580   -8.1050   21.3360 C   0  0  0  0  0  0  0  0  0  0  0  0
  -22.0270   -9.0740   20.4130 C   0  0  0  0  0  3  0  0  0  0  0  0
  -22.7580  -10.2580   20.2240 C   0  0  0  0  0  3  0  0  0  0  0  0
  -21.6940   -6.9650   21.4320 O   0  0  0  0  0  0  0  0  0  0  0  0
  -21.6330   -6.2370   22.5950 C   0  0  0  0  0  0  0  0  0  0  0  0
  -21.1540   -6.7960   23.8000 C   0  0  0  0  0  3  0  0  0  0  0  0
  -21.0410   -5.9930   24.9520 C   0  0  0  0  0  3  0  0  0  0  0  0
  -21.3990   -4.6320   24.9010 C   0  0  0  0  0  0  0  0  0  0  0  0
  -21.8720   -4.0730   23.7010 C   0  0  0  0  0  3  0  0  0  0  0  0
  -21.9880   -4.8740   22.5510 C   0  0  0  0  0  0  0  0  0  0  0  0
  -22.4250   -4.3250   21.3910 F   0  0  0  0  0  0  0  0  0  0  0  0
  -21.2840   -3.8590   26.0060 F   0  0  0  0  0  0  0  0  0  0  0  0
  -22.8570  -13.5990   21.2420 C   0  0  0  0  0  0  0  0  0  0  0  0
  -22.1670  -12.8930   22.1280 N   0  0  0  0  0  0  0  0  0  0  0  0
  -22.4080  -14.6480   20.7770 O   0  0  0  0  0  0  0  0  0  0  0  0
  -22.5390  -12.0450   22.5300 H   0  0  0  0  0  0  0  0  0  0  0  0
  -21.2500  -13.2070   22.4120 H   0  0  0  0  0  0  0  0  0  0  0  0
  -25.4550  -15.2510   20.3120 N   0  0  0  0  0  0  0  0  0  0  0  0
  -24.7100  -15.9160   20.4890 H   0  0  0  0  0  0  0  0  0  0  0  0
  -26.3060  -15.6710   19.9620 H   0  0  0  0  0  0  0  0  0  0  0  0
  -28.8610  -23.4230   20.3650 C   0  0  0  0  0  3  0  0  0  0  0  0
  -27.8900  -24.7330   20.0140 C   0  0  0  0  0  3  0  0  0  0  0  0
  -28.2070  -26.2290   20.2740 O   0  0  0  0  0  0  0  0  0  0  0  0
  -24.6220  -31.9230   23.2470 C   0  0  0  0  0  0  0  0  0  0  0  0
  -27.1660  -27.2150   20.2140 C   0  0  0  0  0  0  0  0  0  0  0  0
  -23.4140  -30.5220   21.6190 C   0  0  0  0  0  3  0  0  0  0  0  0
  -24.8530  -28.9530   20.1940 C   0  0  0  0  0  0  0  0  0  0  0  0
  -25.9660  -30.7930   21.4380 C   0  0  0  0  0  2  0  0  0  0  0  0
  -26.0340  -29.4000   20.7970 C   0  0  0  0  0  0  0  0  0  0  0  0
  -27.1960  -28.5430   20.7970 C   0  0  0  0  0  3  0  0  0  0  0  0
  -25.9570  -26.8660   19.5770 C   0  0  0  0  0  3  0  0  0  0  0  0
  -24.8250  -27.6990   19.5710 C   0  0  0  0  0  3  0  0  0  0  0  0
  -23.6280  -29.8460   20.2410 C   0  0  0  0  0  2  0  0  0  0  0  0
  -24.6880  -31.1010   22.1560 N   0  0  0  0  0  0  0  0  0  0  0  0
  -23.5390  -32.2060   23.7820 O   0  0  0  0  0  0  0  0  0  0  0  0
  -22.7420  -29.5160   22.5840 C   0  0  0  0  0  0  0  0  0  0  0  0
  -21.4160  -29.3310   22.4490 N   0  0  0  0  0  0  0  0  0  0  0  0
  -23.4140  -28.9010   23.4160 O   0  0  0  0  0  0  0  0  0  0  0  0
  -20.9280  -29.8780   21.7540 H   0  0  0  0  0  0  0  0  0  0  0  0
  -18.0390  -28.1180   22.9550 C   0  0  0  0  0  0  0  0  0  0  0  0
  -20.5970  -28.3950   23.2260 C   0  0  0  0  0  3  0  0  0  0  0  0
  -20.7040  -26.9590   22.6600 C   0  0  0  0  0  2  0  0  0  0  0  0
  -19.6060  -26.6250   21.6450 C   0  0  0  0  0  2  0  0  0  0  0  0
  -18.2230  -26.7670   22.2850 C   0  0  0  0  0  2  0  0  0  0  0  0
  -19.1540  -28.8880   23.3830 C   0  0  0  0  0  0  0  0  0  0  0  0
  -18.9260  -30.1500   23.9730 C   0  0  0  0  0  3  0  0  0  0  0  0
  -17.6200  -30.6480   24.1280 C   0  0  0  0  0  3  0  0  0  0  0  0
  -16.5190  -29.8770   23.7150 C   0  0  0  0  0  3  0  0  0  0  0  0
  -16.7300  -28.6120   23.1390 C   0  0  0  0  0  3  0  0  0  0  0  0
  -25.9030  -32.5600   23.8670 C   0  0  0  0  0  3  0  0  0  0  0  0
  -26.4070  -31.8050   25.1580 C   0  0  1  0  0  0  0  0  0  0  0  0
  -25.3020  -31.5910   26.2190 C   0  0  0  0  0  1  0  0  0  0  0  0
  -26.9890  -30.4210   24.7910 C   0  0  0  0  0  1  0  0  0  0  0  0
  -27.5540  -32.6060   25.8200 C   0  0  0  0  0  1  0  0  0  0  0  0
  -25.5980  -33.9650   24.1810 N   0  0  0  0  0  0  0  0  0  0  0  0
  -25.9120  -35.0070   23.4000 C   0  0  0  0  0  0  0  0  0  0  0  0
  -26.5630  -34.8870   22.3570 O   0  0  0  0  0  0  0  0  0  0  0  0
  -25.0170  -34.1320   24.9900 H   0  0  0  0  0  0  0  0  0  0  0  0
  -24.1780  -36.7950   23.0530 C   0  0  0  0  0  1  0  0  0  0  0  0
  -25.4340  -36.4010   23.8450 C   0  0  0  0  0  3  0  0  0  0  0  0
  -27.5810  -37.3080   24.6260 C   0  0  0  0  0  1  0  0  0  0  0  0
  -26.4630  -37.4530   23.6950 N   0  0  0  0  0  0  0  0  0  0  0  0
  -26.0580  -38.3760   23.8260 H   0  0  0  0  0  0  0  0  0  0  0  0
  1 47  1  0
  1  9  1  0
  2  1  1  0
  3  1  1  0
  4  6  1  0
  5  8  1  0
  5  7  2  0
  6  9  2  0
  7  9  1  0
  8 10  1  0
  8  4  2  0
 11 17  1  0
 11 10  1  0
 12 17  1  0
 13 14  1  0
 13 12  1  0
 15 14  1  0
 15 22  1  0
 15 16  1  0
 17 16  1  0
 18 11  2  0
 19 20  2  0
 20 39  1  0
 21 20  1  0
 21 24  1  0
 22 23  1  0
 22 19  1  0
 23 21  2  0
 24 25  1  0
 25 26  2  0
 27 30  1  0
 27 26  1  0
 28 27  2  0
 29 28  1  0
 29 24  2  0
 30 31  1  0
 31 32  1  0
 32 33  2  0
 34 33  1  0
 34 38  1  0
 35 34  2  0
 36 31  2  0
 36 35  1  0
 37 36  1  0
 39 40  1  0
 40 43  1  0
 40 42  1  0
 41 39  2  0
 44 19  1  0
 44 45  1  0
 46 44  1  0
 48 49  1  0
 48 47  2  0
 50 61  2  0
 51 49  1  0
 51 56  1  0
 52 60  1  0
 52 62  1  0
 53 59  1  0
 53 55  1  0
 54 60  1  0
 55 56  2  0
 55 54  1  0
 57 51  2  0
 58 57  1  0
 58 53  2  0
 59 52  1  0
 60 50  1  0
 62 64  2  0
 63 62  1  0
 65 63  1  0
 66 75  2  0
 66 71  1  0
 67 63  1  0
 67 71  1  0
 68 67  1  0
 69 70  1  0
 69 68  1  0
 70 66  1  0
 71 72  2  0
 72 73  1  0
 74 73  2  0
 75 74  1  0
 76 50  1  0
 76 81  1  0
 76 77  1  0
 77 80  1  1
 77 78  1  0
 79 77  1  0
 81 84  1  0
 82 86  1  0
 82 81  1  0
 83 82  2  0
 86 85  1  0
 88 89  1  0
 88 86  1  0
 88 87  1  0
M  ISO  4  10 100  11 100  48 101  49 101
M  END
>  <TORSDO>  (81) 
F 19

>  <SCORE>  (81) 
-14.108

>  <name>  (81) 
82

>  <ligand_id>  (81) 
82

>  <original_smiles>  (81) 
[H]C1=C([H])C([H])([N+]([H])([H])C([H])([H])C([H])([H])Oc2c([H])c([H])c3c(c2[H])C([H])([H])N(C(=O)C([H])(N([H])C(=O)C([H])(N([H])C([H])([H])[H])C([H])([H])[H])C(C([H])([H])[H])(C([H])([H])[H])C([H])([H])[H])C([H])(C(=O)N([H])C2([H])c4c([H])c([H])c([H])c([H])c4C([H])([H])C([H])([H])C2([H])[H])C3([H])[H])C([H])=C([H])C1=NC(=O)N1C([H])([H])C([H])([H])C([H])([H])C([H])(n2nc(-c3c([H])c([H])c(Oc4c([H])c([H])c(F)c([H])c4F)c([H])c3[H])c(C(=O)N([H])[H])c2N([H])[H])C1([H])[H]

>  <smiles>  (81) 
[H]C1=C([H])C([H])([N+]([H])([H])C([H])([H])C([H])([H])Oc2c([H])c([H])c3c(c2[H])C([H])([H])N(C(=O)C([H])(N([H])C(=O)C([H])(N([H])C([H])([H])[H])C([H])([H])[H])C(C([H])([H])[H])(C([H])([H])[H])C([H])([H])[H])C([H])(C(=O)N([H])C2([H])c4c([H])c([H])c([H])c([H])c4C([H])([H])C([H])([H])C2([H])[H])C3([H])[H])C([H])=C([H])C1=NC(=O)N1C([H])([H])C([H])([H])C([H])([H])C([H])(n2nc(-c3c([H])c([H])c(Oc4c([H])c([H])c(F)c([H])c4F)c([H])c3[H])c(C(=O)N([H])[H])c2N([H])[H])C1([H])[H]

$$$$
83:0:0
     RDKit          3D

 92101  0  0  1  0  0  0  0  0999 V2000
  -29.6410  -21.1960   19.5110 C   0  0  0  0  0  3  0  0  0  0  0  0
  -29.7950  -19.8270   19.9510 C   0  0  0  0  0  0  0  0  0  0  0  0
  -29.7910  -19.5910   21.3110 C   0  0  0  0  0  0  0  0  0  0  0  0
  -29.4800  -22.2440   20.5040 C   0  0  0  0  0  0  0  0  0  0  0  0
  -30.0170  -18.4710   19.2130 C   0  0  0  0  0  2  0  0  0  0  0  0
  -30.0320  -18.1000   21.6440 C   0  0  0  0  0  3  0  0  0  0  0  0
  -30.5100  -17.4080   20.3050 C   0  0  0  0  0  3  0  0  0  0  0  0
  -29.6200  -20.5860   22.2270 N   0  0  0  0  0  0  0  0  0  0  0  0
  -29.4730  -21.8740   21.8230 N   0  0  0  0  0  0  0  0  0  0  0  0
  -30.9290  -14.7890   19.9400 C   0  0  0  0  0  0  0  0  0  0  0  0
  -30.6810  -12.4960   18.9630 C   0  0  0  0  0  2  0  0  0  0  0  0
  -29.6920  -12.5450   17.7770 C   0  0  0  0  0  2  0  0  0  0  0  0
  -28.2410  -12.3900   18.2710 C   0  0  0  0  0  2  0  0  0  0  0  0
  -27.9220  -13.3090   19.4790 C   0  0  0  0  0  3  0  0  0  0  0  0
  -29.0210  -13.2310   20.5610 C   0  0  0  0  0  2  0  0  0  0  0  0
  -30.2950  -13.5660   19.9110 N   0  0  0  0  0  0  0  0  0  0  0  0
  -32.1030  -14.8870   19.5770 O   0  0  0  0  0  0  0  0  0  0  0  0
  -30.1580  -15.9140   20.1840 N   0  0  0  0  0  0  0  0  0  0  0  0
  -29.1990  -15.6970   20.4070 H   0  0  0  0  0  0  0  0  0  0  0  0
  -25.5860  -13.9530   20.3220 C   0  0  0  0  0  0  0  0  0  0  0  0
  -24.5170  -13.2020   20.7290 C   0  0  0  0  0  0  0  0  0  0  0  0
  -24.9420  -11.8390   20.6590 C   0  0  0  0  0  0  0  0  0  0  0  0
  -26.5930  -13.0500   20.0260 N   0  0  0  0  0  0  0  0  0  0  0  0
  -26.2160  -11.7730   20.2920 N   0  0  0  0  0  0  0  0  0  0  0  0
  -24.1910  -10.5940   20.8630 C   0  0  0  0  0  0  0  0  0  0  0  0
  -24.5920   -9.6390   21.8240 C   0  0  0  0  0  3  0  0  0  0  0  0
  -23.8420   -8.4580   22.0150 C   0  0  0  0  0  3  0  0  0  0  0  0
  -22.6770   -8.2240   21.2450 C   0  0  0  0  0  0  0  0  0  0  0  0
  -22.2960   -9.1670   20.2760 C   0  0  0  0  0  3  0  0  0  0  0  0
  -23.0450  -10.3400   20.0830 C   0  0  0  0  0  3  0  0  0  0  0  0
  -21.9020   -7.0950   21.3450 O   0  0  0  0  0  0  0  0  0  0  0  0
  -21.7540   -6.4260   22.5340 C   0  0  0  0  0  0  0  0  0  0  0  0
  -21.2340   -7.0590   23.6840 C   0  0  0  0  0  3  0  0  0  0  0  0
  -21.0330   -6.3160   24.8650 C   0  0  0  0  0  3  0  0  0  0  0  0
  -21.3400   -4.9430   24.8960 C   0  0  0  0  0  0  0  0  0  0  0  0
  -21.8510   -4.3110   23.7490 C   0  0  0  0  0  3  0  0  0  0  0  0
  -22.0540   -5.0490   22.5700 C   0  0  0  0  0  0  0  0  0  0  0  0
  -22.5280   -4.4300   21.4620 F   0  0  0  0  0  0  0  0  0  0  0  0
  -21.1390   -4.2280   26.0270 F   0  0  0  0  0  0  0  0  0  0  0  0
  -23.1470  -13.7120   21.0670 C   0  0  0  0  0  0  0  0  0  0  0  0
  -22.4400  -13.0270   21.9600 N   0  0  0  0  0  0  0  0  0  0  0  0
  -22.7120  -14.7520   20.5740 O   0  0  0  0  0  0  0  0  0  0  0  0
  -22.8070  -12.1850   22.3790 H   0  0  0  0  0  0  0  0  0  0  0  0
  -21.5220  -13.3500   22.2290 H   0  0  0  0  0  0  0  0  0  0  0  0
  -25.7780  -15.3210   20.1530 N   0  0  0  0  0  0  0  0  0  0  0  0
  -25.0250  -15.9860   20.2920 H   0  0  0  0  0  0  0  0  0  0  0  0
  -26.6000  -15.7360   19.7350 H   0  0  0  0  0  0  0  0  0  0  0  0
  -31.0030  -17.9200   22.6610 O   0  0  0  0  0  0  0  0  0  0  0  0
  -30.7330  -18.4840   23.3810 H   0  0  0  0  0  0  0  0  0  0  0  0
  -29.5830  -23.8200   20.2100 C   0  0  0  0  0  3  0  0  0  0  0  0
  -28.3480  -24.8640   20.3330 C   0  0  0  0  0  3  0  0  0  0  0  0
  -28.5590  -26.3660   20.2480 O   0  0  0  0  0  0  0  0  0  0  0  0
  -24.6350  -31.7470   23.1950 C   0  0  0  0  0  0  0  0  0  0  0  0
  -27.4370  -27.2330   20.1820 C   0  0  0  0  0  0  0  0  0  0  0  0
  -23.5140  -30.3310   21.5160 C   0  0  0  0  0  3  0  0  0  0  0  0
  -25.0420  -28.8300   20.1160 C   0  0  0  0  0  0  0  0  0  0  0  0
  -26.0530  -30.7050   21.4050 C   0  0  0  0  0  2  0  0  0  0  0  0
  -26.1870  -29.3300   20.7480 C   0  0  0  0  0  0  0  0  0  0  0  0
  -27.3880  -28.5480   20.7660 C   0  0  0  0  0  3  0  0  0  0  0  0
  -26.2640  -26.8050   19.5180 C   0  0  0  0  0  3  0  0  0  0  0  0
  -25.0870  -27.5770   19.4880 C   0  0  0  0  0  3  0  0  0  0  0  0
  -23.7830  -29.6750   20.1370 C   0  0  0  0  0  2  0  0  0  0  0  0
  -24.7520  -30.9470   22.0950 N   0  0  0  0  0  0  0  0  0  0  0  0
  -23.5300  -31.9900   23.7040 O   0  0  0  0  0  0  0  0  0  0  0  0
  -22.8520  -29.2900   22.4500 C   0  0  0  0  0  0  0  0  0  0  0  0
  -21.5340  -29.0800   22.2920 N   0  0  0  0  0  0  0  0  0  0  0  0
  -23.5270  -28.6730   23.2790 O   0  0  0  0  0  0  0  0  0  0  0  0
  -21.0470  -29.6320   21.5980 H   0  0  0  0  0  0  0  0  0  0  0  0
  -18.1750  -27.7980   22.7100 C   0  0  0  0  0  0  0  0  0  0  0  0
  -20.7210  -28.1160   23.0360 C   0  0  0  0  0  3  0  0  0  0  0  0
  -20.8680  -26.6940   22.4480 C   0  0  0  0  0  2  0  0  0  0  0  0
  -19.7960  -26.3550   21.4080 C   0  0  0  0  0  2  0  0  0  0  0  0
  -18.3970  -26.4610   22.0240 C   0  0  0  0  0  2  0  0  0  0  0  0
  -19.2660  -28.5820   23.1710 C   0  0  0  0  0  0  0  0  0  0  0  0
  -19.0040  -29.8320   23.7720 C   0  0  0  0  0  3  0  0  0  0  0  0
  -17.6830  -30.2990   23.9160 C   0  0  0  0  0  3  0  0  0  0  0  0
  -16.6080  -29.5120   23.4710 C   0  0  0  0  0  3  0  0  0  0  0  0
  -16.8540  -28.2630   22.8740 C   0  0  0  0  0  3  0  0  0  0  0  0
  -25.8820  -32.4120   23.8560 C   0  0  0  0  0  3  0  0  0  0  0  0
  -26.3830  -31.6480   25.1430 C   0  0  1  0  0  0  0  0  0  0  0  0
  -25.2670  -31.3760   26.1790 C   0  0  0  0  0  1  0  0  0  0  0  0
  -27.0140  -30.2880   24.7630 C   0  0  0  0  0  1  0  0  0  0  0  0
  -27.4920  -32.4690   25.8410 C   0  0  0  0  0  1  0  0  0  0  0  0
  -25.5230  -33.7990   24.1870 N   0  0  0  0  0  0  0  0  0  0  0  0
  -25.8270  -34.8650   23.4350 C   0  0  0  0  0  0  0  0  0  0  0  0
  -26.5060  -34.7860   22.4080 O   0  0  0  0  0  0  0  0  0  0  0  0
  -24.9190  -33.9310   24.9850 H   0  0  0  0  0  0  0  0  0  0  0  0
  -24.0320  -36.5950   23.0920 C   0  0  0  0  0  1  0  0  0  0  0  0
  -25.2930  -36.2360   23.8940 C   0  0  0  0  0  3  0  0  0  0  0  0
  -27.3990  -37.2020   24.7100 C   0  0  0  0  0  1  0  0  0  0  0  0
  -26.2860  -37.3250   23.7710 N   0  0  0  0  0  0  0  0  0  0  0  0
  -25.8480  -38.2310   23.9170 H   0  0  0  0  0  0  0  0  0  0  0  0
  1  2  2  0
  1  4  1  0
  2  3  1  0
  3  6  1  0
  3  8  2  0
  4  9  2  0
  5  2  1  0
  5  7  1  0
  6 48  1  0
  7 18  1  0
  7  6  1  0
  9  8  1  0
 10 18  1  0
 11 16  1  0
 12 13  1  0
 12 11  1  0
 14 13  1  0
 14 23  1  0
 14 15  1  0
 16 10  1  0
 16 15  1  0
 17 10  2  0
 18 19  1  0
 20 21  2  0
 21 40  1  0
 22 21  1  0
 22 25  1  0
 23 24  1  0
 23 20  1  0
 24 22  2  0
 25 26  1  0
 26 27  2  0
 28 31  1  0
 28 27  1  0
 29 28  2  0
 30 29  1  0
 30 25  2  0
 31 32  1  0
 32 37  2  0
 32 33  1  0
 33 34  2  0
 34 35  1  0
 35 39  1  0
 36 35  2  0
 37 36  1  0
 38 37  1  0
 40 41  1  0
 41 44  1  0
 41 43  1  0
 42 40  2  0
 45 46  1  0
 45 20  1  0
 47 45  1  0
 48 49  1  0
 50 51  2  0
 50  4  1  0
 52 51  1  0
 53 64  2  0
 54 52  1  0
 54 59  1  0
 55 63  1  0
 55 65  1  0
 56 62  1  0
 56 58  1  0
 57 63  1  0
 58 59  2  0
 58 57  1  0
 60 54  2  0
 61 60  1  0
 61 56  2  0
 62 55  1  0
 63 53  1  0
 65 67  2  0
 66 65  1  0
 68 66  1  0
 69 78  2  0
 69 74  1  0
 70 66  1  0
 70 74  1  0
 71 70  1  0
 72 73  1  0
 72 71  1  0
 73 69  1  0
 74 75  2  0
 75 76  1  0
 77 76  2  0
 78 77  1  0
 79 53  1  0
 79 84  1  0
 79 80  1  0
 80 83  1  1
 80 81  1  0
 82 80  1  0
 84 87  1  0
 85 89  1  0
 85 84  1  0
 86 85  2  0
 89 88  1  0
 91 89  1  0
 91 92  1  0
 91 90  1  0
M  ISO  4  10 100  18 100  51 101  52 101
M  END
>  <TORSDO>  (82) 
F 19

>  <SCORE>  (82) 
-13.655

>  <name>  (82) 
83

>  <ligand_id>  (82) 
83

>  <original_smiles>  (82) 
[H]OC1([H])c2nnc(C([H])([H])C([H])([H])Oc3c([H])c([H])c4c(c3[H])C([H])([H])N(C(=O)C([H])(N([H])C(=O)C([H])(N([H])C([H])([H])[H])C([H])([H])[H])C(C([H])([H])[H])(C([H])([H])[H])C([H])([H])[H])C([H])(C(=O)N([H])C3([H])c5c([H])c([H])c([H])c([H])c5C([H])([H])C([H])([H])C3([H])[H])C4([H])[H])c([H])c2C([H])([H])C1([H])N([H])C(=O)N1C([H])([H])C([H])([H])C([H])([H])C([H])(n2nc(-c3c([H])c([H])c(Oc4c([H])c([H])c(F)c([H])c4F)c([H])c3[H])c(C(=O)N([H])[H])c2N([H])[H])C1([H])[H]

>  <smiles>  (82) 
[H]OC1([H])c2nnc(C([H])([H])C([H])([H])Oc3c([H])c([H])c4c(c3[H])C([H])([H])N(C(=O)C([H])(N([H])C(=O)C([H])(N([H])C([H])([H])[H])C([H])([H])[H])C(C([H])([H])[H])(C([H])([H])[H])C([H])([H])[H])C([H])(C(=O)N([H])C3([H])c5c([H])c([H])c([H])c([H])c5C([H])([H])C([H])([H])C3([H])[H])C4([H])[H])c([H])c2C([H])([H])C1([H])N([H])C(=O)N1C([H])([H])C([H])([H])C([H])([H])C([H])(n2nc(-c3c([H])c([H])c(Oc4c([H])c([H])c(F)c([H])c4F)c([H])c3[H])c(C(=O)N([H])[H])c2N([H])[H])C1([H])[H]

$$$$
84:0:0
     RDKit          3D

 96105  0  0  1  0  0  0  0  0999 V2000
  -31.4140  -21.9870   21.3400 C   0  0  0  0  0  3  0  0  0  0  0  0
  -30.9130  -21.2590   20.3270 C   0  0  0  0  0  0  0  0  0  0  0  0
  -31.5580  -23.5040   21.3380 C   0  0  0  0  0  2  0  0  0  0  0  0
  -30.4290  -21.9720   19.0730 C   0  0  0  0  0  2  0  0  0  0  0  0
  -30.9780  -23.4140   18.9390 C   0  0  0  0  0  2  0  0  0  0  0  0
  -30.8590  -24.1830   20.2070 N   0  0  2  0  0  4  0  0  0  0  0  0
  -29.8780  -24.1860   20.4490 H   0  0  0  0  0  0  0  0  0  0  0  0
  -32.0510  -19.0510   20.2330 C   0  0  0  0  0  3  0  0  0  0  0  0
  -32.0650  -17.6420   20.3440 C   0  0  0  0  0  3  0  0  0  0  0  0
  -29.6970  -17.6730   20.8770 C   0  0  0  0  0  3  0  0  0  0  0  0
  -30.8640  -19.7830   20.4510 C   0  0  0  0  0  0  0  0  0  0  0  0
  -29.6720  -19.0840   20.7690 C   0  0  0  0  0  0  0  0  0  0  0  0
  -30.8830  -16.9350   20.6730 C   0  0  0  0  0  0  0  0  0  0  0  0
  -31.4070  -14.5470   20.0450 C   0  0  0  0  0  0  0  0  0  0  0  0
  -31.0340  -12.3720   18.9340 C   0  0  0  0  0  2  0  0  0  0  0  0
  -30.0620  -12.5770   17.7530 C   0  0  0  0  0  2  0  0  0  0  0  0
  -28.5960  -12.4880   18.2240 C   0  0  0  0  0  2  0  0  0  0  0  0
  -28.3180  -13.3640   19.4740 C   0  0  0  0  0  3  0  0  0  0  0  0
  -29.3910  -13.1170   20.5580 C   0  0  0  0  0  2  0  0  0  0  0  0
  -30.7150  -13.3770   19.9610 N   0  0  0  0  0  0  0  0  0  0  0  0
  -32.4900  -14.7210   19.4770 O   0  0  0  0  0  0  0  0  0  0  0  0
  -30.7930  -15.5090   20.7620 N   0  0  0  0  0  0  0  0  0  0  0  0
  -30.0210  -15.1660   21.3130 H   0  0  0  0  0  0  0  0  0  0  0  0
  -25.9660  -14.0670   20.2540 C   0  0  0  0  0  0  0  0  0  0  0  0
  -24.8790  -13.3370   20.6550 C   0  0  0  0  0  0  0  0  0  0  0  0
  -25.2830  -11.9680   20.6070 C   0  0  0  0  0  0  0  0  0  0  0  0
  -26.9680  -13.1450   19.9910 N   0  0  0  0  0  0  0  0  0  0  0  0
  -26.5600  -11.8770   20.2570 N   0  0  0  0  0  0  0  0  0  0  0  0
  -24.5140  -10.7350   20.8180 C   0  0  0  0  0  0  0  0  0  0  0  0
  -24.8850   -9.7930   21.8020 C   0  0  0  0  0  3  0  0  0  0  0  0
  -24.1190   -8.6230   21.9980 C   0  0  0  0  0  3  0  0  0  0  0  0
  -22.9680   -8.3890   21.2090 C   0  0  0  0  0  0  0  0  0  0  0  0
  -22.6160   -9.3200   20.2160 C   0  0  0  0  0  3  0  0  0  0  0  0
  -23.3830  -10.4800   20.0170 C   0  0  0  0  0  3  0  0  0  0  0  0
  -22.1770   -7.2690   21.3120 O   0  0  0  0  0  0  0  0  0  0  0  0
  -21.9730   -6.6400   22.5140 C   0  0  0  0  0  0  0  0  0  0  0  0
  -21.4440   -7.3220   23.6310 C   0  0  0  0  0  3  0  0  0  0  0  0
  -21.1850   -6.6210   24.8270 C   0  0  0  0  0  3  0  0  0  0  0  0
  -21.4450   -5.2390   24.9020 C   0  0  0  0  0  0  0  0  0  0  0  0
  -21.9680   -4.5570   23.7890 C   0  0  0  0  0  3  0  0  0  0  0  0
  -22.2280   -5.2560   22.5970 C   0  0  0  0  0  0  0  0  0  0  0  0
  -22.7110   -4.5910   21.5210 F   0  0  0  0  0  0  0  0  0  0  0  0
  -21.1900   -4.5620   26.0470 F   0  0  0  0  0  0  0  0  0  0  0  0
  -23.5110  -13.8690   20.9750 C   0  0  0  0  0  0  0  0  0  0  0  0
  -22.7990  -13.2180   21.8890 N   0  0  0  0  0  0  0  0  0  0  0  0
  -23.0860  -14.8960   20.4500 O   0  0  0  0  0  0  0  0  0  0  0  0
  -23.1540  -12.3860   22.3350 H   0  0  0  0  0  0  0  0  0  0  0  0
  -21.8810  -13.5570   22.1450 H   0  0  0  0  0  0  0  0  0  0  0  0
  -26.1820  -15.4300   20.0760 N   0  0  0  0  0  0  0  0  0  0  0  0
  -25.4490  -16.1170   20.2130 H   0  0  0  0  0  0  0  0  0  0  0  0
  -27.0470  -15.8370   19.7430 H   0  0  0  0  0  0  0  0  0  0  0  0
  -27.6650  -20.1960   19.6930 C   0  0  0  0  0  1  0  0  0  0  0  0
  -28.3520  -19.8040   21.0070 C   0  0  0  0  0  2  0  0  0  0  0  0
  -31.2900  -25.6120   20.0860 C   0  0  0  0  0  2  0  0  0  0  0  0
  -30.1730  -26.6630   20.2840 C   0  0  0  0  0  2  0  0  0  0  0  0
  -29.4090  -26.8350   19.0910 O   0  0  0  0  0  0  0  0  0  0  0  0
  -24.9830  -31.0130   22.8620 C   0  0  0  0  0  0  0  0  0  0  0  0
  -28.1810  -27.4410   19.2380 C   0  0  0  0  0  0  0  0  0  0  0  0
  -23.9610  -29.7040   21.0250 C   0  0  0  0  0  3  0  0  0  0  0  0
  -25.6010  -28.5840   19.4210 C   0  0  0  0  0  0  0  0  0  0  0  0
  -26.4110  -30.4230   20.9080 C   0  0  0  0  0  2  0  0  0  0  0  0
  -26.6770  -29.1730   20.0970 C   0  0  0  0  0  0  0  0  0  0  0  0
  -27.9680  -28.6070   20.0130 C   0  0  0  0  0  3  0  0  0  0  0  0
  -27.0910  -26.8700   18.5510 C   0  0  0  0  0  3  0  0  0  0  0  0
  -25.8010  -27.4280   18.6480 C   0  0  0  0  0  3  0  0  0  0  0  0
  -24.2510  -29.2520   19.5680 C   0  0  0  0  0  2  0  0  0  0  0  0
  -25.1350  -30.3900   21.6590 N   0  0  0  0  0  0  0  0  0  0  0  0
  -23.8800  -31.0610   23.4230 O   0  0  0  0  0  0  0  0  0  0  0  0
  -23.4590  -28.4840   21.8290 C   0  0  0  0  0  0  0  0  0  0  0  0
  -22.1760  -28.1330   21.6470 N   0  0  0  0  0  0  0  0  0  0  0  0
  -24.2220  -27.8600   22.5710 O   0  0  0  0  0  0  0  0  0  0  0  0
  -21.6130  -28.7020   21.0270 H   0  0  0  0  0  0  0  0  0  0  0  0
  -19.0050  -26.4220   21.8980 C   0  0  0  0  0  0  0  0  0  0  0  0
  -21.4970  -26.9970   22.2670 C   0  0  0  0  0  3  0  0  0  0  0  0
  -21.8070  -25.6840   21.5100 C   0  0  0  0  0  2  0  0  0  0  0  0
  -20.7700  -25.3480   20.4340 C   0  0  0  0  0  2  0  0  0  0  0  0
  -19.3760  -25.2130   21.0550 C   0  0  0  0  0  2  0  0  0  0  0  0
  -20.0010  -27.2690   22.4520 C   0  0  0  0  0  0  0  0  0  0  0  0
  -19.6010  -28.4000   23.1960 C   0  0  0  0  0  3  0  0  0  0  0  0
  -18.2370  -28.6890   23.3920 C   0  0  0  0  0  3  0  0  0  0  0  0
  -17.2560  -27.8380   22.8540 C   0  0  0  0  0  3  0  0  0  0  0  0
  -17.6410  -26.7060   22.1140 C   0  0  0  0  0  3  0  0  0  0  0  0
  -26.1800  -31.7160   23.5760 C   0  0  0  0  0  3  0  0  0  0  0  0
  -26.7690  -30.8770   24.7740 C   0  0  1  0  0  0  0  0  0  0  0  0
  -25.6990  -30.4030   25.7860 C   0  0  0  0  0  1  0  0  0  0  0  0
  -27.5120  -29.6250   24.2500 C   0  0  0  0  0  1  0  0  0  0  0  0
  -27.8130  -31.7200   25.5430 C   0  0  0  0  0  1  0  0  0  0  0  0
  -25.7100  -33.0270   24.0400 N   0  0  0  0  0  0  0  0  0  0  0  0
  -25.9600  -34.1890   23.4190 C   0  0  0  0  0  0  0  0  0  0  0  0
  -26.6800  -34.2730   22.4200 O   0  0  0  0  0  0  0  0  0  0  0  0
  -25.0710  -33.0270   24.8210 H   0  0  0  0  0  0  0  0  0  0  0  0
  -24.0640  -35.8200   23.1650 C   0  0  0  0  0  1  0  0  0  0  0  0
  -25.3050  -35.4570   23.9970 C   0  0  0  0  0  3  0  0  0  0  0  0
  -27.2920  -36.4540   25.0390 C   0  0  0  0  0  1  0  0  0  0  0  0
  -26.2210  -36.6170   24.0590 N   0  0  0  0  0  0  0  0  0  0  0  0
  -25.7110  -37.4660   24.2850 H   0  0  0  0  0  0  0  0  0  0  0  0
  2 11  1  0
  2  1  2  0
  3  1  1  0
  4  2  1  0
  5  4  1  0
  5  6  1  0
  6  7  1  1
  6  3  1  0
  8  9  2  0
  8 11  1  0
  9 13  1  0
 11 12  2  0
 12 10  1  0
 12 53  1  0
 13 22  1  0
 13 10  2  0
 14 22  1  0
 15 20  1  0
 16 17  1  0
 16 15  1  0
 18 17  1  0
 18 27  1  0
 18 19  1  0
 20 14  1  0
 20 19  1  0
 21 14  2  0
 22 23  1  0
 24 25  2  0
 25 44  1  0
 26 25  1  0
 26 29  1  0
 27 24  1  0
 27 28  1  0
 28 26  2  0
 29 30  1  0
 30 31  2  0
 32 35  1  0
 32 31  1  0
 33 32  2  0
 34 33  1  0
 34 29  2  0
 35 36  1  0
 36 41  2  0
 36 37  1  0
 37 38  2  0
 38 39  1  0
 39 43  1  0
 40 39  2  0
 41 40  1  0
 42 41  1  0
 44 45  1  0
 45 48  1  0
 45 47  1  0
 46 44  2  0
 49 50  1  0
 49 24  1  0
 51 49  1  0
 52 53  1  0
 54  6  1  0
 54 55  1  0
 56 58  1  0
 56 55  1  0
 57 68  2  0
 58 63  1  0
 59 67  1  0
 59 69  1  0
 60 66  1  0
 60 62  1  0
 61 67  1  0
 62 61  1  0
 63 62  2  0
 64 65  1  0
 64 58  2  0
 65 60  2  0
 66 59  1  0
 67 57  1  0
 69 71  2  0
 70 69  1  0
 72 70  1  0
 73 82  2  0
 73 78  1  0
 74 70  1  0
 74 78  1  0
 75 74  1  0
 76 77  1  0
 76 75  1  0
 77 73  1  0
 78 79  2  0
 79 80  1  0
 81 80  2  0
 82 81  1  0
 83 57  1  0
 83 88  1  0
 83 84  1  0
 84 87  1  1
 84 85  1  0
 86 84  1  0
 88 91  1  0
 89 93  1  0
 89 88  1  0
 90 89  2  0
 93 92  1  0
 93 95  1  0
 95 96  1  0
 95 94  1  0
M  ISO  4  14 100  22 100  55 101  56 101
M  END
>  <TORSDO>  (83) 
F 20

>  <SCORE>  (83) 
-9.577

>  <name>  (83) 
84

>  <ligand_id>  (83) 
84

>  <original_smiles>  (83) 
[H]C1=C(c2c([H])c([H])c(N([H])C(=O)N3C([H])([H])C([H])([H])C([H])([H])C([H])(n4nc(-c5c([H])c([H])c(Oc6c([H])c([H])c(F)c([H])c6F)c([H])c5[H])c(C(=O)N([H])[H])c4N([H])[H])C3([H])[H])c([H])c2C([H])([H])C([H])([H])[H])C([H])([H])C([H])([H])[N+]([H])(C([H])([H])C([H])([H])Oc2c([H])c([H])c3c(c2[H])C([H])([H])N(C(=O)C([H])(N([H])C(=O)C([H])(N([H])C([H])([H])[H])C([H])([H])[H])C(C([H])([H])[H])(C([H])([H])[H])C([H])([H])[H])C([H])(C(=O)N([H])C2([H])c4c([H])c([H])c([H])c([H])c4C([H])([H])C([H])([H])C2([H])[H])C3([H])[H])C1([H])[H]

>  <smiles>  (83) 
[H]C1=C(c2c([H])c([H])c(N([H])C(=O)N3C([H])([H])C([H])([H])C([H])([H])C([H])(n4nc(-c5c([H])c([H])c(Oc6c([H])c([H])c(F)c([H])c6F)c([H])c5[H])c(C(=O)N([H])[H])c4N([H])[H])C3([H])[H])c([H])c2C([H])([H])C([H])([H])[H])C([H])([H])C([H])([H])[N+]([H])(C([H])([H])C([H])([H])Oc2c([H])c([H])c3c(c2[H])C([H])([H])N(C(=O)C([H])(N([H])C(=O)C([H])(N([H])C([H])([H])[H])C([H])([H])[H])C(C([H])([H])[H])(C([H])([H])[H])C([H])([H])[H])C([H])(C(=O)N([H])C2([H])c4c([H])c([H])c([H])c([H])c4C([H])([H])C([H])([H])C2([H])[H])C3([H])[H])C1([H])[H]

$$$$
85:0:0
     RDKit          3D

 88 96  0  0  1  0  0  0  0  0999 V2000
  -28.7050  -22.1530   20.2790 C   0  0  0  0  0  3  0  0  0  0  0  0
  -29.1830  -18.5700   20.4600 C   0  0  0  0  0  0  0  0  0  0  0  0
  -30.0000  -17.2280   20.2750 C   0  0  0  0  0  0  0  0  0  0  0  0
  -29.9880  -19.8740   20.1200 C   0  0  0  0  0  0  0  0  0  0  0  0
  -31.3380  -17.7450   19.7580 C   0  0  0  0  0  3  0  0  0  0  0  0
  -31.3450  -19.3030   19.7320 C   0  0  0  0  0  3  0  0  0  0  0  0
  -29.6750  -15.9490   20.4840 N   0  0  0  0  0  0  0  0  0  0  0  0
  -29.8630  -21.2010   20.0650 N   0  0  0  0  0  0  0  0  0  0  0  0
  -28.0050  -18.5930   20.8400 O   0  0  0  0  0  0  0  0  0  0  0  0
  -30.5230  -14.8120   20.1980 C   0  0  0  0  0  0  0  0  0  0  0  0
  -30.3500  -12.5070   19.2320 C   0  0  0  0  0  2  0  0  0  0  0  0
  -29.3980  -12.5630   18.0170 C   0  0  0  0  0  2  0  0  0  0  0  0
  -27.9330  -12.3780   18.4620 C   0  0  0  0  0  2  0  0  0  0  0  0
  -27.5650  -13.2710   19.6770 C   0  0  0  0  0  3  0  0  0  0  0  0
  -28.6380  -13.2030   20.7810 C   0  0  0  0  0  2  0  0  0  0  0  0
  -29.9280  -13.5660   20.1790 N   0  0  0  0  0  0  0  0  0  0  0  0
  -31.6980  -14.8820   19.8290 O   0  0  0  0  0  0  0  0  0  0  0  0
  -25.1910  -13.8410   20.4640 C   0  0  0  0  0  0  0  0  0  0  0  0
  -24.1340  -13.0590   20.8440 C   0  0  0  0  0  0  0  0  0  0  0  0
  -24.6020  -11.7100   20.7880 C   0  0  0  0  0  0  0  0  0  0  0  0
  -26.2320  -12.9690   20.1930 N   0  0  0  0  0  0  0  0  0  0  0  0
  -25.8860  -11.6810   20.4510 N   0  0  0  0  0  0  0  0  0  0  0  0
  -23.8830  -10.4430   20.9780 C   0  0  0  0  0  0  0  0  0  0  0  0
  -24.3120   -9.4840   21.9220 C   0  0  0  0  0  3  0  0  0  0  0  0
  -23.5930   -8.2830   22.1000 C   0  0  0  0  0  3  0  0  0  0  0  0
  -22.4290   -8.0310   21.3350 C   0  0  0  0  0  0  0  0  0  0  0  0
  -22.0200   -8.9790   20.3800 C   0  0  0  0  0  3  0  0  0  0  0  0
  -22.7400  -10.1720   20.2000 C   0  0  0  0  0  3  0  0  0  0  0  0
  -21.6820   -6.8810   21.4200 O   0  0  0  0  0  0  0  0  0  0  0  0
  -21.5930   -6.1670   22.5880 C   0  0  0  0  0  0  0  0  0  0  0  0
  -21.0860   -6.7400   23.7750 C   0  0  0  0  0  3  0  0  0  0  0  0
  -20.9460   -5.9500   24.9330 C   0  0  0  0  0  3  0  0  0  0  0  0
  -21.3020   -4.5890   24.9050 C   0  0  0  0  0  0  0  0  0  0  0  0
  -21.8020   -4.0150   23.7230 C   0  0  0  0  0  3  0  0  0  0  0  0
  -21.9430   -4.8030   22.5670 C   0  0  0  0  0  0  0  0  0  0  0  0
  -22.4050   -4.2390   21.4240 F   0  0  0  0  0  0  0  0  0  0  0  0
  -21.1610   -3.8280   26.0160 F   0  0  0  0  0  0  0  0  0  0  0  0
  -22.7420  -13.5280   21.1500 C   0  0  0  0  0  0  0  0  0  0  0  0
  -22.0350  -12.8220   22.0250 N   0  0  0  0  0  0  0  0  0  0  0  0
  -22.2890  -14.5570   20.6480 O   0  0  0  0  0  0  0  0  0  0  0  0
  -22.4140  -11.9900   22.4530 H   0  0  0  0  0  0  0  0  0  0  0  0
  -21.1010  -13.1180   22.2710 H   0  0  0  0  0  0  0  0  0  0  0  0
  -25.3490  -15.2150   20.3050 N   0  0  0  0  0  0  0  0  0  0  0  0
  -24.5980  -15.8760   20.4650 H   0  0  0  0  0  0  0  0  0  0  0  0
  -26.2200  -15.6590   20.0360 H   0  0  0  0  0  0  0  0  0  0  0  0
  -29.1000  -23.7420   20.2460 C   0  0  0  0  0  3  0  0  0  0  0  0
  -27.9810  -24.9060   20.0550 C   0  0  0  0  0  2  0  0  0  0  0  0
  -28.2560  -26.3900   20.1880 O   0  0  0  0  0  0  0  0  0  0  0  0
  -24.5850  -31.8860   23.2540 C   0  0  0  0  0  0  0  0  0  0  0  0
  -27.1640  -27.2980   20.1470 C   0  0  0  0  0  0  0  0  0  0  0  0
  -23.3750  -30.5080   21.6030 C   0  0  0  0  0  3  0  0  0  0  0  0
  -24.8170  -28.9660   20.1560 C   0  0  0  0  0  0  0  0  0  0  0  0
  -25.9210  -30.8060   21.4210 C   0  0  0  0  0  2  0  0  0  0  0  0
  -25.9940  -29.4300   20.7560 C   0  0  0  0  0  0  0  0  0  0  0  0
  -27.1720  -28.6110   20.7360 C   0  0  0  0  0  3  0  0  0  0  0  0
  -25.9570  -26.9090   19.5200 C   0  0  0  0  0  3  0  0  0  0  0  0
  -24.8040  -27.7160   19.5270 C   0  0  0  0  0  3  0  0  0  0  0  0
  -23.5850  -29.8490   20.2160 C   0  0  0  0  0  2  0  0  0  0  0  0
  -24.6460  -31.0850   22.1490 N   0  0  0  0  0  0  0  0  0  0  0  0
  -23.5020  -32.1620   23.7900 O   0  0  0  0  0  0  0  0  0  0  0  0
  -22.7080  -29.4850   22.5550 C   0  0  0  0  0  0  0  0  0  0  0  0
  -21.3800  -29.3110   22.4270 N   0  0  0  0  0  0  0  0  0  0  0  0
  -23.3840  -28.8510   23.3690 O   0  0  0  0  0  0  0  0  0  0  0  0
  -20.8930  -29.8770   21.7450 H   0  0  0  0  0  0  0  0  0  0  0  0
  -18.0010  -28.1140   22.9220 C   0  0  0  0  0  0  0  0  0  0  0  0
  -20.5600  -28.3670   23.1900 C   0  0  0  0  0  3  0  0  0  0  0  0
  -20.6580  -26.9410   22.6010 C   0  0  0  0  0  2  0  0  0  0  0  0
  -19.5530  -26.6300   21.5860 C   0  0  0  0  0  2  0  0  0  0  0  0
  -18.1740  -26.7710   22.2340 C   0  0  0  0  0  2  0  0  0  0  0  0
  -19.1210  -28.8710   23.3580 C   0  0  0  0  0  0  0  0  0  0  0  0
  -18.9040  -30.1280   23.9630 C   0  0  0  0  0  3  0  0  0  0  0  0
  -17.6010  -30.6290   24.1370 C   0  0  0  0  0  3  0  0  0  0  0  0
  -16.4950  -29.8700   23.7170 C   0  0  0  0  0  3  0  0  0  0  0  0
  -16.6950  -28.6150   23.1160 C   0  0  0  0  0  3  0  0  0  0  0  0
  -25.8690  -32.5110   23.8800 C   0  0  0  0  0  3  0  0  0  0  0  0
  -26.3720  -31.7380   25.1610 C   0  0  1  0  0  0  0  0  0  0  0  0
  -25.2710  -31.5120   26.2240 C   0  0  0  0  0  1  0  0  0  0  0  0
  -26.9470  -30.3550   24.7770 C   0  0  0  0  0  1  0  0  0  0  0  0
  -27.5240  -32.5260   25.8290 C   0  0  0  0  0  1  0  0  0  0  0  0
  -25.5680  -33.9110   24.2090 N   0  0  0  0  0  0  0  0  0  0  0  0
  -25.8750  -34.9600   23.4340 C   0  0  0  0  0  0  0  0  0  0  0  0
  -26.5110  -34.8500   22.3820 O   0  0  0  0  0  0  0  0  0  0  0  0
  -25.0000  -34.0710   25.0280 H   0  0  0  0  0  0  0  0  0  0  0  0
  -24.1190  -36.7400   23.1460 C   0  0  0  0  0  1  0  0  0  0  0  0
  -25.4020  -36.3520   23.8980 C   0  0  0  0  0  3  0  0  0  0  0  0
  -27.5670  -37.2640   24.6140 C   0  0  0  0  0  1  0  0  0  0  0  0
  -26.4210  -37.4100   23.7200 N   0  0  0  0  0  0  0  0  0  0  0  0
  -26.0160  -38.3290   23.8700 H   0  0  0  0  0  0  0  0  0  0  0  0
  2  9  2  0
  3  2  1  0
  3  7  2  0
  4  2  1  0
  5  3  1  0
  6  5  2  0
  6  4  1  0
  8  4  2  0
  8  1  1  0
 10  7  1  0
 11 16  1  0
 12 13  1  0
 12 11  1  0
 14 13  1  0
 14 21  1  0
 14 15  1  0
 16 10  1  0
 16 15  1  0
 17 10  2  0
 18 19  2  0
 19 38  1  0
 20 19  1  0
 20 23  1  0
 21 22  1  0
 21 18  1  0
 22 20  2  0
 23 24  1  0
 24 25  2  0
 26 29  1  0
 26 25  1  0
 27 26  2  0
 28 27  1  0
 28 23  2  0
 29 30  1  0
 30 31  1  0
 31 32  2  0
 33 32  1  0
 33 37  1  0
 34 33  2  0
 35 30  2  0
 35 34  1  0
 36 35  1  0
 38 39  1  0
 39 42  1  0
 39 41  1  0
 40 38  2  0
 43 18  1  0
 43 44  1  0
 45 43  1  0
 46  1  2  0
 47 48  1  0
 47 46  1  0
 49 60  2  0
 50 48  1  0
 50 55  1  0
 51 59  1  0
 51 61  1  0
 52 58  1  0
 52 54  1  0
 53 59  1  0
 54 53  1  0
 55 54  2  0
 56 57  1  0
 56 50  2  0
 57 52  2  0
 58 51  1  0
 59 49  1  0
 61 63  2  0
 62 61  1  0
 64 62  1  0
 65 74  2  0
 65 70  1  0
 66 62  1  0
 66 70  1  0
 67 66  1  0
 68 69  1  0
 68 67  1  0
 69 65  1  0
 70 71  2  0
 71 72  1  0
 73 72  2  0
 74 73  1  0
 75 49  1  0
 75 80  1  0
 75 76  1  0
 76 79  1  1
 76 77  1  0
 78 76  1  0
 80 83  1  0
 81 85  1  0
 81 80  1  0
 82 81  2  0
 85 84  1  0
 87 88  1  0
 87 85  1  0
 87 86  1  0
M  ISO  4   7 100  10 100  47 101  48 101
M  END
>  <TORSDO>  (84) 
F 19

>  <SCORE>  (84) 
-14.088

>  <name>  (84) 
85

>  <ligand_id>  (84) 
85

>  <original_smiles>  (84) 
[H]c1c([H])c([H])c2c(c1[H])C([H])([H])C([H])([H])C([H])([H])C2([H])N([H])C(=O)C1([H])N(C(=O)C([H])(N([H])C(=O)C([H])(N([H])C([H])([H])[H])C([H])([H])[H])C(C([H])([H])[H])(C([H])([H])[H])C([H])([H])[H])C([H])([H])c2c([H])c(OC([H])([H])C([H])([H])C([H])([H])N=C3C(=O)C(=NC(=O)N4C([H])([H])C([H])([H])C([H])([H])C([H])(n5nc(-c6c([H])c([H])c(Oc7c([H])c([H])c(F)c([H])c7F)c([H])c6[H])c(C(=O)N([H])[H])c5N([H])[H])C4([H])[H])C([H])([H])C3([H])[H])c([H])c([H])c2C1([H])[H]

>  <smiles>  (84) 
[H]c1c([H])c([H])c2c(c1[H])C([H])([H])C([H])([H])C([H])([H])C2([H])N([H])C(=O)C1([H])N(C(=O)C([H])(N([H])C(=O)C([H])(N([H])C([H])([H])[H])C([H])([H])[H])C(C([H])([H])[H])(C([H])([H])[H])C([H])([H])[H])C([H])([H])c2c([H])c(OC([H])([H])C([H])([H])C([H])([H])N=C3C(=O)C(=NC(=O)N4C([H])([H])C([H])([H])C([H])([H])C([H])(n5nc(-c6c([H])c([H])c(Oc7c([H])c([H])c(F)c([H])c7F)c([H])c6[H])c(C(=O)N([H])[H])c5N([H])[H])C4([H])[H])C([H])([H])C3([H])[H])c([H])c([H])c2C1([H])[H]

$$$$
86:0:0
     RDKit          3D

 96106  0  0  1  0  0  0  0  0999 V2000
  -28.5460  -20.7170   19.3250 C   0  0  0  0  0  2  0  0  0  0  0  0
  -28.9580  -21.4540   17.1180 C   0  0  0  0  0  2  0  0  0  0  0  0
  -30.4420  -22.7740   18.3540 C   0  0  0  0  0  2  0  0  0  0  0  0
  -30.0250  -20.3960   19.0100 C   0  0  0  0  0  3  0  0  0  0  0  0
  -30.3100  -21.3480   17.8160 C   0  0  0  0  0  3  0  0  0  0  0  0
  -28.2610  -21.9130   18.3970 C   0  0  0  0  0  3  0  0  0  0  0  0
  -29.0770  -23.0690   18.8510 N   0  0  2  0  0  4  0  0  0  0  0  0
  -29.0940  -23.0420   19.8600 H   0  0  0  0  0  0  0  0  0  0  0  0
  -31.3070  -17.1240   17.4560 C   0  0  0  0  0  3  0  0  0  0  0  0
  -30.8880  -18.4550   17.5810 C   0  0  0  0  0  3  0  0  0  0  0  0
  -31.1450  -16.2410   18.5290 C   0  0  0  0  0  3  0  0  0  0  0  0
  -30.0980  -17.9980   19.8500 C   0  0  0  0  0  3  0  0  0  0  0  0
  -30.3240  -18.9150   18.7930 C   0  0  0  0  0  0  0  0  0  0  0  0
  -30.5080  -16.6510   19.7280 C   0  0  0  0  0  0  0  0  0  0  0  0
  -30.9960  -14.6150   20.9520 C   0  0  0  0  0  0  0  0  0  0  0  0
  -30.7390  -12.4230   19.9220 C   0  0  0  0  0  2  0  0  0  0  0  0
  -29.9040  -12.5930   18.6330 C   0  0  0  0  0  2  0  0  0  0  0  0
  -28.4010  -12.4940   18.9440 C   0  0  0  0  0  2  0  0  0  0  0  0
  -27.9640  -13.3920   20.1320 C   0  0  0  0  0  3  0  0  0  0  0  0
  -28.9220  -13.2400   21.3390 C   0  0  0  0  0  2  0  0  0  0  0  0
  -30.2980  -13.4540   20.8680 N   0  0  0  0  0  0  0  0  0  0  0  0
  -32.2190  -14.6890   20.8270 O   0  0  0  0  0  0  0  0  0  0  0  0
  -30.2570  -15.7190   20.7810 N   0  0  0  0  0  0  0  0  0  0  0  0
  -29.3000  -15.6590   21.0960 H   0  0  0  0  0  0  0  0  0  0  0  0
  -25.5110  -14.0170   20.6050 C   0  0  0  0  0  0  0  0  0  0  0  0
  -24.4130  -13.2520   20.8960 C   0  0  0  0  0  0  0  0  0  0  0  0
  -24.8750  -11.9020   20.9580 C   0  0  0  0  0  0  0  0  0  0  0  0
  -26.5740  -13.1320   20.5030 N   0  0  0  0  0  0  0  0  0  0  0  0
  -26.1900  -11.8580   20.7750 N   0  0  0  0  0  0  0  0  0  0  0  0
  -24.1370  -10.6420   21.1170 C   0  0  0  0  0  0  0  0  0  0  0  0
  -24.5070   -9.6890   22.0920 C   0  0  0  0  0  3  0  0  0  0  0  0
  -23.7710   -8.4930   22.2400 C   0  0  0  0  0  3  0  0  0  0  0  0
  -22.6510   -8.2430   21.4120 C   0  0  0  0  0  0  0  0  0  0  0  0
  -22.3000   -9.1850   20.4280 C   0  0  0  0  0  3  0  0  0  0  0  0
  -23.0390  -10.3710   20.2780 C   0  0  0  0  0  3  0  0  0  0  0  0
  -21.8920   -7.0980   21.4660 O   0  0  0  0  0  0  0  0  0  0  0  0
  -21.7750   -6.3670   22.6210 C   0  0  0  0  0  0  0  0  0  0  0  0
  -21.2710   -6.9310   23.8130 C   0  0  0  0  0  3  0  0  0  0  0  0
  -21.1050   -6.1250   24.9580 C   0  0  0  0  0  3  0  0  0  0  0  0
  -21.4330   -4.7570   24.9090 C   0  0  0  0  0  0  0  0  0  0  0  0
  -21.9300   -4.1920   23.7220 C   0  0  0  0  0  3  0  0  0  0  0  0
  -22.0990   -4.9960   22.5800 C   0  0  0  0  0  0  0  0  0  0  0  0
  -22.5590   -4.4450   21.4320 F   0  0  0  0  0  0  0  0  0  0  0  0
  -21.2660   -3.9790   26.0050 F   0  0  0  0  0  0  0  0  0  0  0  0
  -22.9950  -13.7310   21.0150 C   0  0  0  0  0  0  0  0  0  0  0  0
  -22.1940  -13.0780   21.8490 N   0  0  0  0  0  0  0  0  0  0  0  0
  -22.6000  -14.7230   20.4020 O   0  0  0  0  0  0  0  0  0  0  0  0
  -22.5220  -12.2790   22.3720 H   0  0  0  0  0  0  0  0  0  0  0  0
  -21.2380  -13.3820   21.9720 H   0  0  0  0  0  0  0  0  0  0  0  0
  -25.6940  -15.3810   20.3930 N   0  0  0  0  0  0  0  0  0  0  0  0
  -24.9150  -16.0310   20.3910 H   0  0  0  0  0  0  0  0  0  0  0  0
  -26.5660  -15.8010   20.1040 H   0  0  0  0  0  0  0  0  0  0  0  0
  -28.5360  -24.3950   18.4770 C   0  0  0  0  0  2  0  0  0  0  0  0
  -29.5760  -25.5310   18.6060 C   0  0  0  0  0  2  0  0  0  0  0  0
  -28.9160  -26.8910   18.8020 C   0  0  0  0  0  2  0  0  0  0  0  0
  -28.2990  -26.8650   20.0810 O   0  0  0  0  0  0  0  0  0  0  0  0
  -24.5280  -31.9390   23.2700 C   0  0  0  0  0  0  0  0  0  0  0  0
  -27.1190  -27.5490   20.1350 C   0  0  0  0  0  0  0  0  0  0  0  0
  -23.2910  -30.5440   21.6430 C   0  0  0  0  0  3  0  0  0  0  0  0
  -24.7180  -29.0080   20.2000 C   0  0  0  0  0  0  0  0  0  0  0  0
  -25.8070  -30.9110   21.4020 C   0  0  0  0  0  2  0  0  0  0  0  0
  -25.8800  -29.5420   20.7700 C   0  0  0  0  0  0  0  0  0  0  0  0
  -27.0840  -28.8130   20.7490 C   0  0  0  0  0  3  0  0  0  0  0  0
  -25.9450  -27.0070   19.5720 C   0  0  0  0  0  3  0  0  0  0  0  0
  -24.7400  -27.7300   19.6080 C   0  0  0  0  0  3  0  0  0  0  0  0
  -23.4780  -29.8680   20.2580 C   0  0  0  0  0  2  0  0  0  0  0  0
  -24.5600  -31.1450   22.1630 N   0  0  0  0  0  0  0  0  0  0  0  0
  -23.4580  -32.2100   23.8310 O   0  0  0  0  0  0  0  0  0  0  0  0
  -22.6560  -29.5210   22.6110 C   0  0  0  0  0  0  0  0  0  0  0  0
  -21.3380  -29.3060   22.4730 N   0  0  0  0  0  0  0  0  0  0  0  0
  -23.3470  -28.9220   23.4410 O   0  0  0  0  0  0  0  0  0  0  0  0
  -20.8440  -29.8410   21.7730 H   0  0  0  0  0  0  0  0  0  0  0  0
  -17.9960  -28.0100   22.9100 C   0  0  0  0  0  0  0  0  0  0  0  0
  -20.5330  -28.3630   23.2490 C   0  0  0  0  0  3  0  0  0  0  0  0
  -20.7040  -26.9210   22.7200 C   0  0  0  0  0  2  0  0  0  0  0  0
  -19.6440  -26.5310   21.6850 C   0  0  0  0  0  2  0  0  0  0  0  0
  -18.2380  -26.6460   22.2830 C   0  0  0  0  0  2  0  0  0  0  0  0
  -19.0750  -28.8220   23.3480 C   0  0  0  0  0  0  0  0  0  0  0  0
  -18.7980  -30.0940   23.8940 C   0  0  0  0  0  3  0  0  0  0  0  0
  -17.4750  -30.5570   24.0060 C   0  0  0  0  0  3  0  0  0  0  0  0
  -16.4080  -29.7440   23.5830 C   0  0  0  0  0  3  0  0  0  0  0  0
  -16.6690  -28.4720   23.0420 C   0  0  0  0  0  3  0  0  0  0  0  0
  -25.8290  -32.5640   23.8660 C   0  0  0  0  0  3  0  0  0  0  0  0
  -26.3540  -31.8040   25.1440 C   0  0  1  0  0  0  0  0  0  0  0  0
  -25.2730  -31.5870   26.2290 C   0  0  0  0  0  1  0  0  0  0  0  0
  -26.9210  -30.4190   24.7550 C   0  0  0  0  0  1  0  0  0  0  0  0
  -27.5180  -32.5970   25.7830 C   0  0  0  0  0  1  0  0  0  0  0  0
  -25.5400  -33.9690   24.1800 N   0  0  0  0  0  0  0  0  0  0  0  0
  -25.8950  -35.0070   23.4100 C   0  0  0  0  0  0  0  0  0  0  0  0
  -26.5720  -34.8820   22.3870 O   0  0  0  0  0  0  0  0  0  0  0  0
  -24.9400  -34.1360   24.9730 H   0  0  0  0  0  0  0  0  0  0  0  0
  -24.2120  -36.8290   22.9920 C   0  0  0  0  0  1  0  0  0  0  0  0
  -25.4210  -36.4080   23.8430 C   0  0  0  0  0  3  0  0  0  0  0  0
  -27.5470  -37.2560   24.7330 C   0  0  0  0  0  1  0  0  0  0  0  0
  -26.4770  -37.4410   23.7540 N   0  0  0  0  0  0  0  0  0  0  0  0
  -26.0840  -38.3690   23.8870 H   0  0  0  0  0  0  0  0  0  0  0  0
  3  7  1  0
  4 13  1  0
  4  1  1  0
  5  2  1  0
  5  3  1  0
  5  4  1  0
  6  2  1  0
  6  7  1  0
  6  1  1  0
  7  8  1  1
  9 10  2  0
  9 11  1  0
 10 13  1  0
 11 14  2  0
 13 12  2  0
 14 12  1  0
 14 23  1  0
 16 21  1  0
 17 18  1  0
 17 16  1  0
 19 18  1  0
 19 28  1  0
 19 20  1  0
 21 15  1  0
 21 20  1  0
 22 15  2  0
 23 15  1  0
 23 24  1  0
 25 26  2  0
 26 27  1  0
 26 45  1  0
 27 30  1  0
 28 25  1  0
 28 29  1  0
 29 27  2  0
 30 31  1  0
 31 32  2  0
 33 36  1  0
 33 32  1  0
 34 33  2  0
 35 34  1  0
 35 30  2  0
 36 37  1  0
 37 38  1  0
 38 39  2  0
 40 39  1  0
 40 44  1  0
 41 40  2  0
 42 37  2  0
 42 41  1  0
 43 42  1  0
 45 46  1  0
 46 49  1  0
 46 48  1  0
 47 45  2  0
 50 25  1  0
 51 50  1  0
 52 50  1  0
 53 54  1  0
 53  7  1  0
 54 55  1  0
 55 56  1  0
 56 58  1  0
 57 68  2  0
 58 63  1  0
 59 67  1  0
 59 69  1  0
 60 66  1  0
 60 62  1  0
 61 67  1  0
 62 61  1  0
 63 62  2  0
 64 65  1  0
 64 58  2  0
 65 60  2  0
 66 59  1  0
 67 57  1  0
 69 71  2  0
 70 69  1  0
 72 70  1  0
 73 82  2  0
 73 78  1  0
 74 70  1  0
 74 78  1  0
 75 74  1  0
 76 77  1  0
 76 75  1  0
 77 73  1  0
 78 79  2  0
 79 80  1  0
 81 80  2  0
 82 81  1  0
 83 57  1  0
 83 88  1  0
 83 84  1  0
 84 87  1  1
 84 85  1  0
 86 84  1  0
 88 91  1  0
 89 93  1  0
 89 88  1  0
 90 89  2  0
 93 92  1  0
 95 93  1  0
 95 96  1  0
 95 94  1  0
M  ISO  4  15 100  23 100  55 101  56 101
M  END
>  <TORSDO>  (85) 
F 20

>  <SCORE>  (85) 
-13.544

>  <name>  (85) 
86

>  <ligand_id>  (85) 
86

>  <original_smiles>  (85) 
[H]c1c([H])c([H])c2c(c1[H])C([H])([H])C([H])([H])C([H])([H])C2([H])N([H])C(=O)C1([H])N(C(=O)C([H])(N([H])C(=O)C([H])(N([H])C([H])([H])[H])C([H])([H])[H])C(C([H])([H])[H])(C([H])([H])[H])C([H])([H])[H])C([H])([H])c2c([H])c(OC([H])([H])C([H])([H])C([H])([H])[N+]3([H])C([H])([H])C4([H])C([H])([H])C3([H])C([H])([H])C4([H])c3c([H])c([H])c([H])c(N([H])C(=O)N4C([H])([H])C([H])([H])C([H])([H])C([H])(n5nc(-c6c([H])c([H])c(Oc7c([H])c([H])c(F)c([H])c7F)c([H])c6[H])c(C(=O)N([H])[H])c5N([H])[H])C4([H])[H])c3[H])c([H])c([H])c2C1([H])[H]

>  <smiles>  (85) 
[H]c1c([H])c([H])c2c(c1[H])C([H])([H])C([H])([H])C([H])([H])C2([H])N([H])C(=O)C1([H])N(C(=O)C([H])(N([H])C(=O)C([H])(N([H])C([H])([H])[H])C([H])([H])[H])C(C([H])([H])[H])(C([H])([H])[H])C([H])([H])[H])C([H])([H])c2c([H])c(OC([H])([H])C([H])([H])C([H])([H])[N+]3([H])C([H])([H])C4([H])C([H])([H])C3([H])C([H])([H])C4([H])c3c([H])c([H])c([H])c(N([H])C(=O)N4C([H])([H])C([H])([H])C([H])([H])C([H])(n5nc(-c6c([H])c([H])c(Oc7c([H])c([H])c(F)c([H])c7F)c([H])c6[H])c(C(=O)N([H])[H])c5N([H])[H])C4([H])[H])c3[H])c([H])c([H])c2C1([H])[H]

$$$$
87:0:0
     RDKit          3D

 91100  0  0  1  0  0  0  0  0999 V2000
  -31.6400  -19.3420   20.7000 C   0  0  0  0  0  3  0  0  0  0  0  0
  -31.3510  -17.9460   20.6810 C   0  0  0  0  0  3  0  0  0  0  0  0
  -28.9940  -18.4610   20.3980 C   0  0  0  0  0  3  0  0  0  0  0  0
  -30.6090  -20.3010   20.5650 C   0  0  0  0  0  0  0  0  0  0  0  0
  -29.2940  -19.8880   20.4070 C   0  0  0  0  0  0  0  0  0  0  0  0
  -30.0290  -17.4370   20.5320 C   0  0  0  0  0  0  0  0  0  0  0  0
  -30.7080  -21.7990   20.5650 C   0  0  0  0  0  0  0  0  0  0  0  0
  -29.3570  -22.4270   20.3770 C   0  0  0  0  0  0  0  0  0  0  0  0
  -29.2150  -23.8260   20.3190 C   0  0  0  0  0  3  0  0  0  0  0  0
  -28.4020  -21.1790   20.2720 C   0  0  0  0  0  2  0  0  0  0  0  0
  -31.7670  -22.4210   20.7000 O   0  0  0  0  0  0  0  0  0  0  0  0
  -30.5510  -14.8250   20.3780 C   0  0  0  0  0  0  0  0  0  0  0  0
  -30.3780  -12.5300   19.3810 C   0  0  0  0  0  2  0  0  0  0  0  0
  -29.4360  -12.5710   18.1570 C   0  0  0  0  0  2  0  0  0  0  0  0
  -27.9700  -12.3820   18.5930 C   0  0  0  0  0  2  0  0  0  0  0  0
  -27.5870  -13.2780   19.8010 C   0  0  0  0  0  3  0  0  0  0  0  0
  -28.6490  -13.2170   20.9210 C   0  0  0  0  0  2  0  0  0  0  0  0
  -29.9360  -13.5900   20.3190 N   0  0  0  0  0  0  0  0  0  0  0  0
  -31.7430  -14.9100   20.0700 O   0  0  0  0  0  0  0  0  0  0  0  0
  -29.7520  -15.9600   20.5560 N   0  0  0  0  0  0  0  0  0  0  0  0
  -28.7800  -15.7250   20.6850 H   0  0  0  0  0  0  0  0  0  0  0  0
  -25.2000  -13.8550   20.5380 C   0  0  0  0  0  0  0  0  0  0  0  0
  -24.1390  -13.0760   20.9110 C   0  0  0  0  0  0  0  0  0  0  0  0
  -24.6080  -11.7270   20.8770 C   0  0  0  0  0  0  0  0  0  0  0  0
  -26.2470  -12.9810   20.2970 N   0  0  0  0  0  0  0  0  0  0  0  0
  -25.8990  -11.6950   20.5650 N   0  0  0  0  0  0  0  0  0  0  0  0
  -23.8870  -10.4610   21.0650 C   0  0  0  0  0  0  0  0  0  0  0  0
  -24.3290   -9.4900   21.9900 C   0  0  0  0  0  3  0  0  0  0  0  0
  -23.6080   -8.2890   22.1660 C   0  0  0  0  0  3  0  0  0  0  0  0
  -22.4300   -8.0520   21.4180 C   0  0  0  0  0  0  0  0  0  0  0  0
  -22.0060   -9.0130   20.4840 C   0  0  0  0  0  3  0  0  0  0  0  0
  -22.7290  -10.2040   20.3050 C   0  0  0  0  0  3  0  0  0  0  0  0
  -21.6780   -6.9050   21.5060 O   0  0  0  0  0  0  0  0  0  0  0  0
  -21.6420   -6.1540   22.6530 C   0  0  0  0  0  0  0  0  0  0  0  0
  -21.2230   -6.6970   23.8870 C   0  0  0  0  0  3  0  0  0  0  0  0
  -21.1350   -5.8710   25.0250 C   0  0  0  0  0  3  0  0  0  0  0  0
  -21.4560   -4.5030   24.9310 C   0  0  0  0  0  0  0  0  0  0  0  0
  -21.8690   -3.9610   23.7030 C   0  0  0  0  0  3  0  0  0  0  0  0
  -21.9590   -4.7820   22.5660 C   0  0  0  0  0  0  0  0  0  0  0  0
  -22.3360   -4.2490   21.3790 F   0  0  0  0  0  0  0  0  0  0  0  0
  -21.3650   -3.7090   26.0230 F   0  0  0  0  0  0  0  0  0  0  0  0
  -22.7400  -13.5470   21.1820 C   0  0  0  0  0  0  0  0  0  0  0  0
  -22.0170  -12.8490   22.0510 N   0  0  0  0  0  0  0  0  0  0  0  0
  -22.2970  -14.5690   20.6600 O   0  0  0  0  0  0  0  0  0  0  0  0
  -22.3880  -12.0230   22.4960 H   0  0  0  0  0  0  0  0  0  0  0  0
  -21.0780  -13.1470   22.2760 H   0  0  0  0  0  0  0  0  0  0  0  0
  -25.3560  -15.2270   20.3600 N   0  0  0  0  0  0  0  0  0  0  0  0
  -24.5780  -15.8700   20.4610 H   0  0  0  0  0  0  0  0  0  0  0  0
  -26.1840  -15.6680   19.9820 H   0  0  0  0  0  0  0  0  0  0  0  0
  -28.0220  -24.8560   20.0910 C   0  0  0  0  0  2  0  0  0  0  0  0
  -28.2780  -26.3470   20.2480 O   0  0  0  0  0  0  0  0  0  0  0  0
  -24.6420  -31.9050   23.2610 C   0  0  0  0  0  0  0  0  0  0  0  0
  -27.1920  -27.2650   20.1950 C   0  0  0  0  0  0  0  0  0  0  0  0
  -23.4230  -30.5220   21.6240 C   0  0  0  0  0  3  0  0  0  0  0  0
  -24.8550  -28.9560   20.1880 C   0  0  0  0  0  0  0  0  0  0  0  0
  -25.9720  -30.7990   21.4370 C   0  0  0  0  0  2  0  0  0  0  0  0
  -26.0360  -29.4160   20.7840 C   0  0  0  0  0  0  0  0  0  0  0  0
  -27.2080  -28.5860   20.7720 C   0  0  0  0  0  3  0  0  0  0  0  0
  -25.9840  -26.8810   19.5710 C   0  0  0  0  0  3  0  0  0  0  0  0
  -24.8360  -27.6970   19.5690 C   0  0  0  0  0  3  0  0  0  0  0  0
  -23.6300  -29.8490   20.2420 C   0  0  0  0  0  2  0  0  0  0  0  0
  -24.6990  -31.0940   22.1630 N   0  0  0  0  0  0  0  0  0  0  0  0
  -23.5610  -32.1930   23.7980 O   0  0  0  0  0  0  0  0  0  0  0  0
  -22.7500  -29.5110   22.5850 C   0  0  0  0  0  0  0  0  0  0  0  0
  -21.4220  -29.3440   22.4600 N   0  0  0  0  0  0  0  0  0  0  0  0
  -23.4230  -28.8790   23.4040 O   0  0  0  0  0  0  0  0  0  0  0  0
  -20.9370  -29.9040   21.7730 H   0  0  0  0  0  0  0  0  0  0  0  0
  -18.0370  -28.1610   22.9620 C   0  0  0  0  0  0  0  0  0  0  0  0
  -20.5970  -28.4110   23.2320 C   0  0  0  0  0  3  0  0  0  0  0  0
  -20.6930  -26.9780   22.6600 C   0  0  0  0  0  2  0  0  0  0  0  0
  -19.5900  -26.6590   21.6450 C   0  0  0  0  0  2  0  0  0  0  0  0
  -18.2100  -26.8100   22.2880 C   0  0  0  0  0  2  0  0  0  0  0  0
  -19.1590  -28.9200   23.3910 C   0  0  0  0  0  0  0  0  0  0  0  0
  -18.9440  -30.1830   23.9830 C   0  0  0  0  0  3  0  0  0  0  0  0
  -17.6420  -30.6890   24.1480 C   0  0  0  0  0  3  0  0  0  0  0  0
  -16.5350  -29.9290   23.7350 C   0  0  0  0  0  3  0  0  0  0  0  0
  -16.7330  -28.6660   23.1480 C   0  0  0  0  0  3  0  0  0  0  0  0
  -25.9300  -32.5290   23.8820 C   0  0  0  0  0  3  0  0  0  0  0  0
  -25.6280  -33.9270   24.2250 N   0  0  0  0  0  0  0  0  0  0  0  0
  -25.9330  -34.9830   23.4590 C   0  0  0  0  0  0  0  0  0  0  0  0
  -26.5680  -34.8820   22.4060 O   0  0  0  0  0  0  0  0  0  0  0  0
  -25.0590  -34.0780   25.0450 H   0  0  0  0  0  0  0  0  0  0  0  0
  -24.1820  -36.7680   23.1840 C   0  0  0  0  0  1  0  0  0  0  0  0
  -25.4620  -36.3700   23.9360 C   0  0  0  0  0  3  0  0  0  0  0  0
  -27.6280  -37.2680   24.6670 C   0  0  0  0  0  1  0  0  0  0  0  0
  -26.4830  -37.4280   23.7740 N   0  0  0  0  0  0  0  0  0  0  0  0
  -26.0790  -38.3460   23.9380 H   0  0  0  0  0  0  0  0  0  0  0  0
  -26.4450  -31.7480   25.1540 C   0  0  1  0  0  0  0  0  0  0  0  0
  -25.3550  -31.5130   26.2250 C   0  0  0  0  0  1  0  0  0  0  0  0
  -27.0180  -30.3680   24.7560 C   0  0  0  0  0  1  0  0  0  0  0  0
  -27.6040  -32.5320   25.8150 C   0  0  0  0  0  1  0  0  0  0  0  0
  2  1  1  0
  3  5  2  0
  3  6  1  0
  4  7  1  0
  4  1  2  0
  5  4  1  0
  6 20  1  0
  6  2  2  0
  7 11  2  0
  8  7  1  0
  9  8  2  0
 10  8  1  0
 10  5  1  0
 12 20  1  0
 13 18  1  0
 14 15  1  0
 14 13  1  0
 16 15  1  0
 16 25  1  0
 16 17  1  0
 18 12  1  0
 18 17  1  0
 19 12  2  0
 20 21  1  0
 22 23  2  0
 23 42  1  0
 24 23  1  0
 24 27  1  0
 25 22  1  0
 25 26  1  0
 26 24  2  0
 27 28  1  0
 28 29  2  0
 30 33  1  0
 30 29  1  0
 31 30  2  0
 32 31  1  0
 32 27  2  0
 33 34  1  0
 34 35  1  0
 35 36  2  0
 37 36  1  0
 37 41  1  0
 38 37  2  0
 39 34  2  0
 39 38  1  0
 40 39  1  0
 42 43  1  0
 43 46  1  0
 43 45  1  0
 44 42  2  0
 47 48  1  0
 47 22  1  0
 49 47  1  0
 50 51  1  0
 50  9  1  0
 52 63  2  0
 53 51  1  0
 53 58  1  0
 54 62  1  0
 54 64  1  0
 55 61  1  0
 55 57  1  0
 56 62  1  0
 57 56  1  0
 58 57  2  0
 59 53  2  0
 60 59  1  0
 60 55  2  0
 61 54  1  0
 62 52  1  0
 64 66  2  0
 65 64  1  0
 67 65  1  0
 68 77  2  0
 68 73  1  0
 69 65  1  0
 69 73  1  0
 70 69  1  0
 71 72  1  0
 71 70  1  0
 72 68  1  0
 73 74  2  0
 74 75  1  0
 76 75  2  0
 77 76  1  0
 78 52  1  0
 78 79  1  0
 78 88  1  0
 79 82  1  0
 80 84  1  0
 80 79  1  0
 81 80  2  0
 84 83  1  0
 86 84  1  0
 86 87  1  0
 86 85  1  0
 88 91  1  1
 88 89  1  0
 90 88  1  0
M  ISO  4  12 100  20 100  50 101  51 101
M  END
>  <TORSDO>  (86) 
F 17

>  <SCORE>  (86) 
-15.349

>  <name>  (86) 
87

>  <ligand_id>  (86) 
87

>  <original_smiles>  (86) 
[H]C(=C1C(=O)c2c([H])c([H])c(N([H])C(=O)N3C([H])([H])C([H])([H])C([H])([H])C([H])(n4nc(-c5c([H])c([H])c(Oc6c([H])c([H])c(F)c([H])c6F)c([H])c5[H])c(C(=O)N([H])[H])c4N([H])[H])C3([H])[H])c([H])c2C1([H])[H])C([H])([H])Oc1c([H])c([H])c2c(c1[H])C([H])([H])N(C(=O)C([H])(N([H])C(=O)C([H])(N([H])C([H])([H])[H])C([H])([H])[H])C(C([H])([H])[H])(C([H])([H])[H])C([H])([H])[H])C([H])(C(=O)N([H])C1([H])c3c([H])c([H])c([H])c([H])c3C([H])([H])C([H])([H])C1([H])[H])C2([H])[H]

>  <smiles>  (86) 
[H]C(=C1C(=O)c2c([H])c([H])c(N([H])C(=O)N3C([H])([H])C([H])([H])C([H])([H])C([H])(n4nc(-c5c([H])c([H])c(Oc6c([H])c([H])c(F)c([H])c6F)c([H])c5[H])c(C(=O)N([H])[H])c4N([H])[H])C3([H])[H])c([H])c2C1([H])[H])C([H])([H])Oc1c([H])c([H])c2c(c1[H])C([H])([H])N(C(=O)C([H])(N([H])C(=O)C([H])(N([H])C([H])([H])[H])C([H])([H])[H])C(C([H])([H])[H])(C([H])([H])[H])C([H])([H])[H])C([H])(C(=O)N([H])C1([H])c3c([H])c([H])c([H])c([H])c3C([H])([H])C([H])([H])C1([H])[H])C2([H])[H]

$$$$
88:0:0
     RDKit          3D

 85 93  0  0  1  0  0  0  0  0999 V2000
  -28.6760  -22.6460   20.4760 C   0  0  0  0  0  3  0  0  0  0  0  0
  -29.1190  -21.0750   19.6960 C   0  0  0  0  0  3  0  0  0  0  0  0
  -30.4610  -15.3050   19.8830 C   0  0  0  0  0  0  0  0  0  0  0  0
  -30.3170  -12.8780   18.9610 C   0  0  0  0  0  2  0  0  0  0  0  0
  -29.3190  -12.7060   17.7890 C   0  0  0  0  0  2  0  0  0  0  0  0
  -27.9020  -12.4430   18.3200 C   0  0  0  0  0  2  0  0  0  0  0  0
  -27.5400  -13.3790   19.5020 C   0  0  0  0  0  3  0  0  0  0  0  0
  -28.6660  -13.5020   20.5530 C   0  0  0  0  0  2  0  0  0  0  0  0
  -29.8470  -14.0170   19.8420 N   0  0  0  0  0  0  0  0  0  0  0  0
  -31.6420  -15.2580   19.5050 O   0  0  0  0  0  0  0  0  0  0  0  0
  -28.5680  -18.6550   21.0390 C   0  0  0  0  0  3  0  0  0  0  0  0
  -29.2730  -19.3840   20.1520 C   0  0  0  0  0  0  0  0  0  0  0  0
  -28.8060  -17.0880   21.0590 C   0  0  0  0  0  3  0  0  0  0  0  0
  -30.1070  -18.1200   19.4800 C   0  0  0  0  0  3  0  0  0  0  0  0
  -29.7910  -16.6380   20.0230 N   0  0  0  0  0  0  0  0  0  0  0  0
  -25.2340  -13.9260   20.4330 C   0  0  0  0  0  0  0  0  0  0  0  0
  -24.1960  -13.1450   20.8570 C   0  0  0  0  0  0  0  0  0  0  0  0
  -24.6510  -11.7940   20.7610 C   0  0  0  0  0  0  0  0  0  0  0  0
  -26.2520  -13.0530   20.0970 N   0  0  0  0  0  0  0  0  0  0  0  0
  -25.9180  -11.7630   20.3600 N   0  0  0  0  0  0  0  0  0  0  0  0
  -23.9290  -10.5310   20.9680 C   0  0  0  0  0  0  0  0  0  0  0  0
  -24.4000   -9.5470   21.8640 C   0  0  0  0  0  3  0  0  0  0  0  0
  -23.6740   -8.3520   22.0610 C   0  0  0  0  0  3  0  0  0  0  0  0
  -22.4620   -8.1330   21.3630 C   0  0  0  0  0  0  0  0  0  0  0  0
  -22.0100   -9.1060   20.4540 C   0  0  0  0  0  3  0  0  0  0  0  0
  -22.7370  -10.2920   20.2550 C   0  0  0  0  0  3  0  0  0  0  0  0
  -21.7040   -6.9920   21.4720 O   0  0  0  0  0  0  0  0  0  0  0  0
  -21.6860   -6.2470   22.6250 C   0  0  0  0  0  0  0  0  0  0  0  0
  -21.3160   -6.8060   23.8670 C   0  0  0  0  0  3  0  0  0  0  0  0
  -21.2440   -5.9890   25.0130 C   0  0  0  0  0  3  0  0  0  0  0  0
  -21.5320   -4.6150   24.9180 C   0  0  0  0  0  0  0  0  0  0  0  0
  -21.8960   -4.0550   23.6800 C   0  0  0  0  0  3  0  0  0  0  0  0
  -21.9700   -4.8700   22.5370 C   0  0  0  0  0  0  0  0  0  0  0  0
  -22.2990   -4.3220   21.3420 F   0  0  0  0  0  0  0  0  0  0  0  0
  -21.4560   -3.8270   26.0160 F   0  0  0  0  0  0  0  0  0  0  0  0
  -22.8240  -13.6240   21.2310 C   0  0  0  0  0  0  0  0  0  0  0  0
  -22.1520  -12.9170   22.1320 N   0  0  0  0  0  0  0  0  0  0  0  0
  -22.3600  -14.6620   20.7610 O   0  0  0  0  0  0  0  0  0  0  0  0
  -22.5440  -12.0780   22.5360 H   0  0  0  0  0  0  0  0  0  0  0  0
  -21.2350  -13.2210   22.4260 H   0  0  0  0  0  0  0  0  0  0  0  0
  -25.3900  -15.3000   20.2760 N   0  0  0  0  0  0  0  0  0  0  0  0
  -24.6330  -15.9520   20.4530 H   0  0  0  0  0  0  0  0  0  0  0  0
  -26.2060  -15.7410   19.8730 H   0  0  0  0  0  0  0  0  0  0  0  0
  -28.1770  -24.2700   19.8340 C   0  0  0  0  0  2  0  0  0  0  0  0
  -28.1900  -25.8500   20.3370 O   0  0  0  0  0  0  0  0  0  0  0  0
  -24.6270  -31.8400   23.2100 C   0  0  0  0  0  0  0  0  0  0  0  0
  -27.1790  -26.9440   20.2130 C   0  0  0  0  0  0  0  0  0  0  0  0
  -23.4320  -30.4360   21.5800 C   0  0  0  0  0  3  0  0  0  0  0  0
  -24.8790  -28.8270   20.1560 C   0  0  0  0  0  0  0  0  0  0  0  0
  -25.9970  -30.6460   21.4320 C   0  0  0  0  0  2  0  0  0  0  0  0
  -26.0640  -29.2330   20.7800 C   0  0  0  0  0  0  0  0  0  0  0  0
  -27.2050  -28.3100   20.7870 C   0  0  0  0  0  3  0  0  0  0  0  0
  -25.9680  -26.6960   19.5270 C   0  0  0  0  0  3  0  0  0  0  0  0
  -24.8560  -27.5810   19.5100 C   0  0  0  0  0  3  0  0  0  0  0  0
  -23.6580  -29.7460   20.2050 C   0  0  0  0  0  2  0  0  0  0  0  0
  -24.7060  -31.0020   22.1260 N   0  0  0  0  0  0  0  0  0  0  0  0
  -23.5370  -32.1330   23.7320 O   0  0  0  0  0  0  0  0  0  0  0  0
  -22.7390  -29.4460   22.5510 C   0  0  0  0  0  0  0  0  0  0  0  0
  -21.4070  -29.2860   22.4350 N   0  0  0  0  0  0  0  0  0  0  0  0
  -23.4060  -28.8200   23.3790 O   0  0  0  0  0  0  0  0  0  0  0  0
  -20.9210  -29.8400   21.7430 H   0  0  0  0  0  0  0  0  0  0  0  0
  -18.0250  -28.0800   22.9590 C   0  0  0  0  0  0  0  0  0  0  0  0
  -20.5850  -28.3520   23.2120 C   0  0  0  0  0  3  0  0  0  0  0  0
  -20.6860  -26.9160   22.6450 C   0  0  0  0  0  2  0  0  0  0  0  0
  -19.5810  -26.5870   21.6360 C   0  0  0  0  0  2  0  0  0  0  0  0
  -18.2020  -26.7300   22.2850 C   0  0  0  0  0  2  0  0  0  0  0  0
  -19.1440  -28.8490   23.3800 C   0  0  0  0  0  0  0  0  0  0  0  0
  -18.9200  -30.1090   23.9750 C   0  0  0  0  0  3  0  0  0  0  0  0
  -17.6150  -30.6040   24.1490 C   0  0  0  0  0  3  0  0  0  0  0  0
  -16.5110  -29.8340   23.7410 C   0  0  0  0  0  3  0  0  0  0  0  0
  -16.7180  -28.5730   23.1530 C   0  0  0  0  0  3  0  0  0  0  0  0
  -25.8970  -32.4870   23.8400 C   0  0  0  0  0  3  0  0  0  0  0  0
  -25.5830  -33.8920   24.1590 N   0  0  0  0  0  0  0  0  0  0  0  0
  -25.9150  -34.9450   23.3990 C   0  0  0  0  0  0  0  0  0  0  0  0
  -26.5800  -34.8370   22.3660 O   0  0  0  0  0  0  0  0  0  0  0  0
  -24.9900  -34.0490   24.9600 H   0  0  0  0  0  0  0  0  0  0  0  0
  -24.1830  -36.7440   23.0620 C   0  0  0  0  0  1  0  0  0  0  0  0
  -25.4360  -36.3390   23.8560 C   0  0  0  0  0  3  0  0  0  0  0  0
  -27.5830  -37.2310   24.6510 C   0  0  0  0  0  1  0  0  0  0  0  0
  -26.4670  -37.3910   23.7220 N   0  0  0  0  0  0  0  0  0  0  0  0
  -26.0640  -38.3130   23.8670 H   0  0  0  0  0  0  0  0  0  0  0  0
  -26.3980  -31.7370   25.1360 C   0  0  1  0  0  0  0  0  0  0  0  0
  -25.2930  -31.5260   26.2000 C   0  0  0  0  0  1  0  0  0  0  0  0
  -26.9760  -30.3480   24.7830 C   0  0  0  0  0  1  0  0  0  0  0  0
  -27.5470  -32.5370   25.7940 C   0  0  0  0  0  1  0  0  0  0  0  0
  2 12  1  0
  2  1  2  0
  3 15  1  0
  4  9  1  0
  5  6  1  0
  5  4  1  0
  7  6  1  0
  7 19  1  0
  7  8  1  0
  9  3  1  0
  9  8  1  0
 10  3  2  0
 11 13  2  0
 12 11  1  0
 14 15  1  0
 14 12  2  0
 15 13  1  0
 16 17  2  0
 17 36  1  0
 18 17  1  0
 18 21  1  0
 19 20  1  0
 19 16  1  0
 20 18  2  0
 21 22  1  0
 22 23  2  0
 24 27  1  0
 24 23  1  0
 25 24  2  0
 26 25  1  0
 26 21  2  0
 27 28  1  0
 28 29  1  0
 29 30  2  0
 31 30  1  0
 31 35  1  0
 32 31  2  0
 33 28  2  0
 33 32  1  0
 34 33  1  0
 36 37  1  0
 37 40  1  0
 37 39  1  0
 38 36  2  0
 41 16  1  0
 41 42  1  0
 43 41  1  0
 44 45  1  0
 44  1  1  0
 46 57  2  0
 47 45  1  0
 47 52  1  0
 48 56  1  0
 48 58  1  0
 49 55  1  0
 49 51  1  0
 50 56  1  0
 51 52  2  0
 51 50  1  0
 53 47  2  0
 54 53  1  0
 54 49  2  0
 55 48  1  0
 56 46  1  0
 58 60  2  0
 59 58  1  0
 61 59  1  0
 62 71  2  0
 62 67  1  0
 63 59  1  0
 63 67  1  0
 64 63  1  0
 65 66  1  0
 65 64  1  0
 66 62  1  0
 67 68  2  0
 68 69  1  0
 70 69  2  0
 71 70  1  0
 72 46  1  0
 72 73  1  0
 72 82  1  0
 73 76  1  0
 74 78  1  0
 74 73  1  0
 75 74  2  0
 78 77  1  0
 80 78  1  0
 80 81  1  0
 80 79  1  0
 82 85  1  1
 82 83  1  0
 84 82  1  0
M  ISO  4   3 100  15 100  44 101  45 101
M  END
>  <TORSDO>  (87) 
F 18

>  <SCORE>  (87) 
-15.706

>  <name>  (87) 
88

>  <ligand_id>  (87) 
88

>  <original_smiles>  (87) 
[H]C1=C(C([H])([H])C([H])([H])C([H])([H])Oc2c([H])c([H])c3c(c2[H])C([H])([H])N(C(=O)C([H])(N([H])C(=O)C([H])(N([H])C([H])([H])[H])C([H])([H])[H])C(C([H])([H])[H])(C([H])([H])[H])C([H])([H])[H])C([H])(C(=O)N([H])C2([H])c4c([H])c([H])c([H])c([H])c4C([H])([H])C([H])([H])C2([H])[H])C3([H])[H])C([H])([H])N(C(=O)N2C([H])([H])C([H])([H])C([H])([H])C([H])(n3nc(-c4c([H])c([H])c(Oc5c([H])c([H])c(F)c([H])c5F)c([H])c4[H])c(C(=O)N([H])[H])c3N([H])[H])C2([H])[H])C1([H])[H]

>  <smiles>  (87) 
[H]C1=C(C([H])([H])C([H])([H])C([H])([H])Oc2c([H])c([H])c3c(c2[H])C([H])([H])N(C(=O)C([H])(N([H])C(=O)C([H])(N([H])C([H])([H])[H])C([H])([H])[H])C(C([H])([H])[H])(C([H])([H])[H])C([H])([H])[H])C([H])(C(=O)N([H])C2([H])c4c([H])c([H])c([H])c([H])c4C([H])([H])C([H])([H])C2([H])[H])C3([H])[H])C([H])([H])N(C(=O)N2C([H])([H])C([H])([H])C([H])([H])C([H])(n3nc(-c4c([H])c([H])c(Oc5c([H])c([H])c(F)c([H])c5F)c([H])c4[H])c(C(=O)N([H])[H])c3N([H])[H])C2([H])[H])C1([H])[H]

$$$$
89:0:0
     RDKit          3D

 96105  0  0  1  0  0  0  0  0999 V2000
  -28.4080  -18.8970   20.7390 C   0  0  0  0  0  2  0  0  0  0  0  0
  -28.1400  -20.4360   20.8680 C   0  0  0  0  0  2  0  0  0  0  0  0
  -30.2530  -20.0660   19.7830 C   0  0  0  0  0  3  0  0  0  0  0  0
  -29.9120  -18.6850   20.4900 C   0  0  0  0  0  3  0  0  0  0  0  0
  -29.4260  -21.2160   20.4940 C   0  0  0  0  0  3  0  0  0  0  0  0
  -34.5300  -20.8450   19.5620 C   0  0  0  0  0  3  0  0  0  0  0  0
  -33.8970  -20.7500   20.8170 C   0  0  0  0  0  3  0  0  0  0  0  0
  -33.7760  -20.6890   18.3840 C   0  0  0  0  0  3  0  0  0  0  0  0
  -32.5130  -20.5010   20.8920 C   0  0  0  0  0  3  0  0  0  0  0  0
  -32.3920  -20.4420   18.4580 C   0  0  0  0  0  3  0  0  0  0  0  0
  -31.7490  -20.3480   19.7130 C   0  0  0  0  0  0  0  0  0  0  0  0
  -29.1840  -22.5180   19.7170 N   0  0  0  0  0  4  0  0  0  0  0  0
  -28.3080  -22.4100   19.2320 H   0  0  0  0  0  0  0  0  0  0  0  0
  -29.8950  -22.5610   19.0030 H   0  0  0  0  0  0  0  0  0  0  0  0
  -29.1960  -23.8860   20.4190 C   0  0  0  0  0  3  0  0  0  0  0  0
  -28.3940  -25.0820   19.6960 C   0  0  0  0  0  3  0  0  0  0  0  0
  -28.5250  -26.5180   20.1120 O   0  0  0  0  0  0  0  0  0  0  0  0
  -24.7500  -31.8540   23.2200 C   0  0  0  0  0  0  0  0  0  0  0  0
  -27.4110  -27.3870   20.0430 C   0  0  0  0  0  0  0  0  0  0  0  0
  -23.5650  -30.4890   21.5390 C   0  0  0  0  0  3  0  0  0  0  0  0
  -25.0350  -29.0010   20.0680 C   0  0  0  0  0  0  0  0  0  0  0  0
  -26.1050  -30.8310   21.3760 C   0  0  0  0  0  2  0  0  0  0  0  0
  -26.1980  -29.4720   20.6890 C   0  0  0  0  0  0  0  0  0  0  0  0
  -27.3850  -28.6740   20.6730 C   0  0  0  0  0  3  0  0  0  0  0  0
  -26.2290  -26.9970   19.3670 C   0  0  0  0  0  3  0  0  0  0  0  0
  -25.0550  -27.7710   19.3960 C   0  0  0  0  0  3  0  0  0  0  0  0
  -23.7890  -29.8600   20.1400 C   0  0  0  0  0  2  0  0  0  0  0  0
  -24.8250  -31.0750   22.1010 N   0  0  0  0  0  0  0  0  0  0  0  0
  -23.6620  -32.1040   23.7590 O   0  0  0  0  0  0  0  0  0  0  0  0
  -22.9130  -29.4370   22.4680 C   0  0  0  0  0  0  0  0  0  0  0  0
  -21.5920  -29.2350   22.3230 N   0  0  0  0  0  0  0  0  0  0  0  0
  -23.5960  -28.8070   23.2800 O   0  0  0  0  0  0  0  0  0  0  0  0
  -21.0990  -29.7960   21.6410 H   0  0  0  0  0  0  0  0  0  0  0  0
  -18.2350  -27.9590   22.7580 C   0  0  0  0  0  0  0  0  0  0  0  0
  -20.7850  -28.2660   23.0640 C   0  0  0  0  0  3  0  0  0  0  0  0
  -20.9230  -26.8480   22.4620 C   0  0  0  0  0  2  0  0  0  0  0  0
  -19.8400  -26.5240   21.4280 C   0  0  0  0  0  2  0  0  0  0  0  0
  -18.4480  -26.6270   22.0570 C   0  0  0  0  0  2  0  0  0  0  0  0
  -19.3330  -28.7350   23.2170 C   0  0  0  0  0  0  0  0  0  0  0  0
  -19.0800  -29.9800   23.8310 C   0  0  0  0  0  3  0  0  0  0  0  0
  -17.7630  -30.4500   23.9930 C   0  0  0  0  0  3  0  0  0  0  0  0
  -16.6800  -29.6710   23.5500 C   0  0  0  0  0  3  0  0  0  0  0  0
  -16.9170  -28.4280   22.9390 C   0  0  0  0  0  3  0  0  0  0  0  0
  -26.0240  -32.4850   23.8610 C   0  0  0  0  0  3  0  0  0  0  0  0
  -25.7130  -33.8850   24.1810 N   0  0  0  0  0  0  0  0  0  0  0  0
  -26.0570  -34.9350   23.4220 C   0  0  0  0  0  0  0  0  0  0  0  0
  -26.7380  -34.8260   22.4000 O   0  0  0  0  0  0  0  0  0  0  0  0
  -25.1120  -34.0440   24.9760 H   0  0  0  0  0  0  0  0  0  0  0  0
  -24.3450  -36.7360   23.0340 C   0  0  0  0  0  1  0  0  0  0  0  0
  -25.5690  -36.3270   23.8700 C   0  0  0  0  0  3  0  0  0  0  0  0
  -27.6820  -37.2110   24.7520 C   0  0  0  0  0  1  0  0  0  0  0  0
  -26.6080  -37.3740   23.7750 N   0  0  0  0  0  0  0  0  0  0  0  0
  -26.2020  -38.2970   23.9010 H   0  0  0  0  0  0  0  0  0  0  0  0
  -26.5150  -31.7170   25.1490 C   0  0  1  0  0  0  0  0  0  0  0  0
  -25.4020  -31.4840   26.1970 C   0  0  0  0  0  1  0  0  0  0  0  0
  -27.1050  -30.3360   24.7750 C   0  0  0  0  0  1  0  0  0  0  0  0
  -27.6530  -32.5110   25.8300 C   0  0  0  0  0  1  0  0  0  0  0  0
  -30.3730  -17.3300   19.7470 C   0  0  0  0  0  2  0  0  0  0  0  0
  -30.8250  -14.8010   20.0290 C   0  0  0  0  0  0  0  0  0  0  0  0
  -30.5290  -12.5550   19.0030 C   0  0  0  0  0  2  0  0  0  0  0  0
  -29.5410  -12.6790   17.8230 C   0  0  0  0  0  2  0  0  0  0  0  0
  -28.0900  -12.5200   18.3170 C   0  0  0  0  0  2  0  0  0  0  0  0
  -27.7870  -13.3860   19.5690 C   0  0  0  0  0  3  0  0  0  0  0  0
  -28.8940  -13.2620   20.6400 C   0  0  0  0  0  2  0  0  0  0  0  0
  -30.1720  -13.5920   19.9960 N   0  0  0  0  0  0  0  0  0  0  0  0
  -31.9770  -14.8940   19.5990 O   0  0  0  0  0  0  0  0  0  0  0  0
  -30.0950  -15.9410   20.3020 N   0  0  0  0  0  0  0  0  0  0  0  0
  -29.1680  -15.7860   20.6690 H   0  0  0  0  0  0  0  0  0  0  0  0
  -25.4370  -13.9800   20.4120 C   0  0  0  0  0  0  0  0  0  0  0  0
  -24.3840  -13.2060   20.8200 C   0  0  0  0  0  0  0  0  0  0  0  0
  -24.8370  -11.8530   20.7480 C   0  0  0  0  0  0  0  0  0  0  0  0
  -26.4630  -13.0990   20.1150 N   0  0  0  0  0  0  0  0  0  0  0  0
  -26.1120  -11.8130   20.3780 N   0  0  0  0  0  0  0  0  0  0  0  0
  -24.1120  -10.5920   20.9510 C   0  0  0  0  0  0  0  0  0  0  0  0
  -24.5460   -9.6340   21.8940 C   0  0  0  0  0  3  0  0  0  0  0  0
  -23.8210   -8.4390   22.0870 C   0  0  0  0  0  3  0  0  0  0  0  0
  -22.6470   -8.1920   21.3360 C   0  0  0  0  0  0  0  0  0  0  0  0
  -22.2310   -9.1370   20.3830 C   0  0  0  0  0  3  0  0  0  0  0  0
  -22.9570  -10.3250   20.1880 C   0  0  0  0  0  3  0  0  0  0  0  0
  -21.8930   -7.0480   21.4370 O   0  0  0  0  0  0  0  0  0  0  0  0
  -21.8110   -6.3410   22.6100 C   0  0  0  0  0  0  0  0  0  0  0  0
  -21.2910   -6.9150   23.7910 C   0  0  0  0  0  3  0  0  0  0  0  0
  -21.1610   -6.1320   24.9560 C   0  0  0  0  0  3  0  0  0  0  0  0
  -21.5390   -4.7770   24.9400 C   0  0  0  0  0  0  0  0  0  0  0  0
  -22.0500   -4.2020   23.7640 C   0  0  0  0  0  3  0  0  0  0  0  0
  -22.1830   -4.9810   22.6010 C   0  0  0  0  0  0  0  0  0  0  0  0
  -22.6570   -4.4170   21.4650 F   0  0  0  0  0  0  0  0  0  0  0  0
  -21.4060   -4.0220   26.0560 F   0  0  0  0  0  0  0  0  0  0  0  0
  -23.0040  -13.6870   21.1630 C   0  0  0  0  0  0  0  0  0  0  0  0
  -22.3130  -12.9820   22.0520 N   0  0  0  0  0  0  0  0  0  0  0  0
  -22.5490  -14.7220   20.6790 O   0  0  0  0  0  0  0  0  0  0  0  0
  -22.6950  -12.1450   22.4650 H   0  0  0  0  0  0  0  0  0  0  0  0
  -21.3880  -13.2850   22.3230 H   0  0  0  0  0  0  0  0  0  0  0  0
  -25.5990  -15.3520   20.2460 N   0  0  0  0  0  0  0  0  0  0  0  0
  -24.8390  -16.0060   20.3970 H   0  0  0  0  0  0  0  0  0  0  0  0
  -26.4250  -15.7900   19.8590 H   0  0  0  0  0  0  0  0  0  0  0  0
  1  2  1  0
  3 11  1  0
  3  4  1  0
  3  5  1  0
  4 58  1  0
  4  1  1  0
  5 12  1  0
  5  2  1  0
  6  7  1  0
  7  9  2  0
  8 10  1  0
  8  6  2  0
 10 11  2  0
 11  9  1  0
 12 15  1  0
 13 12  1  0
 14 12  1  0
 16 17  1  0
 16 15  2  0
 18 29  2  0
 19 17  1  0
 19 24  1  0
 20 28  1  0
 20 30  1  0
 21 27  1  0
 21 23  1  0
 22 28  1  0
 23 22  1  0
 24 23  2  0
 25 26  1  0
 25 19  2  0
 26 21  2  0
 27 20  1  0
 28 18  1  0
 30 32  2  0
 31 30  1  0
 33 31  1  0
 34 43  2  0
 34 39  1  0
 35 31  1  0
 35 39  1  0
 36 35  1  0
 37 38  1  0
 37 36  1  0
 38 34  1  0
 39 40  2  0
 40 41  1  0
 42 41  2  0
 43 42  1  0
 44 18  1  0
 44 45  1  0
 44 54  1  0
 45 48  1  0
 46 50  1  0
 46 45  1  0
 47 46  2  0
 50 49  1  0
 52 50  1  0
 52 53  1  0
 52 51  1  0
 54 57  1  1
 54 55  1  0
 56 54  1  0
 58 67  1  0
 59 67  1  0
 60 65  1  0
 61 62  1  0
 61 60  1  0
 63 62  1  0
 63 72  1  0
 63 64  1  0
 65 59  1  0
 65 64  1  0
 66 59  2  0
 67 68  1  0
 69 70  2  0
 70 89  1  0
 71 70  1  0
 71 74  1  0
 72 73  1  0
 72 69  1  0
 73 71  2  0
 74 75  1  0
 75 76  2  0
 77 80  1  0
 77 76  1  0
 78 77  2  0
 79 78  1  0
 79 74  2  0
 80 81  1  0
 81 82  1  0
 82 83  2  0
 84 83  1  0
 84 88  1  0
 85 84  2  0
 86 81  2  0
 86 85  1  0
 87 86  1  0
 89 90  1  0
 90 93  1  0
 90 92  1  0
 91 89  2  0
 94 95  1  0
 94 69  1  0
 96 94  1  0
M  ISO  4  16 101  17 101  59 100  67 100
M  END
>  <TORSDO>  (88) 
F 21

>  <SCORE>  (88) 
-13.089

>  <name>  (88) 
89

>  <ligand_id>  (88) 
89

>  <original_smiles>  (88) 
[H]c1c([H])c([H])c(C2([H])C([H])(C([H])([H])N([H])C(=O)N3C([H])([H])C([H])([H])C([H])([H])C([H])(n4nc(-c5c([H])c([H])c(Oc6c([H])c([H])c(F)c([H])c6F)c([H])c5[H])c(C(=O)N([H])[H])c4N([H])[H])C3([H])[H])C([H])([H])C([H])([H])C2([H])[N+]([H])([H])C([H])([H])C([H])([H])Oc2c([H])c([H])c3c(c2[H])C([H])([H])N(C(=O)C([H])(N([H])C(=O)C([H])(N([H])C([H])([H])[H])C([H])([H])[H])C(C([H])([H])[H])(C([H])([H])[H])C([H])([H])[H])C([H])(C(=O)N([H])C2([H])c4c([H])c([H])c([H])c([H])c4C([H])([H])C([H])([H])C2([H])[H])C3([H])[H])c([H])c1[H]

>  <smiles>  (88) 
[H]c1c([H])c([H])c(C2([H])C([H])(C([H])([H])N([H])C(=O)N3C([H])([H])C([H])([H])C([H])([H])C([H])(n4nc(-c5c([H])c([H])c(Oc6c([H])c([H])c(F)c([H])c6F)c([H])c5[H])c(C(=O)N([H])[H])c4N([H])[H])C3([H])[H])C([H])([H])C([H])([H])C2([H])[N+]([H])([H])C([H])([H])C([H])([H])Oc2c([H])c([H])c3c(c2[H])C([H])([H])N(C(=O)C([H])(N([H])C(=O)C([H])(N([H])C([H])([H])[H])C([H])([H])[H])C(C([H])([H])[H])(C([H])([H])[H])C([H])([H])[H])C([H])(C(=O)N([H])C2([H])c4c([H])c([H])c([H])c([H])c4C([H])([H])C([H])([H])C2([H])[H])C3([H])[H])c([H])c1[H]

$$$$
90:0:0
     RDKit          3D

 98107  0  0  1  0  0  0  0  0999 V2000
  -31.4480  -19.0600   19.9230 C   0  0  0  0  0  3  0  0  0  0  0  0
  -31.5080  -17.6910   20.2450 C   0  0  0  0  0  3  0  0  0  0  0  0
  -29.1100  -17.6900   20.6550 C   0  0  0  0  0  3  0  0  0  0  0  0
  -30.2210  -19.7510   19.9520 C   0  0  0  0  0  0  0  0  0  0  0  0
  -29.0390  -19.0660   20.3310 C   0  0  0  0  0  0  0  0  0  0  0  0
  -30.3320  -16.9820   20.5890 C   0  0  0  0  0  0  0  0  0  0  0  0
  -30.9540  -14.5890   20.2350 C   0  0  0  0  0  0  0  0  0  0  0  0
  -30.6440  -12.3780   19.1920 C   0  0  0  0  0  2  0  0  0  0  0  0
  -29.7050  -12.5350   17.9780 C   0  0  0  0  0  2  0  0  0  0  0  0
  -28.2290  -12.4280   18.4080 C   0  0  0  0  0  2  0  0  0  0  0  0
  -27.8960  -13.3290   19.6280 C   0  0  0  0  0  3  0  0  0  0  0  0
  -28.9460  -13.1470   20.7480 C   0  0  0  0  0  2  0  0  0  0  0  0
  -30.2800  -13.4090   20.1760 N   0  0  0  0  0  0  0  0  0  0  0  0
  -32.0530  -14.7510   19.6990 O   0  0  0  0  0  0  0  0  0  0  0  0
  -30.2930  -15.5810   20.8610 N   0  0  0  0  0  0  0  0  0  0  0  0
  -29.4650  -15.2590   21.3370 H   0  0  0  0  0  0  0  0  0  0  0  0
  -25.5170  -13.9940   20.3560 C   0  0  0  0  0  0  0  0  0  0  0  0
  -24.4340  -13.2450   20.7330 C   0  0  0  0  0  0  0  0  0  0  0  0
  -24.8620  -11.8840   20.6930 C   0  0  0  0  0  0  0  0  0  0  0  0
  -26.5380  -13.0880   20.1140 N   0  0  0  0  0  0  0  0  0  0  0  0
  -26.1480  -11.8150   20.3730 N   0  0  0  0  0  0  0  0  0  0  0  0
  -24.1090  -10.6380   20.8870 C   0  0  0  0  0  0  0  0  0  0  0  0
  -24.5460   -9.6430   21.7900 C   0  0  0  0  0  3  0  0  0  0  0  0
  -23.7940   -8.4620   21.9730 C   0  0  0  0  0  3  0  0  0  0  0  0
  -22.5930   -8.2680   21.2520 C   0  0  0  0  0  0  0  0  0  0  0  0
  -22.1730   -9.2500   20.3380 C   0  0  0  0  0  3  0  0  0  0  0  0
  -22.9260  -10.4230   20.1530 C   0  0  0  0  0  3  0  0  0  0  0  0
  -21.8120   -7.1400   21.3450 O   0  0  0  0  0  0  0  0  0  0  0  0
  -21.8110   -6.3560   22.4700 C   0  0  0  0  0  0  0  0  0  0  0  0
  -21.4880   -6.8790   23.7420 C   0  0  0  0  0  3  0  0  0  0  0  0
  -21.4290   -6.0240   24.8600 C   0  0  0  0  0  3  0  0  0  0  0  0
  -21.6850   -4.6490   24.7110 C   0  0  0  0  0  0  0  0  0  0  0  0
  -22.0020   -4.1240   23.4450 C   0  0  0  0  0  3  0  0  0  0  0  0
  -22.0610   -4.9760   22.3270 C   0  0  0  0  0  0  0  0  0  0  0  0
  -22.3460   -4.4630   21.1060 F   0  0  0  0  0  0  0  0  0  0  0  0
  -21.6220   -3.8250   25.7830 F   0  0  0  0  0  0  0  0  0  0  0  0
  -23.0510  -13.7560   21.0220 C   0  0  0  0  0  0  0  0  0  0  0  0
  -22.3170  -13.0810   21.8990 N   0  0  0  0  0  0  0  0  0  0  0  0
  -22.6280  -14.7880   20.5020 O   0  0  0  0  0  0  0  0  0  0  0  0
  -22.6710  -12.2440   22.3410 H   0  0  0  0  0  0  0  0  0  0  0  0
  -21.3920  -13.4070   22.1350 H   0  0  0  0  0  0  0  0  0  0  0  0
  -25.7140  -15.3610   20.1790 N   0  0  0  0  0  0  0  0  0  0  0  0
  -24.9600  -16.0310   20.2890 H   0  0  0  0  0  0  0  0  0  0  0  0
  -26.5630  -15.7730   19.8180 H   0  0  0  0  0  0  0  0  0  0  0  0
  -30.6860  -22.1430   20.2560 C   0  0  0  0  0  3  0  0  0  0  0  0
  -30.8180  -23.5060   19.7710 C   0  0  0  0  0  3  0  0  0  0  0  0
  -30.2160  -21.1470   19.4790 C   0  0  0  0  0  0  0  0  0  0  0  0
  -30.3050  -23.8970   18.5880 C   0  0  0  0  0  0  0  0  0  0  0  0
  -29.7910  -21.4300   18.0430 C   0  0  0  0  0  2  0  0  0  0  0  0
  -29.5180  -22.9190   17.7250 C   0  0  0  0  0  2  0  0  0  0  0  0
  -30.5290  -25.2940   18.0150 C   0  0  0  0  0  2  0  0  0  0  0  0
  -29.2670  -26.1720   17.8960 C   0  0  0  0  0  2  0  0  0  0  0  0
  -28.9490  -26.7640   19.1560 O   0  0  0  0  0  0  0  0  0  0  0  0
  -24.9850  -31.2420   23.0000 C   0  0  0  0  0  0  0  0  0  0  0  0
  -27.7440  -27.4230   19.2540 C   0  0  0  0  0  0  0  0  0  0  0  0
  -23.8080  -30.0730   21.1650 C   0  0  0  0  0  3  0  0  0  0  0  0
  -25.2950  -28.8170   19.5180 C   0  0  0  0  0  0  0  0  0  0  0  0
  -26.3200  -30.5330   21.0200 C   0  0  0  0  0  2  0  0  0  0  0  0
  -26.4390  -29.2790   20.1800 C   0  0  0  0  0  0  0  0  0  0  0  0
  -27.6620  -28.5820   20.0590 C   0  0  0  0  0  3  0  0  0  0  0  0
  -26.5760  -26.9610   18.6050 C   0  0  0  0  0  3  0  0  0  0  0  0
  -25.3560  -27.6520   18.7350 C   0  0  0  0  0  3  0  0  0  0  0  0
  -24.0260  -29.6190   19.6970 C   0  0  0  0  0  2  0  0  0  0  0  0
  -25.0550  -30.6220   21.7880 N   0  0  0  0  0  0  0  0  0  0  0  0
  -23.9010  -31.3950   23.5780 O   0  0  0  0  0  0  0  0  0  0  0  0
  -23.1950  -28.8960   21.9580 C   0  0  0  0  0  0  0  0  0  0  0  0
  -21.8730  -28.7070   21.8170 N   0  0  0  0  0  0  0  0  0  0  0  0
  -23.9030  -28.1640   22.6550 O   0  0  0  0  0  0  0  0  0  0  0  0
  -21.3620  -29.3550   21.2350 H   0  0  0  0  0  0  0  0  0  0  0  0
  -18.5280  -27.3890   22.1700 C   0  0  0  0  0  0  0  0  0  0  0  0
  -21.0860  -27.6410   22.4370 C   0  0  0  0  0  3  0  0  0  0  0  0
  -21.1980  -26.3260   21.6320 C   0  0  0  0  0  2  0  0  0  0  0  0
  -20.0800  -26.1560   20.5980 C   0  0  0  0  0  2  0  0  0  0  0  0
  -18.7100  -26.1710   21.2790 C   0  0  0  0  0  2  0  0  0  0  0  0
  -19.6440  -28.0890   22.7000 C   0  0  0  0  0  0  0  0  0  0  0  0
  -19.4200  -29.2360   23.4920 C   0  0  0  0  0  3  0  0  0  0  0  0
  -18.1120  -29.6830   23.7590 C   0  0  0  0  0  3  0  0  0  0  0  0
  -17.0100  -28.9760   23.2450 C   0  0  0  0  0  3  0  0  0  0  0  0
  -17.2190  -27.8310   22.4570 C   0  0  0  0  0  3  0  0  0  0  0  0
  -26.2570  -31.8060   23.7060 C   0  0  0  0  0  3  0  0  0  0  0  0
  -25.9100  -33.1250   24.2520 N   0  0  0  0  0  0  0  0  0  0  0  0
  -26.2230  -34.2920   23.6740 C   0  0  0  0  0  0  0  0  0  0  0  0
  -26.9070  -34.3700   22.6490 O   0  0  0  0  0  0  0  0  0  0  0  0
  -25.3050  -33.1360   25.0600 H   0  0  0  0  0  0  0  0  0  0  0  0
  -24.4490  -36.0710   23.5880 C   0  0  0  0  0  1  0  0  0  0  0  0
  -25.6950  -35.5770   24.3390 C   0  0  0  0  0  3  0  0  0  0  0  0
  -27.8010  -36.3730   25.3200 C   0  0  0  0  0  1  0  0  0  0  0  0
  -26.7000  -36.6600   24.4050 N   0  0  0  0  0  0  0  0  0  0  0  0
  -26.2680  -37.5350   24.6930 H   0  0  0  0  0  0  0  0  0  0  0  0
  -26.8110  -30.8600   24.8420 C   0  0  1  0  0  0  0  0  0  0  0  0
  -25.7380  -30.4280   25.8680 C   0  0  0  0  0  1  0  0  0  0  0  0
  -27.4250  -29.5780   24.2310 C   0  0  0  0  0  1  0  0  0  0  0  0
  -27.9490  -31.5730   25.6090 C   0  0  0  0  0  1  0  0  0  0  0  0
  -27.6860  -19.7670   20.3860 C   0  0  0  0  0  2  0  0  0  0  0  0
  -27.6160  -20.6890   21.5260 N   0  0  0  0  0  4  0  0  0  0  0  0
  -27.7580  -20.1920   22.3850 H   0  0  0  0  0  0  0  0  0  0  0  0
  -26.7140  -21.1270   21.5560 H   0  0  0  0  0  0  0  0  0  0  0  0
  -28.3170  -21.4030   21.4440 H   0  0  0  0  0  0  0  0  0  0  0  0
  1  4  2  0
  1  2  1  0
  2  6  2  0
  4  5  1  0
  5 94  1  0
  5  3  2  0
  6  3  1  0
  6 15  1  0
  7 15  1  0
  8 13  1  0
  9 10  1  0
  9  8  1  0
 11 10  1  0
 11 20  1  0
 11 12  1  0
 13  7  1  0
 13 12  1  0
 14  7  2  0
 15 16  1  0
 17 18  2  0
 18 37  1  0
 19 18  1  0
 19 22  1  0
 20 17  1  0
 20 21  1  0
 21 19  2  0
 22 23  1  0
 23 24  2  0
 25 28  1  0
 25 24  1  0
 26 25  2  0
 27 26  1  0
 27 22  2  0
 28 29  1  0
 29 30  1  0
 30 31  2  0
 32 31  1  0
 32 36  1  0
 33 32  2  0
 34 29  2  0
 34 33  1  0
 35 34  1  0
 37 38  1  0
 38 41  1  0
 38 40  1  0
 39 37  2  0
 42 43  1  0
 42 17  1  0
 44 42  1  0
 46 45  1  0
 47  4  1  0
 47 45  2  0
 48 46  2  0
 49 47  1  0
 50 49  1  0
 50 48  1  0
 51 48  1  0
 52 51  1  0
 52 53  1  0
 53 55  1  0
 54 65  2  0
 55 60  1  0
 56 64  1  0
 56 66  1  0
 57 63  1  0
 57 59  1  0
 58 64  1  0
 59 58  1  0
 60 59  2  0
 61 62  1  0
 61 55  2  0
 62 57  2  0
 63 56  1  0
 64 54  1  0
 66 68  2  0
 67 66  1  0
 69 67  1  0
 70 79  2  0
 70 75  1  0
 71 67  1  0
 71 75  1  0
 72 71  1  0
 73 74  1  0
 73 72  1  0
 74 70  1  0
 75 76  2  0
 76 77  1  0
 78 77  2  0
 79 78  1  0
 80 54  1  0
 80 81  1  0
 80 90  1  0
 81 84  1  0
 82 81  1  0
 82 86  1  0
 83 82  2  0
 86 85  1  0
 86 88  1  0
 88 89  1  0
 88 87  1  0
 90 93  1  1
 90 91  1  0
 92 90  1  0
 94 95  1  0
 95 97  1  0
 95 96  1  0
 98 95  1  0
M  ISO  4   7 100  15 100  52 101  53 101
M  END
>  <TORSDO>  (89) 
F 21

>  <SCORE>  (89) 
-10.947

>  <name>  (89) 
90

>  <ligand_id>  (89) 
90

>  <original_smiles>  (89) 
[H]C1=C(c2c([H])c([H])c(N([H])C(=O)N3C([H])([H])C([H])([H])C([H])([H])C([H])(n4nc(-c5c([H])c([H])c(Oc6c([H])c([H])c(F)c([H])c6F)c([H])c5[H])c(C(=O)N([H])[H])c4N([H])[H])C3([H])[H])c([H])c2C([H])([H])[N+]([H])([H])[H])C([H])([H])C([H])([H])C(C([H])([H])C([H])([H])Oc2c([H])c([H])c3c(c2[H])C([H])([H])N(C(=O)C([H])(N([H])C(=O)C([H])(N([H])C([H])([H])[H])C([H])([H])[H])C(C([H])([H])[H])(C([H])([H])[H])C([H])([H])[H])C([H])(C(=O)N([H])C2([H])c4c([H])c([H])c([H])c([H])c4C([H])([H])C([H])([H])C2([H])[H])C3([H])[H])=C1[H]

>  <smiles>  (89) 
[H]C1=C(c2c([H])c([H])c(N([H])C(=O)N3C([H])([H])C([H])([H])C([H])([H])C([H])(n4nc(-c5c([H])c([H])c(Oc6c([H])c([H])c(F)c([H])c6F)c([H])c5[H])c(C(=O)N([H])[H])c4N([H])[H])C3([H])[H])c([H])c2C([H])([H])[N+]([H])([H])[H])C([H])([H])C([H])([H])C(C([H])([H])C([H])([H])Oc2c([H])c([H])c3c(c2[H])C([H])([H])N(C(=O)C([H])(N([H])C(=O)C([H])(N([H])C([H])([H])[H])C([H])([H])[H])C(C([H])([H])[H])(C([H])([H])[H])C([H])([H])[H])C([H])(C(=O)N([H])C2([H])c4c([H])c([H])c([H])c([H])c4C([H])([H])C([H])([H])C2([H])[H])C3([H])[H])=C1[H]

$$$$
91:0:0
     RDKit          3D

 96107  0  0  1  0  0  0  0  0999 V2000
  -28.8610  -22.4350   22.6860 C   0  0  0  0  0  2  0  0  0  0  0  0
  -27.4870  -22.7940   22.0480 C   0  0  0  0  0  2  0  0  0  0  0  0
  -27.9830  -21.4320   19.9460 C   0  0  0  0  0  2  0  0  0  0  0  0
  -30.0290  -23.1660   20.6300 C   0  0  0  0  0  2  0  0  0  0  0  0
  -28.9660  -20.6810   20.9130 C   0  0  0  0  0  3  0  0  0  0  0  0
  -29.7860  -21.8820   21.5660 C   0  0  0  0  0  3  0  0  0  0  0  0
  -27.6510  -22.9030   20.5000 C   0  0  0  0  0  3  0  0  0  0  0  0
  -28.7580  -23.8950   20.2290 N   0  0  1  0  0  4  0  0  0  0  0  0
  -28.7990  -24.0130   19.2290 H   0  0  0  0  0  0  0  0  0  0  0  0
  -29.2340  -16.9090   19.6010 C   0  0  0  0  0  3  0  0  0  0  0  0
  -28.8550  -18.2880   19.7590 C   0  0  0  0  0  3  0  0  0  0  0  0
  -31.0020  -17.2320   21.1610 C   0  0  0  0  0  3  0  0  0  0  0  0
  -30.3290  -16.3270   20.3030 C   0  0  0  0  0  0  0  0  0  0  0  0
  -29.5270  -19.1970   20.6320 C   0  0  0  0  0  0  0  0  0  0  0  0
  -30.6080  -18.5980   21.3690 C   0  0  0  0  0  0  0  0  0  0  0  0
  -30.9490  -14.9380   19.9600 C   0  0  0  0  0  0  0  0  0  0  0  0
  -30.6110  -12.6900   18.9420 C   0  0  0  0  0  2  0  0  0  0  0  0
  -29.6190  -12.7980   17.7670 C   0  0  0  0  0  2  0  0  0  0  0  0
  -28.1740  -12.6340   18.2720 C   0  0  0  0  0  2  0  0  0  0  0  0
  -27.8730  -13.5170   19.5130 C   0  0  0  0  0  3  0  0  0  0  0  0
  -28.9890  -13.4410   20.5750 C   0  0  0  0  0  2  0  0  0  0  0  0
  -30.2570  -13.7510   19.9130 N   0  0  0  0  0  0  0  0  0  0  0  0
  -32.1120  -14.9720   19.5530 O   0  0  0  0  0  0  0  0  0  0  0  0
  -25.5470  -14.1010   20.4160 C   0  0  0  0  0  0  0  0  0  0  0  0
  -24.4970  -13.3250   20.8240 C   0  0  0  0  0  0  0  0  0  0  0  0
  -24.9410  -11.9710   20.7190 C   0  0  0  0  0  0  0  0  0  0  0  0
  -26.5620  -13.2210   20.0830 N   0  0  0  0  0  0  0  0  0  0  0  0
  -26.2100  -11.9320   20.3280 N   0  0  0  0  0  0  0  0  0  0  0  0
  -24.2120  -10.7100   20.9110 C   0  0  0  0  0  0  0  0  0  0  0  0
  -24.6300   -9.7520   21.8600 C   0  0  0  0  0  3  0  0  0  0  0  0
  -23.9000   -8.5560   22.0410 C   0  0  0  0  0  3  0  0  0  0  0  0
  -22.7390   -8.3100   21.2690 C   0  0  0  0  0  0  0  0  0  0  0  0
  -22.3420   -9.2570   20.3080 C   0  0  0  0  0  3  0  0  0  0  0  0
  -23.0710  -10.4440   20.1280 C   0  0  0  0  0  3  0  0  0  0  0  0
  -21.9830   -7.1670   21.3570 O   0  0  0  0  0  0  0  0  0  0  0  0
  -21.8180   -6.5010   22.5460 C   0  0  0  0  0  0  0  0  0  0  0  0
  -21.2710   -7.1340   23.6830 C   0  0  0  0  0  3  0  0  0  0  0  0
  -21.0540   -6.3950   24.8630 C   0  0  0  0  0  3  0  0  0  0  0  0
  -21.3760   -5.0240   24.9060 C   0  0  0  0  0  0  0  0  0  0  0  0
  -21.9160   -4.3920   23.7730 C   0  0  0  0  0  3  0  0  0  0  0  0
  -22.1350   -5.1280   22.5950 C   0  0  0  0  0  0  0  0  0  0  0  0
  -22.6360   -4.5090   21.4990 F   0  0  0  0  0  0  0  0  0  0  0  0
  -21.1610   -4.3130   26.0370 F   0  0  0  0  0  0  0  0  0  0  0  0
  -23.1240  -13.8070   21.1940 C   0  0  0  0  0  0  0  0  0  0  0  0
  -22.4520  -13.1030   22.0980 N   0  0  0  0  0  0  0  0  0  0  0  0
  -22.6580  -14.8410   20.7160 O   0  0  0  0  0  0  0  0  0  0  0  0
  -22.8410  -12.2660   22.5050 H   0  0  0  0  0  0  0  0  0  0  0  0
  -21.5350  -13.4080   22.3900 H   0  0  0  0  0  0  0  0  0  0  0  0
  -25.7180  -15.4760   20.2790 N   0  0  0  0  0  0  0  0  0  0  0  0
  -24.9770  -16.1390   20.4770 H   0  0  0  0  0  0  0  0  0  0  0  0
  -26.5730  -15.9190   19.9700 H   0  0  0  0  0  0  0  0  0  0  0  0
  -31.8530  -18.6360   23.6780 C   0  0  0  0  0  2  0  0  0  0  0  0
  -30.7840  -19.6900   23.7640 C   0  0  0  0  0  2  0  0  0  0  0  0
  -31.3840  -19.3430   22.4190 C   0  0  0  0  0  3  0  0  0  0  0  0
  -28.4830  -25.4390   20.9260 C   0  0  0  0  0  2  0  0  0  0  0  0
  -28.6170  -26.6170   20.0590 O   0  0  0  0  0  0  0  0  0  0  0  0
  -24.5430  -31.7980   23.1150 C   0  0  0  0  0  0  0  0  0  0  0  0
  -27.4990  -27.4730   20.0160 C   0  0  0  0  0  0  0  0  0  0  0  0
  -23.4700  -30.3740   21.4090 C   0  0  0  0  0  3  0  0  0  0  0  0
  -25.0500  -28.9580   19.9750 C   0  0  0  0  0  0  0  0  0  0  0  0
  -25.9900  -30.8500   21.3000 C   0  0  0  0  0  2  0  0  0  0  0  0
  -26.1730  -29.4950   20.6180 C   0  0  0  0  0  0  0  0  0  0  0  0
  -27.4050  -28.7660   20.6280 C   0  0  0  0  0  3  0  0  0  0  0  0
  -26.3570  -26.9990   19.3390 C   0  0  0  0  0  3  0  0  0  0  0  0
  -25.1450  -27.7170   19.3220 C   0  0  0  0  0  3  0  0  0  0  0  0
  -23.7600  -29.7540   20.0160 C   0  0  0  0  0  2  0  0  0  0  0  0
  -24.6840  -31.0250   21.9980 N   0  0  0  0  0  0  0  0  0  0  0  0
  -23.4320  -31.9920   23.6290 O   0  0  0  0  0  0  0  0  0  0  0  0
  -22.8500  -29.2900   22.3240 C   0  0  0  0  0  0  0  0  0  0  0  0
  -21.5330  -29.0590   22.1840 N   0  0  0  0  0  0  0  0  0  0  0  0
  -23.5540  -28.6630   23.1200 O   0  0  0  0  0  0  0  0  0  0  0  0
  -21.0210  -29.6200   21.5170 H   0  0  0  0  0  0  0  0  0  0  0  0
  -18.2040  -27.7250   22.6620 C   0  0  0  0  0  0  0  0  0  0  0  0
  -20.7560  -28.0560   22.9130 C   0  0  0  0  0  3  0  0  0  0  0  0
  -20.8960  -26.6610   22.2610 C   0  0  0  0  0  2  0  0  0  0  0  0
  -19.7910  -26.3560   21.2440 C   0  0  0  0  0  2  0  0  0  0  0  0
  -18.4150  -26.4200   21.9110 C   0  0  0  0  0  2  0  0  0  0  0  0
  -19.3030  -28.5000   23.1180 C   0  0  0  0  0  0  0  0  0  0  0  0
  -19.0510  -29.7200   23.7810 C   0  0  0  0  0  3  0  0  0  0  0  0
  -17.7330  -30.1680   23.9910 C   0  0  0  0  0  3  0  0  0  0  0  0
  -16.6480  -29.3900   23.5490 C   0  0  0  0  0  3  0  0  0  0  0  0
  -16.8840  -28.1690   22.8930 C   0  0  0  0  0  3  0  0  0  0  0  0
  -25.7690  -32.4910   23.7870 C   0  0  0  0  0  3  0  0  0  0  0  0
  -26.2880  -31.7300   25.0690 C   0  0  1  0  0  0  0  0  0  0  0  0
  -25.1750  -31.4020   26.0900 C   0  0  0  0  0  1  0  0  0  0  0  0
  -26.9750  -30.4000   24.6780 C   0  0  0  0  0  1  0  0  0  0  0  0
  -27.3630  -32.5830   25.7830 C   0  0  0  0  0  1  0  0  0  0  0  0
  -25.3700  -33.8640   24.1280 N   0  0  0  0  0  0  0  0  0  0  0  0
  -25.6530  -34.9460   23.3900 C   0  0  0  0  0  0  0  0  0  0  0  0
  -26.3470  -34.8960   22.3720 O   0  0  0  0  0  0  0  0  0  0  0  0
  -24.7490  -33.9700   24.9170 H   0  0  0  0  0  0  0  0  0  0  0  0
  -23.8230  -36.6340   23.0340 C   0  0  0  0  0  1  0  0  0  0  0  0
  -25.0770  -36.2970   23.8560 C   0  0  0  0  0  3  0  0  0  0  0  0
  -27.1410  -37.3000   24.7280 C   0  0  0  0  0  1  0  0  0  0  0  0
  -26.0450  -37.4120   23.7690 N   0  0  0  0  0  0  0  0  0  0  0  0
  -25.5820  -38.3040   23.9200 H   0  0  0  0  0  0  0  0  0  0  0  0
  2  1  1  0
  3  5  1  0
  5 14  1  0
  5  6  1  0
  6  4  1  0
  6  1  1  0
  7  3  1  0
  7  2  1  0
  8  7  1  0
  8  4  1  0
  8 55  1  0
  8  9  1  6
 10 11  2  0
 10 13  1  0
 11 14  1  0
 12 15  1  0
 13 12  2  0
 14 15  2  0
 15 54  1  0
 16 13  1  0
 17 22  1  0
 18 19  1  0
 18 17  1  0
 20 19  1  0
 20 27  1  0
 20 21  1  0
 22 16  1  0
 22 21  1  0
 23 16  2  0
 24 25  2  0
 25 44  1  0
 26 25  1  0
 26 29  1  0
 27 28  1  0
 27 24  1  0
 28 26  2  0
 29 30  1  0
 30 31  2  0
 32 35  1  0
 32 31  1  0
 33 32  2  0
 34 33  1  0
 34 29  2  0
 35 36  1  0
 36 41  2  0
 36 37  1  0
 37 38  2  0
 38 39  1  0
 39 43  1  0
 40 39  2  0
 41 40  1  0
 42 41  1  0
 44 45  1  0
 45 48  1  0
 45 47  1  0
 46 44  2  0
 49 24  1  0
 49 50  1  0
 51 49  1  0
 52 53  1  0
 54 52  1  0
 54 53  1  0
 56 55  1  0
 57 68  2  0
 58 56  1  0
 58 63  1  0
 59 67  1  0
 59 69  1  0
 60 66  1  0
 60 62  1  0
 61 67  1  0
 62 63  2  0
 62 61  1  0
 64 58  2  0
 65 64  1  0
 65 60  2  0
 66 59  1  0
 67 57  1  0
 69 71  2  0
 70 69  1  0
 72 70  1  0
 73 82  2  0
 73 78  1  0
 74 70  1  0
 74 78  1  0
 75 74  1  0
 76 77  1  0
 76 75  1  0
 77 73  1  0
 78 79  2  0
 79 80  1  0
 81 80  2  0
 82 81  1  0
 83 57  1  0
 83 88  1  0
 83 84  1  0
 84 87  1  1
 84 85  1  0
 86 84  1  0
 88 91  1  0
 89 93  1  0
 89 88  1  0
 90 89  2  0
 93 92  1  0
 95 93  1  0
 95 96  1  0
 95 94  1  0
M  ISO  4  13 100  16 100  55 101  56 101
M  END
>  <TORSDO>  (90) 
F 19

>  <SCORE>  (90) 
-13.159

>  <name>  (90) 
91

>  <ligand_id>  (90) 
91

>  <original_smiles>  (90) 
[H]c1c([H])c([H])c2c(c1[H])C([H])([H])C([H])([H])C([H])([H])C2([H])N([H])C(=O)C1([H])N(C(=O)C([H])(N([H])C(=O)C([H])(N([H])C([H])([H])[H])C([H])([H])[H])C(C([H])([H])[H])(C([H])([H])[H])C([H])([H])[H])C([H])([H])c2c([H])c(OC([H])([H])[N+]3([H])C([H])([H])C4([H])C([H])([H])C([H])([H])C3([H])C([H])([H])C4([H])c3c([H])c([H])c(C(=O)N4C([H])([H])C([H])([H])C([H])([H])C([H])(n5nc(-c6c([H])c([H])c(Oc7c([H])c([H])c(F)c([H])c7F)c([H])c6[H])c(C(=O)N([H])[H])c5N([H])[H])C4([H])[H])c([H])c3C3([H])C([H])([H])C3([H])[H])c([H])c([H])c2C1([H])[H]

>  <smiles>  (90) 
[H]c1c([H])c([H])c2c(c1[H])C([H])([H])C([H])([H])C([H])([H])C2([H])N([H])C(=O)C1([H])N(C(=O)C([H])(N([H])C(=O)C([H])(N([H])C([H])([H])[H])C([H])([H])[H])C(C([H])([H])[H])(C([H])([H])[H])C([H])([H])[H])C([H])([H])c2c([H])c(OC([H])([H])[N+]3([H])C([H])([H])C4([H])C([H])([H])C([H])([H])C3([H])C([H])([H])C4([H])c3c([H])c([H])c(C(=O)N4C([H])([H])C([H])([H])C([H])([H])C([H])(n5nc(-c6c([H])c([H])c(Oc7c([H])c([H])c(F)c([H])c7F)c([H])c6[H])c(C(=O)N([H])[H])c5N([H])[H])C4([H])[H])c([H])c3C3([H])C([H])([H])C3([H])[H])c([H])c([H])c2C1([H])[H]

$$$$
92:0:0
     RDKit          3D

 93 91  0  0  1  0  0  0  0  0999 V2000
  -26.6330  -17.1660   18.9920 C   0  0  0  0  0  1  0  0  0  0  0  0
  -23.8290  -12.1530   19.9800 C   0  0  0  0  0 15  0  0  0  0  0  0
  -25.3110  -11.6790   22.0750 C   0  0  0  0  0 15  0  0  0  0  0  0
  -24.6640  -13.8620   18.8020 C   0  0  0  0  0 15  0  0  0  0  0  0
  -27.6830  -14.5550   20.7640 C   0  0  0  0  0 15  0  0  0  0  0  0
  -27.1940  -12.9190   21.9830 C   0  0  0  0  0  1  0  0  0  0  0  0
  -26.4270  -15.1770   19.2060 C   0  0  0  0  0 15  0  0  0  0  0  0
  -30.6420  -12.9970   20.6330 C   0  0  0  0  0  0  0  0  0  0  0  0
  -30.8350  -11.2980   18.7340 C   0  0  0  0  0  2  0  0  0  0  0  0
  -29.8890  -11.5210   17.5080 C   0  0  0  0  0  2  0  0  0  0  0  0
  -28.3550  -11.4660   17.8010 C   0  0  0  0  0  2  0  0  0  0  0  0
  -28.0570  -12.2320   19.1270 C   0  0  0  0  0  3  0  0  0  0  0  0
  -28.9400  -11.4090   20.0960 C   0  0  0  0  0  2  0  0  0  0  0  0
  -30.2620  -11.9100   19.9490 N   0  0  0  0  0  0  0  0  0  0  0  0
  -31.6440  -13.6070   20.1460 O   0  0  0  0  0  0  0  0  0  0  0  0
  -28.6700  -12.8660   22.6190 C   0  0  0  0  0  0  0  0  0  0  0  0
  -29.9200  -13.1910   21.8970 N   0  0  0  0  0  0  0  0  0  0  0  0
  -28.7310  -12.6380   23.8280 O   0  0  0  0  0  0  0  0  0  0  0  0
  -30.5530  -13.6440   22.5370 H   0  0  0  0  0  0  0  0  0  0  0  0
  -25.6230  -13.9740   20.8290 C   0  0  0  0  0  2  0  0  0  0  0  0
  -25.0440  -13.5070   21.0500 C   0  0  0  0  0  2  0  0  0  0  0  0
  -25.8540  -11.5970   20.1640 C   0  0  0  0  0  3  0  0  0  0  0  0
  -26.5670  -12.5150   19.7340 N   0  0  0  0  0  0  0  0  0  0  0  0
  -26.2440  -11.4360   19.1390 N   0  0  0  0  0  2  0  0  0  0  0  0
  -24.9800   -9.9480   20.4610 C   0  0  0  0  0  0  0  0  0  0  0  0
  -25.1150   -8.9900   21.5780 C   0  0  0  0  0  3  0  0  0  0  0  0
  -24.1910   -7.9310   22.0040 C   0  0  0  0  0  3  0  0  0  0  0  0
  -22.9340   -7.6950   21.3810 C   0  0  0  0  0  0  0  0  0  0  0  0
  -22.6990   -8.5750   20.3150 C   0  0  0  0  0  3  0  0  0  0  0  0
  -23.6840   -9.5290   19.8640 C   0  0  0  0  0  3  0  0  0  0  0  0
  -22.0010   -6.6650   21.6190 O   0  0  0  0  0  0  0  0  0  0  0  0
  -21.9130   -5.8860   22.7680 C   0  0  0  0  0  0  0  0  0  0  0  0
  -21.5310   -6.4540   24.0030 C   0  0  0  0  0  3  0  0  0  0  0  0
  -21.3800   -5.6500   25.1540 C   0  0  0  0  0  3  0  0  0  0  0  0
  -21.6040   -4.2630   25.0870 C   0  0  0  0  0  0  0  0  0  0  0  0
  -21.9440   -3.6750   23.8570 C   0  0  0  0  0  3  0  0  0  0  0  0
  -22.0810   -4.4750   22.7040 C   0  0  0  0  0  0  0  0  0  0  0  0
  -22.3710   -3.8700   21.5270 F   0  0  0  0  0  0  0  0  0  0  0  0
  -21.4890   -3.4970   26.2010 F   0  0  0  0  0  0  0  0  0  0  0  0
  -23.5760  -13.9540   21.7160 C   0  0  0  0  0  0  0  0  0  0  0  0
  -22.8680  -13.0830   22.4800 N   0  0  0  0  0  0  0  0  0  0  0  0
  -22.8890  -14.7290   21.0580 O   0  0  0  0  0  0  0  0  0  0  0  0
  -23.3100  -12.2420   22.8160 H   0  0  0  0  0  0  0  0  0  0  0  0
  -21.8830  -13.2340   22.6410 H   0  0  0  0  0  0  0  0  0  0  0  0
  -25.7210  -15.3600   21.2730 N   0  0  0  0  0  0  0  0  0  0  0  0
  -25.0670  -15.8300   21.8870 H   0  0  0  0  0  0  0  0  0  0  0  0
  -26.5980  -15.8510   21.1750 H   0  0  0  0  0  0  0  0  0  0  0  0
  -26.7310  -18.8470   19.8510 N   0  0  0  0  0  4  0  0  0  0  0  0
  -27.2340  -18.6100   20.6920 H   0  0  0  0  0  0  0  0  0  0  0  0
  -25.7750  -18.9510   20.1510 H   0  0  0  0  0  0  0  0  0  0  0  0
  -27.2460  -20.6510   19.5900 C   0  0  0  0  0  1  0  0  0  0  0  0
  -27.1110  -22.6130   20.3570 C   0  0  0  0  0 15  0  0  0  0  0  0
  -27.7490  -24.4100   20.4700 O   0  0  0  0  0  1  0  0  0  0  0  0
  -24.8770  -31.4420   23.0690 C   0  0  0  0  0  0  0  0  0  0  0  0
  -27.1370  -25.8930   20.4240 C   0  0  0  0  0  0  0  0  0  0  0  0
  -23.7680  -29.9960   21.4470 C   0  0  0  0  0  3  0  0  0  0  0  0
  -25.2050  -28.2470   20.1660 C   0  0  0  0  0  0  0  0  0  0  0  0
  -26.3590  -29.9630   21.5150 C   0  0  0  0  0  2  0  0  0  0  0  0
  -26.3710  -28.4830   20.8990 C   0  0  0  0  0  0  0  0  0  0  0  0
  -27.3500  -27.3240   20.9920 C   0  0  0  0  0  3  0  0  0  0  0  0
  -26.0170  -25.9690   19.5950 C   0  0  0  0  0  3  0  0  0  0  0  0
  -25.0930  -27.0330   19.4870 C   0  0  0  0  0  3  0  0  0  0  0  0
  -24.0700  -29.2760   20.1100 C   0  0  0  0  0  2  0  0  0  0  0  0
  -25.0320  -30.5140   22.0570 N   0  0  0  0  0  0  0  0  0  0  0  0
  -23.7530  -31.7840   23.4840 O   0  0  0  0  0  0  0  0  0  0  0  0
  -22.9870  -29.0560   22.4070 C   0  0  0  0  0  0  0  0  0  0  0  0
  -21.6510  -28.9650   22.2610 N   0  0  0  0  0  0  0  0  0  0  0  0
  -23.5950  -28.4140   23.2670 O   0  0  0  0  0  0  0  0  0  0  0  0
  -21.2100  -29.5310   21.5490 H   0  0  0  0  0  0  0  0  0  0  0  0
  -18.1910  -27.9990   22.8150 C   0  0  0  0  0  0  0  0  0  0  0  0
  -20.7680  -28.0830   23.0370 C   0  0  0  0  0  3  0  0  0  0  0  0
  -20.7560  -26.6520   22.4490 C   0  0  0  0  0  2  0  0  0  0  0  0
  -19.6200  -26.4220   21.4470 C   0  0  0  0  0  2  0  0  0  0  0  0
  -18.2620  -26.6530   22.1150 C   0  0  0  0  0  2  0  0  0  0  0  0
  -19.3680  -28.6790   23.2340 C   0  0  0  0  0  0  0  0  0  0  0  0
  -19.2430  -29.9400   23.8540 C   0  0  0  0  0  3  0  0  0  0  0  0
  -17.9770  -30.5210   24.0560 C   0  0  0  0  0  3  0  0  0  0  0  0
  -16.8160  -29.8410   23.6490 C   0  0  0  0  0  3  0  0  0  0  0  0
  -16.9240  -28.5810   23.0340 C   0  0  0  0  0  3  0  0  0  0  0  0
  -26.0920  -32.1330   23.7550 C   0  0  0  0  0  3  0  0  0  0  0  0
  -26.5960  -31.3600   25.0370 C   0  0  1  0  0  0  0  0  0  0  0  0
  -25.4760  -31.0250   26.0530 C   0  0  0  0  0  1  0  0  0  0  0  0
  -27.2830  -30.0320   24.6560 C   0  0  0  0  0  1  0  0  0  0  0  0
  -27.6610  -32.2090   25.7730 C   0  0  0  0  0  1  0  0  0  0  0  0
  -25.6890  -33.5050   24.1360 N   0  0  0  0  0  0  0  0  0  0  0  0
  -25.9800  -34.6210   23.4560 C   0  0  0  0  0  0  0  0  0  0  0  0
  -26.6720  -34.6100   22.4350 O   0  0  0  0  0  0  0  0  0  0  0  0
  -25.0710  -33.5810   24.9300 H   0  0  0  0  0  0  0  0  0  0  0  0
  -24.1710  -36.3600   23.1860 C   0  0  0  0  0  1  0  0  0  0  0  0
  -25.4220  -35.9600   23.9860 C   0  0  0  0  0  3  0  0  0  0  0  0
  -27.4990  -36.9090   24.8970 C   0  0  0  0  0  1  0  0  0  0  0  0
  -26.4020  -37.0700   23.9470 N   0  0  0  0  0  0  0  0  0  0  0  0
  -25.9470  -37.9590   24.1390 H   0  0  0  0  0  0  0  0  0  0  0  0
  1 48  1  0
  6 16  1  0
  8 17  1  0
  9 14  1  0
 10 11  1  0
 10  9  1  0
 12 11  1  0
 12 23  1  0
 12 13  1  0
 14 13  1  0
 14  8  1  0
 15  8  2  0
 16 18  2  0
 17 19  1  0
 17 16  1  0
 20 21  1  0
 20 45  1  0
 21 40  1  0
 22 25  1  0
 23 24  1  0
 23 22  1  0
 24 22  1  0
 25 26  1  0
 26 27  2  0
 28 31  1  0
 28 27  1  0
 29 28  2  0
 30 29  1  0
 30 25  2  0
 31 32  1  0
 32 33  1  0
 33 34  2  0
 35 34  1  0
 35 39  1  0
 36 35  2  0
 37 32  2  0
 37 36  1  0
 38 37  1  0
 40 41  1  0
 41 44  1  0
 41 43  1  0
 42 40  2  0
 45 46  1  0
 47 45  1  0
 48 50  1  0
 48 49  1  0
 51 48  1  0
 54 65  2  0
 55 53  1  0
 55 60  1  0
 56 64  1  0
 56 66  1  0
 57 59  1  0
 58 64  1  0
 59 60  2  0
 59 58  1  0
 61 55  2  0
 62 61  1  0
 62 57  2  0
 63 57  1  0
 63 56  1  0
 64 54  1  0
 66 68  2  0
 67 66  1  0
 69 67  1  0
 70 79  2  0
 70 75  1  0
 71 67  1  0
 71 75  1  0
 72 71  1  0
 73 74  1  0
 73 72  1  0
 74 70  1  0
 75 76  2  0
 76 77  1  0
 78 77  2  0
 79 78  1  0
 80 54  1  0
 80 85  1  0
 80 81  1  0
 81 84  1  1
 81 82  1  0
 83 81  1  0
 85 88  1  0
 86 90  1  0
 86 85  1  0
 87 86  2  0
 90 89  1  0
 92 90  1  0
 92 93  1  0
 92 91  1  0
M  ISO  4   8 100  17 100  52 101  53 101
M  END
>  <TORSDO>  (91) 
F 20

>  <SCORE>  (91) 
-3.751

>  <name>  (91) 
92

>  <ligand_id>  (91) 
92

>  <original_smiles>  (91) 
[H]c1c([H])c([H])c2c(c1[H])C([H])([H])C([H])([H])C([H])([H])C2([H])N([H])C(=O)C1([H])N(C(=O)C([H])(N([H])C(=O)C([H])(N([H])C([H])([H])[H])C([H])([H])[H])C(C([H])([H])[H])(C([H])([H])[H])C([H])([H])[H])C([H])([H])c2c([H])c(OC([H])([H])C([H])([H])[N+]([H])([H])C([H])([H])c3c([H])c([H])c([H])c(C(=O)N([H])C(=O)N4C([H])([H])C([H])([H])C([H])([H])C([H])(n5nc(-c6c([H])c([H])c(Oc7c([H])c([H])c(F)c([H])c7F)c([H])c6[H])c(C(=O)N([H])[H])c5N([H])[H])C4([H])[H])c3[H])c([H])c([H])c2C1([H])[H]

>  <smiles>  (91) 
[H]c1c([H])c([H])c2c(c1[H])C([H])([H])C([H])([H])C([H])([H])C2([H])N([H])C(=O)C1([H])N(C(=O)C([H])(N([H])C(=O)C([H])(N([H])C([H])([H])[H])C([H])([H])[H])C(C([H])([H])[H])(C([H])([H])[H])C([H])([H])[H])C([H])([H])c2c([H])c(OC([H])([H])C([H])([H])[N+]([H])([H])C([H])([H])c3c([H])c([H])c([H])c(C(=O)N([H])C(=O)N4C([H])([H])C([H])([H])C([H])([H])C([H])(n5nc(-c6c([H])c([H])c(Oc7c([H])c([H])c(F)c([H])c7F)c([H])c6[H])c(C(=O)N([H])[H])c5N([H])[H])C4([H])[H])c3[H])c([H])c([H])c2C1([H])[H]

$$$$
93:0:0
     RDKit          3D

 91 99  0  0  1  0  0  0  0  0999 V2000
  -28.8620  -19.7410   18.8890 C   0  0  0  0  0  3  0  0  0  0  0  0
  -29.2970  -19.7490   20.1680 C   0  0  0  0  0  0  0  0  0  0  0  0
  -28.5440  -20.9440   18.1220 C   0  0  0  0  0  0  0  0  0  0  0  0
  -29.4240  -21.1210   20.9050 C   0  0  0  0  0  2  0  0  0  0  0  0
  -28.6300  -22.3250   20.2290 C   0  0  0  0  0  3  0  0  0  0  0  0
  -28.5390  -22.1110   18.7850 N   0  0  0  0  0  0  0  0  0  0  0  0
  -28.3090  -20.9260   16.9140 O   0  0  0  0  0  0  0  0  0  0  0  0
  -28.3580  -22.9310   18.2210 H   0  0  0  0  0  0  0  0  0  0  0  0
  -29.6210  -18.4080   20.9400 C   0  0  0  0  0  2  0  0  0  0  0  0
  -30.1350  -17.1280   20.1240 C   0  0  0  0  0  2  0  0  0  0  0  0
  -30.6370  -14.6190   20.3620 C   0  0  0  0  0  0  0  0  0  0  0  0
  -30.3600  -12.3900   19.3090 C   0  0  0  0  0  2  0  0  0  0  0  0
  -29.4200  -12.5440   18.0930 C   0  0  0  0  0  2  0  0  0  0  0  0
  -27.9490  -12.3980   18.5260 C   0  0  0  0  0  2  0  0  0  0  0  0
  -27.6040  -13.2580   19.7710 C   0  0  0  0  0  3  0  0  0  0  0  0
  -28.6660  -13.1080   20.8850 C   0  0  0  0  0  2  0  0  0  0  0  0
  -29.9800  -13.4180   20.3020 N   0  0  0  0  0  0  0  0  0  0  0  0
  -31.7920  -14.7340   19.9430 O   0  0  0  0  0  0  0  0  0  0  0  0
  -29.9000  -15.7360   20.6640 N   0  0  0  0  0  0  0  0  0  0  0  0
  -28.9780  -15.5510   21.0320 H   0  0  0  0  0  0  0  0  0  0  0  0
  -25.2170  -13.8670   20.4940 C   0  0  0  0  0  0  0  0  0  0  0  0
  -24.1480  -13.0990   20.8700 C   0  0  0  0  0  0  0  0  0  0  0  0
  -24.6050  -11.7460   20.8460 C   0  0  0  0  0  0  0  0  0  0  0  0
  -26.2580  -12.9810   20.2620 N   0  0  0  0  0  0  0  0  0  0  0  0
  -25.8940  -11.7000   20.5330 N   0  0  0  0  0  0  0  0  0  0  0  0
  -23.8720  -10.4890   21.0460 C   0  0  0  0  0  0  0  0  0  0  0  0
  -24.3160   -9.5130   21.9660 C   0  0  0  0  0  3  0  0  0  0  0  0
  -23.5860   -8.3210   22.1540 C   0  0  0  0  0  3  0  0  0  0  0  0
  -22.3980   -8.0930   21.4200 C   0  0  0  0  0  0  0  0  0  0  0  0
  -21.9720   -9.0560   20.4880 C   0  0  0  0  0  3  0  0  0  0  0  0
  -22.7020  -10.2410   20.2980 C   0  0  0  0  0  3  0  0  0  0  0  0
  -21.6390   -6.9510   21.5150 O   0  0  0  0  0  0  0  0  0  0  0  0
  -21.6190   -6.1940   22.6580 C   0  0  0  0  0  0  0  0  0  0  0  0
  -21.2490   -6.7380   23.9070 C   0  0  0  0  0  3  0  0  0  0  0  0
  -21.1750   -5.9090   25.0440 C   0  0  0  0  0  3  0  0  0  0  0  0
  -21.4650   -4.5350   24.9330 C   0  0  0  0  0  0  0  0  0  0  0  0
  -21.8270   -3.9890   23.6890 C   0  0  0  0  0  3  0  0  0  0  0  0
  -21.9020   -4.8160   22.5550 C   0  0  0  0  0  0  0  0  0  0  0  0
  -22.2330   -4.2820   21.3540 F   0  0  0  0  0  0  0  0  0  0  0  0
  -21.3860   -3.7350   26.0220 F   0  0  0  0  0  0  0  0  0  0  0  0
  -22.7540  -13.5850   21.1450 C   0  0  0  0  0  0  0  0  0  0  0  0
  -22.0280  -12.8980   22.0200 N   0  0  0  0  0  0  0  0  0  0  0  0
  -22.3170  -14.6080   20.6200 O   0  0  0  0  0  0  0  0  0  0  0  0
  -22.3960  -12.0700   22.4650 H   0  0  0  0  0  0  0  0  0  0  0  0
  -21.0930  -13.2050   22.2480 H   0  0  0  0  0  0  0  0  0  0  0  0
  -25.3860  -15.2360   20.3080 N   0  0  0  0  0  0  0  0  0  0  0  0
  -24.6180  -15.8900   20.4100 H   0  0  0  0  0  0  0  0  0  0  0  0
  -26.2300  -15.6700   19.9550 H   0  0  0  0  0  0  0  0  0  0  0  0
  -29.0330  -23.8440   20.5470 C   0  0  0  0  0  3  0  0  0  0  0  0
  -28.0300  -24.9750   20.0400 C   0  0  0  0  0  3  0  0  0  0  0  0
  -28.2820  -26.4230   20.2660 O   0  0  0  0  0  0  0  0  0  0  0  0
  -24.6030  -31.8720   23.2370 C   0  0  0  0  0  0  0  0  0  0  0  0
  -27.1800  -27.2940   20.1850 C   0  0  0  0  0  0  0  0  0  0  0  0
  -23.3900  -30.4780   21.6030 C   0  0  0  0  0  3  0  0  0  0  0  0
  -24.8280  -28.9240   20.1740 C   0  0  0  0  0  0  0  0  0  0  0  0
  -25.9300  -30.7840   21.4150 C   0  0  0  0  0  2  0  0  0  0  0  0
  -26.0010  -29.4050   20.7690 C   0  0  0  0  0  0  0  0  0  0  0  0
  -27.1810  -28.6010   20.7640 C   0  0  0  0  0  3  0  0  0  0  0  0
  -25.9840  -26.8790   19.5510 C   0  0  0  0  0  3  0  0  0  0  0  0
  -24.8220  -27.6670   19.5550 C   0  0  0  0  0  3  0  0  0  0  0  0
  -23.5960  -29.8020   20.2230 C   0  0  0  0  0  2  0  0  0  0  0  0
  -24.6600  -31.0620   22.1400 N   0  0  0  0  0  0  0  0  0  0  0  0
  -23.5220  -32.1560   23.7720 O   0  0  0  0  0  0  0  0  0  0  0  0
  -22.7260  -29.4620   22.5650 C   0  0  0  0  0  0  0  0  0  0  0  0
  -21.3990  -29.2920   22.4410 N   0  0  0  0  0  0  0  0  0  0  0  0
  -23.4030  -28.8350   23.3840 O   0  0  0  0  0  0  0  0  0  0  0  0
  -20.9150  -29.8480   21.7490 H   0  0  0  0  0  0  0  0  0  0  0  0
  -18.0150  -28.1120   22.9430 C   0  0  0  0  0  0  0  0  0  0  0  0
  -20.5750  -28.3620   23.2140 C   0  0  0  0  0  3  0  0  0  0  0  0
  -20.6700  -26.9280   22.6440 C   0  0  0  0  0  2  0  0  0  0  0  0
  -19.5660  -26.6060   21.6320 C   0  0  0  0  0  2  0  0  0  0  0  0
  -18.1850  -26.7600   22.2740 C   0  0  0  0  0  2  0  0  0  0  0  0
  -19.1360  -28.8720   23.3710 C   0  0  0  0  0  0  0  0  0  0  0  0
  -18.9220  -30.1380   23.9570 C   0  0  0  0  0  3  0  0  0  0  0  0
  -17.6200  -30.6450   24.1200 C   0  0  0  0  0  3  0  0  0  0  0  0
  -16.5130  -29.8830   23.7100 C   0  0  0  0  0  3  0  0  0  0  0  0
  -16.7110  -28.6190   23.1270 C   0  0  0  0  0  3  0  0  0  0  0  0
  -25.8900  -32.5000   23.8540 C   0  0  0  0  0  3  0  0  0  0  0  0
  -26.4080  -31.7240   25.1270 C   0  0  1  0  0  0  0  0  0  0  0  0
  -25.3180  -31.4890   26.1990 C   0  0  0  0  0  1  0  0  0  0  0  0
  -26.9840  -30.3460   24.7290 C   0  0  0  0  0  1  0  0  0  0  0  0
  -27.5640  -32.5130   25.7850 C   0  0  0  0  0  1  0  0  0  0  0  0
  -25.5850  -33.8980   24.1900 N   0  0  0  0  0  0  0  0  0  0  0  0
  -25.9120  -34.9520   23.4300 C   0  0  0  0  0  0  0  0  0  0  0  0
  -26.5740  -34.8500   22.3930 O   0  0  0  0  0  0  0  0  0  0  0  0
  -24.9970  -34.0520   24.9950 H   0  0  0  0  0  0  0  0  0  0  0  0
  -24.1820  -36.7470   23.0950 C   0  0  0  0  0  1  0  0  0  0  0  0
  -25.4310  -36.3400   23.8940 C   0  0  0  0  0  3  0  0  0  0  0  0
  -27.5750  -37.2200   24.7050 C   0  0  0  0  0  1  0  0  0  0  0  0
  -26.4640  -37.3930   23.7720 N   0  0  0  0  0  0  0  0  0  0  0  0
  -26.0600  -38.3120   23.9270 H   0  0  0  0  0  0  0  0  0  0  0  0
  1  2  2  0
  2  4  1  0
  2  9  1  0
  3  6  1  0
  3  1  1  0
  5 49  1  0
  5  4  1  0
  6  5  1  0
  7  3  2  0
  8  6  1  0
 10 19  1  0
 10  9  1  0
 11 19  1  0
 12 17  1  0
 13 14  1  0
 13 12  1  0
 15 14  1  0
 15 24  1  0
 15 16  1  0
 17 11  1  0
 17 16  1  0
 18 11  2  0
 19 20  1  0
 21 22  2  0
 22 41  1  0
 23 22  1  0
 23 26  1  0
 24 21  1  0
 24 25  1  0
 25 23  2  0
 26 27  1  0
 27 28  2  0
 29 32  1  0
 29 28  1  0
 30 29  2  0
 31 30  1  0
 31 26  2  0
 32 33  1  0
 33 34  1  0
 34 35  2  0
 36 35  1  0
 36 40  1  0
 37 36  2  0
 38 33  2  0
 38 37  1  0
 39 38  1  0
 41 42  1  0
 42 45  1  0
 42 44  1  0
 43 41  2  0
 46 47  1  0
 46 21  1  0
 48 46  1  0
 50 51  1  0
 50 49  2  0
 52 63  2  0
 53 51  1  0
 53 58  1  0
 54 62  1  0
 54 64  1  0
 55 61  1  0
 55 57  1  0
 56 62  1  0
 57 56  1  0
 58 57  2  0
 59 60  1  0
 59 53  2  0
 60 55  2  0
 61 54  1  0
 62 52  1  0
 64 66  2  0
 65 64  1  0
 67 65  1  0
 68 77  2  0
 68 73  1  0
 69 65  1  0
 69 73  1  0
 70 69  1  0
 71 72  1  0
 71 70  1  0
 72 68  1  0
 73 74  2  0
 74 75  1  0
 76 75  2  0
 77 76  1  0
 78 52  1  0
 78 83  1  0
 78 79  1  0
 79 82  1  1
 79 80  1  0
 81 79  1  0
 83 86  1  0
 84 88  1  0
 84 83  1  0
 85 84  2  0
 88 87  1  0
 90 88  1  0
 90 91  1  0
 90 89  1  0
M  ISO  4  11 100  19 100  50 101  51 101
M  END
>  <TORSDO>  (92) 
F 20

>  <SCORE>  (92) 
-13.935

>  <name>  (92) 
93

>  <ligand_id>  (92) 
93

>  <original_smiles>  (92) 
[H]C1=C(C([H])([H])C([H])([H])N([H])C(=O)N2C([H])([H])C([H])([H])C([H])([H])C([H])(n3nc(-c4c([H])c([H])c(Oc5c([H])c([H])c(F)c([H])c5F)c([H])c4[H])c(C(=O)N([H])[H])c3N([H])[H])C2([H])[H])C([H])([H])C([H])(C([H])([H])C([H])([H])Oc2c([H])c([H])c3c(c2[H])C([H])([H])N(C(=O)C([H])(N([H])C(=O)C([H])(N([H])C([H])([H])[H])C([H])([H])[H])C(C([H])([H])[H])(C([H])([H])[H])C([H])([H])[H])C([H])(C(=O)N([H])C2([H])c4c([H])c([H])c([H])c([H])c4C([H])([H])C([H])([H])C2([H])[H])C3([H])[H])N([H])C1=O

>  <smiles>  (92) 
[H]C1=C(C([H])([H])C([H])([H])N([H])C(=O)N2C([H])([H])C([H])([H])C([H])([H])C([H])(n3nc(-c4c([H])c([H])c(Oc5c([H])c([H])c(F)c([H])c5F)c([H])c4[H])c(C(=O)N([H])[H])c3N([H])[H])C2([H])[H])C([H])([H])C([H])(C([H])([H])C([H])([H])Oc2c([H])c([H])c3c(c2[H])C([H])([H])N(C(=O)C([H])(N([H])C(=O)C([H])(N([H])C([H])([H])[H])C([H])([H])[H])C(C([H])([H])[H])(C([H])([H])[H])C([H])([H])[H])C([H])(C(=O)N([H])C2([H])c4c([H])c([H])c([H])c([H])c4C([H])([H])C([H])([H])C2([H])[H])C3([H])[H])N([H])C1=O

$$$$
94:0:0
     RDKit          3D

 95103  0  0  1  0  0  0  0  0999 V2000
  -27.4400  -22.6670   20.3170 C   0  0  0  0  0  3  0  0  0  0  0  0
  -27.6700  -21.3490   20.1750 C   0  0  0  0  0  3  0  0  0  0  0  0
  -28.0500  -23.6970   19.4530 C   0  0  0  0  0  0  0  0  0  0  0  0
  -28.6190  -20.7620   19.1520 C   0  0  0  0  0  2  0  0  0  0  0  0
  -29.0460  -23.1870   18.3930 C   0  0  0  0  0  2  0  0  0  0  0  0
  -29.6810  -21.8020   18.7160 C   0  0  0  0  0  3  0  0  0  0  0  0
  -27.6850  -24.9160   19.6240 N   0  0  0  0  0  0  0  0  0  0  0  0
  -30.5510  -21.3290   17.5980 N   0  0  0  0  0  4  0  0  0  0  0  0
  -31.2420  -20.7050   17.9840 H   0  0  0  0  0  0  0  0  0  0  0  0
  -31.0460  -22.1220   17.2180 H   0  0  0  0  0  0  0  0  0  0  0  0
  -29.8840  -20.6390   16.4680 C   0  0  0  0  0  2  0  0  0  0  0  0
  -30.8460  -20.2770   15.3050 C   0  0  0  0  0  3  0  0  0  0  0  0
  -31.3600  -21.4280   13.1580 C   0  0  0  0  0  0  0  0  0  0  0  0
  -32.0000  -23.1490   11.5190 C   0  0  0  0  0  2  0  0  0  0  0  0
  -32.5300  -24.3830   12.2750 C   0  0  0  0  0  2  0  0  0  0  0  0
  -31.3740  -25.3440   12.6120 C   0  0  0  0  0  2  0  0  0  0  0  0
  -30.1890  -24.6150   13.3020 C   0  0  0  0  0  3  0  0  0  0  0  0
  -29.8030  -23.3260   12.5350 C   0  0  0  0  0  2  0  0  0  0  0  0
  -31.0090  -22.4890   12.3850 N   0  0  0  0  0  0  0  0  0  0  0  0
  -32.4500  -20.8570   13.0640 O   0  0  0  0  0  0  0  0  0  0  0  0
  -30.4930  -21.0800   14.1210 N   0  0  0  0  0  0  0  0  0  0  0  0
  -29.6040  -21.5570   14.1170 H   0  0  0  0  0  0  0  0  0  0  0  0
  -28.8040  -26.4590   14.4560 C   0  0  0  0  0  0  0  0  0  0  0  0
  -27.6230  -27.0590   14.1190 C   0  0  0  0  0  0  0  0  0  0  0  0
  -27.1880  -26.4320   12.9110 C   0  0  0  0  0  0  0  0  0  0  0  0
  -29.0420  -25.5070   13.4740 N   0  0  0  0  0  0  0  0  0  0  0  0
  -28.0300  -25.4630   12.5680 N   0  0  0  0  0  0  0  0  0  0  0  0
  -26.0540  -26.7380   12.0280 C   0  0  0  0  0  0  0  0  0  0  0  0
  -24.9190  -25.9010   11.9690 C   0  0  0  0  0  3  0  0  0  0  0  0
  -23.8340  -26.2260   11.1270 C   0  0  0  0  0  3  0  0  0  0  0  0
  -23.8730  -27.4010   10.3380 C   0  0  0  0  0  0  0  0  0  0  0  0
  -25.0160  -28.2180   10.3850 C   0  0  0  0  0  3  0  0  0  0  0  0
  -26.0980  -27.8900   11.2180 C   0  0  0  0  0  3  0  0  0  0  0  0
  -22.8760  -27.7840    9.4740 O   0  0  0  0  0  0  0  0  0  0  0  0
  -21.5720  -27.8990    9.8860 C   0  0  0  0  0  0  0  0  0  0  0  0
  -21.1890  -28.8060   10.8990 C   0  0  0  0  0  3  0  0  0  0  0  0
  -19.8290  -28.9460   11.2410 C   0  0  0  0  0  3  0  0  0  0  0  0
  -18.8500  -28.1900   10.5670 C   0  0  0  0  0  0  0  0  0  0  0  0
  -19.2300  -27.2910    9.5550 C   0  0  0  0  0  3  0  0  0  0  0  0
  -20.5860  -27.1500    9.2140 C   0  0  0  0  0  0  0  0  0  0  0  0
  -20.9430  -26.2970    8.2220 F   0  0  0  0  0  0  0  0  0  0  0  0
  -17.5440  -28.3290   10.8920 F   0  0  0  0  0  0  0  0  0  0  0  0
  -26.9720  -28.2140   14.8260 C   0  0  0  0  0  0  0  0  0  0  0  0
  -25.6500  -28.2050   14.9380 N   0  0  0  0  0  0  0  0  0  0  0  0
  -27.6450  -29.1170   15.3260 O   0  0  0  0  0  0  0  0  0  0  0  0
  -25.0990  -27.4530   14.5530 H   0  0  0  0  0  0  0  0  0  0  0  0
  -25.1790  -28.9560   15.4230 H   0  0  0  0  0  0  0  0  0  0  0  0
  -29.7040  -26.6490   15.5000 N   0  0  0  0  0  0  0  0  0  0  0  0
  -29.5800  -27.3840   16.1890 H   0  0  0  0  0  0  0  0  0  0  0  0
  -30.5930  -26.1740   15.5810 H   0  0  0  0  0  0  0  0  0  0  0  0
  -31.6510  -17.8650   15.8810 C   0  0  0  0  0  1  0  0  0  0  0  0
  -30.8210  -18.7640   14.9500 C   0  0  0  0  0  2  0  0  0  0  0  0
  -28.1470  -26.0090   18.7690 C   0  0  0  0  0  2  0  0  0  0  0  0
  -27.8860  -27.3930   19.4290 C   0  0  0  0  0  2  0  0  0  0  0  0
  -26.5140  -27.8140   19.3410 O   0  0  0  0  0  0  0  0  0  0  0  0
  -26.8230  -32.1270   25.0160 C   0  0  0  0  0  0  0  0  0  0  0  0
  -25.9600  -28.2290   20.5280 C   0  0  0  0  0  0  0  0  0  0  0  0
  -25.1960  -30.2650   25.1470 C   0  0  0  0  0  3  0  0  0  0  0  0
  -24.7610  -29.0200   22.9610 C   0  0  0  0  0  0  0  0  0  0  0  0
  -25.8540  -31.2670   22.8900 C   0  0  0  0  0  2  0  0  0  0  0  0
  -25.6120  -29.9010   22.2820 C   0  0  0  0  0  0  0  0  0  0  0  0
  -26.2130  -29.5140   21.0620 C   0  0  0  0  0  3  0  0  0  0  0  0
  -25.0920  -27.3580   21.2120 C   0  0  0  0  0  3  0  0  0  0  0  0
  -24.4910  -27.7470   22.4260 C   0  0  0  0  0  3  0  0  0  0  0  0
  -24.1650  -29.5100   24.2630 C   0  0  0  0  0  2  0  0  0  0  0  0
  -26.0120  -31.2480   24.3620 N   0  0  0  0  0  0  0  0  0  0  0  0
  -26.8700  -32.1590   26.2530 O   0  0  0  0  0  0  0  0  0  0  0  0
  -26.0540  -29.2300   25.9110 C   0  0  0  0  0  0  0  0  0  0  0  0
  -25.7240  -29.0050   27.1940 N   0  0  0  0  0  0  0  0  0  0  0  0
  -26.9720  -28.6310   25.3440 O   0  0  0  0  0  0  0  0  0  0  0  0
  -24.9660  -29.5430   27.5900 H   0  0  0  0  0  0  0  0  0  0  0  0
  -26.5700  -28.3630   30.6490 C   0  0  0  0  0  0  0  0  0  0  0  0
  -26.3700  -28.0460   28.0900 C   0  0  0  0  0  3  0  0  0  0  0  0
  -25.4290  -26.8620   28.4170 C   0  0  0  0  0  2  0  0  0  0  0  0
  -24.6110  -27.0750   29.6940 C   0  0  0  0  0  2  0  0  0  0  0  0
  -25.5390  -27.2750   30.8960 C   0  0  0  0  0  2  0  0  0  0  0  0
  -26.9480  -28.7350   29.3310 C   0  0  0  0  0  0  0  0  0  0  0  0
  -27.8840  -29.7770   29.1570 C   0  0  0  0  0  3  0  0  0  0  0  0
  -28.4390  -30.4420   30.2670 C   0  0  0  0  0  3  0  0  0  0  0  0
  -28.0700  -30.0600   31.5690 C   0  0  0  0  0  3  0  0  0  0  0  0
  -27.1420  -29.0210   31.7570 C   0  0  0  0  0  3  0  0  0  0  0  0
  -27.7140  -33.1470   24.2410 C   0  0  0  0  0  3  0  0  0  0  0  0
  -27.2430  -34.4960   24.5890 N   0  0  0  0  0  0  0  0  0  0  0  0
  -26.5710  -35.3040   23.7590 C   0  0  0  0  0  0  0  0  0  0  0  0
  -26.3400  -35.0120   22.5820 O   0  0  0  0  0  0  0  0  0  0  0  0
  -27.3500  -34.7790   25.5530 H   0  0  0  0  0  0  0  0  0  0  0  0
  -24.5670  -36.7970   24.0530 C   0  0  0  0  0  1  0  0  0  0  0  0
  -26.0730  -36.6460   24.3250 C   0  0  0  0  0  3  0  0  0  0  0  0
  -28.2380  -37.7500   23.9770 C   0  0  0  0  0  1  0  0  0  0  0  0
  -26.7920  -37.8180   23.7790 N   0  0  0  0  0  0  0  0  0  0  0  0
  -26.4540  -38.6780   24.2040 H   0  0  0  0  0  0  0  0  0  0  0  0
  -29.2540  -32.9950   24.5480 C   0  0  1  0  0  0  0  0  0  0  0  0
  -29.7000  -33.6920   25.8530 C   0  0  0  0  0  1  0  0  0  0  0  0
  -29.6470  -31.5020   24.6590 C   0  0  0  0  0  1  0  0  0  0  0  0
  -30.0830  -33.5830   23.3830 C   0  0  0  0  0  1  0  0  0  0  0  0
  2  1  2  0
  3  7  2  0
  3  1  1  0
  4  2  1  0
  5  6  1  0
  5  3  1  0
  6  8  1  0
  6  4  1  0
  8  9  1  0
 10  8  1  0
 11  8  1  0
 12 52  1  0
 12 11  1  0
 13 21  1  0
 14 15  1  0
 14 19  1  0
 15 16  1  0
 16 17  1  0
 17 18  1  0
 17 26  1  0
 19 18  1  0
 19 13  1  0
 20 13  2  0
 21 12  1  0
 22 21  1  0
 23 48  1  0
 24 23  2  0
 24 43  1  0
 25 24  1  0
 26 23  1  0
 27 25  2  0
 27 26  1  0
 28 25  1  0
 29 28  1  0
 30 29  2  0
 31 32  2  0
 31 30  1  0
 32 33  1  0
 33 28  2  0
 34 35  1  0
 34 31  1  0
 35 36  1  0
 36 37  2  0
 38 42  1  0
 38 37  1  0
 39 38  2  0
 40 39  1  0
 40 35  2  0
 41 40  1  0
 43 44  1  0
 43 45  2  0
 44 47  1  0
 46 44  1  0
 48 50  1  0
 48 49  1  0
 52 51  1  0
 53 54  1  0
 53  7  1  0
 55 54  1  0
 55 57  1  0
 56 67  2  0
 57 62  2  0
 57 63  1  0
 58 68  1  0
 59 65  1  0
 60 66  1  0
 61 60  1  0
 61 59  2  0
 62 61  1  0
 63 64  2  0
 64 59  1  0
 65 58  1  0
 66 56  1  0
 66 58  1  0
 68 69  1  0
 69 71  1  0
 70 68  2  0
 72 76  1  0
 72 81  1  0
 73 69  1  0
 73 74  1  0
 73 77  1  0
 74 75  1  0
 75 76  1  0
 77 72  2  0
 78 77  1  0
 78 79  2  0
 79 80  1  0
 80 81  2  0
 82 92  1  0
 82 83  1  0
 82 56  1  0
 83 86  1  0
 84 88  1  0
 84 83  1  0
 85 84  2  0
 88 87  1  0
 90 89  1  0
 90 91  1  0
 90 88  1  0
 92 94  1  1
 92 93  1  0
 95 92  1  0
M  ISO  4  13 100  21 100  54 101  55 101
M  END
>  <TORSDO>  (93) 
F 22

>  <SCORE>  (93) 
-7.168

>  <name>  (93) 
94

>  <ligand_id>  (93) 
94

>  <original_smiles>  (93) 
[H]C1=C([H])C([H])([H])C([H])([N+]([H])([H])C([H])([H])C([H])(N([H])C(=O)N2C([H])([H])C([H])([H])C([H])([H])C([H])(n3nc(-c4c([H])c([H])c(Oc5c([H])c([H])c(F)c([H])c5F)c([H])c4[H])c(C(=O)N([H])[H])c3N([H])[H])C2([H])[H])C([H])([H])C([H])([H])[H])C([H])([H])C1=NC([H])([H])C([H])([H])Oc1c([H])c([H])c2c(c1[H])C([H])([H])N(C(=O)C([H])(N([H])C(=O)C([H])(N([H])C([H])([H])[H])C([H])([H])[H])C(C([H])([H])[H])(C([H])([H])[H])C([H])([H])[H])C([H])(C(=O)N([H])C1([H])c3c([H])c([H])c([H])c([H])c3C([H])([H])C([H])([H])C1([H])[H])C2([H])[H]

>  <smiles>  (93) 
[H]C1=C([H])C([H])([H])C([H])([N+]([H])([H])C([H])([H])C([H])(N([H])C(=O)N2C([H])([H])C([H])([H])C([H])([H])C([H])(n3nc(-c4c([H])c([H])c(Oc5c([H])c([H])c(F)c([H])c5F)c([H])c4[H])c(C(=O)N([H])[H])c3N([H])[H])C2([H])[H])C([H])([H])C([H])([H])[H])C([H])([H])C1=NC([H])([H])C([H])([H])Oc1c([H])c([H])c2c(c1[H])C([H])([H])N(C(=O)C([H])(N([H])C(=O)C([H])(N([H])C([H])([H])[H])C([H])([H])[H])C(C([H])([H])[H])(C([H])([H])[H])C([H])([H])[H])C([H])(C(=O)N([H])C1([H])c3c([H])c([H])c([H])c([H])c3C([H])([H])C([H])([H])C1([H])[H])C2([H])[H]

$$$$
95:0:0
     RDKit          3D

 88 96  0  0  1  0  0  0  0  0999 V2000
  -28.7050  -22.1530   20.2790 C   0  0  0  0  0  3  0  0  0  0  0  0
  -29.1830  -18.5700   20.4600 C   0  0  0  0  0  0  0  0  0  0  0  0
  -30.0000  -17.2280   20.2750 C   0  0  0  0  0  0  0  0  0  0  0  0
  -29.9880  -19.8740   20.1200 C   0  0  0  0  0  0  0  0  0  0  0  0
  -31.3380  -17.7450   19.7580 C   0  0  0  0  0  3  0  0  0  0  0  0
  -31.3450  -19.3030   19.7320 C   0  0  0  0  0  3  0  0  0  0  0  0
  -29.6750  -15.9490   20.4840 N   0  0  0  0  0  0  0  0  0  0  0  0
  -29.8630  -21.2010   20.0650 N   0  0  0  0  0  0  0  0  0  0  0  0
  -28.0050  -18.5930   20.8400 O   0  0  0  0  0  0  0  0  0  0  0  0
  -30.5230  -14.8120   20.1980 C   0  0  0  0  0  0  0  0  0  0  0  0
  -30.3500  -12.5070   19.2320 C   0  0  0  0  0  2  0  0  0  0  0  0
  -29.3980  -12.5630   18.0170 C   0  0  0  0  0  2  0  0  0  0  0  0
  -27.9330  -12.3780   18.4620 C   0  0  0  0  0  2  0  0  0  0  0  0
  -27.5650  -13.2710   19.6770 C   0  0  0  0  0  3  0  0  0  0  0  0
  -28.6380  -13.2030   20.7810 C   0  0  0  0  0  2  0  0  0  0  0  0
  -29.9280  -13.5660   20.1790 N   0  0  0  0  0  0  0  0  0  0  0  0
  -31.6980  -14.8820   19.8290 O   0  0  0  0  0  0  0  0  0  0  0  0
  -25.1910  -13.8410   20.4640 C   0  0  0  0  0  0  0  0  0  0  0  0
  -24.1340  -13.0590   20.8440 C   0  0  0  0  0  0  0  0  0  0  0  0
  -24.6020  -11.7100   20.7880 C   0  0  0  0  0  0  0  0  0  0  0  0
  -26.2320  -12.9690   20.1930 N   0  0  0  0  0  0  0  0  0  0  0  0
  -25.8860  -11.6810   20.4510 N   0  0  0  0  0  0  0  0  0  0  0  0
  -23.8830  -10.4430   20.9780 C   0  0  0  0  0  0  0  0  0  0  0  0
  -24.3120   -9.4840   21.9220 C   0  0  0  0  0  3  0  0  0  0  0  0
  -23.5930   -8.2830   22.1000 C   0  0  0  0  0  3  0  0  0  0  0  0
  -22.4290   -8.0310   21.3350 C   0  0  0  0  0  0  0  0  0  0  0  0
  -22.0200   -8.9790   20.3800 C   0  0  0  0  0  3  0  0  0  0  0  0
  -22.7400  -10.1720   20.2000 C   0  0  0  0  0  3  0  0  0  0  0  0
  -21.6820   -6.8810   21.4200 O   0  0  0  0  0  0  0  0  0  0  0  0
  -21.5930   -6.1670   22.5880 C   0  0  0  0  0  0  0  0  0  0  0  0
  -21.0860   -6.7400   23.7750 C   0  0  0  0  0  3  0  0  0  0  0  0
  -20.9460   -5.9500   24.9330 C   0  0  0  0  0  3  0  0  0  0  0  0
  -21.3020   -4.5890   24.9050 C   0  0  0  0  0  0  0  0  0  0  0  0
  -21.8020   -4.0150   23.7230 C   0  0  0  0  0  3  0  0  0  0  0  0
  -21.9430   -4.8030   22.5670 C   0  0  0  0  0  0  0  0  0  0  0  0
  -22.4050   -4.2390   21.4240 F   0  0  0  0  0  0  0  0  0  0  0  0
  -21.1610   -3.8280   26.0160 F   0  0  0  0  0  0  0  0  0  0  0  0
  -22.7420  -13.5280   21.1500 C   0  0  0  0  0  0  0  0  0  0  0  0
  -22.0350  -12.8220   22.0250 N   0  0  0  0  0  0  0  0  0  0  0  0
  -22.2890  -14.5570   20.6480 O   0  0  0  0  0  0  0  0  0  0  0  0
  -22.4140  -11.9900   22.4530 H   0  0  0  0  0  0  0  0  0  0  0  0
  -21.1010  -13.1180   22.2710 H   0  0  0  0  0  0  0  0  0  0  0  0
  -25.3490  -15.2150   20.3050 N   0  0  0  0  0  0  0  0  0  0  0  0
  -24.5980  -15.8760   20.4650 H   0  0  0  0  0  0  0  0  0  0  0  0
  -26.2200  -15.6590   20.0360 H   0  0  0  0  0  0  0  0  0  0  0  0
  -29.1000  -23.7420   20.2460 C   0  0  0  0  0  3  0  0  0  0  0  0
  -27.9810  -24.9060   20.0550 C   0  0  0  0  0  2  0  0  0  0  0  0
  -28.2560  -26.3900   20.1880 O   0  0  0  0  0  0  0  0  0  0  0  0
  -24.5850  -31.8860   23.2540 C   0  0  0  0  0  0  0  0  0  0  0  0
  -27.1640  -27.2980   20.1470 C   0  0  0  0  0  0  0  0  0  0  0  0
  -23.3750  -30.5080   21.6030 C   0  0  0  0  0  3  0  0  0  0  0  0
  -24.8170  -28.9660   20.1560 C   0  0  0  0  0  0  0  0  0  0  0  0
  -25.9210  -30.8060   21.4210 C   0  0  0  0  0  2  0  0  0  0  0  0
  -25.9940  -29.4300   20.7560 C   0  0  0  0  0  0  0  0  0  0  0  0
  -27.1720  -28.6110   20.7360 C   0  0  0  0  0  3  0  0  0  0  0  0
  -25.9570  -26.9090   19.5200 C   0  0  0  0  0  3  0  0  0  0  0  0
  -24.8040  -27.7160   19.5270 C   0  0  0  0  0  3  0  0  0  0  0  0
  -23.5850  -29.8490   20.2160 C   0  0  0  0  0  2  0  0  0  0  0  0
  -24.6460  -31.0850   22.1490 N   0  0  0  0  0  0  0  0  0  0  0  0
  -23.5020  -32.1620   23.7900 O   0  0  0  0  0  0  0  0  0  0  0  0
  -22.7080  -29.4850   22.5550 C   0  0  0  0  0  0  0  0  0  0  0  0
  -21.3800  -29.3110   22.4270 N   0  0  0  0  0  0  0  0  0  0  0  0
  -23.3840  -28.8510   23.3690 O   0  0  0  0  0  0  0  0  0  0  0  0
  -20.8930  -29.8770   21.7450 H   0  0  0  0  0  0  0  0  0  0  0  0
  -18.0010  -28.1140   22.9220 C   0  0  0  0  0  0  0  0  0  0  0  0
  -20.5600  -28.3670   23.1900 C   0  0  0  0  0  3  0  0  0  0  0  0
  -20.6580  -26.9410   22.6010 C   0  0  0  0  0  2  0  0  0  0  0  0
  -19.5530  -26.6300   21.5860 C   0  0  0  0  0  2  0  0  0  0  0  0
  -18.1740  -26.7710   22.2340 C   0  0  0  0  0  2  0  0  0  0  0  0
  -19.1210  -28.8710   23.3580 C   0  0  0  0  0  0  0  0  0  0  0  0
  -18.9040  -30.1280   23.9630 C   0  0  0  0  0  3  0  0  0  0  0  0
  -17.6010  -30.6290   24.1370 C   0  0  0  0  0  3  0  0  0  0  0  0
  -16.4950  -29.8700   23.7170 C   0  0  0  0  0  3  0  0  0  0  0  0
  -16.6950  -28.6150   23.1160 C   0  0  0  0  0  3  0  0  0  0  0  0
  -25.8690  -32.5110   23.8800 C   0  0  0  0  0  3  0  0  0  0  0  0
  -26.3720  -31.7380   25.1610 C   0  0  1  0  0  0  0  0  0  0  0  0
  -25.2710  -31.5120   26.2240 C   0  0  0  0  0  1  0  0  0  0  0  0
  -26.9470  -30.3550   24.7770 C   0  0  0  0  0  1  0  0  0  0  0  0
  -27.5240  -32.5260   25.8290 C   0  0  0  0  0  1  0  0  0  0  0  0
  -25.5680  -33.9110   24.2090 N   0  0  0  0  0  0  0  0  0  0  0  0
  -25.8750  -34.9600   23.4340 C   0  0  0  0  0  0  0  0  0  0  0  0
  -26.5110  -34.8500   22.3820 O   0  0  0  0  0  0  0  0  0  0  0  0
  -25.0000  -34.0710   25.0280 H   0  0  0  0  0  0  0  0  0  0  0  0
  -24.1190  -36.7400   23.1460 C   0  0  0  0  0  1  0  0  0  0  0  0
  -25.4020  -36.3520   23.8980 C   0  0  0  0  0  3  0  0  0  0  0  0
  -27.5670  -37.2640   24.6140 C   0  0  0  0  0  1  0  0  0  0  0  0
  -26.4210  -37.4100   23.7200 N   0  0  0  0  0  0  0  0  0  0  0  0
  -26.0160  -38.3290   23.8700 H   0  0  0  0  0  0  0  0  0  0  0  0
  2  9  2  0
  3  2  1  0
  3  7  2  0
  4  2  1  0
  5  3  1  0
  6  5  2  0
  6  4  1  0
  8  4  2  0
  8  1  1  0
 10  7  1  0
 11 16  1  0
 12 13  1  0
 12 11  1  0
 14 13  1  0
 14 21  1  0
 14 15  1  0
 16 10  1  0
 16 15  1  0
 17 10  2  0
 18 19  2  0
 19 38  1  0
 20 19  1  0
 20 23  1  0
 21 22  1  0
 21 18  1  0
 22 20  2  0
 23 24  1  0
 24 25  2  0
 26 29  1  0
 26 25  1  0
 27 26  2  0
 28 27  1  0
 28 23  2  0
 29 30  1  0
 30 31  1  0
 31 32  2  0
 33 32  1  0
 33 37  1  0
 34 33  2  0
 35 30  2  0
 35 34  1  0
 36 35  1  0
 38 39  1  0
 39 42  1  0
 39 41  1  0
 40 38  2  0
 43 18  1  0
 43 44  1  0
 45 43  1  0
 46  1  2  0
 47 48  1  0
 47 46  1  0
 49 60  2  0
 50 48  1  0
 50 55  1  0
 51 59  1  0
 51 61  1  0
 52 58  1  0
 52 54  1  0
 53 59  1  0
 54 53  1  0
 55 54  2  0
 56 57  1  0
 56 50  2  0
 57 52  2  0
 58 51  1  0
 59 49  1  0
 61 63  2  0
 62 61  1  0
 64 62  1  0
 65 74  2  0
 65 70  1  0
 66 62  1  0
 66 70  1  0
 67 66  1  0
 68 69  1  0
 68 67  1  0
 69 65  1  0
 70 71  2  0
 71 72  1  0
 73 72  2  0
 74 73  1  0
 75 49  1  0
 75 80  1  0
 75 76  1  0
 76 79  1  1
 76 77  1  0
 78 76  1  0
 80 83  1  0
 81 85  1  0
 81 80  1  0
 82 81  2  0
 85 84  1  0
 87 88  1  0
 87 85  1  0
 87 86  1  0
M  ISO  4   7 100  10 100  47 101  48 101
M  END
>  <TORSDO>  (94) 
F 19

>  <SCORE>  (94) 
-14.088

>  <name>  (94) 
95

>  <ligand_id>  (94) 
95

>  <original_smiles>  (94) 
[H]c1c([H])c([H])c2c(c1[H])C([H])([H])C([H])([H])C([H])([H])C2([H])N([H])C(=O)C1([H])N(C(=O)C([H])(N([H])C(=O)C([H])(N([H])C([H])([H])[H])C([H])([H])[H])C(C([H])([H])[H])(C([H])([H])[H])C([H])([H])[H])C([H])([H])c2c([H])c(OC([H])([H])C([H])([H])C([H])([H])N=C3C(=O)C(=NC(=O)N4C([H])([H])C([H])([H])C([H])([H])C([H])(n5nc(-c6c([H])c([H])c(Oc7c([H])c([H])c(F)c([H])c7F)c([H])c6[H])c(C(=O)N([H])[H])c5N([H])[H])C4([H])[H])C([H])([H])C3([H])[H])c([H])c([H])c2C1([H])[H]

>  <smiles>  (94) 
[H]c1c([H])c([H])c2c(c1[H])C([H])([H])C([H])([H])C([H])([H])C2([H])N([H])C(=O)C1([H])N(C(=O)C([H])(N([H])C(=O)C([H])(N([H])C([H])([H])[H])C([H])([H])[H])C(C([H])([H])[H])(C([H])([H])[H])C([H])([H])[H])C([H])([H])c2c([H])c(OC([H])([H])C([H])([H])C([H])([H])N=C3C(=O)C(=NC(=O)N4C([H])([H])C([H])([H])C([H])([H])C([H])(n5nc(-c6c([H])c([H])c(Oc7c([H])c([H])c(F)c([H])c7F)c([H])c6[H])c(C(=O)N([H])[H])c5N([H])[H])C4([H])[H])C([H])([H])C3([H])[H])c([H])c([H])c2C1([H])[H]

$$$$
96:0:0
     RDKit          3D

 89 97  0  0  1  0  0  0  0  0999 V2000
  -30.3570  -15.4610   20.3140 C   0  0  0  0  0  0  0  0  0  0  0  0
  -30.3930  -12.9770   19.4680 C   0  0  0  0  0  2  0  0  0  0  0  0
  -29.4800  -12.6850   18.2490 C   0  0  0  0  0  2  0  0  0  0  0  0
  -28.0330  -12.3930   18.6930 C   0  0  0  0  0  2  0  0  0  0  0  0
  -27.5580  -13.3610   19.8030 C   0  0  0  0  0  3  0  0  0  0  0  0
  -28.6110  -13.5880   20.9070 C   0  0  0  0  0  2  0  0  0  0  0  0
  -29.8040  -14.1370   20.2370 N   0  0  0  0  0  0  0  0  0  0  0  0
  -31.5980  -15.4240   20.3030 O   0  0  0  0  0  0  0  0  0  0  0  0
  -28.2200  -17.8660   18.3910 C   0  0  0  0  0  3  0  0  0  0  0  0
  -28.7710  -16.7700   18.9690 C   0  0  0  0  0  2  0  0  0  0  0  0
  -29.6740  -18.2900   20.5780 C   0  0  0  0  0  3  0  0  0  0  0  0
  -29.0810  -19.5500   20.0290 C   0  0  0  0  0  0  0  0  0  0  0  0
  -28.3900  -19.2240   18.8130 C   0  0  0  0  0  0  0  0  0  0  0  0
  -29.5920  -16.7650   20.1120 N   0  0  0  0  0  0  0  0  0  0  0  0
  -27.9160  -20.1490   18.0660 N   0  0  0  0  0  0  0  0  0  0  0  0
  -27.4620  -19.9430   17.1880 H   0  0  0  0  0  0  0  0  0  0  0  0
  -28.0400  -21.1120   18.3320 H   0  0  0  0  0  0  0  0  0  0  0  0
  -25.1960  -13.9180   20.5630 C   0  0  0  0  0  0  0  0  0  0  0  0
  -24.1320  -13.1380   20.9240 C   0  0  0  0  0  0  0  0  0  0  0  0
  -24.6020  -11.7890   20.8900 C   0  0  0  0  0  0  0  0  0  0  0  0
  -26.2380  -13.0420   20.3200 N   0  0  0  0  0  0  0  0  0  0  0  0
  -25.8950  -11.7550   20.5840 N   0  0  0  0  0  0  0  0  0  0  0  0
  -23.8750  -10.5280   21.0720 C   0  0  0  0  0  0  0  0  0  0  0  0
  -24.2990   -9.5550   22.0040 C   0  0  0  0  0  3  0  0  0  0  0  0
  -23.5700   -8.3590   22.1720 C   0  0  0  0  0  3  0  0  0  0  0  0
  -22.3980   -8.1290   21.4130 C   0  0  0  0  0  0  0  0  0  0  0  0
  -21.9910   -9.0900   20.4710 C   0  0  0  0  0  3  0  0  0  0  0  0
  -22.7240  -10.2770   20.2990 C   0  0  0  0  0  3  0  0  0  0  0  0
  -21.6420   -6.9860   21.4910 O   0  0  0  0  0  0  0  0  0  0  0  0
  -21.5870   -6.2400   22.6410 C   0  0  0  0  0  0  0  0  0  0  0  0
  -21.1550   -6.7910   23.8660 C   0  0  0  0  0  3  0  0  0  0  0  0
  -21.0420   -5.9710   25.0060 C   0  0  0  0  0  3  0  0  0  0  0  0
  -21.3580   -4.6010   24.9220 C   0  0  0  0  0  0  0  0  0  0  0  0
  -21.7860   -4.0510   23.7020 C   0  0  0  0  0  3  0  0  0  0  0  0
  -21.8970   -4.8670   22.5630 C   0  0  0  0  0  0  0  0  0  0  0  0
  -22.2890   -4.3270   21.3840 F   0  0  0  0  0  0  0  0  0  0  0  0
  -21.2470   -3.8120   26.0150 F   0  0  0  0  0  0  0  0  0  0  0  0
  -22.7330  -13.6150   21.1830 C   0  0  0  0  0  0  0  0  0  0  0  0
  -21.9960  -12.9210   22.0410 N   0  0  0  0  0  0  0  0  0  0  0  0
  -22.3040  -14.6400   20.6570 O   0  0  0  0  0  0  0  0  0  0  0  0
  -22.3560  -12.0960   22.4950 H   0  0  0  0  0  0  0  0  0  0  0  0
  -21.0570  -13.2270   22.2540 H   0  0  0  0  0  0  0  0  0  0  0  0
  -25.3540  -15.2910   20.3950 N   0  0  0  0  0  0  0  0  0  0  0  0
  -24.5830  -15.9390   20.5310 H   0  0  0  0  0  0  0  0  0  0  0  0
  -26.2110  -15.7540   20.1250 H   0  0  0  0  0  0  0  0  0  0  0  0
  -28.8790  -21.1430   20.5710 C   0  0  0  0  0  3  0  0  0  0  0  0
  -28.5620  -22.5310   20.0680 C   0  0  0  0  0  3  0  0  0  0  0  0
  -28.0350  -24.1240   20.7090 C   0  0  0  0  0  2  0  0  0  0  0  0
  -28.2550  -25.7590   20.3370 O   0  0  0  0  0  0  0  0  0  0  0  0
  -24.6520  -31.8890   23.2490 C   0  0  0  0  0  0  0  0  0  0  0  0
  -27.2500  -26.8970   20.3410 C   0  0  0  0  0  0  0  0  0  0  0  0
  -23.4880  -30.4640   21.6170 C   0  0  0  0  0  3  0  0  0  0  0  0
  -24.9600  -28.8290   20.2450 C   0  0  0  0  0  0  0  0  0  0  0  0
  -26.0620  -30.6520   21.5140 C   0  0  0  0  0  2  0  0  0  0  0  0
  -26.1440  -29.2260   20.8770 C   0  0  0  0  0  0  0  0  0  0  0  0
  -27.2830  -28.2840   20.8950 C   0  0  0  0  0  3  0  0  0  0  0  0
  -26.0300  -26.6730   19.6650 C   0  0  0  0  0  3  0  0  0  0  0  0
  -24.9320  -27.5750   19.6160 C   0  0  0  0  0  3  0  0  0  0  0  0
  -23.7450  -29.7600   20.2570 C   0  0  0  0  0  2  0  0  0  0  0  0
  -24.7560  -31.0320   22.1800 N   0  0  0  0  0  0  0  0  0  0  0  0
  -23.5520  -32.1840   23.7490 O   0  0  0  0  0  0  0  0  0  0  0  0
  -22.7790  -29.4840   22.5890 C   0  0  0  0  0  0  0  0  0  0  0  0
  -21.4490  -29.3180   22.4580 N   0  0  0  0  0  0  0  0  0  0  0  0
  -23.4340  -28.8690   23.4340 O   0  0  0  0  0  0  0  0  0  0  0  0
  -20.9680  -29.8620   21.7540 H   0  0  0  0  0  0  0  0  0  0  0  0
  -18.0630  -28.1140   22.9680 C   0  0  0  0  0  0  0  0  0  0  0  0
  -20.6230  -28.3880   23.2350 C   0  0  0  0  0  3  0  0  0  0  0  0
  -20.7290  -26.9500   22.6780 C   0  0  0  0  0  2  0  0  0  0  0  0
  -19.6310  -26.6140   21.6630 C   0  0  0  0  0  2  0  0  0  0  0  0
  -18.2460  -26.7620   22.3000 C   0  0  0  0  0  2  0  0  0  0  0  0
  -19.1800  -28.8840   23.3930 C   0  0  0  0  0  0  0  0  0  0  0  0
  -18.9520  -30.1460   23.9840 C   0  0  0  0  0  3  0  0  0  0  0  0
  -17.6460  -30.6410   24.1490 C   0  0  0  0  0  3  0  0  0  0  0  0
  -16.5450  -29.8710   23.7370 C   0  0  0  0  0  3  0  0  0  0  0  0
  -16.7540  -28.6090   23.1520 C   0  0  0  0  0  3  0  0  0  0  0  0
  -25.9080  -32.5510   23.8890 C   0  0  0  0  0  3  0  0  0  0  0  0
  -25.5790  -33.9570   24.1950 N   0  0  0  0  0  0  0  0  0  0  0  0
  -25.9200  -35.0090   23.4410 C   0  0  0  0  0  0  0  0  0  0  0  0
  -26.6080  -34.9010   22.4220 O   0  0  0  0  0  0  0  0  0  0  0  0
  -24.9660  -34.1120   24.9820 H   0  0  0  0  0  0  0  0  0  0  0  0
  -24.2000  -36.8100   23.0520 C   0  0  0  0  0  1  0  0  0  0  0  0
  -25.4260  -36.4020   23.8840 C   0  0  0  0  0  3  0  0  0  0  0  0
  -27.5420  -37.3020   24.7500 C   0  0  0  0  0  1  0  0  0  0  0  0
  -26.4590  -37.4560   23.7820 N   0  0  0  0  0  0  0  0  0  0  0  0
  -26.0480  -38.3760   23.9100 H   0  0  0  0  0  0  0  0  0  0  0  0
  -26.3940  -31.8180   25.2020 C   0  0  1  0  0  0  0  0  0  0  0  0
  -25.2760  -31.6120   26.2500 C   0  0  0  0  0  1  0  0  0  0  0  0
  -26.9900  -30.4300   24.8780 C   0  0  0  0  0  1  0  0  0  0  0  0
  -27.5230  -32.6350   25.8720 C   0  0  0  0  0  1  0  0  0  0  0  0
  2  7  1  0
  3  4  1  0
  3  2  1  0
  5  4  1  0
  5 21  1  0
  5  6  1  0
  7  1  1  0
  7  6  1  0
  8  1  2  0
  9 13  2  0
  9 10  1  0
 10 14  1  0
 12 46  1  0
 12 11  2  0
 13 12  1  0
 14  1  1  0
 14 11  1  0
 15 17  1  0
 15 13  1  0
 16 15  1  0
 18 19  2  0
 19 38  1  0
 20 19  1  0
 20 23  1  0
 21 18  1  0
 21 22  1  0
 22 20  2  0
 23 24  1  0
 24 25  2  0
 26 29  1  0
 26 25  1  0
 27 26  2  0
 28 27  1  0
 28 23  2  0
 29 30  1  0
 30 31  1  0
 31 32  2  0
 33 32  1  0
 33 37  1  0
 34 33  2  0
 35 30  2  0
 35 34  1  0
 36 35  1  0
 38 39  1  0
 39 42  1  0
 39 41  1  0
 40 38  2  0
 43 44  1  0
 43 18  1  0
 45 43  1  0
 47 46  2  0
 47 48  1  0
 49 51  1  0
 49 48  1  0
 50 61  2  0
 51 56  1  0
 52 60  1  0
 52 62  1  0
 53 59  1  0
 53 55  1  0
 54 60  1  0
 55 56  2  0
 55 54  1  0
 57 51  2  0
 58 57  1  0
 58 53  2  0
 59 52  1  0
 60 50  1  0
 62 64  2  0
 63 62  1  0
 65 63  1  0
 66 75  2  0
 66 71  1  0
 67 63  1  0
 67 71  1  0
 68 67  1  0
 69 70  1  0
 69 68  1  0
 70 66  1  0
 71 72  2  0
 72 73  1  0
 74 73  2  0
 75 74  1  0
 76 50  1  0
 76 77  1  0
 76 86  1  0
 77 80  1  0
 78 82  1  0
 78 77  1  0
 79 78  2  0
 82 81  1  0
 84 82  1  0
 84 85  1  0
 84 83  1  0
 86 89  1  1
 86 87  1  0
 88 86  1  0
M  ISO  4   1 100  14 100  48 101  49 101
M  END
>  <TORSDO>  (95) 
F 17

>  <SCORE>  (95) 
-16.813

>  <name>  (95) 
96

>  <ligand_id>  (95) 
96

>  <original_smiles>  (95) 
[H]C(=C([H])C([H])([H])Oc1c([H])c([H])c2c(c1[H])C([H])([H])N(C(=O)C([H])(N([H])C(=O)C([H])(N([H])C([H])([H])[H])C([H])([H])[H])C(C([H])([H])[H])(C([H])([H])[H])C([H])([H])[H])C([H])(C(=O)N([H])C1([H])c3c([H])c([H])c([H])c([H])c3C([H])([H])C([H])([H])C1([H])[H])C2([H])[H])c1c([H])n(C(=O)N2C([H])([H])C([H])([H])C([H])([H])C([H])(n3nc(-c4c([H])c([H])c(Oc5c([H])c([H])c(F)c([H])c5F)c([H])c4[H])c(C(=O)N([H])[H])c3N([H])[H])C2([H])[H])c([H])c([H])c1=[N+]([H])[H]

>  <smiles>  (95) 
[H]C(=C([H])C([H])([H])Oc1c([H])c([H])c2c(c1[H])C([H])([H])N(C(=O)C([H])(N([H])C(=O)C([H])(N([H])C([H])([H])[H])C([H])([H])[H])C(C([H])([H])[H])(C([H])([H])[H])C([H])([H])[H])C([H])(C(=O)N([H])C1([H])c3c([H])c([H])c([H])c([H])c3C([H])([H])C([H])([H])C1([H])[H])C2([H])[H])c1c([H])n(C(=O)N2C([H])([H])C([H])([H])C([H])([H])C([H])(n3nc(-c4c([H])c([H])c(Oc5c([H])c([H])c(F)c([H])c5F)c([H])c4[H])c(C(=O)N([H])[H])c3N([H])[H])C2([H])[H])c([H])c([H])c1=[N+]([H])[H]

$$$$
97:0:0
     RDKit          3D

 98107  0  0  1  0  0  0  0  0999 V2000
  -30.3040  -21.4460   20.9160 C   0  0  0  0  0  3  0  0  0  0  0  0
  -28.9120  -19.5070   19.3980 C   0  0  0  0  0  3  0  0  0  0  0  0
  -30.0760  -19.0930   19.9810 C   0  0  0  0  0  0  0  0  0  0  0  0
  -29.1450  -21.7420   20.3050 C   0  0  0  0  0  0  0  0  0  0  0  0
  -30.9580  -20.0780   20.7640 C   0  0  0  0  0  3  0  0  0  0  0  0
  -27.1740  -21.4140   19.1560 C   0  0  0  0  0  3  0  0  0  0  0  0
  -27.0420  -22.7150   19.9700 C   0  0  0  0  0  3  0  0  0  0  0  0
  -28.4680  -20.8390   19.5100 N   0  0  0  0  0  0  0  0  0  0  0  0
  -28.3740  -22.9850   20.5660 N   0  0  2  0  0  4  0  0  0  0  0  0
  -28.2310  -23.0470   21.5640 H   0  0  0  0  0  0  0  0  0  0  0  0
  -28.0740  -18.5590   18.6570 C   0  0  0  0  0  0  0  0  0  0  0  0
  -27.8840  -18.9220   17.3950 N   0  0  0  0  0  0  0  0  0  0  0  0
  -27.5660  -17.5330   19.1050 O   0  0  0  0  0  0  0  0  0  0  0  0
  -28.3410  -19.7480   17.0390 H   0  0  0  0  0  0  0  0  0  0  0  0
  -27.3260  -18.3550   16.7750 H   0  0  0  0  0  0  0  0  0  0  0  0
  -30.6470  -17.6670   19.9060 C   0  0  0  0  0  2  0  0  0  0  0  0
  -30.5570  -16.8880   21.2420 C   0  0  0  0  0  2  0  0  0  0  0  0
  -30.8350  -14.5030   20.4840 C   0  0  0  0  0  0  0  0  0  0  0  0
  -30.5220  -12.3760   19.2800 C   0  0  0  0  0  2  0  0  0  0  0  0
  -29.5890  -12.6170   18.0760 C   0  0  0  0  0  2  0  0  0  0  0  0
  -28.1110  -12.4900   18.4920 C   0  0  0  0  0  2  0  0  0  0  0  0
  -27.7720  -13.3100   19.7640 C   0  0  0  0  0  3  0  0  0  0  0  0
  -28.8140  -13.0470   20.8750 C   0  0  0  0  0  2  0  0  0  0  0  0
  -30.1500  -13.3400   20.3250 N   0  0  0  0  0  0  0  0  0  0  0  0
  -31.9540  -14.7040   20.0060 O   0  0  0  0  0  0  0  0  0  0  0  0
  -30.1490  -15.4870   21.0820 N   0  0  0  0  0  0  0  0  0  0  0  0
  -29.2270  -15.2420   21.4100 H   0  0  0  0  0  0  0  0  0  0  0  0
  -25.3590  -13.9260   20.4190 C   0  0  0  0  0  0  0  0  0  0  0  0
  -24.2860  -13.1570   20.7860 C   0  0  0  0  0  0  0  0  0  0  0  0
  -24.7510  -11.8060   20.7860 C   0  0  0  0  0  0  0  0  0  0  0  0
  -26.4100  -13.0440   20.2240 N   0  0  0  0  0  0  0  0  0  0  0  0
  -26.0460  -11.7650   20.5000 N   0  0  0  0  0  0  0  0  0  0  0  0
  -24.0250  -10.5460   20.9860 C   0  0  0  0  0  0  0  0  0  0  0  0
  -24.4470   -9.5910   21.9380 C   0  0  0  0  0  3  0  0  0  0  0  0
  -23.7220   -8.3940   22.1240 C   0  0  0  0  0  3  0  0  0  0  0  0
  -22.5590   -8.1440   21.3580 C   0  0  0  0  0  0  0  0  0  0  0  0
  -22.1550   -9.0850   20.3960 C   0  0  0  0  0  3  0  0  0  0  0  0
  -22.8820  -10.2740   20.2080 C   0  0  0  0  0  3  0  0  0  0  0  0
  -21.8070   -6.9980   21.4530 O   0  0  0  0  0  0  0  0  0  0  0  0
  -21.7500   -6.2670   22.6120 C   0  0  0  0  0  0  0  0  0  0  0  0
  -21.3130   -6.8340   23.8310 C   0  0  0  0  0  3  0  0  0  0  0  0
  -21.2050   -6.0300   24.9820 C   0  0  0  0  0  3  0  0  0  0  0  0
  -21.5210   -4.6590   24.9180 C   0  0  0  0  0  0  0  0  0  0  0  0
  -21.9490   -4.0920   23.7040 C   0  0  0  0  0  3  0  0  0  0  0  0
  -22.0600   -4.8940   22.5550 C   0  0  0  0  0  0  0  0  0  0  0  0
  -22.4530   -4.3370   21.3840 F   0  0  0  0  0  0  0  0  0  0  0  0
  -21.4090   -3.8840   26.0210 F   0  0  0  0  0  0  0  0  0  0  0  0
  -22.8830  -13.6330   21.0280 C   0  0  0  0  0  0  0  0  0  0  0  0
  -22.1450  -12.9500   21.8960 N   0  0  0  0  0  0  0  0  0  0  0  0
  -22.4490  -14.6470   20.4830 O   0  0  0  0  0  0  0  0  0  0  0  0
  -22.5080  -12.1290   22.3580 H   0  0  0  0  0  0  0  0  0  0  0  0
  -21.2030  -13.2520   22.1010 H   0  0  0  0  0  0  0  0  0  0  0  0
  -25.5170  -15.2950   20.2140 N   0  0  0  0  0  0  0  0  0  0  0  0
  -24.7340  -15.9350   20.2900 H   0  0  0  0  0  0  0  0  0  0  0  0
  -26.3540  -15.7530   19.8620 H   0  0  0  0  0  0  0  0  0  0  0  0
  -28.9660  -24.2860   20.1320 C   0  0  0  0  0  2  0  0  0  0  0  0
  -28.3360  -25.4920   20.8780 C   0  0  0  0  0  2  0  0  0  0  0  0
  -28.4390  -26.7280   20.1520 O   0  0  0  0  0  0  0  0  0  0  0  0
  -24.6000  -31.8800   23.2190 C   0  0  0  0  0  0  0  0  0  0  0  0
  -27.2800  -27.4710   20.1350 C   0  0  0  0  0  0  0  0  0  0  0  0
  -23.4080  -30.4800   21.5640 C   0  0  0  0  0  3  0  0  0  0  0  0
  -24.8760  -28.9590   20.1360 C   0  0  0  0  0  0  0  0  0  0  0  0
  -25.9320  -30.8540   21.3800 C   0  0  0  0  0  2  0  0  0  0  0  0
  -26.0290  -29.4900   20.7290 C   0  0  0  0  0  0  0  0  0  0  0  0
  -27.2350  -28.7540   20.7230 C   0  0  0  0  0  3  0  0  0  0  0  0
  -26.1140  -26.9540   19.5310 C   0  0  0  0  0  3  0  0  0  0  0  0
  -24.9120  -27.6890   19.5330 C   0  0  0  0  0  3  0  0  0  0  0  0
  -23.6250  -29.8080   20.1830 C   0  0  0  0  0  2  0  0  0  0  0  0
  -24.6630  -31.0850   22.1120 N   0  0  0  0  0  0  0  0  0  0  0  0
  -23.5150  -32.1450   23.7560 O   0  0  0  0  0  0  0  0  0  0  0  0
  -22.7570  -29.4520   22.5170 C   0  0  0  0  0  0  0  0  0  0  0  0
  -21.4320  -29.2730   22.3870 N   0  0  0  0  0  0  0  0  0  0  0  0
  -23.4390  -28.8200   23.3270 O   0  0  0  0  0  0  0  0  0  0  0  0
  -20.9440  -29.8340   21.7020 H   0  0  0  0  0  0  0  0  0  0  0  0
  -18.0510  -28.0930   22.8840 C   0  0  0  0  0  0  0  0  0  0  0  0
  -20.6120  -28.3310   23.1500 C   0  0  0  0  0  3  0  0  0  0  0  0
  -20.7040  -26.9070   22.5550 C   0  0  0  0  0  2  0  0  0  0  0  0
  -19.5960  -26.6030   21.5410 C   0  0  0  0  0  2  0  0  0  0  0  0
  -18.2180  -26.7500   22.1920 C   0  0  0  0  0  2  0  0  0  0  0  0
  -19.1760  -28.8420   23.3180 C   0  0  0  0  0  0  0  0  0  0  0  0
  -18.9680  -30.1010   23.9240 C   0  0  0  0  0  3  0  0  0  0  0  0
  -17.6680  -30.6090   24.1020 C   0  0  0  0  0  3  0  0  0  0  0  0
  -16.5570  -29.8560   23.6850 C   0  0  0  0  0  3  0  0  0  0  0  0
  -16.7480  -28.5990   23.0810 C   0  0  0  0  0  3  0  0  0  0  0  0
  -25.8810  -32.5110   23.8460 C   0  0  0  0  0  3  0  0  0  0  0  0
  -25.5700  -33.9080   24.1710 N   0  0  0  0  0  0  0  0  0  0  0  0
  -25.9110  -34.9590   23.4130 C   0  0  0  0  0  0  0  0  0  0  0  0
  -26.5960  -34.8530   22.3900 O   0  0  0  0  0  0  0  0  0  0  0  0
  -24.9630  -34.0650   24.9630 H   0  0  0  0  0  0  0  0  0  0  0  0
  -24.1940  -36.7530   23.0260 C   0  0  0  0  0  1  0  0  0  0  0  0
  -25.4190  -36.3470   23.8590 C   0  0  0  0  0  3  0  0  0  0  0  0
  -27.5400  -37.2270   24.7300 C   0  0  0  0  0  1  0  0  0  0  0  0
  -26.4580  -37.3970   23.7640 N   0  0  0  0  0  0  0  0  0  0  0  0
  -26.0490  -38.3170   23.9060 H   0  0  0  0  0  0  0  0  0  0  0  0
  -26.3920  -31.7400   25.1250 C   0  0  1  0  0  0  0  0  0  0  0  0
  -25.2930  -31.4990   26.1860 C   0  0  0  0  0  1  0  0  0  0  0  0
  -26.9820  -30.3670   24.7340 C   0  0  0  0  0  1  0  0  0  0  0  0
  -27.5380  -32.5370   25.7920 C   0  0  0  0  0  1  0  0  0  0  0  0
  2 11  1  0
  2  8  1  0
  2  3  1  0
  3  5  2  0
  4  9  1  0
  4  1  2  0
  5  1  1  0
  6  8  1  0
  6  7  2  0
  7  9  1  0
  8  4  1  0
  9 10  1  1
 11 13  2  0
 12 11  1  0
 14 12  1  0
 15 12  1  0
 16  3  1  0
 16 17  1  0
 18 26  1  0
 19 24  1  0
 20 21  1  0
 20 19  1  0
 22 21  1  0
 22 31  1  0
 22 23  1  0
 24 18  1  0
 24 23  1  0
 25 18  2  0
 26 17  1  0
 26 27  1  0
 28 29  2  0
 29 30  1  0
 29 48  1  0
 30 33  1  0
 31 28  1  0
 31 32  1  0
 32 30  2  0
 33 34  1  0
 34 35  2  0
 36 39  1  0
 36 35  1  0
 37 36  2  0
 38 37  1  0
 38 33  2  0
 39 40  1  0
 40 41  1  0
 41 42  2  0
 43 42  1  0
 43 47  1  0
 44 43  2  0
 45 40  2  0
 45 44  1  0
 46 45  1  0
 48 49  1  0
 49 52  1  0
 49 51  1  0
 50 48  2  0
 53 54  1  0
 53 28  1  0
 55 53  1  0
 56  9  1  0
 56 57  1  0
 58 57  1  0
 59 70  2  0
 60 58  1  0
 60 65  1  0
 61 69  1  0
 61 71  1  0
 62 68  1  0
 62 64  1  0
 63 69  1  0
 64 63  1  0
 65 64  2  0
 66 67  1  0
 66 60  2  0
 67 62  2  0
 68 61  1  0
 69 59  1  0
 71 73  2  0
 72 71  1  0
 74 72  1  0
 75 84  2  0
 75 80  1  0
 76 72  1  0
 76 80  1  0
 77 76  1  0
 78 79  1  0
 78 77  1  0
 79 75  1  0
 80 81  2  0
 81 82  1  0
 83 82  2  0
 84 83  1  0
 85 59  1  0
 85 86  1  0
 85 95  1  0
 86 89  1  0
 87 91  1  0
 87 86  1  0
 88 87  2  0
 91 90  1  0
 93 91  1  0
 93 94  1  0
 93 92  1  0
 95 98  1  1
 95 96  1  0
 97 95  1  0
M  ISO  4  18 100  26 100  57 101  58 101
M  END
>  <TORSDO>  (96) 
F 21

>  <SCORE>  (96) 
-13.895

>  <name>  (96) 
97

>  <ligand_id>  (96) 
97

>  <original_smiles>  (96) 
[H]C1=C2N(C(C(=O)N([H])[H])=C(C([H])([H])C([H])([H])N([H])C(=O)N3C([H])([H])C([H])([H])C([H])([H])C([H])(n4nc(-c5c([H])c([H])c(Oc6c([H])c([H])c(F)c([H])c6F)c([H])c5[H])c(C(=O)N([H])[H])c4N([H])[H])C3([H])[H])C1([H])[H])C([H])([H])C([H])([H])[N+]2([H])C([H])([H])C([H])([H])Oc1c([H])c([H])c2c(c1[H])C([H])([H])N(C(=O)C([H])(N([H])C(=O)C([H])(N([H])C([H])([H])[H])C([H])([H])[H])C(C([H])([H])[H])(C([H])([H])[H])C([H])([H])[H])C([H])(C(=O)N([H])C1([H])c3c([H])c([H])c([H])c([H])c3C([H])([H])C([H])([H])C1([H])[H])C2([H])[H]

>  <smiles>  (96) 
[H]C1=C2N(C(C(=O)N([H])[H])=C(C([H])([H])C([H])([H])N([H])C(=O)N3C([H])([H])C([H])([H])C([H])([H])C([H])(n4nc(-c5c([H])c([H])c(Oc6c([H])c([H])c(F)c([H])c6F)c([H])c5[H])c(C(=O)N([H])[H])c4N([H])[H])C3([H])[H])C1([H])[H])C([H])([H])C([H])([H])[N+]2([H])C([H])([H])C([H])([H])Oc1c([H])c([H])c2c(c1[H])C([H])([H])N(C(=O)C([H])(N([H])C(=O)C([H])(N([H])C([H])([H])[H])C([H])([H])[H])C(C([H])([H])[H])(C([H])([H])[H])C([H])([H])[H])C([H])(C(=O)N([H])C1([H])c3c([H])c([H])c([H])c([H])c3C([H])([H])C([H])([H])C1([H])[H])C2([H])[H]

$$$$
