0:0:0
     RDKit          3D

 93 90  0  0  1  0  0  0  0  0999 V2000
  -27.3050  -12.1740   21.6830 C   0  0  0  0  0  2  0  0  0  0  0  0
  -27.0340  -14.5930   21.9510 C   0  0  0  0  0 15  0  0  0  0  0  0
  -25.1140  -14.5290   18.3080 C   0  0  0  0  0 15  0  0  0  0  0  0
  -25.3850  -11.9300   18.4430 C   0  0  0  0  0 15  0  0  0  0  0  0
  -26.0790  -16.1290   20.1620 C   0  0  0  0  0  1  0  0  0  0  0  0
  -26.7140  -11.1370   20.3520 N   0  0  0  0  0  1  0  0  0  0  0  0
  -28.0510  -11.6930   22.9140 C   0  0  0  0  0  0  0  0  0  0  0  0
  -27.5190  -11.7110   24.0290 O   0  0  0  0  0  0  0  0  0  0  0  0
  -29.4930  -11.1870   22.7870 C   0  0  0  0  0  2  0  0  0  0  0  0
  -30.5880  -12.2920   22.6410 C   0  0  0  0  0  2  0  0  0  0  0  0
  -31.5990  -12.0020   21.4940 C   0  0  0  0  0  2  0  0  0  0  0  0
  -31.3580  -13.1160   19.2120 C   0  0  0  0  0  0  0  0  0  0  0  0
  -30.4120  -11.3850   17.6740 C   0  0  0  0  0  2  0  0  0  0  0  0
  -29.2450  -11.7840   16.7580 C   0  0  0  0  0  2  0  0  0  0  0  0
  -27.9160  -11.8660   17.5090 C   0  0  0  0  0  2  0  0  0  0  0  0
  -28.0940  -12.6720   18.7900 C   0  0  0  0  0  3  0  0  0  0  0  0
  -29.2080  -12.1110   19.6420 C   0  0  0  0  0  2  0  0  0  0  0  0
  -30.4400  -12.1810   18.9090 N   0  0  0  0  0  0  0  0  0  0  0  0
  -31.9310  -13.7940   18.3550 O   0  0  0  0  0  0  0  0  0  0  0  0
  -31.7390  -13.1120   20.5140 N   0  0  0  0  0  0  0  0  0  0  0  0
  -32.3700  -13.8500   20.7950 H   0  0  0  0  0  0  0  0  0  0  0  0
  -26.2930  -13.8120   20.2760 C   0  0  0  0  0  0  0  0  0  0  0  0
  -24.8060  -13.3700   21.0540 C   0  0  0  0  0  0  0  0  0  0  0  0
  -24.6280  -12.0340   20.9980 C   0  0  0  0  0  2  0  0  0  0  0  0
  -26.8650  -13.1880   19.5510 N   0  0  0  0  0  2  0  0  0  0  0  0
  -25.5650  -13.0470   20.5210 N   0  0  0  0  0  2  0  0  0  0  0  0
  -24.0220  -10.5440   21.0560 C   0  0  0  0  0  3  0  0  0  0  0  0
  -24.5070   -9.3940   21.7960 C   0  0  0  0  0  3  0  0  0  0  0  0
  -23.7790   -8.1620   21.9280 C   0  0  0  0  0  3  0  0  0  0  0  0
  -22.5130   -8.0040   21.3150 C   0  0  0  0  0  0  0  0  0  0  0  0
  -22.0800   -9.0650   20.4940 C   0  0  0  0  0  3  0  0  0  0  0  0
  -22.8090  -10.2800   20.3780 C   0  0  0  0  0  3  0  0  0  0  0  0
  -21.7000   -6.8760   21.3990 O   0  0  0  0  0  0  0  0  0  0  0  0
  -21.6030   -6.0750   22.5230 C   0  0  0  0  0  0  0  0  0  0  0  0
  -21.2340   -6.5790   23.7920 C   0  0  0  0  0  3  0  0  0  0  0  0
  -21.0980   -5.7090   24.8960 C   0  0  0  0  0  3  0  0  0  0  0  0
  -21.3230   -4.3280   24.7450 C   0  0  0  0  0  0  0  0  0  0  0  0
  -21.6690   -3.8150   23.4820 C   0  0  0  0  0  3  0  0  0  0  0  0
  -21.7970   -4.6810   22.3790 C   0  0  0  0  0  0  0  0  0  0  0  0
  -22.0960   -4.1630   21.1630 F   0  0  0  0  0  0  0  0  0  0  0  0
  -21.2070   -3.4930   25.8050 F   0  0  0  0  0  0  0  0  0  0  0  0
  -23.4730  -13.8710   21.6960 C   0  0  0  0  0  0  0  0  0  0  0  0
  -22.9070  -13.0940   22.6450 N   0  0  0  0  0  0  0  0  0  0  0  0
  -22.8360  -14.7930   21.2290 O   0  0  0  0  0  0  0  0  0  0  0  0
  -23.4040  -12.3180   23.0500 H   0  0  0  0  0  0  0  0  0  0  0  0
  -21.9780  -13.3130   22.9790 H   0  0  0  0  0  0  0  0  0  0  0  0
  -27.3530  -14.7710   19.9220 N   0  0  0  0  0  0  0  0  0  0  0  0
  -26.9080  -15.6610   20.1000 H   0  0  0  0  0  0  0  0  0  0  0  0
  -27.6190  -14.6830   18.9540 H   0  0  0  0  0  0  0  0  0  0  0  0
  -27.1290  -18.0410   19.5950 C   0  0  0  0  0 15  0  0  0  0  0  0
  -28.2010  -19.9790   19.8760 C   0  0  0  0  0 15  0  0  0  0  0  0
  -28.6560  -22.0890   19.3110 C   0  0  0  0  0 15  0  0  0  0  0  0
  -29.5870  -23.8500   19.4810 O   0  0  0  0  0  1  0  0  0  0  0  0
  -27.4920  -30.1930   23.8340 C   0  0  0  0  0  0  0  0  0  0  0  0
  -29.3080  -25.4580   19.6960 C   0  0  0  0  0  0  0  0  0  0  0  0
  -26.3600  -29.4150   21.8100 C   0  0  0  0  0  3  0  0  0  0  0  0
  -27.7360  -28.0730   20.0380 C   0  0  0  0  0  0  0  0  0  0  0  0
  -28.9230  -29.1470   21.9150 C   0  0  0  0  0  2  0  0  0  0  0  0
  -28.8380  -27.9200   20.8770 C   0  0  0  0  0  0  0  0  0  0  0  0
  -29.6360  -26.6330   20.6850 C   0  0  0  0  0  3  0  0  0  0  0  0
  -28.4040  -26.0170   18.7820 C   0  0  0  0  0  3  0  0  0  0  0  0
  -27.6160  -27.1830   18.9630 C   0  0  0  0  0  3  0  0  0  0  0  0
  -26.6780  -29.1520   20.3070 C   0  0  0  0  0  2  0  0  0  0  0  0
  -27.6270  -29.6220   22.5800 N   0  0  0  0  0  0  0  0  0  0  0  0
  -26.3750  -30.4570   24.3190 O   0  0  0  0  0  0  0  0  0  0  0  0
  -25.5030  -28.2660   22.4050 C   0  0  0  0  0  0  0  0  0  0  0  0
  -24.1810  -28.2600   22.1530 N   0  0  0  0  0  0  0  0  0  0  0  0
  -26.0410  -27.3930   23.0880 O   0  0  0  0  0  0  0  0  0  0  0  0
  -23.7980  -29.0220   21.6070 H   0  0  0  0  0  0  0  0  0  0  0  0
  -20.7130  -27.1920   22.0260 C   0  0  0  0  0  0  0  0  0  0  0  0
  -23.2390  -27.2170   22.5790 C   0  0  0  0  0  3  0  0  0  0  0  0
  -23.3430  -25.9730   21.6650 C   0  0  0  0  0  2  0  0  0  0  0  0
  -22.3450  -25.9970   20.5030 C   0  0  0  0  0  2  0  0  0  0  0  0
  -20.9090  -26.0570   21.0330 C   0  0  0  0  0  2  0  0  0  0  0  0
  -21.8070  -27.7470   22.7390 C   0  0  0  0  0  0  0  0  0  0  0  0
  -21.5740  -28.8130   23.6330 C   0  0  0  0  0  3  0  0  0  0  0  0
  -20.2760  -29.3270   23.8160 C   0  0  0  0  0  3  0  0  0  0  0  0
  -19.1920  -28.7650   23.1180 C   0  0  0  0  0  3  0  0  0  0  0  0
  -19.4110  -27.6980   22.2290 C   0  0  0  0  0  3  0  0  0  0  0  0
  -28.7180  -30.5590   24.7250 C   0  0  0  0  0  3  0  0  0  0  0  0
  -28.3070  -31.6200   25.6740 N   0  0  0  0  0  0  0  0  0  0  0  0
  -28.6320  -32.9180   25.5910 C   0  0  0  0  0  0  0  0  0  0  0  0
  -29.3640  -33.3580   24.7010 O   0  0  0  0  0  0  0  0  0  0  0  0
  -27.6570  -31.3430   26.3950 H   0  0  0  0  0  0  0  0  0  0  0  0
  -26.8580  -34.6520   26.0750 C   0  0  0  0  0  1  0  0  0  0  0  0
  -28.0610  -33.8880   26.6550 C   0  0  0  0  0  3  0  0  0  0  0  0
  -30.0930  -34.2410   27.9970 C   0  0  0  0  0  1  0  0  0  0  0  0
  -29.0560  -34.8560   27.1720 N   0  0  0  0  0  0  0  0  0  0  0  0
  -28.6070  -35.5850   27.7160 H   0  0  0  0  0  0  0  0  0  0  0  0
  -29.2780  -29.3260   25.5400 C   0  0  1  0  0  0  0  0  0  0  0  0
  -28.1980  -28.5760   26.3610 C   0  0  0  0  0  1  0  0  0  0  0  0
  -29.9440  -28.2910   24.6080 C   0  0  0  0  0  1  0  0  0  0  0  0
  -30.3850  -29.7980   26.5130 C   0  0  0  0  0  1  0  0  0  0  0  0
  1  7  1  0
  6  1  1  0
  7  8  2  0
  9  7  1  0
 10  9  1  0
 11 10  1  0
 12 20  1  0
 13 18  1  0
 14 15  1  0
 14 13  1  0
 15 16  1  0
 16 25  1  0
 16 17  1  0
 18 12  1  0
 18 17  1  0
 19 12  2  0
 20 21  1  0
 20 11  1  0
 22 26  1  0
 23 42  1  0
 24 23  2  0
 25 22  1  0
 26 23  1  0
 27 28  1  0
 28 29  2  0
 30 33  1  0
 30 29  1  0
 31 30  2  0
 32 31  1  0
 32 27  2  0
 33 34  1  0
 34 35  1  0
 35 36  2  0
 37 36  1  0
 37 41  1  0
 38 37  2  0
 39 34  2  0
 39 38  1  0
 40 39  1  0
 42 43  1  0
 43 46  1  0
 43 45  1  0
 44 42  2  0
 47 22  2  0
 48  5  1  0
 49 47  1  0
 53 55  1  0
 54 65  2  0
 55 60  1  0
 56 66  1  0
 56 64  1  0
 57 63  1  0
 57 59  1  0
 58 64  1  0
 59 58  1  0
 60 59  2  0
 61 62  1  0
 61 55  2  0
 62 57  2  0
 63 56  1  0
 64 54  1  0
 66 68  2  0
 67 66  1  0
 69 67  1  0
 70 79  2  0
 70 75  1  0
 71 67  1  0
 71 75  1  0
 72 71  1  0
 73 74  1  0
 73 72  1  0
 74 70  1  0
 75 76  2  0
 76 77  1  0
 78 77  2  0
 79 78  1  0
 80 54  1  0
 80 90  1  0
 80 81  1  0
 81 84  1  0
 82 81  1  0
 82 86  1  0
 83 82  2  0
 86 85  1  0
 86 88  1  0
 88 89  1  0
 88 87  1  0
 90 91  1  1
 90 93  1  0
 92 90  1  0
M  ISO  4  12 100  20 100  52 101  53 101
M  END
>  <TORSDO>  (1) 
F 23

>  <SCORE>  (1) 
3.823

>  <name>  (1) 
0

>  <ligand_id>  (1) 
0

>  <original_smiles>  (1) 
[H]c1c([H])c([H])c2c(c1[H])C([H])([H])C([H])([H])C([H])([H])C2([H])N([H])C(=O)C1([H])N(C(=O)C([H])(N([H])C(=O)C([H])(N([H])C([H])([H])[H])C([H])([H])[H])C(C([H])([H])[H])(C([H])([H])[H])C([H])([H])[H])C([H])([H])c2c([H])c(OC([H])([H])C([H])([H])C([H])([H])C3([H])C([H])([H])C(C(=O)C([H])([H])C([H])([H])C([H])([H])N([H])C(=O)N4C([H])([H])C([H])([H])C([H])([H])C([H])(n5nc(-c6c([H])c([H])c(Oc7c([H])c([H])c(F)c([H])c7F)c([H])c6[H])c(C(=O)N([H])[H])c5N([H])[H])C4([H])[H])=NC([H])([H])C3([H])[H])c([H])c([H])c2C1([H])[H]

>  <smiles>  (1) 
[H]c1c([H])c([H])c2c(c1[H])C([H])([H])C([H])([H])C([H])([H])C2([H])N([H])C(=O)C1([H])N(C(=O)C([H])(N([H])C(=O)C([H])(N([H])C([H])([H])[H])C([H])([H])[H])C(C([H])([H])[H])(C([H])([H])[H])C([H])([H])[H])C([H])([H])c2c([H])c(OC([H])([H])C([H])([H])C([H])([H])C3([H])C([H])([H])C(C(=O)C([H])([H])C([H])([H])C([H])([H])N([H])C(=O)N4C([H])([H])C([H])([H])C([H])([H])C([H])(n5nc(-c6c([H])c([H])c(Oc7c([H])c([H])c(F)c([H])c7F)c([H])c6[H])c(C(=O)N([H])[H])c5N([H])[H])C4([H])[H])=NC([H])([H])C3([H])[H])c([H])c([H])c2C1([H])[H]

$$$$
1:0:0
     RDKit          3D

 91 99  0  0  1  0  0  0  0  0999 V2000
  -30.8250  -18.0450   21.7810 C   0  0  0  0  0  0  0  0  0  0  0  0
  -31.3550  -19.4920   21.8670 C   0  0  0  0  0  2  0  0  0  0  0  0
  -29.0440  -18.8730   20.2420 C   0  0  0  0  0  2  0  0  0  0  0  0
  -30.1380  -17.6380   20.4640 C   0  0  0  0  0  3  0  0  0  0  0  0
  -29.5240  -20.4590   20.4540 C   0  0  0  0  0  3  0  0  0  0  0  0
  -30.2440  -20.4800   21.7510 N   0  0  0  0  0  4  0  0  0  0  0  0
  -30.9330  -17.2860   22.7500 O   0  0  0  0  0  0  0  0  0  0  0  0
  -30.6410  -21.3940   21.8890 H   0  0  0  0  0  0  0  0  0  0  0  0
  -29.5960  -20.3170   22.5060 H   0  0  0  0  0  0  0  0  0  0  0  0
  -30.4810  -14.9360   20.3700 C   0  0  0  0  0  0  0  0  0  0  0  0
  -30.3390  -12.6100   19.3980 C   0  0  0  0  0  2  0  0  0  0  0  0
  -29.4020  -12.5970   18.1680 C   0  0  0  0  0  2  0  0  0  0  0  0
  -27.9390  -12.3900   18.6010 C   0  0  0  0  0  2  0  0  0  0  0  0
  -27.5390  -13.2990   19.7930 C   0  0  0  0  0  3  0  0  0  0  0  0
  -28.5970  -13.2890   20.9170 C   0  0  0  0  0  2  0  0  0  0  0  0
  -29.8710  -13.6900   20.3090 N   0  0  0  0  0  0  0  0  0  0  0  0
  -31.6820  -15.0040   20.0910 O   0  0  0  0  0  0  0  0  0  0  0  0
  -29.7140  -16.1170   20.5120 N   0  0  0  0  0  0  0  0  0  0  0  0
  -28.7380  -15.9540   20.7000 H   0  0  0  0  0  0  0  0  0  0  0  0
  -25.1550  -13.8660   20.5360 C   0  0  0  0  0  0  0  0  0  0  0  0
  -24.0940  -13.0850   20.9010 C   0  0  0  0  0  0  0  0  0  0  0  0
  -24.5640  -11.7360   20.8620 C   0  0  0  0  0  0  0  0  0  0  0  0
  -26.2020  -12.9930   20.2910 N   0  0  0  0  0  0  0  0  0  0  0  0
  -25.8560  -11.7070   20.5530 N   0  0  0  0  0  0  0  0  0  0  0  0
  -23.8430  -10.4690   21.0430 C   0  0  0  0  0  0  0  0  0  0  0  0
  -24.2680   -9.5030   21.9810 C   0  0  0  0  0  3  0  0  0  0  0  0
  -23.5450   -8.3020   22.1500 C   0  0  0  0  0  3  0  0  0  0  0  0
  -22.3810   -8.0600   21.3800 C   0  0  0  0  0  0  0  0  0  0  0  0
  -21.9750   -9.0160   20.4330 C   0  0  0  0  0  3  0  0  0  0  0  0
  -22.6990  -10.2070   20.2620 C   0  0  0  0  0  3  0  0  0  0  0  0
  -21.6300   -6.9120   21.4590 O   0  0  0  0  0  0  0  0  0  0  0  0
  -21.5560   -6.1780   22.6160 C   0  0  0  0  0  0  0  0  0  0  0  0
  -21.0740   -6.7330   23.8210 C   0  0  0  0  0  3  0  0  0  0  0  0
  -20.9510   -5.9240   24.9680 C   0  0  0  0  0  3  0  0  0  0  0  0
  -21.2970   -4.5610   24.9110 C   0  0  0  0  0  0  0  0  0  0  0  0
  -21.7720   -4.0050   23.7100 C   0  0  0  0  0  3  0  0  0  0  0  0
  -21.8980   -4.8110   22.5640 C   0  0  0  0  0  0  0  0  0  0  0  0
  -22.3360   -4.2660   21.4040 F   0  0  0  0  0  0  0  0  0  0  0  0
  -21.1710   -3.7810   26.0100 F   0  0  0  0  0  0  0  0  0  0  0  0
  -22.6950  -13.5550   21.1730 C   0  0  0  0  0  0  0  0  0  0  0  0
  -21.9710  -12.8530   22.0370 N   0  0  0  0  0  0  0  0  0  0  0  0
  -22.2540  -14.5800   20.6550 O   0  0  0  0  0  0  0  0  0  0  0  0
  -22.3400  -12.0240   22.4780 H   0  0  0  0  0  0  0  0  0  0  0  0
  -21.0310  -13.1500   22.2620 H   0  0  0  0  0  0  0  0  0  0  0  0
  -25.3110  -15.2390   20.3660 N   0  0  0  0  0  0  0  0  0  0  0  0
  -24.5340  -15.8820   20.4690 H   0  0  0  0  0  0  0  0  0  0  0  0
  -26.1400  -15.6810   19.9890 H   0  0  0  0  0  0  0  0  0  0  0  0
  -28.5100  -21.7980   20.3130 C   0  0  0  0  0  2  0  0  0  0  0  0
  -28.9510  -23.4190   20.4100 C   0  0  0  0  0  3  0  0  0  0  0  0
  -27.9220  -24.7120   20.1280 C   0  0  0  0  0  3  0  0  0  0  0  0
  -28.2170  -26.2270   20.2800 O   0  0  0  0  0  0  0  0  0  0  0  0
  -24.6360  -31.9270   23.2430 C   0  0  0  0  0  0  0  0  0  0  0  0
  -27.1610  -27.2020   20.2140 C   0  0  0  0  0  0  0  0  0  0  0  0
  -23.4140  -30.5340   21.6190 C   0  0  0  0  0  3  0  0  0  0  0  0
  -24.8390  -28.9470   20.1910 C   0  0  0  0  0  0  0  0  0  0  0  0
  -25.9670  -30.7870   21.4320 C   0  0  0  0  0  2  0  0  0  0  0  0
  -26.0260  -29.3930   20.7870 C   0  0  0  0  0  0  0  0  0  0  0  0
  -27.1880  -28.5370   20.7800 C   0  0  0  0  0  3  0  0  0  0  0  0
  -25.9460  -26.8520   19.5820 C   0  0  0  0  0  3  0  0  0  0  0  0
  -24.8110  -27.6890   19.5740 C   0  0  0  0  0  3  0  0  0  0  0  0
  -23.6180  -29.8500   20.2420 C   0  0  0  0  0  2  0  0  0  0  0  0
  -24.6930  -31.1040   22.1530 N   0  0  0  0  0  0  0  0  0  0  0  0
  -23.5560  -32.2220   23.7780 O   0  0  0  0  0  0  0  0  0  0  0  0
  -22.7370  -29.5340   22.5910 C   0  0  0  0  0  0  0  0  0  0  0  0
  -21.4080  -29.3650   22.4680 N   0  0  0  0  0  0  0  0  0  0  0  0
  -23.4080  -28.9120   23.4180 O   0  0  0  0  0  0  0  0  0  0  0  0
  -20.9230  -29.9160   21.7740 H   0  0  0  0  0  0  0  0  0  0  0  0
  -18.0220  -28.1900   22.9940 C   0  0  0  0  0  0  0  0  0  0  0  0
  -20.5840  -28.4370   23.2480 C   0  0  0  0  0  3  0  0  0  0  0  0
  -20.6750  -27.0010   22.6820 C   0  0  0  0  0  2  0  0  0  0  0  0
  -19.5660  -26.6780   21.6750 C   0  0  0  0  0  2  0  0  0  0  0  0
  -18.1880  -26.8360   22.3240 C   0  0  0  0  0  2  0  0  0  0  0  0
  -19.1480  -28.9470   23.4130 C   0  0  0  0  0  0  0  0  0  0  0  0
  -18.9380  -30.2140   24.0010 C   0  0  0  0  0  3  0  0  0  0  0  0
  -17.6370  -30.7220   24.1730 C   0  0  0  0  0  3  0  0  0  0  0  0
  -16.5260  -29.9600   23.7690 C   0  0  0  0  0  3  0  0  0  0  0  0
  -16.7200  -28.6960   23.1840 C   0  0  0  0  0  3  0  0  0  0  0  0
  -25.9240  -32.5550   23.8580 C   0  0  0  0  0  3  0  0  0  0  0  0
  -26.4480  -31.7790   25.1290 C   0  0  1  0  0  0  0  0  0  0  0  0
  -25.3600  -31.5400   26.2030 C   0  0  0  0  0  1  0  0  0  0  0  0
  -27.0260  -30.4020   24.7320 C   0  0  0  0  0  1  0  0  0  0  0  0
  -27.6020  -32.5700   25.7860 C   0  0  0  0  0  1  0  0  0  0  0  0
  -25.6190  -33.9540   24.2010 N   0  0  0  0  0  0  0  0  0  0  0  0
  -25.9230  -35.0120   23.4370 C   0  0  0  0  0  0  0  0  0  0  0  0
  -26.5570  -34.9140   22.3830 O   0  0  0  0  0  0  0  0  0  0  0  0
  -25.0530  -34.1030   25.0220 H   0  0  0  0  0  0  0  0  0  0  0  0
  -24.1720  -36.7990   23.1660 C   0  0  0  0  0  1  0  0  0  0  0  0
  -25.4510  -36.3980   23.9190 C   0  0  0  0  0  3  0  0  0  0  0  0
  -27.6140  -37.2980   24.6540 C   0  0  0  0  0  1  0  0  0  0  0  0
  -26.4720  -37.4570   23.7590 N   0  0  0  0  0  0  0  0  0  0  0  0
  -26.0680  -38.3750   23.9200 H   0  0  0  0  0  0  0  0  0  0  0  0
  1  2  1  0
  1  7  2  0
  3  5  1  0
  3  4  1  0
  4 18  1  0
  4  1  1  0
  5 48  1  0
  5  6  1  0
  6  2  1  0
  6  8  1  0
  6  9  1  0
 10 18  1  0
 11 16  1  0
 12 13  1  0
 12 11  1  0
 14 13  1  0
 14 23  1  0
 14 15  1  0
 16 10  1  0
 16 15  1  0
 17 10  2  0
 18 19  1  0
 20 21  2  0
 21 40  1  0
 22 21  1  0
 22 25  1  0
 23 20  1  0
 23 24  1  0
 24 22  2  0
 25 26  1  0
 26 27  2  0
 28 31  1  0
 28 27  1  0
 29 28  2  0
 30 29  1  0
 30 25  2  0
 31 32  1  0
 32 33  1  0
 33 34  2  0
 35 34  1  0
 35 39  1  0
 36 35  2  0
 37 32  2  0
 37 36  1  0
 38 37  1  0
 40 41  1  0
 41 44  1  0
 41 43  1  0
 42 40  2  0
 45 46  1  0
 45 20  1  0
 47 45  1  0
 48 49  1  0
 50 51  1  0
 50 49  2  0
 52 63  2  0
 53 51  1  0
 53 58  1  0
 54 62  1  0
 54 64  1  0
 55 61  1  0
 55 57  1  0
 56 62  1  0
 57 56  1  0
 58 57  2  0
 59 53  2  0
 60 59  1  0
 60 55  2  0
 61 54  1  0
 62 52  1  0
 64 66  2  0
 65 64  1  0
 67 65  1  0
 68 77  2  0
 68 73  1  0
 69 65  1  0
 69 73  1  0
 70 69  1  0
 71 72  1  0
 71 70  1  0
 72 68  1  0
 73 74  2  0
 74 75  1  0
 76 75  2  0
 77 76  1  0
 78 52  1  0
 78 83  1  0
 78 79  1  0
 79 82  1  1
 79 80  1  0
 81 79  1  0
 83 86  1  0
 84 88  1  0
 84 83  1  0
 85 84  2  0
 88 87  1  0
 90 88  1  0
 90 91  1  0
 90 89  1  0
M  ISO  4  10 100  18 100  50 101  51 101
M  END
>  <TORSDO>  (2) 
F 19

>  <SCORE>  (2) 
-14.341

>  <name>  (2) 
1

>  <ligand_id>  (2) 
1

>  <original_smiles>  (2) 
[H]c1c([H])c([H])c2c(c1[H])C([H])([H])C([H])([H])C([H])([H])C2([H])N([H])C(=O)C1([H])N(C(=O)C([H])(N([H])C(=O)C([H])(N([H])C([H])([H])[H])C([H])([H])[H])C(C([H])([H])[H])(C([H])([H])[H])C([H])([H])[H])C([H])([H])c2c([H])c(OC([H])([H])C([H])([H])C([H])([H])C3([H])C([H])([H])C([H])(N([H])C(=O)N4C([H])([H])C([H])([H])C([H])([H])C([H])(n5nc(-c6c([H])c([H])c(Oc7c([H])c([H])c(F)c([H])c7F)c([H])c6[H])c(C(=O)N([H])[H])c5N([H])[H])C4([H])[H])C(=O)C([H])([H])[N+]3([H])[H])c([H])c([H])c2C1([H])[H]

>  <smiles>  (2) 
[H]c1c([H])c([H])c2c(c1[H])C([H])([H])C([H])([H])C([H])([H])C2([H])N([H])C(=O)C1([H])N(C(=O)C([H])(N([H])C(=O)C([H])(N([H])C([H])([H])[H])C([H])([H])[H])C(C([H])([H])[H])(C([H])([H])[H])C([H])([H])[H])C([H])([H])c2c([H])c(OC([H])([H])C([H])([H])C([H])([H])C3([H])C([H])([H])C([H])(N([H])C(=O)N4C([H])([H])C([H])([H])C([H])([H])C([H])(n5nc(-c6c([H])c([H])c(Oc7c([H])c([H])c(F)c([H])c7F)c([H])c6[H])c(C(=O)N([H])[H])c5N([H])[H])C4([H])[H])C(=O)C([H])([H])[N+]3([H])[H])c([H])c([H])c2C1([H])[H]

$$$$
2:0:0
     RDKit          3D

 92101  0  0  1  0  0  0  0  0999 V2000
  -30.2800  -17.8100   19.1080 C   0  0  0  0  0  0  0  0  0  0  0  0
  -28.8580  -19.8000   18.2390 C   0  0  0  0  0  2  0  0  0  0  0  0
  -29.2520  -18.4270   21.2160 C   0  0  0  0  0  2  0  0  0  0  0  0
  -27.8670  -20.4730   19.2170 C   0  0  0  0  0  2  0  0  0  0  0  0
  -30.0740  -19.3440   19.0790 C   0  0  0  0  0  3  0  0  0  0  0  0
  -29.4960  -17.1900   20.2540 C   0  0  0  0  0  3  0  0  0  0  0  0
  -29.7040  -19.8030   20.5070 C   0  0  0  0  0  3  0  0  0  0  0  0
  -28.6720  -20.9360   20.3670 N   0  0  1  0  0  4  0  0  0  0  0  0
  -30.9260  -17.2100   18.2470 O   0  0  0  0  0  0  0  0  0  0  0  0
  -28.1020  -20.9550   21.2000 H   0  0  0  0  0  0  0  0  0  0  0  0
  -30.5700  -14.7220   20.3720 C   0  0  0  0  0  0  0  0  0  0  0  0
  -30.3920  -12.4610   19.3320 C   0  0  0  0  0  2  0  0  0  0  0  0
  -29.4560  -12.5820   18.1070 C   0  0  0  0  0  2  0  0  0  0  0  0
  -27.9810  -12.4180   18.5260 C   0  0  0  0  0  2  0  0  0  0  0  0
  -27.6180  -13.2770   19.7670 C   0  0  0  0  0  3  0  0  0  0  0  0
  -28.6700  -13.1220   20.8890 C   0  0  0  0  0  2  0  0  0  0  0  0
  -29.9780  -13.4820   20.3210 N   0  0  0  0  0  0  0  0  0  0  0  0
  -31.7100  -14.8820   19.9290 O   0  0  0  0  0  0  0  0  0  0  0  0
  -29.7890  -15.7810   20.7990 N   0  0  0  0  0  0  0  0  0  0  0  0
  -29.0050  -15.4330   21.3280 H   0  0  0  0  0  0  0  0  0  0  0  0
  -25.2240  -13.8840   20.4710 C   0  0  0  0  0  0  0  0  0  0  0  0
  -24.1540  -13.1180   20.8430 C   0  0  0  0  0  0  0  0  0  0  0  0
  -24.6110  -11.7660   20.8220 C   0  0  0  0  0  0  0  0  0  0  0  0
  -26.2660  -12.9990   20.2450 N   0  0  0  0  0  0  0  0  0  0  0  0
  -25.9020  -11.7200   20.5170 N   0  0  0  0  0  0  0  0  0  0  0  0
  -23.8790  -10.5080   21.0170 C   0  0  0  0  0  0  0  0  0  0  0  0
  -24.3070   -9.5420   21.9560 C   0  0  0  0  0  3  0  0  0  0  0  0
  -23.5760   -8.3490   22.1400 C   0  0  0  0  0  3  0  0  0  0  0  0
  -22.4010   -8.1120   21.3870 C   0  0  0  0  0  0  0  0  0  0  0  0
  -21.9920   -9.0660   20.4370 C   0  0  0  0  0  3  0  0  0  0  0  0
  -22.7240  -10.2510   20.2510 C   0  0  0  0  0  3  0  0  0  0  0  0
  -21.6410   -6.9730   21.4790 O   0  0  0  0  0  0  0  0  0  0  0  0
  -21.5900   -6.2340   22.6340 C   0  0  0  0  0  0  0  0  0  0  0  0
  -21.1680   -6.7940   23.8600 C   0  0  0  0  0  3  0  0  0  0  0  0
  -21.0640   -5.9810   25.0060 C   0  0  0  0  0  3  0  0  0  0  0  0
  -21.3720   -4.6090   24.9270 C   0  0  0  0  0  0  0  0  0  0  0  0
  -21.7890   -4.0500   23.7070 C   0  0  0  0  0  3  0  0  0  0  0  0
  -21.8940   -4.8590   22.5630 C   0  0  0  0  0  0  0  0  0  0  0  0
  -22.2730   -4.3110   21.3840 F   0  0  0  0  0  0  0  0  0  0  0  0
  -21.2660   -3.8260   26.0270 F   0  0  0  0  0  0  0  0  0  0  0  0
  -22.7570  -13.6020   21.1050 C   0  0  0  0  0  0  0  0  0  0  0  0
  -22.0210  -12.9160   21.9710 N   0  0  0  0  0  0  0  0  0  0  0  0
  -22.3270  -14.6280   20.5760 O   0  0  0  0  0  0  0  0  0  0  0  0
  -22.3800  -12.0890   22.4230 H   0  0  0  0  0  0  0  0  0  0  0  0
  -21.0820  -13.2220   22.1840 H   0  0  0  0  0  0  0  0  0  0  0  0
  -25.3950  -15.2540   20.2860 N   0  0  0  0  0  0  0  0  0  0  0  0
  -24.6240  -15.9060   20.3830 H   0  0  0  0  0  0  0  0  0  0  0  0
  -26.2390  -15.6840   19.9330 H   0  0  0  0  0  0  0  0  0  0  0  0
  -29.1810  -22.3840   20.1510 C   0  0  0  0  0  2  0  0  0  0  0  0
  -28.2150  -23.6690   20.4250 C   0  0  0  0  0  2  0  0  0  0  0  0
  -28.5360  -25.0840   19.6960 C   0  0  0  0  0  2  0  0  0  0  0  0
  -28.3990  -26.4460   20.3110 O   0  0  0  0  0  0  0  0  0  0  0  0
  -24.6250  -31.8780   23.2250 C   0  0  0  0  0  0  0  0  0  0  0  0
  -27.2690  -27.2850   20.2110 C   0  0  0  0  0  0  0  0  0  0  0  0
  -23.4380  -30.4660   21.5820 C   0  0  0  0  0  3  0  0  0  0  0  0
  -24.9030  -28.9080   20.1710 C   0  0  0  0  0  0  0  0  0  0  0  0
  -25.9790  -30.7870   21.4180 C   0  0  0  0  0  2  0  0  0  0  0  0
  -26.0660  -29.4040   20.7720 C   0  0  0  0  0  0  0  0  0  0  0  0
  -27.2490  -28.6020   20.7800 C   0  0  0  0  0  3  0  0  0  0  0  0
  -26.0800  -26.8420   19.5950 C   0  0  0  0  0  3  0  0  0  0  0  0
  -24.9140  -27.6360   19.5750 C   0  0  0  0  0  3  0  0  0  0  0  0
  -23.6640  -29.7820   20.2070 C   0  0  0  0  0  2  0  0  0  0  0  0
  -24.6990  -31.0630   22.1310 N   0  0  0  0  0  0  0  0  0  0  0  0
  -23.5370  -32.1520   23.7530 O   0  0  0  0  0  0  0  0  0  0  0  0
  -22.7710  -29.4540   22.5460 C   0  0  0  0  0  0  0  0  0  0  0  0
  -21.4430  -29.2820   22.4220 N   0  0  0  0  0  0  0  0  0  0  0  0
  -23.4480  -28.8260   23.3640 O   0  0  0  0  0  0  0  0  0  0  0  0
  -20.9560  -29.8390   21.7350 H   0  0  0  0  0  0  0  0  0  0  0  0
  -18.0620  -28.1040   22.9410 C   0  0  0  0  0  0  0  0  0  0  0  0
  -20.6240  -28.3470   23.1950 C   0  0  0  0  0  3  0  0  0  0  0  0
  -20.7140  -26.9170   22.6140 C   0  0  0  0  0  2  0  0  0  0  0  0
  -19.6040  -26.6040   21.6050 C   0  0  0  0  0  2  0  0  0  0  0  0
  -18.2260  -26.7560   22.2580 C   0  0  0  0  0  2  0  0  0  0  0  0
  -19.1880  -28.8570   23.3660 C   0  0  0  0  0  0  0  0  0  0  0  0
  -18.9800  -30.1180   23.9660 C   0  0  0  0  0  3  0  0  0  0  0  0
  -17.6790  -30.6260   24.1410 C   0  0  0  0  0  3  0  0  0  0  0  0
  -16.5680  -29.8690   23.7300 C   0  0  0  0  0  3  0  0  0  0  0  0
  -16.7610  -28.6090   23.1370 C   0  0  0  0  0  3  0  0  0  0  0  0
  -25.9020  -32.5200   23.8520 C   0  0  0  0  0  3  0  0  0  0  0  0
  -26.4120  -31.7570   25.1360 C   0  0  1  0  0  0  0  0  0  0  0  0
  -25.3130  -31.5200   26.1970 C   0  0  0  0  0  1  0  0  0  0  0  0
  -27.0040  -30.3790   24.7590 C   0  0  0  0  0  1  0  0  0  0  0  0
  -27.5580  -32.5570   25.8000 C   0  0  0  0  0  1  0  0  0  0  0  0
  -25.5830  -33.9180   24.1770 N   0  0  0  0  0  0  0  0  0  0  0  0
  -25.9090  -34.9700   23.4160 C   0  0  0  0  0  0  0  0  0  0  0  0
  -26.5790  -34.8680   22.3850 O   0  0  0  0  0  0  0  0  0  0  0  0
  -24.9920  -34.0700   24.9820 H   0  0  0  0  0  0  0  0  0  0  0  0
  -24.1740  -36.7540   23.0540 C   0  0  0  0  0  1  0  0  0  0  0  0
  -25.4150  -36.3580   23.8700 C   0  0  0  0  0  3  0  0  0  0  0  0
  -27.5420  -37.2550   24.7060 C   0  0  0  0  0  1  0  0  0  0  0  0
  -26.4430  -37.4150   23.7580 N   0  0  0  0  0  0  0  0  0  0  0  0
  -26.0330  -38.3340   23.8990 H   0  0  0  0  0  0  0  0  0  0  0  0
  1  6  1  0
  2  4  1  0
  4  8  1  0
  5  2  1  0
  5  1  1  0
  5  7  1  0
  6 19  1  0
  6  3  1  0
  7  3  1  0
  8  7  1  0
  8 10  1  1
  9  1  2  0
 11 19  1  0
 12 17  1  0
 13 14  1  0
 13 12  1  0
 15 14  1  0
 15 24  1  0
 15 16  1  0
 17 11  1  0
 17 16  1  0
 18 11  2  0
 19 20  1  0
 21 22  2  0
 22 41  1  0
 23 22  1  0
 23 26  1  0
 24 21  1  0
 24 25  1  0
 25 23  2  0
 26 27  1  0
 27 28  2  0
 29 32  1  0
 29 28  1  0
 30 29  2  0
 31 30  1  0
 31 26  2  0
 32 33  1  0
 33 34  1  0
 34 35  2  0
 36 35  1  0
 36 40  1  0
 37 36  2  0
 38 33  2  0
 38 37  1  0
 39 38  1  0
 41 42  1  0
 42 45  1  0
 42 44  1  0
 43 41  2  0
 46 47  1  0
 46 21  1  0
 48 46  1  0
 49  8  1  0
 49 50  1  0
 51 52  1  0
 51 50  1  0
 53 64  2  0
 54 52  1  0
 54 59  1  0
 55 63  1  0
 55 65  1  0
 56 62  1  0
 56 58  1  0
 57 63  1  0
 58 59  2  0
 58 57  1  0
 60 54  2  0
 61 60  1  0
 61 56  2  0
 62 55  1  0
 63 53  1  0
 65 67  2  0
 66 65  1  0
 68 66  1  0
 69 78  2  0
 69 74  1  0
 70 66  1  0
 70 74  1  0
 71 70  1  0
 72 73  1  0
 72 71  1  0
 73 69  1  0
 74 75  2  0
 75 76  1  0
 77 76  2  0
 78 77  1  0
 79 53  1  0
 79 84  1  0
 79 80  1  0
 80 83  1  1
 80 81  1  0
 82 80  1  0
 84 87  1  0
 85 89  1  0
 85 84  1  0
 86 85  2  0
 89 88  1  0
 91 89  1  0
 91 92  1  0
 91 90  1  0
M  ISO  4  11 100  19 100  51 101  52 101
M  END
>  <TORSDO>  (3) 
F 19

>  <SCORE>  (3) 
-14.105

>  <name>  (3) 
2

>  <ligand_id>  (3) 
2

>  <original_smiles>  (3) 
[H]c1c([H])c([H])c2c(c1[H])C([H])([H])C([H])([H])C([H])([H])C2([H])N([H])C(=O)C1([H])N(C(=O)C([H])(N([H])C(=O)C([H])(N([H])C([H])([H])[H])C([H])([H])[H])C(C([H])([H])[H])(C([H])([H])[H])C([H])([H])[H])C([H])([H])c2c([H])c(OC([H])([H])C([H])([H])C([H])([H])[N+]3([H])C([H])([H])C([H])([H])C4([H])C(=O)C([H])(N([H])C(=O)N5C([H])([H])C([H])([H])C([H])([H])C([H])(n6nc(-c7c([H])c([H])c(Oc8c([H])c([H])c(F)c([H])c8F)c([H])c7[H])c(C(=O)N([H])[H])c6N([H])[H])C5([H])[H])C([H])([H])C43[H])c([H])c([H])c2C1([H])[H]

>  <smiles>  (3) 
[H]c1c([H])c([H])c2c(c1[H])C([H])([H])C([H])([H])C([H])([H])C2([H])N([H])C(=O)C1([H])N(C(=O)C([H])(N([H])C(=O)C([H])(N([H])C([H])([H])[H])C([H])([H])[H])C(C([H])([H])[H])(C([H])([H])[H])C([H])([H])[H])C([H])([H])c2c([H])c(OC([H])([H])C([H])([H])C([H])([H])[N+]3([H])C([H])([H])C([H])([H])C4([H])C(=O)C([H])(N([H])C(=O)N5C([H])([H])C([H])([H])C([H])([H])C([H])(n6nc(-c7c([H])c([H])c(Oc8c([H])c([H])c(F)c([H])c8F)c([H])c7[H])c(C(=O)N([H])[H])c6N([H])[H])C5([H])[H])C([H])([H])C43[H])c([H])c([H])c2C1([H])[H]

$$$$
3:0:0
     RDKit          3D

 92101  0  0  1  0  0  0  0  0999 V2000
  -31.0950  -18.5770   20.0240 C   0  0  0  0  0  0  0  0  0  0  0  0
  -28.5360  -18.8220   20.4260 C   0  0  0  0  0  2  0  0  0  0  0  0
  -30.6180  -21.1830   20.7130 C   0  0  0  0  0  2  0  0  0  0  0  0
  -29.8360  -17.8100   20.5850 C   0  0  0  0  0  3  0  0  0  0  0  0
  -30.9020  -20.1080   19.5900 C   0  0  0  0  0  3  0  0  0  0  0  0
  -29.1410  -21.6980   20.5720 C   0  0  0  0  0  3  0  0  0  0  0  0
  -28.6750  -20.3410   19.7640 C   0  0  0  0  0  3  0  0  0  0  0  0
  -29.7030  -20.0940   18.7470 N   0  0  0  0  0  4  0  0  0  0  0  0
  -32.1920  -18.0250   19.9300 O   0  0  0  0  0  0  0  0  0  0  0  0
  -29.5980  -19.2230   18.2510 H   0  0  0  0  0  0  0  0  0  0  0  0
  -29.7360  -20.8500   18.0820 H   0  0  0  0  0  0  0  0  0  0  0  0
  -30.4850  -15.0340   20.3010 C   0  0  0  0  0  0  0  0  0  0  0  0
  -30.3690  -12.6800   19.3380 C   0  0  0  0  0  2  0  0  0  0  0  0
  -29.4320  -12.6260   18.1100 C   0  0  0  0  0  2  0  0  0  0  0  0
  -27.9720  -12.4020   18.5480 C   0  0  0  0  0  2  0  0  0  0  0  0
  -27.5620  -13.3210   19.7280 C   0  0  0  0  0  3  0  0  0  0  0  0
  -28.6230  -13.3470   20.8490 C   0  0  0  0  0  2  0  0  0  0  0  0
  -29.8880  -13.7730   20.2340 N   0  0  0  0  0  0  0  0  0  0  0  0
  -31.6940  -15.0840   20.0570 O   0  0  0  0  0  0  0  0  0  0  0  0
  -29.6830  -16.2110   20.4540 N   0  0  0  0  0  0  0  0  0  0  0  0
  -28.7180  -15.9430   20.5460 H   0  0  0  0  0  0  0  0  0  0  0  0
  -25.1830  -13.8880   20.4770 C   0  0  0  0  0  0  0  0  0  0  0  0
  -24.1230  -13.1090   20.8510 C   0  0  0  0  0  0  0  0  0  0  0  0
  -24.5930  -11.7600   20.8210 C   0  0  0  0  0  0  0  0  0  0  0  0
  -26.2280  -13.0140   20.2330 N   0  0  0  0  0  0  0  0  0  0  0  0
  -25.8840  -11.7290   20.5090 N   0  0  0  0  0  0  0  0  0  0  0  0
  -23.8720  -10.4940   21.0100 C   0  0  0  0  0  0  0  0  0  0  0  0
  -24.3050   -9.5280   21.9450 C   0  0  0  0  0  3  0  0  0  0  0  0
  -23.5820   -8.3290   22.1240 C   0  0  0  0  0  3  0  0  0  0  0  0
  -22.4090   -8.0870   21.3690 C   0  0  0  0  0  0  0  0  0  0  0  0
  -21.9940   -9.0430   20.4240 C   0  0  0  0  0  3  0  0  0  0  0  0
  -22.7180  -10.2330   20.2430 C   0  0  0  0  0  3  0  0  0  0  0  0
  -21.6570   -6.9410   21.4570 O   0  0  0  0  0  0  0  0  0  0  0  0
  -21.6080   -6.1990   22.6120 C   0  0  0  0  0  0  0  0  0  0  0  0
  -21.1810   -6.7540   23.8370 C   0  0  0  0  0  3  0  0  0  0  0  0
  -21.0800   -5.9400   24.9830 C   0  0  0  0  0  3  0  0  0  0  0  0
  -21.3950   -4.5700   24.9020 C   0  0  0  0  0  0  0  0  0  0  0  0
  -21.8150   -4.0140   23.6820 C   0  0  0  0  0  3  0  0  0  0  0  0
  -21.9170   -4.8260   22.5390 C   0  0  0  0  0  0  0  0  0  0  0  0
  -22.3010   -4.2810   21.3600 F   0  0  0  0  0  0  0  0  0  0  0  0
  -21.2910   -3.7870   26.0000 F   0  0  0  0  0  0  0  0  0  0  0  0
  -22.7230  -13.5800   21.1180 C   0  0  0  0  0  0  0  0  0  0  0  0
  -21.9960  -12.8830   21.9830 N   0  0  0  0  0  0  0  0  0  0  0  0
  -22.2840  -14.6030   20.5940 O   0  0  0  0  0  0  0  0  0  0  0  0
  -22.3640  -12.0570   22.4310 H   0  0  0  0  0  0  0  0  0  0  0  0
  -21.0560  -13.1810   22.2010 H   0  0  0  0  0  0  0  0  0  0  0  0
  -25.3380  -15.2590   20.2940 N   0  0  0  0  0  0  0  0  0  0  0  0
  -24.5620  -15.9050   20.3950 H   0  0  0  0  0  0  0  0  0  0  0  0
  -26.1650  -15.6960   19.9100 H   0  0  0  0  0  0  0  0  0  0  0  0
  -29.0320  -23.3180   19.9910 C   0  0  0  0  0  2  0  0  0  0  0  0
  -28.0810  -24.6310   20.5020 C   0  0  0  0  0  2  0  0  0  0  0  0
  -28.2990  -26.1710   20.2520 O   0  0  0  0  0  0  0  0  0  0  0  0
  -24.6270  -31.8810   23.2460 C   0  0  0  0  0  0  0  0  0  0  0  0
  -27.2260  -27.1470   20.2360 C   0  0  0  0  0  0  0  0  0  0  0  0
  -23.4360  -30.4760   21.6090 C   0  0  0  0  0  3  0  0  0  0  0  0
  -24.8920  -28.8970   20.1930 C   0  0  0  0  0  0  0  0  0  0  0  0
  -25.9920  -30.7430   21.4500 C   0  0  0  0  0  2  0  0  0  0  0  0
  -26.0710  -29.3460   20.8030 C   0  0  0  0  0  0  0  0  0  0  0  0
  -27.2390  -28.4900   20.8010 C   0  0  0  0  0  3  0  0  0  0  0  0
  -26.0200  -26.8040   19.5890 C   0  0  0  0  0  3  0  0  0  0  0  0
  -24.8830  -27.6400   19.5680 C   0  0  0  0  0  3  0  0  0  0  0  0
  -23.6630  -29.7930   20.2340 C   0  0  0  0  0  2  0  0  0  0  0  0
  -24.7060  -31.0550   22.1580 N   0  0  0  0  0  0  0  0  0  0  0  0
  -23.5390  -32.1640   23.7690 O   0  0  0  0  0  0  0  0  0  0  0  0
  -22.7550  -29.4700   22.5720 C   0  0  0  0  0  0  0  0  0  0  0  0
  -21.4260  -29.3010   22.4470 N   0  0  0  0  0  0  0  0  0  0  0  0
  -23.4260  -28.8460   23.3980 O   0  0  0  0  0  0  0  0  0  0  0  0
  -20.9400  -29.8580   21.7580 H   0  0  0  0  0  0  0  0  0  0  0  0
  -18.0440  -28.1040   22.9550 C   0  0  0  0  0  0  0  0  0  0  0  0
  -20.6040  -28.3640   23.2190 C   0  0  0  0  0  3  0  0  0  0  0  0
  -20.7030  -26.9320   22.6450 C   0  0  0  0  0  2  0  0  0  0  0  0
  -19.6000  -26.6080   21.6320 C   0  0  0  0  0  2  0  0  0  0  0  0
  -18.2190  -26.7550   22.2780 C   0  0  0  0  0  2  0  0  0  0  0  0
  -19.1630  -28.8660   23.3820 C   0  0  0  0  0  0  0  0  0  0  0  0
  -18.9450  -30.1270   23.9760 C   0  0  0  0  0  3  0  0  0  0  0  0
  -17.6400  -30.6280   24.1450 C   0  0  0  0  0  3  0  0  0  0  0  0
  -16.5350  -29.8620   23.7350 C   0  0  0  0  0  3  0  0  0  0  0  0
  -16.7380  -28.6010   23.1450 C   0  0  0  0  0  3  0  0  0  0  0  0
  -25.9000  -32.5240   23.8740 C   0  0  0  0  0  3  0  0  0  0  0  0
  -25.5820  -33.9220   24.2070 N   0  0  0  0  0  0  0  0  0  0  0  0
  -25.9090  -34.9810   23.4550 C   0  0  0  0  0  0  0  0  0  0  0  0
  -26.5770  -34.8850   22.4230 O   0  0  0  0  0  0  0  0  0  0  0  0
  -24.9880  -34.0690   25.0100 H   0  0  0  0  0  0  0  0  0  0  0  0
  -24.1740  -36.7730   23.1170 C   0  0  0  0  0  1  0  0  0  0  0  0
  -25.4190  -36.3680   23.9210 C   0  0  0  0  0  3  0  0  0  0  0  0
  -27.5520  -37.2580   24.7510 C   0  0  0  0  0  1  0  0  0  0  0  0
  -26.4480  -37.4250   23.8080 N   0  0  0  0  0  0  0  0  0  0  0  0
  -26.0400  -38.3440   23.9570 H   0  0  0  0  0  0  0  0  0  0  0  0
  -26.4120  -31.7590   25.1560 C   0  0  1  0  0  0  0  0  0  0  0  0
  -25.3120  -31.5240   26.2200 C   0  0  0  0  0  1  0  0  0  0  0  0
  -27.0010  -30.3820   24.7770 C   0  0  0  0  0  1  0  0  0  0  0  0
  -27.5570  -32.5580   25.8210 C   0  0  0  0  0  1  0  0  0  0  0  0
  1  4  1  0
  2  4  1  0
  4 20  1  0
  5  1  1  0
  5  3  1  0
  6 50  1  0
  6  3  1  0
  7  2  1  0
  7  6  1  0
  8  5  1  0
  8  7  1  0
  9  1  2  0
 10  8  1  0
 11  8  1  0
 12 20  1  0
 13 18  1  0
 14 15  1  0
 14 13  1  0
 16 15  1  0
 16 25  1  0
 16 17  1  0
 18 12  1  0
 18 17  1  0
 19 12  2  0
 20 21  1  0
 22 23  2  0
 23 42  1  0
 24 23  1  0
 24 27  1  0
 25 22  1  0
 25 26  1  0
 26 24  2  0
 27 28  1  0
 28 29  2  0
 30 33  1  0
 30 29  1  0
 31 30  2  0
 32 31  1  0
 32 27  2  0
 33 34  1  0
 34 35  1  0
 35 36  2  0
 37 36  1  0
 37 41  1  0
 38 37  2  0
 39 34  2  0
 39 38  1  0
 40 39  1  0
 42 43  1  0
 43 46  1  0
 43 45  1  0
 44 42  2  0
 47 48  1  0
 47 22  1  0
 49 47  1  0
 50 51  1  0
 52 51  1  0
 53 64  2  0
 54 52  1  0
 54 59  1  0
 55 63  1  0
 55 65  1  0
 56 62  1  0
 56 58  1  0
 57 63  1  0
 58 57  1  0
 59 58  2  0
 60 54  2  0
 61 60  1  0
 61 56  2  0
 62 55  1  0
 63 53  1  0
 65 67  2  0
 66 65  1  0
 68 66  1  0
 69 78  2  0
 69 74  1  0
 70 66  1  0
 70 74  1  0
 71 70  1  0
 72 73  1  0
 72 71  1  0
 73 69  1  0
 74 75  2  0
 75 76  1  0
 77 76  2  0
 78 77  1  0
 79 53  1  0
 79 80  1  0
 79 89  1  0
 80 83  1  0
 81 85  1  0
 81 80  1  0
 82 81  2  0
 85 84  1  0
 87 85  1  0
 87 88  1  0
 87 86  1  0
 89 92  1  1
 89 90  1  0
 91 89  1  0
M  ISO  4  12 100  20 100  51 101  52 101
M  END
>  <TORSDO>  (4) 
F 18

>  <SCORE>  (4) 
-15.853

>  <name>  (4) 
3

>  <ligand_id>  (4) 
3

>  <original_smiles>  (4) 
[H]c1c([H])c([H])c2c(c1[H])C([H])([H])C([H])([H])C([H])([H])C2([H])N([H])C(=O)C1([H])N(C(=O)C([H])(N([H])C(=O)C([H])(N([H])C([H])([H])[H])C([H])([H])[H])C(C([H])([H])[H])(C([H])([H])[H])C([H])([H])[H])C([H])([H])c2c([H])c(OC([H])([H])C([H])([H])C3([H])C([H])([H])C4([H])C(=O)C([H])(N([H])C(=O)N5C([H])([H])C([H])([H])C([H])([H])C([H])(n6nc(-c7c([H])c([H])c(Oc8c([H])c([H])c(F)c([H])c8F)c([H])c7[H])c(C(=O)N([H])[H])c6N([H])[H])C5([H])[H])C([H])([H])C3([H])[N+]4([H])[H])c([H])c([H])c2C1([H])[H]

>  <smiles>  (4) 
[H]c1c([H])c([H])c2c(c1[H])C([H])([H])C([H])([H])C([H])([H])C2([H])N([H])C(=O)C1([H])N(C(=O)C([H])(N([H])C(=O)C([H])(N([H])C([H])([H])[H])C([H])([H])[H])C(C([H])([H])[H])(C([H])([H])[H])C([H])([H])[H])C([H])([H])c2c([H])c(OC([H])([H])C([H])([H])C3([H])C([H])([H])C4([H])C(=O)C([H])(N([H])C(=O)N5C([H])([H])C([H])([H])C([H])([H])C([H])(n6nc(-c7c([H])c([H])c(Oc8c([H])c([H])c(F)c([H])c8F)c([H])c7[H])c(C(=O)N([H])[H])c6N([H])[H])C5([H])[H])C([H])([H])C3([H])[N+]4([H])[H])c([H])c([H])c2C1([H])[H]

$$$$
4:0:0
     RDKit          3D

 92100  0  0  1  0  0  0  0  0999 V2000
  -30.0140  -18.3770   19.7430 C   0  0  0  0  0  2  0  0  0  0  0  0
  -30.1940  -19.2690   21.9860 C   0  0  0  0  0  2  0  0  0  0  0  0
  -29.5840  -19.6320   20.6230 C   0  0  0  0  0  3  0  0  0  0  0  0
  -30.5930  -17.2150   20.6570 C   0  0  0  0  0  3  0  0  0  0  0  0
  -30.1980  -17.7210   22.0610 C   0  0  0  0  0  3  0  0  0  0  0  0
  -30.8950  -14.6620   20.1340 C   0  0  0  0  0  0  0  0  0  0  0  0
  -30.6050  -12.4140   19.1010 C   0  0  0  0  0  2  0  0  0  0  0  0
  -29.6450  -12.5280   17.8970 C   0  0  0  0  0  2  0  0  0  0  0  0
  -28.1770  -12.4050   18.3540 C   0  0  0  0  0  2  0  0  0  0  0  0
  -27.8530  -13.3040   19.5770 C   0  0  0  0  0  3  0  0  0  0  0  0
  -28.9270  -13.1640   20.6780 C   0  0  0  0  0  2  0  0  0  0  0  0
  -30.2270  -13.4670   20.0650 N   0  0  0  0  0  0  0  0  0  0  0  0
  -32.0730  -14.7560   19.7800 O   0  0  0  0  0  0  0  0  0  0  0  0
  -30.1560  -15.7800   20.4410 N   0  0  0  0  0  0  0  0  0  0  0  0
  -29.1790  -15.5930   20.6060 H   0  0  0  0  0  0  0  0  0  0  0  0
  -25.4960  -13.9730   20.3430 C   0  0  0  0  0  0  0  0  0  0  0  0
  -24.4140  -13.2310   20.7340 C   0  0  0  0  0  0  0  0  0  0  0  0
  -24.8350  -11.8680   20.6950 C   0  0  0  0  0  0  0  0  0  0  0  0
  -26.5090  -13.0620   20.0900 N   0  0  0  0  0  0  0  0  0  0  0  0
  -26.1190  -11.7900   20.3640 N   0  0  0  0  0  0  0  0  0  0  0  0
  -24.0750  -10.6270   20.8980 C   0  0  0  0  0  0  0  0  0  0  0  0
  -24.4930   -9.6480   21.8250 C   0  0  0  0  0  3  0  0  0  0  0  0
  -23.7350   -8.4720   22.0160 C   0  0  0  0  0  3  0  0  0  0  0  0
  -22.5440   -8.2690   21.2790 C   0  0  0  0  0  0  0  0  0  0  0  0
  -22.1440   -9.2370   20.3420 C   0  0  0  0  0  3  0  0  0  0  0  0
  -22.9020  -10.4030   20.1480 C   0  0  0  0  0  3  0  0  0  0  0  0
  -21.7570   -7.1460   21.3800 O   0  0  0  0  0  0  0  0  0  0  0  0
  -21.6990   -6.4090   22.5360 C   0  0  0  0  0  0  0  0  0  0  0  0
  -21.3000   -6.9800   23.7640 C   0  0  0  0  0  3  0  0  0  0  0  0
  -21.1880   -6.1710   24.9120 C   0  0  0  0  0  3  0  0  0  0  0  0
  -21.4650   -4.7920   24.8340 C   0  0  0  0  0  0  0  0  0  0  0  0
  -21.8570   -4.2220   23.6100 C   0  0  0  0  0  3  0  0  0  0  0  0
  -21.9710   -5.0290   22.4630 C   0  0  0  0  0  0  0  0  0  0  0  0
  -22.3290   -4.4700   21.2820 F   0  0  0  0  0  0  0  0  0  0  0  0
  -21.3490   -4.0130   25.9340 F   0  0  0  0  0  0  0  0  0  0  0  0
  -23.0360  -13.7510   21.0270 C   0  0  0  0  0  0  0  0  0  0  0  0
  -22.3060  -13.0840   21.9130 N   0  0  0  0  0  0  0  0  0  0  0  0
  -22.6170  -14.7830   20.5040 O   0  0  0  0  0  0  0  0  0  0  0  0
  -22.6580  -12.2490   22.3590 H   0  0  0  0  0  0  0  0  0  0  0  0
  -21.3810  -13.4140   22.1520 H   0  0  0  0  0  0  0  0  0  0  0  0
  -25.6970  -15.3380   20.1590 N   0  0  0  0  0  0  0  0  0  0  0  0
  -24.9400  -16.0050   20.2620 H   0  0  0  0  0  0  0  0  0  0  0  0
  -26.5280  -15.7470   19.7530 H   0  0  0  0  0  0  0  0  0  0  0  0
  -31.0620  -17.1850   23.1260 N   0  0  0  0  0  4  0  0  0  0  0  0
  -32.0200  -17.4510   22.9860 H   0  0  0  0  0  0  0  0  0  0  0  0
  -31.0130  -16.1830   23.1450 H   0  0  0  0  0  0  0  0  0  0  0  0
  -30.7650  -17.5270   24.0230 H   0  0  0  0  0  0  0  0  0  0  0  0
  -29.9120  -21.1290   20.1330 C   0  0  0  0  0  3  0  0  0  0  0  0
  -28.9600  -22.3360   20.5850 C   0  0  0  0  0  3  0  0  0  0  0  0
  -29.4040  -23.8660   20.3680 C   0  0  0  0  0  3  0  0  0  0  0  0
  -28.2440  -24.9630   20.2980 C   0  0  0  0  0  3  0  0  0  0  0  0
  -28.5080  -26.4310   20.3250 O   0  0  0  0  0  0  0  0  0  0  0  0
  -24.6510  -31.8390   23.2200 C   0  0  0  0  0  0  0  0  0  0  0  0
  -27.3910  -27.2900   20.2460 C   0  0  0  0  0  0  0  0  0  0  0  0
  -23.5080  -30.4260   21.5510 C   0  0  0  0  0  3  0  0  0  0  0  0
  -25.0140  -28.8930   20.1700 C   0  0  0  0  0  0  0  0  0  0  0  0
  -26.0520  -30.7670   21.4410 C   0  0  0  0  0  2  0  0  0  0  0  0
  -26.1640  -29.3890   20.7970 C   0  0  0  0  0  0  0  0  0  0  0  0
  -27.3560  -28.6000   20.8230 C   0  0  0  0  0  3  0  0  0  0  0  0
  -26.2120  -26.8580   19.5920 C   0  0  0  0  0  3  0  0  0  0  0  0
  -25.0410  -27.6350   19.5580 C   0  0  0  0  0  3  0  0  0  0  0  0
  -23.7690  -29.7550   20.1790 C   0  0  0  0  0  2  0  0  0  0  0  0
  -24.7540  -31.0280   22.1270 N   0  0  0  0  0  0  0  0  0  0  0  0
  -23.5490  -32.1060   23.7220 O   0  0  0  0  0  0  0  0  0  0  0  0
  -22.8310  -29.4020   22.4930 C   0  0  0  0  0  0  0  0  0  0  0  0
  -21.5110  -29.2090   22.3270 N   0  0  0  0  0  0  0  0  0  0  0  0
  -23.4910  -28.7840   23.3310 O   0  0  0  0  0  0  0  0  0  0  0  0
  -21.0370  -29.7590   21.6240 H   0  0  0  0  0  0  0  0  0  0  0  0
  -18.1320  -27.9810   22.7360 C   0  0  0  0  0  0  0  0  0  0  0  0
  -20.6790  -28.2660   23.0770 C   0  0  0  0  0  3  0  0  0  0  0  0
  -20.8110  -26.8340   22.5090 C   0  0  0  0  0  2  0  0  0  0  0  0
  -19.7420  -26.4980   21.4650 C   0  0  0  0  0  2  0  0  0  0  0  0
  -18.3400  -26.6310   22.0680 C   0  0  0  0  0  2  0  0  0  0  0  0
  -19.2300  -28.7550   23.1950 C   0  0  0  0  0  0  0  0  0  0  0  0
  -18.9820  -30.0170   23.7760 C   0  0  0  0  0  3  0  0  0  0  0  0
  -17.6680  -30.5050   23.9040 C   0  0  0  0  0  3  0  0  0  0  0  0
  -16.5850  -29.7290   23.4610 C   0  0  0  0  0  3  0  0  0  0  0  0
  -16.8170  -28.4680   22.8820 C   0  0  0  0  0  3  0  0  0  0  0  0
  -25.9080  -32.4880   23.8760 C   0  0  0  0  0  3  0  0  0  0  0  0
  -25.5750  -33.8840   24.1890 N   0  0  0  0  0  0  0  0  0  0  0  0
  -25.9170  -34.9360   23.4350 C   0  0  0  0  0  0  0  0  0  0  0  0
  -26.6150  -34.8340   22.4220 O   0  0  0  0  0  0  0  0  0  0  0  0
  -24.9550  -34.0360   24.9720 H   0  0  0  0  0  0  0  0  0  0  0  0
  -24.1790  -36.7100   23.0250 C   0  0  0  0  0  1  0  0  0  0  0  0
  -25.4030  -36.3220   23.8710 C   0  0  0  0  0  3  0  0  0  0  0  0
  -27.5030  -37.2360   24.7550 C   0  0  0  0  0  1  0  0  0  0  0  0
  -26.4270  -37.3860   23.7790 N   0  0  0  0  0  0  0  0  0  0  0  0
  -26.0080  -38.3020   23.9080 H   0  0  0  0  0  0  0  0  0  0  0  0
  -26.3920  -31.7280   25.1730 C   0  0  1  0  0  0  0  0  0  0  0  0
  -25.2680  -31.4840   26.2070 C   0  0  0  0  0  1  0  0  0  0  0  0
  -27.0010  -30.3540   24.8090 C   0  0  0  0  0  1  0  0  0  0  0  0
  -27.5120  -32.5370   25.8660 C   0  0  0  0  0  1  0  0  0  0  0  0
  1  3  1  0
  1  4  1  0
  2  5  1  0
  3 48  1  0
  3  2  1  0
  4 14  1  0
  4  5  1  0
  5 44  1  0
  6 14  1  0
  7 12  1  0
  8  9  1  0
  8  7  1  0
 10  9  1  0
 10 19  1  0
 10 11  1  0
 12  6  1  0
 12 11  1  0
 13  6  2  0
 14 15  1  0
 16 17  2  0
 17 36  1  0
 18 17  1  0
 18 21  1  0
 19 16  1  0
 19 20  1  0
 20 18  2  0
 21 22  1  0
 22 23  2  0
 24 27  1  0
 24 23  1  0
 25 24  2  0
 26 25  1  0
 26 21  2  0
 27 28  1  0
 28 29  1  0
 29 30  2  0
 31 30  1  0
 31 35  1  0
 32 31  2  0
 33 28  2  0
 33 32  1  0
 34 33  1  0
 36 37  1  0
 37 40  1  0
 37 39  1  0
 38 36  2  0
 41 42  1  0
 41 16  1  0
 43 41  1  0
 44 46  1  0
 44 47  1  0
 45 44  1  0
 48 49  2  0
 50 49  1  0
 51 52  1  0
 51 50  2  0
 53 64  2  0
 54 52  1  0
 54 59  1  0
 55 63  1  0
 55 65  1  0
 56 62  1  0
 56 58  1  0
 57 63  1  0
 58 59  2  0
 58 57  1  0
 60 54  2  0
 61 60  1  0
 61 56  2  0
 62 55  1  0
 63 53  1  0
 65 67  2  0
 66 65  1  0
 68 66  1  0
 69 78  2  0
 69 74  1  0
 70 66  1  0
 70 74  1  0
 71 70  1  0
 72 73  1  0
 72 71  1  0
 73 69  1  0
 74 75  2  0
 75 76  1  0
 77 76  2  0
 78 77  1  0
 79 53  1  0
 79 80  1  0
 79 89  1  0
 80 83  1  0
 81 85  1  0
 81 80  1  0
 82 81  2  0
 85 84  1  0
 87 85  1  0
 87 88  1  0
 87 86  1  0
 89 92  1  1
 89 90  1  0
 91 89  1  0
M  ISO  4   6 100  14 100  51 101  52 101
M  END
>  <TORSDO>  (5) 
F 21

>  <SCORE>  (5) 
-12.867

>  <name>  (5) 
4

>  <ligand_id>  (5) 
4

>  <original_smiles>  (5) 
[H]c1c([H])c([H])c2c(c1[H])C([H])([H])C([H])([H])C([H])([H])C2([H])N([H])C(=O)C1([H])N(C(=O)C([H])(N([H])C(=O)C([H])(N([H])C([H])([H])[H])C([H])([H])[H])C(C([H])([H])[H])(C([H])([H])[H])C([H])([H])[H])C([H])([H])c2c([H])c(OC([H])([H])C([H])([H])C([H])([H])C([H])([H])C3([H])C([H])([H])C([H])(N([H])C(=O)N4C([H])([H])C([H])([H])C([H])([H])C([H])(n5nc(-c6c([H])c([H])c(Oc7c([H])c([H])c(F)c([H])c7F)c([H])c6[H])c(C(=O)N([H])[H])c5N([H])[H])C4([H])[H])C([H])([N+]([H])([H])[H])C3([H])[H])c([H])c([H])c2C1([H])[H]

>  <smiles>  (5) 
[H]c1c([H])c([H])c2c(c1[H])C([H])([H])C([H])([H])C([H])([H])C2([H])N([H])C(=O)C1([H])N(C(=O)C([H])(N([H])C(=O)C([H])(N([H])C([H])([H])[H])C([H])([H])[H])C(C([H])([H])[H])(C([H])([H])[H])C([H])([H])[H])C([H])([H])c2c([H])c(OC([H])([H])C([H])([H])C([H])([H])C([H])([H])C3([H])C([H])([H])C([H])(N([H])C(=O)N4C([H])([H])C([H])([H])C([H])([H])C([H])(n5nc(-c6c([H])c([H])c(Oc7c([H])c([H])c(F)c([H])c7F)c([H])c6[H])c(C(=O)N([H])[H])c5N([H])[H])C4([H])[H])C([H])([N+]([H])([H])[H])C3([H])[H])c([H])c([H])c2C1([H])[H]

$$$$
5:0:0
     RDKit          3D

 87 95  0  0  1  0  0  0  0  0999 V2000
  -28.0610  -21.1280   20.9950 C   0  0  0  0  0  2  0  0  0  0  0  0
  -28.4220  -19.5800   20.9550 C   0  0  0  0  0  2  0  0  0  0  0  0
  -29.9640  -20.7900   19.6470 C   0  0  0  0  0  2  0  0  0  0  0  0
  -28.8170  -21.9240   19.8930 C   0  0  0  0  0  3  0  0  0  0  0  0
  -29.4090  -19.2610   19.8020 C   0  0  0  0  0  3  0  0  0  0  0  0
  -29.1130  -23.5740   20.1600 C   0  0  0  0  0  3  0  0  0  0  0  0
  -28.0350  -24.8590   19.9790 C   0  0  0  0  0  3  0  0  0  0  0  0
  -28.2920  -26.3790   20.2110 O   0  0  0  0  0  0  0  0  0  0  0  0
  -24.6360  -31.9590   23.3500 C   0  0  0  0  0  0  0  0  0  0  0  0
  -27.2250  -27.3500   20.1790 C   0  0  0  0  0  0  0  0  0  0  0  0
  -23.4330  -30.5940   21.6880 C   0  0  0  0  0  3  0  0  0  0  0  0
  -24.8790  -29.0710   20.2100 C   0  0  0  0  0  0  0  0  0  0  0  0
  -25.9820  -30.8890   21.5050 C   0  0  0  0  0  2  0  0  0  0  0  0
  -26.0620  -29.5140   20.8170 C   0  0  0  0  0  0  0  0  0  0  0  0
  -27.2350  -28.6710   20.7830 C   0  0  0  0  0  3  0  0  0  0  0  0
  -26.0140  -27.0070   19.5370 C   0  0  0  0  0  3  0  0  0  0  0  0
  -24.8680  -27.8310   19.5550 C   0  0  0  0  0  3  0  0  0  0  0  0
  -23.6460  -29.9550   20.2910 C   0  0  0  0  0  2  0  0  0  0  0  0
  -24.7040  -31.1680   22.2360 N   0  0  0  0  0  0  0  0  0  0  0  0
  -23.5520  -32.2200   23.8960 O   0  0  0  0  0  0  0  0  0  0  0  0
  -22.7720  -29.5570   22.6310 C   0  0  0  0  0  0  0  0  0  0  0  0
  -21.4500  -29.3530   22.4890 N   0  0  0  0  0  0  0  0  0  0  0  0
  -23.4520  -28.9390   23.4540 O   0  0  0  0  0  0  0  0  0  0  0  0
  -20.9570  -29.9050   21.8010 H   0  0  0  0  0  0  0  0  0  0  0  0
  -18.0970  -28.0580   22.9400 C   0  0  0  0  0  0  0  0  0  0  0  0
  -20.6450  -28.3860   23.2410 C   0  0  0  0  0  3  0  0  0  0  0  0
  -20.7920  -26.9640   22.6540 C   0  0  0  0  0  2  0  0  0  0  0  0
  -19.7110  -26.6210   21.6220 C   0  0  0  0  0  2  0  0  0  0  0  0
  -18.3180  -26.7220   22.2520 C   0  0  0  0  0  2  0  0  0  0  0  0
  -19.1890  -28.8470   23.3900 C   0  0  0  0  0  0  0  0  0  0  0  0
  -18.9280  -30.0960   23.9950 C   0  0  0  0  0  3  0  0  0  0  0  0
  -17.6070  -30.5560   24.1540 C   0  0  0  0  0  3  0  0  0  0  0  0
  -16.5290  -29.7660   23.7190 C   0  0  0  0  0  3  0  0  0  0  0  0
  -16.7750  -28.5190   23.1180 C   0  0  0  0  0  3  0  0  0  0  0  0
  -25.9150  -32.5890   23.9810 C   0  0  0  0  0  3  0  0  0  0  0  0
  -26.4060  -31.8320   25.2760 C   0  0  1  0  0  0  0  0  0  0  0  0
  -25.2930  -31.6070   26.3260 C   0  0  0  0  0  1  0  0  0  0  0  0
  -26.9950  -30.4490   24.9130 C   0  0  0  0  0  1  0  0  0  0  0  0
  -27.5440  -32.6310   25.9500 C   0  0  0  0  0  1  0  0  0  0  0  0
  -25.6130  -33.9950   24.2950 N   0  0  0  0  0  0  0  0  0  0  0  0
  -25.9200  -35.0370   23.5100 C   0  0  0  0  0  0  0  0  0  0  0  0
  -26.5530  -34.9170   22.4590 O   0  0  0  0  0  0  0  0  0  0  0  0
  -25.0450  -34.1630   25.1120 H   0  0  0  0  0  0  0  0  0  0  0  0
  -24.1630  -36.8150   23.2120 C   0  0  0  0  0  1  0  0  0  0  0  0
  -25.4490  -36.4340   23.9630 C   0  0  0  0  0  3  0  0  0  0  0  0
  -27.6130  -37.3600   24.6650 C   0  0  0  0  0  1  0  0  0  0  0  0
  -26.4670  -37.4900   23.7680 N   0  0  0  0  0  0  0  0  0  0  0  0
  -26.0620  -38.4120   23.9040 H   0  0  0  0  0  0  0  0  0  0  0  0
  -30.4140  -17.9060   19.9340 C   0  0  0  0  0  2  0  0  0  0  0  0
  -30.7540  -15.1950   19.8870 C   0  0  0  0  0  0  0  0  0  0  0  0
  -30.5990  -12.8280   19.0030 C   0  0  0  0  0  2  0  0  0  0  0  0
  -29.6070  -12.7510   17.8200 C   0  0  0  0  0  2  0  0  0  0  0  0
  -28.1700  -12.5380   18.3300 C   0  0  0  0  0  2  0  0  0  0  0  0
  -27.8120  -13.4830   19.5080 C   0  0  0  0  0  3  0  0  0  0  0  0
  -28.9220  -13.5330   20.5780 C   0  0  0  0  0  2  0  0  0  0  0  0
  -30.1560  -13.9380   19.8930 N   0  0  0  0  0  0  0  0  0  0  0  0
  -31.9410  -15.2540   19.5540 O   0  0  0  0  0  0  0  0  0  0  0  0
  -29.9940  -16.3880   20.0420 N   0  0  0  0  0  0  0  0  0  0  0  0
  -29.0210  -16.2310   20.2590 H   0  0  0  0  0  0  0  0  0  0  0  0
  -25.4880  -14.0520   20.4160 C   0  0  0  0  0  0  0  0  0  0  0  0
  -24.4430  -13.2710   20.8240 C   0  0  0  0  0  0  0  0  0  0  0  0
  -24.8910  -11.9190   20.7180 C   0  0  0  0  0  0  0  0  0  0  0  0
  -26.5060  -13.1750   20.0800 N   0  0  0  0  0  0  0  0  0  0  0  0
  -26.1600  -11.8850   20.3270 N   0  0  0  0  0  0  0  0  0  0  0  0
  -24.1660  -10.6550   20.9070 C   0  0  0  0  0  0  0  0  0  0  0  0
  -24.5740   -9.7050   21.8680 C   0  0  0  0  0  3  0  0  0  0  0  0
  -23.8470   -8.5080   22.0440 C   0  0  0  0  0  3  0  0  0  0  0  0
  -22.6970   -8.2530   21.2590 C   0  0  0  0  0  0  0  0  0  0  0  0
  -22.3090   -9.1930   20.2880 C   0  0  0  0  0  3  0  0  0  0  0  0
  -23.0370  -10.3800   20.1100 C   0  0  0  0  0  3  0  0  0  0  0  0
  -21.9440   -7.1070   21.3440 O   0  0  0  0  0  0  0  0  0  0  0  0
  -21.7680   -6.4480   22.5350 C   0  0  0  0  0  0  0  0  0  0  0  0
  -21.1450   -7.0650   23.6420 C   0  0  0  0  0  3  0  0  0  0  0  0
  -20.9210   -6.3290   24.8230 C   0  0  0  0  0  3  0  0  0  0  0  0
  -21.3070   -4.9780   24.8970 C   0  0  0  0  0  0  0  0  0  0  0  0
  -21.9230   -4.3610   23.7930 C   0  0  0  0  0  3  0  0  0  0  0  0
  -22.1490   -5.0930   22.6140 C   0  0  0  0  0  0  0  0  0  0  0  0
  -22.7220   -4.4880   21.5460 F   0  0  0  0  0  0  0  0  0  0  0  0
  -21.0860   -4.2690   26.0280 F   0  0  0  0  0  0  0  0  0  0  0  0
  -23.0690  -13.7490   21.1960 C   0  0  0  0  0  0  0  0  0  0  0  0
  -22.3900  -13.0300   22.0830 N   0  0  0  0  0  0  0  0  0  0  0  0
  -22.6100  -14.7920   20.7350 O   0  0  0  0  0  0  0  0  0  0  0  0
  -22.7760  -12.1850   22.4770 H   0  0  0  0  0  0  0  0  0  0  0  0
  -21.4710  -13.3310   22.3740 H   0  0  0  0  0  0  0  0  0  0  0  0
  -25.6510  -15.4270   20.2750 N   0  0  0  0  0  0  0  0  0  0  0  0
  -24.8940  -16.0770   20.4530 H   0  0  0  0  0  0  0  0  0  0  0  0
  -26.4680  -15.8720   19.8780 H   0  0  0  0  0  0  0  0  0  0  0  0
  2  1  1  0
  3  5  1  0
  3  4  1  0
  4  6  1  0
  4  1  1  0
  5 49  1  0
  5  2  1  0
  7  6  2  0
  7  8  1  0
  9 20  2  0
 10  8  1  0
 10 15  1  0
 11 19  1  0
 11 21  1  0
 12 18  1  0
 12 14  1  0
 13 19  1  0
 14 13  1  0
 15 14  2  0
 16 17  1  0
 16 10  2  0
 17 12  2  0
 18 11  1  0
 19  9  1  0
 21 23  2  0
 22 21  1  0
 24 22  1  0
 25 34  2  0
 25 30  1  0
 26 22  1  0
 26 30  1  0
 27 26  1  0
 28 29  1  0
 28 27  1  0
 29 25  1  0
 30 31  2  0
 31 32  1  0
 33 32  2  0
 34 33  1  0
 35  9  1  0
 35 40  1  0
 35 36  1  0
 36 39  1  1
 36 37  1  0
 38 36  1  0
 40 43  1  0
 41 45  1  0
 41 40  1  0
 42 41  2  0
 45 44  1  0
 47 48  1  0
 47 45  1  0
 47 46  1  0
 49 58  1  0
 50 56  1  0
 50 58  1  0
 51 56  1  0
 52 53  1  0
 52 51  1  0
 54 53  1  0
 54 63  1  0
 54 55  1  0
 56 55  1  0
 57 50  2  0
 58 59  1  0
 60 61  2  0
 61 80  1  0
 62 61  1  0
 62 65  1  0
 63 64  1  0
 63 60  1  0
 64 62  2  0
 65 66  1  0
 66 67  2  0
 68 71  1  0
 68 67  1  0
 69 68  2  0
 70 69  1  0
 70 65  2  0
 71 72  1  0
 72 77  2  0
 72 73  1  0
 73 74  2  0
 74 75  1  0
 75 79  1  0
 76 75  2  0
 77 76  1  0
 78 77  1  0
 80 81  1  0
 81 84  1  0
 81 83  1  0
 82 80  2  0
 85 60  1  0
 85 86  1  0
 87 85  1  0
M  ISO  4   7 101   8 101  50 100  58 100
M  END
>  <TORSDO>  (6) 
F 19

>  <SCORE>  (6) 
-13.863

>  <name>  (6) 
5

>  <ligand_id>  (6) 
5

>  <original_smiles>  (6) 
[H]c1c([H])c([H])c2c(c1[H])C([H])([H])C([H])([H])C([H])([H])C2([H])N([H])C(=O)C1([H])N(C(=O)C([H])(N([H])C(=O)C([H])(N([H])C([H])([H])[H])C([H])([H])[H])C(C([H])([H])[H])(C([H])([H])[H])C([H])([H])[H])C([H])([H])c2c([H])c(OC([H])([H])C([H])([H])C3([H])C([H])([H])C([H])([H])C([H])(C([H])([H])N([H])C(=O)N4C([H])([H])C([H])([H])C([H])([H])C([H])(n5nc(-c6c([H])c([H])c(Oc7c([H])c([H])c(F)c([H])c7F)c([H])c6[H])c(C(=O)N([H])[H])c5N([H])[H])C4([H])[H])C3([H])[H])c([H])c([H])c2C1([H])[H]

>  <smiles>  (6) 
[H]c1c([H])c([H])c2c(c1[H])C([H])([H])C([H])([H])C([H])([H])C2([H])N([H])C(=O)C1([H])N(C(=O)C([H])(N([H])C(=O)C([H])(N([H])C([H])([H])[H])C([H])([H])[H])C(C([H])([H])[H])(C([H])([H])[H])C([H])([H])[H])C([H])([H])c2c([H])c(OC([H])([H])C([H])([H])C3([H])C([H])([H])C([H])([H])C([H])(C([H])([H])N([H])C(=O)N4C([H])([H])C([H])([H])C([H])([H])C([H])(n5nc(-c6c([H])c([H])c(Oc7c([H])c([H])c(F)c([H])c7F)c([H])c6[H])c(C(=O)N([H])[H])c5N([H])[H])C4([H])[H])C3([H])[H])c([H])c([H])c2C1([H])[H]

$$$$
6:0:0
     RDKit          3D

 94103  0  0  1  0  0  0  0  0999 V2000
  -31.7840  -23.8320   20.5110 C   0  0  0  0  0  3  0  0  0  0  0  0
  -31.2860  -22.5130   20.4650 C   0  0  0  0  0  3  0  0  0  0  0  0
  -31.0080  -24.9060   20.0320 C   0  0  0  0  0  3  0  0  0  0  0  0
  -29.2260  -23.3420   19.4690 C   0  0  0  0  0  3  0  0  0  0  0  0
  -29.9960  -22.2540   19.9500 C   0  0  0  0  0  0  0  0  0  0  0  0
  -29.7220  -24.6690   19.5080 C   0  0  0  0  0  0  0  0  0  0  0  0
  -29.7860  -19.9550   21.1240 C   0  0  0  0  0  2  0  0  0  0  0  0
  -29.7770  -20.0590   18.6290 C   0  0  0  0  0  2  0  0  0  0  0  0
  -28.9690  -18.6460   21.1180 C   0  0  0  0  0  2  0  0  0  0  0  0
  -28.9930  -18.7260   18.5440 C   0  0  0  0  0  2  0  0  0  0  0  0
  -29.4170  -20.8330   19.9120 C   0  0  0  0  0  3  0  0  0  0  0  0
  -29.0930  -17.8250   19.8080 C   0  0  0  0  0  3  0  0  0  0  0  0
  -30.8520  -14.5200   19.6940 C   0  0  0  0  0  0  0  0  0  0  0  0
  -30.5220  -12.2410   18.8290 C   0  0  0  0  0  2  0  0  0  0  0  0
  -29.5010  -12.3200   17.6750 C   0  0  0  0  0  2  0  0  0  0  0  0
  -28.0580  -12.2290   18.2090 C   0  0  0  0  0  2  0  0  0  0  0  0
  -27.7900  -13.1960   19.3940 C   0  0  0  0  0  3  0  0  0  0  0  0
  -28.9170  -13.0850   20.4470 C   0  0  0  0  0  2  0  0  0  0  0  0
  -30.2010  -13.3270   19.7660 N   0  0  0  0  0  0  0  0  0  0  0  0
  -31.9880  -14.6200   19.2210 O   0  0  0  0  0  0  0  0  0  0  0  0
  -30.3210  -16.8890   19.7810 C   0  0  0  0  0  0  0  0  0  0  0  0
  -30.0640  -15.5760   19.9600 N   0  0  0  0  0  0  0  0  0  0  0  0
  -31.4430  -17.3690   19.5820 O   0  0  0  0  0  0  0  0  0  0  0  0
  -29.1170  -15.3440   20.2120 H   0  0  0  0  0  0  0  0  0  0  0  0
  -25.5000  -13.8890   20.3410 C   0  0  0  0  0  0  0  0  0  0  0  0
  -24.4360  -13.1530   20.7880 C   0  0  0  0  0  0  0  0  0  0  0  0
  -24.8280  -11.7840   20.6760 C   0  0  0  0  0  0  0  0  0  0  0  0
  -26.4740  -12.9690   19.9860 N   0  0  0  0  0  0  0  0  0  0  0  0
  -26.0800  -11.6980   20.2460 N   0  0  0  0  0  0  0  0  0  0  0  0
  -24.0650  -10.5470   20.8950 C   0  0  0  0  0  0  0  0  0  0  0  0
  -24.4710   -9.5880   21.8490 C   0  0  0  0  0  3  0  0  0  0  0  0
  -23.7090   -8.4180   22.0550 C   0  0  0  0  0  3  0  0  0  0  0  0
  -22.5310   -8.1970   21.3030 C   0  0  0  0  0  0  0  0  0  0  0  0
  -22.1440   -9.1450   20.3380 C   0  0  0  0  0  3  0  0  0  0  0  0
  -22.9070  -10.3070   20.1320 C   0  0  0  0  0  3  0  0  0  0  0  0
  -21.7450   -7.0760   21.4140 O   0  0  0  0  0  0  0  0  0  0  0  0
  -21.5800   -6.4300   22.6120 C   0  0  0  0  0  0  0  0  0  0  0  0
  -21.0450   -7.0810   23.7450 C   0  0  0  0  0  3  0  0  0  0  0  0
  -20.8230   -6.3590   24.9330 C   0  0  0  0  0  3  0  0  0  0  0  0
  -21.1330   -4.9870   24.9940 C   0  0  0  0  0  0  0  0  0  0  0  0
  -21.6650   -4.3360   23.8670 C   0  0  0  0  0  3  0  0  0  0  0  0
  -21.8860   -5.0560   22.6790 C   0  0  0  0  0  0  0  0  0  0  0  0
  -22.3740   -4.4170   21.5880 F   0  0  0  0  0  0  0  0  0  0  0  0
  -20.9190   -4.2910   26.1340 F   0  0  0  0  0  0  0  0  0  0  0  0
  -23.0930  -13.6820   21.1990 C   0  0  0  0  0  0  0  0  0  0  0  0
  -22.4120  -12.9920   22.1060 N   0  0  0  0  0  0  0  0  0  0  0  0
  -22.6590  -14.7420   20.7500 O   0  0  0  0  0  0  0  0  0  0  0  0
  -22.7770  -12.1320   22.4900 H   0  0  0  0  0  0  0  0  0  0  0  0
  -21.5130  -13.3290   22.4220 H   0  0  0  0  0  0  0  0  0  0  0  0
  -25.7090  -15.2560   20.1870 N   0  0  0  0  0  0  0  0  0  0  0  0
  -24.9710  -15.9260   20.3720 H   0  0  0  0  0  0  0  0  0  0  0  0
  -26.5100  -15.6670   19.7260 H   0  0  0  0  0  0  0  0  0  0  0  0
  -28.9010  -25.8230   18.9410 C   0  0  0  0  0  2  0  0  0  0  0  0
  -28.6000  -26.8310   19.9230 O   0  0  0  0  0  0  0  0  0  0  0  0
  -24.5620  -31.7540   23.1130 C   0  0  0  0  0  0  0  0  0  0  0  0
  -27.3860  -27.4980   19.8990 C   0  0  0  0  0  0  0  0  0  0  0  0
  -23.4190  -30.3710   21.4140 C   0  0  0  0  0  3  0  0  0  0  0  0
  -24.9350  -28.9300   19.9580 C   0  0  0  0  0  0  0  0  0  0  0  0
  -25.9370  -30.8090   21.2620 C   0  0  0  0  0  2  0  0  0  0  0  0
  -26.0710  -29.4640   20.5760 C   0  0  0  0  0  0  0  0  0  0  0  0
  -27.2920  -28.7510   20.5530 C   0  0  0  0  0  3  0  0  0  0  0  0
  -26.2160  -26.9760   19.2930 C   0  0  0  0  0  3  0  0  0  0  0  0
  -25.0020  -27.6830   19.3240 C   0  0  0  0  0  3  0  0  0  0  0  0
  -23.6650  -29.7480   20.0160 C   0  0  0  0  0  2  0  0  0  0  0  0
  -24.6570  -30.9890   21.9890 N   0  0  0  0  0  0  0  0  0  0  0  0
  -23.4660  -31.9750   23.6480 O   0  0  0  0  0  0  0  0  0  0  0  0
  -22.7900  -29.2970   22.3310 C   0  0  0  0  0  0  0  0  0  0  0  0
  -21.4710  -29.0920   22.1940 N   0  0  0  0  0  0  0  0  0  0  0  0
  -23.4860  -28.6540   23.1200 O   0  0  0  0  0  0  0  0  0  0  0  0
  -20.9690  -29.6620   21.5280 H   0  0  0  0  0  0  0  0  0  0  0  0
  -18.1160  -27.8340   22.6650 C   0  0  0  0  0  0  0  0  0  0  0  0
  -20.6740  -28.1070   22.9250 C   0  0  0  0  0  3  0  0  0  0  0  0
  -20.7860  -26.7080   22.2770 C   0  0  0  0  0  2  0  0  0  0  0  0
  -19.6770  -26.4240   21.2570 C   0  0  0  0  0  2  0  0  0  0  0  0
  -18.3010  -26.5210   21.9220 C   0  0  0  0  0  2  0  0  0  0  0  0
  -19.2320  -28.5850   23.1230 C   0  0  0  0  0  0  0  0  0  0  0  0
  -19.0070  -29.8160   23.7770 C   0  0  0  0  0  3  0  0  0  0  0  0
  -17.7000  -30.2970   23.9780 C   0  0  0  0  0  3  0  0  0  0  0  0
  -16.6000  -29.5410   23.5370 C   0  0  0  0  0  3  0  0  0  0  0  0
  -16.8090  -28.3120   22.8890 C   0  0  0  0  0  3  0  0  0  0  0  0
  -25.8200  -32.4030   23.7690 C   0  0  0  0  0  3  0  0  0  0  0  0
  -25.4730  -33.7870   24.1120 N   0  0  0  0  0  0  0  0  0  0  0  0
  -25.7900  -34.8570   23.3700 C   0  0  0  0  0  0  0  0  0  0  0  0
  -26.4780  -34.7850   22.3480 O   0  0  0  0  0  0  0  0  0  0  0  0
  -24.8620  -33.9170   24.9050 H   0  0  0  0  0  0  0  0  0  0  0  0
  -24.0170  -36.6040   23.0160 C   0  0  0  0  0  1  0  0  0  0  0  0
  -25.2600  -36.2250   23.8370 C   0  0  0  0  0  3  0  0  0  0  0  0
  -27.3560  -37.1590   24.7090 C   0  0  0  0  0  1  0  0  0  0  0  0
  -26.2630  -37.3080   23.7500 N   0  0  0  0  0  0  0  0  0  0  0  0
  -25.8300  -38.2140   23.9010 H   0  0  0  0  0  0  0  0  0  0  0  0
  -26.3310  -31.6220   25.0420 C   0  0  1  0  0  0  0  0  0  0  0  0
  -25.2240  -31.3400   26.0840 C   0  0  0  0  0  1  0  0  0  0  0  0
  -26.9540  -30.2670   24.6350 C   0  0  0  0  0  1  0  0  0  0  0  0
  -27.4480  -32.4330   25.7400 C   0  0  0  0  0  1  0  0  0  0  0  0
  2  1  1  0
  3  1  2  0
  4  6  2  0
  4  5  1  0
  5  2  2  0
  6  3  1  0
  8 11  1  0
  9  7  1  0
 10  8  1  0
 10 12  1  0
 11  5  1  0
 11  7  1  0
 12 21  1  0
 12  9  1  0
 13 19  1  0
 13 22  1  0
 14 19  1  0
 15 16  1  0
 15 14  1  0
 17 16  1  0
 17 28  1  0
 17 18  1  0
 19 18  1  0
 20 13  2  0
 21 22  1  0
 22 24  1  0
 23 21  2  0
 25 26  2  0
 26 45  1  0
 27 26  1  0
 27 30  1  0
 28 29  1  0
 28 25  1  0
 29 27  2  0
 30 31  1  0
 31 32  2  0
 33 36  1  0
 33 32  1  0
 34 33  2  0
 35 34  1  0
 35 30  2  0
 36 37  1  0
 37 42  2  0
 37 38  1  0
 38 39  2  0
 39 40  1  0
 40 44  1  0
 41 40  2  0
 42 41  1  0
 43 42  1  0
 45 46  1  0
 46 49  1  0
 46 48  1  0
 47 45  2  0
 50 25  1  0
 50 51  1  0
 52 50  1  0
 53  6  1  0
 53 54  1  0
 55 66  2  0
 56 54  1  0
 56 61  1  0
 57 65  1  0
 57 67  1  0
 58 64  1  0
 58 60  1  0
 59 65  1  0
 60 59  1  0
 61 60  2  0
 62 63  1  0
 62 56  2  0
 63 58  2  0
 64 57  1  0
 65 55  1  0
 67 69  2  0
 68 67  1  0
 70 68  1  0
 71 80  2  0
 71 76  1  0
 72 68  1  0
 72 76  1  0
 73 72  1  0
 74 75  1  0
 74 73  1  0
 75 71  1  0
 76 77  2  0
 77 78  1  0
 79 78  2  0
 80 79  1  0
 81 55  1  0
 81 82  1  0
 81 91  1  0
 82 85  1  0
 83 87  1  0
 83 82  1  0
 84 83  2  0
 87 86  1  0
 89 87  1  0
 89 90  1  0
 89 88  1  0
 91 94  1  1
 91 92  1  0
 93 91  1  0
M  ISO  4  13 100  22 100  53 101  54 101
M  END
>  <TORSDO>  (7) 
F 18

>  <SCORE>  (7) 
-13.692

>  <name>  (7) 
6

>  <ligand_id>  (7) 
6

>  <original_smiles>  (7) 
[H]c1c([H])c([H])c2c(c1[H])C([H])([H])C([H])([H])C([H])([H])C2([H])N([H])C(=O)C1([H])N(C(=O)C([H])(N([H])C(=O)C([H])(N([H])C([H])([H])[H])C([H])([H])[H])C(C([H])([H])[H])(C([H])([H])[H])C([H])([H])[H])C([H])([H])c2c([H])c(OC([H])([H])c3c([H])c([H])c([H])c(C4([H])C([H])([H])C([H])([H])C([H])(C(=O)N([H])C(=O)N5C([H])([H])C([H])([H])C([H])([H])C([H])(n6nc(-c7c([H])c([H])c(Oc8c([H])c([H])c(F)c([H])c8F)c([H])c7[H])c(C(=O)N([H])[H])c6N([H])[H])C5([H])[H])C([H])([H])C4([H])[H])c3[H])c([H])c([H])c2C1([H])[H]

>  <smiles>  (7) 
[H]c1c([H])c([H])c2c(c1[H])C([H])([H])C([H])([H])C([H])([H])C2([H])N([H])C(=O)C1([H])N(C(=O)C([H])(N([H])C(=O)C([H])(N([H])C([H])([H])[H])C([H])([H])[H])C(C([H])([H])[H])(C([H])([H])[H])C([H])([H])[H])C([H])([H])c2c([H])c(OC([H])([H])c3c([H])c([H])c([H])c(C4([H])C([H])([H])C([H])([H])C([H])(C(=O)N([H])C(=O)N5C([H])([H])C([H])([H])C([H])([H])C([H])(n6nc(-c7c([H])c([H])c(Oc8c([H])c([H])c(F)c([H])c8F)c([H])c7[H])c(C(=O)N([H])[H])c6N([H])[H])C5([H])[H])C([H])([H])C4([H])[H])c3[H])c([H])c([H])c2C1([H])[H]

$$$$
7:0:0
     RDKit          3D

 93101  0  0  1  0  0  0  0  0999 V2000
  -28.3260  -23.7660   21.8060 C   0  0  0  0  0  3  0  0  0  0  0  0
  -29.5640  -24.0670   21.3460 C   0  0  0  0  0  0  0  0  0  0  0  0
  -27.8440  -22.3930   22.0270 C   0  0  0  0  0  0  0  0  0  0  0  0
  -30.5770  -22.9660   21.0320 C   0  0  0  0  0  2  0  0  0  0  0  0
  -28.7800  -21.2500   21.6820 C   0  0  0  0  0  2  0  0  0  0  0  0
  -29.8610  -21.6510   20.6530 C   0  0  0  0  0  3  0  0  0  0  0  0
  -26.6830  -22.1840   22.4850 N   0  0  0  0  0  0  0  0  0  0  0  0
  -26.4880  -21.1940   22.5790 H   0  0  0  0  0  0  0  0  0  0  0  0
  -30.0440  -25.5030   21.0900 C   0  0  0  0  0  2  0  0  0  0  0  0
  -28.9440  -26.5700   21.2780 C   0  0  0  0  0  2  0  0  0  0  0  0
  -29.1750  -27.7990   20.5810 O   0  0  0  0  0  0  0  0  0  0  0  0
  -25.1350  -32.3010   24.2760 C   0  0  0  0  0  0  0  0  0  0  0  0
  -28.0320  -28.5590   20.5890 C   0  0  0  0  0  0  0  0  0  0  0  0
  -24.0360  -31.1750   22.3650 C   0  0  0  0  0  3  0  0  0  0  0  0
  -25.5910  -29.9580   20.7500 C   0  0  0  0  0  0  0  0  0  0  0  0
  -26.5490  -31.6400   22.3350 C   0  0  0  0  0  2  0  0  0  0  0  0
  -26.7070  -30.4080   21.4700 C   0  0  0  0  0  0  0  0  0  0  0  0
  -27.9330  -29.7140   21.3910 C   0  0  0  0  0  3  0  0  0  0  0  0
  -26.9100  -28.1230   19.8570 C   0  0  0  0  0  3  0  0  0  0  0  0
  -25.6860  -28.8140   19.9380 C   0  0  0  0  0  3  0  0  0  0  0  0
  -24.3160  -30.7550   20.8970 C   0  0  0  0  0  2  0  0  0  0  0  0
  -25.2550  -31.7080   23.0530 N   0  0  0  0  0  0  0  0  0  0  0  0
  -24.0280  -32.4500   24.8090 O   0  0  0  0  0  0  0  0  0  0  0  0
  -23.3830  -29.9860   23.1060 C   0  0  0  0  0  0  0  0  0  0  0  0
  -22.0900  -29.7490   22.8330 N   0  0  0  0  0  0  0  0  0  0  0  0
  -24.0400  -29.2850   23.8820 O   0  0  0  0  0  0  0  0  0  0  0  0
  -21.6220  -30.3730   22.1910 H   0  0  0  0  0  0  0  0  0  0  0  0
  -18.8040  -28.2510   22.7610 C   0  0  0  0  0  0  0  0  0  0  0  0
  -21.2780  -28.6630   23.3830 C   0  0  0  0  0  3  0  0  0  0  0  0
  -21.5760  -27.3270   22.6620 C   0  0  0  0  0  2  0  0  0  0  0  0
  -20.6340  -27.0520   21.4890 C   0  0  0  0  0  2  0  0  0  0  0  0
  -19.1780  -27.0120   21.9650 C   0  0  0  0  0  2  0  0  0  0  0  0
  -19.7920  -29.0340   23.4130 C   0  0  0  0  0  0  0  0  0  0  0  0
  -19.3940  -30.1960   24.1090 C   0  0  0  0  0  3  0  0  0  0  0  0
  -18.0390  -30.5730   24.1660 C   0  0  0  0  0  3  0  0  0  0  0  0
  -17.0630  -29.7840   23.5330 C   0  0  0  0  0  3  0  0  0  0  0  0
  -17.4460  -28.6250   22.8340 C   0  0  0  0  0  3  0  0  0  0  0  0
  -26.3800  -32.8430   25.0480 C   0  0  0  0  0  3  0  0  0  0  0  0
  -26.1090  -34.2460   25.3910 N   0  0  0  0  0  0  0  0  0  0  0  0
  -26.5750  -35.2990   24.7080 C   0  0  0  0  0  0  0  0  0  0  0  0
  -27.3490  -35.1900   23.7520 O   0  0  0  0  0  0  0  0  0  0  0  0
  -25.4390  -34.4100   26.1290 H   0  0  0  0  0  0  0  0  0  0  0  0
  -24.9890  -37.1920   24.2280 C   0  0  0  0  0  1  0  0  0  0  0  0
  -26.1090  -36.6980   25.1570 C   0  0  0  0  0  3  0  0  0  0  0  0
  -28.1910  -37.4290   26.2340 C   0  0  0  0  0  1  0  0  0  0  0  0
  -27.1990  -37.6970   25.1960 N   0  0  0  0  0  0  0  0  0  0  0  0
  -26.8250  -38.6290   25.3500 H   0  0  0  0  0  0  0  0  0  0  0  0
  -26.7250  -32.0060   26.3400 C   0  0  1  0  0  0  0  0  0  0  0  0
  -25.5040  -31.7410   27.2500 C   0  0  0  0  0  1  0  0  0  0  0  0
  -27.3360  -30.6380   25.9550 C   0  0  0  0  0  1  0  0  0  0  0  0
  -27.7930  -32.7480   27.1780 C   0  0  0  0  0  1  0  0  0  0  0  0
  -30.8040  -20.4830   20.2910 C   0  0  0  0  0  2  0  0  0  0  0  0
  -31.9400  -20.1780   21.2940 C   0  0  0  0  0  2  0  0  0  0  0  0
  -32.0260  -18.6800   21.6380 C   0  0  0  0  0  2  0  0  0  0  0  0
  -32.4600  -17.7980   20.4560 C   0  0  0  0  0  2  0  0  0  0  0  0
  -32.6180  -15.3560   20.0590 C   0  0  0  0  0  0  0  0  0  0  0  0
  -32.1900  -13.0930   19.1880 C   0  0  0  0  0  2  0  0  0  0  0  0
  -31.2820  -13.1830   17.9450 C   0  0  0  0  0  2  0  0  0  0  0  0
  -29.7960  -13.1930   18.3520 C   0  0  0  0  0  2  0  0  0  0  0  0
  -29.4890  -14.2240   19.4700 C   0  0  0  0  0  3  0  0  0  0  0  0
  -30.5060  -14.0960   20.6280 C   0  0  0  0  0  2  0  0  0  0  0  0
  -31.8670  -14.2240   20.0700 N   0  0  0  0  0  0  0  0  0  0  0  0
  -33.6950  -15.4540   19.4650 O   0  0  0  0  0  0  0  0  0  0  0  0
  -32.0640  -16.4100   20.6670 N   0  0  0  0  0  0  0  0  0  0  0  0
  -31.1910  -16.2410   21.1430 H   0  0  0  0  0  0  0  0  0  0  0  0
  -27.1780  -15.0940   20.2030 C   0  0  0  0  0  0  0  0  0  0  0  0
  -26.0240  -14.4450   20.5490 C   0  0  0  0  0  0  0  0  0  0  0  0
  -26.3180  -13.0490   20.4670 C   0  0  0  0  0  0  0  0  0  0  0  0
  -28.1100  -14.1020   19.9410 N   0  0  0  0  0  0  0  0  0  0  0  0
  -27.5930  -12.8650   20.1520 N   0  0  0  0  0  0  0  0  0  0  0  0
  -25.4440  -11.8780   20.6140 C   0  0  0  0  0  0  0  0  0  0  0  0
  -25.7440  -10.8430   21.5280 C   0  0  0  0  0  3  0  0  0  0  0  0
  -24.8800   -9.7360   21.6670 C   0  0  0  0  0  3  0  0  0  0  0  0
  -23.7000   -9.6550   20.8890 C   0  0  0  0  0  0  0  0  0  0  0  0
  -23.4180  -10.6770   19.9650 C   0  0  0  0  0  3  0  0  0  0  0  0
  -24.2810  -11.7760   19.8250 C   0  0  0  0  0  3  0  0  0  0  0  0
  -22.8150   -8.6060   20.9360 O   0  0  0  0  0  0  0  0  0  0  0  0
  -22.5720   -7.9200   22.1000 C   0  0  0  0  0  0  0  0  0  0  0  0
  -22.1150   -8.5710   23.2660 C   0  0  0  0  0  3  0  0  0  0  0  0
  -21.8120   -7.8200   24.4190 C   0  0  0  0  0  3  0  0  0  0  0  0
  -21.9560   -6.4200   24.4060 C   0  0  0  0  0  0  0  0  0  0  0  0
  -22.4070   -5.7700   23.2440 C   0  0  0  0  0  3  0  0  0  0  0  0
  -22.7120   -6.5180   22.0930 C   0  0  0  0  0  0  0  0  0  0  0  0
  -23.1260   -5.8830   20.9690 F   0  0  0  0  0  0  0  0  0  0  0  0
  -21.6590   -5.6960   25.5100 F   0  0  0  0  0  0  0  0  0  0  0  0
  -24.6940  -15.0770   20.8460 C   0  0  0  0  0  0  0  0  0  0  0  0
  -23.8860  -14.4390   21.6850 N   0  0  0  0  0  0  0  0  0  0  0  0
  -24.3850  -16.1680   20.3700 O   0  0  0  0  0  0  0  0  0  0  0  0
  -24.1480  -13.5540   22.0920 H   0  0  0  0  0  0  0  0  0  0  0  0
  -22.9920  -14.8450   21.9250 H   0  0  0  0  0  0  0  0  0  0  0  0
  -27.5060  -16.4410   20.0730 N   0  0  0  0  0  0  0  0  0  0  0  0
  -26.8240  -17.1790   20.2030 H   0  0  0  0  0  0  0  0  0  0  0  0
  -28.4100  -16.7840   19.7710 H   0  0  0  0  0  0  0  0  0  0  0  0
  1  3  1  0
  2  1  2  0
  3  7  2  0
  4  2  1  0
  5  3  1  0
  6 52  1  0
  6  4  1  0
  6  5  1  0
  7  8  1  0
  9 10  1  0
  9  2  1  0
 11 13  1  0
 11 10  1  0
 12 23  2  0
 13 18  1  0
 14 22  1  0
 14 24  1  0
 15 21  1  0
 15 17  1  0
 16 22  1  0
 17 16  1  0
 18 17  2  0
 19 20  1  0
 19 13  2  0
 20 15  2  0
 21 14  1  0
 22 12  1  0
 24 26  2  0
 25 24  1  0
 27 25  1  0
 28 37  2  0
 28 33  1  0
 29 25  1  0
 29 33  1  0
 30 29  1  0
 31 32  1  0
 31 30  1  0
 32 28  1  0
 33 34  2  0
 34 35  1  0
 36 35  2  0
 37 36  1  0
 38 12  1  0
 38 39  1  0
 38 48  1  0
 39 42  1  0
 40 44  1  0
 40 39  1  0
 41 40  2  0
 44 43  1  0
 44 46  1  0
 46 47  1  0
 46 45  1  0
 48 51  1  1
 48 49  1  0
 50 48  1  0
 52 53  1  0
 53 54  1  0
 55 64  1  0
 55 54  1  0
 56 62  1  0
 56 64  1  0
 57 62  1  0
 58 59  1  0
 58 57  1  0
 60 59  1  0
 60 69  1  0
 60 61  1  0
 62 61  1  0
 63 56  2  0
 64 65  1  0
 66 67  2  0
 67 86  1  0
 68 67  1  0
 68 71  1  0
 69 70  1  0
 69 66  1  0
 70 68  2  0
 71 72  1  0
 72 73  2  0
 74 77  1  0
 74 73  1  0
 75 74  2  0
 76 75  1  0
 76 71  2  0
 77 78  1  0
 78 79  1  0
 79 80  2  0
 81 80  1  0
 81 85  1  0
 82 81  2  0
 83 78  2  0
 83 82  1  0
 84 83  1  0
 86 87  1  0
 87 90  1  0
 87 89  1  0
 88 86  2  0
 91 66  1  0
 91 92  1  0
 93 91  1  0
M  ISO  4  10 101  11 101  56 100  64 100
M  END
>  <TORSDO>  (8) 
F 22

>  <SCORE>  (8) 
-6.417

>  <name>  (8) 
7

>  <ligand_id>  (8) 
7

>  <original_smiles>  (8) 
[H]N=C1C([H])=C(C([H])([H])C([H])([H])Oc2c([H])c([H])c3c(c2[H])C([H])([H])N(C(=O)C([H])(N([H])C(=O)C([H])(N([H])C([H])([H])[H])C([H])([H])[H])C(C([H])([H])[H])(C([H])([H])[H])C([H])([H])[H])C([H])(C(=O)N([H])C2([H])c4c([H])c([H])c([H])c([H])c4C([H])([H])C([H])([H])C2([H])[H])C3([H])[H])C([H])([H])C([H])(C([H])([H])C([H])([H])C([H])([H])C([H])([H])N([H])C(=O)N2C([H])([H])C([H])([H])C([H])([H])C([H])(n3nc(-c4c([H])c([H])c(Oc5c([H])c([H])c(F)c([H])c5F)c([H])c4[H])c(C(=O)N([H])[H])c3N([H])[H])C2([H])[H])C1([H])[H]

>  <smiles>  (8) 
[H]N=C1C([H])=C(C([H])([H])C([H])([H])Oc2c([H])c([H])c3c(c2[H])C([H])([H])N(C(=O)C([H])(N([H])C(=O)C([H])(N([H])C([H])([H])[H])C([H])([H])[H])C(C([H])([H])[H])(C([H])([H])[H])C([H])([H])[H])C([H])(C(=O)N([H])C2([H])c4c([H])c([H])c([H])c([H])c4C([H])([H])C([H])([H])C2([H])[H])C3([H])[H])C([H])([H])C([H])(C([H])([H])C([H])([H])C([H])([H])C([H])([H])N([H])C(=O)N2C([H])([H])C([H])([H])C([H])([H])C([H])(n3nc(-c4c([H])c([H])c(Oc5c([H])c([H])c(F)c([H])c5F)c([H])c4[H])c(C(=O)N([H])[H])c3N([H])[H])C2([H])[H])C1([H])[H]

$$$$
8:0:0
     RDKit          3D

 94103  0  0  1  0  0  0  0  0999 V2000
  -28.1500  -22.1430   20.9890 C   0  0  0  0  0  2  0  0  0  0  0  0
  -29.6880  -23.5060   22.3670 C   0  0  0  0  0  2  0  0  0  0  0  0
  -29.1140  -20.9500   21.0890 C   0  0  0  0  0  2  0  0  0  0  0  0
  -30.6530  -22.3070   22.4770 C   0  0  0  0  0  2  0  0  0  0  0  0
  -28.9200  -23.4690   21.0360 C   0  0  0  0  0  3  0  0  0  0  0  0
  -29.9770  -20.9880   22.3030 N   0  0  2  0  0  4  0  0  0  0  0  0
  -29.3770  -20.8640   23.1060 H   0  0  0  0  0  0  0  0  0  0  0  0
  -27.9840  -24.6730   20.8150 C   0  0  0  0  0  2  0  0  0  0  0  0
  -28.7060  -26.0340   20.8050 C   0  0  0  0  0  2  0  0  0  0  0  0
  -28.3340  -26.7870   19.6560 O   0  0  0  0  0  0  0  0  0  0  0  0
  -24.5490  -31.6480   23.2040 C   0  0  0  0  0  0  0  0  0  0  0  0
  -27.1570  -27.4760   19.7790 C   0  0  0  0  0  0  0  0  0  0  0  0
  -23.3150  -30.3510   21.4940 C   0  0  0  0  0  3  0  0  0  0  0  0
  -24.7480  -28.9230   19.9400 C   0  0  0  0  0  0  0  0  0  0  0  0
  -25.8270  -30.7500   21.2680 C   0  0  0  0  0  2  0  0  0  0  0  0
  -25.9100  -29.4260   20.5420 C   0  0  0  0  0  0  0  0  0  0  0  0
  -27.1190  -28.7050   20.4650 C   0  0  0  0  0  3  0  0  0  0  0  0
  -25.9890  -26.9780   19.1700 C   0  0  0  0  0  3  0  0  0  0  0  0
  -24.7800  -27.6950   19.2530 C   0  0  0  0  0  3  0  0  0  0  0  0
  -23.4980  -29.7640   20.0680 C   0  0  0  0  0  2  0  0  0  0  0  0
  -24.5820  -30.9260   22.0480 N   0  0  0  0  0  0  0  0  0  0  0  0
  -23.4790  -31.8770   23.7820 O   0  0  0  0  0  0  0  0  0  0  0  0
  -22.6910  -29.2640   22.3970 C   0  0  0  0  0  0  0  0  0  0  0  0
  -21.3680  -29.0760   22.2760 N   0  0  0  0  0  0  0  0  0  0  0  0
  -23.3940  -28.5960   23.1590 O   0  0  0  0  0  0  0  0  0  0  0  0
  -20.8610  -29.6700   21.6350 H   0  0  0  0  0  0  0  0  0  0  0  0
  -18.0180  -27.7980   22.7190 C   0  0  0  0  0  0  0  0  0  0  0  0
  -20.5720  -28.0820   22.9940 C   0  0  0  0  0  3  0  0  0  0  0  0
  -20.6960  -26.6880   22.3370 C   0  0  0  0  0  2  0  0  0  0  0  0
  -19.5940  -26.4040   21.3110 C   0  0  0  0  0  2  0  0  0  0  0  0
  -18.2130  -26.4920   21.9680 C   0  0  0  0  0  2  0  0  0  0  0  0
  -19.1260  -28.5520   23.1870 C   0  0  0  0  0  0  0  0  0  0  0  0
  -18.8920  -29.7760   23.8490 C   0  0  0  0  0  3  0  0  0  0  0  0
  -17.5810  -30.2490   24.0440 C   0  0  0  0  0  3  0  0  0  0  0  0
  -16.4870  -29.4910   23.5930 C   0  0  0  0  0  3  0  0  0  0  0  0
  -16.7060  -28.2660   22.9380 C   0  0  0  0  0  3  0  0  0  0  0  0
  -25.8470  -32.2420   23.8360 C   0  0  0  0  0  3  0  0  0  0  0  0
  -26.3370  -31.4510   25.1110 C   0  0  1  0  0  0  0  0  0  0  0  0
  -25.2380  -31.2510   26.1780 C   0  0  0  0  0  1  0  0  0  0  0  0
  -26.8700  -30.0530   24.7160 C   0  0  0  0  0  1  0  0  0  0  0  0
  -27.5170  -32.2020   25.7740 C   0  0  0  0  0  1  0  0  0  0  0  0
  -25.5740  -33.6450   24.1670 N   0  0  0  0  0  0  0  0  0  0  0  0
  -25.9970  -34.6920   23.4450 C   0  0  0  0  0  0  0  0  0  0  0  0
  -26.7270  -34.5730   22.4570 O   0  0  0  0  0  0  0  0  0  0  0  0
  -24.9390  -33.8150   24.9320 H   0  0  0  0  0  0  0  0  0  0  0  0
  -24.4040  -36.5770   22.9690 C   0  0  0  0  0  1  0  0  0  0  0  0
  -25.5350  -36.0930   23.8890 C   0  0  0  0  0  3  0  0  0  0  0  0
  -27.6150  -36.8460   24.9570 C   0  0  0  0  0  1  0  0  0  0  0  0
  -26.6250  -37.0920   23.9100 N   0  0  0  0  0  0  0  0  0  0  0  0
  -26.2530  -38.0280   24.0400 H   0  0  0  0  0  0  0  0  0  0  0  0
  -30.9770  -19.8820   22.3370 C   0  0  0  0  0  2  0  0  0  0  0  0
  -30.3950  -18.4600   22.5520 C   0  0  0  0  0  2  0  0  0  0  0  0
  -31.6720  -13.9100   19.2950 C   0  0  0  0  0  0  0  0  0  0  0  0
  -30.9120  -11.7790   18.3220 C   0  0  0  0  0  2  0  0  0  0  0  0
  -29.8490  -12.0030   17.2280 C   0  0  0  0  0  2  0  0  0  0  0  0
  -28.4420  -12.0360   17.8520 C   0  0  0  0  0  2  0  0  0  0  0  0
  -28.3550  -12.9990   19.0640 C   0  0  0  0  0  3  0  0  0  0  0  0
  -29.5220  -12.7760   20.0480 C   0  0  0  0  0  2  0  0  0  0  0  0
  -30.7980  -12.8650   19.3110 N   0  0  0  0  0  0  0  0  0  0  0  0
  -32.6000  -13.9690   18.4790 O   0  0  0  0  0  0  0  0  0  0  0  0
  -31.1180  -17.4260   20.3190 C   0  0  0  0  0  2  0  0  0  0  0  0
  -30.7650  -15.9210   22.2940 C   0  0  0  0  0  2  0  0  0  0  0  0
  -31.8850  -16.2870   19.6410 C   0  0  0  0  0  2  0  0  0  0  0  0
  -31.5890  -14.8390   21.5630 C   0  0  0  0  0  2  0  0  0  0  0  0
  -31.1970  -17.3350   21.8520 C   0  0  0  0  0  3  0  0  0  0  0  0
  -31.4270  -14.9670   20.1070 N   0  0  0  0  0  0  0  0  0  0  0  0
  -26.2160  -13.8950   20.1820 C   0  0  0  0  0  0  0  0  0  0  0  0
  -25.1070  -13.2610   20.6760 C   0  0  0  0  0  0  0  0  0  0  0  0
  -25.3400  -11.8640   20.4990 C   0  0  0  0  0  0  0  0  0  0  0  0
  -27.0620  -12.8910   19.7380 N   0  0  0  0  0  0  0  0  0  0  0  0
  -26.5450  -11.6580   19.9840 N   0  0  0  0  0  0  0  0  0  0  0  0
  -24.4600  -10.7110   20.7360 C   0  0  0  0  0  0  0  0  0  0  0  0
  -24.8490   -9.6450   21.5770 C   0  0  0  0  0  3  0  0  0  0  0  0
  -23.9780   -8.5570   21.8040 C   0  0  0  0  0  3  0  0  0  0  0  0
  -22.7040   -8.5290   21.1900 C   0  0  0  0  0  0  0  0  0  0  0  0
  -22.3300   -9.5820   20.3360 C   0  0  0  0  0  3  0  0  0  0  0  0
  -23.2000  -10.6610   20.1080 C   0  0  0  0  0  3  0  0  0  0  0  0
  -21.8020   -7.5010   21.3310 O   0  0  0  0  0  0  0  0  0  0  0  0
  -21.7040   -6.7850   22.4980 C   0  0  0  0  0  0  0  0  0  0  0  0
  -21.4550   -7.4120   23.7390 C   0  0  0  0  0  3  0  0  0  0  0  0
  -21.2920   -6.6330   24.9010 C   0  0  0  0  0  3  0  0  0  0  0  0
  -21.3670   -5.2290   24.8250 C   0  0  0  0  0  0  0  0  0  0  0  0
  -21.6070   -4.6020   23.5900 C   0  0  0  0  0  3  0  0  0  0  0  0
  -21.7720   -5.3790   22.4290 C   0  0  0  0  0  0  0  0  0  0  0  0
  -21.9830   -4.7690   21.2370 F   0  0  0  0  0  0  0  0  0  0  0  0
  -21.2020   -4.4800   25.9400 F   0  0  0  0  0  0  0  0  0  0  0  0
  -23.8600  -13.9170   21.1960 C   0  0  0  0  0  0  0  0  0  0  0  0
  -23.2380  -13.3300   22.2130 N   0  0  0  0  0  0  0  0  0  0  0  0
  -23.4550  -14.9820   20.7320 O   0  0  0  0  0  0  0  0  0  0  0  0
  -23.5800  -12.4660   22.6080 H   0  0  0  0  0  0  0  0  0  0  0  0
  -22.4060  -13.7500   22.6040 H   0  0  0  0  0  0  0  0  0  0  0  0
  -26.5670  -15.2350   20.0560 N   0  0  0  0  0  0  0  0  0  0  0  0
  -25.9440  -15.9870   20.3250 H   0  0  0  0  0  0  0  0  0  0  0  0
  -27.4320  -15.5640   19.6450 H   0  0  0  0  0  0  0  0  0  0  0  0
  1  5  1  0
  1  3  1  0
  2  4  1  0
  3  6  1  0
  5  8  1  0
  5  2  1  0
  6 51  1  0
  6  4  1  0
  6  7  1  1
  9  8  1  0
 10 12  1  0
 10  9  1  0
 11 22  2  0
 12 17  1  0
 13 21  1  0
 13 23  1  0
 14 20  1  0
 14 16  1  0
 15 21  1  0
 16 15  1  0
 17 16  2  0
 18 19  1  0
 18 12  2  0
 19 14  2  0
 20 13  1  0
 21 11  1  0
 23 25  2  0
 24 23  1  0
 26 24  1  0
 27 36  2  0
 27 32  1  0
 28 24  1  0
 28 32  1  0
 29 28  1  0
 30 31  1  0
 30 29  1  0
 31 27  1  0
 32 33  2  0
 33 34  1  0
 35 34  2  0
 36 35  1  0
 37 11  1  0
 37 42  1  0
 37 38  1  0
 38 41  1  1
 38 39  1  0
 40 38  1  0
 42 45  1  0
 43 47  1  0
 43 42  1  0
 44 43  2  0
 47 46  1  0
 47 49  1  0
 49 50  1  0
 49 48  1  0
 51 52  1  0
 53 59  1  0
 53 66  1  0
 54 59  1  0
 55 56  1  0
 55 54  1  0
 57 56  1  0
 57 70  1  0
 57 58  1  0
 59 58  1  0
 60 53  2  0
 61 65  1  0
 63 66  1  0
 63 61  1  0
 64 62  1  0
 65 62  1  0
 65 52  1  0
 66 64  1  0
 67 68  2  0
 68 87  1  0
 69 68  1  0
 69 72  1  0
 70 71  1  0
 70 67  1  0
 71 69  2  0
 72 73  1  0
 73 74  2  0
 75 78  1  0
 75 74  1  0
 76 75  2  0
 77 76  1  0
 77 72  2  0
 78 79  1  0
 79 80  1  0
 80 81  2  0
 82 81  1  0
 82 86  1  0
 83 82  2  0
 84 79  2  0
 84 83  1  0
 85 84  1  0
 87 88  1  0
 88 91  1  0
 88 90  1  0
 89 87  2  0
 92 67  1  0
 92 93  1  0
 94 92  1  0
M  ISO  4   9 101  10 101  53 100  66 100
M  END
>  <TORSDO>  (9) 
F 20

>  <SCORE>  (9) 
-11.703

>  <name>  (9) 
8

>  <ligand_id>  (9) 
8

>  <original_smiles>  (9) 
[H]c1c([H])c([H])c2c(c1[H])C([H])([H])C([H])([H])C([H])([H])C2([H])N([H])C(=O)C1([H])N(C(=O)C([H])(N([H])C(=O)C([H])(N([H])C([H])([H])[H])C([H])([H])[H])C(C([H])([H])[H])(C([H])([H])[H])C([H])([H])[H])C([H])([H])c2c([H])c(OC([H])([H])C([H])([H])C3([H])C([H])([H])C([H])([H])[N+]([H])(C([H])([H])C([H])([H])C4([H])C([H])([H])C([H])([H])N(C(=O)N5C([H])([H])C([H])([H])C([H])([H])C([H])(n6nc(-c7c([H])c([H])c(Oc8c([H])c([H])c(F)c([H])c8F)c([H])c7[H])c(C(=O)N([H])[H])c6N([H])[H])C5([H])[H])C([H])([H])C4([H])[H])C([H])([H])C3([H])[H])c([H])c([H])c2C1([H])[H]

>  <smiles>  (9) 
[H]c1c([H])c([H])c2c(c1[H])C([H])([H])C([H])([H])C([H])([H])C2([H])N([H])C(=O)C1([H])N(C(=O)C([H])(N([H])C(=O)C([H])(N([H])C([H])([H])[H])C([H])([H])[H])C(C([H])([H])[H])(C([H])([H])[H])C([H])([H])[H])C([H])([H])c2c([H])c(OC([H])([H])C([H])([H])C3([H])C([H])([H])C([H])([H])[N+]([H])(C([H])([H])C([H])([H])C4([H])C([H])([H])C([H])([H])N(C(=O)N5C([H])([H])C([H])([H])C([H])([H])C([H])(n6nc(-c7c([H])c([H])c(Oc8c([H])c([H])c(F)c([H])c8F)c([H])c7[H])c(C(=O)N([H])[H])c6N([H])[H])C5([H])[H])C([H])([H])C4([H])[H])C([H])([H])C3([H])[H])c([H])c([H])c2C1([H])[H]

$$$$
9:0:0
     RDKit          3D

 94102  0  0  1  0  0  0  0  0999 V2000
  -29.7960  -18.1370   20.0200 C   0  0  0  0  0  3  0  0  0  0  0  0
  -30.9070  -15.3560   20.0740 C   0  0  0  0  0  0  0  0  0  0  0  0
  -30.7330  -12.9430   19.1650 C   0  0  0  0  0  2  0  0  0  0  0  0
  -29.8040  -12.8840   17.9230 C   0  0  0  0  0  2  0  0  0  0  0  0
  -28.3370  -12.7040   18.3470 C   0  0  0  0  0  2  0  0  0  0  0  0
  -27.9570  -13.6400   19.5220 C   0  0  0  0  0  3  0  0  0  0  0  0
  -29.0120  -13.6540   20.6550 C   0  0  0  0  0  2  0  0  0  0  0  0
  -30.2910  -14.0760   20.0620 N   0  0  0  0  0  0  0  0  0  0  0  0
  -32.0650  -15.3510   19.6380 O   0  0  0  0  0  0  0  0  0  0  0  0
  -30.2420  -16.6000   20.4890 N   0  0  0  0  0  0  0  0  0  0  0  0
  -29.5410  -16.2970   21.1490 H   0  0  0  0  0  0  0  0  0  0  0  0
  -25.6150  -14.3120   20.2770 C   0  0  0  0  0  0  0  0  0  0  0  0
  -24.5110  -13.5950   20.6380 C   0  0  0  0  0  0  0  0  0  0  0  0
  -24.8950  -12.2210   20.5600 C   0  0  0  0  0  0  0  0  0  0  0  0
  -26.6080  -13.3870   20.0150 N   0  0  0  0  0  0  0  0  0  0  0  0
  -26.1830  -12.1160   20.2440 N   0  0  0  0  0  0  0  0  0  0  0  0
  -24.0860  -11.0020   20.7070 C   0  0  0  0  0  0  0  0  0  0  0  0
  -24.5430   -9.8980   21.4610 C   0  0  0  0  0  3  0  0  0  0  0  0
  -23.7380   -8.7490   21.6080 C   0  0  0  0  0  3  0  0  0  0  0  0
  -22.4590   -8.6970   21.0030 C   0  0  0  0  0  0  0  0  0  0  0  0
  -22.0170   -9.7890   20.2350 C   0  0  0  0  0  3  0  0  0  0  0  0
  -22.8230  -10.9300   20.0850 C   0  0  0  0  0  3  0  0  0  0  0  0
  -21.6200   -7.6110   21.0680 O   0  0  0  0  0  0  0  0  0  0  0  0
  -21.7960   -6.6200   21.9990 C   0  0  0  0  0  0  0  0  0  0  0  0
  -21.8040   -6.8920   23.3850 C   0  0  0  0  0  3  0  0  0  0  0  0
  -21.9210   -5.8370   24.3110 C   0  0  0  0  0  3  0  0  0  0  0  0
  -22.0230   -4.5100   23.8530 C   0  0  0  0  0  0  0  0  0  0  0  0
  -22.0110   -4.2350   22.4740 C   0  0  0  0  0  3  0  0  0  0  0  0
  -21.8970   -5.2880   21.5500 C   0  0  0  0  0  0  0  0  0  0  0  0
  -21.8650   -5.0180   20.2230 F   0  0  0  0  0  0  0  0  0  0  0  0
  -22.1270   -3.4920   24.7400 F   0  0  0  0  0  0  0  0  0  0  0  0
  -23.1500  -14.1540   20.9290 C   0  0  0  0  0  0  0  0  0  0  0  0
  -22.4210  -13.5390   21.8520 N   0  0  0  0  0  0  0  0  0  0  0  0
  -22.7450  -15.1750   20.3740 O   0  0  0  0  0  0  0  0  0  0  0  0
  -22.7650  -12.7180   22.3280 H   0  0  0  0  0  0  0  0  0  0  0  0
  -21.5080  -13.8980   22.0900 H   0  0  0  0  0  0  0  0  0  0  0  0
  -25.8420  -15.6700   20.1170 N   0  0  0  0  0  0  0  0  0  0  0  0
  -25.0920  -16.3430   20.2170 H   0  0  0  0  0  0  0  0  0  0  0  0
  -26.6890  -16.0680   19.7360 H   0  0  0  0  0  0  0  0  0  0  0  0
  -28.2550  -17.9520   19.9730 C   0  0  0  0  0  2  0  0  0  0  0  0
  -27.5210  -18.0820   18.6170 C   0  0  0  0  0  2  0  0  0  0  0  0
  -27.5530  -20.3520   17.5240 C   0  0  0  0  0  3  0  0  0  0  0  0
  -26.9780  -19.4940   18.3920 C   0  0  0  0  0  0  0  0  0  0  0  0
  -27.0680  -21.7310   17.3020 C   0  0  0  0  0  0  0  0  0  0  0  0
  -25.7410  -19.8960   19.1870 C   0  0  0  0  0  2  0  0  0  0  0  0
  -25.9170  -22.2360   18.1650 C   0  0  0  0  0  2  0  0  0  0  0  0
  -25.7130  -21.4090   19.4460 C   0  0  0  0  0  2  0  0  0  0  0  0
  -27.5980  -22.4710   16.4250 N   0  0  0  0  0  0  0  0  0  0  0  0
  -28.3470  -22.0010   15.9300 H   0  0  0  0  0  0  0  0  0  0  0  0
  -29.9660  -19.7760   20.7100 C   0  0  0  0  0  3  0  0  0  0  0  0
  -29.0100  -21.2660   20.4300 C   0  0  0  0  0  3  0  0  0  0  0  0
  -29.2500  -23.0170   20.6630 C   0  0  0  0  0  3  0  0  0  0  0  0
  -28.1550  -24.4130   20.4930 C   0  0  0  0  0  3  0  0  0  0  0  0
  -28.3570  -26.0300   20.5040 O   0  0  0  0  0  0  0  0  0  0  0  0
  -24.5010  -31.8090   23.3400 C   0  0  0  0  0  0  0  0  0  0  0  0
  -27.3020  -27.0630   20.3970 C   0  0  0  0  0  0  0  0  0  0  0  0
  -23.4000  -30.3880   21.6540 C   0  0  0  0  0  3  0  0  0  0  0  0
  -24.9420  -28.8390   20.2720 C   0  0  0  0  0  0  0  0  0  0  0  0
  -25.9570  -30.6900   21.5880 C   0  0  0  0  0  2  0  0  0  0  0  0
  -26.0930  -29.2890   20.9320 C   0  0  0  0  0  0  0  0  0  0  0  0
  -27.2680  -28.4220   20.9700 C   0  0  0  0  0  3  0  0  0  0  0  0
  -26.1190  -26.7500   19.6920 C   0  0  0  0  0  3  0  0  0  0  0  0
  -24.9770  -27.5890   19.6330 C   0  0  0  0  0  3  0  0  0  0  0  0
  -23.6930  -29.7180   20.2830 C   0  0  0  0  0  2  0  0  0  0  0  0
  -24.6370  -30.9890   22.2480 N   0  0  0  0  0  0  0  0  0  0  0  0
  -23.3870  -32.0660   23.8270 O   0  0  0  0  0  0  0  0  0  0  0  0
  -22.7040  -29.3690   22.5930 C   0  0  0  0  0  0  0  0  0  0  0  0
  -21.3800  -29.1830   22.4340 N   0  0  0  0  0  0  0  0  0  0  0  0
  -23.3620  -28.7460   23.4300 O   0  0  0  0  0  0  0  0  0  0  0  0
  -20.9020  -29.7410   21.7400 H   0  0  0  0  0  0  0  0  0  0  0  0
  -18.0360  -27.8160   22.7530 C   0  0  0  0  0  0  0  0  0  0  0  0
  -20.5560  -28.2210   23.1740 C   0  0  0  0  0  3  0  0  0  0  0  0
  -20.7670  -26.7830   22.6440 C   0  0  0  0  0  2  0  0  0  0  0  0
  -19.7520  -26.3820   21.5680 C   0  0  0  0  0  2  0  0  0  0  0  0
  -18.3250  -26.4660   22.1190 C   0  0  0  0  0  2  0  0  0  0  0  0
  -19.0840  -28.6470   23.2330 C   0  0  0  0  0  0  0  0  0  0  0  0
  -18.7590  -29.9060   23.7840 C   0  0  0  0  0  3  0  0  0  0  0  0
  -17.4210  -30.3370   23.8570 C   0  0  0  0  0  3  0  0  0  0  0  0
  -16.3870  -29.5050   23.3930 C   0  0  0  0  0  3  0  0  0  0  0  0
  -16.6960  -28.2450   22.8460 C   0  0  0  0  0  3  0  0  0  0  0  0
  -25.7340  -32.4800   24.0190 C   0  0  0  0  0  3  0  0  0  0  0  0
  -25.4130  -33.9020   24.2340 N   0  0  0  0  0  0  0  0  0  0  0  0
  -25.9750  -34.9250   23.5740 C   0  0  0  0  0  0  0  0  0  0  0  0
  -26.8770  -34.7680   22.7490 O   0  0  0  0  0  0  0  0  0  0  0  0
  -24.6410  -34.1000   24.8540 H   0  0  0  0  0  0  0  0  0  0  0  0
  -24.5550  -36.8260   22.7350 C   0  0  0  0  0  1  0  0  0  0  0  0
  -25.4590  -36.3460   23.8820 C   0  0  0  0  0  3  0  0  0  0  0  0
  -27.2820  -37.1040   25.3420 C   0  0  0  0  0  1  0  0  0  0  0  0
  -26.5390  -37.3310   24.1050 N   0  0  0  0  0  0  0  0  0  0  0  0
  -26.1670  -38.2760   24.1260 H   0  0  0  0  0  0  0  0  0  0  0  0
  -26.1340  -31.8000   25.3860 C   0  0  1  0  0  0  0  0  0  0  0  0
  -24.9570  -31.6530   26.3790 C   0  0  0  0  0  1  0  0  0  0  0  0
  -26.7240  -30.3900   25.1480 C   0  0  0  0  0  1  0  0  0  0  0  0
  -27.2410  -32.6290   26.0790 C   0  0  0  0  0  1  0  0  0  0  0  0
  1 40  1  0
  1 10  1  0
  1 50  1  0
  2 10  1  0
  3  8  1  0
  4  5  1  0
  4  3  1  0
  6  5  1  0
  6 15  1  0
  6  7  1  0
  8  2  1  0
  8  7  1  0
  9  2  2  0
 10 11  1  0
 12 13  2  0
 13 32  1  0
 14 13  1  0
 14 17  1  0
 15 16  1  0
 15 12  1  0
 16 14  2  0
 17 18  1  0
 18 19  2  0
 20 23  1  0
 20 19  1  0
 21 20  2  0
 22 21  1  0
 22 17  2  0
 23 24  1  0
 24 25  1  0
 25 26  2  0
 27 26  1  0
 27 31  1  0
 28 27  2  0
 29 24  2  0
 29 28  1  0
 30 29  1  0
 32 33  1  0
 33 36  1  0
 33 35  1  0
 34 32  2  0
 37 38  1  0
 37 12  1  0
 39 37  1  0
 41 40  1  0
 42 43  2  0
 43 41  1  0
 43 45  1  0
 44 42  1  0
 44 46  1  0
 45 47  1  0
 46 47  1  0
 48 44  2  0
 49 48  1  0
 51 52  1  0
 51 50  2  0
 53 54  1  0
 53 52  2  0
 55 66  2  0
 56 54  1  0
 56 61  1  0
 57 65  1  0
 57 67  1  0
 58 64  1  0
 58 60  1  0
 59 65  1  0
 60 61  2  0
 60 59  1  0
 62 56  2  0
 63 62  1  0
 63 58  2  0
 64 57  1  0
 65 55  1  0
 67 69  2  0
 68 67  1  0
 70 68  1  0
 71 80  2  0
 71 76  1  0
 72 68  1  0
 72 76  1  0
 73 72  1  0
 74 75  1  0
 74 73  1  0
 75 71  1  0
 76 77  2  0
 77 78  1  0
 79 78  2  0
 80 79  1  0
 81 55  1  0
 81 82  1  0
 81 91  1  0
 82 85  1  0
 83 87  1  0
 83 82  1  0
 84 83  2  0
 87 86  1  0
 87 89  1  0
 89 90  1  0
 89 88  1  0
 91 94  1  1
 91 92  1  0
 93 91  1  0
M  ISO  4   2 100  10 100  53 101  54 101
M  END
>  <TORSDO>  (10) 
F 23

>  <SCORE>  (10) 
-10.520

>  <name>  (10) 
9

>  <ligand_id>  (10) 
9

>  <original_smiles>  (10) 
[H]N=C1C([H])=C(C([H])([H])C([H])([H])C([H])(N([H])C(=O)N2C([H])([H])C([H])([H])C([H])([H])C([H])(n3nc(-c4c([H])c([H])c(Oc5c([H])c([H])c(F)c([H])c5F)c([H])c4[H])c(C(=O)N([H])[H])c3N([H])[H])C2([H])[H])C([H])([H])C([H])([H])C([H])([H])C([H])([H])Oc2c([H])c([H])c3c(c2[H])C([H])([H])N(C(=O)C([H])(N([H])C(=O)C([H])(N([H])C([H])([H])[H])C([H])([H])[H])C(C([H])([H])[H])(C([H])([H])[H])C([H])([H])[H])C([H])(C(=O)N([H])C2([H])c4c([H])c([H])c([H])c([H])c4C([H])([H])C([H])([H])C2([H])[H])C3([H])[H])C([H])([H])C([H])([H])C1([H])[H]

>  <smiles>  (10) 
[H]N=C1C([H])=C(C([H])([H])C([H])([H])C([H])(N([H])C(=O)N2C([H])([H])C([H])([H])C([H])([H])C([H])(n3nc(-c4c([H])c([H])c(Oc5c([H])c([H])c(F)c([H])c5F)c([H])c4[H])c(C(=O)N([H])[H])c3N([H])[H])C2([H])[H])C([H])([H])C([H])([H])C([H])([H])C([H])([H])Oc2c([H])c([H])c3c(c2[H])C([H])([H])N(C(=O)C([H])(N([H])C(=O)C([H])(N([H])C([H])([H])[H])C([H])([H])[H])C(C([H])([H])[H])(C([H])([H])[H])C([H])([H])[H])C([H])(C(=O)N([H])C2([H])c4c([H])c([H])c([H])c([H])c4C([H])([H])C([H])([H])C2([H])[H])C3([H])[H])C([H])([H])C([H])([H])C1([H])[H]

$$$$
10:0:0
     RDKit          3D

 95103  0  0  1  0  0  0  0  0999 V2000
  -29.4700  -20.3020   21.6400 C   0  0  0  0  0  0  0  0  0  0  0  0
  -31.3250  -21.3480   20.5460 C   0  0  0  0  0  2  0  0  0  0  0  0
  -29.7860  -21.3680   20.5940 C   0  0  0  0  0  3  0  0  0  0  0  0
  -30.6960  -19.4370   21.9360 C   0  0  0  0  0  3  0  0  0  0  0  0
  -31.8040  -20.1600   21.2760 N   0  0  0  0  0  4  0  0  0  0  0  0
  -28.3750  -20.1810   22.1990 O   0  0  0  0  0  0  0  0  0  0  0  0
  -32.4750  -20.4490   21.9690 H   0  0  0  0  0  0  0  0  0  0  0  0
  -32.2720  -19.5510   20.6270 H   0  0  0  0  0  0  0  0  0  0  0  0
  -29.2160  -22.7020   20.9070 N   0  0  0  0  0  0  0  0  0  0  0  0
  -29.7070  -23.1380   21.6810 H   0  0  0  0  0  0  0  0  0  0  0  0
  -29.2430  -23.5830   19.7400 C   0  0  0  0  0  2  0  0  0  0  0  0
  -28.8110  -25.0060   20.1330 C   0  0  0  0  0  2  0  0  0  0  0  0
  -28.9760  -26.0110   18.9770 C   0  0  0  0  0  2  0  0  0  0  0  0
  -28.8190  -27.3470   19.4540 O   0  0  0  0  0  0  0  0  0  0  0  0
  -24.7370  -31.7010   23.3030 C   0  0  0  0  0  0  0  0  0  0  0  0
  -27.5620  -27.8960   19.5970 C   0  0  0  0  0  0  0  0  0  0  0  0
  -23.5650  -30.4220   21.5380 C   0  0  0  0  0  3  0  0  0  0  0  0
  -25.0620  -29.1830   19.8940 C   0  0  0  0  0  0  0  0  0  0  0  0
  -26.0480  -30.9960   21.3060 C   0  0  0  0  0  2  0  0  0  0  0  0
  -26.2010  -29.7250   20.4980 C   0  0  0  0  0  0  0  0  0  0  0  0
  -27.4510  -29.0850   20.3480 C   0  0  0  0  0  3  0  0  0  0  0  0
  -26.3950  -27.3500   19.0110 C   0  0  0  0  0  3  0  0  0  0  0  0
  -25.1500  -27.9910   19.1550 C   0  0  0  0  0  3  0  0  0  0  0  0
  -23.7660  -29.9350   20.0800 C   0  0  0  0  0  2  0  0  0  0  0  0
  -24.8030  -31.0500   22.1080 N   0  0  0  0  0  0  0  0  0  0  0  0
  -23.6620  -31.8220   23.9070 O   0  0  0  0  0  0  0  0  0  0  0  0
  -23.0340  -29.2420   22.3830 C   0  0  0  0  0  0  0  0  0  0  0  0
  -21.7510  -28.8980   22.1880 N   0  0  0  0  0  0  0  0  0  0  0  0
  -23.7730  -28.6420   23.1680 O   0  0  0  0  0  0  0  0  0  0  0  0
  -21.2110  -29.4440   21.5320 H   0  0  0  0  0  0  0  0  0  0  0  0
  -18.5820  -27.1710   22.3660 C   0  0  0  0  0  0  0  0  0  0  0  0
  -21.0440  -27.7980   22.8430 C   0  0  0  0  0  3  0  0  0  0  0  0
  -21.4090  -26.4410   22.1990 C   0  0  0  0  0  2  0  0  0  0  0  0
  -20.4400  -26.0210   21.0880 C   0  0  0  0  0  2  0  0  0  0  0  0
  -19.0120  -25.9110   21.6330 C   0  0  0  0  0  2  0  0  0  0  0  0
  -19.5370  -28.0650   22.9190 C   0  0  0  0  0  0  0  0  0  0  0  0
  -19.0850  -29.2390   23.5590 C   0  0  0  0  0  3  0  0  0  0  0  0
  -17.7110  -29.5240   23.6520 C   0  0  0  0  0  3  0  0  0  0  0  0
  -16.7690  -28.6280   23.1170 C   0  0  0  0  0  3  0  0  0  0  0  0
  -17.2050  -27.4530   22.4800 C   0  0  0  0  0  3  0  0  0  0  0  0
  -25.9980  -32.3480   23.9540 C   0  0  0  0  0  3  0  0  0  0  0  0
  -25.6470  -33.7250   24.3260 N   0  0  0  0  0  0  0  0  0  0  0  0
  -25.9660  -34.8110   23.6100 C   0  0  0  0  0  0  0  0  0  0  0  0
  -26.6580  -34.7610   22.5890 O   0  0  0  0  0  0  0  0  0  0  0  0
  -25.0350  -33.8330   25.1210 H   0  0  0  0  0  0  0  0  0  0  0  0
  -24.2000  -36.5690   23.2710 C   0  0  0  0  0  1  0  0  0  0  0  0
  -25.4300  -36.1680   24.1030 C   0  0  0  0  0  3  0  0  0  0  0  0
  -27.5130  -37.0790   25.0250 C   0  0  0  0  0  1  0  0  0  0  0  0
  -26.4370  -37.2520   24.0540 N   0  0  0  0  0  0  0  0  0  0  0  0
  -26.0020  -38.1560   24.2210 H   0  0  0  0  0  0  0  0  0  0  0  0
  -26.5320  -31.5480   25.2040 C   0  0  1  0  0  0  0  0  0  0  0  0
  -25.4340  -31.2030   26.2380 C   0  0  0  0  0  1  0  0  0  0  0  0
  -27.1960  -30.2240   24.7600 C   0  0  0  0  0  1  0  0  0  0  0  0
  -27.6270  -32.3710   25.9250 C   0  0  0  0  0  1  0  0  0  0  0  0
  -30.5560  -17.9830   21.4250 C   0  0  0  0  0  2  0  0  0  0  0  0
  -31.7710  -17.0920   21.7790 C   0  0  0  0  0  2  0  0  0  0  0  0
  -32.2900  -16.2500   20.6020 C   0  0  0  0  0  2  0  0  0  0  0  0
  -31.4910  -14.3490   19.2270 C   0  0  0  0  0  0  0  0  0  0  0  0
  -30.9660  -12.1020   18.3700 C   0  0  0  0  0  2  0  0  0  0  0  0
  -29.8620  -12.1040   17.3010 C   0  0  0  0  0  2  0  0  0  0  0  0
  -28.4740  -12.0280   17.9590 C   0  0  0  0  0  2  0  0  0  0  0  0
  -28.2930  -13.0850   19.0780 C   0  0  0  0  0  3  0  0  0  0  0  0
  -29.4880  -13.0690   20.0580 C   0  0  0  0  0  2  0  0  0  0  0  0
  -30.7380  -13.2260   19.2870 N   0  0  0  0  0  0  0  0  0  0  0  0
  -32.3210  -14.5720   18.3390 O   0  0  0  0  0  0  0  0  0  0  0  0
  -31.3900  -15.1420   20.2980 N   0  0  0  0  0  0  0  0  0  0  0  0
  -30.7340  -14.8610   21.0110 H   0  0  0  0  0  0  0  0  0  0  0  0
  -26.1410  -13.8580   20.2680 C   0  0  0  0  0  0  0  0  0  0  0  0
  -25.0740  -13.1630   20.7690 C   0  0  0  0  0  0  0  0  0  0  0  0
  -25.3620  -11.7820   20.5470 C   0  0  0  0  0  0  0  0  0  0  0  0
  -27.0210  -12.9040   19.7780 N   0  0  0  0  0  0  0  0  0  0  0  0
  -26.5630  -11.6460   20.0000 N   0  0  0  0  0  0  0  0  0  0  0  0
  -24.5420  -10.5850   20.7710 C   0  0  0  0  0  0  0  0  0  0  0  0
  -24.9350   -9.5810   21.6830 C   0  0  0  0  0  3  0  0  0  0  0  0
  -24.1200   -8.4480   21.8960 C   0  0  0  0  0  3  0  0  0  0  0  0
  -22.8970   -8.3110   21.1940 C   0  0  0  0  0  0  0  0  0  0  0  0
  -22.5230   -9.3020   20.2700 C   0  0  0  0  0  3  0  0  0  0  0  0
  -23.3370  -10.4270   20.0570 C   0  0  0  0  0  3  0  0  0  0  0  0
  -22.0540   -7.2330   21.3160 O   0  0  0  0  0  0  0  0  0  0  0  0
  -21.8630   -6.6020   22.5190 C   0  0  0  0  0  0  0  0  0  0  0  0
  -21.3650   -7.2860   23.6490 C   0  0  0  0  0  3  0  0  0  0  0  0
  -21.1160   -6.5830   24.8450 C   0  0  0  0  0  3  0  0  0  0  0  0
  -21.3570   -5.1980   24.9120 C   0  0  0  0  0  0  0  0  0  0  0  0
  -21.8500   -4.5140   23.7860 C   0  0  0  0  0  3  0  0  0  0  0  0
  -22.0990   -5.2140   22.5930 C   0  0  0  0  0  0  0  0  0  0  0  0
  -22.5530   -4.5460   21.5060 F   0  0  0  0  0  0  0  0  0  0  0  0
  -21.1120   -4.5210   26.0590 F   0  0  0  0  0  0  0  0  0  0  0  0
  -23.8110  -13.7460   21.3360 C   0  0  0  0  0  0  0  0  0  0  0  0
  -23.1860  -13.0510   22.2800 N   0  0  0  0  0  0  0  0  0  0  0  0
  -23.3970  -14.8480   20.9770 O   0  0  0  0  0  0  0  0  0  0  0  0
  -23.5380  -12.1570   22.5900 H   0  0  0  0  0  0  0  0  0  0  0  0
  -22.3420  -13.4180   22.6970 H   0  0  0  0  0  0  0  0  0  0  0  0
  -26.4310  -15.2160   20.1690 N   0  0  0  0  0  0  0  0  0  0  0  0
  -25.7840  -15.9360   20.4730 H   0  0  0  0  0  0  0  0  0  0  0  0
  -27.2590  -15.5910   19.7240 H   0  0  0  0  0  0  0  0  0  0  0  0
  1  4  1  0
  1  6  2  0
  2  3  1  0
  2  5  1  0
  3  9  1  0
  3  1  1  0
  4 55  1  0
  5  4  1  0
  5  7  1  0
  8  5  1  0
  9 10  1  0
 11 12  1  0
 11  9  1  0
 13 14  1  0
 13 12  1  0
 14 16  1  0
 15 26  2  0
 16 21  1  0
 17 25  1  0
 17 27  1  0
 18 24  1  0
 18 20  1  0
 19 25  1  0
 20 19  1  0
 21 20  2  0
 22 23  1  0
 22 16  2  0
 23 18  2  0
 24 17  1  0
 25 15  1  0
 27 29  2  0
 28 27  1  0
 30 28  1  0
 31 40  2  0
 31 36  1  0
 32 28  1  0
 32 36  1  0
 33 32  1  0
 34 35  1  0
 34 33  1  0
 35 31  1  0
 36 37  2  0
 37 38  1  0
 39 38  2  0
 40 39  1  0
 41 15  1  0
 41 42  1  0
 41 51  1  0
 42 45  1  0
 43 47  1  0
 43 42  1  0
 44 43  2  0
 47 46  1  0
 49 47  1  0
 49 50  1  0
 49 48  1  0
 51 54  1  1
 51 52  1  0
 53 51  1  0
 55 56  1  0
 57 56  1  0
 58 64  1  0
 58 66  1  0
 59 64  1  0
 60 61  1  0
 60 59  1  0
 62 61  1  0
 62 71  1  0
 62 63  1  0
 64 63  1  0
 65 58  2  0
 66 57  1  0
 66 67  1  0
 68 69  2  0
 69 88  1  0
 70 69  1  0
 70 73  1  0
 71 72  1  0
 71 68  1  0
 72 70  2  0
 73 74  1  0
 74 75  2  0
 76 79  1  0
 76 75  1  0
 77 76  2  0
 78 77  1  0
 78 73  2  0
 79 80  1  0
 80 85  2  0
 80 81  1  0
 81 82  2  0
 82 83  1  0
 83 87  1  0
 84 83  2  0
 85 84  1  0
 86 85  1  0
 88 89  1  0
 89 91  1  0
 89 92  1  0
 90 88  2  0
 93 68  1  0
 93 94  1  0
 95 93  1  0
M  ISO  4  13 101  14 101  58 100  66 100
M  END
>  <TORSDO>  (11) 
F 23

>  <SCORE>  (11) 
-8.047

>  <name>  (11) 
10

>  <ligand_id>  (11) 
10

>  <original_smiles>  (11) 
[H]c1c([H])c([H])c2c(c1[H])C([H])([H])C([H])([H])C([H])([H])C2([H])N([H])C(=O)C1([H])N(C(=O)C([H])(N([H])C(=O)C([H])(N([H])C([H])([H])[H])C([H])([H])[H])C(C([H])([H])[H])(C([H])([H])[H])C([H])([H])[H])C([H])([H])c2c([H])c(OC([H])([H])C([H])([H])C([H])([H])N([H])C3([H])C(=O)C([H])(C([H])([H])C([H])([H])C([H])([H])N([H])C(=O)N4C([H])([H])C([H])([H])C([H])([H])C([H])(n5nc(-c6c([H])c([H])c(Oc7c([H])c([H])c(F)c([H])c7F)c([H])c6[H])c(C(=O)N([H])[H])c5N([H])[H])C4([H])[H])[N+]([H])([H])C3([H])[H])c([H])c([H])c2C1([H])[H]

>  <smiles>  (11) 
[H]c1c([H])c([H])c2c(c1[H])C([H])([H])C([H])([H])C([H])([H])C2([H])N([H])C(=O)C1([H])N(C(=O)C([H])(N([H])C(=O)C([H])(N([H])C([H])([H])[H])C([H])([H])[H])C(C([H])([H])[H])(C([H])([H])[H])C([H])([H])[H])C([H])([H])c2c([H])c(OC([H])([H])C([H])([H])C([H])([H])N([H])C3([H])C(=O)C([H])(C([H])([H])C([H])([H])C([H])([H])N([H])C(=O)N4C([H])([H])C([H])([H])C([H])([H])C([H])(n5nc(-c6c([H])c([H])c(Oc7c([H])c([H])c(F)c([H])c7F)c([H])c6[H])c(C(=O)N([H])[H])c5N([H])[H])C4([H])[H])[N+]([H])([H])C3([H])[H])c([H])c([H])c2C1([H])[H]

$$$$
11:0:0
     RDKit          3D

 88 96  0  0  1  0  0  0  0  0999 V2000
  -30.7750  -19.5270   20.3080 C   0  0  0  0  0  3  0  0  0  0  0  0
  -28.5160  -20.3940   20.2800 C   0  0  0  0  0  3  0  0  0  0  0  0
  -29.5220  -18.9910   20.2850 C   0  0  0  0  0  0  0  0  0  0  0  0
  -28.8000  -21.9030   20.2970 C   0  0  0  0  0  0  0  0  0  0  0  0
  -31.1520  -20.9890   20.3300 C   0  0  0  0  0  0  0  0  0  0  0  0
  -30.2080  -22.0000   20.3290 N   0  0  0  0  0  0  0  0  0  0  0  0
  -32.3370  -21.3250   20.3520 O   0  0  0  0  0  0  0  0  0  0  0  0
  -30.5770  -22.9410   20.3430 H   0  0  0  0  0  0  0  0  0  0  0  0
  -30.1760  -15.8850   20.2110 C   0  0  0  0  0  0  0  0  0  0  0  0
  -30.3410  -13.3100   19.3740 C   0  0  0  0  0  2  0  0  0  0  0  0
  -29.4680  -12.8310   18.1740 C   0  0  0  0  0  2  0  0  0  0  0  0
  -28.0600  -12.4300   18.6330 C   0  0  0  0  0  2  0  0  0  0  0  0
  -27.5210  -13.4270   19.6800 C   0  0  0  0  0  3  0  0  0  0  0  0
  -28.5410  -13.8020   20.7860 C   0  0  0  0  0  2  0  0  0  0  0  0
  -29.6800  -14.4900   20.1210 N   0  0  0  0  0  0  0  0  0  0  0  0
  -31.4150  -15.8060   20.0620 O   0  0  0  0  0  0  0  0  0  0  0  0
  -29.3920  -17.2780   20.2790 N   0  0  0  0  0  0  0  0  0  0  0  0
  -28.4130  -17.0320   20.3340 H   0  0  0  0  0  0  0  0  0  0  0  0
  -25.1500  -13.9110   20.4370 C   0  0  0  0  0  0  0  0  0  0  0  0
  -24.1030  -13.1140   20.8020 C   0  0  0  0  0  0  0  0  0  0  0  0
  -24.6000  -11.7730   20.7810 C   0  0  0  0  0  0  0  0  0  0  0  0
  -26.2120  -13.0600   20.2020 N   0  0  0  0  0  0  0  0  0  0  0  0
  -25.8950  -11.7650   20.4760 N   0  0  0  0  0  0  0  0  0  0  0  0
  -23.8910  -10.4990   20.9710 C   0  0  0  0  0  0  0  0  0  0  0  0
  -24.3130   -9.5550   21.9330 C   0  0  0  0  0  3  0  0  0  0  0  0
  -23.5990   -8.3500   22.1140 C   0  0  0  0  0  3  0  0  0  0  0  0
  -22.4490   -8.0810   21.3350 C   0  0  0  0  0  0  0  0  0  0  0  0
  -22.0460   -9.0150   20.3640 C   0  0  0  0  0  3  0  0  0  0  0  0
  -22.7610  -10.2110   20.1810 C   0  0  0  0  0  3  0  0  0  0  0  0
  -21.7090   -6.9260   21.4240 O   0  0  0  0  0  0  0  0  0  0  0  0
  -21.6220   -6.2150   22.5950 C   0  0  0  0  0  0  0  0  0  0  0  0
  -21.1030   -6.7860   23.7770 C   0  0  0  0  0  3  0  0  0  0  0  0
  -20.9670   -5.9990   24.9380 C   0  0  0  0  0  3  0  0  0  0  0  0
  -21.3390   -4.6430   24.9170 C   0  0  0  0  0  0  0  0  0  0  0  0
  -21.8510   -4.0700   23.7390 C   0  0  0  0  0  3  0  0  0  0  0  0
  -21.9880   -4.8540   22.5800 C   0  0  0  0  0  0  0  0  0  0  0  0
  -22.4620   -4.2920   21.4420 F   0  0  0  0  0  0  0  0  0  0  0  0
  -21.2030   -3.8840   26.0300 F   0  0  0  0  0  0  0  0  0  0  0  0
  -22.6960  -13.5680   21.0530 C   0  0  0  0  0  0  0  0  0  0  0  0
  -21.9750  -12.8730   21.9250 N   0  0  0  0  0  0  0  0  0  0  0  0
  -22.2460  -14.5770   20.5110 O   0  0  0  0  0  0  0  0  0  0  0  0
  -22.3550  -12.0590   22.3840 H   0  0  0  0  0  0  0  0  0  0  0  0
  -21.0310  -13.1610   22.1380 H   0  0  0  0  0  0  0  0  0  0  0  0
  -25.2830  -15.2840   20.2490 N   0  0  0  0  0  0  0  0  0  0  0  0
  -24.4970  -15.9180   20.3440 H   0  0  0  0  0  0  0  0  0  0  0  0
  -26.1120  -15.7340   19.8870 H   0  0  0  0  0  0  0  0  0  0  0  0
  -27.8810  -23.5990   20.2640 C   0  0  0  0  0  2  0  0  0  0  0  0
  -28.1260  -25.3970   20.3680 O   0  0  0  0  0  0  0  0  0  0  0  0
  -24.6920  -31.8840   23.2630 C   0  0  0  0  0  0  0  0  0  0  0  0
  -27.1820  -26.6740   20.3180 C   0  0  0  0  0  0  0  0  0  0  0  0
  -23.5000  -30.4840   21.6330 C   0  0  0  0  0  3  0  0  0  0  0  0
  -24.9390  -28.7950   20.2400 C   0  0  0  0  0  0  0  0  0  0  0  0
  -26.0850  -30.5750   21.5270 C   0  0  0  0  0  2  0  0  0  0  0  0
  -26.1390  -29.1260   20.8800 C   0  0  0  0  0  0  0  0  0  0  0  0
  -27.2400  -28.0980   20.8800 C   0  0  0  0  0  3  0  0  0  0  0  0
  -25.9450  -26.5850   19.6190 C   0  0  0  0  0  3  0  0  0  0  0  0
  -24.8880  -27.5510   19.5850 C   0  0  0  0  0  3  0  0  0  0  0  0
  -23.7430  -29.7690   20.2710 C   0  0  0  0  0  2  0  0  0  0  0  0
  -24.7860  -31.0170   22.1920 N   0  0  0  0  0  0  0  0  0  0  0  0
  -23.5980  -32.2000   23.7630 O   0  0  0  0  0  0  0  0  0  0  0  0
  -22.7650  -29.5260   22.6120 C   0  0  0  0  0  0  0  0  0  0  0  0
  -21.4330  -29.3750   22.4760 N   0  0  0  0  0  0  0  0  0  0  0  0
  -23.4080  -28.9160   23.4690 O   0  0  0  0  0  0  0  0  0  0  0  0
  -20.9620  -29.9170   21.7640 H   0  0  0  0  0  0  0  0  0  0  0  0
  -18.0400  -28.1610   22.9700 C   0  0  0  0  0  0  0  0  0  0  0  0
  -20.5970  -28.4480   23.2530 C   0  0  0  0  0  3  0  0  0  0  0  0
  -20.7100  -27.0070   22.7040 C   0  0  0  0  0  2  0  0  0  0  0  0
  -19.6210  -26.6640   21.6820 C   0  0  0  0  0  2  0  0  0  0  0  0
  -18.2320  -26.8060   22.3090 C   0  0  0  0  0  2  0  0  0  0  0  0
  -19.1500  -28.9390   23.3980 C   0  0  0  0  0  0  0  0  0  0  0  0
  -18.9120  -30.2020   23.9820 C   0  0  0  0  0  3  0  0  0  0  0  0
  -17.6010  -30.6890   24.1390 C   0  0  0  0  0  3  0  0  0  0  0  0
  -16.5070  -29.9110   23.7220 C   0  0  0  0  0  3  0  0  0  0  0  0
  -16.7280  -28.6470   23.1450 C   0  0  0  0  0  3  0  0  0  0  0  0
  -25.9540  -32.5350   23.9060 C   0  0  0  0  0  3  0  0  0  0  0  0
  -25.6370  -33.9420   24.2280 N   0  0  0  0  0  0  0  0  0  0  0  0
  -25.9550  -35.0010   23.4700 C   0  0  0  0  0  0  0  0  0  0  0  0
  -26.5980  -34.8970   22.4230 O   0  0  0  0  0  0  0  0  0  0  0  0
  -25.0600  -34.0960   25.0410 H   0  0  0  0  0  0  0  0  0  0  0  0
  -24.2100  -36.8000   23.1960 C   0  0  0  0  0  1  0  0  0  0  0  0
  -25.4900  -36.3960   23.9440 C   0  0  0  0  0  3  0  0  0  0  0  0
  -27.6570  -37.3030   24.6680 C   0  0  0  0  0  1  0  0  0  0  0  0
  -26.5140  -37.4520   23.7720 N   0  0  0  0  0  0  0  0  0  0  0  0
  -26.1100  -38.3730   23.9220 H   0  0  0  0  0  0  0  0  0  0  0  0
  -26.4340  -31.7890   25.2120 C   0  0  1  0  0  0  0  0  0  0  0  0
  -25.3180  -31.5880   26.2660 C   0  0  0  0  0  1  0  0  0  0  0  0
  -27.0100  -30.3950   24.8770 C   0  0  0  0  0  1  0  0  0  0  0  0
  -27.5820  -32.5850   25.8790 C   0  0  0  0  0  1  0  0  0  0  0  0
  1  5  1  0
  2  3  1  0
  2  4  2  0
  3  1  2  0
  4  6  1  0
  5  7  2  0
  6  5  1  0
  6  8  1  0
  9 17  1  0
 10 15  1  0
 11 12  1  0
 11 10  1  0
 13 12  1  0
 13 22  1  0
 13 14  1  0
 15  9  1  0
 15 14  1  0
 16  9  2  0
 17  3  1  0
 17 18  1  0
 19 20  2  0
 20 39  1  0
 21 20  1  0
 21 24  1  0
 22 19  1  0
 22 23  1  0
 23 21  2  0
 24 25  1  0
 25 26  2  0
 27 30  1  0
 27 26  1  0
 28 27  2  0
 29 28  1  0
 29 24  2  0
 30 31  1  0
 31 32  1  0
 32 33  2  0
 34 33  1  0
 34 38  1  0
 35 34  2  0
 36 31  2  0
 36 35  1  0
 37 36  1  0
 39 40  1  0
 40 43  1  0
 40 42  1  0
 41 39  2  0
 44 45  1  0
 44 19  1  0
 46 44  1  0
 47  4  1  0
 47 48  1  0
 49 60  2  0
 50 48  1  0
 50 55  1  0
 51 59  1  0
 51 61  1  0
 52 58  1  0
 52 54  1  0
 53 59  1  0
 54 53  1  0
 55 54  2  0
 56 50  2  0
 57 56  1  0
 57 52  2  0
 58 51  1  0
 59 49  1  0
 61 63  2  0
 62 61  1  0
 64 62  1  0
 65 74  2  0
 65 70  1  0
 66 62  1  0
 66 70  1  0
 67 66  1  0
 68 69  1  0
 68 67  1  0
 69 65  1  0
 70 71  2  0
 71 72  1  0
 73 72  2  0
 74 73  1  0
 75 49  1  0
 75 76  1  0
 75 85  1  0
 76 79  1  0
 77 81  1  0
 77 76  1  0
 78 77  2  0
 81 80  1  0
 83 84  1  0
 83 81  1  0
 83 82  1  0
 85 88  1  1
 85 86  1  0
 87 85  1  0
M  ISO  4   9 100  17 100  47 101  48 101
M  END
>  <TORSDO>  (12) 
F 17

>  <SCORE>  (12) 
-16.495

>  <name>  (12) 
11

>  <ligand_id>  (12) 
11

>  <original_smiles>  (12) 
[H]c1c([H])c([H])c2c(c1[H])C([H])([H])C([H])([H])C([H])([H])C2([H])N([H])C(=O)C1([H])N(C(=O)C([H])(N([H])C(=O)C([H])(N([H])C([H])([H])[H])C([H])([H])[H])C(C([H])([H])[H])(C([H])([H])[H])C([H])([H])[H])C([H])([H])c2c([H])c(OC([H])([H])c3c([H])c(N([H])C(=O)N4C([H])([H])C([H])([H])C([H])([H])C([H])(n5nc(-c6c([H])c([H])c(Oc7c([H])c([H])c(F)c([H])c7F)c([H])c6[H])c(C(=O)N([H])[H])c5N([H])[H])C4([H])[H])c([H])c(=O)n3[H])c([H])c([H])c2C1([H])[H]

>  <smiles>  (12) 
[H]c1c([H])c([H])c2c(c1[H])C([H])([H])C([H])([H])C([H])([H])C2([H])N([H])C(=O)C1([H])N(C(=O)C([H])(N([H])C(=O)C([H])(N([H])C([H])([H])[H])C([H])([H])[H])C(C([H])([H])[H])(C([H])([H])[H])C([H])([H])[H])C([H])([H])c2c([H])c(OC([H])([H])c3c([H])c(N([H])C(=O)N4C([H])([H])C([H])([H])C([H])([H])C([H])(n5nc(-c6c([H])c([H])c(Oc7c([H])c([H])c(F)c([H])c7F)c([H])c6[H])c(C(=O)N([H])[H])c5N([H])[H])C4([H])[H])c([H])c(=O)n3[H])c([H])c([H])c2C1([H])[H]

$$$$
12:0:0
     RDKit          3D

 93101  0  0  1  0  0  0  0  0999 V2000
  -27.7090  -21.5260   21.2500 C   0  0  0  0  0  0  0  0  0  0  0  0
  -29.0580  -21.4920   20.5300 C   0  0  0  0  0  0  0  0  0  0  0  0
  -26.6280  -22.3740   20.5800 C   0  0  0  0  0  2  0  0  0  0  0  0
  -27.2400  -23.4540   19.6720 C   0  0  0  0  0  2  0  0  0  0  0  0
  -28.2990  -22.8310   18.7300 C   0  0  0  0  0  3  0  0  0  0  0  0
  -29.3580  -22.1460   19.4680 N   0  0  0  0  0  0  0  0  0  0  0  0
  -27.4570  -20.9060   22.2880 O   0  0  0  0  0  0  0  0  0  0  0  0
  -30.0980  -20.5420   21.1130 C   0  0  0  0  0  2  0  0  0  0  0  0
  -30.4670  -19.4660   20.0750 C   0  0  0  0  0  2  0  0  0  0  0  0
  -31.5220  -18.4560   20.5390 C   0  0  0  0  0  2  0  0  0  0  0  0
  -31.7000  -17.3580   19.4830 C   0  0  0  0  0  2  0  0  0  0  0  0
  -32.9090  -15.3240   19.0820 C   0  0  0  0  0  0  0  0  0  0  0  0
  -32.4670  -12.9690   18.5100 C   0  0  0  0  0  2  0  0  0  0  0  0
  -31.3710  -12.8270   17.4370 C   0  0  0  0  0  2  0  0  0  0  0  0
  -29.9720  -12.8070   18.0800 C   0  0  0  0  0  2  0  0  0  0  0  0
  -29.7640  -13.9710   19.0860 C   0  0  0  0  0  3  0  0  0  0  0  0
  -30.9530  -14.0670   20.0690 C   0  0  0  0  0  2  0  0  0  0  0  0
  -32.2000  -14.1860   19.2900 N   0  0  0  0  0  0  0  0  0  0  0  0
  -33.8240  -15.4230   18.2610 O   0  0  0  0  0  0  0  0  0  0  0  0
  -32.6490  -16.3390   19.9110 N   0  0  0  0  0  0  0  0  0  0  0  0
  -33.5100  -16.7770   20.2040 H   0  0  0  0  0  0  0  0  0  0  0  0
  -27.6930  -14.8290   20.3560 C   0  0  0  0  0  0  0  0  0  0  0  0
  -26.5770  -14.1870   20.8210 C   0  0  0  0  0  0  0  0  0  0  0  0
  -26.7510  -12.8050   20.4960 C   0  0  0  0  0  0  0  0  0  0  0  0
  -28.4890  -13.8450   19.7890 N   0  0  0  0  0  0  0  0  0  0  0  0
  -27.9320  -12.6130   19.9250 N   0  0  0  0  0  0  0  0  0  0  0  0
  -25.8370  -11.6650   20.6450 C   0  0  0  0  0  0  0  0  0  0  0  0
  -26.0750  -10.6480   21.5950 C   0  0  0  0  0  3  0  0  0  0  0  0
  -25.1730   -9.5730   21.7320 C   0  0  0  0  0  3  0  0  0  0  0  0
  -24.0170   -9.5080   20.9200 C   0  0  0  0  0  0  0  0  0  0  0  0
  -23.7960  -10.5120   19.9610 C   0  0  0  0  0  3  0  0  0  0  0  0
  -24.6980  -11.5780   19.8210 C   0  0  0  0  0  3  0  0  0  0  0  0
  -23.0970   -8.4880   20.9670 O   0  0  0  0  0  0  0  0  0  0  0  0
  -22.6470   -7.9800   22.1590 C   0  0  0  0  0  0  0  0  0  0  0  0
  -21.9790   -8.7840   23.1090 C   0  0  0  0  0  3  0  0  0  0  0  0
  -21.4690   -8.2040   24.2890 C   0  0  0  0  0  3  0  0  0  0  0  0
  -21.6190   -6.8240   24.5170 C   0  0  0  0  0  0  0  0  0  0  0  0
  -22.2800   -6.0210   23.5720 C   0  0  0  0  0  3  0  0  0  0  0  0
  -22.7890   -6.5970   22.3940 C   0  0  0  0  0  0  0  0  0  0  0  0
  -23.4050   -5.8140   21.4750 F   0  0  0  0  0  0  0  0  0  0  0  0
  -21.1240   -6.2660   25.6470 F   0  0  0  0  0  0  0  0  0  0  0  0
  -25.3680  -14.8270   21.4420 C   0  0  0  0  0  0  0  0  0  0  0  0
  -24.7030  -14.1290   22.3570 N   0  0  0  0  0  0  0  0  0  0  0  0
  -25.0330  -15.9750   21.1520 O   0  0  0  0  0  0  0  0  0  0  0  0
  -24.9870  -13.1950   22.6100 H   0  0  0  0  0  0  0  0  0  0  0  0
  -23.8970  -14.5370   22.8080 H   0  0  0  0  0  0  0  0  0  0  0  0
  -28.0830  -16.1650   20.3510 N   0  0  0  0  0  0  0  0  0  0  0  0
  -27.4850  -16.9000   20.7160 H   0  0  0  0  0  0  0  0  0  0  0  0
  -28.9300  -16.5170   19.9230 H   0  0  0  0  0  0  0  0  0  0  0  0
  -28.9030  -23.8620   17.7590 C   0  0  0  0  0  2  0  0  0  0  0  0
  -27.8180  -24.4750   16.8550 C   0  0  0  0  0  2  0  0  0  0  0  0
  -28.2650  -25.7240   16.0830 C   0  0  0  0  0  2  0  0  0  0  0  0
  -27.1210  -26.3630   15.5160 O   0  0  0  0  0  0  0  0  0  0  0  0
  -26.0790  -28.1900   22.3010 C   0  0  0  0  0  0  0  0  0  0  0  0
  -26.3450  -27.0310   16.4270 C   0  0  0  0  0  0  0  0  0  0  0  0
  -24.2050  -28.6690   20.7540 C   0  0  0  0  0  3  0  0  0  0  0  0
  -24.7350  -28.4280   18.2700 C   0  0  0  0  0  0  0  0  0  0  0  0
  -26.6160  -28.6140   19.9080 C   0  0  0  0  0  2  0  0  0  0  0  0
  -26.0720  -28.1460   18.5780 C   0  0  0  0  0  0  0  0  0  0  0  0
  -26.8820  -27.4470   17.6620 C   0  0  0  0  0  3  0  0  0  0  0  0
  -25.0030  -27.3270   16.1160 C   0  0  0  0  0  3  0  0  0  0  0  0
  -24.1900  -28.0180   17.0370 C   0  0  0  0  0  3  0  0  0  0  0  0
  -23.9400  -29.1820   19.3120 C   0  0  0  0  0  2  0  0  0  0  0  0
  -25.6630  -28.4550   21.0290 N   0  0  0  0  0  0  0  0  0  0  0  0
  -25.2760  -28.1670   23.2440 O   0  0  0  0  0  0  0  0  0  0  0  0
  -23.3460  -27.4070   20.9920 C   0  0  0  0  0  0  0  0  0  0  0  0
  -22.0150  -27.5820   20.9820 N   0  0  0  0  0  0  0  0  0  0  0  0
  -23.8740  -26.3030   21.1500 O   0  0  0  0  0  0  0  0  0  0  0  0
  -21.6620  -28.5200   20.8540 H   0  0  0  0  0  0  0  0  0  0  0  0
  -18.4710  -26.9020   20.8220 C   0  0  0  0  0  0  0  0  0  0  0  0
  -21.0090  -26.5340   21.1500 C   0  0  0  0  0  3  0  0  0  0  0  0
  -20.9360  -25.6310   19.8970 C   0  0  0  0  0  2  0  0  0  0  0  0
  -19.8800  -26.0860   18.8860 C   0  0  0  0  0  2  0  0  0  0  0  0
  -18.4910  -26.1050   19.5280 C   0  0  0  0  0  2  0  0  0  0  0  0
  -19.6570  -27.1170   21.5740 C   0  0  0  0  0  0  0  0  0  0  0  0
  -19.5900  -27.8960   22.7500 C   0  0  0  0  0  3  0  0  0  0  0  0
  -18.3690  -28.4510   23.1770 C   0  0  0  0  0  3  0  0  0  0  0  0
  -17.1950  -28.2210   22.4390 C   0  0  0  0  0  3  0  0  0  0  0  0
  -17.2480  -27.4450   21.2670 C   0  0  0  0  0  3  0  0  0  0  0  0
  -27.5810  -27.9270   22.6340 C   0  0  0  0  0  3  0  0  0  0  0  0
  -27.8470  -28.5080   23.9570 N   0  0  0  0  0  0  0  0  0  0  0  0
  -28.5980  -29.5970   24.1710 C   0  0  0  0  0  0  0  0  0  0  0  0
  -29.2040  -30.1810   23.2700 O   0  0  0  0  0  0  0  0  0  0  0  0
  -27.3430  -28.1110   24.7350 H   0  0  0  0  0  0  0  0  0  0  0  0
  -27.8410  -31.3940   25.7580 C   0  0  0  0  0  1  0  0  0  0  0  0
  -28.6910  -30.1210   25.6180 C   0  0  0  0  0  3  0  0  0  0  0  0
  -30.8800  -29.1860   26.2150 C   0  0  0  0  0  1  0  0  0  0  0  0
  -30.0760  -30.3950   26.0560 N   0  0  0  0  0  0  0  0  0  0  0  0
  -30.0830  -30.8970   26.9380 H   0  0  0  0  0  0  0  0  0  0  0  0
  -27.9680  -26.3980   22.6060 C   0  0  1  0  0  0  0  0  0  0  0  0
  -27.0270  -25.5020   23.4440 C   0  0  0  0  0  1  0  0  0  0  0  0
  -27.9610  -25.8620   21.1540 C   0  0  0  0  0  1  0  0  0  0  0  0
  -29.4080  -26.2120   23.1380 C   0  0  0  0  0  1  0  0  0  0  0  0
  1  7  2  0
  2  8  1  0
  2  1  1  0
  3  1  1  0
  4  3  1  0
  5 50  1  0
  5  6  1  0
  5  4  1  0
  6  2  2  0
  9 10  1  0
  9  8  1  0
 11 20  1  0
 11 10  1  0
 12 18  1  0
 12 20  1  0
 13 18  1  0
 14 15  1  0
 14 13  1  0
 16 15  1  0
 16 25  1  0
 16 17  1  0
 18 17  1  0
 19 12  2  0
 20 21  1  0
 22 23  2  0
 23 42  1  0
 24 27  1  0
 24 23  1  0
 25 26  1  0
 25 22  1  0
 26 24  2  0
 27 28  1  0
 28 29  2  0
 30 33  1  0
 30 29  1  0
 31 30  2  0
 32 31  1  0
 32 27  2  0
 33 34  1  0
 34 39  2  0
 34 35  1  0
 35 36  2  0
 36 37  1  0
 37 41  1  0
 38 37  2  0
 39 38  1  0
 40 39  1  0
 42 43  1  0
 43 45  1  0
 43 46  1  0
 44 42  2  0
 47 22  1  0
 47 48  1  0
 49 47  1  0
 51 50  1  0
 52 51  1  0
 53 52  1  0
 53 55  1  0
 54 65  2  0
 55 60  1  0
 56 66  1  0
 56 64  1  0
 57 59  1  0
 57 63  1  0
 58 64  1  0
 59 58  1  0
 60 59  2  0
 61 55  2  0
 61 62  1  0
 62 57  2  0
 63 56  1  0
 64 54  1  0
 66 68  2  0
 67 66  1  0
 69 67  1  0
 70 79  2  0
 70 75  1  0
 71 67  1  0
 71 75  1  0
 72 71  1  0
 73 74  1  0
 73 72  1  0
 74 70  1  0
 75 76  2  0
 76 77  1  0
 78 77  2  0
 79 78  1  0
 80 54  1  0
 80 81  1  0
 81 82  1  0
 81 84  1  0
 82 86  1  0
 83 82  2  0
 86 85  1  0
 86 88  1  0
 88 87  1  0
 88 89  1  0
 90 80  1  0
 90 93  1  1
 90 91  1  0
 92 90  1  0
M  ISO  4  12 100  20 100  52 101  53 101
M  END
>  <TORSDO>  (13) 
F 23

>  <SCORE>  (13) 
-4.557

>  <name>  (13) 
12

>  <ligand_id>  (13) 
12

>  <original_smiles>  (13) 
[H]c1c([H])c([H])c2c(c1[H])C([H])([H])C([H])([H])C([H])([H])C2([H])N([H])C(=O)C1([H])N(C(=O)C([H])(N([H])C(=O)C([H])(N([H])C([H])([H])[H])C([H])([H])[H])C(C([H])([H])[H])(C([H])([H])[H])C([H])([H])[H])C([H])([H])c2c([H])c(OC([H])([H])C([H])([H])C([H])([H])C3([H])N=C(C([H])([H])C([H])([H])C([H])([H])C([H])([H])N([H])C(=O)N4C([H])([H])C([H])([H])C([H])([H])C([H])(n5nc(-c6c([H])c([H])c(Oc7c([H])c([H])c(F)c([H])c7F)c([H])c6[H])c(C(=O)N([H])[H])c5N([H])[H])C4([H])[H])C(=O)C([H])([H])C3([H])[H])c([H])c([H])c2C1([H])[H]

>  <smiles>  (13) 
[H]c1c([H])c([H])c2c(c1[H])C([H])([H])C([H])([H])C([H])([H])C2([H])N([H])C(=O)C1([H])N(C(=O)C([H])(N([H])C(=O)C([H])(N([H])C([H])([H])[H])C([H])([H])[H])C(C([H])([H])[H])(C([H])([H])[H])C([H])([H])[H])C([H])([H])c2c([H])c(OC([H])([H])C([H])([H])C([H])([H])C3([H])N=C(C([H])([H])C([H])([H])C([H])([H])C([H])([H])N([H])C(=O)N4C([H])([H])C([H])([H])C([H])([H])C([H])(n5nc(-c6c([H])c([H])c(Oc7c([H])c([H])c(F)c([H])c7F)c([H])c6[H])c(C(=O)N([H])[H])c5N([H])[H])C4([H])[H])C(=O)C([H])([H])C3([H])[H])c([H])c([H])c2C1([H])[H]

$$$$
13:0:0
     RDKit          3D

 96105  0  0  1  0  0  0  0  0999 V2000
  -27.6680  -20.6840   19.1550 C   0  0  0  0  0  2  0  0  0  0  0  0
  -28.9670  -18.4690   18.9490 C   0  0  0  0  0  2  0  0  0  0  0  0
  -30.8630  -19.7350   19.7110 C   0  0  0  0  0  2  0  0  0  0  0  0
  -28.1820  -22.1120   19.1560 C   0  0  0  0  0  2  0  0  0  0  0  0
  -28.7990  -19.9240   18.4620 C   0  0  0  0  0  3  0  0  0  0  0  0
  -30.0800  -20.7080   18.7940 C   0  0  0  0  0  3  0  0  0  0  0  0
  -30.4570  -18.2750   19.3080 C   0  0  2  0  0  0  0  0  0  0  0  0
  -29.6540  -22.0290   19.3740 N   0  0  1  0  0  4  0  0  0  0  0  0
  -29.7790  -21.9830   20.3740 H   0  0  0  0  0  0  0  0  0  0  0  0
  -31.2170  -17.8560   18.1030 N   0  0  0  0  0  4  0  0  0  0  0  0
  -31.1080  -18.5180   17.3520 H   0  0  0  0  0  0  0  0  0  0  0  0
  -30.9060  -16.9710   17.7450 H   0  0  0  0  0  0  0  0  0  0  0  0
  -32.2010  -17.7780   18.3030 H   0  0  0  0  0  0  0  0  0  0  0  0
  -30.6780  -17.2490   20.4850 C   0  0  0  0  0  2  0  0  0  0  0  0
  -29.8470  -15.9040   20.5040 C   0  0  0  0  0  2  0  0  0  0  0  0
  -30.6440  -14.5720   20.3300 C   0  0  0  0  0  0  0  0  0  0  0  0
  -30.3470  -12.3520   19.3230 C   0  0  0  0  0  2  0  0  0  0  0  0
  -29.3950  -12.5420   18.1230 C   0  0  0  0  0  2  0  0  0  0  0  0
  -27.9300  -12.4290   18.5760 C   0  0  0  0  0  2  0  0  0  0  0  0
  -27.6010  -13.2910   19.8210 C   0  0  0  0  0  3  0  0  0  0  0  0
  -28.6770  -13.1100   20.9200 C   0  0  0  0  0  2  0  0  0  0  0  0
  -29.9940  -13.3750   20.3210 N   0  0  0  0  0  0  0  0  0  0  0  0
  -31.8180  -14.6660   19.9720 O   0  0  0  0  0  0  0  0  0  0  0  0
  -25.2160  -13.9020   20.5540 C   0  0  0  0  0  0  0  0  0  0  0  0
  -24.1490  -13.1250   20.9240 C   0  0  0  0  0  0  0  0  0  0  0  0
  -24.6100  -11.7780   20.8920 C   0  0  0  0  0  0  0  0  0  0  0  0
  -26.2580  -13.0160   20.3180 N   0  0  0  0  0  0  0  0  0  0  0  0
  -25.9000  -11.7340   20.5830 N   0  0  0  0  0  0  0  0  0  0  0  0
  -23.8870  -10.5140   21.0750 C   0  0  0  0  0  0  0  0  0  0  0  0
  -24.3300   -9.5320   21.9890 C   0  0  0  0  0  3  0  0  0  0  0  0
  -23.6010   -8.3370   22.1730 C   0  0  0  0  0  3  0  0  0  0  0  0
  -22.4150   -8.1120   21.4360 C   0  0  0  0  0  0  0  0  0  0  0  0
  -21.9920   -9.0820   20.5070 C   0  0  0  0  0  3  0  0  0  0  0  0
  -22.7210  -10.2670   20.3220 C   0  0  0  0  0  3  0  0  0  0  0  0
  -21.6570   -6.9680   21.5240 O   0  0  0  0  0  0  0  0  0  0  0  0
  -21.6320   -6.2060   22.6660 C   0  0  0  0  0  0  0  0  0  0  0  0
  -21.2560   -6.7480   23.9150 C   0  0  0  0  0  3  0  0  0  0  0  0
  -21.1680   -5.9140   25.0470 C   0  0  0  0  0  3  0  0  0  0  0  0
  -21.4570   -4.5420   24.9340 C   0  0  0  0  0  0  0  0  0  0  0  0
  -21.8330   -3.9990   23.6930 C   0  0  0  0  0  3  0  0  0  0  0  0
  -21.9150   -4.8300   22.5610 C   0  0  0  0  0  0  0  0  0  0  0  0
  -22.2550   -4.2980   21.3610 F   0  0  0  0  0  0  0  0  0  0  0  0
  -21.3680   -3.7390   26.0210 F   0  0  0  0  0  0  0  0  0  0  0  0
  -22.7540  -13.6020   21.2000 C   0  0  0  0  0  0  0  0  0  0  0  0
  -22.0390  -12.9050   22.0740 N   0  0  0  0  0  0  0  0  0  0  0  0
  -22.3110  -14.6220   20.6780 O   0  0  0  0  0  0  0  0  0  0  0  0
  -22.4290  -12.0870   22.5100 H   0  0  0  0  0  0  0  0  0  0  0  0
  -21.0970  -13.1870   22.3070 H   0  0  0  0  0  0  0  0  0  0  0  0
  -25.3790  -15.2690   20.3840 N   0  0  0  0  0  0  0  0  0  0  0  0
  -24.6030  -15.9130   20.4990 H   0  0  0  0  0  0  0  0  0  0  0  0
  -26.2110  -15.7200   20.0270 H   0  0  0  0  0  0  0  0  0  0  0  0
  -30.4100  -23.2390   18.8990 C   0  0  0  0  0  2  0  0  0  0  0  0
  -29.6800  -24.5670   19.2470 C   0  0  0  0  0  2  0  0  0  0  0  0
  -30.1700  -25.9210   18.6880 C   0  0  0  0  0  2  0  0  0  0  0  0
  -28.9860  -26.9140   18.7390 C   0  0  0  0  0  2  0  0  0  0  0  0
  -28.3950  -26.8450   20.0390 O   0  0  0  0  0  0  0  0  0  0  0  0
  -24.5500  -31.8880   23.2400 C   0  0  0  0  0  0  0  0  0  0  0  0
  -27.2050  -27.5040   20.1220 C   0  0  0  0  0  0  0  0  0  0  0  0
  -23.3420  -30.4890   21.5980 C   0  0  0  0  0  3  0  0  0  0  0  0
  -24.7900  -28.9440   20.1820 C   0  0  0  0  0  0  0  0  0  0  0  0
  -25.8590  -30.8630   21.3820 C   0  0  0  0  0  2  0  0  0  0  0  0
  -25.9450  -29.4880   20.7580 C   0  0  0  0  0  0  0  0  0  0  0  0
  -27.1560  -28.7680   20.7370 C   0  0  0  0  0  3  0  0  0  0  0  0
  -26.0290  -26.9420   19.5810 C   0  0  0  0  0  3  0  0  0  0  0  0
  -24.8190  -27.6610   19.6090 C   0  0  0  0  0  3  0  0  0  0  0  0
  -23.5520  -29.8130   20.2180 C   0  0  0  0  0  2  0  0  0  0  0  0
  -24.6030  -31.0950   22.1330 N   0  0  0  0  0  0  0  0  0  0  0  0
  -23.4700  -32.1570   23.7810 O   0  0  0  0  0  0  0  0  0  0  0  0
  -22.6960  -29.4610   22.5570 C   0  0  0  0  0  0  0  0  0  0  0  0
  -21.3700  -29.2820   22.4340 N   0  0  0  0  0  0  0  0  0  0  0  0
  -23.3850  -28.8300   23.3640 O   0  0  0  0  0  0  0  0  0  0  0  0
  -20.8790  -29.8470   21.7550 H   0  0  0  0  0  0  0  0  0  0  0  0
  -17.9940  -28.1040   22.9450 C   0  0  0  0  0  0  0  0  0  0  0  0
  -20.5550  -28.3460   23.2040 C   0  0  0  0  0  3  0  0  0  0  0  0
  -20.6470  -26.9170   22.6210 C   0  0  0  0  0  2  0  0  0  0  0  0
  -19.5350  -26.6040   21.6140 C   0  0  0  0  0  2  0  0  0  0  0  0
  -18.1570  -26.7570   22.2630 C   0  0  0  0  0  2  0  0  0  0  0  0
  -19.1190  -28.8580   23.3740 C   0  0  0  0  0  0  0  0  0  0  0  0
  -18.9090  -30.1200   23.9690 C   0  0  0  0  0  3  0  0  0  0  0  0
  -17.6080  -30.6310   24.1400 C   0  0  0  0  0  3  0  0  0  0  0  0
  -16.4980  -29.8730   23.7250 C   0  0  0  0  0  3  0  0  0  0  0  0
  -16.6930  -28.6130   23.1350 C   0  0  0  0  0  3  0  0  0  0  0  0
  -25.8370  -32.5200   23.8550 C   0  0  0  0  0  3  0  0  0  0  0  0
  -26.3600  -31.7510   25.1290 C   0  0  1  0  0  0  0  0  0  0  0  0
  -25.2740  -31.5090   26.2040 C   0  0  0  0  0  1  0  0  0  0  0  0
  -26.9400  -30.3720   24.7290 C   0  0  0  0  0  1  0  0  0  0  0  0
  -27.5070  -32.5480   25.7910 C   0  0  0  0  0  1  0  0  0  0  0  0
  -25.5250  -33.9180   24.1820 N   0  0  0  0  0  0  0  0  0  0  0  0
  -25.8600  -34.9690   23.4230 C   0  0  0  0  0  0  0  0  0  0  0  0
  -26.5340  -34.8650   22.3950 O   0  0  0  0  0  0  0  0  0  0  0  0
  -24.9240  -34.0730   24.9790 H   0  0  0  0  0  0  0  0  0  0  0  0
  -24.1350  -36.7650   23.0570 C   0  0  0  0  0  1  0  0  0  0  0  0
  -25.3690  -36.3570   23.8750 C   0  0  0  0  0  3  0  0  0  0  0  0
  -27.5020  -37.2380   24.7170 C   0  0  0  0  0  1  0  0  0  0  0  0
  -26.4040  -37.4080   23.7710 N   0  0  0  0  0  0  0  0  0  0  0  0
  -25.9980  -38.3270   23.9200 H   0  0  0  0  0  0  0  0  0  0  0  0
  1  4  1  0
  2  7  1  0
  4  8  1  0
  5  6  1  0
  5  2  1  0
  5  1  1  0
  6  8  1  0
  6  3  1  0
  7  3  1  0
  7 14  1  1
  8  9  1  1
 10 13  1  0
 10  7  1  0
 11 10  1  0
 12 10  1  0
 14 15  1  0
 16 15  1  0
 17 22  1  0
 18 19  1  0
 18 17  1  0
 20 19  1  0
 20 27  1  0
 20 21  1  0
 22 16  1  0
 22 21  1  0
 23 16  2  0
 24 25  2  0
 25 44  1  0
 26 25  1  0
 26 29  1  0
 27 24  1  0
 27 28  1  0
 28 26  2  0
 29 30  1  0
 30 31  2  0
 32 35  1  0
 32 31  1  0
 33 32  2  0
 34 33  1  0
 34 29  2  0
 35 36  1  0
 36 37  1  0
 37 38  2  0
 39 38  1  0
 39 43  1  0
 40 39  2  0
 41 36  2  0
 41 40  1  0
 42 41  1  0
 44 45  1  0
 45 48  1  0
 45 47  1  0
 46 44  2  0
 49 50  1  0
 49 24  1  0
 51 49  1  0
 52 53  1  0
 52  8  1  0
 54 55  1  0
 54 53  1  0
 55 56  1  0
 56 58  1  0
 57 68  2  0
 58 63  1  0
 59 67  1  0
 59 69  1  0
 60 66  1  0
 60 62  1  0
 61 67  1  0
 62 61  1  0
 63 62  2  0
 64 65  1  0
 64 58  2  0
 65 60  2  0
 66 59  1  0
 67 57  1  0
 69 71  2  0
 70 69  1  0
 72 70  1  0
 73 82  2  0
 73 78  1  0
 74 70  1  0
 74 78  1  0
 75 74  1  0
 76 77  1  0
 76 75  1  0
 77 73  1  0
 78 79  2  0
 79 80  1  0
 81 80  2  0
 82 81  1  0
 83 57  1  0
 83 88  1  0
 83 84  1  0
 84 87  1  1
 84 85  1  0
 86 84  1  0
 88 91  1  0
 89 93  1  0
 89 88  1  0
 90 89  2  0
 93 92  1  0
 95 93  1  0
 95 96  1  0
 95 94  1  0
M  ISO  4  15 100  16 100  55 101  56 101
M  END
>  <TORSDO>  (14) 
F 23

>  <SCORE>  (14) 
-13.051

>  <name>  (14) 
13

>  <ligand_id>  (14) 
13

>  <original_smiles>  (14) 
[H]c1c([H])c([H])c2c(c1[H])C([H])([H])C([H])([H])C([H])([H])C2([H])N([H])C(=O)C1([H])N(C(=O)C([H])(N([H])C(=O)C([H])(N([H])C([H])([H])[H])C([H])([H])[H])C(C([H])([H])[H])(C([H])([H])[H])C([H])([H])[H])C([H])([H])c2c([H])c(OC([H])([H])C([H])([H])C([H])([H])C([H])([H])[N+]3([H])C([H])([H])C([H])([H])C4([H])C([H])([H])C(C([H])([H])C([H])([H])C(=O)N5C([H])([H])C([H])([H])C([H])([H])C([H])(n6nc(-c7c([H])c([H])c(Oc8c([H])c([H])c(F)c([H])c8F)c([H])c7[H])c(C(=O)N([H])[H])c6N([H])[H])C5([H])[H])([N+]([H])([H])[H])C([H])([H])C43[H])c([H])c([H])c2C1([H])[H]

>  <smiles>  (14) 
[H]c1c([H])c([H])c2c(c1[H])C([H])([H])C([H])([H])C([H])([H])C2([H])N([H])C(=O)C1([H])N(C(=O)C([H])(N([H])C(=O)C([H])(N([H])C([H])([H])[H])C([H])([H])[H])C(C([H])([H])[H])(C([H])([H])[H])C([H])([H])[H])C([H])([H])c2c([H])c(OC([H])([H])C([H])([H])C([H])([H])C([H])([H])[N+]3([H])C([H])([H])C([H])([H])C4([H])C([H])([H])C(C([H])([H])C([H])([H])C(=O)N5C([H])([H])C([H])([H])C([H])([H])C([H])(n6nc(-c7c([H])c([H])c(Oc8c([H])c([H])c(F)c([H])c8F)c([H])c7[H])c(C(=O)N([H])[H])c6N([H])[H])C5([H])[H])([N+]([H])([H])[H])C([H])([H])C43[H])c([H])c([H])c2C1([H])[H]

$$$$
14:0:0
     RDKit          3D

 92101  0  0  1  0  0  0  0  0999 V2000
  -31.5200  -20.2440   19.6410 C   0  0  0  0  0  3  0  0  0  0  0  0
  -29.6020  -20.0470   21.1160 C   0  0  0  0  0  3  0  0  0  0  0  0
  -31.2830  -21.6290   19.5040 C   0  0  0  0  0  3  0  0  0  0  0  0
  -29.3550  -21.4310   20.9700 C   0  0  0  0  0  3  0  0  0  0  0  0
  -30.6360  -19.4210   20.3790 C   0  0  0  0  0  0  0  0  0  0  0  0
  -30.1510  -22.2180   20.1080 C   0  0  0  0  0  0  0  0  0  0  0  0
  -30.5530  -17.4230   18.7820 C   0  0  0  0  0  2  0  0  0  0  0  0
  -29.1240  -16.9890   19.1320 C   0  0  0  0  0  2  0  0  0  0  0  0
  -30.7460  -17.8890   20.2440 C   0  0  0  0  0  3  0  0  0  0  0  0
  -29.5610  -16.9320   20.6070 C   0  0  0  0  0  3  0  0  0  0  0  0
  -30.6350  -14.5640   20.5580 C   0  0  0  0  0  0  0  0  0  0  0  0
  -30.4030  -12.4220   19.3630 C   0  0  0  0  0  2  0  0  0  0  0  0
  -29.4570  -12.6520   18.1640 C   0  0  0  0  0  2  0  0  0  0  0  0
  -27.9760  -12.5150   18.5710 C   0  0  0  0  0  2  0  0  0  0  0  0
  -27.6340  -13.2990   19.8660 C   0  0  0  0  0  3  0  0  0  0  0  0
  -28.6830  -13.0300   20.9730 C   0  0  0  0  0  2  0  0  0  0  0  0
  -30.0130  -13.3580   20.4300 N   0  0  0  0  0  0  0  0  0  0  0  0
  -31.7580  -14.7850   20.1020 O   0  0  0  0  0  0  0  0  0  0  0  0
  -29.8330  -15.5370   21.0410 N   0  0  0  0  0  0  0  0  0  0  0  0
  -29.0520  -15.1420   21.5420 H   0  0  0  0  0  0  0  0  0  0  0  0
  -25.2210  -13.8960   20.5320 C   0  0  0  0  0  0  0  0  0  0  0  0
  -24.1510  -13.1180   20.8860 C   0  0  0  0  0  0  0  0  0  0  0  0
  -24.6190  -11.7700   20.8630 C   0  0  0  0  0  0  0  0  0  0  0  0
  -26.2740  -13.0190   20.3210 N   0  0  0  0  0  0  0  0  0  0  0  0
  -25.9130  -11.7360   20.5730 N   0  0  0  0  0  0  0  0  0  0  0  0
  -23.8970  -10.5040   21.0480 C   0  0  0  0  0  0  0  0  0  0  0  0
  -24.3120   -9.5430   21.9960 C   0  0  0  0  0  3  0  0  0  0  0  0
  -23.5810   -8.3460   22.1650 C   0  0  0  0  0  3  0  0  0  0  0  0
  -22.4260   -8.1020   21.3860 C   0  0  0  0  0  0  0  0  0  0  0  0
  -22.0320   -9.0530   20.4270 C   0  0  0  0  0  3  0  0  0  0  0  0
  -22.7620  -10.2410   20.2570 C   0  0  0  0  0  3  0  0  0  0  0  0
  -21.6740   -6.9550   21.4620 O   0  0  0  0  0  0  0  0  0  0  0  0
  -21.5940   -6.2230   22.6190 C   0  0  0  0  0  0  0  0  0  0  0  0
  -21.1190   -6.7850   23.8240 C   0  0  0  0  0  3  0  0  0  0  0  0
  -20.9840   -5.9780   24.9720 C   0  0  0  0  0  3  0  0  0  0  0  0
  -21.3160   -4.6110   24.9180 C   0  0  0  0  0  0  0  0  0  0  0  0
  -21.7870   -4.0500   23.7170 C   0  0  0  0  0  3  0  0  0  0  0  0
  -21.9210   -4.8520   22.5700 C   0  0  0  0  0  0  0  0  0  0  0  0
  -22.3530   -4.3010   21.4110 F   0  0  0  0  0  0  0  0  0  0  0  0
  -21.1820   -3.8340   26.0180 F   0  0  0  0  0  0  0  0  0  0  0  0
  -22.7510  -13.5900   21.1400 C   0  0  0  0  0  0  0  0  0  0  0  0
  -22.0120  -12.8880   21.9950 N   0  0  0  0  0  0  0  0  0  0  0  0
  -22.3150  -14.6190   20.6210 O   0  0  0  0  0  0  0  0  0  0  0  0
  -22.3740  -12.0520   22.4280 H   0  0  0  0  0  0  0  0  0  0  0  0
  -21.0730  -13.1940   22.2130 H   0  0  0  0  0  0  0  0  0  0  0  0
  -25.3790  -15.2680   20.3590 N   0  0  0  0  0  0  0  0  0  0  0  0
  -24.6140  -15.9200   20.4920 H   0  0  0  0  0  0  0  0  0  0  0  0
  -26.2330  -15.7170   20.0520 H   0  0  0  0  0  0  0  0  0  0  0  0
  -29.7120  -23.6370   19.7270 C   0  0  0  0  0  2  0  0  0  0  0  0
  -29.7100  -24.6650   20.8810 C   0  0  0  0  0  2  0  0  0  0  0  0
  -28.4470  -25.5570   20.9640 C   0  0  0  0  0  2  0  0  0  0  0  0
  -28.5190  -26.7870   20.2310 O   0  0  0  0  0  0  0  0  0  0  0  0
  -24.5800  -31.9170   23.2570 C   0  0  0  0  0  0  0  0  0  0  0  0
  -27.3390  -27.5030   20.2320 C   0  0  0  0  0  0  0  0  0  0  0  0
  -23.4160  -30.4910   21.6050 C   0  0  0  0  0  3  0  0  0  0  0  0
  -24.9120  -28.9620   20.2150 C   0  0  0  0  0  0  0  0  0  0  0  0
  -25.9420  -30.8800   21.4480 C   0  0  0  0  0  2  0  0  0  0  0  0
  -26.0570  -29.5120   20.8070 C   0  0  0  0  0  0  0  0  0  0  0  0
  -27.2760  -28.7950   20.8020 C   0  0  0  0  0  3  0  0  0  0  0  0
  -26.1730  -26.9590   19.6470 C   0  0  0  0  0  3  0  0  0  0  0  0
  -24.9650  -27.6810   19.6370 C   0  0  0  0  0  3  0  0  0  0  0  0
  -23.6560  -29.8050   20.2360 C   0  0  0  0  0  2  0  0  0  0  0  0
  -24.6620  -31.1120   22.1610 N   0  0  0  0  0  0  0  0  0  0  0  0
  -23.4870  -32.1820   23.7780 O   0  0  0  0  0  0  0  0  0  0  0  0
  -22.7580  -29.4710   22.5610 C   0  0  0  0  0  0  0  0  0  0  0  0
  -21.4350  -29.2860   22.4190 N   0  0  0  0  0  0  0  0  0  0  0  0
  -23.4340  -28.8490   23.3830 O   0  0  0  0  0  0  0  0  0  0  0  0
  -20.9510  -29.8410   21.7290 H   0  0  0  0  0  0  0  0  0  0  0  0
  -18.0530  -28.1070   22.9030 C   0  0  0  0  0  0  0  0  0  0  0  0
  -20.6110  -28.3460   23.1800 C   0  0  0  0  0  3  0  0  0  0  0  0
  -20.7050  -26.9190   22.5920 C   0  0  0  0  0  2  0  0  0  0  0  0
  -19.6020  -26.6120   21.5730 C   0  0  0  0  0  2  0  0  0  0  0  0
  -18.2210  -26.7620   22.2170 C   0  0  0  0  0  2  0  0  0  0  0  0
  -19.1760  -28.8580   23.3400 C   0  0  0  0  0  0  0  0  0  0  0  0
  -18.9650  -30.1190   23.9380 C   0  0  0  0  0  3  0  0  0  0  0  0
  -17.6640  -30.6290   24.1050 C   0  0  0  0  0  3  0  0  0  0  0  0
  -16.5550  -29.8740   23.6860 C   0  0  0  0  0  3  0  0  0  0  0  0
  -16.7500  -28.6150   23.0910 C   0  0  0  0  0  3  0  0  0  0  0  0
  -25.8500  -32.5620   23.8970 C   0  0  0  0  0  3  0  0  0  0  0  0
  -26.3490  -31.8080   25.1900 C   0  0  1  0  0  0  0  0  0  0  0  0
  -25.2370  -31.5720   26.2400 C   0  0  0  0  0  1  0  0  0  0  0  0
  -26.9510  -30.4320   24.8230 C   0  0  0  0  0  1  0  0  0  0  0  0
  -27.4800  -32.6190   25.8660 C   0  0  0  0  0  1  0  0  0  0  0  0
  -25.5260  -33.9620   24.2030 N   0  0  0  0  0  0  0  0  0  0  0  0
  -25.8680  -35.0060   23.4370 C   0  0  0  0  0  0  0  0  0  0  0  0
  -26.5600  -34.8930   22.4210 O   0  0  0  0  0  0  0  0  0  0  0  0
  -24.9120  -34.1220   24.9870 H   0  0  0  0  0  0  0  0  0  0  0  0
  -24.1400  -36.7850   23.0210 C   0  0  0  0  0  1  0  0  0  0  0  0
  -25.3630  -36.3970   23.8670 C   0  0  0  0  0  3  0  0  0  0  0  0
  -27.4710  -37.3020   24.7410 C   0  0  0  0  0  1  0  0  0  0  0  0
  -26.3930  -37.4530   23.7680 N   0  0  0  0  0  0  0  0  0  0  0  0
  -25.9790  -38.3730   23.8940 H   0  0  0  0  0  0  0  0  0  0  0  0
  1  5  1  0
  3  1  2  0
  3  6  1  0
  4  2  1  0
  5  2  2  0
  6  4  2  0
  7  8  1  0
  7  9  1  0
  8 10  1  0
  9  5  1  0
  9 10  1  0
 10 19  1  0
 11 19  1  0
 12 17  1  0
 13 14  1  0
 13 12  1  0
 15 14  1  0
 15 24  1  0
 15 16  1  0
 17 11  1  0
 17 16  1  0
 18 11  2  0
 19 20  1  0
 21 22  2  0
 22 41  1  0
 23 22  1  0
 23 26  1  0
 24 21  1  0
 24 25  1  0
 25 23  2  0
 26 27  1  0
 27 28  2  0
 29 32  1  0
 29 28  1  0
 30 29  2  0
 31 30  1  0
 31 26  2  0
 32 33  1  0
 33 34  1  0
 34 35  2  0
 36 35  1  0
 36 40  1  0
 37 36  2  0
 38 33  2  0
 38 37  1  0
 39 38  1  0
 41 42  1  0
 42 45  1  0
 42 44  1  0
 43 41  2  0
 46 47  1  0
 46 21  1  0
 48 46  1  0
 49  6  1  0
 49 50  1  0
 50 51  1  0
 52 54  1  0
 52 51  1  0
 53 64  2  0
 54 59  1  0
 55 63  1  0
 55 65  1  0
 56 62  1  0
 56 58  1  0
 57 63  1  0
 58 57  1  0
 59 58  2  0
 60 54  2  0
 61 60  1  0
 61 56  2  0
 62 55  1  0
 63 53  1  0
 65 67  2  0
 66 65  1  0
 68 66  1  0
 69 78  2  0
 69 74  1  0
 70 66  1  0
 70 74  1  0
 71 70  1  0
 72 73  1  0
 72 71  1  0
 73 69  1  0
 74 75  2  0
 75 76  1  0
 77 76  2  0
 78 77  1  0
 79 53  1  0
 79 84  1  0
 79 80  1  0
 80 83  1  1
 80 81  1  0
 82 80  1  0
 84 87  1  0
 85 89  1  0
 85 84  1  0
 86 85  2  0
 89 88  1  0
 91 89  1  0
 91 92  1  0
 91 90  1  0
M  ISO  4  11 100  19 100  51 101  52 101
M  END
>  <TORSDO>  (15) 
F 20

>  <SCORE>  (15) 
-14.067

>  <name>  (15) 
14

>  <ligand_id>  (15) 
14

>  <original_smiles>  (15) 
[H]c1c([H])c([H])c2c(c1[H])C([H])([H])C([H])([H])C([H])([H])C2([H])N([H])C(=O)C1([H])N(C(=O)C([H])(N([H])C(=O)C([H])(N([H])C([H])([H])[H])C([H])([H])[H])C(C([H])([H])[H])(C([H])([H])[H])C([H])([H])[H])C([H])([H])c2c([H])c(OC([H])([H])C([H])([H])C([H])([H])c3c([H])c([H])c(C4([H])C([H])([H])C([H])([H])C4([H])N([H])C(=O)N4C([H])([H])C([H])([H])C([H])([H])C([H])(n5nc(-c6c([H])c([H])c(Oc7c([H])c([H])c(F)c([H])c7F)c([H])c6[H])c(C(=O)N([H])[H])c5N([H])[H])C4([H])[H])c([H])c3[H])c([H])c([H])c2C1([H])[H]

>  <smiles>  (15) 
[H]c1c([H])c([H])c2c(c1[H])C([H])([H])C([H])([H])C([H])([H])C2([H])N([H])C(=O)C1([H])N(C(=O)C([H])(N([H])C(=O)C([H])(N([H])C([H])([H])[H])C([H])([H])[H])C(C([H])([H])[H])(C([H])([H])[H])C([H])([H])[H])C([H])([H])c2c([H])c(OC([H])([H])C([H])([H])C([H])([H])c3c([H])c([H])c(C4([H])C([H])([H])C([H])([H])C4([H])N([H])C(=O)N4C([H])([H])C([H])([H])C([H])([H])C([H])(n5nc(-c6c([H])c([H])c(Oc7c([H])c([H])c(F)c([H])c7F)c([H])c6[H])c(C(=O)N([H])[H])c5N([H])[H])C4([H])[H])c([H])c3[H])c([H])c([H])c2C1([H])[H]

$$$$
15:0:0
     RDKit          3D

 91100  0  0  1  0  0  0  0  0999 V2000
  -30.2310  -21.2280   19.0270 C   0  0  0  0  0  3  0  0  0  0  0  0
  -28.6420  -22.1110   20.6220 C   0  0  0  0  0  3  0  0  0  0  0  0
  -29.7010  -23.6450   19.0600 C   0  0  0  0  0  3  0  0  0  0  0  0
  -29.3540  -20.9340   20.0930 C   0  0  0  0  0  0  0  0  0  0  0  0
  -30.4020  -22.5400   18.5230 C   0  0  0  0  0  0  0  0  0  0  0  0
  -28.7940  -23.4930   20.1260 C   0  0  0  0  0  0  0  0  0  0  0  0
  -31.3650  -22.7740   17.3750 C   0  0  0  0  0  1  0  0  0  0  0  0
  -30.6250  -14.8810   20.3630 C   0  0  0  0  0  0  0  0  0  0  0  0
  -30.4060  -12.5730   19.3800 C   0  0  0  0  0  2  0  0  0  0  0  0
  -29.4780  -12.5610   18.1470 C   0  0  0  0  0  2  0  0  0  0  0  0
  -28.0160  -12.3530   18.5830 C   0  0  0  0  0  2  0  0  0  0  0  0
  -27.6130  -13.2740   19.7650 C   0  0  0  0  0  3  0  0  0  0  0  0
  -28.6700  -13.2960   20.8890 C   0  0  0  0  0  2  0  0  0  0  0  0
  -29.9480  -13.6720   20.2710 N   0  0  0  0  0  0  0  0  0  0  0  0
  -31.8380  -14.8660   20.1320 O   0  0  0  0  0  0  0  0  0  0  0  0
  -28.8240  -18.2900   19.5280 C   0  0  0  0  0  2  0  0  0  0  0  0
  -30.6120  -18.7150   21.0560 C   0  0  0  0  0  2  0  0  0  0  0  0
  -28.8070  -16.7300   19.9380 C   0  0  0  0  0  2  0  0  0  0  0  0
  -30.5980  -17.1810   21.5150 C   0  0  0  0  0  2  0  0  0  0  0  0
  -29.2680  -19.3770   20.5840 C   0  0  0  0  0  3  0  0  0  0  0  0
  -29.9910  -16.1250   20.6350 N   0  0  0  0  0  0  0  0  0  0  0  0
  -25.2290  -13.8490   20.4900 C   0  0  0  0  0  0  0  0  0  0  0  0
  -24.1670  -13.0700   20.8580 C   0  0  0  0  0  0  0  0  0  0  0  0
  -24.6420  -11.7230   20.8420 C   0  0  0  0  0  0  0  0  0  0  0  0
  -26.2780  -12.9750   20.2640 N   0  0  0  0  0  0  0  0  0  0  0  0
  -25.9350  -11.6910   20.5440 N   0  0  0  0  0  0  0  0  0  0  0  0
  -23.9230  -10.4570   21.0350 C   0  0  0  0  0  0  0  0  0  0  0  0
  -24.3530   -9.4990   21.9790 C   0  0  0  0  0  3  0  0  0  0  0  0
  -23.6320   -8.2990   22.1600 C   0  0  0  0  0  3  0  0  0  0  0  0
  -22.4680   -8.0490   21.3950 C   0  0  0  0  0  0  0  0  0  0  0  0
  -22.0580   -8.9950   20.4400 C   0  0  0  0  0  3  0  0  0  0  0  0
  -22.7790  -10.1870   20.2580 C   0  0  0  0  0  3  0  0  0  0  0  0
  -21.7190   -6.9010   21.4850 O   0  0  0  0  0  0  0  0  0  0  0  0
  -21.6630   -6.1670   22.6430 C   0  0  0  0  0  0  0  0  0  0  0  0
  -21.2180   -6.7280   23.8590 C   0  0  0  0  0  3  0  0  0  0  0  0
  -21.1100   -5.9200   25.0100 C   0  0  0  0  0  3  0  0  0  0  0  0
  -21.4370   -4.5530   24.9430 C   0  0  0  0  0  0  0  0  0  0  0  0
  -21.8760   -3.9910   23.7310 C   0  0  0  0  0  3  0  0  0  0  0  0
  -21.9860   -4.7950   22.5830 C   0  0  0  0  0  0  0  0  0  0  0  0
  -22.3880   -4.2450   21.4130 F   0  0  0  0  0  0  0  0  0  0  0  0
  -21.3270   -3.7740   26.0450 F   0  0  0  0  0  0  0  0  0  0  0  0
  -22.7640  -13.5410   21.1120 C   0  0  0  0  0  0  0  0  0  0  0  0
  -22.0340  -12.8470   21.9760 N   0  0  0  0  0  0  0  0  0  0  0  0
  -22.3270  -14.5600   20.5790 O   0  0  0  0  0  0  0  0  0  0  0  0
  -22.4010  -12.0220   22.4280 H   0  0  0  0  0  0  0  0  0  0  0  0
  -21.0920  -13.1450   22.1900 H   0  0  0  0  0  0  0  0  0  0  0  0
  -25.3810  -15.2180   20.3000 N   0  0  0  0  0  0  0  0  0  0  0  0
  -24.6070  -15.8660   20.4010 H   0  0  0  0  0  0  0  0  0  0  0  0
  -26.2270  -15.6600   19.9650 H   0  0  0  0  0  0  0  0  0  0  0  0
  -27.9760  -24.7980   20.6400 C   0  0  0  0  0  2  0  0  0  0  0  0
  -28.2830  -26.2510   20.2420 O   0  0  0  0  0  0  0  0  0  0  0  0
  -24.6340  -31.8750   23.2390 C   0  0  0  0  0  0  0  0  0  0  0  0
  -27.2200  -27.2070   20.2150 C   0  0  0  0  0  0  0  0  0  0  0  0
  -23.4340  -30.4740   21.6050 C   0  0  0  0  0  3  0  0  0  0  0  0
  -24.8830  -28.9090   20.1820 C   0  0  0  0  0  0  0  0  0  0  0  0
  -25.9820  -30.7620   21.4300 C   0  0  0  0  0  2  0  0  0  0  0  0
  -26.0600  -29.3720   20.7870 C   0  0  0  0  0  0  0  0  0  0  0  0
  -27.2340  -28.5350   20.7870 C   0  0  0  0  0  3  0  0  0  0  0  0
  -26.0240  -26.8400   19.5620 C   0  0  0  0  0  3  0  0  0  0  0  0
  -24.8750  -27.6560   19.5540 C   0  0  0  0  0  3  0  0  0  0  0  0
  -23.6510  -29.7970   20.2260 C   0  0  0  0  0  2  0  0  0  0  0  0
  -24.7030  -31.0580   22.1470 N   0  0  0  0  0  0  0  0  0  0  0  0
  -23.5490  -32.1560   23.7700 O   0  0  0  0  0  0  0  0  0  0  0  0
  -22.7640  -29.4630   22.5680 C   0  0  0  0  0  0  0  0  0  0  0  0
  -21.4370  -29.2860   22.4420 N   0  0  0  0  0  0  0  0  0  0  0  0
  -23.4390  -28.8400   23.3910 O   0  0  0  0  0  0  0  0  0  0  0  0
  -20.9480  -29.8410   21.7530 H   0  0  0  0  0  0  0  0  0  0  0  0
  -18.0590  -28.0820   22.9490 C   0  0  0  0  0  0  0  0  0  0  0  0
  -20.6180  -28.3500   23.2160 C   0  0  0  0  0  3  0  0  0  0  0  0
  -20.7220  -26.9160   22.6450 C   0  0  0  0  0  2  0  0  0  0  0  0
  -19.6200  -26.5890   21.6330 C   0  0  0  0  0  2  0  0  0  0  0  0
  -18.2380  -26.7320   22.2760 C   0  0  0  0  0  2  0  0  0  0  0  0
  -19.1770  -28.8490   23.3760 C   0  0  0  0  0  0  0  0  0  0  0  0
  -18.9540  -30.1120   23.9650 C   0  0  0  0  0  3  0  0  0  0  0  0
  -17.6480  -30.6110   24.1320 C   0  0  0  0  0  3  0  0  0  0  0  0
  -16.5460  -29.8410   23.7210 C   0  0  0  0  0  3  0  0  0  0  0  0
  -16.7520  -28.5800   23.1350 C   0  0  0  0  0  3  0  0  0  0  0  0
  -25.9120  -32.5140   23.8620 C   0  0  0  0  0  3  0  0  0  0  0  0
  -25.5980  -33.9130   24.1910 N   0  0  0  0  0  0  0  0  0  0  0  0
  -25.9240  -34.9680   23.4320 C   0  0  0  0  0  0  0  0  0  0  0  0
  -26.5870  -34.8660   22.3970 O   0  0  0  0  0  0  0  0  0  0  0  0
  -25.0110  -34.0660   24.9990 H   0  0  0  0  0  0  0  0  0  0  0  0
  -24.1880  -36.7580   23.0910 C   0  0  0  0  0  1  0  0  0  0  0  0
  -25.4370  -36.3560   23.8930 C   0  0  0  0  0  3  0  0  0  0  0  0
  -27.5750  -37.2470   24.7080 C   0  0  0  0  0  1  0  0  0  0  0  0
  -26.4650  -37.4120   23.7710 N   0  0  0  0  0  0  0  0  0  0  0  0
  -26.0580  -38.3300   23.9210 H   0  0  0  0  0  0  0  0  0  0  0  0
  -26.4280  -31.7490   25.1420 C   0  0  1  0  0  0  0  0  0  0  0  0
  -25.3330  -31.5130   26.2100 C   0  0  0  0  0  1  0  0  0  0  0  0
  -27.0120  -30.3690   24.7570 C   0  0  0  0  0  1  0  0  0  0  0  0
  -27.5770  -32.5450   25.8020 C   0  0  0  0  0  1  0  0  0  0  0  0
  1  4  1  0
  3  6  2  0
  4  2  2  0
  5  1  2  0
  5  3  1  0
  6  2  1  0
  6 50  1  0
  7  5  1  0
  8 21  1  0
  9 14  1  0
 10 11  1  0
 10  9  1  0
 12 11  1  0
 12 25  1  0
 12 13  1  0
 14  8  1  0
 14 13  1  0
 15  8  2  0
 16 18  1  0
 16 20  1  0
 17 19  1  0
 18 21  1  0
 20  4  1  0
 20 17  1  0
 21 19  1  0
 22 23  2  0
 23 42  1  0
 24 23  1  0
 24 27  1  0
 25 22  1  0
 25 26  1  0
 26 24  2  0
 27 28  1  0
 28 29  2  0
 30 33  1  0
 30 29  1  0
 31 30  2  0
 32 31  1  0
 32 27  2  0
 33 34  1  0
 34 35  1  0
 35 36  2  0
 37 36  1  0
 37 41  1  0
 38 37  2  0
 39 34  2  0
 39 38  1  0
 40 39  1  0
 42 43  1  0
 43 46  1  0
 43 45  1  0
 44 42  2  0
 47 48  1  0
 47 22  1  0
 49 47  1  0
 51 50  1  0
 52 63  2  0
 53 51  1  0
 53 58  1  0
 54 62  1  0
 54 64  1  0
 55 61  1  0
 55 57  1  0
 56 62  1  0
 57 56  1  0
 58 57  2  0
 59 53  2  0
 60 59  1  0
 60 55  2  0
 61 54  1  0
 62 52  1  0
 64 66  2  0
 65 64  1  0
 67 65  1  0
 68 77  2  0
 68 73  1  0
 69 65  1  0
 69 73  1  0
 70 69  1  0
 71 72  1  0
 71 70  1  0
 72 68  1  0
 73 74  2  0
 74 75  1  0
 76 75  2  0
 77 76  1  0
 78 52  1  0
 78 79  1  0
 78 88  1  0
 79 82  1  0
 80 84  1  0
 80 79  1  0
 81 80  2  0
 84 83  1  0
 86 84  1  0
 86 87  1  0
 86 85  1  0
 88 91  1  1
 88 89  1  0
 90 88  1  0
M  ISO  4   8 100  21 100  50 101  51 101
M  END
>  <TORSDO>  (16) 
F 17

>  <SCORE>  (16) 
-15.225

>  <name>  (16) 
15

>  <ligand_id>  (16) 
15

>  <original_smiles>  (16) 
[H]c1c([H])c([H])c2c(c1[H])C([H])([H])C([H])([H])C([H])([H])C2([H])N([H])C(=O)C1([H])N(C(=O)C([H])(N([H])C(=O)C([H])(N([H])C([H])([H])[H])C([H])([H])[H])C(C([H])([H])[H])(C([H])([H])[H])C([H])([H])[H])C([H])([H])c2c([H])c(OC([H])([H])c3c([H])c(C([H])([H])[H])c([H])c(C4([H])C([H])([H])C([H])([H])N(C(=O)N5C([H])([H])C([H])([H])C([H])([H])C([H])(n6nc(-c7c([H])c([H])c(Oc8c([H])c([H])c(F)c([H])c8F)c([H])c7[H])c(C(=O)N([H])[H])c6N([H])[H])C5([H])[H])C([H])([H])C4([H])[H])c3[H])c([H])c([H])c2C1([H])[H]

>  <smiles>  (16) 
[H]c1c([H])c([H])c2c(c1[H])C([H])([H])C([H])([H])C([H])([H])C2([H])N([H])C(=O)C1([H])N(C(=O)C([H])(N([H])C(=O)C([H])(N([H])C([H])([H])[H])C([H])([H])[H])C(C([H])([H])[H])(C([H])([H])[H])C([H])([H])[H])C([H])([H])c2c([H])c(OC([H])([H])c3c([H])c(C([H])([H])[H])c([H])c(C4([H])C([H])([H])C([H])([H])N(C(=O)N5C([H])([H])C([H])([H])C([H])([H])C([H])(n6nc(-c7c([H])c([H])c(Oc8c([H])c([H])c(F)c([H])c8F)c([H])c7[H])c(C(=O)N([H])[H])c6N([H])[H])C5([H])[H])C([H])([H])C4([H])[H])c3[H])c([H])c([H])c2C1([H])[H]

$$$$
16:0:0
     RDKit          3D

 90 98  0  0  1  0  0  0  0  0999 V2000
  -27.9720  -20.3530   19.7760 C   0  0  0  0  0  2  0  0  0  0  0  0
  -29.9100  -20.9730   21.2460 C   0  0  0  0  0  2  0  0  0  0  0  0
  -27.9500  -21.7870   19.2030 C   0  0  0  0  0  2  0  0  0  0  0  0
  -29.8720  -22.4150   20.6930 C   0  0  0  0  0  2  0  0  0  0  0  0
  -29.3820  -19.9260   20.2340 C   0  0  0  0  0  3  0  0  0  0  0  0
  -28.4600  -22.8320   20.2200 C   0  0  0  0  0  3  0  0  0  0  0  0
  -29.3910  -18.4760   20.8010 C   0  0  0  0  0  2  0  0  0  0  0  0
  -30.7920  -17.8230   20.8460 C   0  0  0  0  0  2  0  0  0  0  0  0
  -30.9060  -16.5340   21.6960 C   0  0  0  0  0  2  0  0  0  0  0  0
  -30.7730  -14.4520   20.3080 C   0  0  0  0  0  0  0  0  0  0  0  0
  -30.3790  -12.3670   19.0390 C   0  0  0  0  0  2  0  0  0  0  0  0
  -29.3950  -12.6170   17.8810 C   0  0  0  0  0  2  0  0  0  0  0  0
  -27.9380  -12.4770   18.3610 C   0  0  0  0  0  2  0  0  0  0  0  0
  -27.6560  -13.2800   19.6590 C   0  0  0  0  0  3  0  0  0  0  0  0
  -28.7450  -13.0040   20.7200 C   0  0  0  0  0  2  0  0  0  0  0  0
  -30.0530  -13.3130   20.1190 N   0  0  0  0  0  0  0  0  0  0  0  0
  -31.8420  -14.6750   19.7330 O   0  0  0  0  0  0  0  0  0  0  0  0
  -30.2320  -15.3510   21.1470 N   0  0  0  0  0  0  0  0  0  0  0  0
  -29.3370  -15.1080   21.5450 H   0  0  0  0  0  0  0  0  0  0  0  0
  -25.2830  -13.8940   20.4410 C   0  0  0  0  0  0  0  0  0  0  0  0
  -24.2210  -13.1230   20.8350 C   0  0  0  0  0  0  0  0  0  0  0  0
  -24.6760  -11.7700   20.7810 C   0  0  0  0  0  0  0  0  0  0  0  0
  -26.3160  -13.0090   20.1740 N   0  0  0  0  0  0  0  0  0  0  0  0
  -25.9550  -11.7260   20.4340 N   0  0  0  0  0  0  0  0  0  0  0  0
  -23.9500  -10.5100   20.9840 C   0  0  0  0  0  0  0  0  0  0  0  0
  -24.3980   -9.5380   21.9060 C   0  0  0  0  0  3  0  0  0  0  0  0
  -23.6730   -8.3420   22.0950 C   0  0  0  0  0  3  0  0  0  0  0  0
  -22.4850   -8.1080   21.3620 C   0  0  0  0  0  0  0  0  0  0  0  0
  -22.0570   -9.0670   20.4280 C   0  0  0  0  0  3  0  0  0  0  0  0
  -22.7820  -10.2550   20.2360 C   0  0  0  0  0  3  0  0  0  0  0  0
  -21.7300   -6.9650   21.4620 O   0  0  0  0  0  0  0  0  0  0  0  0
  -21.6930   -6.2260   22.6170 C   0  0  0  0  0  0  0  0  0  0  0  0
  -21.2700   -6.7810   23.8440 C   0  0  0  0  0  3  0  0  0  0  0  0
  -21.1810   -5.9670   24.9910 C   0  0  0  0  0  3  0  0  0  0  0  0
  -21.5040   -4.6000   24.9120 C   0  0  0  0  0  0  0  0  0  0  0  0
  -21.9190   -4.0440   23.6890 C   0  0  0  0  0  3  0  0  0  0  0  0
  -22.0100   -4.8540   22.5450 C   0  0  0  0  0  0  0  0  0  0  0  0
  -22.3910   -4.3090   21.3640 F   0  0  0  0  0  0  0  0  0  0  0  0
  -21.4100   -3.8160   26.0120 F   0  0  0  0  0  0  0  0  0  0  0  0
  -22.8360  -13.6040   21.1530 C   0  0  0  0  0  0  0  0  0  0  0  0
  -22.1300  -12.9010   22.0330 N   0  0  0  0  0  0  0  0  0  0  0  0
  -22.3880  -14.6380   20.6590 O   0  0  0  0  0  0  0  0  0  0  0  0
  -22.5050  -12.0640   22.4540 H   0  0  0  0  0  0  0  0  0  0  0  0
  -21.2020  -13.2050   22.2890 H   0  0  0  0  0  0  0  0  0  0  0  0
  -25.4500  -15.2640   20.2690 N   0  0  0  0  0  0  0  0  0  0  0  0
  -24.6930  -15.9260   20.4050 H   0  0  0  0  0  0  0  0  0  0  0  0
  -26.2990  -15.7000   19.9280 H   0  0  0  0  0  0  0  0  0  0  0  0
  -28.4130  -24.2770   19.6430 C   0  0  0  0  0  2  0  0  0  0  0  0
  -28.3440  -25.3920   20.7150 C   0  0  0  0  0  2  0  0  0  0  0  0
  -28.4010  -26.7210   20.1720 O   0  0  0  0  0  0  0  0  0  0  0  0
  -24.5740  -31.8910   23.2380 C   0  0  0  0  0  0  0  0  0  0  0  0
  -27.2260  -27.4380   20.1830 C   0  0  0  0  0  0  0  0  0  0  0  0
  -23.3700  -30.4780   21.6030 C   0  0  0  0  0  3  0  0  0  0  0  0
  -24.8250  -28.9330   20.1890 C   0  0  0  0  0  0  0  0  0  0  0  0
  -25.8940  -30.8420   21.3990 C   0  0  0  0  0  2  0  0  0  0  0  0
  -25.9830  -29.4680   20.7670 C   0  0  0  0  0  0  0  0  0  0  0  0
  -27.1880  -28.7310   20.7550 C   0  0  0  0  0  3  0  0  0  0  0  0
  -26.0490  -26.9130   19.6060 C   0  0  0  0  0  3  0  0  0  0  0  0
  -24.8530  -27.6550   19.6060 C   0  0  0  0  0  3  0  0  0  0  0  0
  -23.5780  -29.7890   20.2300 C   0  0  0  0  0  2  0  0  0  0  0  0
  -24.6310  -31.0860   22.1390 N   0  0  0  0  0  0  0  0  0  0  0  0
  -23.4940  -32.1640   23.7780 O   0  0  0  0  0  0  0  0  0  0  0  0
  -22.7200  -29.4620   22.5710 C   0  0  0  0  0  0  0  0  0  0  0  0
  -21.3960  -29.2770   22.4430 N   0  0  0  0  0  0  0  0  0  0  0  0
  -23.4050  -28.8430   23.3900 O   0  0  0  0  0  0  0  0  0  0  0  0
  -20.9060  -29.8280   21.7520 H   0  0  0  0  0  0  0  0  0  0  0  0
  -18.0220  -28.0870   22.9510 C   0  0  0  0  0  0  0  0  0  0  0  0
  -20.5810  -28.3420   23.2170 C   0  0  0  0  0  3  0  0  0  0  0  0
  -20.6820  -26.9100   22.6440 C   0  0  0  0  0  2  0  0  0  0  0  0
  -19.5780  -26.5860   21.6330 C   0  0  0  0  0  2  0  0  0  0  0  0
  -18.1960  -26.7350   22.2780 C   0  0  0  0  0  2  0  0  0  0  0  0
  -19.1430  -28.8480   23.3770 C   0  0  0  0  0  0  0  0  0  0  0  0
  -18.9270  -30.1140   23.9640 C   0  0  0  0  0  3  0  0  0  0  0  0
  -17.6250  -30.6190   24.1290 C   0  0  0  0  0  3  0  0  0  0  0  0
  -16.5180  -29.8540   23.7190 C   0  0  0  0  0  3  0  0  0  0  0  0
  -16.7190  -28.5900   23.1360 C   0  0  0  0  0  3  0  0  0  0  0  0
  -25.8610  -32.5270   23.8540 C   0  0  0  0  0  3  0  0  0  0  0  0
  -25.5520  -33.9260   24.1760 N   0  0  0  0  0  0  0  0  0  0  0  0
  -25.8900  -34.9740   23.4140 C   0  0  0  0  0  0  0  0  0  0  0  0
  -26.5670  -34.8650   22.3880 O   0  0  0  0  0  0  0  0  0  0  0  0
  -24.9530  -34.0850   24.9740 H   0  0  0  0  0  0  0  0  0  0  0  0
  -24.1740  -36.7710   23.0270 C   0  0  0  0  0  1  0  0  0  0  0  0
  -25.3990  -36.3650   23.8610 C   0  0  0  0  0  3  0  0  0  0  0  0
  -27.5220  -37.2440   24.7280 C   0  0  0  0  0  1  0  0  0  0  0  0
  -26.4380  -37.4140   23.7640 N   0  0  0  0  0  0  0  0  0  0  0  0
  -26.0320  -38.3350   23.9020 H   0  0  0  0  0  0  0  0  0  0  0  0
  -26.3830  -31.7620   25.1320 C   0  0  1  0  0  0  0  0  0  0  0  0
  -25.2920  -31.5220   26.2020 C   0  0  0  0  0  1  0  0  0  0  0  0
  -26.9700  -30.3850   24.7420 C   0  0  0  0  0  1  0  0  0  0  0  0
  -27.5320  -32.5610   25.7890 C   0  0  0  0  0  1  0  0  0  0  0  0
  1  5  1  0
  3  1  1  0
  3  6  1  0
  4  2  1  0
  5  7  1  0
  5  2  1  0
  6 48  1  0
  6  4  1  0
  7  8  1  0
  8  9  1  0
 10 18  1  0
 11 16  1  0
 12 13  1  0
 12 11  1  0
 14 13  1  0
 14 23  1  0
 14 15  1  0
 16 10  1  0
 16 15  1  0
 17 10  2  0
 18 19  1  0
 18  9  1  0
 20 21  2  0
 21 40  1  0
 22 21  1  0
 22 25  1  0
 23 24  1  0
 23 20  1  0
 24 22  2  0
 25 26  1  0
 26 27  2  0
 28 31  1  0
 28 27  1  0
 29 28  2  0
 30 29  1  0
 30 25  2  0
 31 32  1  0
 32 33  1  0
 33 34  2  0
 35 34  1  0
 35 39  1  0
 36 35  2  0
 37 32  2  0
 37 36  1  0
 38 37  1  0
 40 41  1  0
 41 44  1  0
 41 43  1  0
 42 40  2  0
 45 46  1  0
 45 20  1  0
 47 45  1  0
 48 49  1  0
 50 52  1  0
 50 49  1  0
 51 62  2  0
 52 57  1  0
 53 61  1  0
 53 63  1  0
 54 60  1  0
 54 56  1  0
 55 61  1  0
 56 55  1  0
 57 56  2  0
 58 59  1  0
 58 52  2  0
 59 54  2  0
 60 53  1  0
 61 51  1  0
 63 65  2  0
 64 63  1  0
 66 64  1  0
 67 76  2  0
 67 72  1  0
 68 64  1  0
 68 72  1  0
 69 68  1  0
 70 71  1  0
 70 69  1  0
 71 67  1  0
 72 73  2  0
 73 74  1  0
 75 74  2  0
 76 75  1  0
 77 51  1  0
 77 78  1  0
 77 87  1  0
 78 81  1  0
 79 83  1  0
 79 78  1  0
 80 79  2  0
 83 82  1  0
 85 83  1  0
 85 86  1  0
 85 84  1  0
 87 90  1  1
 87 88  1  0
 89 87  1  0
M  ISO  4  10 100  18 100  49 101  50 101
M  END
>  <TORSDO>  (17) 
F 21

>  <SCORE>  (17) 
-13.597

>  <name>  (17) 
16

>  <ligand_id>  (17) 
16

>  <original_smiles>  (17) 
[H]c1c([H])c([H])c2c(c1[H])C([H])([H])C([H])([H])C([H])([H])C2([H])N([H])C(=O)C1([H])N(C(=O)C([H])(N([H])C(=O)C([H])(N([H])C([H])([H])[H])C([H])([H])[H])C(C([H])([H])[H])(C([H])([H])[H])C([H])([H])[H])C([H])([H])c2c([H])c(OC([H])([H])C([H])([H])C3([H])C([H])([H])C([H])([H])C([H])(C([H])([H])C([H])([H])C([H])([H])N([H])C(=O)N4C([H])([H])C([H])([H])C([H])([H])C([H])(n5nc(-c6c([H])c([H])c(Oc7c([H])c([H])c(F)c([H])c7F)c([H])c6[H])c(C(=O)N([H])[H])c5N([H])[H])C4([H])[H])C([H])([H])C3([H])[H])c([H])c([H])c2C1([H])[H]

>  <smiles>  (17) 
[H]c1c([H])c([H])c2c(c1[H])C([H])([H])C([H])([H])C([H])([H])C2([H])N([H])C(=O)C1([H])N(C(=O)C([H])(N([H])C(=O)C([H])(N([H])C([H])([H])[H])C([H])([H])[H])C(C([H])([H])[H])(C([H])([H])[H])C([H])([H])[H])C([H])([H])c2c([H])c(OC([H])([H])C([H])([H])C3([H])C([H])([H])C([H])([H])C([H])(C([H])([H])C([H])([H])C([H])([H])N([H])C(=O)N4C([H])([H])C([H])([H])C([H])([H])C([H])(n5nc(-c6c([H])c([H])c(Oc7c([H])c([H])c(F)c([H])c7F)c([H])c6[H])c(C(=O)N([H])[H])c5N([H])[H])C4([H])[H])C([H])([H])C3([H])[H])c([H])c([H])c2C1([H])[H]

$$$$
17:0:0
     RDKit          3D

 95104  0  0  1  0  0  0  0  0999 V2000
  -31.0210  -21.7610   20.3870 C   0  0  0  0  0  3  0  0  0  0  0  0
  -29.3680  -20.8370   21.9150 C   0  0  0  0  0  3  0  0  0  0  0  0
  -30.8720  -23.0270   20.9750 C   0  0  0  0  0  3  0  0  0  0  0  0
  -29.2130  -22.1110   22.5010 C   0  0  0  0  0  3  0  0  0  0  0  0
  -30.2680  -20.6520   20.8380 C   0  0  0  0  0  0  0  0  0  0  0  0
  -29.9550  -23.2140   22.0240 C   0  0  0  0  0  0  0  0  0  0  0  0
  -30.4630  -19.3500   20.1350 C   0  0  0  0  0  0  0  0  0  0  0  0
  -31.2620  -19.2590   19.1960 O   0  0  0  0  0  0  0  0  0  0  0  0
  -28.1880  -17.6240   18.6420 C   0  0  0  0  0  2  0  0  0  0  0  0
  -28.1820  -18.1670   20.0770 C   0  0  0  0  0  2  0  0  0  0  0  0
  -29.4590  -16.7760   18.5050 C   0  0  0  0  0  2  0  0  0  0  0  0
  -29.6420  -18.0970   20.5670 C   0  0  0  0  0  3  0  0  0  0  0  0
  -30.1670  -16.8130   19.8760 C   0  0  0  0  0  3  0  0  0  0  0  0
  -30.6800  -14.4840   20.4460 C   0  0  0  0  0  0  0  0  0  0  0  0
  -30.3760  -12.3150   19.3640 C   0  0  0  0  0  2  0  0  0  0  0  0
  -29.4720  -12.5310   18.1310 C   0  0  0  0  0  2  0  0  0  0  0  0
  -27.9840  -12.4430   18.5260 C   0  0  0  0  0  2  0  0  0  0  0  0
  -27.6250  -13.2880   19.7820 C   0  0  0  0  0  3  0  0  0  0  0  0
  -28.6560  -13.0680   20.9170 C   0  0  0  0  0  2  0  0  0  0  0  0
  -29.9980  -13.3150   20.3680 N   0  0  0  0  0  0  0  0  0  0  0  0
  -31.8530  -14.6060   20.0860 O   0  0  0  0  0  0  0  0  0  0  0  0
  -29.9030  -15.5650   20.6100 N   0  0  0  0  0  0  0  0  0  0  0  0
  -28.9510  -15.3900   20.8970 H   0  0  0  0  0  0  0  0  0  0  0  0
  -25.2130  -13.9060   20.4380 C   0  0  0  0  0  0  0  0  0  0  0  0
  -24.1390  -13.1380   20.8040 C   0  0  0  0  0  0  0  0  0  0  0  0
  -24.6020  -11.7870   20.8050 C   0  0  0  0  0  0  0  0  0  0  0  0
  -26.2630  -13.0230   20.2400 N   0  0  0  0  0  0  0  0  0  0  0  0
  -25.8980  -11.7450   20.5200 N   0  0  0  0  0  0  0  0  0  0  0  0
  -23.8740  -10.5280   21.0020 C   0  0  0  0  0  0  0  0  0  0  0  0
  -24.2970   -9.5730   21.9510 C   0  0  0  0  0  3  0  0  0  0  0  0
  -23.5710   -8.3760   22.1340 C   0  0  0  0  0  3  0  0  0  0  0  0
  -22.4090   -8.1260   21.3680 C   0  0  0  0  0  0  0  0  0  0  0  0
  -22.0050   -9.0720   20.4080 C   0  0  0  0  0  3  0  0  0  0  0  0
  -22.7310  -10.2600   20.2230 C   0  0  0  0  0  3  0  0  0  0  0  0
  -21.6530   -6.9830   21.4620 O   0  0  0  0  0  0  0  0  0  0  0  0
  -21.5960   -6.2500   22.6190 C   0  0  0  0  0  0  0  0  0  0  0  0
  -21.1650   -6.8160   23.8380 C   0  0  0  0  0  3  0  0  0  0  0  0
  -21.0530   -6.0080   24.9890 C   0  0  0  0  0  3  0  0  0  0  0  0
  -21.3650   -4.6370   24.9200 C   0  0  0  0  0  0  0  0  0  0  0  0
  -21.7890   -4.0710   23.7050 C   0  0  0  0  0  3  0  0  0  0  0  0
  -21.9010   -4.8760   22.5580 C   0  0  0  0  0  0  0  0  0  0  0  0
  -22.2900   -4.3200   21.3860 F   0  0  0  0  0  0  0  0  0  0  0  0
  -21.2530   -3.8600   26.0230 F   0  0  0  0  0  0  0  0  0  0  0  0
  -22.7370  -13.6200   21.0440 C   0  0  0  0  0  0  0  0  0  0  0  0
  -21.9900  -12.9430   21.9080 N   0  0  0  0  0  0  0  0  0  0  0  0
  -22.3100  -14.6370   20.4970 O   0  0  0  0  0  0  0  0  0  0  0  0
  -22.3450  -12.1250   22.3830 H   0  0  0  0  0  0  0  0  0  0  0  0
  -21.0500  -13.2550   22.1040 H   0  0  0  0  0  0  0  0  0  0  0  0
  -25.3760  -15.2740   20.2390 N   0  0  0  0  0  0  0  0  0  0  0  0
  -24.6010  -15.9220   20.3320 H   0  0  0  0  0  0  0  0  0  0  0  0
  -26.2150  -15.7080   19.8790 H   0  0  0  0  0  0  0  0  0  0  0  0
  -29.7560  -24.6070   22.6040 C   0  0  0  0  0  2  0  0  0  0  0  0
  -28.4630  -25.2840   22.1080 C   0  0  0  0  0  2  0  0  0  0  0  0
  -28.3470  -25.4100   20.5680 C   0  0  0  0  0  2  0  0  0  0  0  0
  -28.3940  -26.7690   20.1240 O   0  0  0  0  0  0  0  0  0  0  0  0
  -24.6160  -31.9050   23.2070 C   0  0  0  0  0  0  0  0  0  0  0  0
  -27.2100  -27.4680   20.1250 C   0  0  0  0  0  0  0  0  0  0  0  0
  -23.3810  -30.4970   21.5900 C   0  0  0  0  0  3  0  0  0  0  0  0
  -24.8100  -28.9560   20.1510 C   0  0  0  0  0  0  0  0  0  0  0  0
  -25.8980  -30.8650   21.3430 C   0  0  0  0  0  2  0  0  0  0  0  0
  -25.9750  -29.4920   20.7130 C   0  0  0  0  0  0  0  0  0  0  0  0
  -27.1780  -28.7590   20.6920 C   0  0  0  0  0  3  0  0  0  0  0  0
  -26.0310  -26.9420   19.5490 C   0  0  0  0  0  3  0  0  0  0  0  0
  -24.8300  -27.6770   19.5660 C   0  0  0  0  0  3  0  0  0  0  0  0
  -23.5640  -29.8090   20.2100 C   0  0  0  0  0  2  0  0  0  0  0  0
  -24.6510  -31.1040   22.1040 N   0  0  0  0  0  0  0  0  0  0  0  0
  -23.5460  -32.1760   23.7680 O   0  0  0  0  0  0  0  0  0  0  0  0
  -22.7480  -29.4800   22.5650 C   0  0  0  0  0  0  0  0  0  0  0  0
  -21.4250  -29.2870   22.4510 N   0  0  0  0  0  0  0  0  0  0  0  0
  -23.4440  -28.8660   23.3800 O   0  0  0  0  0  0  0  0  0  0  0  0
  -20.9250  -29.8300   21.7610 H   0  0  0  0  0  0  0  0  0  0  0  0
  -18.0670  -28.0620   22.9750 C   0  0  0  0  0  0  0  0  0  0  0  0
  -20.6220  -28.3520   23.2380 C   0  0  0  0  0  3  0  0  0  0  0  0
  -20.7420  -26.9140   22.6810 C   0  0  0  0  0  2  0  0  0  0  0  0
  -19.6390  -26.5660   21.6730 C   0  0  0  0  0  2  0  0  0  0  0  0
  -18.2570  -26.7060   22.3170 C   0  0  0  0  0  2  0  0  0  0  0  0
  -19.1790  -28.8410   23.3940 C   0  0  0  0  0  0  0  0  0  0  0  0
  -18.9470  -30.1110   23.9660 C   0  0  0  0  0  3  0  0  0  0  0  0
  -17.6380  -30.6010   24.1280 C   0  0  0  0  0  3  0  0  0  0  0  0
  -16.5410  -29.8180   23.7280 C   0  0  0  0  0  3  0  0  0  0  0  0
  -16.7570  -28.5520   23.1570 C   0  0  0  0  0  3  0  0  0  0  0  0
  -25.9160  -32.5350   23.8010 C   0  0  0  0  0  3  0  0  0  0  0  0
  -25.6060  -33.9260   24.1570 N   0  0  0  0  0  0  0  0  0  0  0  0
  -25.9200  -34.9900   23.4050 C   0  0  0  0  0  0  0  0  0  0  0  0
  -26.5660  -34.9040   22.3590 O   0  0  0  0  0  0  0  0  0  0  0  0
  -25.0290  -34.0660   24.9730 H   0  0  0  0  0  0  0  0  0  0  0  0
  -24.1740  -36.7740   23.1110 C   0  0  0  0  0  1  0  0  0  0  0  0
  -25.4330  -36.3680   23.8930 C   0  0  0  0  0  3  0  0  0  0  0  0
  -27.5790  -37.2500   24.6950 C   0  0  0  0  0  1  0  0  0  0  0  0
  -26.4590  -37.4280   23.7740 N   0  0  0  0  0  0  0  0  0  0  0  0
  -26.0510  -38.3440   23.9420 H   0  0  0  0  0  0  0  0  0  0  0  0
  -26.4740  -31.7510   25.0500 C   0  0  1  0  0  0  0  0  0  0  0  0
  -25.4080  -31.4770   26.1350 C   0  0  0  0  0  1  0  0  0  0  0  0
  -27.0750  -30.3910   24.6170 C   0  0  0  0  0  1  0  0  0  0  0  0
  -27.6230  -32.5560   25.7020 C   0  0  0  0  0  1  0  0  0  0  0  0
  1  5  2  0
  1  3  1  0
  2  4  2  0
  3  6  2  0
  5  2  1  0
  6  4  1  0
  6 52  1  0
  7  5  1  0
  8  7  2  0
  9 10  1  0
 10 12  1  0
 11  9  1  0
 11 13  1  0
 12  7  1  0
 13 12  1  0
 13 22  1  0
 14 22  1  0
 15 20  1  0
 16 17  1  0
 16 15  1  0
 18 17  1  0
 18 27  1  0
 18 19  1  0
 20 14  1  0
 20 19  1  0
 21 14  2  0
 22 23  1  0
 24 25  2  0
 25 26  1  0
 25 44  1  0
 26 29  1  0
 27 24  1  0
 27 28  1  0
 28 26  2  0
 29 30  1  0
 30 31  2  0
 32 35  1  0
 32 31  1  0
 33 32  2  0
 34 33  1  0
 34 29  2  0
 35 36  1  0
 36 37  1  0
 37 38  2  0
 39 38  1  0
 39 43  1  0
 40 39  2  0
 41 36  2  0
 41 40  1  0
 42 41  1  0
 44 45  1  0
 45 48  1  0
 45 47  1  0
 46 44  2  0
 49 50  1  0
 49 24  1  0
 51 49  1  0
 53 52  1  0
 54 53  1  0
 55 57  1  0
 55 54  1  0
 56 67  2  0
 57 62  1  0
 58 66  1  0
 58 68  1  0
 59 65  1  0
 59 61  1  0
 60 66  1  0
 61 60  1  0
 62 61  2  0
 63 64  1  0
 63 57  2  0
 64 59  2  0
 65 58  1  0
 66 56  1  0
 68 70  2  0
 69 68  1  0
 71 69  1  0
 72 81  2  0
 72 77  1  0
 73 69  1  0
 73 77  1  0
 74 73  1  0
 75 76  1  0
 75 74  1  0
 76 72  1  0
 77 78  2  0
 78 79  1  0
 80 79  2  0
 81 80  1  0
 82 56  1  0
 82 83  1  0
 82 92  1  0
 83 86  1  0
 84 88  1  0
 84 83  1  0
 85 84  2  0
 88 87  1  0
 90 88  1  0
 90 91  1  0
 90 89  1  0
 92 95  1  1
 92 93  1  0
 94 92  1  0
M  ISO  4  14 100  22 100  54 101  55 101
M  END
>  <TORSDO>  (18) 
F 21

>  <SCORE>  (18) 
-13.681

>  <name>  (18) 
17

>  <ligand_id>  (18) 
17

>  <original_smiles>  (18) 
[H]c1c([H])c([H])c2c(c1[H])C([H])([H])C([H])([H])C([H])([H])C2([H])N([H])C(=O)C1([H])N(C(=O)C([H])(N([H])C(=O)C([H])(N([H])C([H])([H])[H])C([H])([H])[H])C(C([H])([H])[H])(C([H])([H])[H])C([H])([H])[H])C([H])([H])c2c([H])c(OC([H])([H])C([H])([H])C([H])([H])c3c([H])c([H])c(C(=O)C4([H])C([H])([H])C([H])([H])C([H])([H])C4([H])N([H])C(=O)N4C([H])([H])C([H])([H])C([H])([H])C([H])(n5nc(-c6c([H])c([H])c(Oc7c([H])c([H])c(F)c([H])c7F)c([H])c6[H])c(C(=O)N([H])[H])c5N([H])[H])C4([H])[H])c([H])c3[H])c([H])c([H])c2C1([H])[H]

>  <smiles>  (18) 
[H]c1c([H])c([H])c2c(c1[H])C([H])([H])C([H])([H])C([H])([H])C2([H])N([H])C(=O)C1([H])N(C(=O)C([H])(N([H])C(=O)C([H])(N([H])C([H])([H])[H])C([H])([H])[H])C(C([H])([H])[H])(C([H])([H])[H])C([H])([H])[H])C([H])([H])c2c([H])c(OC([H])([H])C([H])([H])C([H])([H])c3c([H])c([H])c(C(=O)C4([H])C([H])([H])C([H])([H])C([H])([H])C4([H])N([H])C(=O)N4C([H])([H])C([H])([H])C([H])([H])C([H])(n5nc(-c6c([H])c([H])c(Oc7c([H])c([H])c(F)c([H])c7F)c([H])c6[H])c(C(=O)N([H])[H])c5N([H])[H])C4([H])[H])c([H])c3[H])c([H])c([H])c2C1([H])[H]

$$$$
18:0:0
     RDKit          3D

 91100  0  0  1  0  0  0  0  0999 V2000
  -31.8970  -20.1630   19.8430 C   0  0  0  0  0  2  0  0  0  0  0  0
  -31.3860  -17.9820   21.2070 C   0  0  0  0  0  2  0  0  0  0  0  0
  -29.2300  -18.4770   20.2070 C   0  0  0  0  0  2  0  0  0  0  0  0
  -31.0910  -21.4590   19.6480 C   0  0  0  0  0  2  0  0  0  0  0  0
  -31.2360  -19.5240   21.0670 C   0  0  0  0  0  3  0  0  0  0  0  0
  -30.3390  -17.3320   20.2780 C   0  0  0  0  0  3  0  0  0  0  0  0
  -29.7540  -19.8480   20.8410 C   0  0  0  0  0  3  0  0  0  0  0  0
  -29.6890  -21.1620   20.0380 N   0  0  1  0  0  4  0  0  0  0  0  0
  -29.1910  -20.9550   19.1820 H   0  0  0  0  0  0  0  0  0  0  0  0
  -30.6380  -14.7270   20.3680 C   0  0  0  0  0  0  0  0  0  0  0  0
  -30.3680  -12.4660   19.3540 C   0  0  0  0  0  2  0  0  0  0  0  0
  -29.4370  -12.5710   18.1280 C   0  0  0  0  0  2  0  0  0  0  0  0
  -27.9670  -12.4040   18.5570 C   0  0  0  0  0  2  0  0  0  0  0  0
  -27.5990  -13.2840   19.7800 C   0  0  0  0  0  3  0  0  0  0  0  0
  -28.6620  -13.1980   20.8990 C   0  0  0  0  0  2  0  0  0  0  0  0
  -29.9680  -13.5270   20.3080 N   0  0  0  0  0  0  0  0  0  0  0  0
  -31.8110  -14.7950   19.9960 O   0  0  0  0  0  0  0  0  0  0  0  0
  -29.9340  -15.8920   20.6190 N   0  0  0  0  0  0  0  0  0  0  0  0
  -28.9800  -15.7600   20.9210 H   0  0  0  0  0  0  0  0  0  0  0  0
  -25.2050  -13.8710   20.5030 C   0  0  0  0  0  0  0  0  0  0  0  0
  -24.1390  -13.0970   20.8780 C   0  0  0  0  0  0  0  0  0  0  0  0
  -24.6060  -11.7470   20.8550 C   0  0  0  0  0  0  0  0  0  0  0  0
  -26.2530  -12.9940   20.2730 N   0  0  0  0  0  0  0  0  0  0  0  0
  -25.8970  -11.7110   20.5460 N   0  0  0  0  0  0  0  0  0  0  0  0
  -23.8800  -10.4830   21.0480 C   0  0  0  0  0  0  0  0  0  0  0  0
  -24.3230   -9.5110   21.9700 C   0  0  0  0  0  3  0  0  0  0  0  0
  -23.5970   -8.3130   22.1520 C   0  0  0  0  0  3  0  0  0  0  0  0
  -22.4150   -8.0800   21.4110 C   0  0  0  0  0  0  0  0  0  0  0  0
  -21.9910   -9.0400   20.4780 C   0  0  0  0  0  3  0  0  0  0  0  0
  -22.7170  -10.2300   20.2930 C   0  0  0  0  0  3  0  0  0  0  0  0
  -21.6570   -6.9350   21.5050 O   0  0  0  0  0  0  0  0  0  0  0  0
  -21.6360   -6.1800   22.6490 C   0  0  0  0  0  0  0  0  0  0  0  0
  -21.2560   -6.7220   23.8970 C   0  0  0  0  0  3  0  0  0  0  0  0
  -21.1790   -5.8930   25.0330 C   0  0  0  0  0  3  0  0  0  0  0  0
  -21.4720   -4.5200   24.9250 C   0  0  0  0  0  0  0  0  0  0  0  0
  -21.8460   -3.9760   23.6840 C   0  0  0  0  0  3  0  0  0  0  0  0
  -21.9250   -4.8020   22.5510 C   0  0  0  0  0  0  0  0  0  0  0  0
  -22.2640   -4.2670   21.3520 F   0  0  0  0  0  0  0  0  0  0  0  0
  -21.3930   -3.7230   26.0150 F   0  0  0  0  0  0  0  0  0  0  0  0
  -22.7400  -13.5720   21.1460 C   0  0  0  0  0  0  0  0  0  0  0  0
  -22.0090  -12.8850   22.0160 N   0  0  0  0  0  0  0  0  0  0  0  0
  -22.3030  -14.5940   20.6170 O   0  0  0  0  0  0  0  0  0  0  0  0
  -22.3710  -12.0620   22.4750 H   0  0  0  0  0  0  0  0  0  0  0  0
  -21.0700  -13.1890   22.2290 H   0  0  0  0  0  0  0  0  0  0  0  0
  -25.3660  -15.2400   20.3110 N   0  0  0  0  0  0  0  0  0  0  0  0
  -24.5920  -15.8920   20.3850 H   0  0  0  0  0  0  0  0  0  0  0  0
  -26.2050  -15.6640   19.9350 H   0  0  0  0  0  0  0  0  0  0  0  0
  -28.9710  -22.3670   20.6740 C   0  0  0  0  0  2  0  0  0  0  0  0
  -29.0830  -23.8430   20.0130 C   0  0  0  0  0  3  0  0  0  0  0  0
  -28.1880  -25.0340   20.6260 C   0  0  0  0  0  3  0  0  0  0  0  0
  -28.3590  -26.4590   20.2060 O   0  0  0  0  0  0  0  0  0  0  0  0
  -24.6100  -31.8820   23.2410 C   0  0  0  0  0  0  0  0  0  0  0  0
  -27.2350  -27.3080   20.2040 C   0  0  0  0  0  0  0  0  0  0  0  0
  -23.4090  -30.4780   21.6050 C   0  0  0  0  0  3  0  0  0  0  0  0
  -24.8640  -28.9200   20.1880 C   0  0  0  0  0  0  0  0  0  0  0  0
  -25.9490  -30.7970   21.4210 C   0  0  0  0  0  2  0  0  0  0  0  0
  -26.0320  -29.4140   20.7830 C   0  0  0  0  0  0  0  0  0  0  0  0
  -27.2220  -28.6210   20.7770 C   0  0  0  0  0  3  0  0  0  0  0  0
  -26.0430  -26.8720   19.5840 C   0  0  0  0  0  3  0  0  0  0  0  0
  -24.8720  -27.6550   19.5780 C   0  0  0  0  0  3  0  0  0  0  0  0
  -23.6260  -29.7950   20.2280 C   0  0  0  0  0  2  0  0  0  0  0  0
  -24.6760  -31.0710   22.1450 N   0  0  0  0  0  0  0  0  0  0  0  0
  -23.5260  -32.1610   23.7730 O   0  0  0  0  0  0  0  0  0  0  0  0
  -22.7460  -29.4650   22.5680 C   0  0  0  0  0  0  0  0  0  0  0  0
  -21.4200  -29.2880   22.4410 N   0  0  0  0  0  0  0  0  0  0  0  0
  -23.4240  -28.8400   23.3880 O   0  0  0  0  0  0  0  0  0  0  0  0
  -20.9330  -29.8430   21.7510 H   0  0  0  0  0  0  0  0  0  0  0  0
  -18.0440  -28.0890   22.9380 C   0  0  0  0  0  0  0  0  0  0  0  0
  -20.6010  -28.3550   23.2150 C   0  0  0  0  0  3  0  0  0  0  0  0
  -20.7080  -26.9210   22.6470 C   0  0  0  0  0  2  0  0  0  0  0  0
  -19.6100  -26.5900   21.6320 C   0  0  0  0  0  2  0  0  0  0  0  0
  -18.2250  -26.7370   22.2700 C   0  0  0  0  0  2  0  0  0  0  0  0
  -19.1600  -28.8550   23.3680 C   0  0  0  0  0  0  0  0  0  0  0  0
  -18.9380  -30.1210   23.9540 C   0  0  0  0  0  3  0  0  0  0  0  0
  -17.6320  -30.6200   24.1130 C   0  0  0  0  0  3  0  0  0  0  0  0
  -16.5300  -29.8530   23.6980 C   0  0  0  0  0  3  0  0  0  0  0  0
  -16.7370  -28.5880   23.1180 C   0  0  0  0  0  3  0  0  0  0  0  0
  -25.8910  -32.5190   23.8650 C   0  0  0  0  0  3  0  0  0  0  0  0
  -26.4070  -31.7510   25.1430 C   0  0  1  0  0  0  0  0  0  0  0  0
  -25.3130  -31.5180   26.2110 C   0  0  0  0  0  1  0  0  0  0  0  0
  -26.9880  -30.3700   24.7560 C   0  0  0  0  0  1  0  0  0  0  0  0
  -27.5560  -32.5470   25.8060 C   0  0  0  0  0  1  0  0  0  0  0  0
  -25.5780  -33.9170   24.1920 N   0  0  0  0  0  0  0  0  0  0  0  0
  -25.9120  -34.9700   23.4340 C   0  0  0  0  0  0  0  0  0  0  0  0
  -26.5830  -34.8670   22.4040 O   0  0  0  0  0  0  0  0  0  0  0  0
  -24.9770  -34.0710   24.9880 H   0  0  0  0  0  0  0  0  0  0  0  0
  -24.1790  -36.7620   23.0820 C   0  0  0  0  0  1  0  0  0  0  0  0
  -25.4230  -36.3590   23.8910 C   0  0  0  0  0  3  0  0  0  0  0  0
  -27.5580  -37.2460   24.7160 C   0  0  0  0  0  1  0  0  0  0  0  0
  -26.4530  -37.4120   23.7760 N   0  0  0  0  0  0  0  0  0  0  0  0
  -26.0450  -38.3320   23.9260 H   0  0  0  0  0  0  0  0  0  0  0  0
  3  6  1  0
  4  1  1  0
  4  8  1  0
  5  1  1  0
  5  2  1  0
  6 18  1  0
  6  2  1  0
  7  3  1  0
  7  5  1  0
  8 48  1  0
  8  7  1  0
  8  9  1  6
 10 18  1  0
 11 16  1  0
 12 13  1  0
 12 11  1  0
 14 13  1  0
 14 23  1  0
 14 15  1  0
 16 10  1  0
 16 15  1  0
 17 10  2  0
 18 19  1  0
 20 21  2  0
 21 40  1  0
 22 21  1  0
 22 25  1  0
 23 20  1  0
 23 24  1  0
 24 22  2  0
 25 26  1  0
 26 27  2  0
 28 31  1  0
 28 27  1  0
 29 28  2  0
 30 29  1  0
 30 25  2  0
 31 32  1  0
 32 33  1  0
 33 34  2  0
 35 34  1  0
 35 39  1  0
 36 35  2  0
 37 32  2  0
 37 36  1  0
 38 37  1  0
 40 41  1  0
 41 44  1  0
 41 43  1  0
 42 40  2  0
 45 46  1  0
 45 20  1  0
 47 45  1  0
 49 50  2  0
 49 48  1  0
 51 50  1  0
 52 63  2  0
 53 51  1  0
 53 58  1  0
 54 62  1  0
 54 64  1  0
 55 61  1  0
 55 57  1  0
 56 62  1  0
 57 56  1  0
 58 57  2  0
 59 53  2  0
 60 59  1  0
 60 55  2  0
 61 54  1  0
 62 52  1  0
 64 66  2  0
 65 64  1  0
 67 65  1  0
 68 77  2  0
 68 73  1  0
 69 65  1  0
 69 73  1  0
 70 69  1  0
 71 72  1  0
 71 70  1  0
 72 68  1  0
 73 74  2  0
 74 75  1  0
 76 75  2  0
 77 76  1  0
 78 52  1  0
 78 83  1  0
 78 79  1  0
 79 82  1  1
 79 80  1  0
 81 79  1  0
 83 86  1  0
 84 88  1  0
 84 83  1  0
 85 84  2  0
 88 87  1  0
 90 88  1  0
 90 91  1  0
 90 89  1  0
M  ISO  4  10 100  18 100  50 101  51 101
M  END
>  <TORSDO>  (19) 
F 19

>  <SCORE>  (19) 
-14.333

>  <name>  (19) 
18

>  <ligand_id>  (19) 
18

>  <original_smiles>  (19) 
[H]c1c([H])c([H])c2c(c1[H])C([H])([H])C([H])([H])C([H])([H])C2([H])N([H])C(=O)C1([H])N(C(=O)C([H])(N([H])C(=O)C([H])(N([H])C([H])([H])[H])C([H])([H])[H])C(C([H])([H])[H])(C([H])([H])[H])C([H])([H])[H])C([H])([H])c2c([H])c(OC([H])([H])C([H])([H])C([H])([H])[N+]3([H])C([H])([H])C([H])([H])C4([H])C([H])([H])C([H])(N([H])C(=O)N5C([H])([H])C([H])([H])C([H])([H])C([H])(n6nc(-c7c([H])c([H])c(Oc8c([H])c([H])c(F)c([H])c8F)c([H])c7[H])c(C(=O)N([H])[H])c6N([H])[H])C5([H])[H])C([H])([H])C43[H])c([H])c([H])c2C1([H])[H]

>  <smiles>  (19) 
[H]c1c([H])c([H])c2c(c1[H])C([H])([H])C([H])([H])C([H])([H])C2([H])N([H])C(=O)C1([H])N(C(=O)C([H])(N([H])C(=O)C([H])(N([H])C([H])([H])[H])C([H])([H])[H])C(C([H])([H])[H])(C([H])([H])[H])C([H])([H])[H])C([H])([H])c2c([H])c(OC([H])([H])C([H])([H])C([H])([H])[N+]3([H])C([H])([H])C([H])([H])C4([H])C([H])([H])C([H])(N([H])C(=O)N5C([H])([H])C([H])([H])C([H])([H])C([H])(n6nc(-c7c([H])c([H])c(Oc8c([H])c([H])c(F)c([H])c8F)c([H])c7[H])c(C(=O)N([H])[H])c6N([H])[H])C5([H])[H])C([H])([H])C43[H])c([H])c([H])c2C1([H])[H]

$$$$
19:0:0
     RDKit          3D

 94102  0  0  1  0  0  0  0  0999 V2000
  -27.4590  -20.7490   19.7410 C   0  0  0  0  0  3  0  0  0  0  0  0
  -28.7310  -20.1720   19.9360 C   0  0  0  0  0  3  0  0  0  0  0  0
  -27.1740  -22.0260   20.2640 C   0  0  0  0  0  3  0  0  0  0  0  0
  -29.4120  -22.1170   21.2350 C   0  0  0  0  0  3  0  0  0  0  0  0
  -29.7170  -20.8610   20.6760 C   0  0  0  0  0  0  0  0  0  0  0  0
  -28.1560  -22.7180   21.0010 C   0  0  0  0  0  0  0  0  0  0  0  0
  -31.1290  -20.3050   20.8000 C   0  0  0  0  0  2  0  0  0  0  0  0
  -31.3070  -18.8880   20.2360 C   0  0  0  0  0  2  0  0  0  0  0  0
  -32.6690  -18.6910   19.5340 C   0  0  0  0  0  2  0  0  0  0  0  0
  -33.6130  -19.6730   17.4270 C   0  0  0  0  0  0  0  0  0  0  0  0
  -34.6310  -20.9720   15.5850 C   0  0  0  0  0  2  0  0  0  0  0  0
  -36.0420  -21.4680   15.9610 C   0  0  0  0  0  2  0  0  0  0  0  0
  -35.9740  -22.7920   16.7470 C   0  0  0  0  0  2  0  0  0  0  0  0
  -34.9580  -22.7400   17.9170 C   0  0  0  0  0  3  0  0  0  0  0  0
  -33.6000  -22.1930   17.4200 C   0  0  0  0  0  2  0  0  0  0  0  0
  -33.8320  -20.8660   16.8140 N   0  0  0  0  0  0  0  0  0  0  0  0
  -33.9970  -18.5890   16.9750 O   0  0  0  0  0  0  0  0  0  0  0  0
  -32.9340  -19.7630   18.5760 N   0  0  0  0  0  0  0  0  0  0  0  0
  -32.6070  -20.6860   18.8190 H   0  0  0  0  0  0  0  0  0  0  0  0
  -35.0780  -24.4280   19.8610 C   0  0  0  0  0  0  0  0  0  0  0  0
  -34.8350  -25.7760   19.9180 C   0  0  0  0  0  0  0  0  0  0  0  0
  -34.4320  -26.1590   18.6030 C   0  0  0  0  0  0  0  0  0  0  0  0
  -34.8110  -24.0490   18.5550 N   0  0  0  0  0  0  0  0  0  0  0  0
  -34.3680  -25.0950   17.8120 N   0  0  0  0  0  0  0  0  0  0  0  0
  -34.1550  -27.4830   18.0350 C   0  0  0  0  0  0  0  0  0  0  0  0
  -32.8320  -27.9520   17.8680 C   0  0  0  0  0  3  0  0  0  0  0  0
  -32.5900  -29.2380   17.3370 C   0  0  0  0  0  3  0  0  0  0  0  0
  -33.6750  -30.0700   16.9700 C   0  0  0  0  0  0  0  0  0  0  0  0
  -34.9890  -29.5880   17.1140 C   0  0  0  0  0  3  0  0  0  0  0  0
  -35.2280  -28.3060   17.6370 C   0  0  0  0  0  3  0  0  0  0  0  0
  -33.5360  -31.3210   16.4210 O   0  0  0  0  0  0  0  0  0  0  0  0
  -32.7960  -32.2970   17.0380 C   0  0  0  0  0  0  0  0  0  0  0  0
  -33.1760  -32.8460   18.2820 C   0  0  0  0  0  3  0  0  0  0  0  0
  -32.4240  -33.8980   18.8450 C   0  0  0  0  0  3  0  0  0  0  0  0
  -31.3020  -34.4050   18.1650 C   0  0  0  0  0  0  0  0  0  0  0  0
  -30.9260  -33.8620   16.9240 C   0  0  0  0  0  3  0  0  0  0  0  0
  -31.6730  -32.8120   16.3610 C   0  0  0  0  0  0  0  0  0  0  0  0
  -31.3190  -32.3070   15.1540 F   0  0  0  0  0  0  0  0  0  0  0  0
  -30.5850  -35.4210   18.7030 F   0  0  0  0  0  0  0  0  0  0  0  0
  -35.0610  -26.6770   21.0960 C   0  0  0  0  0  0  0  0  0  0  0  0
  -34.1690  -27.6380   21.3140 N   0  0  0  0  0  0  0  0  0  0  0  0
  -36.0060  -26.5010   21.8630 O   0  0  0  0  0  0  0  0  0  0  0  0
  -33.3780  -27.7640   20.7000 H   0  0  0  0  0  0  0  0  0  0  0  0
  -34.2810  -28.2530   22.1070 H   0  0  0  0  0  0  0  0  0  0  0  0
  -35.5180  -23.5010   20.8010 N   0  0  0  0  0  0  0  0  0  0  0  0
  -35.7750  -23.7620   21.7460 H   0  0  0  0  0  0  0  0  0  0  0  0
  -35.6980  -22.5270   20.5940 H   0  0  0  0  0  0  0  0  0  0  0  0
  -27.9390  -24.1600   21.4180 C   0  0  0  0  0  2  0  0  0  0  0  0
  -27.6610  -24.9100   20.1840 N   0  0  0  0  0  4  0  0  0  0  0  0
  -27.0640  -24.3300   19.6160 H   0  0  0  0  0  0  0  0  0  0  0  0
  -28.5350  -25.0120   19.6940 H   0  0  0  0  0  0  0  0  0  0  0  0
  -27.0360  -26.2350   20.3530 C   0  0  0  0  0  2  0  0  0  0  0  0
  -26.0740  -26.5290   19.1890 C   0  0  0  0  0  2  0  0  0  0  0  0
  -25.4290  -27.7790   19.3860 O   0  0  0  0  0  0  0  0  0  0  0  0
  -26.2980  -31.8830   25.0900 C   0  0  0  0  0  0  0  0  0  0  0  0
  -24.9720  -28.0710   20.6500 C   0  0  0  0  0  0  0  0  0  0  0  0
  -24.6740  -30.0360   25.3520 C   0  0  0  0  0  3  0  0  0  0  0  0
  -24.0400  -28.8120   23.2100 C   0  0  0  0  0  0  0  0  0  0  0  0
  -25.1300  -31.0580   23.0550 C   0  0  0  0  0  2  0  0  0  0  0  0
  -24.8170  -29.7040   22.4600 C   0  0  0  0  0  0  0  0  0  0  0  0
  -25.2780  -29.3390   21.1800 C   0  0  0  0  0  3  0  0  0  0  0  0
  -24.1910  -27.1750   21.4180 C   0  0  0  0  0  3  0  0  0  0  0  0
  -23.7300  -27.5410   22.6960 C   0  0  0  0  0  3  0  0  0  0  0  0
  -23.5660  -29.2930   24.5610 C   0  0  0  0  0  2  0  0  0  0  0  0
  -25.4250  -31.0160   24.5040 N   0  0  0  0  0  0  0  0  0  0  0  0
  -26.4490  -31.9050   26.3190 O   0  0  0  0  0  0  0  0  0  0  0  0
  -25.5850  -28.9830   26.0230 C   0  0  0  0  0  0  0  0  0  0  0  0
  -25.4600  -28.8490   27.3530 N   0  0  0  0  0  0  0  0  0  0  0  0
  -26.3610  -28.2950   25.3540 O   0  0  0  0  0  0  0  0  0  0  0  0
  -24.8110  -29.4580   27.8300 H   0  0  0  0  0  0  0  0  0  0  0  0
  -26.4420  -28.1440   30.7570 C   0  0  0  0  0  0  0  0  0  0  0  0
  -26.1880  -27.9020   28.1960 C   0  0  0  0  0  3  0  0  0  0  0  0
  -25.3270  -26.6540   28.5010 C   0  0  0  0  0  2  0  0  0  0  0  0
  -24.5410  -26.7690   29.8090 C   0  0  0  0  0  2  0  0  0  0  0  0
  -25.4890  -26.9840   30.9920 C   0  0  0  0  0  2  0  0  0  0  0  0
  -26.7580  -28.5840   29.4450 C   0  0  0  0  0  0  0  0  0  0  0  0
  -27.6220  -29.6880   29.2820 C   0  0  0  0  0  3  0  0  0  0  0  0
  -28.1700  -30.3450   30.4000 C   0  0  0  0  0  3  0  0  0  0  0  0
  -27.8680  -29.8960   31.6970 C   0  0  0  0  0  3  0  0  0  0  0  0
  -27.0080  -28.7960   31.8730 C   0  0  0  0  0  3  0  0  0  0  0  0
  -27.1270  -32.9040   24.2470 C   0  0  0  0  0  3  0  0  0  0  0  0
  -26.6120  -34.2460   24.5510 N   0  0  0  0  0  0  0  0  0  0  0  0
  -26.1490  -35.1070   23.6350 C   0  0  0  0  0  0  0  0  0  0  0  0
  -26.1820  -34.8770   22.4220 O   0  0  0  0  0  0  0  0  0  0  0  0
  -26.5070  -34.4800   25.5260 H   0  0  0  0  0  0  0  0  0  0  0  0
  -24.1690  -36.6530   23.5220 C   0  0  0  0  0  1  0  0  0  0  0  0
  -25.5570  -36.4360   24.1440 C   0  0  0  0  0  3  0  0  0  0  0  0
  -27.6680  -37.5970   24.6180 C   0  0  0  0  0  1  0  0  0  0  0  0
  -26.4170  -37.6080   23.8660 N   0  0  0  0  0  0  0  0  0  0  0  0
  -25.9260  -38.4720   24.0780 H   0  0  0  0  0  0  0  0  0  0  0  0
  -28.6780  -32.8240   24.5250 C   0  0  1  0  0  0  0  0  0  0  0  0
  -29.0550  -33.0230   26.0110 C   0  0  0  0  0  1  0  0  0  0  0  0
  -29.2420  -31.4580   24.0710 C   0  0  0  0  0  1  0  0  0  0  0  0
  -29.4150  -33.9040   23.6970 C   0  0  0  0  0  1  0  0  0  0  0  0
  1  2  2  0
  1  3  1  0
  2  5  1  0
  3  6  2  0
  5  7  1  0
  5  4  2  0
  6  4  1  0
  6 48  1  0
  8  7  1  0
  9  8  1  0
 10 18  1  0
 11 12  1  0
 11 16  1  0
 12 13  1  0
 14 13  1  0
 14 23  1  0
 15 14  1  0
 16 15  1  0
 16 10  1  0
 17 10  2  0
 18 19  1  0
 18  9  1  0
 20 21  2  0
 20 45  1  0
 21 40  1  0
 22 21  1  0
 23 20  1  0
 24 23  1  0
 24 22  2  0
 25 22  1  0
 26 25  1  0
 27 26  2  0
 28 29  2  0
 28 27  1  0
 29 30  1  0
 30 25  2  0
 31 28  1  0
 31 32  1  0
 32 33  1  0
 33 34  2  0
 35 39  1  0
 35 34  1  0
 36 35  2  0
 37 36  1  0
 37 32  2  0
 38 37  1  0
 40 41  1  0
 40 42  2  0
 41 44  1  0
 43 41  1  0
 45 46  1  0
 47 45  1  0
 49 52  1  0
 49 48  1  0
 50 49  1  0
 51 49  1  0
 53 54  1  0
 53 52  1  0
 54 56  1  0
 55 66  2  0
 56 61  2  0
 56 62  1  0
 57 67  1  0
 58 64  1  0
 59 65  1  0
 60 59  1  0
 60 58  2  0
 61 60  1  0
 62 63  2  0
 63 58  1  0
 64 57  1  0
 65 55  1  0
 65 57  1  0
 67 68  1  0
 68 70  1  0
 69 67  2  0
 71 75  1  0
 71 80  1  0
 72 68  1  0
 72 73  1  0
 72 76  1  0
 73 74  1  0
 74 75  1  0
 76 71  2  0
 77 76  1  0
 77 78  2  0
 78 79  1  0
 79 80  2  0
 81 91  1  0
 81 82  1  0
 81 55  1  0
 82 85  1  0
 83 87  1  0
 83 82  1  0
 84 83  2  0
 87 86  1  0
 89 90  1  0
 89 87  1  0
 89 88  1  0
 91 92  1  1
 93 91  1  0
 94 91  1  0
M  ISO  4  10 100  18 100  53 101  54 101
M  END
>  <TORSDO>  (20) 
F 23

>  <SCORE>  (20) 
-6.817

>  <name>  (20) 
19

>  <ligand_id>  (20) 
19

>  <original_smiles>  (20) 
[H]c1c([H])c([H])c2c(c1[H])C([H])([H])C([H])([H])C([H])([H])C2([H])N([H])C(=O)C1([H])N(C(=O)C([H])(N([H])C(=O)C([H])(N([H])C([H])([H])[H])C([H])([H])[H])C(C([H])([H])[H])(C([H])([H])[H])C([H])([H])[H])C([H])([H])c2c([H])c(OC([H])([H])C([H])([H])[N+]([H])([H])C([H])([H])c3c([H])c([H])c([H])c(C([H])([H])C([H])([H])C([H])([H])N([H])C(=O)N4C([H])([H])C([H])([H])C([H])([H])C([H])(n5nc(-c6c([H])c([H])c(Oc7c([H])c([H])c(F)c([H])c7F)c([H])c6[H])c(C(=O)N([H])[H])c5N([H])[H])C4([H])[H])c3[H])c([H])c([H])c2C1([H])[H]

>  <smiles>  (20) 
[H]c1c([H])c([H])c2c(c1[H])C([H])([H])C([H])([H])C([H])([H])C2([H])N([H])C(=O)C1([H])N(C(=O)C([H])(N([H])C(=O)C([H])(N([H])C([H])([H])[H])C([H])([H])[H])C(C([H])([H])[H])(C([H])([H])[H])C([H])([H])[H])C([H])([H])c2c([H])c(OC([H])([H])C([H])([H])[N+]([H])([H])C([H])([H])c3c([H])c([H])c([H])c(C([H])([H])C([H])([H])C([H])([H])N([H])C(=O)N4C([H])([H])C([H])([H])C([H])([H])C([H])(n5nc(-c6c([H])c([H])c(Oc7c([H])c([H])c(F)c([H])c7F)c([H])c6[H])c(C(=O)N([H])[H])c5N([H])[H])C4([H])[H])c3[H])c([H])c([H])c2C1([H])[H]

$$$$
20:0:0
     RDKit          3D

 95103  0  0  1  0  0  0  0  0999 V2000
  -28.5100  -21.7670   20.3240 C   0  0  0  0  0  2  0  0  0  0  0  0
  -30.8580  -22.2380   21.1140 C   0  0  0  0  0  2  0  0  0  0  0  0
  -28.9170  -20.2950   19.9350 C   0  0  0  0  0  2  0  0  0  0  0  0
  -30.7350  -20.7500   21.5760 C   0  0  0  0  0  2  0  0  0  0  0  0
  -29.6680  -22.8010   20.2820 C   0  0  0  0  0  3  0  0  0  0  0  0
  -30.2980  -19.7510   20.4620 C   0  0  2  0  0  0  0  0  0  0  0  0
  -31.3340  -19.8020   19.2890 C   0  0  0  0  0  2  0  0  0  0  0  0
  -32.8010  -19.4990   19.6510 C   0  0  0  0  0  0  0  0  0  0  0  0
  -33.6440  -20.5220   19.7370 N   0  0  0  0  0  0  0  0  0  0  0  0
  -33.1860  -18.3480   19.8420 O   0  0  0  0  0  0  0  0  0  0  0  0
  -33.3190  -21.4690   19.5920 H   0  0  0  0  0  0  0  0  0  0  0  0
  -34.6050  -20.3730   20.0120 H   0  0  0  0  0  0  0  0  0  0  0  0
  -29.3600  -24.2950   20.7170 C   0  0  0  0  0  2  0  0  0  0  0  0
  -28.2990  -25.1570   19.9500 C   0  0  0  0  0  2  0  0  0  0  0  0
  -28.3690  -26.5870   20.2520 O   0  0  0  0  0  0  0  0  0  0  0  0
  -24.5640  -31.8900   23.2300 C   0  0  0  0  0  0  0  0  0  0  0  0
  -27.2140  -27.3700   20.1900 C   0  0  0  0  0  0  0  0  0  0  0  0
  -23.3700  -30.4850   21.5840 C   0  0  0  0  0  3  0  0  0  0  0  0
  -24.8320  -28.9360   20.1720 C   0  0  0  0  0  0  0  0  0  0  0  0
  -25.9040  -30.8180   21.4130 C   0  0  0  0  0  2  0  0  0  0  0  0
  -25.9890  -29.4400   20.7750 C   0  0  0  0  0  0  0  0  0  0  0  0
  -27.1800  -28.6640   20.7800 C   0  0  0  0  0  3  0  0  0  0  0  0
  -26.0350  -26.9100   19.5560 C   0  0  0  0  0  3  0  0  0  0  0  0
  -24.8540  -27.6740   19.5560 C   0  0  0  0  0  3  0  0  0  0  0  0
  -23.5920  -29.8020   20.2070 C   0  0  0  0  0  2  0  0  0  0  0  0
  -24.6300  -31.0810   22.1330 N   0  0  0  0  0  0  0  0  0  0  0  0
  -23.4780  -32.1720   23.7550 O   0  0  0  0  0  0  0  0  0  0  0  0
  -22.7050  -29.4710   22.5430 C   0  0  0  0  0  0  0  0  0  0  0  0
  -21.3790  -29.2970   22.4070 N   0  0  0  0  0  0  0  0  0  0  0  0
  -23.3770  -28.8450   23.3660 O   0  0  0  0  0  0  0  0  0  0  0  0
  -20.9000  -29.8570   21.7160 H   0  0  0  0  0  0  0  0  0  0  0  0
  -17.9920  -28.1260   22.8940 C   0  0  0  0  0  0  0  0  0  0  0  0
  -20.5510  -28.3630   23.1730 C   0  0  0  0  0  3  0  0  0  0  0  0
  -20.6430  -26.9340   22.5910 C   0  0  0  0  0  2  0  0  0  0  0  0
  -19.5410  -26.6230   21.5740 C   0  0  0  0  0  2  0  0  0  0  0  0
  -18.1590  -26.7770   22.2170 C   0  0  0  0  0  2  0  0  0  0  0  0
  -19.1160  -28.8780   23.3280 C   0  0  0  0  0  0  0  0  0  0  0  0
  -18.9070  -30.1420   23.9230 C   0  0  0  0  0  3  0  0  0  0  0  0
  -17.6060  -30.6530   24.0870 C   0  0  0  0  0  3  0  0  0  0  0  0
  -16.4970  -29.8990   23.6680 C   0  0  0  0  0  3  0  0  0  0  0  0
  -16.6900  -28.6370   23.0780 C   0  0  0  0  0  3  0  0  0  0  0  0
  -25.8460  -32.5200   23.8610 C   0  0  0  0  0  3  0  0  0  0  0  0
  -25.5390  -33.9200   24.1850 N   0  0  0  0  0  0  0  0  0  0  0  0
  -25.8860  -34.9690   23.4270 C   0  0  0  0  0  0  0  0  0  0  0  0
  -26.5670  -34.8590   22.4040 O   0  0  0  0  0  0  0  0  0  0  0  0
  -24.9380  -34.0800   24.9810 H   0  0  0  0  0  0  0  0  0  0  0  0
  -24.1750  -36.7720   23.0400 C   0  0  0  0  0  1  0  0  0  0  0  0
  -25.3970  -36.3590   23.8740 C   0  0  0  0  0  3  0  0  0  0  0  0
  -27.5200  -37.2320   24.7490 C   0  0  0  0  0  1  0  0  0  0  0  0
  -26.4380  -37.4060   23.7830 N   0  0  0  0  0  0  0  0  0  0  0  0
  -26.0360  -38.3280   23.9190 H   0  0  0  0  0  0  0  0  0  0  0  0
  -26.3510  -31.7500   25.1430 C   0  0  1  0  0  0  0  0  0  0  0  0
  -25.2490  -31.5160   26.2020 C   0  0  0  0  0  1  0  0  0  0  0  0
  -26.9320  -30.3700   24.7540 C   0  0  0  0  0  1  0  0  0  0  0  0
  -27.4990  -32.5430   25.8110 C   0  0  0  0  0  1  0  0  0  0  0  0
  -30.1830  -18.2760   21.0840 C   0  0  0  0  0  3  0  0  0  0  0  0
  -29.9930  -17.0390   20.1230 C   0  0  0  0  0  3  0  0  0  0  0  0
  -30.6450  -14.5930   20.4180 C   0  0  0  0  0  0  0  0  0  0  0  0
  -30.3760  -12.3880   19.3410 C   0  0  0  0  0  2  0  0  0  0  0  0
  -29.4390  -12.5700   18.1260 C   0  0  0  0  0  2  0  0  0  0  0  0
  -27.9660  -12.4180   18.5540 C   0  0  0  0  0  2  0  0  0  0  0  0
  -27.6180  -13.2680   19.8060 C   0  0  0  0  0  3  0  0  0  0  0  0
  -28.6740  -13.0900   20.9230 C   0  0  0  0  0  2  0  0  0  0  0  0
  -29.9950  -13.3940   20.3510 N   0  0  0  0  0  0  0  0  0  0  0  0
  -31.7930  -14.7320   19.9890 O   0  0  0  0  0  0  0  0  0  0  0  0
  -29.8840  -15.6750   20.7340 N   0  0  0  0  0  0  0  0  0  0  0  0
  -28.9830  -15.4490   21.1340 H   0  0  0  0  0  0  0  0  0  0  0  0
  -25.2190  -13.8710   20.5070 C   0  0  0  0  0  0  0  0  0  0  0  0
  -24.1510  -13.0980   20.8800 C   0  0  0  0  0  0  0  0  0  0  0  0
  -24.6140  -11.7480   20.8560 C   0  0  0  0  0  0  0  0  0  0  0  0
  -26.2650  -12.9890   20.2820 N   0  0  0  0  0  0  0  0  0  0  0  0
  -25.9050  -11.7090   20.5530 N   0  0  0  0  0  0  0  0  0  0  0  0
  -23.8890  -10.4840   21.0460 C   0  0  0  0  0  0  0  0  0  0  0  0
  -24.3230   -9.5150   21.9770 C   0  0  0  0  0  3  0  0  0  0  0  0
  -23.5960   -8.3180   22.1560 C   0  0  0  0  0  3  0  0  0  0  0  0
  -22.4210   -8.0820   21.4040 C   0  0  0  0  0  0  0  0  0  0  0  0
  -22.0070   -9.0400   20.4610 C   0  0  0  0  0  3  0  0  0  0  0  0
  -22.7350  -10.2280   20.2800 C   0  0  0  0  0  3  0  0  0  0  0  0
  -21.6670   -6.9360   21.4920 O   0  0  0  0  0  0  0  0  0  0  0  0
  -21.6230   -6.1890   22.6420 C   0  0  0  0  0  0  0  0  0  0  0  0
  -21.2000   -6.7380   23.8730 C   0  0  0  0  0  3  0  0  0  0  0  0
  -21.1030   -5.9170   25.0130 C   0  0  0  0  0  3  0  0  0  0  0  0
  -21.4230   -4.5480   24.9280 C   0  0  0  0  0  0  0  0  0  0  0  0
  -21.8400   -3.9990   23.7020 C   0  0  0  0  0  3  0  0  0  0  0  0
  -21.9370   -4.8170   22.5620 C   0  0  0  0  0  0  0  0  0  0  0  0
  -22.3190   -4.2780   21.3800 F   0  0  0  0  0  0  0  0  0  0  0  0
  -21.3240   -3.7580   26.0210 F   0  0  0  0  0  0  0  0  0  0  0  0
  -22.7530  -13.5760   21.1490 C   0  0  0  0  0  0  0  0  0  0  0  0
  -22.0200  -12.8800   22.0130 N   0  0  0  0  0  0  0  0  0  0  0  0
  -22.3180  -14.6010   20.6270 O   0  0  0  0  0  0  0  0  0  0  0  0
  -22.3880  -12.0550   22.4610 H   0  0  0  0  0  0  0  0  0  0  0  0
  -21.0800  -13.1810   22.2290 H   0  0  0  0  0  0  0  0  0  0  0  0
  -25.3840  -15.2400   20.3270 N   0  0  0  0  0  0  0  0  0  0  0  0
  -24.6170  -15.8970   20.4350 H   0  0  0  0  0  0  0  0  0  0  0  0
  -26.2360  -15.6730   19.9940 H   0  0  0  0  0  0  0  0  0  0  0  0
  2  4  1  0
  3  1  1  0
  3  6  1  0
  5  1  1  0
  5 13  1  0
  5  2  1  0
  6  7  1  6
  6 56  1  0
  6  4  1  0
  7  8  1  0
  8  9  1  0
  8 10  2  0
  9 12  1  0
 11  9  1  0
 14 15  1  0
 14 13  1  0
 16 27  2  0
 17 15  1  0
 17 22  1  0
 18 26  1  0
 18 28  1  0
 19 25  1  0
 19 21  1  0
 20 26  1  0
 21 22  2  0
 21 20  1  0
 23 17  2  0
 24 23  1  0
 24 19  2  0
 25 18  1  0
 26 16  1  0
 28 30  2  0
 29 28  1  0
 31 29  1  0
 32 41  2  0
 32 37  1  0
 33 29  1  0
 33 37  1  0
 34 33  1  0
 35 36  1  0
 35 34  1  0
 36 32  1  0
 37 38  2  0
 38 39  1  0
 40 39  2  0
 41 40  1  0
 42 16  1  0
 42 43  1  0
 42 52  1  0
 43 46  1  0
 44 48  1  0
 44 43  1  0
 45 44  2  0
 48 47  1  0
 50 48  1  0
 50 51  1  0
 50 49  1  0
 52 55  1  1
 52 53  1  0
 54 52  1  0
 57 66  1  0
 57 56  2  0
 58 66  1  0
 59 64  1  0
 60 61  1  0
 60 59  1  0
 62 61  1  0
 62 71  1  0
 62 63  1  0
 64 58  1  0
 64 63  1  0
 65 58  2  0
 66 67  1  0
 68 69  2  0
 69 88  1  0
 70 69  1  0
 70 73  1  0
 71 68  1  0
 71 72  1  0
 72 70  2  0
 73 74  1  0
 74 75  2  0
 76 79  1  0
 76 75  1  0
 77 76  2  0
 78 77  1  0
 78 73  2  0
 79 80  1  0
 80 81  1  0
 81 82  2  0
 83 82  1  0
 83 87  1  0
 84 83  2  0
 85 80  2  0
 85 84  1  0
 86 85  1  0
 88 89  1  0
 89 92  1  0
 89 91  1  0
 90 88  2  0
 93 94  1  0
 93 68  1  0
 95 93  1  0
M  ISO  4  14 101  15 101  58 100  66 100
M  END
>  <TORSDO>  (21) 
F 22

>  <SCORE>  (21) 
-13.365

>  <name>  (21) 
20

>  <ligand_id>  (21) 
20

>  <original_smiles>  (21) 
[H]c1c([H])c([H])c2c(c1[H])C([H])([H])C([H])([H])C([H])([H])C2([H])N([H])C(=O)C1([H])N(C(=O)C([H])(N([H])C(=O)C([H])(N([H])C([H])([H])[H])C([H])([H])[H])C(C([H])([H])[H])(C([H])([H])[H])C([H])([H])[H])C([H])([H])c2c([H])c(OC([H])([H])C([H])([H])C3([H])C([H])([H])C([H])([H])C(C([H])([H])C(=O)N([H])[H])(C([H])([H])C([H])([H])N([H])C(=O)N4C([H])([H])C([H])([H])C([H])([H])C([H])(n5nc(-c6c([H])c([H])c(Oc7c([H])c([H])c(F)c([H])c7F)c([H])c6[H])c(C(=O)N([H])[H])c5N([H])[H])C4([H])[H])C([H])([H])C3([H])[H])c([H])c([H])c2C1([H])[H]

>  <smiles>  (21) 
[H]c1c([H])c([H])c2c(c1[H])C([H])([H])C([H])([H])C([H])([H])C2([H])N([H])C(=O)C1([H])N(C(=O)C([H])(N([H])C(=O)C([H])(N([H])C([H])([H])[H])C([H])([H])[H])C(C([H])([H])[H])(C([H])([H])[H])C([H])([H])[H])C([H])([H])c2c([H])c(OC([H])([H])C([H])([H])C3([H])C([H])([H])C([H])([H])C(C([H])([H])C(=O)N([H])[H])(C([H])([H])C([H])([H])N([H])C(=O)N4C([H])([H])C([H])([H])C([H])([H])C([H])(n5nc(-c6c([H])c([H])c(Oc7c([H])c([H])c(F)c([H])c7F)c([H])c6[H])c(C(=O)N([H])[H])c5N([H])[H])C4([H])[H])C([H])([H])C3([H])[H])c([H])c([H])c2C1([H])[H]

$$$$
21:0:0
     RDKit          3D

 86 94  0  0  1  0  0  0  0  0999 V2000
  -28.9920  -22.5120   20.4520 C   0  0  0  0  0  0  0  0  0  0  0  0
  -29.9900  -22.9520   21.0340 O   0  0  0  0  0  0  0  0  0  0  0  0
  -30.3740  -15.5970   20.2980 C   0  0  0  0  0  0  0  0  0  0  0  0
  -30.3780  -13.0890   19.4670 C   0  0  0  0  0  2  0  0  0  0  0  0
  -29.5010  -12.7060   18.2470 C   0  0  0  0  0  2  0  0  0  0  0  0
  -28.0710  -12.3760   18.6940 C   0  0  0  0  0  2  0  0  0  0  0  0
  -27.5570  -13.3820   19.7490 C   0  0  0  0  0  3  0  0  0  0  0  0
  -28.5790  -13.7020   20.8660 C   0  0  0  0  0  2  0  0  0  0  0  0
  -29.7610  -14.2840   20.1950 N   0  0  0  0  0  0  0  0  0  0  0  0
  -31.6060  -15.4420   20.2090 O   0  0  0  0  0  0  0  0  0  0  0  0
  -30.2770  -19.9740   20.5420 C   0  0  0  0  0  3  0  0  0  0  0  0
  -29.1170  -20.7230   20.2930 C   0  0  0  0  0  0  0  0  0  0  0  0
  -30.6980  -18.3490   20.4490 C   0  0  0  0  0  2  0  0  0  0  0  0
  -28.1370  -19.5000   19.9050 C   0  0  0  0  0  3  0  0  0  0  0  0
  -28.4440  -17.8050   20.2010 C   0  0  0  0  0  3  0  0  0  0  0  0
  -29.8190  -17.0500   20.3160 N   0  0  0  0  0  0  0  0  0  0  0  0
  -25.1830  -13.9050   20.4830 C   0  0  0  0  0  0  0  0  0  0  0  0
  -24.1230  -13.1180   20.8400 C   0  0  0  0  0  0  0  0  0  0  0  0
  -24.6060  -11.7730   20.8250 C   0  0  0  0  0  0  0  0  0  0  0  0
  -26.2370  -13.0410   20.2600 N   0  0  0  0  0  0  0  0  0  0  0  0
  -25.9040  -11.7520   20.5360 N   0  0  0  0  0  0  0  0  0  0  0  0
  -23.8870  -10.5050   21.0120 C   0  0  0  0  0  0  0  0  0  0  0  0
  -24.3040   -9.5500   21.9650 C   0  0  0  0  0  3  0  0  0  0  0  0
  -23.5800   -8.3510   22.1410 C   0  0  0  0  0  3  0  0  0  0  0  0
  -22.4250   -8.0970   21.3630 C   0  0  0  0  0  0  0  0  0  0  0  0
  -22.0280   -9.0400   20.3980 C   0  0  0  0  0  3  0  0  0  0  0  0
  -22.7530  -10.2310   20.2210 C   0  0  0  0  0  3  0  0  0  0  0  0
  -21.6750   -6.9480   21.4460 O   0  0  0  0  0  0  0  0  0  0  0  0
  -21.5960   -6.2220   22.6080 C   0  0  0  0  0  0  0  0  0  0  0  0
  -21.1090   -6.7870   23.8060 C   0  0  0  0  0  3  0  0  0  0  0  0
  -20.9790   -5.9880   24.9600 C   0  0  0  0  0  3  0  0  0  0  0  0
  -21.3260   -4.6230   24.9150 C   0  0  0  0  0  0  0  0  0  0  0  0
  -21.8030   -4.0570   23.7200 C   0  0  0  0  0  3  0  0  0  0  0  0
  -21.9360   -4.8540   22.5700 C   0  0  0  0  0  0  0  0  0  0  0  0
  -22.3780   -4.2980   21.4150 F   0  0  0  0  0  0  0  0  0  0  0  0
  -21.1930   -3.8540   26.0200 F   0  0  0  0  0  0  0  0  0  0  0  0
  -22.7170  -13.5840   21.0760 C   0  0  0  0  0  0  0  0  0  0  0  0
  -21.9810  -12.8960   21.9390 N   0  0  0  0  0  0  0  0  0  0  0  0
  -22.2820  -14.5960   20.5300 O   0  0  0  0  0  0  0  0  0  0  0  0
  -22.3500  -12.0810   22.4060 H   0  0  0  0  0  0  0  0  0  0  0  0
  -21.0350  -13.1890   22.1360 H   0  0  0  0  0  0  0  0  0  0  0  0
  -25.3310  -15.2770   20.2970 N   0  0  0  0  0  0  0  0  0  0  0  0
  -24.5540  -15.9210   20.3880 H   0  0  0  0  0  0  0  0  0  0  0  0
  -26.1810  -15.7230   19.9760 H   0  0  0  0  0  0  0  0  0  0  0  0
  -27.9390  -23.9580   20.0730 C   0  0  0  0  0  2  0  0  0  0  0  0
  -28.1590  -25.6550   20.3270 O   0  0  0  0  0  0  0  0  0  0  0  0
  -24.6680  -31.8700   23.2420 C   0  0  0  0  0  0  0  0  0  0  0  0
  -27.1860  -26.8420   20.2530 C   0  0  0  0  0  0  0  0  0  0  0  0
  -23.4720  -30.4750   21.6100 C   0  0  0  0  0  3  0  0  0  0  0  0
  -24.9130  -28.8330   20.1930 C   0  0  0  0  0  0  0  0  0  0  0  0
  -26.0480  -30.6300   21.4780 C   0  0  0  0  0  2  0  0  0  0  0  0
  -26.1070  -29.2030   20.8240 C   0  0  0  0  0  0  0  0  0  0  0  0
  -27.2300  -28.2330   20.8250 C   0  0  0  0  0  3  0  0  0  0  0  0
  -25.9590  -26.6640   19.5690 C   0  0  0  0  0  3  0  0  0  0  0  0
  -24.8740  -27.5890   19.5420 C   0  0  0  0  0  3  0  0  0  0  0  0
  -23.7050  -29.7770   20.2370 C   0  0  0  0  0  2  0  0  0  0  0  0
  -24.7530  -31.0230   22.1620 N   0  0  0  0  0  0  0  0  0  0  0  0
  -23.5770  -32.1710   23.7580 O   0  0  0  0  0  0  0  0  0  0  0  0
  -22.7610  -29.4960   22.5820 C   0  0  0  0  0  0  0  0  0  0  0  0
  -21.4280  -29.3420   22.4580 N   0  0  0  0  0  0  0  0  0  0  0  0
  -23.4190  -28.8720   23.4180 O   0  0  0  0  0  0  0  0  0  0  0  0
  -20.9480  -29.8950   21.7630 H   0  0  0  0  0  0  0  0  0  0  0  0
  -18.0400  -28.1360   22.9710 C   0  0  0  0  0  0  0  0  0  0  0  0
  -20.6010  -28.4090   23.2330 C   0  0  0  0  0  3  0  0  0  0  0  0
  -20.7010  -26.9720   22.6670 C   0  0  0  0  0  2  0  0  0  0  0  0
  -19.6010  -26.6430   21.6540 C   0  0  0  0  0  2  0  0  0  0  0  0
  -18.2190  -26.7860   22.2960 C   0  0  0  0  0  2  0  0  0  0  0  0
  -19.1560  -28.9040   23.3960 C   0  0  0  0  0  0  0  0  0  0  0  0
  -18.9310  -30.1650   23.9910 C   0  0  0  0  0  3  0  0  0  0  0  0
  -17.6240  -30.6580   24.1620 C   0  0  0  0  0  3  0  0  0  0  0  0
  -16.5230  -29.8880   23.7490 C   0  0  0  0  0  3  0  0  0  0  0  0
  -16.7320  -28.6280   23.1600 C   0  0  0  0  0  3  0  0  0  0  0  0
  -25.9360  -32.5160   23.8780 C   0  0  0  0  0  3  0  0  0  0  0  0
  -25.6200  -33.9180   24.2090 N   0  0  0  0  0  0  0  0  0  0  0  0
  -25.9370  -34.9800   23.4560 C   0  0  0  0  0  0  0  0  0  0  0  0
  -26.5860  -34.8820   22.4120 O   0  0  0  0  0  0  0  0  0  0  0  0
  -25.0420  -34.0670   25.0230 H   0  0  0  0  0  0  0  0  0  0  0  0
  -24.1970  -36.7780   23.1650 C   0  0  0  0  0  1  0  0  0  0  0  0
  -25.4650  -36.3710   23.9320 C   0  0  0  0  0  3  0  0  0  0  0  0
  -27.6180  -37.2740   24.6990 C   0  0  0  0  0  1  0  0  0  0  0  0
  -26.4920  -37.4250   23.7790 N   0  0  0  0  0  0  0  0  0  0  0  0
  -26.0880  -38.3470   23.9210 H   0  0  0  0  0  0  0  0  0  0  0  0
  -26.4310  -31.7600   25.1730 C   0  0  1  0  0  0  0  0  0  0  0  0
  -25.3240  -31.5450   26.2330 C   0  0  0  0  0  1  0  0  0  0  0  0
  -27.0090  -30.3710   24.8190 C   0  0  0  0  0  1  0  0  0  0  0  0
  -27.5780  -32.5560   25.8370 C   0  0  0  0  0  1  0  0  0  0  0  0
  1  2  2  0
  3 16  1  0
  4  9  1  0
  5  6  1  0
  5  4  1  0
  7  6  1  0
  7 20  1  0
  7  8  1  0
  9  3  1  0
  9  8  1  0
 10  3  2  0
 12  1  1  0
 12 11  2  0
 13 11  1  0
 14 15  2  0
 14 12  1  0
 15 16  1  0
 16 13  1  0
 17 18  2  0
 18 37  1  0
 19 18  1  0
 19 22  1  0
 20 17  1  0
 20 21  1  0
 21 19  2  0
 22 23  1  0
 23 24  2  0
 25 28  1  0
 25 24  1  0
 26 25  2  0
 27 26  1  0
 27 22  2  0
 28 29  1  0
 29 30  1  0
 30 31  2  0
 32 31  1  0
 32 36  1  0
 33 32  2  0
 34 29  2  0
 34 33  1  0
 35 34  1  0
 37 38  1  0
 38 41  1  0
 38 40  1  0
 39 37  2  0
 42 43  1  0
 42 17  1  0
 44 42  1  0
 45 46  1  0
 45  1  1  0
 47 58  2  0
 48 46  1  0
 48 53  1  0
 49 57  1  0
 49 59  1  0
 50 56  1  0
 50 52  1  0
 51 57  1  0
 52 53  2  0
 52 51  1  0
 54 48  2  0
 55 54  1  0
 55 50  2  0
 56 49  1  0
 57 47  1  0
 59 61  2  0
 60 59  1  0
 62 60  1  0
 63 72  2  0
 63 68  1  0
 64 60  1  0
 64 68  1  0
 65 64  1  0
 66 67  1  0
 66 65  1  0
 67 63  1  0
 68 69  2  0
 69 70  1  0
 71 70  2  0
 72 71  1  0
 73 47  1  0
 73 74  1  0
 73 83  1  0
 74 77  1  0
 75 79  1  0
 75 74  1  0
 76 75  2  0
 79 78  1  0
 81 82  1  0
 81 79  1  0
 81 80  1  0
 83 86  1  1
 83 84  1  0
 85 83  1  0
M  ISO  4   3 100  16 100  45 101  46 101
M  END
>  <TORSDO>  (22) 
F 17

>  <SCORE>  (22) 
-16.620

>  <name>  (22) 
21

>  <ligand_id>  (22) 
21

>  <original_smiles>  (22) 
[H]C1=C(C(=O)C([H])([H])Oc2c([H])c([H])c3c(c2[H])C([H])([H])N(C(=O)C([H])(N([H])C(=O)C([H])(N([H])C([H])([H])[H])C([H])([H])[H])C(C([H])([H])[H])(C([H])([H])[H])C([H])([H])[H])C([H])(C(=O)N([H])C2([H])c4c([H])c([H])c([H])c([H])c4C([H])([H])C([H])([H])C2([H])[H])C3([H])[H])C([H])([H])C([H])([H])N(C(=O)N2C([H])([H])C([H])([H])C([H])([H])C([H])(n3nc(-c4c([H])c([H])c(Oc5c([H])c([H])c(F)c([H])c5F)c([H])c4[H])c(C(=O)N([H])[H])c3N([H])[H])C2([H])[H])C1([H])[H]

>  <smiles>  (22) 
[H]C1=C(C(=O)C([H])([H])Oc2c([H])c([H])c3c(c2[H])C([H])([H])N(C(=O)C([H])(N([H])C(=O)C([H])(N([H])C([H])([H])[H])C([H])([H])[H])C(C([H])([H])[H])(C([H])([H])[H])C([H])([H])[H])C([H])(C(=O)N([H])C2([H])c4c([H])c([H])c([H])c([H])c4C([H])([H])C([H])([H])C2([H])[H])C3([H])[H])C([H])([H])C([H])([H])N(C(=O)N2C([H])([H])C([H])([H])C([H])([H])C([H])(n3nc(-c4c([H])c([H])c(Oc5c([H])c([H])c(F)c([H])c5F)c([H])c4[H])c(C(=O)N([H])[H])c3N([H])[H])C2([H])[H])C1([H])[H]

$$$$
22:0:0
     RDKit          3D

 95105  0  0  1  0  0  0  0  0999 V2000
  -28.8070  -16.9950   20.5420 C   0  0  0  0  0  0  0  0  0  0  0  0
  -28.3630  -18.4260   20.7780 C   0  0  0  0  0  2  0  0  0  0  0  0
  -29.5500  -19.2120   21.3320 C   0  0  0  0  0  2  0  0  0  0  0  0
  -32.6120  -20.7390   19.7150 C   0  0  0  0  0  2  0  0  0  0  0  0
  -31.8570  -20.1100   20.8830 C   0  0  0  0  0  2  0  0  0  0  0  0
  -31.1240  -17.9010   19.8320 C   0  0  0  0  0  2  0  0  0  0  0  0
  -31.1290  -22.7340   19.0300 C   0  0  0  0  0  2  0  0  0  0  0  0
  -29.1460  -21.4760   19.2930 C   0  0  0  0  0  2  0  0  0  0  0  0
  -30.0490  -16.7480   19.6730 C   0  0  0  0  0  3  0  0  0  0  0  0
  -31.5090  -21.2500   18.7870 C   0  0  0  0  0  3  0  0  0  0  0  0
  -30.2620  -20.3840   19.0840 C   0  0  0  0  0  3  0  0  0  0  0  0
  -29.6340  -22.8410   18.7170 C   0  0  0  0  0  3  0  0  0  0  0  0
  -30.6500  -19.3750   20.2620 C   0  0  1  0  0  0  0  0  0  0  0  0
  -28.2080  -16.0810   21.1100 O   0  0  0  0  0  0  0  0  0  0  0  0
  -31.0030  -14.3570   19.2910 C   0  0  0  0  0  0  0  0  0  0  0  0
  -30.5630  -12.0940   18.3630 C   0  0  0  0  0  2  0  0  0  0  0  0
  -29.4480  -12.1980   17.2970 C   0  0  0  0  0  2  0  0  0  0  0  0
  -28.0500  -12.1210   17.9430 C   0  0  0  0  0  2  0  0  0  0  0  0
  -27.9060  -13.0620   19.1700 C   0  0  0  0  0  3  0  0  0  0  0  0
  -29.1120  -12.8930   20.1270 C   0  0  0  0  0  2  0  0  0  0  0  0
  -30.3490  -13.1560   19.3650 N   0  0  0  0  0  0  0  0  0  0  0  0
  -31.9620  -14.5420   18.5400 O   0  0  0  0  0  0  0  0  0  0  0  0
  -30.4720  -15.3570   20.0320 N   0  0  0  0  0  0  0  0  0  0  0  0
  -29.8260  -14.9970   20.7240 H   0  0  0  0  0  0  0  0  0  0  0  0
  -25.7050  -13.7980   20.2940 C   0  0  0  0  0  0  0  0  0  0  0  0
  -24.6510  -13.0890   20.7970 C   0  0  0  0  0  0  0  0  0  0  0  0
  -24.9760  -11.7120   20.6040 C   0  0  0  0  0  0  0  0  0  0  0  0
  -26.6270  -12.8590   19.8520 N   0  0  0  0  0  0  0  0  0  0  0  0
  -26.1920  -11.5930   20.0830 N   0  0  0  0  0  0  0  0  0  0  0  0
  -24.1730  -10.5060   20.8310 C   0  0  0  0  0  0  0  0  0  0  0  0
  -24.6160   -9.4740   21.6880 C   0  0  0  0  0  3  0  0  0  0  0  0
  -23.8150   -8.3320   21.9040 C   0  0  0  0  0  3  0  0  0  0  0  0
  -22.5570   -8.2150   21.2660 C   0  0  0  0  0  0  0  0  0  0  0  0
  -22.1320   -9.2350   20.3960 C   0  0  0  0  0  3  0  0  0  0  0  0
  -22.9330  -10.3670   20.1770 C   0  0  0  0  0  3  0  0  0  0  0  0
  -21.7240   -7.1310   21.3960 O   0  0  0  0  0  0  0  0  0  0  0  0
  -21.6740   -6.3980   22.5550 C   0  0  0  0  0  0  0  0  0  0  0  0
  -21.2990   -6.9780   23.7870 C   0  0  0  0  0  3  0  0  0  0  0  0
  -21.1910   -6.1740   24.9390 C   0  0  0  0  0  3  0  0  0  0  0  0
  -21.4500   -4.7920   24.8610 C   0  0  0  0  0  0  0  0  0  0  0  0
  -21.8180   -4.2130   23.6340 C   0  0  0  0  0  3  0  0  0  0  0  0
  -21.9270   -5.0140   22.4840 C   0  0  0  0  0  0  0  0  0  0  0  0
  -22.2610   -4.4470   21.2990 F   0  0  0  0  0  0  0  0  0  0  0  0
  -21.3400   -4.0190   25.9660 F   0  0  0  0  0  0  0  0  0  0  0  0
  -23.3750  -13.6580   21.3490 C   0  0  0  0  0  0  0  0  0  0  0  0
  -22.7490  -12.9600   22.2900 N   0  0  0  0  0  0  0  0  0  0  0  0
  -22.9550  -14.7560   20.9860 O   0  0  0  0  0  0  0  0  0  0  0  0
  -23.1060  -12.0700   22.6050 H   0  0  0  0  0  0  0  0  0  0  0  0
  -21.8980  -13.3200   22.6990 H   0  0  0  0  0  0  0  0  0  0  0  0
  -25.9420  -15.1590   20.1660 N   0  0  0  0  0  0  0  0  0  0  0  0
  -25.2750  -15.7710   20.6220 H   0  0  0  0  0  0  0  0  0  0  0  0
  -26.8990  -15.4310   20.3870 H   0  0  0  0  0  0  0  0  0  0  0  0
  -28.8750  -24.1050   19.2890 C   0  0  0  0  0  2  0  0  0  0  0  0
  -29.4840  -25.5520   19.1580 C   0  0  0  0  0  2  0  0  0  0  0  0
  -28.8860  -26.4920   18.2330 O   0  0  0  0  0  0  0  0  0  0  0  0
  -25.0140  -30.5350   22.7730 C   0  0  0  0  0  0  0  0  0  0  0  0
  -27.6890  -27.0970   18.5890 C   0  0  0  0  0  0  0  0  0  0  0  0
  -23.7680  -29.4050   20.9600 C   0  0  0  0  0  3  0  0  0  0  0  0
  -25.1960  -28.3510   19.1220 C   0  0  0  0  0  0  0  0  0  0  0  0
  -26.2300  -30.0340   20.6500 C   0  0  0  0  0  2  0  0  0  0  0  0
  -26.3640  -28.8390   19.7220 C   0  0  0  0  0  0  0  0  0  0  0  0
  -27.6150  -28.2210   19.4550 C   0  0  0  0  0  3  0  0  0  0  0  0
  -26.5020  -26.6330   17.9880 C   0  0  0  0  0  3  0  0  0  0  0  0
  -25.2610  -27.2460   18.2540 C   0  0  0  0  0  3  0  0  0  0  0  0
  -23.8990  -29.0600   19.4520 C   0  0  0  0  0  2  0  0  0  0  0  0
  -25.0270  -29.9970   21.5200 N   0  0  0  0  0  0  0  0  0  0  0  0
  -23.9720  -30.5760   23.4430 O   0  0  0  0  0  0  0  0  0  0  0  0
  -23.2960  -28.1440   21.7210 C   0  0  0  0  0  0  0  0  0  0  0  0
  -22.0070  -27.7960   21.5670 N   0  0  0  0  0  0  0  0  0  0  0  0
  -24.0850  -27.4880   22.4040 O   0  0  0  0  0  0  0  0  0  0  0  0
  -21.4220  -28.3890   20.9960 H   0  0  0  0  0  0  0  0  0  0  0  0
  -18.8900  -25.9740   21.7400 C   0  0  0  0  0  0  0  0  0  0  0  0
  -21.3570  -26.6230   22.1530 C   0  0  0  0  0  3  0  0  0  0  0  0
  -21.7210  -25.3380   21.3740 C   0  0  0  0  0  2  0  0  0  0  0  0
  -20.7080  -24.9920   20.2780 C   0  0  0  0  0  2  0  0  0  0  0  0
  -19.3120  -24.7960   20.8770 C   0  0  0  0  0  2  0  0  0  0  0  0
  -19.8500  -26.8400   22.3250 C   0  0  0  0  0  0  0  0  0  0  0  0
  -19.4030  -27.9410   23.0890 C   0  0  0  0  0  3  0  0  0  0  0  0
  -18.0280  -28.1780   23.2740 C   0  0  0  0  0  3  0  0  0  0  0  0
  -17.0830  -27.3090   22.7030 C   0  0  0  0  0  3  0  0  0  0  0  0
  -17.5140  -26.2080   21.9420 C   0  0  0  0  0  3  0  0  0  0  0  0
  -26.2990  -31.1450   23.4140 C   0  0  0  0  0  3  0  0  0  0  0  0
  -25.9350  -32.4490   23.9840 N   0  0  0  0  0  0  0  0  0  0  0  0
  -26.2130  -33.6300   23.4190 C   0  0  0  0  0  0  0  0  0  0  0  0
  -26.8730  -33.7380   22.3820 O   0  0  0  0  0  0  0  0  0  0  0  0
  -25.3460  -32.4350   24.8040 H   0  0  0  0  0  0  0  0  0  0  0  0
  -24.4190  -35.3910   23.3750 C   0  0  0  0  0  1  0  0  0  0  0  0
  -25.6720  -34.8950   24.1130 C   0  0  0  0  0  3  0  0  0  0  0  0
  -27.7660  -35.6940   25.1170 C   0  0  0  0  0  1  0  0  0  0  0  0
  -26.6650  -35.9880   24.2020 N   0  0  0  0  0  0  0  0  0  0  0  0
  -26.2230  -36.8510   24.5040 H   0  0  0  0  0  0  0  0  0  0  0  0
  -26.9450  -30.2160   24.5140 C   0  0  1  0  0  0  0  0  0  0  0  0
  -25.9450  -29.7470   25.5970 C   0  0  0  0  0  1  0  0  0  0  0  0
  -27.5680  -28.9560   23.8680 C   0  0  0  0  0  1  0  0  0  0  0  0
  -28.0980  -30.9650   25.2210 C   0  0  0  0  0  1  0  0  0  0  0  0
  1  2  1  0
  1 14  2  0
  2  3  1  0
  4  5  1  0
  9  6  1  0
  9 23  1  0
  9  1  1  0
 10  7  1  0
 10 11  1  0
 10  4  1  0
 11  8  1  0
 11 13  1  0
 12  7  1  0
 12 53  1  0
 12  8  1  0
 13  6  1  6
 13  5  1  0
 13  3  1  0
 15 21  1  0
 15 23  1  0
 16 21  1  0
 17 18  1  0
 17 16  1  0
 19 18  1  0
 19 28  1  0
 19 20  1  0
 21 20  1  0
 22 15  2  0
 23 24  1  0
 25 26  2  0
 26 45  1  0
 27 26  1  0
 27 30  1  0
 28 29  1  0
 28 25  1  0
 29 27  2  0
 30 31  1  0
 31 32  2  0
 33 36  1  0
 33 32  1  0
 34 33  2  0
 35 34  1  0
 35 30  2  0
 36 37  1  0
 37 38  1  0
 38 39  2  0
 40 39  1  0
 40 44  1  0
 41 40  2  0
 42 37  2  0
 42 41  1  0
 43 42  1  0
 45 46  1  0
 46 48  1  0
 46 49  1  0
 47 45  2  0
 50 25  1  0
 50 52  1  0
 50 51  1  0
 54 53  1  0
 55 57  1  0
 55 54  1  0
 56 67  2  0
 57 62  1  0
 58 66  1  0
 58 68  1  0
 59 65  1  0
 59 61  1  0
 60 66  1  0
 61 60  1  0
 62 61  2  0
 63 64  1  0
 63 57  2  0
 64 59  2  0
 65 58  1  0
 66 56  1  0
 68 70  2  0
 69 68  1  0
 71 69  1  0
 72 81  2  0
 72 77  1  0
 73 69  1  0
 73 77  1  0
 74 73  1  0
 75 76  1  0
 75 74  1  0
 76 72  1  0
 77 78  2  0
 78 79  1  0
 80 79  2  0
 81 80  1  0
 82 56  1  0
 82 83  1  0
 82 92  1  0
 83 86  1  0
 84 83  1  0
 84 88  1  0
 85 84  2  0
 88 87  1  0
 88 90  1  0
 90 91  1  0
 90 89  1  0
 92 95  1  1
 92 93  1  0
 94 92  1  0
M  ISO  4  15 100  23 100  54 101  55 101
M  END
>  <TORSDO>  (23) 
F 18

>  <SCORE>  (23) 
-9.957

>  <name>  (23) 
22

>  <ligand_id>  (23) 
22

>  <original_smiles>  (23) 
[H]c1c([H])c([H])c2c(c1[H])C([H])([H])C([H])([H])C([H])([H])C2([H])N([H])C(=O)C1([H])N(C(=O)C([H])(N([H])C(=O)C([H])(N([H])C([H])([H])[H])C([H])([H])[H])C(C([H])([H])[H])(C([H])([H])[H])C([H])([H])[H])C([H])([H])c2c([H])c(OC([H])([H])C([H])([H])C3([H])C([H])([H])C4([H])C([H])([H])C([H])([H])C5(C([H])([H])C([H])([H])C(=O)C([H])(N([H])C(=O)N6C([H])([H])C([H])([H])C([H])([H])C([H])(n7nc(-c8c([H])c([H])c(Oc9c([H])c([H])c(F)c([H])c9F)c([H])c8[H])c(C(=O)N([H])[H])c7N([H])[H])C6([H])[H])C5([H])[H])C4([H])C3([H])[H])c([H])c([H])c2C1([H])[H]

>  <smiles>  (23) 
[H]c1c([H])c([H])c2c(c1[H])C([H])([H])C([H])([H])C([H])([H])C2([H])N([H])C(=O)C1([H])N(C(=O)C([H])(N([H])C(=O)C([H])(N([H])C([H])([H])[H])C([H])([H])[H])C(C([H])([H])[H])(C([H])([H])[H])C([H])([H])[H])C([H])([H])c2c([H])c(OC([H])([H])C([H])([H])C3([H])C([H])([H])C4([H])C([H])([H])C([H])([H])C5(C([H])([H])C([H])([H])C(=O)C([H])(N([H])C(=O)N6C([H])([H])C([H])([H])C([H])([H])C([H])(n7nc(-c8c([H])c([H])c(Oc9c([H])c([H])c(F)c([H])c9F)c([H])c8[H])c(C(=O)N([H])[H])c7N([H])[H])C6([H])[H])C5([H])[H])C4([H])C3([H])[H])c([H])c([H])c2C1([H])[H]

$$$$
23:0:0
     RDKit          3D

 87 96  0  0  1  0  0  0  0  0999 V2000
  -28.4970  -21.4360   20.2320 C   0  0  0  0  0  2  0  0  0  0  0  0
  -30.4690  -15.1130   20.2910 C   0  0  0  0  0  0  0  0  0  0  0  0
  -30.3660  -12.7300   19.3650 C   0  0  0  0  0  2  0  0  0  0  0  0
  -29.4280  -12.6250   18.1400 C   0  0  0  0  0  2  0  0  0  0  0  0
  -27.9750  -12.3900   18.5890 C   0  0  0  0  0  2  0  0  0  0  0  0
  -27.5630  -13.3270   19.7540 C   0  0  0  0  0  3  0  0  0  0  0  0
  -28.6250  -13.3950   20.8700 C   0  0  0  0  0  2  0  0  0  0  0  0
  -29.8730  -13.8420   20.2380 N   0  0  0  0  0  0  0  0  0  0  0  0
  -31.6770  -15.1400   20.0280 O   0  0  0  0  0  0  0  0  0  0  0  0
  -30.7090  -19.9310   20.7100 C   0  0  0  0  0  3  0  0  0  0  0  0
  -29.3860  -20.0170   20.4580 C   0  0  0  0  0  0  0  0  0  0  0  0
  -31.2620  -18.5070   21.0030 C   0  0  0  0  0  2  0  0  0  0  0  0
  -29.1790  -17.3250   19.4540 C   0  0  0  0  0  2  0  0  0  0  0  0
  -28.8730  -18.4560   20.5470 C   0  0  0  0  0  3  0  0  0  0  0  0
  -30.0000  -17.6480   21.2640 C   0  0  0  0  0  3  0  0  0  0  0  0
  -29.7180  -16.3430   20.4810 N   0  0  0  0  0  0  0  0  0  0  0  0
  -25.1920  -13.8900   20.5170 C   0  0  0  0  0  0  0  0  0  0  0  0
  -24.1310  -13.1080   20.8820 C   0  0  0  0  0  0  0  0  0  0  0  0
  -24.5980  -11.7590   20.8410 C   0  0  0  0  0  0  0  0  0  0  0  0
  -26.2350  -13.0160   20.2650 N   0  0  0  0  0  0  0  0  0  0  0  0
  -25.8900  -11.7270   20.5280 N   0  0  0  0  0  0  0  0  0  0  0  0
  -23.8740  -10.4950   21.0270 C   0  0  0  0  0  0  0  0  0  0  0  0
  -24.2990   -9.5290   21.9660 C   0  0  0  0  0  3  0  0  0  0  0  0
  -23.5710   -8.3330   22.1410 C   0  0  0  0  0  3  0  0  0  0  0  0
  -22.4050   -8.0910   21.3760 C   0  0  0  0  0  0  0  0  0  0  0  0
  -21.9990   -9.0460   20.4270 C   0  0  0  0  0  3  0  0  0  0  0  0
  -22.7270  -10.2340   20.2510 C   0  0  0  0  0  3  0  0  0  0  0  0
  -21.6510   -6.9450   21.4600 O   0  0  0  0  0  0  0  0  0  0  0  0
  -21.5770   -6.2160   22.6190 C   0  0  0  0  0  0  0  0  0  0  0  0
  -21.0970   -6.7770   23.8220 C   0  0  0  0  0  3  0  0  0  0  0  0
  -20.9710   -5.9730   24.9730 C   0  0  0  0  0  3  0  0  0  0  0  0
  -21.3140   -4.6080   24.9200 C   0  0  0  0  0  0  0  0  0  0  0  0
  -21.7870   -4.0470   23.7220 C   0  0  0  0  0  3  0  0  0  0  0  0
  -21.9140   -4.8480   22.5730 C   0  0  0  0  0  0  0  0  0  0  0  0
  -22.3500   -4.2970   21.4140 F   0  0  0  0  0  0  0  0  0  0  0  0
  -21.1870   -3.8340   26.0220 F   0  0  0  0  0  0  0  0  0  0  0  0
  -22.7360  -13.5830   21.1600 C   0  0  0  0  0  0  0  0  0  0  0  0
  -22.0160  -12.8860   22.0320 N   0  0  0  0  0  0  0  0  0  0  0  0
  -22.2930  -14.6090   20.6450 O   0  0  0  0  0  0  0  0  0  0  0  0
  -22.3880  -12.0540   22.4680 H   0  0  0  0  0  0  0  0  0  0  0  0
  -21.0830  -13.1870   22.2680 H   0  0  0  0  0  0  0  0  0  0  0  0
  -25.3510  -15.2620   20.3510 N   0  0  0  0  0  0  0  0  0  0  0  0
  -24.5900  -15.9140   20.5000 H   0  0  0  0  0  0  0  0  0  0  0  0
  -26.2110  -15.7120   20.0650 H   0  0  0  0  0  0  0  0  0  0  0  0
  -28.9160  -23.1060   20.4630 C   0  0  0  0  0  3  0  0  0  0  0  0
  -27.9440  -24.5180   20.1650 C   0  0  0  0  0  3  0  0  0  0  0  0
  -28.2240  -26.0810   20.3370 O   0  0  0  0  0  0  0  0  0  0  0  0
  -24.6460  -31.9020   23.2580 C   0  0  0  0  0  0  0  0  0  0  0  0
  -27.1950  -27.1150   20.2500 C   0  0  0  0  0  0  0  0  0  0  0  0
  -23.4440  -30.5140   21.6160 C   0  0  0  0  0  3  0  0  0  0  0  0
  -24.8880  -28.9220   20.1920 C   0  0  0  0  0  0  0  0  0  0  0  0
  -26.0000  -30.7520   21.4590 C   0  0  0  0  0  2  0  0  0  0  0  0
  -26.0700  -29.3500   20.8090 C   0  0  0  0  0  0  0  0  0  0  0  0
  -27.2230  -28.4660   20.8130 C   0  0  0  0  0  3  0  0  0  0  0  0
  -25.9860  -26.8090   19.5860 C   0  0  0  0  0  3  0  0  0  0  0  0
  -24.8650  -27.6700   19.5600 C   0  0  0  0  0  3  0  0  0  0  0  0
  -23.6670  -29.8340   20.2380 C   0  0  0  0  0  2  0  0  0  0  0  0
  -24.7170  -31.0780   22.1690 N   0  0  0  0  0  0  0  0  0  0  0  0
  -23.5580  -32.1970   23.7800 O   0  0  0  0  0  0  0  0  0  0  0  0
  -22.7490  -29.5150   22.5770 C   0  0  0  0  0  0  0  0  0  0  0  0
  -21.4210  -29.3530   22.4420 N   0  0  0  0  0  0  0  0  0  0  0  0
  -23.4100  -28.8880   23.4090 O   0  0  0  0  0  0  0  0  0  0  0  0
  -20.9430  -29.9140   21.7520 H   0  0  0  0  0  0  0  0  0  0  0  0
  -18.0310  -28.1570   22.9220 C   0  0  0  0  0  0  0  0  0  0  0  0
  -20.5890  -28.4180   23.2070 C   0  0  0  0  0  3  0  0  0  0  0  0
  -20.6920  -26.9850   22.6360 C   0  0  0  0  0  2  0  0  0  0  0  0
  -19.5980  -26.6610   21.6150 C   0  0  0  0  0  2  0  0  0  0  0  0
  -18.2110  -26.8090   22.2480 C   0  0  0  0  0  2  0  0  0  0  0  0
  -19.1480  -28.9210   23.3570 C   0  0  0  0  0  0  0  0  0  0  0  0
  -18.9230  -30.1830   23.9470 C   0  0  0  0  0  3  0  0  0  0  0  0
  -17.6190  -30.6830   24.1090 C   0  0  0  0  0  3  0  0  0  0  0  0
  -16.5170  -29.9180   23.6870 C   0  0  0  0  0  3  0  0  0  0  0  0
  -16.7240  -28.6580   23.0990 C   0  0  0  0  0  3  0  0  0  0  0  0
  -25.9240  -32.5300   23.8940 C   0  0  0  0  0  3  0  0  0  0  0  0
  -25.6190  -33.9320   24.2280 N   0  0  0  0  0  0  0  0  0  0  0  0
  -25.9310  -34.9860   23.4630 C   0  0  0  0  0  0  0  0  0  0  0  0
  -26.5720  -34.8830   22.4150 O   0  0  0  0  0  0  0  0  0  0  0  0
  -25.0480  -34.0860   25.0470 H   0  0  0  0  0  0  0  0  0  0  0  0
  -24.1800  -36.7740   23.1820 C   0  0  0  0  0  1  0  0  0  0  0  0
  -25.4590  -36.3770   23.9350 C   0  0  0  0  0  3  0  0  0  0  0  0
  -27.6230  -37.2790   24.6680 C   0  0  0  0  0  1  0  0  0  0  0  0
  -26.4810  -37.4340   23.7700 N   0  0  0  0  0  0  0  0  0  0  0  0
  -26.0760  -38.3530   23.9280 H   0  0  0  0  0  0  0  0  0  0  0  0
  -26.4210  -31.7580   25.1760 C   0  0  1  0  0  0  0  0  0  0  0  0
  -25.3150  -31.5290   26.2350 C   0  0  0  0  0  1  0  0  0  0  0  0
  -26.9980  -30.3750   24.7940 C   0  0  0  0  0  1  0  0  0  0  0  0
  -27.5730  -32.5440   25.8460 C   0  0  0  0  0  1  0  0  0  0  0  0
  1 11  1  0
  1 45  1  0
  2 16  1  0
  3  8  1  0
  4  5  1  0
  4  3  1  0
  6  5  1  0
  6 20  1  0
  6  7  1  0
  8  2  1  0
  8  7  1  0
  9  2  2  0
 10 12  1  0
 11 14  1  0
 11 10  2  0
 13 16  1  0
 14 13  1  0
 14 15  1  0
 15 12  1  0
 16 15  1  0
 17 18  2  0
 18 37  1  0
 19 18  1  0
 19 22  1  0
 20 17  1  0
 20 21  1  0
 21 19  2  0
 22 23  1  0
 23 24  2  0
 25 28  1  0
 25 24  1  0
 26 25  2  0
 27 26  1  0
 27 22  2  0
 28 29  1  0
 29 30  1  0
 30 31  2  0
 32 31  1  0
 32 36  1  0
 33 32  2  0
 34 29  2  0
 34 33  1  0
 35 34  1  0
 37 38  1  0
 38 41  1  0
 38 40  1  0
 39 37  2  0
 42 43  1  0
 42 17  1  0
 44 42  1  0
 46 47  1  0
 46 45  2  0
 48 59  2  0
 49 47  1  0
 49 54  1  0
 50 58  1  0
 50 60  1  0
 51 57  1  0
 51 53  1  0
 52 58  1  0
 53 54  2  0
 53 52  1  0
 55 49  2  0
 56 55  1  0
 56 51  2  0
 57 50  1  0
 58 48  1  0
 60 62  2  0
 61 60  1  0
 63 61  1  0
 64 73  2  0
 64 69  1  0
 65 61  1  0
 65 69  1  0
 66 65  1  0
 67 68  1  0
 67 66  1  0
 68 64  1  0
 69 70  2  0
 70 71  1  0
 72 71  2  0
 73 72  1  0
 74 48  1  0
 74 75  1  0
 74 84  1  0
 75 78  1  0
 76 80  1  0
 76 75  1  0
 77 76  2  0
 80 79  1  0
 82 83  1  0
 82 80  1  0
 82 81  1  0
 84 87  1  1
 84 85  1  0
 86 84  1  0
M  ISO  4   2 100  16 100  46 101  47 101
M  END
>  <TORSDO>  (24) 
F 18

>  <SCORE>  (24) 
-16.053

>  <name>  (24) 
23

>  <ligand_id>  (24) 
23

>  <original_smiles>  (24) 
[H]C1=C(C([H])([H])C([H])([H])C([H])([H])Oc2c([H])c([H])c3c(c2[H])C([H])([H])N(C(=O)C([H])(N([H])C(=O)C([H])(N([H])C([H])([H])[H])C([H])([H])[H])C(C([H])([H])[H])(C([H])([H])[H])C([H])([H])[H])C([H])(C(=O)N([H])C2([H])c4c([H])c([H])c([H])c([H])c4C([H])([H])C([H])([H])C2([H])[H])C3([H])[H])C2([H])C([H])([H])N(C(=O)N3C([H])([H])C([H])([H])C([H])([H])C([H])(n4nc(-c5c([H])c([H])c(Oc6c([H])c([H])c(F)c([H])c6F)c([H])c5[H])c(C(=O)N([H])[H])c4N([H])[H])C3([H])[H])C2([H])C1([H])[H]

>  <smiles>  (24) 
[H]C1=C(C([H])([H])C([H])([H])C([H])([H])Oc2c([H])c([H])c3c(c2[H])C([H])([H])N(C(=O)C([H])(N([H])C(=O)C([H])(N([H])C([H])([H])[H])C([H])([H])[H])C(C([H])([H])[H])(C([H])([H])[H])C([H])([H])[H])C([H])(C(=O)N([H])C2([H])c4c([H])c([H])c([H])c([H])c4C([H])([H])C([H])([H])C2([H])[H])C3([H])[H])C2([H])C([H])([H])N(C(=O)N3C([H])([H])C([H])([H])C([H])([H])C([H])(n4nc(-c5c([H])c([H])c(Oc6c([H])c([H])c(F)c([H])c6F)c([H])c5[H])c(C(=O)N([H])[H])c4N([H])[H])C3([H])[H])C2([H])C1([H])[H]

$$$$
24:0:0
     RDKit          3D

102112  0  0  1  0  0  0  0  0999 V2000
  -27.3720  -20.0640   19.0560 N   0  0  0  0  0  4  0  0  0  0  0  0
  -28.2230  -20.5470   19.2890 H   0  0  0  0  0  0  0  0  0  0  0  0
  -26.7150  -20.2390   19.8010 H   0  0  0  0  0  0  0  0  0  0  0  0
  -28.1050  -18.2020   20.4190 C   0  0  0  0  0  0  0  0  0  0  0  0
  -28.7800  -18.1790   18.1140 C   0  0  0  0  0  2  0  0  0  0  0  0
  -30.0190  -18.2540   19.0070 C   0  0  0  0  0  2  0  0  0  0  0  0
  -27.6140  -18.6040   19.0260 C   0  0  0  0  0  3  0  0  0  0  0  0
  -29.5580  -17.6920   20.3860 C   0  0  2  0  0  0  0  0  0  0  0  0
  -27.4280  -18.2450   21.4490 O   0  0  0  0  0  0  0  0  0  0  0  0
  -30.0900  -15.3360   19.6020 C   0  0  0  0  0  0  0  0  0  0  0  0
  -29.8990  -13.1510   18.4930 C   0  0  0  0  0  2  0  0  0  0  0  0
  -28.7710  -13.1910   17.4430 C   0  0  0  0  0  2  0  0  0  0  0  0
  -27.4150  -12.8480   18.0880 C   0  0  0  0  0  2  0  0  0  0  0  0
  -27.1470  -13.6580   19.3850 C   0  0  0  0  0  3  0  0  0  0  0  0
  -28.3740  -13.6290   20.3270 C   0  0  0  0  0  2  0  0  0  0  0  0
  -29.5500  -14.0920   19.5660 N   0  0  0  0  0  0  0  0  0  0  0  0
  -31.0510  -15.6660   18.9060 O   0  0  0  0  0  0  0  0  0  0  0  0
  -29.4320  -16.2220   20.3630 N   0  0  0  0  0  0  0  0  0  0  0  0
  -28.6800  -15.8460   20.9200 H   0  0  0  0  0  0  0  0  0  0  0  0
  -24.8520  -13.9190   20.5240 C   0  0  0  0  0  0  0  0  0  0  0  0
  -23.9650  -12.9990   21.0160 C   0  0  0  0  0  0  0  0  0  0  0  0
  -24.5660  -11.7210   20.8080 C   0  0  0  0  0  0  0  0  0  0  0  0
  -25.9360  -13.1910   20.0580 N   0  0  0  0  0  0  0  0  0  0  0  0
  -25.7770  -11.8610   20.2820 N   0  0  0  0  0  0  0  0  0  0  0  0
  -24.0370  -10.3680   21.0270 C   0  0  0  0  0  0  0  0  0  0  0  0
  -24.5380   -9.5390   22.0540 C   0  0  0  0  0  3  0  0  0  0  0  0
  -24.0010   -8.2480   22.2570 C   0  0  0  0  0  3  0  0  0  0  0  0
  -22.9510   -7.7790   21.4320 C   0  0  0  0  0  0  0  0  0  0  0  0
  -22.4720   -8.6020   20.3970 C   0  0  0  0  0  3  0  0  0  0  0  0
  -23.0100   -9.8830   20.1930 C   0  0  0  0  0  3  0  0  0  0  0  0
  -22.3860   -6.5310   21.5390 O   0  0  0  0  0  0  0  0  0  0  0  0
  -22.0920   -5.9760   22.7580 C   0  0  0  0  0  0  0  0  0  0  0  0
  -21.1940   -6.5890   23.6590 C   0  0  0  0  0  3  0  0  0  0  0  0
  -20.8650   -5.9470   24.8690 C   0  0  0  0  0  3  0  0  0  0  0  0
  -21.4240   -4.6940   25.1780 C   0  0  0  0  0  0  0  0  0  0  0  0
  -22.3160   -4.0810   24.2810 C   0  0  0  0  0  3  0  0  0  0  0  0
  -22.6460   -4.7170   23.0720 C   0  0  0  0  0  0  0  0  0  0  0  0
  -23.4880   -4.1130   22.2000 F   0  0  0  0  0  0  0  0  0  0  0  0
  -21.1040   -4.0740   26.3380 F   0  0  0  0  0  0  0  0  0  0  0  0
  -22.5930  -13.2810   21.5570 C   0  0  0  0  0  0  0  0  0  0  0  0
  -22.1350  -12.4810   22.5120 N   0  0  0  0  0  0  0  0  0  0  0  0
  -21.9380  -14.2470   21.1660 O   0  0  0  0  0  0  0  0  0  0  0  0
  -22.6790  -11.7000   22.8480 H   0  0  0  0  0  0  0  0  0  0  0  0
  -21.2260  -12.6540   22.9170 H   0  0  0  0  0  0  0  0  0  0  0  0
  -24.8180  -15.3060   20.4090 N   0  0  0  0  0  0  0  0  0  0  0  0
  -23.9700  -15.8160   20.6280 H   0  0  0  0  0  0  0  0  0  0  0  0
  -25.4370  -15.8140   19.7930 H   0  0  0  0  0  0  0  0  0  0  0  0
  -31.9330  -19.2300   23.7500 C   0  0  0  0  0  3  0  0  0  0  0  0
  -31.6950  -20.0350   22.6220 C   0  0  0  0  0  3  0  0  0  0  0  0
  -31.3990  -17.9310   23.8020 C   0  0  0  0  0  3  0  0  0  0  0  0
  -30.9280  -19.5400   21.5510 C   0  0  0  0  0  3  0  0  0  0  0  0
  -30.6330  -17.4350   22.7280 C   0  0  0  0  0  3  0  0  0  0  0  0
  -30.3900  -18.2260   21.5770 C   0  0  0  0  0  0  0  0  0  0  0  0
  -26.8230  -20.6210   17.8020 C   0  0  0  0  0  2  0  0  0  0  0  0
  -28.0310  -22.9000   17.8530 C   0  0  0  0  0  2  0  0  0  0  0  0
  -25.8420  -22.6060   16.6270 C   0  0  0  0  0  2  0  0  0  0  0  0
  -27.8570  -24.4310   17.8130 C   0  0  0  0  0  2  0  0  0  0  0  0
  -25.6520  -24.1220   16.6350 C   0  0  0  0  0  2  0  0  0  0  0  0
  -26.6730  -22.1520   17.8400 C   0  0  0  0  0  3  0  0  0  0  0  0
  -27.0000  -24.8660   16.6110 C   0  0  0  0  0  3  0  0  0  0  0  0
  -26.8900  -26.4020   16.4550 C   0  0  0  0  0  2  0  0  0  0  0  0
  -27.1280  -27.1510   17.6510 O   0  0  0  0  0  0  0  0  0  0  0  0
  -24.7580  -31.2930   22.9390 C   0  0  0  0  0  0  0  0  0  0  0  0
  -26.0800  -27.8880   18.1560 C   0  0  0  0  0  0  0  0  0  0  0  0
  -23.0550  -30.5190   21.3250 C   0  0  0  0  0  3  0  0  0  0  0  0
  -23.9550  -29.4200   19.2140 C   0  0  0  0  0  0  0  0  0  0  0  0
  -25.5010  -30.7800   20.6230 C   0  0  0  0  0  2  0  0  0  0  0  0
  -25.2700  -29.6660   19.6280 C   0  0  0  0  0  0  0  0  0  0  0  0
  -26.3350  -28.8880   19.1200 C   0  0  0  0  0  3  0  0  0  0  0  0
  -24.7470  -27.6710   17.7440 C   0  0  0  0  0  3  0  0  0  0  0  0
  -23.6860  -28.4150   18.2780 C   0  0  0  0  0  3  0  0  0  0  0  0
  -22.8680  -30.2850   19.8050 C   0  0  0  0  0  2  0  0  0  0  0  0
  -24.4700  -30.8590   21.6820 N   0  0  0  0  0  0  0  0  0  0  0  0
  -23.8660  -31.4460   23.7850 O   0  0  0  0  0  0  0  0  0  0  0  0
  -22.5140  -29.2860   22.0850 C   0  0  0  0  0  0  0  0  0  0  0  0
  -21.1820  -29.1110   22.0720 N   0  0  0  0  0  0  0  0  0  0  0  0
  -23.2830  -28.5000   22.6420 O   0  0  0  0  0  0  0  0  0  0  0  0
  -20.6190  -29.8030   21.5970 H   0  0  0  0  0  0  0  0  0  0  0  0
  -17.9040  -27.6480   22.4710 C   0  0  0  0  0  0  0  0  0  0  0  0
  -20.4540  -28.0050   22.6910 C   0  0  0  0  0  3  0  0  0  0  0  0
  -20.6050  -26.7050   21.8670 C   0  0  0  0  0  2  0  0  0  0  0  0
  -19.4750  -26.5010   20.8540 C   0  0  0  0  0  2  0  0  0  0  0  0
  -18.1180  -26.4500   21.5620 C   0  0  0  0  0  2  0  0  0  0  0  0
  -19.0000  -28.3870   22.9890 C   0  0  0  0  0  0  0  0  0  0  0  0
  -18.7450  -29.5150   23.7990 C   0  0  0  0  0  3  0  0  0  0  0  0
  -17.4240  -29.9040   24.0970 C   0  0  0  0  0  3  0  0  0  0  0  0
  -16.3440  -29.1590   23.5940 C   0  0  0  0  0  3  0  0  0  0  0  0
  -16.5840  -28.0310   22.7890 C   0  0  0  0  0  3  0  0  0  0  0  0
  -26.2180  -31.6430   23.3680 C   0  0  0  0  0  3  0  0  0  0  0  0
  -26.1600  -32.8740   24.1680 N   0  0  0  0  0  0  0  0  0  0  0  0
  -26.4880  -34.0910   23.7130 C   0  0  0  0  0  0  0  0  0  0  0  0
  -26.9490  -34.2830   22.5840 O   0  0  0  0  0  0  0  0  0  0  0  0
  -25.7460  -32.7980   25.0860 H   0  0  0  0  0  0  0  0  0  0  0  0
  -24.9870  -36.0280   24.2650 C   0  0  0  0  0  1  0  0  0  0  0  0
  -26.2720  -35.2850   24.6620 C   0  0  0  0  0  3  0  0  0  0  0  0
  -28.6030  -35.6770   25.3230 C   0  0  0  0  0  1  0  0  0  0  0  0
  -27.4090  -36.2300   24.6890 N   0  0  0  0  0  0  0  0  0  0  0  0
  -27.1570  -37.0820   25.1850 H   0  0  0  0  0  0  0  0  0  0  0  0
  -26.9230  -30.4850   24.1740 C   0  0  1  0  0  0  0  0  0  0  0  0
  -26.0820  -29.9430   25.3530 C   0  0  0  0  0  1  0  0  0  0  0  0
  -27.2520  -29.2930   23.2460 C   0  0  0  0  0  1  0  0  0  0  0  0
  -28.2720  -30.9860   24.7410 C   0  0  0  0  0  1  0  0  0  0  0  0
  1  2  1  0
  1  3  1  0
  4  9  2  0
  5  6  1  0
  5  7  1  0
  6  8  1  0
  7  1  1  0
  7  4  1  0
  8 18  1  6
  8  4  1  0
  8 53  1  0
 10 18  1  0
 11 16  1  0
 12 13  1  0
 12 11  1  0
 14 13  1  0
 14 23  1  0
 14 15  1  0
 16 10  1  0
 16 15  1  0
 17 10  2  0
 18 19  1  0
 20 21  2  0
 21 40  1  0
 22 21  1  0
 22 25  1  0
 23 24  1  0
 23 20  1  0
 24 22  2  0
 25 26  1  0
 26 27  2  0
 28 31  1  0
 28 27  1  0
 29 28  2  0
 30 29  1  0
 30 25  2  0
 31 32  1  0
 32 37  2  0
 32 33  1  0
 33 34  2  0
 34 35  1  0
 35 39  1  0
 36 35  2  0
 37 36  1  0
 38 37  1  0
 40 41  1  0
 41 43  1  0
 41 44  1  0
 42 40  2  0
 45 20  1  0
 45 46  1  0
 47 45  1  0
 48 50  1  0
 49 48  2  0
 51 53  2  0
 51 49  1  0
 52 50  2  0
 53 52  1  0
 54  1  1  0
 56 58  1  0
 56 59  1  0
 57 55  1  0
 59 54  1  0
 59 55  1  0
 60 61  1  0
 60 58  1  0
 60 57  1  0
 61 62  1  0
 62 64  1  0
 63 74  2  0
 64 69  1  0
 65 73  1  0
 65 75  1  0
 66 68  1  0
 66 72  1  0
 67 73  1  0
 68 67  1  0
 69 68  2  0
 70 64  2  0
 70 71  1  0
 71 66  2  0
 72 65  1  0
 73 63  1  0
 75 77  2  0
 76 75  1  0
 78 76  1  0
 79 88  2  0
 79 84  1  0
 80 76  1  0
 80 84  1  0
 81 80  1  0
 82 83  1  0
 82 81  1  0
 83 79  1  0
 84 85  2  0
 85 86  1  0
 87 86  2  0
 88 87  1  0
 89 63  1  0
 89 90  1  0
 89 99  1  0
 90 93  1  0
 91 90  1  0
 91 95  1  0
 92 91  2  0
 95 94  1  0
 95 97  1  0
 97 98  1  0
 97 96  1  0
 99102  1  1
 99100  1  0
101 99  1  0
M  ISO  4  10 100  18 100  61 101  62 101
M  END
>  <TORSDO>  (25) 
F 21

>  <SCORE>  (25) 
-5.490

>  <name>  (25) 
24

>  <ligand_id>  (25) 
24

>  <original_smiles>  (25) 
[H]c1c([H])c([H])c(C2(N([H])C(=O)N3C([H])([H])C([H])([H])C([H])([H])C([H])(n4nc(-c5c([H])c([H])c(Oc6c([H])c([H])c(F)c([H])c6F)c([H])c5[H])c(C(=O)N([H])[H])c4N([H])[H])C3([H])[H])C(=O)C([H])([N+]([H])([H])C([H])([H])C3([H])C([H])([H])C([H])([H])C([H])(C([H])([H])Oc4c([H])c([H])c5c(c4[H])C([H])([H])N(C(=O)C([H])(N([H])C(=O)C([H])(N([H])C([H])([H])[H])C([H])([H])[H])C(C([H])([H])[H])(C([H])([H])[H])C([H])([H])[H])C([H])(C(=O)N([H])C4([H])c6c([H])c([H])c([H])c([H])c6C([H])([H])C([H])([H])C4([H])[H])C5([H])[H])C([H])([H])C3([H])[H])C([H])([H])C2([H])[H])c([H])c1[H]

>  <smiles>  (25) 
[H]c1c([H])c([H])c(C2(N([H])C(=O)N3C([H])([H])C([H])([H])C([H])([H])C([H])(n4nc(-c5c([H])c([H])c(Oc6c([H])c([H])c(F)c([H])c6F)c([H])c5[H])c(C(=O)N([H])[H])c4N([H])[H])C3([H])[H])C(=O)C([H])([N+]([H])([H])C([H])([H])C3([H])C([H])([H])C([H])([H])C([H])(C([H])([H])Oc4c([H])c([H])c5c(c4[H])C([H])([H])N(C(=O)C([H])(N([H])C(=O)C([H])(N([H])C([H])([H])[H])C([H])([H])[H])C(C([H])([H])[H])(C([H])([H])[H])C([H])([H])[H])C([H])(C(=O)N([H])C4([H])c6c([H])c([H])c([H])c([H])c6C([H])([H])C([H])([H])C4([H])[H])C5([H])[H])C([H])([H])C3([H])[H])C([H])([H])C2([H])[H])c([H])c1[H]

$$$$
25:0:0
     RDKit          3D

 89 97  0  0  1  0  0  0  0  0999 V2000
  -29.3040  -21.4820   20.3280 C   0  0  0  0  0  3  0  0  0  0  0  0
  -28.7430  -22.6610   20.7260 C   0  0  0  0  0  3  0  0  0  0  0  0
  -29.8890  -19.0770   21.1030 C   0  0  0  0  0  0  0  0  0  0  0  0
  -29.5280  -20.3820   21.2780 C   0  0  0  0  0  3  0  0  0  0  0  0
  -30.1520  -18.1600   22.2730 C   0  0  0  0  0  2  0  0  0  0  0  0
  -30.1900  -18.2470   19.8510 C   0  0  0  0  0  2  0  0  0  0  0  0
  -31.3290  -17.2930   21.8190 C   0  0  0  0  0  2  0  0  0  0  0  0
  -31.1290  -17.0650   20.3090 C   0  0  0  0  0  3  0  0  0  0  0  0
  -31.3230  -14.5780   19.7330 C   0  0  0  0  0  0  0  0  0  0  0  0
  -30.9760  -12.2810   18.8780 C   0  0  0  0  0  2  0  0  0  0  0  0
  -29.9820  -12.3240   17.6970 C   0  0  0  0  0  2  0  0  0  0  0  0
  -28.5290  -12.2480   18.2080 C   0  0  0  0  0  2  0  0  0  0  0  0
  -28.2450  -13.2490   19.3580 C   0  0  0  0  0  3  0  0  0  0  0  0
  -29.3460  -13.1750   20.4380 C   0  0  0  0  0  2  0  0  0  0  0  0
  -30.6390  -13.3990   19.7730 N   0  0  0  0  0  0  0  0  0  0  0  0
  -32.4610  -14.6650   19.2690 O   0  0  0  0  0  0  0  0  0  0  0  0
  -30.6230  -15.6820   20.0980 N   0  0  0  0  0  0  0  0  0  0  0  0
  -29.6700  -15.5080   20.3780 H   0  0  0  0  0  0  0  0  0  0  0  0
  -25.9530  -14.0050   20.2470 C   0  0  0  0  0  0  0  0  0  0  0  0
  -24.8560  -13.3010   20.6650 C   0  0  0  0  0  0  0  0  0  0  0  0
  -25.2150  -11.9200   20.5730 C   0  0  0  0  0  0  0  0  0  0  0  0
  -26.9130  -13.0570   19.9250 N   0  0  0  0  0  0  0  0  0  0  0  0
  -26.4760  -11.7980   20.1800 N   0  0  0  0  0  0  0  0  0  0  0  0
  -24.4120  -10.7080   20.7800 C   0  0  0  0  0  0  0  0  0  0  0  0
  -24.7590   -9.7500   21.7590 C   0  0  0  0  0  3  0  0  0  0  0  0
  -23.9600   -8.6030   21.9520 C   0  0  0  0  0  3  0  0  0  0  0  0
  -22.7990   -8.4060   21.1670 C   0  0  0  0  0  0  0  0  0  0  0  0
  -22.4710   -9.3520   20.1790 C   0  0  0  0  0  3  0  0  0  0  0  0
  -23.2700  -10.4900   19.9850 C   0  0  0  0  0  3  0  0  0  0  0  0
  -21.9770   -7.3100   21.2660 O   0  0  0  0  0  0  0  0  0  0  0  0
  -21.7460   -6.6910   22.4690 C   0  0  0  0  0  0  0  0  0  0  0  0
  -21.1860   -7.3810   23.5660 C   0  0  0  0  0  3  0  0  0  0  0  0
  -20.9020   -6.6900   24.7610 C   0  0  0  0  0  3  0  0  0  0  0  0
  -21.1680   -5.3110   24.8570 C   0  0  0  0  0  0  0  0  0  0  0  0
  -21.7200   -4.6210   23.7640 C   0  0  0  0  0  3  0  0  0  0  0  0
  -22.0060   -5.3100   22.5710 C   0  0  0  0  0  0  0  0  0  0  0  0
  -22.5200   -4.6370   21.5130 F   0  0  0  0  0  0  0  0  0  0  0  0
  -20.8860   -4.6440   26.0000 F   0  0  0  0  0  0  0  0  0  0  0  0
  -23.5180  -13.8690   21.0390 C   0  0  0  0  0  0  0  0  0  0  0  0
  -22.8080  -13.2100   21.9480 N   0  0  0  0  0  0  0  0  0  0  0  0
  -23.1160  -14.9280   20.5610 O   0  0  0  0  0  0  0  0  0  0  0  0
  -23.1490  -12.3490   22.3500 H   0  0  0  0  0  0  0  0  0  0  0  0
  -21.9110  -13.5660   22.2430 H   0  0  0  0  0  0  0  0  0  0  0  0
  -26.2080  -15.3650   20.0940 N   0  0  0  0  0  0  0  0  0  0  0  0
  -25.5000  -16.0700   20.2710 H   0  0  0  0  0  0  0  0  0  0  0  0
  -27.0650  -15.7510   19.7180 H   0  0  0  0  0  0  0  0  0  0  0  0
  -28.4470  -23.9350   19.9010 C   0  0  0  0  0  2  0  0  0  0  0  0
  -28.2110  -25.2210   20.7750 C   0  0  0  0  0  2  0  0  0  0  0  0
  -28.3700  -26.5220   20.1340 O   0  0  0  0  0  0  0  0  0  0  0  0
  -24.6560  -31.8270   23.2100 C   0  0  0  0  0  0  0  0  0  0  0  0
  -27.2460  -27.3340   20.1230 C   0  0  0  0  0  0  0  0  0  0  0  0
  -23.4370  -30.4460   21.5600 C   0  0  0  0  0  3  0  0  0  0  0  0
  -24.8790  -28.9010   20.1240 C   0  0  0  0  0  0  0  0  0  0  0  0
  -25.9710  -30.7740   21.3660 C   0  0  0  0  0  2  0  0  0  0  0  0
  -26.0460  -29.4030   20.7130 C   0  0  0  0  0  0  0  0  0  0  0  0
  -27.2380  -28.6310   20.7000 C   0  0  0  0  0  3  0  0  0  0  0  0
  -26.0620  -26.8600   19.5230 C   0  0  0  0  0  3  0  0  0  0  0  0
  -24.8830  -27.6310   19.5210 C   0  0  0  0  0  3  0  0  0  0  0  0
  -23.6430  -29.7730   20.1770 C   0  0  0  0  0  2  0  0  0  0  0  0
  -24.7070  -31.0310   22.1030 N   0  0  0  0  0  0  0  0  0  0  0  0
  -23.5760  -32.1050   23.7520 O   0  0  0  0  0  0  0  0  0  0  0  0
  -22.7760  -29.4260   22.5160 C   0  0  0  0  0  0  0  0  0  0  0  0
  -21.4530  -29.2370   22.3740 N   0  0  0  0  0  0  0  0  0  0  0  0
  -23.4520  -28.8080   23.3410 O   0  0  0  0  0  0  0  0  0  0  0  0
  -20.9690  -29.7820   21.6740 H   0  0  0  0  0  0  0  0  0  0  0  0
  -18.0890  -27.9860   22.7960 C   0  0  0  0  0  0  0  0  0  0  0  0
  -20.6310  -28.2990   23.1380 C   0  0  0  0  0  3  0  0  0  0  0  0
  -20.7800  -26.8600   22.5910 C   0  0  0  0  0  2  0  0  0  0  0  0
  -19.7150  -26.4970   21.5510 C   0  0  0  0  0  2  0  0  0  0  0  0
  -18.3120  -26.6270   22.1520 C   0  0  0  0  0  2  0  0  0  0  0  0
  -19.1790  -28.7780   23.2430 C   0  0  0  0  0  0  0  0  0  0  0  0
  -18.9190  -30.0480   23.8050 C   0  0  0  0  0  3  0  0  0  0  0  0
  -17.6020  -30.5280   23.9220 C   0  0  0  0  0  3  0  0  0  0  0  0
  -16.5250  -29.7340   23.4900 C   0  0  0  0  0  3  0  0  0  0  0  0
  -16.7690  -28.4650   22.9340 C   0  0  0  0  0  3  0  0  0  0  0  0
  -25.9460  -32.4460   23.8320 C   0  0  0  0  0  3  0  0  0  0  0  0
  -26.4850  -31.6390   25.0770 C   0  0  1  0  0  0  0  0  0  0  0  0
  -25.4040  -31.3440   26.1410 C   0  0  0  0  0  1  0  0  0  0  0  0
  -27.0900  -30.2870   24.6310 C   0  0  0  0  0  1  0  0  0  0  0  0
  -27.6230  -32.4300   25.7610 C   0  0  0  0  0  1  0  0  0  0  0  0
  -25.6350  -33.8330   24.2080 N   0  0  0  0  0  0  0  0  0  0  0  0
  -25.9540  -34.9090   23.4770 C   0  0  0  0  0  0  0  0  0  0  0  0
  -26.6100  -34.8400   22.4330 O   0  0  0  0  0  0  0  0  0  0  0  0
  -25.0510  -33.9610   25.0220 H   0  0  0  0  0  0  0  0  0  0  0  0
  -24.2120  -36.7020   23.2040 C   0  0  0  0  0  1  0  0  0  0  0  0
  -25.4670  -36.2800   23.9820 C   0  0  0  0  0  3  0  0  0  0  0  0
  -27.6080  -37.1540   24.8090 C   0  0  0  0  0  1  0  0  0  0  0  0
  -26.4940  -37.3410   23.8830 N   0  0  0  0  0  0  0  0  0  0  0  0
  -26.0840  -38.2530   24.0610 H   0  0  0  0  0  0  0  0  0  0  0  0
  1  2  2  0
  1  4  1  0
  3  4  2  0
  3  5  1  0
  6  8  1  0
  6  3  1  0
  7  5  1  0
  8 17  1  0
  8  7  1  0
  9 15  1  0
  9 17  1  0
 10 15  1  0
 11 12  1  0
 11 10  1  0
 13 12  1  0
 13 22  1  0
 13 14  1  0
 15 14  1  0
 16  9  2  0
 17 18  1  0
 19 20  2  0
 20 39  1  0
 21 20  1  0
 21 24  1  0
 22 23  1  0
 22 19  1  0
 23 21  2  0
 24 25  1  0
 25 26  2  0
 27 30  1  0
 27 26  1  0
 28 27  2  0
 29 28  1  0
 29 24  2  0
 30 31  1  0
 31 36  2  0
 31 32  1  0
 32 33  2  0
 33 34  1  0
 34 38  1  0
 35 34  2  0
 36 35  1  0
 37 36  1  0
 39 40  1  0
 40 43  1  0
 40 42  1  0
 41 39  2  0
 44 19  1  0
 44 45  1  0
 46 44  1  0
 47  2  1  0
 47 48  1  0
 49 48  1  0
 50 61  2  0
 51 49  1  0
 51 56  1  0
 52 60  1  0
 52 62  1  0
 53 59  1  0
 53 55  1  0
 54 60  1  0
 55 54  1  0
 56 55  2  0
 57 51  2  0
 58 57  1  0
 58 53  2  0
 59 52  1  0
 60 50  1  0
 62 64  2  0
 63 62  1  0
 65 63  1  0
 66 75  2  0
 66 71  1  0
 67 63  1  0
 67 71  1  0
 68 67  1  0
 69 70  1  0
 69 68  1  0
 70 66  1  0
 71 72  2  0
 72 73  1  0
 74 73  2  0
 75 74  1  0
 76 50  1  0
 76 81  1  0
 76 77  1  0
 77 80  1  1
 77 78  1  0
 79 77  1  0
 81 84  1  0
 82 86  1  0
 82 81  1  0
 83 82  2  0
 86 85  1  0
 88 86  1  0
 88 89  1  0
 88 87  1  0
M  ISO  4   9 100  17 100  48 101  49 101
M  END
>  <TORSDO>  (26) 
F 19

>  <SCORE>  (26) 
-12.710

>  <name>  (26) 
25

>  <ligand_id>  (26) 
25

>  <original_smiles>  (26) 
[H]C(C([H])=C1C([H])([H])C([H])([H])C([H])(N([H])C(=O)N2C([H])([H])C([H])([H])C([H])([H])C([H])(n3nc(-c4c([H])c([H])c(Oc5c([H])c([H])c(F)c([H])c5F)c([H])c4[H])c(C(=O)N([H])[H])c3N([H])[H])C2([H])[H])C1([H])[H])=C([H])C([H])([H])C([H])([H])Oc1c([H])c([H])c2c(c1[H])C([H])([H])N(C(=O)C([H])(N([H])C(=O)C([H])(N([H])C([H])([H])[H])C([H])([H])[H])C(C([H])([H])[H])(C([H])([H])[H])C([H])([H])[H])C([H])(C(=O)N([H])C1([H])c3c([H])c([H])c([H])c([H])c3C([H])([H])C([H])([H])C1([H])[H])C2([H])[H]

>  <smiles>  (26) 
[H]C(C([H])=C1C([H])([H])C([H])([H])C([H])(N([H])C(=O)N2C([H])([H])C([H])([H])C([H])([H])C([H])(n3nc(-c4c([H])c([H])c(Oc5c([H])c([H])c(F)c([H])c5F)c([H])c4[H])c(C(=O)N([H])[H])c3N([H])[H])C2([H])[H])C1([H])[H])=C([H])C([H])([H])C([H])([H])Oc1c([H])c([H])c2c(c1[H])C([H])([H])N(C(=O)C([H])(N([H])C(=O)C([H])(N([H])C([H])([H])[H])C([H])([H])[H])C(C([H])([H])[H])(C([H])([H])[H])C([H])([H])[H])C([H])(C(=O)N([H])C1([H])c3c([H])c([H])c([H])c([H])c3C([H])([H])C([H])([H])C1([H])[H])C2([H])[H]

$$$$
26:0:0
     RDKit          3D

 94102  0  0  1  0  0  0  0  0999 V2000
  -27.6340  -21.2050   19.8650 C   0  0  0  0  0  3  0  0  0  0  0  0
  -27.1370  -23.6170   19.8290 C   0  0  0  0  0  3  0  0  0  0  0  0
  -29.1780  -22.8040   20.8480 C   0  0  0  0  0  3  0  0  0  0  0  0
  -26.7810  -22.2820   19.5090 C   0  0  0  0  0  0  0  0  0  0  0  0
  -28.8440  -21.4250   20.5540 C   0  0  0  0  0  0  0  0  0  0  0  0
  -28.3390  -23.9310   20.4960 C   0  0  0  0  0  0  0  0  0  0  0  0
  -25.4410  -22.0120   18.8830 C   0  0  0  0  0  0  0  0  0  0  0  0
  -25.3590  -20.9440   18.1030 N   0  0  0  0  0  0  0  0  0  0  0  0
  -24.4820  -22.7630   19.0560 O   0  0  0  0  0  0  0  0  0  0  0  0
  -26.1790  -20.3740   17.9530 H   0  0  0  0  0  0  0  0  0  0  0  0
  -24.4860  -20.6970   17.6630 H   0  0  0  0  0  0  0  0  0  0  0  0
  -29.7180  -20.1960   21.0400 C   0  0  0  0  0  2  0  0  0  0  0  0
  -29.3310  -18.6310   20.7260 C   0  0  0  0  0  2  0  0  0  0  0  0
  -30.3280  -17.3640   20.4260 C   0  0  0  0  0  2  0  0  0  0  0  0
  -30.6220  -14.7980   20.3470 C   0  0  0  0  0  0  0  0  0  0  0  0
  -30.3710  -12.5780   19.2470 C   0  0  0  0  0  2  0  0  0  0  0  0
  -29.4030  -12.7040   18.0510 C   0  0  0  0  0  2  0  0  0  0  0  0
  -27.9410  -12.5350   18.5070 C   0  0  0  0  0  2  0  0  0  0  0  0
  -27.6030  -13.3790   19.7650 C   0  0  0  0  0  3  0  0  0  0  0  0
  -28.6870  -13.2370   20.8580 C   0  0  0  0  0  2  0  0  0  0  0  0
  -29.9750  -13.5900   20.2530 N   0  0  0  0  0  0  0  0  0  0  0  0
  -31.7860  -14.9090   19.9570 O   0  0  0  0  0  0  0  0  0  0  0  0
  -29.8890  -15.9250   20.6630 N   0  0  0  0  0  0  0  0  0  0  0  0
  -28.9360  -15.7720   20.9560 H   0  0  0  0  0  0  0  0  0  0  0  0
  -25.2230  -13.9450   20.5440 C   0  0  0  0  0  0  0  0  0  0  0  0
  -24.1680  -13.1570   20.9170 C   0  0  0  0  0  0  0  0  0  0  0  0
  -24.6390  -11.8100   20.8520 C   0  0  0  0  0  0  0  0  0  0  0  0
  -26.2680  -13.0760   20.2740 N   0  0  0  0  0  0  0  0  0  0  0  0
  -25.9240  -11.7850   20.5220 N   0  0  0  0  0  0  0  0  0  0  0  0
  -23.9220  -10.5410   21.0300 C   0  0  0  0  0  0  0  0  0  0  0  0
  -24.3640   -9.5660   21.9530 C   0  0  0  0  0  3  0  0  0  0  0  0
  -23.6470   -8.3620   22.1200 C   0  0  0  0  0  3  0  0  0  0  0  0
  -22.4740   -8.1230   21.3660 C   0  0  0  0  0  0  0  0  0  0  0  0
  -22.0520   -9.0850   20.4320 C   0  0  0  0  0  3  0  0  0  0  0  0
  -22.7700  -10.2820   20.2630 C   0  0  0  0  0  3  0  0  0  0  0  0
  -21.7260   -6.9720   21.4450 O   0  0  0  0  0  0  0  0  0  0  0  0
  -21.6710   -6.2260   22.5950 C   0  0  0  0  0  0  0  0  0  0  0  0
  -21.2020   -6.7660   23.8120 C   0  0  0  0  0  3  0  0  0  0  0  0
  -21.0970   -5.9470   24.9530 C   0  0  0  0  0  3  0  0  0  0  0  0
  -21.4510   -4.5860   24.8780 C   0  0  0  0  0  0  0  0  0  0  0  0
  -21.9140   -4.0440   23.6660 C   0  0  0  0  0  3  0  0  0  0  0  0
  -22.0220   -4.8620   22.5280 C   0  0  0  0  0  0  0  0  0  0  0  0
  -22.4480   -4.3300   21.3570 F   0  0  0  0  0  0  0  0  0  0  0  0
  -21.3420   -3.7960   25.9720 F   0  0  0  0  0  0  0  0  0  0  0  0
  -22.7720  -13.6200   21.2210 C   0  0  0  0  0  0  0  0  0  0  0  0
  -22.0600  -12.9000   22.0800 N   0  0  0  0  0  0  0  0  0  0  0  0
  -22.3220  -14.6530   20.7280 O   0  0  0  0  0  0  0  0  0  0  0  0
  -22.4380  -12.0630   22.4980 H   0  0  0  0  0  0  0  0  0  0  0  0
  -21.1240  -13.1910   22.3260 H   0  0  0  0  0  0  0  0  0  0  0  0
  -25.3770  -15.3190   20.3870 N   0  0  0  0  0  0  0  0  0  0  0  0
  -24.6070  -15.9660   20.5190 H   0  0  0  0  0  0  0  0  0  0  0  0
  -26.2110  -15.7650   20.0260 H   0  0  0  0  0  0  0  0  0  0  0  0
  -28.5670  -25.4110   21.0230 C   0  0  0  0  0  2  0  0  0  0  0  0
  -28.4600  -26.6130   20.1590 O   0  0  0  0  0  0  0  0  0  0  0  0
  -24.6730  -31.9610   23.2890 C   0  0  0  0  0  0  0  0  0  0  0  0
  -27.3300  -27.4380   20.2220 C   0  0  0  0  0  0  0  0  0  0  0  0
  -23.4820  -30.5500   21.6470 C   0  0  0  0  0  3  0  0  0  0  0  0
  -24.9490  -29.0180   20.2170 C   0  0  0  0  0  0  0  0  0  0  0  0
  -26.0140  -30.9020   21.4570 C   0  0  0  0  0  2  0  0  0  0  0  0
  -26.1110  -29.5210   20.8170 C   0  0  0  0  0  0  0  0  0  0  0  0
  -27.3080  -28.7400   20.8130 C   0  0  0  0  0  3  0  0  0  0  0  0
  -26.1550  -26.9970   19.5840 C   0  0  0  0  0  3  0  0  0  0  0  0
  -24.9720  -27.7610   19.5920 C   0  0  0  0  0  3  0  0  0  0  0  0
  -23.7020  -29.8770   20.2660 C   0  0  0  0  0  2  0  0  0  0  0  0
  -24.7420  -31.1560   22.1880 N   0  0  0  0  0  0  0  0  0  0  0  0
  -23.5890  -32.2210   23.8280 O   0  0  0  0  0  0  0  0  0  0  0  0
  -22.8370  -29.5230   22.6100 C   0  0  0  0  0  0  0  0  0  0  0  0
  -21.5180  -29.3080   22.4690 N   0  0  0  0  0  0  0  0  0  0  0  0
  -23.5230  -28.9210   23.4410 O   0  0  0  0  0  0  0  0  0  0  0  0
  -21.0240  -29.8460   21.7700 H   0  0  0  0  0  0  0  0  0  0  0  0
  -18.1670  -28.0230   22.9380 C   0  0  0  0  0  0  0  0  0  0  0  0
  -20.7150  -28.3530   23.2340 C   0  0  0  0  0  3  0  0  0  0  0  0
  -20.8610  -26.9210   22.6690 C   0  0  0  0  0  2  0  0  0  0  0  0
  -19.7800  -26.5630   21.6450 C   0  0  0  0  0  2  0  0  0  0  0  0
  -18.3880  -26.6740   22.2720 C   0  0  0  0  0  2  0  0  0  0  0  0
  -19.2610  -28.8170   23.3750 C   0  0  0  0  0  0  0  0  0  0  0  0
  -19.0010  -30.0770   23.9570 C   0  0  0  0  0  3  0  0  0  0  0  0
  -17.6810  -30.5430   24.1080 C   0  0  0  0  0  3  0  0  0  0  0  0
  -16.6030  -29.7460   23.6860 C   0  0  0  0  0  3  0  0  0  0  0  0
  -16.8460  -28.4880   23.1060 C   0  0  0  0  0  3  0  0  0  0  0  0
  -25.9500  -32.6090   23.9090 C   0  0  0  0  0  3  0  0  0  0  0  0
  -25.6300  -34.0090   24.2210 N   0  0  0  0  0  0  0  0  0  0  0  0
  -25.9500  -35.0550   23.4470 C   0  0  0  0  0  0  0  0  0  0  0  0
  -26.6160  -34.9430   22.4140 O   0  0  0  0  0  0  0  0  0  0  0  0
  -25.0430  -34.1700   25.0250 H   0  0  0  0  0  0  0  0  0  0  0  0
  -24.2010  -36.8260   23.0830 C   0  0  0  0  0  1  0  0  0  0  0  0
  -25.4560  -36.4470   23.8870 C   0  0  0  0  0  3  0  0  0  0  0  0
  -27.5900  -37.3680   24.6810 C   0  0  0  0  0  1  0  0  0  0  0  0
  -26.4780  -37.5080   23.7430 N   0  0  0  0  0  0  0  0  0  0  0  0
  -26.0650  -38.4270   23.8760 H   0  0  0  0  0  0  0  0  0  0  0  0
  -26.4630  -31.8550   25.1970 C   0  0  1  0  0  0  0  0  0  0  0  0
  -25.3600  -31.6040   26.2520 C   0  0  0  0  0  1  0  0  0  0  0  0
  -27.0800  -30.4870   24.8230 C   0  0  0  0  0  1  0  0  0  0  0  0
  -27.5900  -32.6770   25.8680 C   0  0  0  0  0  1  0  0  0  0  0  0
  1  5  1  0
  2  6  2  0
  4  2  1  0
  4  1  2  0
  5  3  2  0
  5 12  1  0
  6  3  1  0
  6 53  1  0
  7  9  2  0
  7  4  1  0
  8  7  1  0
 10  8  1  0
 11  8  1  0
 13 12  1  0
 14 23  1  0
 14 13  1  0
 15 23  1  0
 16 21  1  0
 17 18  1  0
 17 16  1  0
 19 18  1  0
 19 28  1  0
 19 20  1  0
 21 15  1  0
 21 20  1  0
 22 15  2  0
 23 24  1  0
 25 26  2  0
 26 45  1  0
 27 26  1  0
 27 30  1  0
 28 29  1  0
 28 25  1  0
 29 27  2  0
 30 31  1  0
 31 32  2  0
 33 36  1  0
 33 32  1  0
 34 33  2  0
 35 34  1  0
 35 30  2  0
 36 37  1  0
 37 38  1  0
 38 39  2  0
 40 39  1  0
 40 44  1  0
 41 40  2  0
 42 37  2  0
 42 41  1  0
 43 42  1  0
 45 46  1  0
 46 49  1  0
 46 48  1  0
 47 45  2  0
 50 51  1  0
 50 25  1  0
 52 50  1  0
 54 56  1  0
 54 53  1  0
 55 66  2  0
 56 61  1  0
 57 65  1  0
 57 67  1  0
 58 64  1  0
 58 60  1  0
 59 65  1  0
 60 59  1  0
 61 60  2  0
 62 63  1  0
 62 56  2  0
 63 58  2  0
 64 57  1  0
 65 55  1  0
 67 69  2  0
 68 67  1  0
 70 68  1  0
 71 80  2  0
 71 76  1  0
 72 68  1  0
 72 76  1  0
 73 72  1  0
 74 75  1  0
 74 73  1  0
 75 71  1  0
 76 77  2  0
 77 78  1  0
 79 78  2  0
 80 79  1  0
 81 55  1  0
 81 82  1  0
 81 91  1  0
 82 85  1  0
 83 87  1  0
 83 82  1  0
 84 83  2  0
 87 86  1  0
 89 90  1  0
 89 87  1  0
 89 88  1  0
 91 94  1  1
 91 92  1  0
 93 91  1  0
M  ISO  4  15 100  23 100  53 101  54 101
M  END
>  <TORSDO>  (27) 
F 21

>  <SCORE>  (27) 
-13.598

>  <name>  (27) 
26

>  <ligand_id>  (27) 
26

>  <original_smiles>  (27) 
[H]c1c([H])c([H])c2c(c1[H])C([H])([H])C([H])([H])C([H])([H])C2([H])N([H])C(=O)C1([H])N(C(=O)C([H])(N([H])C(=O)C([H])(N([H])C([H])([H])[H])C([H])([H])[H])C(C([H])([H])[H])(C([H])([H])[H])C([H])([H])[H])C([H])([H])c2c([H])c(OC([H])([H])c3c([H])c(C(=O)N([H])[H])c([H])c(C([H])([H])C([H])([H])C([H])([H])N([H])C(=O)N4C([H])([H])C([H])([H])C([H])([H])C([H])(n5nc(-c6c([H])c([H])c(Oc7c([H])c([H])c(F)c([H])c7F)c([H])c6[H])c(C(=O)N([H])[H])c5N([H])[H])C4([H])[H])c3[H])c([H])c([H])c2C1([H])[H]

>  <smiles>  (27) 
[H]c1c([H])c([H])c2c(c1[H])C([H])([H])C([H])([H])C([H])([H])C2([H])N([H])C(=O)C1([H])N(C(=O)C([H])(N([H])C(=O)C([H])(N([H])C([H])([H])[H])C([H])([H])[H])C(C([H])([H])[H])(C([H])([H])[H])C([H])([H])[H])C([H])([H])c2c([H])c(OC([H])([H])c3c([H])c(C(=O)N([H])[H])c([H])c(C([H])([H])C([H])([H])C([H])([H])N([H])C(=O)N4C([H])([H])C([H])([H])C([H])([H])C([H])(n5nc(-c6c([H])c([H])c(Oc7c([H])c([H])c(F)c([H])c7F)c([H])c6[H])c(C(=O)N([H])[H])c5N([H])[H])C4([H])[H])c3[H])c([H])c([H])c2C1([H])[H]

$$$$
27:0:0
     RDKit          3D

 93101  0  0  1  0  0  0  0  0999 V2000
  -29.7260  -23.5470   19.3790 C   0  0  0  0  0  2  0  0  0  0  0  0
  -27.5580  -22.9560   18.2880 C   0  0  0  0  0  2  0  0  0  0  0  0
  -29.6140  -22.2870   20.2550 C   0  0  0  0  0  2  0  0  0  0  0  0
  -27.4710  -21.7040   19.1840 C   0  0  0  0  0  2  0  0  0  0  0  0
  -28.3410  -24.0840   18.9810 C   0  0  0  0  0  3  0  0  0  0  0  0
  -28.8170  -21.2180   19.5920 N   0  0  2  0  0  4  0  0  0  0  0  0
  -29.2970  -20.9750   18.7380 H   0  0  0  0  0  0  0  0  0  0  0  0
  -28.4320  -25.3510   18.1060 C   0  0  0  0  0  2  0  0  0  0  0  0
  -28.9650  -26.5880   18.8560 C   0  0  0  0  0  2  0  0  0  0  0  0
  -28.3760  -26.7830   20.1440 O   0  0  0  0  0  0  0  0  0  0  0  0
  -24.5790  -31.9190   23.2670 C   0  0  0  0  0  0  0  0  0  0  0  0
  -27.1970  -27.4850   20.1690 C   0  0  0  0  0  0  0  0  0  0  0  0
  -23.3590  -30.5120   21.6370 C   0  0  0  0  0  3  0  0  0  0  0  0
  -24.7990  -28.9660   20.2170 C   0  0  0  0  0  0  0  0  0  0  0  0
  -25.8830  -30.8680   21.4240 C   0  0  0  0  0  2  0  0  0  0  0  0
  -25.9600  -29.4950   20.7930 C   0  0  0  0  0  0  0  0  0  0  0  0
  -27.1620  -28.7580   20.7770 C   0  0  0  0  0  3  0  0  0  0  0  0
  -26.0110  -26.9460   19.6290 C   0  0  0  0  0  3  0  0  0  0  0  0
  -24.8160  -27.6850   19.6400 C   0  0  0  0  0  3  0  0  0  0  0  0
  -23.5580  -29.8260   20.2610 C   0  0  0  0  0  2  0  0  0  0  0  0
  -24.6250  -31.1140   22.1680 N   0  0  0  0  0  0  0  0  0  0  0  0
  -23.5030  -32.2000   23.8110 O   0  0  0  0  0  0  0  0  0  0  0  0
  -22.7090  -29.4990   22.6060 C   0  0  0  0  0  0  0  0  0  0  0  0
  -21.3850  -29.3180   22.4790 N   0  0  0  0  0  0  0  0  0  0  0  0
  -23.3930  -28.8790   23.4240 O   0  0  0  0  0  0  0  0  0  0  0  0
  -20.8970  -29.8710   21.7870 H   0  0  0  0  0  0  0  0  0  0  0  0
  -18.0120  -28.1260   22.9650 C   0  0  0  0  0  0  0  0  0  0  0  0
  -20.5660  -28.3890   23.2540 C   0  0  0  0  0  3  0  0  0  0  0  0
  -20.6750  -26.9520   22.6930 C   0  0  0  0  0  2  0  0  0  0  0  0
  -19.5800  -26.6170   21.6750 C   0  0  0  0  0  2  0  0  0  0  0  0
  -18.1940  -26.7700   22.3070 C   0  0  0  0  0  2  0  0  0  0  0  0
  -19.1260  -28.8940   23.3950 C   0  0  0  0  0  0  0  0  0  0  0  0
  -18.9020  -30.1650   23.9690 C   0  0  0  0  0  3  0  0  0  0  0  0
  -17.5950  -30.6680   24.1170 C   0  0  0  0  0  3  0  0  0  0  0  0
  -16.4950  -29.8960   23.7040 C   0  0  0  0  0  3  0  0  0  0  0  0
  -16.7040  -28.6270   23.1350 C   0  0  0  0  0  3  0  0  0  0  0  0
  -25.8730  -32.5430   23.8790 C   0  0  0  0  0  3  0  0  0  0  0  0
  -25.5720  -33.9430   24.2100 N   0  0  0  0  0  0  0  0  0  0  0  0
  -25.9050  -34.9920   23.4460 C   0  0  0  0  0  0  0  0  0  0  0  0
  -26.5700  -34.8840   22.4120 O   0  0  0  0  0  0  0  0  0  0  0  0
  -24.9780  -34.1030   25.0110 H   0  0  0  0  0  0  0  0  0  0  0  0
  -24.1780  -36.7860   23.1020 C   0  0  0  0  0  1  0  0  0  0  0  0
  -25.4240  -36.3810   23.9040 C   0  0  0  0  0  3  0  0  0  0  0  0
  -27.5700  -37.2610   24.7110 C   0  0  0  0  0  1  0  0  0  0  0  0
  -26.4580  -37.4320   23.7790 N   0  0  0  0  0  0  0  0  0  0  0  0
  -26.0560  -38.3530   23.9290 H   0  0  0  0  0  0  0  0  0  0  0  0
  -26.3980  -31.7680   25.1480 C   0  0  1  0  0  0  0  0  0  0  0  0
  -25.3120  -31.5330   26.2240 C   0  0  0  0  0  1  0  0  0  0  0  0
  -26.9700  -30.3890   24.7450 C   0  0  0  0  0  1  0  0  0  0  0  0
  -27.5580  -32.5560   25.8030 C   0  0  0  0  0  1  0  0  0  0  0  0
  -28.7370  -19.9660   20.3920 C   0  0  0  0  0  2  0  0  0  0  0  0
  -30.0830  -19.2180   20.4860 C   0  0  0  0  0  2  0  0  0  0  0  0
  -29.9710  -17.8600   21.1960 C   0  0  0  0  0  2  0  0  0  0  0  0
  -31.3430  -17.1800   21.3340 C   0  0  0  0  0  2  0  0  0  0  0  0
  -31.3020  -15.8290   22.0670 C   0  0  0  0  0  2  0  0  0  0  0  0
  -30.6940  -14.2180   20.2600 C   0  0  0  0  0  0  0  0  0  0  0  0
  -30.1890  -12.2190   18.9080 C   0  0  0  0  0  2  0  0  0  0  0  0
  -29.1910  -12.4980   17.7720 C   0  0  0  0  0  2  0  0  0  0  0  0
  -27.7430  -12.3670   18.2760 C   0  0  0  0  0  2  0  0  0  0  0  0
  -27.4930  -13.1740   19.5750 C   0  0  0  0  0  3  0  0  0  0  0  0
  -28.5860  -12.8800   20.6240 C   0  0  0  0  0  2  0  0  0  0  0  0
  -29.9070  -13.1420   20.0170 N   0  0  0  0  0  0  0  0  0  0  0  0
  -31.6460  -14.5410   19.5420 O   0  0  0  0  0  0  0  0  0  0  0  0
  -30.4450  -14.8390   21.4180 N   0  0  0  0  0  0  0  0  0  0  0  0
  -29.6610  -14.4900   21.9510 H   0  0  0  0  0  0  0  0  0  0  0  0
  -25.1280  -13.8120   20.3760 C   0  0  0  0  0  0  0  0  0  0  0  0
  -24.0680  -13.0520   20.7920 C   0  0  0  0  0  0  0  0  0  0  0  0
  -24.5140  -11.6960   20.7480 C   0  0  0  0  0  0  0  0  0  0  0  0
  -26.1550  -12.9200   20.1080 N   0  0  0  0  0  0  0  0  0  0  0  0
  -25.7900  -11.6420   20.3870 N   0  0  0  0  0  0  0  0  0  0  0  0
  -23.7840  -10.4410   20.9730 C   0  0  0  0  0  0  0  0  0  0  0  0
  -24.2500   -9.4690   21.8850 C   0  0  0  0  0  3  0  0  0  0  0  0
  -23.5210   -8.2790   22.0970 C   0  0  0  0  0  3  0  0  0  0  0  0
  -22.3120   -8.0530   21.3970 C   0  0  0  0  0  0  0  0  0  0  0  0
  -21.8650   -9.0150   20.4740 C   0  0  0  0  0  3  0  0  0  0  0  0
  -22.5950  -10.1950   20.2590 C   0  0  0  0  0  3  0  0  0  0  0  0
  -21.5510   -6.9160   21.5190 O   0  0  0  0  0  0  0  0  0  0  0  0
  -21.5580   -6.1660   22.6680 C   0  0  0  0  0  0  0  0  0  0  0  0
  -21.2290   -6.7220   23.9230 C   0  0  0  0  0  3  0  0  0  0  0  0
  -21.1810   -5.9000   25.0670 C   0  0  0  0  0  3  0  0  0  0  0  0
  -21.4510   -4.5230   24.9570 C   0  0  0  0  0  0  0  0  0  0  0  0
  -21.7730   -3.9660   23.7060 C   0  0  0  0  0  3  0  0  0  0  0  0
  -21.8230   -4.7850   22.5650 C   0  0  0  0  0  0  0  0  0  0  0  0
  -22.1130   -4.2390   21.3590 F   0  0  0  0  0  0  0  0  0  0  0  0
  -21.3970   -3.7310   26.0530 F   0  0  0  0  0  0  0  0  0  0  0  0
  -22.6880  -13.5440   21.1210 C   0  0  0  0  0  0  0  0  0  0  0  0
  -21.9910  -12.8580   22.0180 N   0  0  0  0  0  0  0  0  0  0  0  0
  -22.2380  -14.5730   20.6170 O   0  0  0  0  0  0  0  0  0  0  0  0
  -22.3670  -12.0240   22.4460 H   0  0  0  0  0  0  0  0  0  0  0  0
  -21.0650  -13.1690   22.2810 H   0  0  0  0  0  0  0  0  0  0  0  0
  -25.3020  -15.1810   20.1860 N   0  0  0  0  0  0  0  0  0  0  0  0
  -24.5530  -15.8490   20.3290 H   0  0  0  0  0  0  0  0  0  0  0  0
  -26.1510  -15.6050   19.8360 H   0  0  0  0  0  0  0  0  0  0  0  0
  1  3  1  0
  2  5  1  0
  2  4  1  0
  4  6  1  0
  5  8  1  0
  5  1  1  0
  6  3  1  0
  6 51  1  0
  6  7  1  6
  8  9  1  0
  9 10  1  0
 10 12  1  0
 11 22  2  0
 12 17  1  0
 13 21  1  0
 13 23  1  0
 14 20  1  0
 14 16  1  0
 15 21  1  0
 16 15  1  0
 17 16  2  0
 18 19  1  0
 18 12  2  0
 19 14  2  0
 20 13  1  0
 21 11  1  0
 23 25  2  0
 24 23  1  0
 26 24  1  0
 27 36  2  0
 27 32  1  0
 28 24  1  0
 28 32  1  0
 29 28  1  0
 30 31  1  0
 30 29  1  0
 31 27  1  0
 32 33  2  0
 33 34  1  0
 35 34  2  0
 36 35  1  0
 37 11  1  0
 37 38  1  0
 37 47  1  0
 38 41  1  0
 39 43  1  0
 39 38  1  0
 40 39  2  0
 43 42  1  0
 45 43  1  0
 45 46  1  0
 45 44  1  0
 47 50  1  1
 47 48  1  0
 49 47  1  0
 51 52  1  0
 52 53  1  0
 53 54  1  0
 54 55  1  0
 56 64  1  0
 57 62  1  0
 58 59  1  0
 58 57  1  0
 60 59  1  0
 60 69  1  0
 60 61  1  0
 62 56  1  0
 62 61  1  0
 63 56  2  0
 64 65  1  0
 64 55  1  0
 66 67  2  0
 67 86  1  0
 68 67  1  0
 68 71  1  0
 69 66  1  0
 69 70  1  0
 70 68  2  0
 71 72  1  0
 72 73  2  0
 74 77  1  0
 74 73  1  0
 75 74  2  0
 76 75  1  0
 76 71  2  0
 77 78  1  0
 78 79  1  0
 79 80  2  0
 81 80  1  0
 81 85  1  0
 82 81  2  0
 83 78  2  0
 83 82  1  0
 84 83  1  0
 86 87  1  0
 87 90  1  0
 87 89  1  0
 88 86  2  0
 91 92  1  0
 91 66  1  0
 93 91  1  0
M  ISO  4   9 101  10 101  56 100  64 100
M  END
>  <TORSDO>  (28) 
F 23

>  <SCORE>  (28) 
-12.430

>  <name>  (28) 
27

>  <ligand_id>  (28) 
27

>  <original_smiles>  (28) 
[H]c1c([H])c([H])c2c(c1[H])C([H])([H])C([H])([H])C([H])([H])C2([H])N([H])C(=O)C1([H])N(C(=O)C([H])(N([H])C(=O)C([H])(N([H])C([H])([H])[H])C([H])([H])[H])C(C([H])([H])[H])(C([H])([H])[H])C([H])([H])[H])C([H])([H])c2c([H])c(OC([H])([H])C([H])([H])C3([H])C([H])([H])C([H])([H])[N+]([H])(C([H])([H])C([H])([H])C([H])([H])C([H])([H])C([H])([H])N([H])C(=O)N4C([H])([H])C([H])([H])C([H])([H])C([H])(n5nc(-c6c([H])c([H])c(Oc7c([H])c([H])c(F)c([H])c7F)c([H])c6[H])c(C(=O)N([H])[H])c5N([H])[H])C4([H])[H])C([H])([H])C3([H])[H])c([H])c([H])c2C1([H])[H]

>  <smiles>  (28) 
[H]c1c([H])c([H])c2c(c1[H])C([H])([H])C([H])([H])C([H])([H])C2([H])N([H])C(=O)C1([H])N(C(=O)C([H])(N([H])C(=O)C([H])(N([H])C([H])([H])[H])C([H])([H])[H])C(C([H])([H])[H])(C([H])([H])[H])C([H])([H])[H])C([H])([H])c2c([H])c(OC([H])([H])C([H])([H])C3([H])C([H])([H])C([H])([H])[N+]([H])(C([H])([H])C([H])([H])C([H])([H])C([H])([H])C([H])([H])N([H])C(=O)N4C([H])([H])C([H])([H])C([H])([H])C([H])(n5nc(-c6c([H])c([H])c(Oc7c([H])c([H])c(F)c([H])c7F)c([H])c6[H])c(C(=O)N([H])[H])c5N([H])[H])C4([H])[H])C([H])([H])C3([H])[H])c([H])c([H])c2C1([H])[H]

$$$$
28:0:0
     RDKit          3D

 88 96  0  0  1  0  0  0  0  0999 V2000
  -28.7230  -21.7280   20.3760 C   0  0  0  0  0  2  0  0  0  0  0  0
  -29.7910  -20.5490   20.2820 N   0  0  0  0  0  4  0  0  0  0  0  0
  -30.5150  -20.8870   19.6680 H   0  0  0  0  0  0  0  0  0  0  0  0
  -30.2290  -20.5010   21.1870 H   0  0  0  0  0  0  0  0  0  0  0  0
  -28.6770  -17.0660   20.7290 C   0  0  0  0  0  3  0  0  0  0  0  0
  -30.7300  -17.9200   19.9550 C   0  0  0  0  0  2  0  0  0  0  0  0
  -30.1390  -16.5750   20.6640 C   0  0  0  0  0  3  0  0  0  0  0  0
  -29.5450  -19.0380   19.8310 C   0  0  0  0  0  3  0  0  0  0  0  0
  -28.4090  -18.3100   20.4340 N   0  0  0  0  0  0  0  0  0  0  0  0
  -30.5850  -15.0240   20.2080 C   0  0  0  0  0  0  0  0  0  0  0  0
  -30.3440  -12.6590   19.3250 C   0  0  0  0  0  2  0  0  0  0  0  0
  -29.4170  -12.6370   18.0900 C   0  0  0  0  0  2  0  0  0  0  0  0
  -27.9450  -12.4630   18.5120 C   0  0  0  0  0  2  0  0  0  0  0  0
  -27.5660  -13.3530   19.7280 C   0  0  0  0  0  3  0  0  0  0  0  0
  -28.6490  -13.3960   20.8340 C   0  0  0  0  0  2  0  0  0  0  0  0
  -29.9180  -13.7890   20.2080 N   0  0  0  0  0  0  0  0  0  0  0  0
  -31.7360  -14.9740   19.7660 O   0  0  0  0  0  0  0  0  0  0  0  0
  -25.1960  -13.8930   20.5290 C   0  0  0  0  0  0  0  0  0  0  0  0
  -24.1390  -13.1020   20.8960 C   0  0  0  0  0  0  0  0  0  0  0  0
  -24.6040  -11.7570   20.8230 C   0  0  0  0  0  0  0  0  0  0  0  0
  -26.2360  -13.0230   20.2490 N   0  0  0  0  0  0  0  0  0  0  0  0
  -25.8910  -11.7290   20.4940 N   0  0  0  0  0  0  0  0  0  0  0  0
  -23.8790  -10.4880   21.0040 C   0  0  0  0  0  0  0  0  0  0  0  0
  -24.3040   -9.5190   21.9360 C   0  0  0  0  0  3  0  0  0  0  0  0
  -23.5750   -8.3220   22.1110 C   0  0  0  0  0  3  0  0  0  0  0  0
  -22.4060   -8.0820   21.3500 C   0  0  0  0  0  0  0  0  0  0  0  0
  -21.9970   -9.0440   20.4090 C   0  0  0  0  0  3  0  0  0  0  0  0
  -22.7270  -10.2330   20.2350 C   0  0  0  0  0  3  0  0  0  0  0  0
  -21.6510   -6.9370   21.4320 O   0  0  0  0  0  0  0  0  0  0  0  0
  -21.5710   -6.2050   22.5900 C   0  0  0  0  0  0  0  0  0  0  0  0
  -21.0890   -6.7650   23.7930 C   0  0  0  0  0  3  0  0  0  0  0  0
  -20.9620   -5.9610   24.9420 C   0  0  0  0  0  3  0  0  0  0  0  0
  -21.3020   -4.5950   24.8890 C   0  0  0  0  0  0  0  0  0  0  0  0
  -21.7750   -4.0350   23.6910 C   0  0  0  0  0  3  0  0  0  0  0  0
  -21.9070   -4.8370   22.5440 C   0  0  0  0  0  0  0  0  0  0  0  0
  -22.3450   -4.2860   21.3860 F   0  0  0  0  0  0  0  0  0  0  0  0
  -21.1730   -3.8210   25.9920 F   0  0  0  0  0  0  0  0  0  0  0  0
  -22.7480  -13.5770   21.1930 C   0  0  0  0  0  0  0  0  0  0  0  0
  -22.0300  -12.8630   22.0560 N   0  0  0  0  0  0  0  0  0  0  0  0
  -22.3030  -14.6060   20.6940 O   0  0  0  0  0  0  0  0  0  0  0  0
  -22.4010  -12.0340   22.4940 H   0  0  0  0  0  0  0  0  0  0  0  0
  -21.0890  -13.1520   22.2820 H   0  0  0  0  0  0  0  0  0  0  0  0
  -25.3440  -15.2690   20.3960 N   0  0  0  0  0  0  0  0  0  0  0  0
  -24.5860  -15.9060   20.6140 H   0  0  0  0  0  0  0  0  0  0  0  0
  -26.1680  -15.7410   20.0470 H   0  0  0  0  0  0  0  0  0  0  0  0
  -29.0490  -23.3590   20.0180 C   0  0  0  0  0  3  0  0  0  0  0  0
  -28.1130  -24.6880   20.5160 C   0  0  0  0  0  3  0  0  0  0  0  0
  -28.3200  -26.2200   20.2530 O   0  0  0  0  0  0  0  0  0  0  0  0
  -24.5850  -31.8830   23.2160 C   0  0  0  0  0  0  0  0  0  0  0  0
  -27.2390  -27.1850   20.2280 C   0  0  0  0  0  0  0  0  0  0  0  0
  -23.4020  -30.4740   21.5670 C   0  0  0  0  0  3  0  0  0  0  0  0
  -24.8810  -28.8990   20.1570 C   0  0  0  0  0  0  0  0  0  0  0  0
  -25.9510  -30.7600   21.4180 C   0  0  0  0  0  2  0  0  0  0  0  0
  -26.0460  -29.3610   20.7870 C   0  0  0  0  0  0  0  0  0  0  0  0
  -27.2230  -28.5170   20.8090 C   0  0  0  0  0  3  0  0  0  0  0  0
  -26.0570  -26.8370   19.5320 C   0  0  0  0  0  3  0  0  0  0  0  0
  -24.9060  -27.6550   19.5040 C   0  0  0  0  0  3  0  0  0  0  0  0
  -23.6400  -29.7850   20.1940 C   0  0  0  0  0  2  0  0  0  0  0  0
  -24.6640  -31.0630   22.1210 N   0  0  0  0  0  0  0  0  0  0  0  0
  -23.4930  -32.1570   23.7410 O   0  0  0  0  0  0  0  0  0  0  0  0
  -22.7240  -29.4670   22.5320 C   0  0  0  0  0  0  0  0  0  0  0  0
  -21.3940  -29.3010   22.4150 N   0  0  0  0  0  0  0  0  0  0  0  0
  -23.3980  -28.8420   23.3520 O   0  0  0  0  0  0  0  0  0  0  0  0
  -20.8990  -29.8730   21.7470 H   0  0  0  0  0  0  0  0  0  0  0  0
  -18.0120  -28.1120   22.9360 C   0  0  0  0  0  0  0  0  0  0  0  0
  -20.5760  -28.3590   23.1830 C   0  0  0  0  0  3  0  0  0  0  0  0
  -20.6600  -26.9280   22.6000 C   0  0  0  0  0  2  0  0  0  0  0  0
  -19.5450  -26.6220   21.5910 C   0  0  0  0  0  2  0  0  0  0  0  0
  -18.1710  -26.7710   22.2450 C   0  0  0  0  0  2  0  0  0  0  0  0
  -19.1390  -28.8650   23.3610 C   0  0  0  0  0  0  0  0  0  0  0  0
  -18.9280  -30.1240   23.9650 C   0  0  0  0  0  3  0  0  0  0  0  0
  -17.6270  -30.6290   24.1450 C   0  0  0  0  0  3  0  0  0  0  0  0
  -16.5160  -29.8780   23.7220 C   0  0  0  0  0  3  0  0  0  0  0  0
  -16.7090  -28.6210   23.1250 C   0  0  0  0  0  3  0  0  0  0  0  0
  -25.8530  -32.5270   23.8550 C   0  0  0  0  0  3  0  0  0  0  0  0
  -26.3540  -31.7620   25.1470 C   0  0  1  0  0  0  0  0  0  0  0  0
  -25.2590  -31.5360   26.2150 C   0  0  0  0  0  1  0  0  0  0  0  0
  -26.9350  -30.3790   24.7670 C   0  0  0  0  0  1  0  0  0  0  0  0
  -27.4970  -32.5610   25.8150 C   0  0  0  0  0  1  0  0  0  0  0  0
  -25.5390  -33.9280   24.1740 N   0  0  0  0  0  0  0  0  0  0  0  0
  -25.8920  -34.9790   23.4190 C   0  0  0  0  0  0  0  0  0  0  0  0
  -26.5780  -34.8650   22.3980 O   0  0  0  0  0  0  0  0  0  0  0  0
  -24.9300  -34.0900   24.9640 H   0  0  0  0  0  0  0  0  0  0  0  0
  -24.1770  -36.7780   23.0240 C   0  0  0  0  0  1  0  0  0  0  0  0
  -25.4000  -36.3710   23.8630 C   0  0  0  0  0  3  0  0  0  0  0  0
  -27.5250  -37.2440   24.7280 C   0  0  0  0  0  1  0  0  0  0  0  0
  -26.4370  -37.4220   23.7700 N   0  0  0  0  0  0  0  0  0  0  0  0
  -26.0320  -38.3440   23.9110 H   0  0  0  0  0  0  0  0  0  0  0  0
  2  1  1  0
  2  4  1  0
  3  2  1  0
  6  7  1  0
  7 10  1  0
  7  5  1  0
  8  6  1  0
  8  2  1  0
  8  9  1  0
  9  5  2  0
 11 16  1  0
 12 13  1  0
 12 11  1  0
 14 13  1  0
 14 21  1  0
 14 15  1  0
 16 10  1  0
 16 15  1  0
 17 10  2  0
 18 19  2  0
 19 38  1  0
 20 19  1  0
 20 23  1  0
 21 22  1  0
 21 18  1  0
 22 20  2  0
 23 24  1  0
 24 25  2  0
 26 29  1  0
 26 25  1  0
 27 26  2  0
 28 27  1  0
 28 23  2  0
 29 30  1  0
 30 31  1  0
 31 32  2  0
 33 32  1  0
 33 37  1  0
 34 33  2  0
 35 30  2  0
 35 34  1  0
 36 35  1  0
 38 39  1  0
 39 42  1  0
 39 41  1  0
 40 38  2  0
 43 18  1  0
 43 44  1  0
 45 43  1  0
 46  1  1  0
 46 47  2  0
 48 47  1  0
 49 60  2  0
 50 48  1  0
 50 55  1  0
 51 59  1  0
 51 61  1  0
 52 58  1  0
 52 54  1  0
 53 59  1  0
 54 55  2  0
 54 53  1  0
 56 50  2  0
 57 56  1  0
 57 52  2  0
 58 51  1  0
 59 49  1  0
 61 63  2  0
 62 61  1  0
 64 62  1  0
 65 74  2  0
 65 70  1  0
 66 62  1  0
 66 70  1  0
 67 66  1  0
 68 69  1  0
 68 67  1  0
 69 65  1  0
 70 71  2  0
 71 72  1  0
 73 72  2  0
 74 73  1  0
 75 49  1  0
 75 80  1  0
 75 76  1  0
 76 79  1  1
 76 77  1  0
 78 76  1  0
 80 83  1  0
 81 85  1  0
 81 80  1  0
 82 81  2  0
 85 84  1  0
 87 85  1  0
 87 88  1  0
 87 86  1  0
M  ISO  4   7 100  10 100  47 101  48 101
M  END
>  <TORSDO>  (29) 
F 20

>  <SCORE>  (29) 
-14.971

>  <name>  (29) 
28

>  <ligand_id>  (29) 
28

>  <original_smiles>  (29) 
[H]C1=NC([H])([N+]([H])([H])C([H])([H])C([H])([H])C([H])([H])Oc2c([H])c([H])c3c(c2[H])C([H])([H])N(C(=O)C([H])(N([H])C(=O)C([H])(N([H])C([H])([H])[H])C([H])([H])[H])C(C([H])([H])[H])(C([H])([H])[H])C([H])([H])[H])C([H])(C(=O)N([H])C2([H])c4c([H])c([H])c([H])c([H])c4C([H])([H])C([H])([H])C2([H])[H])C3([H])[H])C([H])([H])C1([H])C(=O)N1C([H])([H])C([H])([H])C([H])([H])C([H])(n2nc(-c3c([H])c([H])c(Oc4c([H])c([H])c(F)c([H])c4F)c([H])c3[H])c(C(=O)N([H])[H])c2N([H])[H])C1([H])[H]

>  <smiles>  (29) 
[H]C1=NC([H])([N+]([H])([H])C([H])([H])C([H])([H])C([H])([H])Oc2c([H])c([H])c3c(c2[H])C([H])([H])N(C(=O)C([H])(N([H])C(=O)C([H])(N([H])C([H])([H])[H])C([H])([H])[H])C(C([H])([H])[H])(C([H])([H])[H])C([H])([H])[H])C([H])(C(=O)N([H])C2([H])c4c([H])c([H])c([H])c([H])c4C([H])([H])C([H])([H])C2([H])[H])C3([H])[H])C([H])([H])C1([H])C(=O)N1C([H])([H])C([H])([H])C([H])([H])C([H])(n2nc(-c3c([H])c([H])c(Oc4c([H])c([H])c(F)c([H])c4F)c([H])c3[H])c(C(=O)N([H])[H])c2N([H])[H])C1([H])[H]

$$$$
29:0:0
     RDKit          3D

 96106  0  0  1  0  0  0  0  0999 V2000
  -29.8820  -22.4790   19.6520 C   0  0  0  0  0  2  0  0  0  0  0  0
  -32.3260  -22.7720   20.0190 C   0  0  0  0  0  2  0  0  0  0  0  0
  -30.7690  -22.8580   21.9710 C   0  0  0  0  0  2  0  0  0  0  0  0
  -29.6960  -24.0080   19.5080 C   0  0  0  0  0  2  0  0  0  0  0  0
  -32.1560  -24.2880   19.7870 C   0  0  0  0  0  2  0  0  0  0  0  0
  -30.6680  -24.3960   21.7850 C   0  0  0  0  0  2  0  0  0  0  0  0
  -31.0440  -22.1490   20.6210 C   0  0  1  0  0  0  0  0  0  0  0  0
  -30.7800  -24.7890   20.2910 C   0  0  2  0  0  0  0  0  0  0  0  0
  -31.2640  -20.6210   20.7630 C   0  0  0  0  0  2  0  0  0  0  0  0
  -30.2390  -19.8230   21.6010 C   0  0  0  0  0  2  0  0  0  0  0  0
  -30.8060  -14.5020   20.1430 C   0  0  0  0  0  0  0  0  0  0  0  0
  -30.3830  -12.4230   18.9030 C   0  0  0  0  0  2  0  0  0  0  0  0
  -29.3780  -12.7080   17.7710 C   0  0  0  0  0  2  0  0  0  0  0  0
  -27.9320  -12.5560   18.2780 C   0  0  0  0  0  2  0  0  0  0  0  0
  -27.6780  -13.3230   19.6030 C   0  0  0  0  0  3  0  0  0  0  0  0
  -28.7970  -13.0580   20.6350 C   0  0  0  0  0  2  0  0  0  0  0  0
  -30.0870  -13.3590   19.9950 N   0  0  0  0  0  0  0  0  0  0  0  0
  -31.9170  -14.6730   19.6280 O   0  0  0  0  0  0  0  0  0  0  0  0
  -29.7240  -16.5710   19.6640 C   0  0  0  0  0  2  0  0  0  0  0  0
  -30.5960  -16.0170   22.0010 C   0  0  0  0  0  2  0  0  0  0  0  0
  -29.3920  -17.9740   20.1960 C   0  0  0  0  0  2  0  0  0  0  0  0
  -30.1840  -17.4500   22.4060 C   0  0  0  0  0  2  0  0  0  0  0  0
  -30.1460  -15.5600   20.6650 N   0  0  0  0  0  0  0  0  0  0  0  0
  -30.3220  -18.3770   21.2660 N   0  0  2  0  0  4  0  0  0  0  0  0
  -31.2580  -18.2380   20.9170 H   0  0  0  0  0  0  0  0  0  0  0  0
  -25.3250  -13.9110   20.4560 C   0  0  0  0  0  0  0  0  0  0  0  0
  -24.2800  -13.1280   20.8630 C   0  0  0  0  0  0  0  0  0  0  0  0
  -24.7390  -11.7790   20.7710 C   0  0  0  0  0  0  0  0  0  0  0  0
  -26.3550  -13.0370   20.1460 N   0  0  0  0  0  0  0  0  0  0  0  0
  -26.0110  -11.7490   20.3940 N   0  0  0  0  0  0  0  0  0  0  0  0
  -24.0270  -10.5090   20.9650 C   0  0  0  0  0  0  0  0  0  0  0  0
  -24.4850   -9.5400   21.8840 C   0  0  0  0  0  3  0  0  0  0  0  0
  -23.7730   -8.3340   22.0670 C   0  0  0  0  0  3  0  0  0  0  0  0
  -22.5900   -8.0920   21.3300 C   0  0  0  0  0  0  0  0  0  0  0  0
  -22.1520   -9.0500   20.3990 C   0  0  0  0  0  3  0  0  0  0  0  0
  -22.8640  -10.2470   20.2150 C   0  0  0  0  0  3  0  0  0  0  0  0
  -21.8470   -6.9390   21.4230 O   0  0  0  0  0  0  0  0  0  0  0  0
  -21.7820   -6.2150   22.5850 C   0  0  0  0  0  0  0  0  0  0  0  0
  -21.3410   -6.7900   23.7970 C   0  0  0  0  0  3  0  0  0  0  0  0
  -21.2250   -5.9940   24.9540 C   0  0  0  0  0  3  0  0  0  0  0  0
  -21.5410   -4.6220   24.8990 C   0  0  0  0  0  0  0  0  0  0  0  0
  -21.9770   -4.0480   23.6920 C   0  0  0  0  0  3  0  0  0  0  0  0
  -22.0940   -4.8420   22.5390 C   0  0  0  0  0  0  0  0  0  0  0  0
  -22.4930   -4.2790   21.3730 F   0  0  0  0  0  0  0  0  0  0  0  0
  -21.4220   -3.8560   26.0080 F   0  0  0  0  0  0  0  0  0  0  0  0
  -22.8990  -13.5930   21.2260 C   0  0  0  0  0  0  0  0  0  0  0  0
  -22.2280  -12.8770   22.1220 N   0  0  0  0  0  0  0  0  0  0  0  0
  -22.4260  -14.6250   20.7510 O   0  0  0  0  0  0  0  0  0  0  0  0
  -22.6250  -12.0420   22.5270 H   0  0  0  0  0  0  0  0  0  0  0  0
  -21.3030  -13.1660   22.4070 H   0  0  0  0  0  0  0  0  0  0  0  0
  -25.4810  -15.2860   20.3060 N   0  0  0  0  0  0  0  0  0  0  0  0
  -24.7270  -15.9430   20.4720 H   0  0  0  0  0  0  0  0  0  0  0  0
  -26.3200  -15.7290   19.9540 H   0  0  0  0  0  0  0  0  0  0  0  0
  -30.7070  -26.3240   20.0540 C   0  0  0  0  0  2  0  0  0  0  0  0
  -29.4980  -27.1080   20.6030 C   0  0  0  0  0  2  0  0  0  0  0  0
  -28.2970  -26.6900   19.9680 O   0  0  0  0  0  0  0  0  0  0  0  0
  -24.5080  -31.8590   23.1910 C   0  0  0  0  0  0  0  0  0  0  0  0
  -27.1570  -27.4570   20.0780 C   0  0  0  0  0  0  0  0  0  0  0  0
  -23.2860  -30.4550   21.5600 C   0  0  0  0  0  3  0  0  0  0  0  0
  -24.7330  -28.9160   20.1280 C   0  0  0  0  0  0  0  0  0  0  0  0
  -25.8030  -30.8270   21.3340 C   0  0  0  0  0  2  0  0  0  0  0  0
  -25.8890  -29.4540   20.7070 C   0  0  0  0  0  0  0  0  0  0  0  0
  -27.0990  -28.7300   20.6950 C   0  0  0  0  0  3  0  0  0  0  0  0
  -25.9830  -26.9270   19.5050 C   0  0  0  0  0  3  0  0  0  0  0  0
  -24.7690  -27.6440   19.5310 C   0  0  0  0  0  3  0  0  0  0  0  0
  -23.4830  -29.7670   20.1820 C   0  0  0  0  0  2  0  0  0  0  0  0
  -24.5510  -31.0620   22.0870 N   0  0  0  0  0  0  0  0  0  0  0  0
  -23.4340  -32.1300   23.7430 O   0  0  0  0  0  0  0  0  0  0  0  0
  -22.6480  -29.4350   22.5300 C   0  0  0  0  0  0  0  0  0  0  0  0
  -21.3230  -29.2580   22.4170 N   0  0  0  0  0  0  0  0  0  0  0  0
  -23.3410  -28.8050   23.3340 O   0  0  0  0  0  0  0  0  0  0  0  0
  -20.8260  -29.8170   21.7370 H   0  0  0  0  0  0  0  0  0  0  0  0
  -17.9480  -28.0800   22.9520 C   0  0  0  0  0  0  0  0  0  0  0  0
  -20.5100  -28.3250   23.1960 C   0  0  0  0  0  3  0  0  0  0  0  0
  -20.5990  -26.8950   22.6150 C   0  0  0  0  0  2  0  0  0  0  0  0
  -19.4830  -26.5790   21.6150 C   0  0  0  0  0  2  0  0  0  0  0  0
  -18.1100  -26.7310   22.2730 C   0  0  0  0  0  2  0  0  0  0  0  0
  -19.0750  -28.8360   23.3710 C   0  0  0  0  0  0  0  0  0  0  0  0
  -18.8700  -30.1000   23.9650 C   0  0  0  0  0  3  0  0  0  0  0  0
  -17.5700  -30.6070   24.1480 C   0  0  0  0  0  3  0  0  0  0  0  0
  -16.4580  -29.8490   23.7440 C   0  0  0  0  0  3  0  0  0  0  0  0
  -16.6470  -28.5880   23.1520 C   0  0  0  0  0  3  0  0  0  0  0  0
  -25.8020  -32.4850   23.8000 C   0  0  0  0  0  3  0  0  0  0  0  0
  -26.3440  -31.6970   25.0550 C   0  0  1  0  0  0  0  0  0  0  0  0
  -25.2710  -31.4360   26.1370 C   0  0  0  0  0  1  0  0  0  0  0  0
  -26.9260  -30.3280   24.6290 C   0  0  0  0  0  1  0  0  0  0  0  0
  -27.5060  -32.4850   25.7070 C   0  0  0  0  0  1  0  0  0  0  0  0
  -25.4940  -33.8770   24.1490 N   0  0  0  0  0  0  0  0  0  0  0  0
  -25.8250  -34.9390   23.4000 C   0  0  0  0  0  0  0  0  0  0  0  0
  -26.4890  -34.8480   22.3640 O   0  0  0  0  0  0  0  0  0  0  0  0
  -24.8930  -34.0200   24.9470 H   0  0  0  0  0  0  0  0  0  0  0  0
  -24.0930  -36.7330   23.0730 C   0  0  0  0  0  1  0  0  0  0  0  0
  -25.3380  -36.3220   23.8750 C   0  0  0  0  0  3  0  0  0  0  0  0
  -27.4770  -37.1910   24.7040 C   0  0  0  0  0  1  0  0  0  0  0  0
  -26.3690  -37.3760   23.7720 N   0  0  0  0  0  0  0  0  0  0  0  0
  -25.9650  -38.2930   23.9380 H   0  0  0  0  0  0  0  0  0  0  0  0
  1  7  1  0
  2  7  1  0
  4  1  1  0
  4  8  1  0
  5  2  1  0
  5  8  1  0
  6  3  1  0
  7  9  1  1
  7  3  1  0
  8 54  1  1
  8  6  1  0
  9 10  1  0
 11 23  1  0
 12 17  1  0
 13 14  1  0
 13 12  1  0
 15 14  1  0
 15 29  1  0
 15 16  1  0
 17 11  1  0
 17 16  1  0
 18 11  2  0
 19 21  1  0
 19 23  1  0
 20 22  1  0
 21 24  1  0
 23 20  1  0
 24 10  1  0
 24 22  1  0
 24 25  1  6
 26 27  2  0
 27 46  1  0
 28 27  1  0
 28 31  1  0
 29 30  1  0
 29 26  1  0
 30 28  2  0
 31 32  1  0
 32 33  2  0
 34 37  1  0
 34 33  1  0
 35 34  2  0
 36 35  1  0
 36 31  2  0
 37 38  1  0
 38 39  1  0
 39 40  2  0
 41 40  1  0
 41 45  1  0
 42 41  2  0
 43 38  2  0
 43 42  1  0
 44 43  1  0
 46 47  1  0
 47 50  1  0
 47 49  1  0
 48 46  2  0
 51 26  1  0
 51 52  1  0
 53 51  1  0
 54 55  1  0
 56 58  1  0
 56 55  1  0
 57 68  2  0
 58 63  1  0
 59 67  1  0
 59 69  1  0
 60 66  1  0
 60 62  1  0
 61 67  1  0
 62 61  1  0
 63 62  2  0
 64 65  1  0
 64 58  2  0
 65 60  2  0
 66 59  1  0
 67 57  1  0
 69 71  2  0
 70 69  1  0
 72 70  1  0
 73 82  2  0
 73 78  1  0
 74 70  1  0
 74 78  1  0
 75 74  1  0
 76 77  1  0
 76 75  1  0
 77 73  1  0
 78 79  2  0
 79 80  1  0
 81 80  2  0
 82 81  1  0
 83 57  1  0
 83 88  1  0
 83 84  1  0
 84 87  1  1
 84 85  1  0
 86 84  1  0
 88 91  1  0
 89 93  1  0
 89 88  1  0
 90 89  2  0
 93 92  1  0
 95 93  1  0
 95 96  1  0
 95 94  1  0
M  ISO  4  11 100  23 100  55 101  56 101
M  END
>  <TORSDO>  (30) 
F 20

>  <SCORE>  (30) 
-13.557

>  <name>  (30) 
29

>  <ligand_id>  (30) 
29

>  <original_smiles>  (30) 
[H]c1c([H])c([H])c2c(c1[H])C([H])([H])C([H])([H])C([H])([H])C2([H])N([H])C(=O)C1([H])N(C(=O)C([H])(N([H])C(=O)C([H])(N([H])C([H])([H])[H])C([H])([H])[H])C(C([H])([H])[H])(C([H])([H])[H])C([H])([H])[H])C([H])([H])c2c([H])c(OC([H])([H])C([H])([H])C34C([H])([H])C([H])([H])C(C([H])([H])C([H])([H])[N+]5([H])C([H])([H])C([H])([H])N(C(=O)N6C([H])([H])C([H])([H])C([H])([H])C([H])(n7nc(-c8c([H])c([H])c(Oc9c([H])c([H])c(F)c([H])c9F)c([H])c8[H])c(C(=O)N([H])[H])c7N([H])[H])C6([H])[H])C([H])([H])C5([H])[H])(C([H])([H])C3([H])[H])C([H])([H])C4([H])[H])c([H])c([H])c2C1([H])[H]

>  <smiles>  (30) 
[H]c1c([H])c([H])c2c(c1[H])C([H])([H])C([H])([H])C([H])([H])C2([H])N([H])C(=O)C1([H])N(C(=O)C([H])(N([H])C(=O)C([H])(N([H])C([H])([H])[H])C([H])([H])[H])C(C([H])([H])[H])(C([H])([H])[H])C([H])([H])[H])C([H])([H])c2c([H])c(OC([H])([H])C([H])([H])C34C([H])([H])C([H])([H])C(C([H])([H])C([H])([H])[N+]5([H])C([H])([H])C([H])([H])N(C(=O)N6C([H])([H])C([H])([H])C([H])([H])C([H])(n7nc(-c8c([H])c([H])c(Oc9c([H])c([H])c(F)c([H])c9F)c([H])c8[H])c(C(=O)N([H])[H])c7N([H])[H])C6([H])[H])C([H])([H])C5([H])[H])(C([H])([H])C3([H])[H])C([H])([H])C4([H])[H])c([H])c([H])c2C1([H])[H]

$$$$
30:0:0
     RDKit          3D

 92100  0  0  1  0  0  0  0  0999 V2000
  -32.0490  -22.0610   20.0640 C   0  0  0  0  0  2  0  0  0  0  0  0
  -31.8900  -20.7940   19.2020 C   0  0  0  0  0  2  0  0  0  0  0  0
  -31.2960  -22.0460   21.4050 C   0  0  0  0  0  2  0  0  0  0  0  0
  -31.5430  -19.4980   19.9600 C   0  0  0  0  0  2  0  0  0  0  0  0
  -29.4960  -20.1860   21.2810 C   0  0  0  0  0  2  0  0  0  0  0  0
  -29.7900  -21.7390   21.2950 C   0  0  0  0  0  3  0  0  0  0  0  0
  -30.0790  -19.3560   20.1760 N   0  0  2  0  0  4  0  0  0  0  0  0
  -29.6610  -19.7460   19.3470 H   0  0  0  0  0  0  0  0  0  0  0  0
  -29.0410  -22.7020   20.3020 C   0  0  0  0  0  2  0  0  0  0  0  0
  -29.1660  -24.2340   20.6570 C   0  0  0  0  0  3  0  0  0  0  0  0
  -28.2840  -25.2070   19.8140 C   0  0  0  0  0  3  0  0  0  0  0  0
  -28.3660  -26.6180   20.1900 O   0  0  0  0  0  0  0  0  0  0  0  0
  -24.5970  -31.8890   23.2490 C   0  0  0  0  0  0  0  0  0  0  0  0
  -27.2130  -27.4020   20.1440 C   0  0  0  0  0  0  0  0  0  0  0  0
  -23.3900  -30.4910   21.6100 C   0  0  0  0  0  3  0  0  0  0  0  0
  -24.8350  -28.9660   20.1630 C   0  0  0  0  0  0  0  0  0  0  0  0
  -25.9200  -30.8330   21.4110 C   0  0  0  0  0  2  0  0  0  0  0  0
  -25.9980  -29.4640   20.7600 C   0  0  0  0  0  0  0  0  0  0  0  0
  -27.1900  -28.6930   20.7450 C   0  0  0  0  0  3  0  0  0  0  0  0
  -26.0300  -26.9540   19.5110 C   0  0  0  0  0  3  0  0  0  0  0  0
  -24.8520  -27.7180   19.5260 C   0  0  0  0  0  3  0  0  0  0  0  0
  -23.5970  -29.8290   20.2230 C   0  0  0  0  0  2  0  0  0  0  0  0
  -24.6550  -31.0890   22.1460 N   0  0  0  0  0  0  0  0  0  0  0  0
  -23.5160  -32.1580   23.7900 O   0  0  0  0  0  0  0  0  0  0  0  0
  -22.7370  -29.4670   22.5710 C   0  0  0  0  0  0  0  0  0  0  0  0
  -21.4110  -29.2870   22.4520 N   0  0  0  0  0  0  0  0  0  0  0  0
  -23.4230  -28.8380   23.3820 O   0  0  0  0  0  0  0  0  0  0  0  0
  -20.9190  -29.8520   21.7740 H   0  0  0  0  0  0  0  0  0  0  0  0
  -18.0350  -28.0870   22.9580 C   0  0  0  0  0  0  0  0  0  0  0  0
  -20.5930  -28.3510   23.2230 C   0  0  0  0  0  3  0  0  0  0  0  0
  -20.6960  -26.9190   22.6480 C   0  0  0  0  0  2  0  0  0  0  0  0
  -19.5900  -26.5940   21.6370 C   0  0  0  0  0  2  0  0  0  0  0  0
  -18.2110  -26.7380   22.2820 C   0  0  0  0  0  2  0  0  0  0  0  0
  -19.1530  -28.8530   23.3850 C   0  0  0  0  0  0  0  0  0  0  0  0
  -18.9300  -30.1160   23.9760 C   0  0  0  0  0  3  0  0  0  0  0  0
  -17.6230  -30.6130   24.1440 C   0  0  0  0  0  3  0  0  0  0  0  0
  -16.5200  -29.8450   23.7300 C   0  0  0  0  0  3  0  0  0  0  0  0
  -16.7280  -28.5840   23.1440 C   0  0  0  0  0  3  0  0  0  0  0  0
  -25.8810  -32.5240   23.8660 C   0  0  0  0  0  3  0  0  0  0  0  0
  -25.5750  -33.9220   24.1930 N   0  0  0  0  0  0  0  0  0  0  0  0
  -25.9050  -34.9720   23.4280 C   0  0  0  0  0  0  0  0  0  0  0  0
  -26.5710  -34.8650   22.3950 O   0  0  0  0  0  0  0  0  0  0  0  0
  -24.9900  -34.0780   25.0010 H   0  0  0  0  0  0  0  0  0  0  0  0
  -24.1760  -36.7650   23.0780 C   0  0  0  0  0  1  0  0  0  0  0  0
  -25.4210  -36.3630   23.8850 C   0  0  0  0  0  3  0  0  0  0  0  0
  -27.5620  -37.2460   24.7030 C   0  0  0  0  0  1  0  0  0  0  0  0
  -26.4550  -37.4150   23.7650 N   0  0  0  0  0  0  0  0  0  0  0  0
  -26.0500  -38.3340   23.9140 H   0  0  0  0  0  0  0  0  0  0  0  0
  -26.4030  -31.7560   25.1430 C   0  0  1  0  0  0  0  0  0  0  0  0
  -25.3140  -31.5220   26.2160 C   0  0  0  0  0  1  0  0  0  0  0  0
  -26.9800  -30.3790   24.7480 C   0  0  0  0  0  1  0  0  0  0  0  0
  -27.5590  -32.5500   25.7980 C   0  0  0  0  0  1  0  0  0  0  0  0
  -29.6280  -17.9170   20.1700 C   0  0  0  0  0  2  0  0  0  0  0  0
  -30.3290  -16.9600   21.1920 C   0  0  0  0  0  2  0  0  0  0  0  0
  -30.6280  -14.5450   20.4480 C   0  0  0  0  0  0  0  0  0  0  0  0
  -30.3410  -12.3990   19.2540 C   0  0  0  0  0  2  0  0  0  0  0  0
  -29.3720  -12.6000   18.0710 C   0  0  0  0  0  2  0  0  0  0  0  0
  -27.9050  -12.4400   18.5180 C   0  0  0  0  0  2  0  0  0  0  0  0
  -27.5850  -13.2620   19.7960 C   0  0  0  0  0  3  0  0  0  0  0  0
  -28.6580  -13.0300   20.8830 C   0  0  0  0  0  2  0  0  0  0  0  0
  -29.9680  -13.3620   20.3040 N   0  0  0  0  0  0  0  0  0  0  0  0
  -31.7340  -14.7520   19.9470 O   0  0  0  0  0  0  0  0  0  0  0  0
  -29.9340  -15.5340   21.0540 N   0  0  0  0  0  0  0  0  0  0  0  0
  -29.0370  -15.2740   21.4390 H   0  0  0  0  0  0  0  0  0  0  0  0
  -25.2020  -13.8620   20.5520 C   0  0  0  0  0  0  0  0  0  0  0  0
  -24.1420  -13.0880   20.9390 C   0  0  0  0  0  0  0  0  0  0  0  0
  -24.6040  -11.7360   20.8880 C   0  0  0  0  0  0  0  0  0  0  0  0
  -26.2420  -12.9830   20.2950 N   0  0  0  0  0  0  0  0  0  0  0  0
  -25.8880  -11.6990   20.5540 N   0  0  0  0  0  0  0  0  0  0  0  0
  -23.8820  -10.4700   21.0780 C   0  0  0  0  0  0  0  0  0  0  0  0
  -24.3400   -9.4900   21.9860 C   0  0  0  0  0  3  0  0  0  0  0  0
  -23.6200   -8.2890   22.1680 C   0  0  0  0  0  3  0  0  0  0  0  0
  -22.4250   -8.0610   21.4430 C   0  0  0  0  0  0  0  0  0  0  0  0
  -21.9870   -9.0300   20.5230 C   0  0  0  0  0  3  0  0  0  0  0  0
  -22.7080  -10.2220   20.3390 C   0  0  0  0  0  3  0  0  0  0  0  0
  -21.6750   -6.9120   21.5350 O   0  0  0  0  0  0  0  0  0  0  0  0
  -21.6670   -6.1500   22.6750 C   0  0  0  0  0  0  0  0  0  0  0  0
  -21.2910   -6.6840   23.9270 C   0  0  0  0  0  3  0  0  0  0  0  0
  -21.2290   -5.8460   25.0590 C   0  0  0  0  0  3  0  0  0  0  0  0
  -21.5310   -4.4770   24.9390 C   0  0  0  0  0  0  0  0  0  0  0  0
  -21.9010   -3.9440   23.6920 C   0  0  0  0  0  3  0  0  0  0  0  0
  -21.9660   -4.7770   22.5630 C   0  0  0  0  0  0  0  0  0  0  0  0
  -22.3010   -4.2540   21.3580 F   0  0  0  0  0  0  0  0  0  0  0  0
  -21.4640   -3.6690   26.0250 F   0  0  0  0  0  0  0  0  0  0  0  0
  -22.7490  -13.5580   21.2420 C   0  0  0  0  0  0  0  0  0  0  0  0
  -22.0390  -12.8550   22.1130 N   0  0  0  0  0  0  0  0  0  0  0  0
  -22.3000  -14.5880   20.7360 O   0  0  0  0  0  0  0  0  0  0  0  0
  -22.4100  -12.0230   22.5480 H   0  0  0  0  0  0  0  0  0  0  0  0
  -21.1040  -13.1520   22.3530 H   0  0  0  0  0  0  0  0  0  0  0  0
  -25.3680  -15.2340   20.3790 N   0  0  0  0  0  0  0  0  0  0  0  0
  -24.6090  -15.8950   20.4910 H   0  0  0  0  0  0  0  0  0  0  0  0
  -26.2080  -15.6600   20.0130 H   0  0  0  0  0  0  0  0  0  0  0  0
  1  3  1  0
  2  4  1  0
  2  1  1  0
  4  7  1  0
  5  6  1  0
  6  9  1  0
  6  3  1  0
  7  5  1  0
  7  8  1  6
  9 10  1  0
 11 12  1  0
 11 10  2  0
 13 24  2  0
 14 12  1  0
 14 19  1  0
 15 23  1  0
 15 25  1  0
 16 22  1  0
 16 18  1  0
 17 23  1  0
 18 17  1  0
 19 18  2  0
 20 21  1  0
 20 14  2  0
 21 16  2  0
 22 15  1  0
 23 13  1  0
 25 27  2  0
 26 25  1  0
 28 26  1  0
 29 38  2  0
 29 34  1  0
 30 26  1  0
 30 34  1  0
 31 30  1  0
 32 33  1  0
 32 31  1  0
 33 29  1  0
 34 35  2  0
 35 36  1  0
 37 36  2  0
 38 37  1  0
 39 13  1  0
 39 40  1  0
 39 49  1  0
 40 43  1  0
 41 45  1  0
 41 40  1  0
 42 41  2  0
 45 44  1  0
 47 45  1  0
 47 48  1  0
 47 46  1  0
 49 52  1  1
 49 50  1  0
 51 49  1  0
 53  7  1  0
 53 54  1  0
 55 63  1  0
 56 61  1  0
 57 58  1  0
 57 56  1  0
 59 58  1  0
 59 68  1  0
 59 60  1  0
 61 55  1  0
 61 60  1  0
 62 55  2  0
 63 54  1  0
 63 64  1  0
 65 66  2  0
 66 85  1  0
 67 66  1  0
 67 70  1  0
 68 65  1  0
 68 69  1  0
 69 67  2  0
 70 71  1  0
 71 72  2  0
 73 76  1  0
 73 72  1  0
 74 73  2  0
 75 74  1  0
 75 70  2  0
 76 77  1  0
 77 78  1  0
 78 79  2  0
 80 79  1  0
 80 84  1  0
 81 80  2  0
 82 77  2  0
 82 81  1  0
 83 82  1  0
 85 86  1  0
 86 89  1  0
 86 88  1  0
 87 85  2  0
 90 91  1  0
 90 65  1  0
 92 90  1  0
M  ISO  4  11 101  12 101  55 100  63 100
M  END
>  <TORSDO>  (31) 
F 21

>  <SCORE>  (31) 
-13.528

>  <name>  (31) 
30

>  <ligand_id>  (31) 
30

>  <original_smiles>  (31) 
[H]c1c([H])c([H])c2c(c1[H])C([H])([H])C([H])([H])C([H])([H])C2([H])N([H])C(=O)C1([H])N(C(=O)C([H])(N([H])C(=O)C([H])(N([H])C([H])([H])[H])C([H])([H])[H])C(C([H])([H])[H])(C([H])([H])[H])C([H])([H])[H])C([H])([H])c2c([H])c(OC([H])([H])C([H])([H])C([H])([H])C3([H])C([H])([H])C([H])([H])C([H])([H])C([H])([H])[N+]([H])(C([H])([H])C([H])([H])N([H])C(=O)N4C([H])([H])C([H])([H])C([H])([H])C([H])(n5nc(-c6c([H])c([H])c(Oc7c([H])c([H])c(F)c([H])c7F)c([H])c6[H])c(C(=O)N([H])[H])c5N([H])[H])C4([H])[H])C3([H])[H])c([H])c([H])c2C1([H])[H]

>  <smiles>  (31) 
[H]c1c([H])c([H])c2c(c1[H])C([H])([H])C([H])([H])C([H])([H])C2([H])N([H])C(=O)C1([H])N(C(=O)C([H])(N([H])C(=O)C([H])(N([H])C([H])([H])[H])C([H])([H])[H])C(C([H])([H])[H])(C([H])([H])[H])C([H])([H])[H])C([H])([H])c2c([H])c(OC([H])([H])C([H])([H])C([H])([H])C3([H])C([H])([H])C([H])([H])C([H])([H])C([H])([H])[N+]([H])(C([H])([H])C([H])([H])N([H])C(=O)N4C([H])([H])C([H])([H])C([H])([H])C([H])(n5nc(-c6c([H])c([H])c(Oc7c([H])c([H])c(F)c([H])c7F)c([H])c6[H])c(C(=O)N([H])[H])c5N([H])[H])C4([H])[H])C3([H])[H])c([H])c([H])c2C1([H])[H]

$$$$
31:0:0
     RDKit          3D

 94103  0  0  1  0  0  0  0  0999 V2000
  -28.8190  -22.2600   19.7500 C   0  0  0  0  0  3  0  0  0  0  0  0
  -30.1380  -22.2190   21.7680 C   0  0  0  0  0  3  0  0  0  0  0  0
  -28.6390  -23.6660   19.8970 C   0  0  0  0  0  3  0  0  0  0  0  0
  -29.9540  -23.6150   21.9110 C   0  0  0  0  0  3  0  0  0  0  0  0
  -29.5600  -21.4990   20.6960 C   0  0  0  0  0  0  0  0  0  0  0  0
  -29.1910  -24.3800   20.9910 C   0  0  0  0  0  0  0  0  0  0  0  0
  -29.4930  -19.2870   19.4860 C   0  0  0  0  0  3  0  0  0  0  0  0
  -29.7520  -19.9990   20.6100 C   0  0  0  0  0  0  0  0  0  0  0  0
  -29.6290  -17.7620   19.3250 C   0  0  0  0  0  2  0  0  0  0  0  0
  -30.2100  -19.2190   21.8480 C   0  0  0  0  0  2  0  0  0  0  0  0
  -29.9130  -17.6970   21.8130 C   0  0  0  0  0  2  0  0  0  0  0  0
  -30.3440  -17.0290   20.4930 C   0  0  0  0  0  3  0  0  0  0  0  0
  -30.7760  -14.5430   20.0230 C   0  0  0  0  0  0  0  0  0  0  0  0
  -30.4520  -12.3530   18.9180 C   0  0  0  0  0  2  0  0  0  0  0  0
  -29.4340  -12.5320   17.7710 C   0  0  0  0  0  2  0  0  0  0  0  0
  -27.9890  -12.3850   18.2910 C   0  0  0  0  0  2  0  0  0  0  0  0
  -27.7240  -13.2290   19.5660 C   0  0  0  0  0  3  0  0  0  0  0  0
  -28.8460  -13.0250   20.6080 C   0  0  0  0  0  2  0  0  0  0  0  0
  -30.1260  -13.3460   19.9580 N   0  0  0  0  0  0  0  0  0  0  0  0
  -31.8860  -14.7250   19.5160 O   0  0  0  0  0  0  0  0  0  0  0  0
  -30.0460  -15.5730   20.5180 N   0  0  0  0  0  0  0  0  0  0  0  0
  -29.1470  -15.3100   20.8940 H   0  0  0  0  0  0  0  0  0  0  0  0
  -25.3890  -13.8410   20.4560 C   0  0  0  0  0  0  0  0  0  0  0  0
  -24.3360  -13.0710   20.8710 C   0  0  0  0  0  0  0  0  0  0  0  0
  -24.7740  -11.7150   20.7660 C   0  0  0  0  0  0  0  0  0  0  0  0
  -26.4020  -12.9550   20.1260 N   0  0  0  0  0  0  0  0  0  0  0  0
  -26.0400  -11.6690   20.3710 N   0  0  0  0  0  0  0  0  0  0  0  0
  -24.0430  -10.4560   20.9630 C   0  0  0  0  0  0  0  0  0  0  0  0
  -24.4910   -9.4780   21.8770 C   0  0  0  0  0  3  0  0  0  0  0  0
  -23.7620   -8.2840   22.0630 C   0  0  0  0  0  3  0  0  0  0  0  0
  -22.5690   -8.0600   21.3350 C   0  0  0  0  0  0  0  0  0  0  0  0
  -22.1400   -9.0270   20.4090 C   0  0  0  0  0  3  0  0  0  0  0  0
  -22.8700  -10.2130   20.2210 C   0  0  0  0  0  3  0  0  0  0  0  0
  -21.8100   -6.9200   21.4310 O   0  0  0  0  0  0  0  0  0  0  0  0
  -21.7360   -6.2010   22.5960 C   0  0  0  0  0  0  0  0  0  0  0  0
  -21.2770   -6.7770   23.8000 C   0  0  0  0  0  3  0  0  0  0  0  0
  -21.1510   -5.9830   24.9580 C   0  0  0  0  0  3  0  0  0  0  0  0
  -21.4730   -4.6140   24.9120 C   0  0  0  0  0  0  0  0  0  0  0  0
  -21.9260   -4.0370   23.7120 C   0  0  0  0  0  3  0  0  0  0  0  0
  -22.0530   -4.8280   22.5570 C   0  0  0  0  0  0  0  0  0  0  0  0
  -22.4690   -4.2610   21.3990 F   0  0  0  0  0  0  0  0  0  0  0  0
  -21.3460   -3.8490   26.0220 F   0  0  0  0  0  0  0  0  0  0  0  0
  -22.9670  -13.5570   21.2530 C   0  0  0  0  0  0  0  0  0  0  0  0
  -22.2920  -12.8450   22.1480 N   0  0  0  0  0  0  0  0  0  0  0  0
  -22.5080  -14.6010   20.7930 O   0  0  0  0  0  0  0  0  0  0  0  0
  -22.6760  -11.9980   22.5410 H   0  0  0  0  0  0  0  0  0  0  0  0
  -21.3760  -13.1510   22.4460 H   0  0  0  0  0  0  0  0  0  0  0  0
  -25.5610  -15.2150   20.3110 N   0  0  0  0  0  0  0  0  0  0  0  0
  -24.8120  -15.8740   20.4920 H   0  0  0  0  0  0  0  0  0  0  0  0
  -26.3890  -15.6540   19.9290 H   0  0  0  0  0  0  0  0  0  0  0  0
  -28.9640  -25.8590   21.2520 C   0  0  0  0  0  0  0  0  0  0  0  0
  -29.0670  -26.3860   22.4000 N   0  0  0  0  0  0  0  0  0  0  0  0
  -29.2960  -25.6950   23.1030 H   0  0  0  0  0  0  0  0  0  0  0  0
  -28.6600  -26.6350   20.1420 O   0  0  0  0  0  0  0  0  0  0  0  0
  -24.6490  -31.7470   23.2160 C   0  0  0  0  0  0  0  0  0  0  0  0
  -27.5090  -27.4110   20.1530 C   0  0  0  0  0  0  0  0  0  0  0  0
  -23.5270  -30.3190   21.5380 C   0  0  0  0  0  3  0  0  0  0  0  0
  -25.0650  -28.8520   20.1210 C   0  0  0  0  0  0  0  0  0  0  0  0
  -26.0430  -30.7700   21.3910 C   0  0  0  0  0  2  0  0  0  0  0  0
  -26.1930  -29.4070   20.7390 C   0  0  0  0  0  0  0  0  0  0  0  0
  -27.4210  -28.6960   20.7510 C   0  0  0  0  0  3  0  0  0  0  0  0
  -26.3660  -26.8860   19.5170 C   0  0  0  0  0  3  0  0  0  0  0  0
  -25.1480  -27.5920   19.5040 C   0  0  0  0  0  3  0  0  0  0  0  0
  -23.7880  -29.6640   20.1550 C   0  0  0  0  0  2  0  0  0  0  0  0
  -24.7560  -30.9610   22.1070 N   0  0  0  0  0  0  0  0  0  0  0  0
  -23.5480  -31.9720   23.7390 O   0  0  0  0  0  0  0  0  0  0  0  0
  -22.8950  -29.2660   22.4760 C   0  0  0  0  0  0  0  0  0  0  0  0
  -21.5820  -29.0280   22.3170 N   0  0  0  0  0  0  0  0  0  0  0  0
  -23.5840  -28.6630   23.3030 O   0  0  0  0  0  0  0  0  0  0  0  0
  -21.0850  -29.5690   21.6230 H   0  0  0  0  0  0  0  0  0  0  0  0
  -18.2560  -27.6680   22.7070 C   0  0  0  0  0  0  0  0  0  0  0  0
  -20.7890  -28.0510   23.0610 C   0  0  0  0  0  3  0  0  0  0  0  0
  -20.9790  -26.6270   22.4880 C   0  0  0  0  0  2  0  0  0  0  0  0
  -19.9290  -26.2530   21.4390 C   0  0  0  0  0  2  0  0  0  0  0  0
  -18.5210  -26.3300   22.0380 C   0  0  0  0  0  2  0  0  0  0  0  0
  -19.3210  -28.4830   23.1730 C   0  0  0  0  0  0  0  0  0  0  0  0
  -19.0220  -29.7340   23.7560 C   0  0  0  0  0  3  0  0  0  0  0  0
  -17.6900  -30.1700   23.8790 C   0  0  0  0  0  3  0  0  0  0  0  0
  -16.6390  -29.3530   23.4300 C   0  0  0  0  0  3  0  0  0  0  0  0
  -16.9220  -28.1030   22.8500 C   0  0  0  0  0  3  0  0  0  0  0  0
  -25.8990  -32.4190   23.8660 C   0  0  0  0  0  3  0  0  0  0  0  0
  -25.5410  -33.8090   24.1790 N   0  0  0  0  0  0  0  0  0  0  0  0
  -25.8430  -34.8640   23.4100 C   0  0  0  0  0  0  0  0  0  0  0  0
  -26.5210  -34.7720   22.3840 O   0  0  0  0  0  0  0  0  0  0  0  0
  -24.9380  -33.9530   24.9760 H   0  0  0  0  0  0  0  0  0  0  0  0
  -24.0450  -36.5840   23.0390 C   0  0  0  0  0  1  0  0  0  0  0  0
  -25.3050  -36.2390   23.8500 C   0  0  0  0  0  3  0  0  0  0  0  0
  -27.4070  -37.2170   24.6580 C   0  0  0  0  0  1  0  0  0  0  0  0
  -26.2970  -37.3290   23.7160 N   0  0  0  0  0  0  0  0  0  0  0  0
  -25.8560  -38.2350   23.8510 H   0  0  0  0  0  0  0  0  0  0  0  0
  -26.4080  -31.6680   25.1580 C   0  0  1  0  0  0  0  0  0  0  0  0
  -25.2960  -31.4020   26.1990 C   0  0  0  0  0  1  0  0  0  0  0  0
  -27.0400  -30.3080   24.7850 C   0  0  0  0  0  1  0  0  0  0  0  0
  -27.5170  -32.4990   25.8440 C   0  0  0  0  0  1  0  0  0  0  0  0
  1  3  2  0
  1  5  1  0
  2  4  1  0
  3  6  1  0
  5  2  2  0
  6 51  1  0
  6  4  2  0
  7  8  2  0
  8  5  1  0
  8 10  1  0
  9  7  1  0
  9 12  1  0
 11 10  1  0
 12 21  1  0
 12 11  1  0
 13 21  1  0
 14 19  1  0
 15 16  1  0
 15 14  1  0
 17 16  1  0
 17 26  1  0
 17 18  1  0
 19 13  1  0
 19 18  1  0
 20 13  2  0
 21 22  1  0
 23 24  2  0
 24 43  1  0
 25 24  1  0
 25 28  1  0
 26 27  1  0
 26 23  1  0
 27 25  2  0
 28 29  1  0
 29 30  2  0
 31 34  1  0
 31 30  1  0
 32 31  2  0
 33 32  1  0
 33 28  2  0
 34 35  1  0
 35 36  1  0
 36 37  2  0
 38 37  1  0
 38 42  1  0
 39 38  2  0
 40 35  2  0
 40 39  1  0
 41 40  1  0
 43 44  1  0
 44 47  1  0
 44 46  1  0
 45 43  2  0
 48 23  1  0
 48 49  1  0
 50 48  1  0
 51 52  2  0
 52 53  1  0
 54 56  1  0
 54 51  1  0
 55 66  2  0
 56 61  1  0
 57 65  1  0
 57 67  1  0
 58 64  1  0
 58 60  1  0
 59 65  1  0
 60 61  2  0
 60 59  1  0
 62 56  2  0
 63 62  1  0
 63 58  2  0
 64 57  1  0
 65 55  1  0
 67 69  2  0
 68 67  1  0
 70 68  1  0
 71 80  2  0
 71 76  1  0
 72 68  1  0
 72 76  1  0
 73 72  1  0
 74 75  1  0
 74 73  1  0
 75 71  1  0
 76 77  2  0
 77 78  1  0
 79 78  2  0
 80 79  1  0
 81 55  1  0
 81 82  1  0
 81 91  1  0
 82 85  1  0
 83 87  1  0
 83 82  1  0
 84 83  2  0
 87 86  1  0
 89 87  1  0
 89 90  1  0
 89 88  1  0
 91 94  1  1
 91 92  1  0
 93 91  1  0
M  ISO  4  13 100  21 100  51 101  54 101
M  END
>  <TORSDO>  (32) 
F 18

>  <SCORE>  (32) 
-14.086

>  <name>  (32) 
31

>  <ligand_id>  (32) 
31

>  <original_smiles>  (32) 
[H]N=C(Oc1c([H])c([H])c2c(c1[H])C([H])([H])N(C(=O)C([H])(N([H])C(=O)C([H])(N([H])C([H])([H])[H])C([H])([H])[H])C(C([H])([H])[H])(C([H])([H])[H])C([H])([H])[H])C([H])(C(=O)N([H])C1([H])c3c([H])c([H])c([H])c([H])c3C([H])([H])C([H])([H])C1([H])[H])C2([H])[H])c1c([H])c([H])c(C2=C([H])C([H])([H])C([H])(N([H])C(=O)N3C([H])([H])C([H])([H])C([H])([H])C([H])(n4nc(-c5c([H])c([H])c(Oc6c([H])c([H])c(F)c([H])c6F)c([H])c5[H])c(C(=O)N([H])[H])c4N([H])[H])C3([H])[H])C([H])([H])C2([H])[H])c([H])c1[H]

>  <smiles>  (32) 
[H]N=C(Oc1c([H])c([H])c2c(c1[H])C([H])([H])N(C(=O)C([H])(N([H])C(=O)C([H])(N([H])C([H])([H])[H])C([H])([H])[H])C(C([H])([H])[H])(C([H])([H])[H])C([H])([H])[H])C([H])(C(=O)N([H])C1([H])c3c([H])c([H])c([H])c([H])c3C([H])([H])C([H])([H])C1([H])[H])C2([H])[H])c1c([H])c([H])c(C2=C([H])C([H])([H])C([H])(N([H])C(=O)N3C([H])([H])C([H])([H])C([H])([H])C([H])(n4nc(-c5c([H])c([H])c(Oc6c([H])c([H])c(F)c([H])c6F)c([H])c5[H])c(C(=O)N([H])[H])c4N([H])[H])C3([H])[H])C([H])([H])C2([H])[H])c([H])c1[H]

$$$$
32:0:0
     RDKit          3D

 95103  0  0  1  0  0  0  0  0999 V2000
  -31.2590  -21.3250   19.9390 C   0  0  0  0  0  2  0  0  0  0  0  0
  -31.5120  -18.8450   20.3480 C   0  0  0  0  0  3  0  0  0  0  0  0
  -31.3290  -17.4940   20.3070 C   0  0  0  0  0  2  0  0  0  0  0  0
  -30.6550  -19.6000   18.2830 C   0  0  0  0  0  3  0  0  0  0  0  0
  -29.8770  -18.5800   17.9000 C   0  0  0  0  0  3  0  0  0  0  0  0
  -31.1680  -19.8490   19.5000 C   0  0  0  0  0  0  0  0  0  0  0  0
  -29.3810  -17.5590   18.6210 C   0  0  0  0  0  0  0  0  0  0  0  0
  -30.2550  -16.7730   19.5510 C   0  0  0  0  0  0  0  0  0  0  0  0
  -29.9640  -15.5160   19.6670 N   0  0  0  0  0  2  0  0  0  0  0  0
  -30.8950  -14.4990   19.9100 C   0  0  0  0  0  0  0  0  0  0  0  0
  -30.6510  -12.1510   19.2530 C   0  0  0  0  0  2  0  0  0  0  0  0
  -29.6910  -12.1620   18.0410 C   0  0  0  0  0  2  0  0  0  0  0  0
  -28.2250  -12.0620   18.5060 C   0  0  0  0  0  2  0  0  0  0  0  0
  -27.8810  -13.0950   19.6100 C   0  0  0  0  0  3  0  0  0  0  0  0
  -28.9600  -13.0960   20.7180 C   0  0  0  0  0  2  0  0  0  0  0  0
  -30.2890  -13.2920   20.1090 N   0  0  0  0  0  0  0  0  0  0  0  0
  -32.0990  -14.5730   19.6560 O   0  0  0  0  0  0  0  0  0  0  0  0
  -25.5440  -13.8330   20.4200 C   0  0  0  0  0  0  0  0  0  0  0  0
  -24.4490  -13.1250   20.8230 C   0  0  0  0  0  0  0  0  0  0  0  0
  -24.8370  -11.7530   20.7740 C   0  0  0  0  0  0  0  0  0  0  0  0
  -26.5350  -12.9000   20.1470 N   0  0  0  0  0  0  0  0  0  0  0  0
  -26.1120  -11.6410   20.4210 N   0  0  0  0  0  0  0  0  0  0  0  0
  -24.0480  -10.5370   20.9840 C   0  0  0  0  0  0  0  0  0  0  0  0
  -24.4710   -9.5310   21.8800 C   0  0  0  0  0  3  0  0  0  0  0  0
  -23.6850   -8.3780   22.0800 C   0  0  0  0  0  3  0  0  0  0  0  0
  -22.4610   -8.2250   21.3860 C   0  0  0  0  0  0  0  0  0  0  0  0
  -22.0540   -9.2210   20.4810 C   0  0  0  0  0  3  0  0  0  0  0  0
  -22.8410  -10.3670   20.2780 C   0  0  0  0  0  3  0  0  0  0  0  0
  -21.6450   -7.1270   21.5010 O   0  0  0  0  0  0  0  0  0  0  0  0
  -21.6330   -6.3560   22.6360 C   0  0  0  0  0  0  0  0  0  0  0  0
  -21.3430   -6.9030   23.9040 C   0  0  0  0  0  3  0  0  0  0  0  0
  -21.2710   -6.0640   25.0340 C   0  0  0  0  0  3  0  0  0  0  0  0
  -21.4800   -4.6780   24.8960 C   0  0  0  0  0  0  0  0  0  0  0  0
  -21.7660   -4.1310   23.6330 C   0  0  0  0  0  3  0  0  0  0  0  0
  -21.8390   -4.9670   22.5050 C   0  0  0  0  0  0  0  0  0  0  0  0
  -22.0930   -4.4320   21.2870 F   0  0  0  0  0  0  0  0  0  0  0  0
  -21.4030   -3.8700   25.9790 F   0  0  0  0  0  0  0  0  0  0  0  0
  -23.0930  -13.6830   21.1450 C   0  0  0  0  0  0  0  0  0  0  0  0
  -22.3630  -13.0410   22.0490 N   0  0  0  0  0  0  0  0  0  0  0  0
  -22.6930  -14.7270   20.6310 O   0  0  0  0  0  0  0  0  0  0  0  0
  -22.6980  -12.1950   22.4860 H   0  0  0  0  0  0  0  0  0  0  0  0
  -21.4560  -13.4020   22.3080 H   0  0  0  0  0  0  0  0  0  0  0  0
  -25.7520  -15.1900   20.2500 N   0  0  0  0  0  0  0  0  0  0  0  0
  -25.0240  -15.8790   20.4040 H   0  0  0  0  0  0  0  0  0  0  0  0
  -26.6400  -15.6050   19.9990 H   0  0  0  0  0  0  0  0  0  0  0  0
  -27.8990  -17.2580   18.5580 C   0  0  0  0  0  2  0  0  0  0  0  0
  -26.3220  -18.7060   19.9110 C   0  0  0  0  0  2  0  0  0  0  0  0
  -27.2070  -17.6990   19.8380 C   0  0  0  0  0  3  0  0  0  0  0  0
  -29.9650  -22.0460   19.7560 N   0  0  0  0  0  4  0  0  0  0  0  0
  -29.2480  -21.5080   20.2160 H   0  0  0  0  0  0  0  0  0  0  0  0
  -29.7520  -22.0520   18.7730 H   0  0  0  0  0  0  0  0  0  0  0  0
  -29.9070  -23.4480   20.2520 C   0  0  0  0  0  2  0  0  0  0  0  0
  -28.4780  -24.0580   20.1590 C   0  0  0  0  0  2  0  0  0  0  0  0
  -28.2980  -25.4260   20.8650 C   0  0  0  0  0  2  0  0  0  0  0  0
  -28.2380  -26.5360   19.9640 O   0  0  0  0  0  0  0  0  0  0  0  0
  -24.5090  -31.7240   23.1520 C   0  0  0  0  0  0  0  0  0  0  0  0
  -27.0770  -27.2750   20.0210 C   0  0  0  0  0  0  0  0  0  0  0  0
  -23.2740  -30.3510   21.5070 C   0  0  0  0  0  3  0  0  0  0  0  0
  -24.6990  -28.7990   20.0670 C   0  0  0  0  0  0  0  0  0  0  0  0
  -25.8000  -30.6790   21.2930 C   0  0  0  0  0  2  0  0  0  0  0  0
  -25.8660  -29.3100   20.6470 C   0  0  0  0  0  0  0  0  0  0  0  0
  -27.0620  -28.5560   20.6190 C   0  0  0  0  0  3  0  0  0  0  0  0
  -25.8940  -26.7710   19.4460 C   0  0  0  0  0  3  0  0  0  0  0  0
  -24.7040  -27.5280   19.4660 C   0  0  0  0  0  3  0  0  0  0  0  0
  -23.4650  -29.6710   20.1250 C   0  0  0  0  0  2  0  0  0  0  0  0
  -24.5470  -30.9300   22.0440 N   0  0  0  0  0  0  0  0  0  0  0  0
  -23.4360  -32.0100   23.6990 O   0  0  0  0  0  0  0  0  0  0  0  0
  -22.6070  -29.3360   22.4620 C   0  0  0  0  0  0  0  0  0  0  0  0
  -21.2760  -29.1930   22.3480 N   0  0  0  0  0  0  0  0  0  0  0  0
  -23.2830  -28.6790   23.2600 O   0  0  0  0  0  0  0  0  0  0  0  0
  -20.7950  -29.7670   21.6680 H   0  0  0  0  0  0  0  0  0  0  0  0
  -17.8780  -28.0850   22.8690 C   0  0  0  0  0  0  0  0  0  0  0  0
  -20.4440  -28.2670   23.1140 C   0  0  0  0  0  3  0  0  0  0  0  0
  -20.5010  -26.8430   22.5150 C   0  0  0  0  0  2  0  0  0  0  0  0
  -19.3800  -26.5670   21.5080 C   0  0  0  0  0  2  0  0  0  0  0  0
  -18.0110  -26.7400   22.1710 C   0  0  0  0  0  2  0  0  0  0  0  0
  -19.0220  -28.8100   23.2960 C   0  0  0  0  0  0  0  0  0  0  0  0
  -18.8460  -30.0700   23.9070 C   0  0  0  0  0  3  0  0  0  0  0  0
  -17.5580  -30.6060   24.0950 C   0  0  0  0  0  3  0  0  0  0  0  0
  -16.4290  -29.8780   23.6850 C   0  0  0  0  0  3  0  0  0  0  0  0
  -16.5880  -28.6180   23.0780 C   0  0  0  0  0  3  0  0  0  0  0  0
  -25.8090  -32.3270   23.7720 C   0  0  0  0  0  3  0  0  0  0  0  0
  -25.5220  -33.7220   24.1300 N   0  0  0  0  0  0  0  0  0  0  0  0
  -25.8690  -34.7820   23.3890 C   0  0  0  0  0  0  0  0  0  0  0  0
  -26.5350  -34.6890   22.3530 O   0  0  0  0  0  0  0  0  0  0  0  0
  -24.9350  -33.8710   24.9380 H   0  0  0  0  0  0  0  0  0  0  0  0
  -24.1630  -36.6030   23.0770 C   0  0  0  0  0  1  0  0  0  0  0  0
  -25.4050  -36.1690   23.8730 C   0  0  0  0  0  3  0  0  0  0  0  0
  -27.5570  -37.0070   24.7060 C   0  0  0  0  0  1  0  0  0  0  0  0
  -26.4520  -37.2090   23.7730 N   0  0  0  0  0  0  0  0  0  0  0  0
  -26.0590  -38.1320   23.9420 H   0  0  0  0  0  0  0  0  0  0  0  0
  -26.3340  -31.5220   25.0230 C   0  0  1  0  0  0  0  0  0  0  0  0
  -25.2520  -31.2750   26.1000 C   0  0  0  0  0  1  0  0  0  0  0  0
  -26.8920  -30.1460   24.5910 C   0  0  0  0  0  1  0  0  0  0  0  0
  -27.5070  -32.2850   25.6850 C   0  0  0  0  0  1  0  0  0  0  0  0
  3  2  1  0
  4  6  1  0
  5  4  2  0
  5  7  1  0
  6  1  1  0
  6  2  2  0
  7  8  2  0
  8  9  1  0
  8  3  1  0
  9 10  1  0
 10 16  1  0
 11 16  1  0
 12 13  1  0
 12 11  1  0
 14 13  1  0
 14 21  1  0
 14 15  1  0
 16 15  1  0
 17 10  2  0
 18 19  2  0
 19 38  1  0
 20 19  1  0
 20 23  1  0
 21 18  1  0
 21 22  1  0
 22 20  2  0
 23 24  1  0
 24 25  2  0
 26 29  1  0
 26 25  1  0
 27 26  2  0
 28 27  1  0
 28 23  2  0
 29 30  1  0
 30 31  1  0
 31 32  2  0
 33 32  1  0
 33 37  1  0
 34 33  2  0
 35 30  2  0
 35 34  1  0
 36 35  1  0
 38 39  1  0
 39 42  1  0
 39 41  1  0
 40 38  2  0
 43 44  1  0
 43 18  1  0
 45 43  1  0
 46  7  1  0
 46 48  1  0
 48 47  2  0
 49  1  1  0
 49 50  1  0
 49 52  1  0
 51 49  1  0
 53 52  1  0
 53 54  1  0
 55 57  1  0
 55 54  1  0
 56 67  2  0
 57 62  1  0
 58 66  1  0
 58 68  1  0
 59 65  1  0
 59 61  1  0
 60 66  1  0
 61 60  1  0
 62 61  2  0
 63 64  1  0
 63 57  2  0
 64 59  2  0
 65 58  1  0
 66 56  1  0
 68 70  2  0
 69 68  1  0
 71 69  1  0
 72 81  2  0
 72 77  1  0
 73 69  1  0
 73 77  1  0
 74 73  1  0
 75 76  1  0
 75 74  1  0
 76 72  1  0
 77 78  2  0
 78 79  1  0
 80 79  2  0
 81 80  1  0
 82 56  1  0
 82 83  1  0
 82 92  1  0
 83 86  1  0
 84 88  1  0
 84 83  1  0
 85 84  2  0
 88 87  1  0
 90 88  1  0
 90 91  1  0
 90 89  1  0
 92 95  1  1
 92 93  1  0
 94 92  1  0
M  ISO  4   9 100  10 100  54 101  55 101
M  END
>  <TORSDO>  (33) 
F 23

>  <SCORE>  (33) 
-12.457

>  <name>  (33) 
32

>  <ligand_id>  (33) 
32

>  <original_smiles>  (33) 
[H]C([H])=C([H])C([H])([H])c1c([H])c([H])c(C([H])([H])[N+]([H])([H])C([H])([H])C([H])([H])C([H])([H])Oc2c([H])c([H])c3c(c2[H])C([H])([H])N(C(=O)C([H])(N([H])C(=O)C([H])(N([H])C([H])([H])[H])C([H])([H])[H])C(C([H])([H])[H])(C([H])([H])[H])C([H])([H])[H])C([H])(C(=O)N([H])C2([H])c4c([H])c([H])c([H])c([H])c4C([H])([H])C([H])([H])C2([H])[H])C3([H])[H])c([H])c([H])c1=NC(=O)N1C([H])([H])C([H])([H])C([H])([H])C([H])(n2nc(-c3c([H])c([H])c(Oc4c([H])c([H])c(F)c([H])c4F)c([H])c3[H])c(C(=O)N([H])[H])c2N([H])[H])C1([H])[H]

>  <smiles>  (33) 
[H]C([H])=C([H])C([H])([H])c1c([H])c([H])c(C([H])([H])[N+]([H])([H])C([H])([H])C([H])([H])C([H])([H])Oc2c([H])c([H])c3c(c2[H])C([H])([H])N(C(=O)C([H])(N([H])C(=O)C([H])(N([H])C([H])([H])[H])C([H])([H])[H])C(C([H])([H])[H])(C([H])([H])[H])C([H])([H])[H])C([H])(C(=O)N([H])C2([H])c4c([H])c([H])c([H])c([H])c4C([H])([H])C([H])([H])C2([H])[H])C3([H])[H])c([H])c([H])c1=NC(=O)N1C([H])([H])C([H])([H])C([H])([H])C([H])(n2nc(-c3c([H])c([H])c(Oc4c([H])c([H])c(F)c([H])c4F)c([H])c3[H])c(C(=O)N([H])[H])c2N([H])[H])C1([H])[H]

$$$$
33:0:0
     RDKit          3D

 92101  0  0  1  0  0  0  0  0999 V2000
  -30.5810  -15.1340   20.3760 C   0  0  0  0  0  0  0  0  0  0  0  0
  -30.4200  -12.7530   19.4730 C   0  0  0  0  0  2  0  0  0  0  0  0
  -29.5250  -12.6240   18.2210 C   0  0  0  0  0  2  0  0  0  0  0  0
  -28.0620  -12.3820   18.6350 C   0  0  0  0  0  2  0  0  0  0  0  0
  -27.6080  -13.3340   19.7720 C   0  0  0  0  0  3  0  0  0  0  0  0
  -28.6440  -13.4690   20.9090 C   0  0  0  0  0  2  0  0  0  0  0  0
  -29.9040  -13.9010   20.2890 N   0  0  0  0  0  0  0  0  0  0  0  0
  -31.8040  -15.0430   20.2200 O   0  0  0  0  0  0  0  0  0  0  0  0
  -30.3300  -19.2680   20.8140 C   0  0  0  0  0  2  0  0  0  0  0  0
  -28.1970  -18.5400   20.3010 C   0  0  0  0  0  2  0  0  0  0  0  0
  -29.4540  -19.8910   18.4960 C   0  0  0  0  0  2  0  0  0  0  0  0
  -30.8840  -17.7310   20.5580 C   0  0  0  0  0  2  0  0  0  0  0  0
  -28.6840  -17.0070   19.9900 C   0  0  0  0  0  2  0  0  0  0  0  0
  -28.2270  -20.1180   17.5860 C   0  0  0  0  0  2  0  0  0  0  0  0
  -27.0910  -21.4120   19.3820 C   0  0  0  0  0  2  0  0  0  0  0  0
  -28.3450  -21.4260   20.2910 C   0  0  0  0  0  3  0  0  0  0  0  0
  -29.0900  -19.8590   19.9980 C   0  0  2  0  0  0  0  0  0  0  0  0
  -30.0060  -16.4750   20.4770 N   0  0  0  0  0  0  0  0  0  0  0  0
  -27.4700  -21.3340   17.9520 N   0  0  0  0  0  4  0  0  0  0  0  0
  -26.6310  -21.3640   17.3940 H   0  0  0  0  0  0  0  0  0  0  0  0
  -28.0170  -22.1410   17.7050 H   0  0  0  0  0  0  0  0  0  0  0  0
  -25.2130  -13.8770   20.4710 C   0  0  0  0  0  0  0  0  0  0  0  0
  -24.1540  -13.0900   20.8300 C   0  0  0  0  0  0  0  0  0  0  0  0
  -24.6420  -11.7470   20.8320 C   0  0  0  0  0  0  0  0  0  0  0  0
  -26.2740  -13.0140   20.2640 N   0  0  0  0  0  0  0  0  0  0  0  0
  -25.9410  -11.7280   20.5520 N   0  0  0  0  0  0  0  0  0  0  0  0
  -23.9270  -10.4760   21.0240 C   0  0  0  0  0  0  0  0  0  0  0  0
  -24.3530   -9.5240   21.9760 C   0  0  0  0  0  3  0  0  0  0  0  0
  -23.6340   -8.3230   22.1570 C   0  0  0  0  0  3  0  0  0  0  0  0
  -22.4750   -8.0650   21.3860 C   0  0  0  0  0  0  0  0  0  0  0  0
  -22.0680   -9.0080   20.4240 C   0  0  0  0  0  3  0  0  0  0  0  0
  -22.7890  -10.2000   20.2410 C   0  0  0  0  0  3  0  0  0  0  0  0
  -21.7300   -6.9140   21.4730 O   0  0  0  0  0  0  0  0  0  0  0  0
  -21.6710   -6.1820   22.6330 C   0  0  0  0  0  0  0  0  0  0  0  0
  -21.2160   -6.7440   23.8460 C   0  0  0  0  0  3  0  0  0  0  0  0
  -21.1040   -5.9370   24.9970 C   0  0  0  0  0  3  0  0  0  0  0  0
  -21.4400   -4.5710   24.9350 C   0  0  0  0  0  0  0  0  0  0  0  0
  -21.8890   -4.0100   23.7270 C   0  0  0  0  0  3  0  0  0  0  0  0
  -22.0020   -4.8130   22.5790 C   0  0  0  0  0  0  0  0  0  0  0  0
  -22.4140   -4.2630   21.4110 F   0  0  0  0  0  0  0  0  0  0  0  0
  -21.3260   -3.7940   26.0380 F   0  0  0  0  0  0  0  0  0  0  0  0
  -22.7450  -13.5510   21.0560 C   0  0  0  0  0  0  0  0  0  0  0  0
  -22.0070  -12.8680   21.9210 N   0  0  0  0  0  0  0  0  0  0  0  0
  -22.3060  -14.5570   20.4980 O   0  0  0  0  0  0  0  0  0  0  0  0
  -22.3740  -12.0570   22.3970 H   0  0  0  0  0  0  0  0  0  0  0  0
  -21.0590  -13.1600   22.1130 H   0  0  0  0  0  0  0  0  0  0  0  0
  -25.3520  -15.2460   20.2720 N   0  0  0  0  0  0  0  0  0  0  0  0
  -24.5640  -15.8800   20.3550 H   0  0  0  0  0  0  0  0  0  0  0  0
  -26.1890  -15.6970   19.9300 H   0  0  0  0  0  0  0  0  0  0  0  0
  -28.8840  -23.0800   20.1910 C   0  0  0  0  0  3  0  0  0  0  0  0
  -27.9010  -24.5200   20.1670 C   0  0  0  0  0  3  0  0  0  0  0  0
  -28.2140  -26.0820   20.2530 O   0  0  0  0  0  0  0  0  0  0  0  0
  -24.6540  -31.9050   23.2560 C   0  0  0  0  0  0  0  0  0  0  0  0
  -27.1840  -27.1190   20.2090 C   0  0  0  0  0  0  0  0  0  0  0  0
  -23.4430  -30.5190   21.6210 C   0  0  0  0  0  3  0  0  0  0  0  0
  -24.8760  -28.9300   20.1890 C   0  0  0  0  0  0  0  0  0  0  0  0
  -26.0030  -30.7490   21.4550 C   0  0  0  0  0  2  0  0  0  0  0  0
  -26.0660  -29.3510   20.7980 C   0  0  0  0  0  0  0  0  0  0  0  0
  -27.2190  -28.4640   20.7870 C   0  0  0  0  0  3  0  0  0  0  0  0
  -25.9640  -26.8220   19.5590 C   0  0  0  0  0  3  0  0  0  0  0  0
  -24.8440  -27.6820   19.5520 C   0  0  0  0  0  3  0  0  0  0  0  0
  -23.6590  -29.8440   20.2400 C   0  0  0  0  0  2  0  0  0  0  0  0
  -24.7210  -31.0810   22.1650 N   0  0  0  0  0  0  0  0  0  0  0  0
  -23.5700  -32.1970   23.7860 O   0  0  0  0  0  0  0  0  0  0  0  0
  -22.7570  -29.5160   22.5840 C   0  0  0  0  0  0  0  0  0  0  0  0
  -21.4270  -29.3510   22.4600 N   0  0  0  0  0  0  0  0  0  0  0  0
  -23.4250  -28.8890   23.4100 O   0  0  0  0  0  0  0  0  0  0  0  0
  -20.9430  -29.9090   21.7710 H   0  0  0  0  0  0  0  0  0  0  0  0
  -18.0450  -28.1480   22.9610 C   0  0  0  0  0  0  0  0  0  0  0  0
  -20.6030  -28.4180   23.2340 C   0  0  0  0  0  3  0  0  0  0  0  0
  -20.7070  -26.9810   22.6690 C   0  0  0  0  0  2  0  0  0  0  0  0
  -19.6090  -26.6510   21.6520 C   0  0  0  0  0  2  0  0  0  0  0  0
  -18.2250  -26.7960   22.2910 C   0  0  0  0  0  2  0  0  0  0  0  0
  -19.1610  -28.9160   23.3900 C   0  0  0  0  0  0  0  0  0  0  0  0
  -18.9360  -30.1790   23.9790 C   0  0  0  0  0  3  0  0  0  0  0  0
  -17.6280  -30.6750   24.1420 C   0  0  0  0  0  3  0  0  0  0  0  0
  -16.5270  -29.9050   23.7270 C   0  0  0  0  0  3  0  0  0  0  0  0
  -16.7360  -28.6430   23.1430 C   0  0  0  0  0  3  0  0  0  0  0  0
  -25.9350  -32.5360   23.8820 C   0  0  0  0  0  3  0  0  0  0  0  0
  -25.6290  -33.9370   24.2150 N   0  0  0  0  0  0  0  0  0  0  0  0
  -25.9420  -34.9920   23.4500 C   0  0  0  0  0  0  0  0  0  0  0  0
  -26.5820  -34.8880   22.4010 O   0  0  0  0  0  0  0  0  0  0  0  0
  -25.0570  -34.0910   25.0320 H   0  0  0  0  0  0  0  0  0  0  0  0
  -24.1930  -36.7820   23.1630 C   0  0  0  0  0  1  0  0  0  0  0  0
  -25.4700  -36.3820   23.9220 C   0  0  0  0  0  3  0  0  0  0  0  0
  -27.6340  -37.2820   24.6570 C   0  0  0  0  0  1  0  0  0  0  0  0
  -26.4930  -37.4390   23.7610 N   0  0  0  0  0  0  0  0  0  0  0  0
  -26.0890  -38.3580   23.9200 H   0  0  0  0  0  0  0  0  0  0  0  0
  -26.4420  -31.7660   25.1630 C   0  0  1  0  0  0  0  0  0  0  0  0
  -25.3460  -31.5440   26.2300 C   0  0  0  0  0  1  0  0  0  0  0  0
  -27.0150  -30.3810   24.7850 C   0  0  0  0  0  1  0  0  0  0  0  0
  -27.5980  -32.5540   25.8230 C   0  0  0  0  0  1  0  0  0  0  0  0
  1 18  1  0
  2  7  1  0
  3  4  1  0
  3  2  1  0
  5  4  1  0
  5 25  1  0
  5  6  1  0
  7  1  1  0
  7  6  1  0
  8  1  2  0
 12  9  1  0
 13 10  1  0
 13 18  1  0
 14 19  1  0
 14 11  1  0
 15 16  1  0
 16 50  1  0
 17 11  1  6
 17 16  1  0
 17 10  1  0
 17  9  1  0
 18 12  1  0
 19 15  1  0
 20 19  1  0
 21 19  1  0
 22 23  2  0
 23 24  1  0
 23 42  1  0
 24 27  1  0
 25 22  1  0
 25 26  1  0
 26 24  2  0
 27 28  1  0
 28 29  2  0
 30 33  1  0
 30 29  1  0
 31 30  2  0
 32 31  1  0
 32 27  2  0
 33 34  1  0
 34 35  1  0
 35 36  2  0
 37 36  1  0
 37 41  1  0
 38 37  2  0
 39 34  2  0
 39 38  1  0
 40 39  1  0
 42 43  1  0
 43 46  1  0
 43 45  1  0
 44 42  2  0
 47 48  1  0
 47 22  1  0
 49 47  1  0
 51 50  2  0
 51 52  1  0
 53 64  2  0
 54 52  1  0
 54 59  1  0
 55 63  1  0
 55 65  1  0
 56 62  1  0
 56 58  1  0
 57 63  1  0
 58 57  1  0
 59 58  2  0
 60 54  2  0
 61 60  1  0
 61 56  2  0
 62 55  1  0
 63 53  1  0
 65 67  2  0
 66 65  1  0
 68 66  1  0
 69 78  2  0
 69 74  1  0
 70 66  1  0
 70 74  1  0
 71 70  1  0
 72 73  1  0
 72 71  1  0
 73 69  1  0
 74 75  2  0
 75 76  1  0
 77 76  2  0
 78 77  1  0
 79 53  1  0
 79 80  1  0
 79 89  1  0
 80 83  1  0
 81 85  1  0
 81 80  1  0
 82 81  2  0
 85 84  1  0
 87 88  1  0
 87 85  1  0
 87 86  1  0
 89 92  1  1
 89 90  1  0
 91 89  1  0
M  ISO  4   1 100  18 100  51 101  52 101
M  END
>  <TORSDO>  (34) 
F 17

>  <SCORE>  (34) 
-16.407

>  <name>  (34) 
33

>  <ligand_id>  (34) 
33

>  <original_smiles>  (34) 
[H]c1c([H])c([H])c2c(c1[H])C([H])([H])C([H])([H])C([H])([H])C2([H])N([H])C(=O)C1([H])N(C(=O)C([H])(N([H])C(=O)C([H])(N([H])C([H])([H])[H])C([H])([H])[H])C(C([H])([H])[H])(C([H])([H])[H])C([H])([H])[H])C([H])([H])c2c([H])c(OC([H])([H])C([H])([H])C3([H])C4(C([H])([H])C([H])([H])N(C(=O)N5C([H])([H])C([H])([H])C([H])([H])C([H])(n6nc(-c7c([H])c([H])c(Oc8c([H])c([H])c(F)c([H])c8F)c([H])c7[H])c(C(=O)N([H])[H])c6N([H])[H])C5([H])[H])C([H])([H])C4([H])[H])C([H])([H])C([H])([H])[N+]([H])([H])C3([H])[H])c([H])c([H])c2C1([H])[H]

>  <smiles>  (34) 
[H]c1c([H])c([H])c2c(c1[H])C([H])([H])C([H])([H])C([H])([H])C2([H])N([H])C(=O)C1([H])N(C(=O)C([H])(N([H])C(=O)C([H])(N([H])C([H])([H])[H])C([H])([H])[H])C(C([H])([H])[H])(C([H])([H])[H])C([H])([H])[H])C([H])([H])c2c([H])c(OC([H])([H])C([H])([H])C3([H])C4(C([H])([H])C([H])([H])N(C(=O)N5C([H])([H])C([H])([H])C([H])([H])C([H])(n6nc(-c7c([H])c([H])c(Oc8c([H])c([H])c(F)c([H])c8F)c([H])c7[H])c(C(=O)N([H])[H])c6N([H])[H])C5([H])[H])C([H])([H])C4([H])[H])C([H])([H])C([H])([H])[N+]([H])([H])C3([H])[H])c([H])c([H])c2C1([H])[H]

$$$$
34:0:0
     RDKit          3D

 95104  0  0  1  0  0  0  0  0999 V2000
  -29.9410  -19.2230   18.8720 C   0  0  0  0  0  0  0  0  0  0  0  0
  -27.5250  -19.4170   18.1880 C   0  0  0  0  0  2  0  0  0  0  0  0
  -26.8140  -19.7840   19.5150 C   0  0  0  0  0  2  0  0  0  0  0  0
  -28.7630  -19.7340   21.1210 C   0  0  0  0  0  2  0  0  0  0  0  0
  -29.8810  -18.8980   20.3880 C   0  0  0  0  0  3  0  0  0  0  0  0
  -28.8610  -20.1870   18.2410 C   0  0  0  0  0  3  0  0  0  0  0  0
  -27.8220  -20.6700   20.2730 C   0  0  0  0  0  3  0  0  0  0  0  0
  -28.4720  -21.3330   19.1180 N   0  0  1  0  0  4  0  0  0  0  0  0
  -30.8270  -18.7040   18.1890 O   0  0  0  0  0  0  0  0  0  0  0  0
  -27.6480  -21.6270   18.6170 H   0  0  0  0  0  0  0  0  0  0  0  0
  -29.1700  -22.6900   19.1400 C   0  0  0  0  0  2  0  0  0  0  0  0
  -28.2490  -23.9990   19.3310 C   0  0  0  0  0  2  0  0  0  0  0  0
  -28.7090  -25.3550   18.6190 C   0  0  0  0  0  2  0  0  0  0  0  0
  -28.5920  -26.6850   19.2570 O   0  0  0  0  0  0  0  0  0  0  0  0
  -24.7210  -31.4530   22.9800 C   0  0  0  0  0  0  0  0  0  0  0  0
  -27.4150  -27.4430   19.3050 C   0  0  0  0  0  0  0  0  0  0  0  0
  -23.5260  -30.2350   21.1980 C   0  0  0  0  0  3  0  0  0  0  0  0
  -24.9900  -28.9370   19.5490 C   0  0  0  0  0  0  0  0  0  0  0  0
  -26.0400  -30.6800   20.9990 C   0  0  0  0  0  2  0  0  0  0  0  0
  -26.1510  -29.3990   20.1790 C   0  0  0  0  0  0  0  0  0  0  0  0
  -27.3620  -28.6620   20.0480 C   0  0  0  0  0  3  0  0  0  0  0  0
  -26.2270  -27.0250   18.6650 C   0  0  0  0  0  3  0  0  0  0  0  0
  -25.0270  -27.7550   18.7880 C   0  0  0  0  0  3  0  0  0  0  0  0
  -23.7230  -29.7460   19.7370 C   0  0  0  0  0  2  0  0  0  0  0  0
  -24.7820  -30.8010   21.7820 N   0  0  0  0  0  0  0  0  0  0  0  0
  -23.6430  -31.6130   23.5720 O   0  0  0  0  0  0  0  0  0  0  0  0
  -22.9310  -29.0760   22.0340 C   0  0  0  0  0  0  0  0  0  0  0  0
  -21.6130  -28.8510   21.9040 N   0  0  0  0  0  0  0  0  0  0  0  0
  -23.6540  -28.3870   22.7580 O   0  0  0  0  0  0  0  0  0  0  0  0
  -21.0880  -29.4570   21.2920 H   0  0  0  0  0  0  0  0  0  0  0  0
  -18.3140  -27.4340   22.3080 C   0  0  0  0  0  0  0  0  0  0  0  0
  -20.8600  -27.7870   22.5680 C   0  0  0  0  0  3  0  0  0  0  0  0
  -21.0180  -26.4390   21.8240 C   0  0  0  0  0  2  0  0  0  0  0  0
  -19.9160  -26.1880   20.7940 C   0  0  0  0  0  2  0  0  0  0  0  0
  -18.5410  -26.1910   21.4640 C   0  0  0  0  0  2  0  0  0  0  0  0
  -19.4030  -28.1920   22.8120 C   0  0  0  0  0  0  0  0  0  0  0  0
  -19.1380  -29.3580   23.5590 C   0  0  0  0  0  3  0  0  0  0  0  0
  -17.8150  -29.7740   23.8030 C   0  0  0  0  0  3  0  0  0  0  0  0
  -16.7410  -29.0110   23.3140 C   0  0  0  0  0  3  0  0  0  0  0  0
  -16.9890  -27.8440   22.5720 C   0  0  0  0  0  3  0  0  0  0  0  0
  -25.9950  -32.0540   23.6490 C   0  0  0  0  0  3  0  0  0  0  0  0
  -25.6520  -33.4000   24.1300 N   0  0  0  0  0  0  0  0  0  0  0  0
  -25.9510  -34.5380   23.4890 C   0  0  0  0  0  0  0  0  0  0  0  0
  -26.6180  -34.5660   22.4500 O   0  0  0  0  0  0  0  0  0  0  0  0
  -25.0570  -33.4530   24.9450 H   0  0  0  0  0  0  0  0  0  0  0  0
  -24.1740  -36.3110   23.3460 C   0  0  0  0  0  1  0  0  0  0  0  0
  -25.4330  -35.8550   24.1000 C   0  0  0  0  0  3  0  0  0  0  0  0
  -27.5460  -36.7070   25.0140 C   0  0  0  0  0  1  0  0  0  0  0  0
  -26.4370  -36.9420   24.0940 N   0  0  0  0  0  0  0  0  0  0  0  0
  -26.0050  -37.8300   24.3360 H   0  0  0  0  0  0  0  0  0  0  0  0
  -26.5570  -31.1680   24.8280 C   0  0  1  0  0  0  0  0  0  0  0  0
  -25.4910  -30.7920   25.8820 C   0  0  0  0  0  1  0  0  0  0  0  0
  -27.1680  -29.8560   24.2810 C   0  0  0  0  0  1  0  0  0  0  0  0
  -27.7000  -31.9180   25.5510 C   0  0  0  0  0  1  0  0  0  0  0  0
  -30.4550  -17.4940   21.0020 C   0  0  0  0  0  3  0  0  0  0  0  0
  -30.7710  -14.9990   20.3200 C   0  0  0  0  0  0  0  0  0  0  0  0
  -30.6740  -12.6610   19.4360 C   0  0  0  0  0  2  0  0  0  0  0  0
  -29.7670  -12.6090   18.1890 C   0  0  0  0  0  2  0  0  0  0  0  0
  -28.2910  -12.4200   18.5950 C   0  0  0  0  0  2  0  0  0  0  0  0
  -27.8600  -13.3900   19.7270 C   0  0  0  0  0  3  0  0  0  0  0  0
  -28.8830  -13.4100   20.8820 C   0  0  0  0  0  2  0  0  0  0  0  0
  -30.1810  -13.7610   20.2970 N   0  0  0  0  0  0  0  0  0  0  0  0
  -31.9520  -15.1260   19.9910 O   0  0  0  0  0  0  0  0  0  0  0  0
  -29.9820  -16.1080   20.5920 N   0  0  0  0  0  0  0  0  0  0  0  0
  -29.0030  -15.9170   20.7420 H   0  0  0  0  0  0  0  0  0  0  0  0
  -25.4670  -13.9810   20.4450 C   0  0  0  0  0  0  0  0  0  0  0  0
  -24.4000  -13.2030   20.8110 C   0  0  0  0  0  0  0  0  0  0  0  0
  -24.8680  -11.8550   20.7780 C   0  0  0  0  0  0  0  0  0  0  0  0
  -26.5120  -13.1020   20.2090 N   0  0  0  0  0  0  0  0  0  0  0  0
  -26.1580  -11.8190   20.4720 N   0  0  0  0  0  0  0  0  0  0  0  0
  -24.1400  -10.5900   20.9610 C   0  0  0  0  0  0  0  0  0  0  0  0
  -24.5680   -9.6220   21.8960 C   0  0  0  0  0  3  0  0  0  0  0  0
  -23.8430   -8.4230   22.0700 C   0  0  0  0  0  3  0  0  0  0  0  0
  -22.6750   -8.1840   21.3060 C   0  0  0  0  0  0  0  0  0  0  0  0
  -22.2660   -9.1420   20.3600 C   0  0  0  0  0  3  0  0  0  0  0  0
  -22.9920  -10.3310   20.1860 C   0  0  0  0  0  3  0  0  0  0  0  0
  -21.9210   -7.0400   21.3880 O   0  0  0  0  0  0  0  0  0  0  0  0
  -21.8620   -6.2950   22.5390 C   0  0  0  0  0  0  0  0  0  0  0  0
  -21.4060   -6.8440   23.7570 C   0  0  0  0  0  3  0  0  0  0  0  0
  -21.2950   -6.0260   24.9000 C   0  0  0  0  0  3  0  0  0  0  0  0
  -21.6300   -4.6610   24.8250 C   0  0  0  0  0  0  0  0  0  0  0  0
  -22.0790   -4.1120   23.6110 C   0  0  0  0  0  3  0  0  0  0  0  0
  -22.1930   -4.9270   22.4710 C   0  0  0  0  0  0  0  0  0  0  0  0
  -22.6060   -4.3880   21.2990 F   0  0  0  0  0  0  0  0  0  0  0  0
  -21.5160   -3.8740   25.9200 F   0  0  0  0  0  0  0  0  0  0  0  0
  -23.0020  -13.6780   21.0720 C   0  0  0  0  0  0  0  0  0  0  0  0
  -22.2720  -12.9880   21.9420 N   0  0  0  0  0  0  0  0  0  0  0  0
  -22.5640  -14.6990   20.5470 O   0  0  0  0  0  0  0  0  0  0  0  0
  -22.6370  -12.1640   22.3960 H   0  0  0  0  0  0  0  0  0  0  0  0
  -21.3320  -13.2900   22.1520 H   0  0  0  0  0  0  0  0  0  0  0  0
  -25.6270  -15.3540   20.2710 N   0  0  0  0  0  0  0  0  0  0  0  0
  -24.8460  -15.9960   20.3650 H   0  0  0  0  0  0  0  0  0  0  0  0
  -26.4570  -15.7980   19.9050 H   0  0  0  0  0  0  0  0  0  0  0  0
  -31.0710  -18.7320   23.2410 C   0  0  0  0  0  1  0  0  0  0  0  0
  -30.4610  -17.4950   22.5550 C   0  0  0  0  0  2  0  0  0  0  0  0
  1  5  1  0
  2  3  1  0
  5 55  1  0
  5  4  1  0
  6  2  1  0
  6  1  1  0
  6  8  1  0
  7  3  1  0
  7  4  1  0
  8 11  1  0
  8  7  1  0
  9  1  2  0
  8 10  1  6
 11 12  1  0
 13 14  1  0
 13 12  1  0
 14 16  1  0
 15 26  2  0
 16 21  1  0
 17 25  1  0
 17 27  1  0
 18 24  1  0
 18 20  1  0
 19 25  1  0
 20 19  1  0
 21 20  2  0
 22 23  1  0
 22 16  2  0
 23 18  2  0
 24 17  1  0
 25 15  1  0
 27 29  2  0
 28 27  1  0
 30 28  1  0
 31 40  2  0
 31 36  1  0
 32 28  1  0
 32 36  1  0
 33 32  1  0
 34 35  1  0
 34 33  1  0
 35 31  1  0
 36 37  2  0
 37 38  1  0
 39 38  2  0
 40 39  1  0
 41 15  1  0
 41 42  1  0
 41 51  1  0
 42 45  1  0
 43 47  1  0
 43 42  1  0
 44 43  2  0
 47 46  1  0
 49 47  1  0
 49 50  1  0
 49 48  1  0
 51 54  1  1
 51 52  1  0
 53 51  1  0
 55 95  1  0
 56 64  1  0
 57 62  1  0
 58 59  1  0
 58 57  1  0
 60 59  1  0
 60 69  1  0
 60 61  1  0
 62 56  1  0
 62 61  1  0
 63 56  2  0
 64 65  1  0
 64 55  1  0
 66 67  2  0
 67 86  1  0
 68 67  1  0
 68 71  1  0
 69 66  1  0
 69 70  1  0
 70 68  2  0
 71 72  1  0
 72 73  2  0
 74 77  1  0
 74 73  1  0
 75 74  2  0
 76 75  1  0
 76 71  2  0
 77 78  1  0
 78 79  1  0
 79 80  2  0
 81 80  1  0
 81 85  1  0
 82 81  2  0
 83 78  2  0
 83 82  1  0
 84 83  1  0
 86 87  1  0
 87 90  1  0
 87 89  1  0
 88 86  2  0
 91 92  1  0
 91 66  1  0
 93 91  1  0
 95 94  1  0
M  ISO  4  13 101  14 101  56 100  64 100
M  END
>  <TORSDO>  (35) 
F 21

>  <SCORE>  (35) 
-11.138

>  <name>  (35) 
34

>  <ligand_id>  (35) 
34

>  <original_smiles>  (35) 
[H]c1c([H])c([H])c2c(c1[H])C([H])([H])C([H])([H])C([H])([H])C2([H])N([H])C(=O)C1([H])N(C(=O)C([H])(N([H])C(=O)C([H])(N([H])C([H])([H])[H])C([H])([H])[H])C(C([H])([H])[H])(C([H])([H])[H])C([H])([H])[H])C([H])([H])c2c([H])c(OC([H])([H])C([H])([H])C([H])([H])[N+]3([H])C4([H])C(=O)C([H])(C([H])(N([H])C(=O)N5C([H])([H])C([H])([H])C([H])([H])C([H])(n6nc(-c7c([H])c([H])c(Oc8c([H])c([H])c(F)c([H])c8F)c([H])c7[H])c(C(=O)N([H])[H])c6N([H])[H])C5([H])[H])C([H])([H])C([H])([H])[H])C([H])([H])C3([H])C([H])([H])C4([H])[H])c([H])c([H])c2C1([H])[H]

>  <smiles>  (35) 
[H]c1c([H])c([H])c2c(c1[H])C([H])([H])C([H])([H])C([H])([H])C2([H])N([H])C(=O)C1([H])N(C(=O)C([H])(N([H])C(=O)C([H])(N([H])C([H])([H])[H])C([H])([H])[H])C(C([H])([H])[H])(C([H])([H])[H])C([H])([H])[H])C([H])([H])c2c([H])c(OC([H])([H])C([H])([H])C([H])([H])[N+]3([H])C4([H])C(=O)C([H])(C([H])(N([H])C(=O)N5C([H])([H])C([H])([H])C([H])([H])C([H])(n6nc(-c7c([H])c([H])c(Oc8c([H])c([H])c(F)c([H])c8F)c([H])c7[H])c(C(=O)N([H])[H])c6N([H])[H])C5([H])[H])C([H])([H])C([H])([H])[H])C([H])([H])C3([H])C([H])([H])C4([H])[H])c([H])c([H])c2C1([H])[H]

$$$$
35:0:0
     RDKit          3D

 89 97  0  0  1  0  0  0  0  0999 V2000
  -29.4180  -19.8300   18.9620 C   0  0  0  0  0  3  0  0  0  0  0  0
  -29.0960  -21.2460   18.8910 C   0  0  0  0  0  0  0  0  0  0  0  0
  -29.2610  -19.7250   21.3410 C   0  0  0  0  0  3  0  0  0  0  0  0
  -28.8010  -21.3720   21.2640 C   0  0  0  0  0  3  0  0  0  0  0  0
  -29.8520  -18.7680   20.1360 C   0  0  0  0  0  0  0  0  0  0  0  0
  -28.9810  -22.4580   20.0340 C   0  0  0  0  0  0  0  0  0  0  0  0
  -30.5260  -15.7060   20.1120 C   0  0  0  0  0  0  0  0  0  0  0  0
  -30.5960  -13.1810   19.3500 C   0  0  0  0  0  2  0  0  0  0  0  0
  -29.6880  -12.8080   18.1490 C   0  0  0  0  0  2  0  0  0  0  0  0
  -28.2670  -12.4780   18.6260 C   0  0  0  0  0  2  0  0  0  0  0  0
  -27.7690  -13.4920   19.6810 C   0  0  0  0  0  3  0  0  0  0  0  0
  -28.8110  -13.7980   20.7820 C   0  0  0  0  0  2  0  0  0  0  0  0
  -29.9940  -14.3610   20.0990 N   0  0  0  0  0  0  0  0  0  0  0  0
  -31.7570  -15.6740   19.9390 O   0  0  0  0  0  0  0  0  0  0  0  0
  -29.7430  -17.0230   20.1340 N   0  0  0  0  0  0  0  0  0  0  0  0
  -28.7710  -16.7630   20.2160 H   0  0  0  0  0  0  0  0  0  0  0  0
  -25.4140  -14.0170   20.4830 C   0  0  0  0  0  0  0  0  0  0  0  0
  -24.3600  -13.2300   20.8550 C   0  0  0  0  0  0  0  0  0  0  0  0
  -24.8320  -11.8830   20.7970 C   0  0  0  0  0  0  0  0  0  0  0  0
  -26.4570  -13.1520   20.2140 N   0  0  0  0  0  0  0  0  0  0  0  0
  -26.1210  -11.8600   20.4700 N   0  0  0  0  0  0  0  0  0  0  0  0
  -24.1070  -10.6170   20.9780 C   0  0  0  0  0  0  0  0  0  0  0  0
  -24.5130   -9.6640   21.9390 C   0  0  0  0  0  3  0  0  0  0  0  0
  -23.7870   -8.4650   22.1050 C   0  0  0  0  0  3  0  0  0  0  0  0
  -22.6420   -8.2090   21.3130 C   0  0  0  0  0  0  0  0  0  0  0  0
  -22.2570   -9.1510   20.3440 C   0  0  0  0  0  3  0  0  0  0  0  0
  -22.9830  -10.3420   20.1740 C   0  0  0  0  0  3  0  0  0  0  0  0
  -21.8880   -7.0620   21.3940 O   0  0  0  0  0  0  0  0  0  0  0  0
  -21.7500   -6.3700   22.5720 C   0  0  0  0  0  0  0  0  0  0  0  0
  -21.1460   -6.9480   23.7090 C   0  0  0  0  0  3  0  0  0  0  0  0
  -20.9620   -6.1770   24.8760 C   0  0  0  0  0  3  0  0  0  0  0  0
  -21.3730   -4.8320   24.9030 C   0  0  0  0  0  0  0  0  0  0  0  0
  -21.9710   -4.2540   23.7710 C   0  0  0  0  0  3  0  0  0  0  0  0
  -22.1580   -5.0200   22.6070 C   0  0  0  0  0  0  0  0  0  0  0  0
  -22.7150   -4.4520   21.5090 F   0  0  0  0  0  0  0  0  0  0  0  0
  -21.1900   -4.0890   26.0220 F   0  0  0  0  0  0  0  0  0  0  0  0
  -22.9650  -13.7010   21.1470 C   0  0  0  0  0  0  0  0  0  0  0  0
  -22.2520  -13.0020   22.0220 N   0  0  0  0  0  0  0  0  0  0  0  0
  -22.5180  -14.7240   20.6280 O   0  0  0  0  0  0  0  0  0  0  0  0
  -22.6260  -12.1770   22.4680 H   0  0  0  0  0  0  0  0  0  0  0  0
  -21.3170  -13.3020   22.2570 H   0  0  0  0  0  0  0  0  0  0  0  0
  -25.5660  -15.3900   20.3200 N   0  0  0  0  0  0  0  0  0  0  0  0
  -24.7930  -16.0350   20.4460 H   0  0  0  0  0  0  0  0  0  0  0  0
  -26.4030  -15.8410   19.9810 H   0  0  0  0  0  0  0  0  0  0  0  0
  -28.8580  -21.7400   17.5010 C   0  0  0  0  0  0  0  0  0  0  0  0
  -29.6750  -21.1700   16.3360 C   0  0  0  0  0  1  0  0  0  0  0  0
  -28.0160  -22.5900   17.2200 O   0  0  0  0  0  0  0  0  0  0  0  0
  -28.0710  -24.1410   19.9400 C   0  0  0  0  0  2  0  0  0  0  0  0
  -28.2780  -25.8340   20.1410 O   0  0  0  0  0  0  0  0  0  0  0  0
  -24.6860  -31.8830   23.2550 C   0  0  0  0  0  0  0  0  0  0  0  0
  -27.2760  -26.9900   20.1150 C   0  0  0  0  0  0  0  0  0  0  0  0
  -23.5070  -30.5150   21.5810 C   0  0  0  0  0  3  0  0  0  0  0  0
  -24.9720  -28.9340   20.1210 C   0  0  0  0  0  0  0  0  0  0  0  0
  -26.0810  -30.7140   21.4520 C   0  0  0  0  0  2  0  0  0  0  0  0
  -26.1620  -29.3070   20.7570 C   0  0  0  0  0  0  0  0  0  0  0  0
  -27.3010  -28.3590   20.7250 C   0  0  0  0  0  3  0  0  0  0  0  0
  -26.0480  -26.8010   19.4350 C   0  0  0  0  0  3  0  0  0  0  0  0
  -24.9460  -27.7030   19.4400 C   0  0  0  0  0  3  0  0  0  0  0  0
  -23.7480  -29.8570   20.1920 C   0  0  0  0  0  2  0  0  0  0  0  0
  -24.7810  -31.0640   22.1510 N   0  0  0  0  0  0  0  0  0  0  0  0
  -23.5920  -32.1570   23.7760 O   0  0  0  0  0  0  0  0  0  0  0  0
  -22.8080  -29.5010   22.5260 C   0  0  0  0  0  0  0  0  0  0  0  0
  -21.4800  -29.3250   22.3880 N   0  0  0  0  0  0  0  0  0  0  0  0
  -23.4710  -28.8730   23.3530 O   0  0  0  0  0  0  0  0  0  0  0  0
  -20.9950  -29.8770   21.6930 H   0  0  0  0  0  0  0  0  0  0  0  0
  -18.1090  -28.0590   22.8570 C   0  0  0  0  0  0  0  0  0  0  0  0
  -20.6640  -28.3580   23.1360 C   0  0  0  0  0  3  0  0  0  0  0  0
  -20.7880  -26.9410   22.5290 C   0  0  0  0  0  2  0  0  0  0  0  0
  -19.6940  -26.6240   21.5050 C   0  0  0  0  0  2  0  0  0  0  0  0
  -18.3090  -26.7320   22.1460 C   0  0  0  0  0  2  0  0  0  0  0  0
  -19.2130  -28.8290   23.3060 C   0  0  0  0  0  0  0  0  0  0  0  0
  -18.9690  -30.0700   23.9360 C   0  0  0  0  0  3  0  0  0  0  0  0
  -17.6540  -30.5410   24.1120 C   0  0  0  0  0  3  0  0  0  0  0  0
  -16.5650  -29.7660   23.6760 C   0  0  0  0  0  3  0  0  0  0  0  0
  -16.7930  -28.5250   23.0560 C   0  0  0  0  0  3  0  0  0  0  0  0
  -25.9490  -32.5220   23.9130 C   0  0  0  0  0  3  0  0  0  0  0  0
  -25.6400  -33.9280   24.2250 N   0  0  0  0  0  0  0  0  0  0  0  0
  -25.9740  -34.9770   23.4600 C   0  0  0  0  0  0  0  0  0  0  0  0
  -26.6330  -34.8610   22.4240 O   0  0  0  0  0  0  0  0  0  0  0  0
  -25.0550  -34.0950   25.0290 H   0  0  0  0  0  0  0  0  0  0  0  0
  -24.2510  -36.7810   23.1240 C   0  0  0  0  0  1  0  0  0  0  0  0
  -25.5060  -36.3750   23.9120 C   0  0  0  0  0  3  0  0  0  0  0  0
  -27.6530  -37.2700   24.7020 C   0  0  0  0  0  1  0  0  0  0  0  0
  -26.5430  -37.4210   23.7670 N   0  0  0  0  0  0  0  0  0  0  0  0
  -26.1420  -38.3460   23.8980 H   0  0  0  0  0  0  0  0  0  0  0  0
  -26.4160  -31.7710   25.2220 C   0  0  1  0  0  0  0  0  0  0  0  0
  -25.2850  -31.5680   26.2570 C   0  0  0  0  0  1  0  0  0  0  0  0
  -26.9930  -30.3790   24.8810 C   0  0  0  0  0  1  0  0  0  0  0  0
  -27.5570  -32.5630   25.9020 C   0  0  0  0  0  1  0  0  0  0  0  0
  1  5  1  0
  2  1  2  0
  2  6  1  0
  4  3  1  0
  5  3  2  0
  6  4  2  0
  7 15  1  0
  8 13  1  0
  9 10  1  0
  9  8  1  0
 11 10  1  0
 11 20  1  0
 11 12  1  0
 13  7  1  0
 13 12  1  0
 14  7  2  0
 15  5  1  0
 15 16  1  0
 17 18  2  0
 18 37  1  0
 19 18  1  0
 19 22  1  0
 20 21  1  0
 20 17  1  0
 21 19  2  0
 22 23  1  0
 23 24  2  0
 25 28  1  0
 25 24  1  0
 26 25  2  0
 27 26  1  0
 27 22  2  0
 28 29  1  0
 29 34  2  0
 29 30  1  0
 30 31  2  0
 31 32  1  0
 32 36  1  0
 33 32  2  0
 34 33  1  0
 35 34  1  0
 37 38  1  0
 38 41  1  0
 38 40  1  0
 39 37  2  0
 42 43  1  0
 42 17  1  0
 44 42  1  0
 45  2  1  0
 46 45  1  0
 47 45  2  0
 48  6  1  0
 48 49  1  0
 50 61  2  0
 51 49  1  0
 51 56  1  0
 52 60  1  0
 52 62  1  0
 53 59  1  0
 53 55  1  0
 54 60  1  0
 55 54  1  0
 56 55  2  0
 57 58  1  0
 57 51  2  0
 58 53  2  0
 59 52  1  0
 60 50  1  0
 62 64  2  0
 63 62  1  0
 65 63  1  0
 66 75  2  0
 66 71  1  0
 67 63  1  0
 67 71  1  0
 68 67  1  0
 69 70  1  0
 69 68  1  0
 70 66  1  0
 71 72  2  0
 72 73  1  0
 74 73  2  0
 75 74  1  0
 76 50  1  0
 76 77  1  0
 76 86  1  0
 77 80  1  0
 78 82  1  0
 78 77  1  0
 79 78  2  0
 82 81  1  0
 84 85  1  0
 84 82  1  0
 84 83  1  0
 86 89  1  1
 86 87  1  0
 88 86  1  0
M  ISO  4   7 100  15 100  48 101  49 101
M  END
>  <TORSDO>  (36) 
F 18

>  <SCORE>  (36) 
-15.863

>  <name>  (36) 
35

>  <ligand_id>  (36) 
35

>  <original_smiles>  (36) 
[H]C1=C(C(=O)C([H])([H])[H])C([H])(C([H])([H])Oc2c([H])c([H])c3c(c2[H])C([H])([H])N(C(=O)C([H])(N([H])C(=O)C([H])(N([H])C([H])([H])[H])C([H])([H])[H])C(C([H])([H])[H])(C([H])([H])[H])C([H])([H])[H])C([H])(C(=O)N([H])C2([H])c4c([H])c([H])c([H])c([H])c4C([H])([H])C([H])([H])C2([H])[H])C3([H])[H])C([H])([H])C([H])([H])C1([H])N([H])C(=O)N1C([H])([H])C([H])([H])C([H])([H])C([H])(n2nc(-c3c([H])c([H])c(Oc4c([H])c([H])c(F)c([H])c4F)c([H])c3[H])c(C(=O)N([H])[H])c2N([H])[H])C1([H])[H]

>  <smiles>  (36) 
[H]C1=C(C(=O)C([H])([H])[H])C([H])(C([H])([H])Oc2c([H])c([H])c3c(c2[H])C([H])([H])N(C(=O)C([H])(N([H])C(=O)C([H])(N([H])C([H])([H])[H])C([H])([H])[H])C(C([H])([H])[H])(C([H])([H])[H])C([H])([H])[H])C([H])(C(=O)N([H])C2([H])c4c([H])c([H])c([H])c([H])c4C([H])([H])C([H])([H])C2([H])[H])C3([H])[H])C([H])([H])C([H])([H])C1([H])N([H])C(=O)N1C([H])([H])C([H])([H])C([H])([H])C([H])(n2nc(-c3c([H])c([H])c(Oc4c([H])c([H])c(F)c([H])c4F)c([H])c3[H])c(C(=O)N([H])[H])c2N([H])[H])C1([H])[H]

$$$$
36:0:0
     RDKit          3D

 95104  0  0  1  0  0  0  0  0999 V2000
  -29.6830  -20.9850   18.7910 C   0  0  0  0  0  2  0  0  0  0  0  0
  -31.3110  -21.0540   20.7000 C   0  0  0  0  0  2  0  0  0  0  0  0
  -29.5800  -22.5250   18.8060 C   0  0  0  0  0  2  0  0  0  0  0  0
  -31.1980  -22.5920   20.7340 C   0  0  0  0  0  2  0  0  0  0  0  0
  -31.0560  -20.4810   19.2900 C   0  0  0  0  0  3  0  0  0  0  0  0
  -29.8380  -23.1130   20.2100 C   0  0  0  0  0  3  0  0  0  0  0  0
  -31.1550  -18.9300   19.2310 C   0  0  0  0  0  2  0  0  0  0  0  0
  -32.6080  -18.3740   19.1330 C   0  0  0  0  0  2  0  0  0  0  0  0
  -31.0610  -14.1320   19.7170 C   0  0  0  0  0  0  0  0  0  0  0  0
  -30.1930  -12.0550   18.7930 C   0  0  0  0  0  2  0  0  0  0  0  0
  -29.1940  -12.4220   17.6900 C   0  0  0  0  0  2  0  0  0  0  0  0
  -27.7810  -12.4150   18.2750 C   0  0  0  0  0  2  0  0  0  0  0  0
  -27.6340  -13.2280   19.5900 C   0  0  0  0  0  3  0  0  0  0  0  0
  -28.8610  -13.0580   20.5530 C   0  0  0  0  0  2  0  0  0  0  0  0
  -30.1380  -13.1250   19.7820 N   0  0  0  0  0  0  0  0  0  0  0  0
  -31.1040  -15.1440   20.3590 O   0  0  0  0  0  0  0  0  0  0  0  0
  -34.0600  -14.9530   19.9810 C   0  0  0  0  0  2  0  0  0  0  0  0
  -33.4290  -13.8290   19.1190 C   0  0  0  0  0  2  0  0  0  0  0  0
  -31.8950  -14.8970   17.5450 C   0  0  0  0  0  3  0  0  0  0  0  0
  -34.0690  -16.3730   19.3650 C   0  0  0  0  0  2  0  0  0  0  0  0
  -32.3140  -16.3930   17.6410 C   0  0  0  0  0  3  0  0  0  0  0  0
  -32.0220  -14.0710   18.7610 N   0  0  0  0  0  0  0  0  0  0  0  0
  -32.7170  -16.8840   18.9910 N   0  0  2  0  0  4  0  0  0  0  0  0
  -32.0660  -16.4790   19.6620 H   0  0  0  0  0  0  0  0  0  0  0  0
  -25.2770  -13.8000   20.5020 C   0  0  0  0  0  0  0  0  0  0  0  0
  -24.2290  -13.0150   20.9090 C   0  0  0  0  0  0  0  0  0  0  0  0
  -24.6850  -11.6660   20.8110 C   0  0  0  0  0  0  0  0  0  0  0  0
  -26.3210  -12.9360   20.1990 N   0  0  0  0  0  0  0  0  0  0  0  0
  -25.9630  -11.6430   20.4400 N   0  0  0  0  0  0  0  0  0  0  0  0
  -23.9630  -10.3960   21.0030 C   0  0  0  0  0  0  0  0  0  0  0  0
  -24.4190   -9.4230   21.9180 C   0  0  0  0  0  3  0  0  0  0  0  0
  -23.7030   -8.2200   22.1060 C   0  0  0  0  0  3  0  0  0  0  0  0
  -22.5130   -7.9810   21.3780 C   0  0  0  0  0  0  0  0  0  0  0  0
  -22.0730   -8.9430   20.4520 C   0  0  0  0  0  3  0  0  0  0  0  0
  -22.7890  -10.1380   20.2630 C   0  0  0  0  0  3  0  0  0  0  0  0
  -21.7650   -6.8320   21.4790 O   0  0  0  0  0  0  0  0  0  0  0  0
  -21.7110   -6.1060   22.6420 C   0  0  0  0  0  0  0  0  0  0  0  0
  -21.2640   -6.6750   23.8550 C   0  0  0  0  0  3  0  0  0  0  0  0
  -21.1580   -5.8750   25.0110 C   0  0  0  0  0  3  0  0  0  0  0  0
  -21.4880   -4.5080   24.9550 C   0  0  0  0  0  0  0  0  0  0  0  0
  -21.9260   -3.9380   23.7460 C   0  0  0  0  0  3  0  0  0  0  0  0
  -22.0350   -4.7350   22.5930 C   0  0  0  0  0  0  0  0  0  0  0  0
  -22.4390   -4.1760   21.4270 F   0  0  0  0  0  0  0  0  0  0  0  0
  -21.3800   -3.7380   26.0630 F   0  0  0  0  0  0  0  0  0  0  0  0
  -22.8480  -13.4820   21.2800 C   0  0  0  0  0  0  0  0  0  0  0  0
  -22.1830  -12.7700   22.1830 N   0  0  0  0  0  0  0  0  0  0  0  0
  -22.3700  -14.5110   20.8050 O   0  0  0  0  0  0  0  0  0  0  0  0
  -22.5840  -11.9370   22.5890 H   0  0  0  0  0  0  0  0  0  0  0  0
  -21.2600  -13.0630   22.4730 H   0  0  0  0  0  0  0  0  0  0  0  0
  -25.4210  -15.1750   20.3430 N   0  0  0  0  0  0  0  0  0  0  0  0
  -24.6610  -15.8270   20.5110 H   0  0  0  0  0  0  0  0  0  0  0  0
  -26.2650  -15.6270   20.0090 H   0  0  0  0  0  0  0  0  0  0  0  0
  -29.7870  -24.6660   20.2470 C   0  0  0  0  0  2  0  0  0  0  0  0
  -28.4250  -25.3050   19.8960 C   0  0  0  0  0  2  0  0  0  0  0  0
  -28.4570  -26.7080   20.1940 O   0  0  0  0  0  0  0  0  0  0  0  0
  -24.6380  -31.8490   23.2980 C   0  0  0  0  0  0  0  0  0  0  0  0
  -27.2670  -27.4120   20.1870 C   0  0  0  0  0  0  0  0  0  0  0  0
  -23.4290  -30.4730   21.6360 C   0  0  0  0  0  3  0  0  0  0  0  0
  -24.8760  -28.9340   20.2070 C   0  0  0  0  0  0  0  0  0  0  0  0
  -25.9580  -30.8110   21.4550 C   0  0  0  0  0  2  0  0  0  0  0  0
  -26.0350  -29.4460   20.8040 C   0  0  0  0  0  0  0  0  0  0  0  0
  -27.2310  -28.6930   20.7870 C   0  0  0  0  0  3  0  0  0  0  0  0
  -26.0840  -26.9110   19.5940 C   0  0  0  0  0  3  0  0  0  0  0  0
  -24.8960  -27.6660   19.6020 C   0  0  0  0  0  3  0  0  0  0  0  0
  -23.6380  -29.8020   20.2530 C   0  0  0  0  0  2  0  0  0  0  0  0
  -24.6930  -31.0580   22.1890 N   0  0  0  0  0  0  0  0  0  0  0  0
  -23.5570  -32.1270   23.8340 O   0  0  0  0  0  0  0  0  0  0  0  0
  -22.7620  -29.4500   22.5840 C   0  0  0  0  0  0  0  0  0  0  0  0
  -21.4360  -29.2880   22.4520 N   0  0  0  0  0  0  0  0  0  0  0  0
  -23.4360  -28.8050   23.3930 O   0  0  0  0  0  0  0  0  0  0  0  0
  -20.9550  -29.8600   21.7710 H   0  0  0  0  0  0  0  0  0  0  0  0
  -18.0390  -28.1610   22.9520 C   0  0  0  0  0  0  0  0  0  0  0  0
  -20.6050  -28.3520   23.2080 C   0  0  0  0  0  3  0  0  0  0  0  0
  -20.6690  -26.9320   22.6000 C   0  0  0  0  0  2  0  0  0  0  0  0
  -19.5520  -26.6580   21.5880 C   0  0  0  0  0  2  0  0  0  0  0  0
  -18.1790  -26.8210   22.2470 C   0  0  0  0  0  2  0  0  0  0  0  0
  -19.1800  -28.8860   23.3890 C   0  0  0  0  0  0  0  0  0  0  0  0
  -18.9960  -30.1420   24.0060 C   0  0  0  0  0  3  0  0  0  0  0  0
  -17.7040  -30.6720   24.1920 C   0  0  0  0  0  3  0  0  0  0  0  0
  -16.5790  -29.9420   23.7720 C   0  0  0  0  0  3  0  0  0  0  0  0
  -16.7480  -28.6880   23.1580 C   0  0  0  0  0  3  0  0  0  0  0  0
  -25.9270  -32.4620   23.9320 C   0  0  0  0  0  3  0  0  0  0  0  0
  -26.4250  -31.6810   25.2090 C   0  0  1  0  0  0  0  0  0  0  0  0
  -25.3200  -31.4470   26.2650 C   0  0  0  0  0  1  0  0  0  0  0  0
  -27.0000  -30.3000   24.8140 C   0  0  0  0  0  1  0  0  0  0  0  0
  -27.5770  -32.4600   25.8850 C   0  0  0  0  0  1  0  0  0  0  0  0
  -25.6340  -33.8630   24.2610 N   0  0  0  0  0  0  0  0  0  0  0  0
  -25.9650  -34.9100   23.4930 C   0  0  0  0  0  0  0  0  0  0  0  0
  -26.6210  -34.7970   22.4540 O   0  0  0  0  0  0  0  0  0  0  0  0
  -25.0500  -34.0250   25.0690 H   0  0  0  0  0  0  0  0  0  0  0  0
  -24.2350  -36.7050   23.1650 C   0  0  0  0  0  1  0  0  0  0  0  0
  -25.4930  -36.3030   23.9510 C   0  0  0  0  0  3  0  0  0  0  0  0
  -27.6490  -37.1860   24.7280 C   0  0  0  0  0  1  0  0  0  0  0  0
  -26.5280  -37.3510   23.8050 N   0  0  0  0  0  0  0  0  0  0  0  0
  -26.1280  -38.2740   23.9540 H   0  0  0  0  0  0  0  0  0  0  0  0
  1  3  1  0
  1  5  1  0
  2  4  1  0
  3  6  1  0
  5  7  1  0
  5  2  1  0
  6 53  1  0
  6  4  1  0
  8  7  1  0
  9 15  1  0
  9 16  2  0
 10 15  1  0
 11 12  1  0
 11 10  1  0
 13 12  1  0
 13 28  1  0
 13 14  1  0
 15 14  1  0
 18 17  1  0
 19 21  2  0
 19 22  1  0
 20 17  1  0
 21 23  1  0
 22 18  1  0
 22  9  1  0
 23  8  1  0
 23 20  1  0
 23 24  1  1
 25 26  2  0
 26 45  1  0
 27 26  1  0
 27 30  1  0
 28 29  1  0
 28 25  1  0
 29 27  2  0
 30 31  1  0
 31 32  2  0
 33 36  1  0
 33 32  1  0
 34 33  2  0
 35 34  1  0
 35 30  2  0
 36 37  1  0
 37 38  1  0
 38 39  2  0
 40 39  1  0
 40 44  1  0
 41 40  2  0
 42 37  2  0
 42 41  1  0
 43 42  1  0
 45 46  1  0
 46 49  1  0
 46 48  1  0
 47 45  2  0
 50 25  1  0
 50 51  1  0
 52 50  1  0
 54 55  1  0
 54 53  1  0
 56 67  2  0
 57 55  1  0
 57 62  1  0
 58 66  1  0
 58 68  1  0
 59 65  1  0
 59 61  1  0
 60 66  1  0
 61 60  1  0
 62 61  2  0
 63 64  1  0
 63 57  2  0
 64 59  2  0
 65 58  1  0
 66 56  1  0
 68 70  2  0
 69 68  1  0
 71 69  1  0
 72 81  2  0
 72 77  1  0
 73 69  1  0
 73 77  1  0
 74 73  1  0
 75 76  1  0
 75 74  1  0
 76 72  1  0
 77 78  2  0
 78 79  1  0
 80 79  2  0
 81 80  1  0
 82 56  1  0
 82 87  1  0
 82 83  1  0
 83 86  1  1
 83 84  1  0
 85 83  1  0
 87 90  1  0
 88 92  1  0
 88 87  1  0
 89 88  2  0
 92 91  1  0
 94 92  1  0
 94 95  1  0
 94 93  1  0
M  ISO  4   9 100  22 100  54 101  55 101
M  END
>  <TORSDO>  (37) 
F 20

>  <SCORE>  (37) 
-13.118

>  <name>  (37) 
36

>  <ligand_id>  (37) 
36

>  <original_smiles>  (37) 
[H]c1c([H])c([H])c2c(c1[H])C([H])([H])C([H])([H])C([H])([H])C2([H])N([H])C(=O)C1([H])N(C(=O)C([H])(N([H])C(=O)C([H])(N([H])C([H])([H])[H])C([H])([H])[H])C(C([H])([H])[H])(C([H])([H])[H])C([H])([H])[H])C([H])([H])c2c([H])c(OC([H])([H])C([H])([H])C3([H])C([H])([H])C([H])([H])C([H])(C([H])([H])C([H])([H])[N+]4([H])C([H])([H])C([H])([H])N(C(=O)N5C([H])([H])C([H])([H])C([H])([H])C([H])(n6nc(-c7c([H])c([H])c(Oc8c([H])c([H])c(F)c([H])c8F)c([H])c7[H])c(C(=O)N([H])[H])c6N([H])[H])C5([H])[H])C([H])([H])C([H])([H])C4([H])[H])C([H])([H])C3([H])[H])c([H])c([H])c2C1([H])[H]

>  <smiles>  (37) 
[H]c1c([H])c([H])c2c(c1[H])C([H])([H])C([H])([H])C([H])([H])C2([H])N([H])C(=O)C1([H])N(C(=O)C([H])(N([H])C(=O)C([H])(N([H])C([H])([H])[H])C([H])([H])[H])C(C([H])([H])[H])(C([H])([H])[H])C([H])([H])[H])C([H])([H])c2c([H])c(OC([H])([H])C([H])([H])C3([H])C([H])([H])C([H])([H])C([H])(C([H])([H])C([H])([H])[N+]4([H])C([H])([H])C([H])([H])N(C(=O)N5C([H])([H])C([H])([H])C([H])([H])C([H])(n6nc(-c7c([H])c([H])c(Oc8c([H])c([H])c(F)c([H])c8F)c([H])c7[H])c(C(=O)N([H])[H])c6N([H])[H])C5([H])[H])C([H])([H])C([H])([H])C4([H])[H])C([H])([H])C3([H])[H])c([H])c([H])c2C1([H])[H]

$$$$
37:0:0
     RDKit          3D

 93101  0  0  1  0  0  0  0  0999 V2000
  -29.4930  -20.9720   19.6970 N   0  0  0  0  0  0  0  0  0  0  0  0
  -29.9640  -21.3560   18.8830 H   0  0  0  0  0  0  0  0  0  0  0  0
  -29.9830  -17.7360   21.5770 C   0  0  0  0  0  3  0  0  0  0  0  0
  -29.8300  -19.1190   21.3250 C   0  0  0  0  0  3  0  0  0  0  0  0
  -29.8590  -17.2840   19.1930 C   0  0  0  0  0  3  0  0  0  0  0  0
  -30.0070  -16.8020   20.5180 C   0  0  0  0  0  0  0  0  0  0  0  0
  -29.6650  -19.6020   20.0060 C   0  0  0  0  0  0  0  0  0  0  0  0
  -29.6750  -18.6640   18.9460 C   0  0  0  0  0  0  0  0  0  0  0  0
  -30.7150  -14.4470   20.1280 C   0  0  0  0  0  0  0  0  0  0  0  0
  -30.3620  -12.3220   18.9360 C   0  0  0  0  0  2  0  0  0  0  0  0
  -29.3600  -12.5800   17.7920 C   0  0  0  0  0  2  0  0  0  0  0  0
  -27.9090  -12.4370   18.2910 C   0  0  0  0  0  2  0  0  0  0  0  0
  -27.6430  -13.2330   19.5970 C   0  0  0  0  0  3  0  0  0  0  0  0
  -28.7490  -12.9510   20.6420 C   0  0  0  0  0  2  0  0  0  0  0  0
  -30.0540  -13.2610   20.0260 N   0  0  0  0  0  0  0  0  0  0  0  0
  -31.7870  -14.6720   19.5610 O   0  0  0  0  0  0  0  0  0  0  0  0
  -30.0730  -15.4050   20.8230 N   0  0  0  0  0  0  0  0  0  0  0  0
  -29.3650  -15.0610   21.4530 H   0  0  0  0  0  0  0  0  0  0  0  0
  -25.2780  -13.8430   20.4270 C   0  0  0  0  0  0  0  0  0  0  0  0
  -24.2200  -13.0710   20.8260 C   0  0  0  0  0  0  0  0  0  0  0  0
  -24.6710  -11.7170   20.7500 C   0  0  0  0  0  0  0  0  0  0  0  0
  -26.3070  -12.9600   20.1290 N   0  0  0  0  0  0  0  0  0  0  0  0
  -25.9460  -11.6760   20.3820 N   0  0  0  0  0  0  0  0  0  0  0  0
  -23.9460  -10.4540   20.9490 C   0  0  0  0  0  0  0  0  0  0  0  0
  -24.3860   -9.4880   21.8800 C   0  0  0  0  0  3  0  0  0  0  0  0
  -23.6610   -8.2910   22.0680 C   0  0  0  0  0  3  0  0  0  0  0  0
  -22.4820   -8.0510   21.3220 C   0  0  0  0  0  0  0  0  0  0  0  0
  -22.0610   -9.0060   20.3790 C   0  0  0  0  0  3  0  0  0  0  0  0
  -22.7870  -10.1930   20.1890 C   0  0  0  0  0  3  0  0  0  0  0  0
  -21.7310   -6.9030   21.4170 O   0  0  0  0  0  0  0  0  0  0  0  0
  -21.6520   -6.1880   22.5850 C   0  0  0  0  0  0  0  0  0  0  0  0
  -21.1700   -6.7650   23.7800 C   0  0  0  0  0  3  0  0  0  0  0  0
  -21.0390   -5.9760   24.9400 C   0  0  0  0  0  3  0  0  0  0  0  0
  -21.3820   -4.6110   24.9070 C   0  0  0  0  0  0  0  0  0  0  0  0
  -21.8610   -4.0340   23.7180 C   0  0  0  0  0  3  0  0  0  0  0  0
  -21.9930   -4.8200   22.5590 C   0  0  0  0  0  0  0  0  0  0  0  0
  -22.4320   -4.2540   21.4090 F   0  0  0  0  0  0  0  0  0  0  0  0
  -21.2500   -3.8520   26.0180 F   0  0  0  0  0  0  0  0  0  0  0  0
  -22.8390  -13.5500   21.1750 C   0  0  0  0  0  0  0  0  0  0  0  0
  -22.1460  -12.8380   22.0540 N   0  0  0  0  0  0  0  0  0  0  0  0
  -22.3830  -14.5890   20.6980 O   0  0  0  0  0  0  0  0  0  0  0  0
  -22.5310  -11.9970   22.4570 H   0  0  0  0  0  0  0  0  0  0  0  0
  -21.2250  -13.1410   22.3340 H   0  0  0  0  0  0  0  0  0  0  0  0
  -25.4460  -15.2160   20.2740 N   0  0  0  0  0  0  0  0  0  0  0  0
  -24.7040  -15.8810   20.4550 H   0  0  0  0  0  0  0  0  0  0  0  0
  -26.2880  -15.6450   19.9080 H   0  0  0  0  0  0  0  0  0  0  0  0
  -29.4500  -19.1110   17.6770 O   0  0  0  0  0  0  0  0  0  0  0  0
  -29.0720  -19.9850   17.7370 H   0  0  0  0  0  0  0  0  0  0  0  0
  -28.9420  -21.9230   20.6680 C   0  0  0  0  0  2  0  0  0  0  0  0
  -27.8950  -22.8660   20.0380 C   0  0  0  0  0  2  0  0  0  0  0  0
  -28.3800  -24.2710   19.5890 C   0  0  0  0  0  2  0  0  0  0  0  0
  -28.3500  -25.3420   20.7120 C   0  0  0  0  0  2  0  0  0  0  0  0
  -28.4640  -26.6970   20.2400 O   0  0  0  0  0  0  0  0  0  0  0  0
  -24.5850  -31.8870   23.1940 C   0  0  0  0  0  0  0  0  0  0  0  0
  -27.2930  -27.4250   20.2100 C   0  0  0  0  0  0  0  0  0  0  0  0
  -23.4080  -30.4600   21.5500 C   0  0  0  0  0  3  0  0  0  0  0  0
  -24.8890  -28.9160   20.1630 C   0  0  0  0  0  0  0  0  0  0  0  0
  -25.9320  -30.8380   21.3790 C   0  0  0  0  0  2  0  0  0  0  0  0
  -26.0360  -29.4580   20.7570 C   0  0  0  0  0  0  0  0  0  0  0  0
  -27.2430  -28.7200   20.7740 C   0  0  0  0  0  3  0  0  0  0  0  0
  -26.1250  -26.8970   19.6140 C   0  0  0  0  0  3  0  0  0  0  0  0
  -24.9290  -27.6380   19.5800 C   0  0  0  0  0  3  0  0  0  0  0  0
  -23.6390  -29.7640   20.1820 C   0  0  0  0  0  2  0  0  0  0  0  0
  -24.6580  -31.0790   22.0990 N   0  0  0  0  0  0  0  0  0  0  0  0
  -23.4960  -32.1590   23.7180 O   0  0  0  0  0  0  0  0  0  0  0  0
  -22.7450  -29.4500   22.5130 C   0  0  0  0  0  0  0  0  0  0  0  0
  -21.4220  -29.2650   22.3710 N   0  0  0  0  0  0  0  0  0  0  0  0
  -23.4200  -28.8340   23.3430 O   0  0  0  0  0  0  0  0  0  0  0  0
  -20.9340  -29.8230   21.6840 H   0  0  0  0  0  0  0  0  0  0  0  0
  -18.0520  -28.0610   22.8460 C   0  0  0  0  0  0  0  0  0  0  0  0
  -20.6010  -28.3320   23.1440 C   0  0  0  0  0  3  0  0  0  0  0  0
  -20.7130  -26.8940   22.5860 C   0  0  0  0  0  2  0  0  0  0  0  0
  -19.6280  -26.5610   21.5570 C   0  0  0  0  0  2  0  0  0  0  0  0
  -18.2380  -26.7060   22.1830 C   0  0  0  0  0  2  0  0  0  0  0  0
  -19.1620  -28.8320   23.2820 C   0  0  0  0  0  0  0  0  0  0  0  0
  -18.9320  -30.0980   23.8640 C   0  0  0  0  0  3  0  0  0  0  0  0
  -17.6240  -30.5970   24.0130 C   0  0  0  0  0  3  0  0  0  0  0  0
  -16.5290  -29.8220   23.5910 C   0  0  0  0  0  3  0  0  0  0  0  0
  -16.7440  -28.5560   23.0150 C   0  0  0  0  0  3  0  0  0  0  0  0
  -25.8600  -32.5330   23.8210 C   0  0  0  0  0  3  0  0  0  0  0  0
  -25.5340  -33.9260   24.1490 N   0  0  0  0  0  0  0  0  0  0  0  0
  -25.8560  -34.9810   23.3890 C   0  0  0  0  0  0  0  0  0  0  0  0
  -26.5350  -34.8860   22.3620 O   0  0  0  0  0  0  0  0  0  0  0  0
  -24.9450  -34.0730   24.9550 H   0  0  0  0  0  0  0  0  0  0  0  0
  -24.1180  -36.7570   23.0100 C   0  0  0  0  0  1  0  0  0  0  0  0
  -25.3470  -36.3630   23.8420 C   0  0  0  0  0  3  0  0  0  0  0  0
  -27.4560  -37.2700   24.7150 C   0  0  0  0  0  1  0  0  0  0  0  0
  -26.3710  -37.4260   23.7500 N   0  0  0  0  0  0  0  0  0  0  0  0
  -25.9530  -38.3410   23.8910 H   0  0  0  0  0  0  0  0  0  0  0  0
  -26.3790  -31.7660   25.0990 C   0  0  1  0  0  0  0  0  0  0  0  0
  -25.2820  -31.5140   26.1590 C   0  0  0  0  0  1  0  0  0  0  0  0
  -26.9820  -30.3980   24.7030 C   0  0  0  0  0  1  0  0  0  0  0  0
  -27.5160  -32.5710   25.7710 C   0  0  0  0  0  1  0  0  0  0  0  0
  1  7  1  0
  1 49  1  0
  2  1  1  0
  4  3  1  0
  5  6  1  0
  6 17  1  0
  6  3  2  0
  7  4  2  0
  8  5  2  0
  8  7  1  0
  9 17  1  0
 10 15  1  0
 11 12  1  0
 11 10  1  0
 13 12  1  0
 13 22  1  0
 13 14  1  0
 15  9  1  0
 15 14  1  0
 16  9  2  0
 17 18  1  0
 19 20  2  0
 20 39  1  0
 21 20  1  0
 21 24  1  0
 22 23  1  0
 22 19  1  0
 23 21  2  0
 24 25  1  0
 25 26  2  0
 27 30  1  0
 27 26  1  0
 28 27  2  0
 29 28  1  0
 29 24  2  0
 30 31  1  0
 31 32  1  0
 32 33  2  0
 34 33  1  0
 34 38  1  0
 35 34  2  0
 36 31  2  0
 36 35  1  0
 37 36  1  0
 39 40  1  0
 40 43  1  0
 40 42  1  0
 41 39  2  0
 44 19  1  0
 44 45  1  0
 46 44  1  0
 47 48  1  0
 47  8  1  0
 50 49  1  0
 51 50  1  0
 51 52  1  0
 53 52  1  0
 54 65  2  0
 55 53  1  0
 55 60  1  0
 56 64  1  0
 56 66  1  0
 57 63  1  0
 57 59  1  0
 58 64  1  0
 59 60  2  0
 59 58  1  0
 61 55  2  0
 62 61  1  0
 62 57  2  0
 63 56  1  0
 64 54  1  0
 66 68  2  0
 67 66  1  0
 69 67  1  0
 70 79  2  0
 70 75  1  0
 71 67  1  0
 71 75  1  0
 72 71  1  0
 73 74  1  0
 73 72  1  0
 74 70  1  0
 75 76  2  0
 76 77  1  0
 78 77  2  0
 79 78  1  0
 80 54  1  0
 80 81  1  0
 80 90  1  0
 81 84  1  0
 82 86  1  0
 82 81  1  0
 83 82  2  0
 86 85  1  0
 88 86  1  0
 88 89  1  0
 88 87  1  0
 90 93  1  1
 90 91  1  0
 92 90  1  0
M  ISO  4   9 100  17 100  52 101  53 101
M  END
>  <TORSDO>  (38) 
F 22

>  <SCORE>  (38) 
-13.070

>  <name>  (38) 
37

>  <ligand_id>  (38) 
37

>  <original_smiles>  (38) 
[H]Oc1c([H])c(N([H])C(=O)N2C([H])([H])C([H])([H])C([H])([H])C([H])(n3nc(-c4c([H])c([H])c(Oc5c([H])c([H])c(F)c([H])c5F)c([H])c4[H])c(C(=O)N([H])[H])c3N([H])[H])C2([H])[H])c([H])c([H])c1N([H])C([H])([H])C([H])([H])C([H])([H])C([H])([H])Oc1c([H])c([H])c2c(c1[H])C([H])([H])N(C(=O)C([H])(N([H])C(=O)C([H])(N([H])C([H])([H])[H])C([H])([H])[H])C(C([H])([H])[H])(C([H])([H])[H])C([H])([H])[H])C([H])(C(=O)N([H])C1([H])c3c([H])c([H])c([H])c([H])c3C([H])([H])C([H])([H])C1([H])[H])C2([H])[H]

>  <smiles>  (38) 
[H]Oc1c([H])c(N([H])C(=O)N2C([H])([H])C([H])([H])C([H])([H])C([H])(n3nc(-c4c([H])c([H])c(Oc5c([H])c([H])c(F)c([H])c5F)c([H])c4[H])c(C(=O)N([H])[H])c3N([H])[H])C2([H])[H])c([H])c([H])c1N([H])C([H])([H])C([H])([H])C([H])([H])C([H])([H])Oc1c([H])c([H])c2c(c1[H])C([H])([H])N(C(=O)C([H])(N([H])C(=O)C([H])(N([H])C([H])([H])[H])C([H])([H])[H])C(C([H])([H])[H])(C([H])([H])[H])C([H])([H])[H])C([H])(C(=O)N([H])C1([H])c3c([H])c([H])c([H])c([H])c3C([H])([H])C([H])([H])C1([H])[H])C2([H])[H]

$$$$
38:0:0
     RDKit          3D

 92100  0  0  1  0  0  0  0  0999 V2000
  -28.6640  -22.2380   21.7520 C   0  0  0  0  0  2  0  0  0  0  0  0
  -30.7710  -22.7990   20.4780 C   0  0  0  0  0  2  0  0  0  0  0  0
  -28.1570  -23.6910   21.5380 C   0  0  0  0  0  2  0  0  0  0  0  0
  -30.2520  -24.2450   20.2630 C   0  0  0  0  0  2  0  0  0  0  0  0
  -29.6320  -21.7530   20.6430 C   0  0  0  0  0  3  0  0  0  0  0  0
  -29.3260  -24.6940   21.4140 C   0  0  0  0  0  3  0  0  0  0  0  0
  -30.1550  -20.3160   20.9130 C   0  0  0  0  0  0  0  0  0  0  0  0
  -31.1250  -20.1000   21.6980 N   0  0  0  0  0  0  0  0  0  0  0  0
  -31.4830  -20.9670   22.0830 H   0  0  0  0  0  0  0  0  0  0  0  0
  -29.4090  -19.1620   20.2230 C   0  0  0  0  0  2  0  0  0  0  0  0
  -30.1400  -17.7860   20.0800 C   0  0  0  0  0  2  0  0  0  0  0  0
  -30.2510  -16.9020   21.3570 C   0  0  0  0  0  2  0  0  0  0  0  0
  -30.6580  -14.5120   20.5360 C   0  0  0  0  0  0  0  0  0  0  0  0
  -30.3920  -12.3720   19.3240 C   0  0  0  0  0  2  0  0  0  0  0  0
  -29.4510  -12.5810   18.1190 C   0  0  0  0  0  2  0  0  0  0  0  0
  -27.9720  -12.4480   18.5340 C   0  0  0  0  0  2  0  0  0  0  0  0
  -27.6290  -13.2690   19.8060 C   0  0  0  0  0  3  0  0  0  0  0  0
  -28.6710  -13.0060   20.9160 C   0  0  0  0  0  2  0  0  0  0  0  0
  -30.0010  -13.3300   20.3710 N   0  0  0  0  0  0  0  0  0  0  0  0
  -31.7770  -14.7340   20.0650 O   0  0  0  0  0  0  0  0  0  0  0  0
  -29.9350  -15.4760   21.1410 N   0  0  0  0  0  0  0  0  0  0  0  0
  -29.0350  -15.1700   21.4830 H   0  0  0  0  0  0  0  0  0  0  0  0
  -25.2190  -13.8900   20.4690 C   0  0  0  0  0  0  0  0  0  0  0  0
  -24.1440  -13.1240   20.8290 C   0  0  0  0  0  0  0  0  0  0  0  0
  -24.6030  -11.7720   20.8210 C   0  0  0  0  0  0  0  0  0  0  0  0
  -26.2660  -13.0040   20.2640 N   0  0  0  0  0  0  0  0  0  0  0  0
  -25.8970  -11.7250   20.5330 N   0  0  0  0  0  0  0  0  0  0  0  0
  -23.8710  -10.5130   21.0160 C   0  0  0  0  0  0  0  0  0  0  0  0
  -24.2930   -9.5520   21.9610 C   0  0  0  0  0  3  0  0  0  0  0  0
  -23.5630   -8.3580   22.1420 C   0  0  0  0  0  3  0  0  0  0  0  0
  -22.3970   -8.1150   21.3780 C   0  0  0  0  0  0  0  0  0  0  0  0
  -21.9970   -9.0640   20.4220 C   0  0  0  0  0  3  0  0  0  0  0  0
  -22.7260  -10.2490   20.2380 C   0  0  0  0  0  3  0  0  0  0  0  0
  -21.6410   -6.9720   21.4670 O   0  0  0  0  0  0  0  0  0  0  0  0
  -21.5850   -6.2340   22.6220 C   0  0  0  0  0  0  0  0  0  0  0  0
  -21.1580   -6.7950   23.8450 C   0  0  0  0  0  3  0  0  0  0  0  0
  -21.0500   -5.9850   24.9920 C   0  0  0  0  0  3  0  0  0  0  0  0
  -21.3580   -4.6130   24.9180 C   0  0  0  0  0  0  0  0  0  0  0  0
  -21.7770   -4.0500   23.6990 C   0  0  0  0  0  3  0  0  0  0  0  0
  -21.8870   -4.8590   22.5530 C   0  0  0  0  0  0  0  0  0  0  0  0
  -22.2710   -4.3070   21.3770 F   0  0  0  0  0  0  0  0  0  0  0  0
  -21.2470   -3.8320   26.0170 F   0  0  0  0  0  0  0  0  0  0  0  0
  -22.7440  -13.6060   21.0760 C   0  0  0  0  0  0  0  0  0  0  0  0
  -22.0010  -12.9200   21.9380 N   0  0  0  0  0  0  0  0  0  0  0  0
  -22.3140  -14.6270   20.5380 O   0  0  0  0  0  0  0  0  0  0  0  0
  -22.3600  -12.0950   22.3950 H   0  0  0  0  0  0  0  0  0  0  0  0
  -21.0610  -13.2250   22.1460 H   0  0  0  0  0  0  0  0  0  0  0  0
  -25.3890  -15.2590   20.2780 N   0  0  0  0  0  0  0  0  0  0  0  0
  -24.6210  -15.9150   20.3660 H   0  0  0  0  0  0  0  0  0  0  0  0
  -26.2460  -15.6930   19.9570 H   0  0  0  0  0  0  0  0  0  0  0  0
  -28.9070  -26.2010   21.3830 C   0  0  0  0  0  2  0  0  0  0  0  0
  -28.3980  -26.6550   20.1250 O   0  0  0  0  0  0  0  0  0  0  0  0
  -24.6030  -31.8920   23.2360 C   0  0  0  0  0  0  0  0  0  0  0  0
  -27.2680  -27.4440   20.1730 C   0  0  0  0  0  0  0  0  0  0  0  0
  -23.4080  -30.4840   21.5890 C   0  0  0  0  0  3  0  0  0  0  0  0
  -24.8730  -28.9510   20.1710 C   0  0  0  0  0  0  0  0  0  0  0  0
  -25.9340  -30.8480   21.4040 C   0  0  0  0  0  2  0  0  0  0  0  0
  -26.0280  -29.4720   20.7740 C   0  0  0  0  0  0  0  0  0  0  0  0
  -27.2290  -28.7210   20.7840 C   0  0  0  0  0  3  0  0  0  0  0  0
  -26.1050  -26.9450   19.5560 C   0  0  0  0  0  3  0  0  0  0  0  0
  -24.9060  -27.6840   19.5610 C   0  0  0  0  0  3  0  0  0  0  0  0
  -23.6260  -29.8060   20.2120 C   0  0  0  0  0  2  0  0  0  0  0  0
  -24.6650  -31.0910   22.1350 N   0  0  0  0  0  0  0  0  0  0  0  0
  -23.5200  -32.1640   23.7720 O   0  0  0  0  0  0  0  0  0  0  0  0
  -22.7560  -29.4630   22.5500 C   0  0  0  0  0  0  0  0  0  0  0  0
  -21.4320  -29.2800   22.4210 N   0  0  0  0  0  0  0  0  0  0  0  0
  -23.4380  -28.8390   23.3670 O   0  0  0  0  0  0  0  0  0  0  0  0
  -20.9430  -29.8350   21.7340 H   0  0  0  0  0  0  0  0  0  0  0  0
  -18.0560  -28.0890   22.9210 C   0  0  0  0  0  0  0  0  0  0  0  0
  -20.6150  -28.3420   23.1890 C   0  0  0  0  0  3  0  0  0  0  0  0
  -20.7150  -26.9120   22.6080 C   0  0  0  0  0  2  0  0  0  0  0  0
  -19.6100  -26.5950   21.5940 C   0  0  0  0  0  2  0  0  0  0  0  0
  -18.2290  -26.7410   22.2400 C   0  0  0  0  0  2  0  0  0  0  0  0
  -19.1770  -28.8460   23.3520 C   0  0  0  0  0  0  0  0  0  0  0  0
  -18.9630  -30.1080   23.9480 C   0  0  0  0  0  3  0  0  0  0  0  0
  -17.6600  -30.6140   24.1160 C   0  0  0  0  0  3  0  0  0  0  0  0
  -16.5530  -29.8520   23.7030 C   0  0  0  0  0  3  0  0  0  0  0  0
  -16.7520  -28.5920   23.1140 C   0  0  0  0  0  3  0  0  0  0  0  0
  -25.8870  -32.5280   23.8580 C   0  0  0  0  0  3  0  0  0  0  0  0
  -25.5770  -33.9270   24.1840 N   0  0  0  0  0  0  0  0  0  0  0  0
  -25.9110  -34.9760   23.4220 C   0  0  0  0  0  0  0  0  0  0  0  0
  -26.5860  -34.8710   22.3940 O   0  0  0  0  0  0  0  0  0  0  0  0
  -24.9810  -34.0850   24.9840 H   0  0  0  0  0  0  0  0  0  0  0  0
  -24.1840  -36.7640   23.0490 C   0  0  0  0  0  1  0  0  0  0  0  0
  -25.4190  -36.3660   23.8720 C   0  0  0  0  0  3  0  0  0  0  0  0
  -27.5480  -37.2520   24.7140 C   0  0  0  0  0  1  0  0  0  0  0  0
  -26.4530  -37.4180   23.7630 N   0  0  0  0  0  0  0  0  0  0  0  0
  -26.0450  -38.3390   23.9080 H   0  0  0  0  0  0  0  0  0  0  0  0
  -26.4060  -31.7590   25.1350 C   0  0  1  0  0  0  0  0  0  0  0  0
  -25.3110  -31.5190   26.2000 C   0  0  0  0  0  1  0  0  0  0  0  0
  -26.9950  -30.3840   24.7430 C   0  0  0  0  0  1  0  0  0  0  0  0
  -27.5540  -32.5570   25.7980 C   0  0  0  0  0  1  0  0  0  0  0  0
  2  5  1  0
  3  1  1  0
  4  2  1  0
  4  6  1  0
  5  7  1  0
  5  1  1  0
  6 51  1  0
  6  3  1  0
  7  8  2  0
  8  9  1  0
 10  7  1  0
 11 10  1  0
 11 12  1  0
 13 21  1  0
 14 19  1  0
 15 16  1  0
 15 14  1  0
 17 16  1  0
 17 26  1  0
 17 18  1  0
 19 13  1  0
 19 18  1  0
 20 13  2  0
 21 12  1  0
 21 22  1  0
 23 24  2  0
 24 43  1  0
 25 24  1  0
 25 28  1  0
 26 23  1  0
 26 27  1  0
 27 25  2  0
 28 29  1  0
 29 30  2  0
 31 34  1  0
 31 30  1  0
 32 31  2  0
 33 32  1  0
 33 28  2  0
 34 35  1  0
 35 36  1  0
 36 37  2  0
 38 37  1  0
 38 42  1  0
 39 38  2  0
 40 35  2  0
 40 39  1  0
 41 40  1  0
 43 44  1  0
 44 47  1  0
 44 46  1  0
 45 43  2  0
 48 49  1  0
 48 23  1  0
 50 48  1  0
 52 54  1  0
 52 51  1  0
 53 64  2  0
 54 59  1  0
 55 63  1  0
 55 65  1  0
 56 62  1  0
 56 58  1  0
 57 63  1  0
 58 59  2  0
 58 57  1  0
 60 61  1  0
 60 54  2  0
 61 56  2  0
 62 55  1  0
 63 53  1  0
 65 67  2  0
 66 65  1  0
 68 66  1  0
 69 78  2  0
 69 74  1  0
 70 66  1  0
 70 74  1  0
 71 70  1  0
 72 73  1  0
 72 71  1  0
 73 69  1  0
 74 75  2  0
 75 76  1  0
 77 76  2  0
 78 77  1  0
 79 53  1  0
 79 80  1  0
 79 89  1  0
 80 83  1  0
 81 85  1  0
 81 80  1  0
 82 81  2  0
 85 84  1  0
 87 85  1  0
 87 88  1  0
 87 86  1  0
 89 92  1  1
 89 90  1  0
 91 89  1  0
M  ISO  4  13 100  21 100  51 101  52 101
M  END
>  <TORSDO>  (39) 
F 21

>  <SCORE>  (39) 
-13.781

>  <name>  (39) 
38

>  <ligand_id>  (39) 
38

>  <original_smiles>  (39) 
[H]N=C(C([H])([H])C([H])([H])C([H])([H])N([H])C(=O)N1C([H])([H])C([H])([H])C([H])([H])C([H])(n2nc(-c3c([H])c([H])c(Oc4c([H])c([H])c(F)c([H])c4F)c([H])c3[H])c(C(=O)N([H])[H])c2N([H])[H])C1([H])[H])C1([H])C([H])([H])C([H])([H])C([H])(C([H])([H])Oc2c([H])c([H])c3c(c2[H])C([H])([H])N(C(=O)C([H])(N([H])C(=O)C([H])(N([H])C([H])([H])[H])C([H])([H])[H])C(C([H])([H])[H])(C([H])([H])[H])C([H])([H])[H])C([H])(C(=O)N([H])C2([H])c4c([H])c([H])c([H])c([H])c4C([H])([H])C([H])([H])C2([H])[H])C3([H])[H])C([H])([H])C1([H])[H]

>  <smiles>  (39) 
[H]N=C(C([H])([H])C([H])([H])C([H])([H])N([H])C(=O)N1C([H])([H])C([H])([H])C([H])([H])C([H])(n2nc(-c3c([H])c([H])c(Oc4c([H])c([H])c(F)c([H])c4F)c([H])c3[H])c(C(=O)N([H])[H])c2N([H])[H])C1([H])[H])C1([H])C([H])([H])C([H])([H])C([H])(C([H])([H])Oc2c([H])c([H])c3c(c2[H])C([H])([H])N(C(=O)C([H])(N([H])C(=O)C([H])(N([H])C([H])([H])[H])C([H])([H])[H])C(C([H])([H])[H])(C([H])([H])[H])C([H])([H])[H])C([H])(C(=O)N([H])C2([H])c4c([H])c([H])c([H])c([H])c4C([H])([H])C([H])([H])C2([H])[H])C3([H])[H])C([H])([H])C1([H])[H]

$$$$
39:0:0
     RDKit          3D

 85 92  0  0  1  0  0  0  0  0999 V2000
  -29.2660  -19.2170   20.1530 C   0  0  0  0  0  0  0  0  0  0  0  0
  -27.9590  -22.1490   20.8030 C   0  0  0  0  0  0  0  0  0  0  0  0
  -28.0300  -20.3820   20.6000 C   0  0  0  0  0  2  0  0  0  0  0  0
  -29.9630  -20.5640   19.3520 C   0  0  0  0  0  2  0  0  0  0  0  0
  -29.6840  -22.3620   19.4790 C   0  0  0  0  0  2  0  0  0  0  0  0
  -28.3220  -23.4440   19.7440 C   0  0  0  0  0  2  0  0  0  0  0  0
  -29.3890  -17.6590   20.3640 N   0  0  0  0  0  0  0  0  0  0  0  0
  -27.5540  -22.5100   21.9140 O   0  0  0  0  0  0  0  0  0  0  0  0
  -30.2490  -16.1690   20.1910 C   0  0  0  0  0  0  0  0  0  0  0  0
  -30.5070  -13.5010   19.5360 C   0  0  0  0  0  2  0  0  0  0  0  0
  -29.6920  -12.9130   18.3340 C   0  0  0  0  0  2  0  0  0  0  0  0
  -28.2860  -12.4840   18.7680 C   0  0  0  0  0  2  0  0  0  0  0  0
  -27.6880  -13.5260   19.7320 C   0  0  0  0  0  3  0  0  0  0  0  0
  -28.6550  -14.0180   20.8420 C   0  0  0  0  0  2  0  0  0  0  0  0
  -29.8080  -14.7240   20.2060 N   0  0  0  0  0  0  0  0  0  0  0  0
  -31.4740  -16.0590   19.9680 O   0  0  0  0  0  0  0  0  0  0  0  0
  -25.3190  -14.0180   20.4700 C   0  0  0  0  0  0  0  0  0  0  0  0
  -24.2610  -13.2310   20.8220 C   0  0  0  0  0  0  0  0  0  0  0  0
  -24.7420  -11.8850   20.8010 C   0  0  0  0  0  0  0  0  0  0  0  0
  -26.3730  -13.1580   20.2410 N   0  0  0  0  0  0  0  0  0  0  0  0
  -26.0420  -11.8640   20.5060 N   0  0  0  0  0  0  0  0  0  0  0  0
  -24.0170  -10.6180   20.9860 C   0  0  0  0  0  0  0  0  0  0  0  0
  -24.4110   -9.6700   21.9550 C   0  0  0  0  0  3  0  0  0  0  0  0
  -23.6790   -8.4750   22.1300 C   0  0  0  0  0  3  0  0  0  0  0  0
  -22.5380   -8.2180   21.3330 C   0  0  0  0  0  0  0  0  0  0  0  0
  -22.1610   -9.1540   20.3550 C   0  0  0  0  0  3  0  0  0  0  0  0
  -22.8940  -10.3410   20.1790 C   0  0  0  0  0  3  0  0  0  0  0  0
  -21.7820   -7.0730   21.4140 O   0  0  0  0  0  0  0  0  0  0  0  0
  -21.6630   -6.3690   22.5860 C   0  0  0  0  0  0  0  0  0  0  0  0
  -21.1110   -6.9470   23.7490 C   0  0  0  0  0  3  0  0  0  0  0  0
  -20.9420   -6.1680   24.9110 C   0  0  0  0  0  3  0  0  0  0  0  0
  -21.3160   -4.8100   24.9100 C   0  0  0  0  0  0  0  0  0  0  0  0
  -21.8610   -4.2310   23.7500 C   0  0  0  0  0  3  0  0  0  0  0  0
  -22.0310   -5.0070   22.5910 C   0  0  0  0  0  0  0  0  0  0  0  0
  -22.5350   -4.4390   21.4700 F   0  0  0  0  0  0  0  0  0  0  0  0
  -21.1490   -4.0590   26.0230 F   0  0  0  0  0  0  0  0  0  0  0  0
  -22.8570  -13.6990   21.0610 C   0  0  0  0  0  0  0  0  0  0  0  0
  -22.1210  -13.0170   21.9300 N   0  0  0  0  0  0  0  0  0  0  0  0
  -22.4210  -14.7130   20.5140 O   0  0  0  0  0  0  0  0  0  0  0  0
  -22.4890  -12.1990   22.3950 H   0  0  0  0  0  0  0  0  0  0  0  0
  -21.1790  -13.3150   22.1350 H   0  0  0  0  0  0  0  0  0  0  0  0
  -25.4720  -15.3900   20.2930 N   0  0  0  0  0  0  0  0  0  0  0  0
  -24.7050  -16.0450   20.4060 H   0  0  0  0  0  0  0  0  0  0  0  0
  -26.3400  -15.8360   20.0210 H   0  0  0  0  0  0  0  0  0  0  0  0
  -28.2230  -25.3200   19.9970 O   0  0  0  0  0  1  0  0  0  0  0  0
  -24.6640  -31.7900   23.0400 C   0  0  0  0  0  0  0  0  0  0  0  0
  -27.2450  -26.6160   19.9440 C   0  0  0  0  0  0  0  0  0  0  0  0
  -23.4910  -30.3910   21.3960 C   0  0  0  0  0  3  0  0  0  0  0  0
  -24.9540  -28.7520   19.9460 C   0  0  0  0  0  0  0  0  0  0  0  0
  -26.0750  -30.5200   21.2690 C   0  0  0  0  0  2  0  0  0  0  0  0
  -26.1550  -29.0760   20.5860 C   0  0  0  0  0  0  0  0  0  0  0  0
  -27.2670  -28.0430   20.5500 C   0  0  0  0  0  3  0  0  0  0  0  0
  -26.0020  -26.5670   19.2410 C   0  0  0  0  0  3  0  0  0  0  0  0
  -24.9300  -27.5280   19.2470 C   0  0  0  0  0  3  0  0  0  0  0  0
  -23.7370  -29.7040   20.0170 C   0  0  0  0  0  2  0  0  0  0  0  0
  -24.7690  -30.9390   21.9530 N   0  0  0  0  0  0  0  0  0  0  0  0
  -23.5670  -32.0680   23.5580 O   0  0  0  0  0  0  0  0  0  0  0  0
  -22.7860  -29.4030   22.3680 C   0  0  0  0  0  0  0  0  0  0  0  0
  -21.4520  -29.2340   22.2580 N   0  0  0  0  0  0  0  0  0  0  0  0
  -23.4550  -28.7830   23.1970 O   0  0  0  0  0  0  0  0  0  0  0  0
  -20.9560  -29.7850   21.5710 H   0  0  0  0  0  0  0  0  0  0  0  0
  -18.0880  -27.9650   22.8260 C   0  0  0  0  0  0  0  0  0  0  0  0
  -20.6520  -28.2710   23.0280 C   0  0  0  0  0  3  0  0  0  0  0  0
  -20.7570  -26.8520   22.4190 C   0  0  0  0  0  2  0  0  0  0  0  0
  -19.6360  -26.5390   21.4230 C   0  0  0  0  0  2  0  0  0  0  0  0
  -18.2690  -26.6420   22.1040 C   0  0  0  0  0  2  0  0  0  0  0  0
  -19.2060  -28.7390   23.2450 C   0  0  0  0  0  0  0  0  0  0  0  0
  -18.9770  -29.9740   23.8890 C   0  0  0  0  0  3  0  0  0  0  0  0
  -17.6670  -30.4390   24.1130 C   0  0  0  0  0  3  0  0  0  0  0  0
  -16.5660  -29.6660   23.7050 C   0  0  0  0  0  3  0  0  0  0  0  0
  -16.7780  -28.4300   23.0680 C   0  0  0  0  0  3  0  0  0  0  0  0
  -25.9120  -32.4660   23.6840 C   0  0  0  0  0  3  0  0  0  0  0  0
  -25.5500  -33.8470   24.0710 N   0  0  0  0  0  0  0  0  0  0  0  0
  -25.8350  -34.9530   23.3690 C   0  0  0  0  0  0  0  0  0  0  0  0
  -26.4820  -34.9180   22.3190 O   0  0  0  0  0  0  0  0  0  0  0  0
  -24.9680  -33.9440   24.8900 H   0  0  0  0  0  0  0  0  0  0  0  0
  -24.0560  -36.7280   23.1590 C   0  0  0  0  0  1  0  0  0  0  0  0
  -25.3300  -36.3090   23.9100 C   0  0  0  0  0  3  0  0  0  0  0  0
  -27.4560  -37.2260   24.7330 C   0  0  0  0  0  1  0  0  0  0  0  0
  -26.3320  -37.3950   23.8180 N   0  0  0  0  0  0  0  0  0  0  0  0
  -25.9030  -38.2980   24.0070 H   0  0  0  0  0  0  0  0  0  0  0  0
  -26.4480  -31.6890   24.9520 C   0  0  1  0  0  0  0  0  0  0  0  0
  -25.3630  -31.4110   26.0200 C   0  0  0  0  0  1  0  0  0  0  0  0
  -27.0640  -30.3320   24.5550 C   0  0  0  0  0  1  0  0  0  0  0  0
  -27.5810  -32.5020   25.6240 C   0  0  0  0  0  1  0  0  0  0  0  0
  1  7  2  0
  1  3  1  0
  2  8  2  0
  3  2  1  0
  4  5  1  0
  4  1  1  0
  5  6  1  0
  6  2  1  0
  9 15  1  0
  9  7  1  0
 10 15  1  0
 11 12  1  0
 11 10  1  0
 13 12  1  0
 13 20  1  0
 13 14  1  0
 15 14  1  0
 16  9  2  0
 17 18  2  0
 18 37  1  0
 19 18  1  0
 19 22  1  0
 20 17  1  0
 20 21  1  0
 21 19  2  0
 22 23  1  0
 23 24  2  0
 25 28  1  0
 25 24  1  0
 26 25  2  0
 27 26  1  0
 27 22  2  0
 28 29  1  0
 29 34  2  0
 29 30  1  0
 30 31  2  0
 32 31  1  0
 32 36  1  0
 33 32  2  0
 34 33  1  0
 35 34  1  0
 37 38  1  0
 38 41  1  0
 38 40  1  0
 39 37  2  0
 42 43  1  0
 42 17  1  0
 44 42  1  0
 46 57  2  0
 47 45  1  0
 47 52  1  0
 48 56  1  0
 48 58  1  0
 49 55  1  0
 49 51  1  0
 50 56  1  0
 51 50  1  0
 52 51  2  0
 53 54  1  0
 53 47  2  0
 54 49  2  0
 55 48  1  0
 56 46  1  0
 58 60  2  0
 59 58  1  0
 61 59  1  0
 62 71  2  0
 62 67  1  0
 63 59  1  0
 63 67  1  0
 64 63  1  0
 65 66  1  0
 65 64  1  0
 66 62  1  0
 67 68  2  0
 68 69  1  0
 70 69  2  0
 71 70  1  0
 72 46  1  0
 72 73  1  0
 72 82  1  0
 73 76  1  0
 74 78  1  0
 74 73  1  0
 75 74  2  0
 78 77  1  0
 80 78  1  0
 80 81  1  0
 80 79  1  0
 82 85  1  1
 82 83  1  0
 84 82  1  0
M  ISO  4   6 101   7 100   9 100  45 101
M  END
>  <TORSDO>  (40) 
F 16

>  <SCORE>  (40) 
-16.220

>  <name>  (40) 
39

>  <ligand_id>  (40) 
39

>  <original_smiles>  (40) 
[H]c1c([H])c([H])c2c(c1[H])C([H])([H])C([H])([H])C([H])([H])C2([H])N([H])C(=O)C1([H])N(C(=O)C([H])(N([H])C(=O)C([H])(N([H])C([H])([H])[H])C([H])([H])[H])C(C([H])([H])[H])(C([H])([H])[H])C([H])([H])[H])C([H])([H])c2c([H])c(OC3([H])C(=O)C([H])([H])C(=NC(=O)N4C([H])([H])C([H])([H])C([H])([H])C([H])(n5nc(-c6c([H])c([H])c(Oc7c([H])c([H])c(F)c([H])c7F)c([H])c6[H])c(C(=O)N([H])[H])c5N([H])[H])C4([H])[H])C([H])([H])C3([H])[H])c([H])c([H])c2C1([H])[H]

>  <smiles>  (40) 
[H]c1c([H])c([H])c2c(c1[H])C([H])([H])C([H])([H])C([H])([H])C2([H])N([H])C(=O)C1([H])N(C(=O)C([H])(N([H])C(=O)C([H])(N([H])C([H])([H])[H])C([H])([H])[H])C(C([H])([H])[H])(C([H])([H])[H])C([H])([H])[H])C([H])([H])c2c([H])c(OC3([H])C(=O)C([H])([H])C(=NC(=O)N4C([H])([H])C([H])([H])C([H])([H])C([H])(n5nc(-c6c([H])c([H])c(Oc7c([H])c([H])c(F)c([H])c7F)c([H])c6[H])c(C(=O)N([H])[H])c5N([H])[H])C4([H])[H])C([H])([H])C3([H])[H])c([H])c([H])c2C1([H])[H]

$$$$
40:0:0
     RDKit          3D

 95105  0  0  1  0  0  0  0  0999 V2000
  -30.6860  -22.7820   21.7140 C   0  0  0  0  0  2  0  0  0  0  0  0
  -28.3330  -22.4670   22.1860 C   0  0  0  0  0  2  0  0  0  0  0  0
  -30.0090  -24.7160   20.0400 C   0  0  0  0  0  2  0  0  0  0  0  0
  -27.7070  -24.5120   20.6650 C   0  0  0  0  0  2  0  0  0  0  0  0
  -30.0020  -24.1560   21.4820 C   0  0  0  0  0  3  0  0  0  0  0  0
  -28.5270  -23.9660   21.8510 C   0  0  0  0  0  3  0  0  0  0  0  0
  -29.5730  -21.7070   21.6710 C   0  0  0  0  0  3  0  0  0  0  0  0
  -28.6400  -25.3820   19.7850 C   0  0  0  0  0  3  0  0  0  0  0  0
  -29.8600  -20.4680   22.4620 N   0  0  0  0  0  4  0  0  0  0  0  0
  -28.9930  -20.0130   22.6980 H   0  0  0  0  0  0  0  0  0  0  0  0
  -30.2780  -20.7530   23.3350 H   0  0  0  0  0  0  0  0  0  0  0  0
  -30.7660  -19.4580   21.8470 C   0  0  0  0  0  2  0  0  0  0  0  0
  -30.1020  -18.0720   21.5180 C   0  0  0  0  0  2  0  0  0  0  0  0
  -31.0040  -14.7210   20.0140 C   0  0  0  0  0  0  0  0  0  0  0  0
  -30.6360  -12.5150   18.9620 C   0  0  0  0  0  2  0  0  0  0  0  0
  -29.6530  -12.6760   17.7850 C   0  0  0  0  0  2  0  0  0  0  0  0
  -28.1950  -12.5500   18.2800 C   0  0  0  0  0  2  0  0  0  0  0  0
  -27.8940  -13.3890   19.5540 C   0  0  0  0  0  3  0  0  0  0  0  0
  -29.0140  -13.2660   20.6120 C   0  0  0  0  0  2  0  0  0  0  0  0
  -30.2980  -13.5500   19.9550 N   0  0  0  0  0  0  0  0  0  0  0  0
  -32.2040  -14.7580   19.7330 O   0  0  0  0  0  0  0  0  0  0  0  0
  -30.3270  -17.2360   18.1110 C   0  0  0  0  0  2  0  0  0  0  0  0
  -31.0300  -18.0410   19.1750 C   0  0  0  0  0  2  0  0  0  0  0  0
  -29.5050  -16.2480   18.9160 C   0  0  0  0  0  2  0  0  0  0  0  0
  -30.9120  -17.2170   20.4840 C   0  0  0  0  0  3  0  0  0  0  0  0
  -30.2910  -15.8980   20.1100 N   0  0  0  0  0  0  0  0  0  0  0  0
  -25.5590  -14.0310   20.3830 C   0  0  0  0  0  0  0  0  0  0  0  0
  -24.4930  -13.2740   20.7810 C   0  0  0  0  0  0  0  0  0  0  0  0
  -24.9280  -11.9140   20.7080 C   0  0  0  0  0  0  0  0  0  0  0  0
  -26.5730  -13.1270   20.0960 N   0  0  0  0  0  0  0  0  0  0  0  0
  -26.2020  -11.8500   20.3470 N   0  0  0  0  0  0  0  0  0  0  0  0
  -24.1890  -10.6650   20.9060 C   0  0  0  0  0  0  0  0  0  0  0  0
  -24.6190   -9.6920   21.8360 C   0  0  0  0  0  3  0  0  0  0  0  0
  -23.8820   -8.5050   22.0210 C   0  0  0  0  0  3  0  0  0  0  0  0
  -22.7000   -8.2800   21.2780 C   0  0  0  0  0  0  0  0  0  0  0  0
  -22.2880   -9.2400   20.3370 C   0  0  0  0  0  3  0  0  0  0  0  0
  -23.0260  -10.4200   20.1480 C   0  0  0  0  0  3  0  0  0  0  0  0
  -21.9340   -7.1450   21.3770 O   0  0  0  0  0  0  0  0  0  0  0  0
  -21.8540   -6.4330   22.5450 C   0  0  0  0  0  0  0  0  0  0  0  0
  -21.3780   -7.0120   23.7410 C   0  0  0  0  0  3  0  0  0  0  0  0
  -21.2470   -6.2250   24.9020 C   0  0  0  0  0  3  0  0  0  0  0  0
  -21.5800   -4.8580   24.8680 C   0  0  0  0  0  0  0  0  0  0  0  0
  -22.0500   -4.2770   23.6780 C   0  0  0  0  0  3  0  0  0  0  0  0
  -22.1860   -5.0620   22.5190 C   0  0  0  0  0  0  0  0  0  0  0  0
  -22.6190   -4.4940   21.3680 F   0  0  0  0  0  0  0  0  0  0  0  0
  -21.4440   -4.0980   25.9800 F   0  0  0  0  0  0  0  0  0  0  0  0
  -23.1200  -13.7760   21.1190 C   0  0  0  0  0  0  0  0  0  0  0  0
  -22.4180  -13.0850   22.0120 N   0  0  0  0  0  0  0  0  0  0  0  0
  -22.6800  -14.8160   20.6320 O   0  0  0  0  0  0  0  0  0  0  0  0
  -22.7860  -12.2440   22.4290 H   0  0  0  0  0  0  0  0  0  0  0  0
  -21.4960  -13.4010   22.2780 H   0  0  0  0  0  0  0  0  0  0  0  0
  -25.7430  -15.4010   20.2210 N   0  0  0  0  0  0  0  0  0  0  0  0
  -25.0010  -16.0740   20.3750 H   0  0  0  0  0  0  0  0  0  0  0  0
  -26.6010  -15.8250   19.8910 H   0  0  0  0  0  0  0  0  0  0  0  0
  -28.6560  -26.8010   20.0950 O   0  0  0  0  0  0  0  0  0  0  0  0
  -24.6440  -31.8150   23.1550 C   0  0  0  0  0  0  0  0  0  0  0  0
  -27.4770  -27.5310   20.0000 C   0  0  0  0  0  0  0  0  0  0  0  0
  -23.5130  -30.4230   21.4540 C   0  0  0  0  0  3  0  0  0  0  0  0
  -25.0390  -28.9920   19.9910 C   0  0  0  0  0  0  0  0  0  0  0  0
  -26.0300  -30.8700   21.3080 C   0  0  0  0  0  2  0  0  0  0  0  0
  -26.1710  -29.5240   20.6200 C   0  0  0  0  0  0  0  0  0  0  0  0
  -27.3910  -28.8040   20.6160 C   0  0  0  0  0  3  0  0  0  0  0  0
  -26.3270  -27.0350   19.3380 C   0  0  0  0  0  3  0  0  0  0  0  0
  -25.1160  -27.7510   19.3380 C   0  0  0  0  0  3  0  0  0  0  0  0
  -23.7610  -29.7990   20.0550 C   0  0  0  0  0  2  0  0  0  0  0  0
  -24.7460  -31.0510   22.0310 N   0  0  0  0  0  0  0  0  0  0  0  0
  -23.5480  -32.0300   23.6880 O   0  0  0  0  0  0  0  0  0  0  0  0
  -22.8870  -29.3490   22.3740 C   0  0  0  0  0  0  0  0  0  0  0  0
  -21.5690  -29.1320   22.2330 N   0  0  0  0  0  0  0  0  0  0  0  0
  -23.5840  -28.7150   23.1710 O   0  0  0  0  0  0  0  0  0  0  0  0
  -21.0650  -29.6990   21.5650 H   0  0  0  0  0  0  0  0  0  0  0  0
  -18.2260  -27.8360   22.6870 C   0  0  0  0  0  0  0  0  0  0  0  0
  -20.7770  -28.1420   22.9630 C   0  0  0  0  0  3  0  0  0  0  0  0
  -20.9120  -26.7390   22.3250 C   0  0  0  0  0  2  0  0  0  0  0  0
  -19.8150  -26.4350   21.3000 C   0  0  0  0  0  2  0  0  0  0  0  0
  -18.4310  -26.5220   21.9510 C   0  0  0  0  0  2  0  0  0  0  0  0
  -19.3270  -28.6040   23.1470 C   0  0  0  0  0  0  0  0  0  0  0  0
  -19.0830  -29.8370   23.7910 C   0  0  0  0  0  3  0  0  0  0  0  0
  -17.7680  -30.3010   23.9790 C   0  0  0  0  0  3  0  0  0  0  0  0
  -16.6800  -29.5280   23.5360 C   0  0  0  0  0  3  0  0  0  0  0  0
  -16.9080  -28.2960   22.8980 C   0  0  0  0  0  3  0  0  0  0  0  0
  -25.8990  -32.4740   23.8120 C   0  0  0  0  0  3  0  0  0  0  0  0
  -26.4010  -31.7090   25.0970 C   0  0  1  0  0  0  0  0  0  0  0  0
  -25.2880  -31.4350   26.1350 C   0  0  0  0  0  1  0  0  0  0  0  0
  -27.0310  -30.3510   24.7150 C   0  0  0  0  0  1  0  0  0  0  0  0
  -27.5100  -32.5320   25.7940 C   0  0  0  0  0  1  0  0  0  0  0  0
  -25.5500  -33.8650   24.1370 N   0  0  0  0  0  0  0  0  0  0  0  0
  -25.8900  -34.9270   23.3970 C   0  0  0  0  0  0  0  0  0  0  0  0
  -26.6040  -34.8450   22.3940 O   0  0  0  0  0  0  0  0  0  0  0  0
  -24.9260  -34.0040   24.9180 H   0  0  0  0  0  0  0  0  0  0  0  0
  -24.1390  -36.6830   22.9830 C   0  0  0  0  0  1  0  0  0  0  0  0
  -25.3550  -36.3030   23.8420 C   0  0  0  0  0  3  0  0  0  0  0  0
  -27.4340  -37.2250   24.7670 C   0  0  0  0  0  1  0  0  0  0  0  0
  -26.3670  -37.3790   23.7800 N   0  0  0  0  0  0  0  0  0  0  0  0
  -25.9340  -38.2870   23.9260 H   0  0  0  0  0  0  0  0  0  0  0  0
  5  3  1  0
  5  1  1  0
  5  6  1  0
  6  4  1  0
  6  2  1  0
  7  1  1  0
  7  2  1  0
  7  9  1  0
  8  3  1  0
  8 55  1  0
  8  4  1  0
  9 10  1  0
  9 11  1  0
 12  9  1  0
 13 12  1  0
 14 26  1  0
 15 20  1  0
 16 17  1  0
 16 15  1  0
 18 17  1  0
 18 30  1  0
 18 19  1  0
 20 14  1  0
 20 19  1  0
 21 14  2  0
 22 24  1  0
 22 23  1  0
 23 25  1  0
 24 26  1  0
 25 13  1  0
 26 25  1  0
 27 28  2  0
 28 47  1  0
 29 28  1  0
 29 32  1  0
 30 31  1  0
 30 27  1  0
 31 29  2  0
 32 33  1  0
 33 34  2  0
 35 38  1  0
 35 34  1  0
 36 35  2  0
 37 36  1  0
 37 32  2  0
 38 39  1  0
 39 40  1  0
 40 41  2  0
 42 41  1  0
 42 46  1  0
 43 42  2  0
 44 39  2  0
 44 43  1  0
 45 44  1  0
 47 48  1  0
 48 51  1  0
 48 50  1  0
 49 47  2  0
 52 53  1  0
 52 27  1  0
 54 52  1  0
 56 67  2  0
 57 55  1  0
 57 62  1  0
 58 66  1  0
 58 68  1  0
 59 65  1  0
 59 61  1  0
 60 66  1  0
 61 60  1  0
 62 61  2  0
 63 57  2  0
 64 63  1  0
 64 59  2  0
 65 58  1  0
 66 56  1  0
 68 70  2  0
 69 68  1  0
 71 69  1  0
 72 81  2  0
 72 77  1  0
 73 69  1  0
 73 77  1  0
 74 73  1  0
 75 76  1  0
 75 74  1  0
 76 72  1  0
 77 78  2  0
 78 79  1  0
 80 79  2  0
 81 80  1  0
 82 56  1  0
 82 87  1  0
 82 83  1  0
 83 86  1  1
 83 84  1  0
 85 83  1  0
 87 90  1  0
 88 92  1  0
 88 87  1  0
 89 88  2  0
 92 91  1  0
 94 92  1  0
 94 95  1  0
 94 93  1  0
M  ISO  4   8 101  14 100  26 100  55 101
M  END
>  <TORSDO>  (41) 
F 19

>  <SCORE>  (41) 
-13.532

>  <name>  (41) 
40

>  <ligand_id>  (41) 
40

>  <original_smiles>  (41) 
[H]c1c([H])c([H])c2c(c1[H])C([H])([H])C([H])([H])C([H])([H])C2([H])N([H])C(=O)C1([H])N(C(=O)C([H])(N([H])C(=O)C([H])(N([H])C([H])([H])[H])C([H])([H])[H])C(C([H])([H])[H])(C([H])([H])[H])C([H])([H])[H])C([H])([H])c2c([H])c(OC3([H])C([H])([H])C4([H])C([H])([H])C([H])([N+]([H])([H])C([H])([H])C([H])([H])C5([H])N(C(=O)N6C([H])([H])C([H])([H])C([H])([H])C([H])(n7nc(-c8c([H])c([H])c(Oc9c([H])c([H])c(F)c([H])c9F)c([H])c8[H])c(C(=O)N([H])[H])c7N([H])[H])C6([H])[H])C([H])([H])C([H])([H])C5([H])[H])C([H])([H])C4([H])C3([H])[H])c([H])c([H])c2C1([H])[H]

>  <smiles>  (41) 
[H]c1c([H])c([H])c2c(c1[H])C([H])([H])C([H])([H])C([H])([H])C2([H])N([H])C(=O)C1([H])N(C(=O)C([H])(N([H])C(=O)C([H])(N([H])C([H])([H])[H])C([H])([H])[H])C(C([H])([H])[H])(C([H])([H])[H])C([H])([H])[H])C([H])([H])c2c([H])c(OC3([H])C([H])([H])C4([H])C([H])([H])C([H])([N+]([H])([H])C([H])([H])C([H])([H])C5([H])N(C(=O)N6C([H])([H])C([H])([H])C([H])([H])C([H])(n7nc(-c8c([H])c([H])c(Oc9c([H])c([H])c(F)c([H])c9F)c([H])c8[H])c(C(=O)N([H])[H])c7N([H])[H])C6([H])[H])C([H])([H])C([H])([H])C5([H])[H])C([H])([H])C4([H])C3([H])[H])c([H])c([H])c2C1([H])[H]

$$$$
41:0:0
     RDKit          3D

 88 96  0  0  1  0  0  0  0  0999 V2000
  -28.2410  -22.4180   19.4850 C   0  0  0  0  0  3  0  0  0  0  0  0
  -29.3530  -22.7990   21.5170 C   0  0  0  0  0  3  0  0  0  0  0  0
  -27.9490  -23.8500   19.3920 C   0  0  0  0  0  3  0  0  0  0  0  0
  -29.0500  -24.2130   21.4340 C   0  0  0  0  0  3  0  0  0  0  0  0
  -29.0020  -21.8050   20.5430 C   0  0  0  0  0  0  0  0  0  0  0  0
  -28.3430  -24.8420   20.3620 C   0  0  0  0  0  0  0  0  0  0  0  0
  -29.5220  -20.2970   20.7220 C   0  0  0  0  0  3  0  0  0  0  0  0
  -29.3190  -18.9930   20.2170 C   0  0  0  0  0  3  0  0  0  0  0  0
  -30.1970  -17.6370   20.5300 C   0  0  0  0  0  2  0  0  0  0  0  0
  -30.4940  -14.9430   20.3770 C   0  0  0  0  0  0  0  0  0  0  0  0
  -30.3590  -12.6040   19.4270 C   0  0  0  0  0  2  0  0  0  0  0  0
  -29.4310  -12.5770   18.1910 C   0  0  0  0  0  2  0  0  0  0  0  0
  -27.9640  -12.3760   18.6180 C   0  0  0  0  0  2  0  0  0  0  0  0
  -27.5590  -13.2980   19.7990 C   0  0  0  0  0  3  0  0  0  0  0  0
  -28.6100  -13.2980   20.9280 C   0  0  0  0  0  2  0  0  0  0  0  0
  -29.8840  -13.6960   20.3210 N   0  0  0  0  0  0  0  0  0  0  0  0
  -31.7020  -14.9980   20.1200 O   0  0  0  0  0  0  0  0  0  0  0  0
  -29.7350  -16.1340   20.5090 N   0  0  0  0  0  0  0  0  0  0  0  0
  -28.7460  -15.9840   20.6450 H   0  0  0  0  0  0  0  0  0  0  0  0
  -25.1750  -13.8750   20.5300 C   0  0  0  0  0  0  0  0  0  0  0  0
  -24.1100  -13.0980   20.8960 C   0  0  0  0  0  0  0  0  0  0  0  0
  -24.5770  -11.7480   20.8670 C   0  0  0  0  0  0  0  0  0  0  0  0
  -26.2200  -12.9980   20.2930 N   0  0  0  0  0  0  0  0  0  0  0  0
  -25.8690  -11.7140   20.5630 N   0  0  0  0  0  0  0  0  0  0  0  0
  -23.8510  -10.4840   21.0520 C   0  0  0  0  0  0  0  0  0  0  0  0
  -24.2760   -9.5190   21.9900 C   0  0  0  0  0  3  0  0  0  0  0  0
  -23.5490   -8.3210   22.1640 C   0  0  0  0  0  3  0  0  0  0  0  0
  -22.3820   -8.0820   21.3990 C   0  0  0  0  0  0  0  0  0  0  0  0
  -21.9760   -9.0360   20.4510 C   0  0  0  0  0  3  0  0  0  0  0  0
  -22.7050  -10.2250   20.2740 C   0  0  0  0  0  3  0  0  0  0  0  0
  -21.6270   -6.9370   21.4830 O   0  0  0  0  0  0  0  0  0  0  0  0
  -21.5630   -6.1980   22.6370 C   0  0  0  0  0  0  0  0  0  0  0  0
  -21.1140   -6.7550   23.8540 C   0  0  0  0  0  3  0  0  0  0  0  0
  -20.9980   -5.9430   25.0000 C   0  0  0  0  0  3  0  0  0  0  0  0
  -21.3230   -4.5750   24.9300 C   0  0  0  0  0  0  0  0  0  0  0  0
  -21.7660   -4.0170   23.7180 C   0  0  0  0  0  3  0  0  0  0  0  0
  -21.8830   -4.8270   22.5740 C   0  0  0  0  0  0  0  0  0  0  0  0
  -22.2900   -4.2800   21.4030 F   0  0  0  0  0  0  0  0  0  0  0  0
  -21.2050   -3.7930   26.0280 F   0  0  0  0  0  0  0  0  0  0  0  0
  -22.7100  -13.5740   21.1580 C   0  0  0  0  0  0  0  0  0  0  0  0
  -21.9800  -12.8810   22.0240 N   0  0  0  0  0  0  0  0  0  0  0  0
  -22.2740  -14.5950   20.6290 O   0  0  0  0  0  0  0  0  0  0  0  0
  -22.3470  -12.0550   22.4730 H   0  0  0  0  0  0  0  0  0  0  0  0
  -21.0410  -13.1810   22.2420 H   0  0  0  0  0  0  0  0  0  0  0  0
  -25.3350  -15.2460   20.3520 N   0  0  0  0  0  0  0  0  0  0  0  0
  -24.5610  -15.8940   20.4550 H   0  0  0  0  0  0  0  0  0  0  0  0
  -26.1710  -15.6860   19.9920 H   0  0  0  0  0  0  0  0  0  0  0  0
  -28.3000  -26.3020   20.2350 O   0  0  0  0  0  0  0  0  0  0  0  0
  -24.6220  -31.9090   23.2620 C   0  0  0  0  0  0  0  0  0  0  0  0
  -27.1850  -27.2010   20.2460 C   0  0  0  0  0  0  0  0  0  0  0  0
  -23.4140  -30.5160   21.6230 C   0  0  0  0  0  3  0  0  0  0  0  0
  -24.8530  -28.9250   20.2080 C   0  0  0  0  0  0  0  0  0  0  0  0
  -25.9650  -30.7770   21.4550 C   0  0  0  0  0  2  0  0  0  0  0  0
  -26.0300  -29.3810   20.8150 C   0  0  0  0  0  0  0  0  0  0  0  0
  -27.1940  -28.5330   20.8180 C   0  0  0  0  0  3  0  0  0  0  0  0
  -25.9830  -26.8300   19.6100 C   0  0  0  0  0  3  0  0  0  0  0  0
  -24.8390  -27.6610   19.5940 C   0  0  0  0  0  3  0  0  0  0  0  0
  -23.6300  -29.8290   20.2470 C   0  0  0  0  0  2  0  0  0  0  0  0
  -24.6860  -31.0900   22.1690 N   0  0  0  0  0  0  0  0  0  0  0  0
  -23.5370  -32.2000   23.7890 O   0  0  0  0  0  0  0  0  0  0  0  0
  -22.7320  -29.5150   22.5870 C   0  0  0  0  0  0  0  0  0  0  0  0
  -21.4030  -29.3500   22.4580 N   0  0  0  0  0  0  0  0  0  0  0  0
  -23.3990  -28.8890   23.4150 O   0  0  0  0  0  0  0  0  0  0  0  0
  -20.9230  -29.9060   21.7640 H   0  0  0  0  0  0  0  0  0  0  0  0
  -18.0160  -28.1670   22.9520 C   0  0  0  0  0  0  0  0  0  0  0  0
  -20.5740  -28.4190   23.2290 C   0  0  0  0  0  3  0  0  0  0  0  0
  -20.6730  -26.9850   22.6600 C   0  0  0  0  0  2  0  0  0  0  0  0
  -19.5740  -26.6620   21.6420 C   0  0  0  0  0  2  0  0  0  0  0  0
  -18.1900  -26.8150   22.2800 C   0  0  0  0  0  2  0  0  0  0  0  0
  -19.1360  -28.9270   23.3820 C   0  0  0  0  0  0  0  0  0  0  0  0
  -18.9180  -30.1920   23.9720 C   0  0  0  0  0  3  0  0  0  0  0  0
  -17.6150  -30.6960   24.1330 C   0  0  0  0  0  3  0  0  0  0  0  0
  -16.5090  -29.9340   23.7160 C   0  0  0  0  0  3  0  0  0  0  0  0
  -16.7110  -28.6710   23.1320 C   0  0  0  0  0  3  0  0  0  0  0  0
  -25.9030  -32.5380   23.8880 C   0  0  0  0  0  3  0  0  0  0  0  0
  -25.6000  -33.9390   24.2200 N   0  0  0  0  0  0  0  0  0  0  0  0
  -25.9210  -34.9920   23.4560 C   0  0  0  0  0  0  0  0  0  0  0  0
  -26.5720  -34.8860   22.4140 O   0  0  0  0  0  0  0  0  0  0  0  0
  -25.0190  -34.0950   25.0310 H   0  0  0  0  0  0  0  0  0  0  0  0
  -24.1810  -36.7840   23.1480 C   0  0  0  0  0  1  0  0  0  0  0  0
  -25.4470  -36.3840   23.9230 C   0  0  0  0  0  3  0  0  0  0  0  0
  -27.6040  -37.2770   24.6850 C   0  0  0  0  0  1  0  0  0  0  0  0
  -26.4750  -37.4360   23.7710 N   0  0  0  0  0  0  0  0  0  0  0  0
  -26.0740  -38.3580   23.9220 H   0  0  0  0  0  0  0  0  0  0  0  0
  -26.4090  -31.7670   25.1700 C   0  0  1  0  0  0  0  0  0  0  0  0
  -25.3100  -31.5410   26.2350 C   0  0  0  0  0  1  0  0  0  0  0  0
  -26.9830  -30.3830   24.7890 C   0  0  0  0  0  1  0  0  0  0  0  0
  -27.5640  -32.5550   25.8340 C   0  0  0  0  0  1  0  0  0  0  0  0
  1  5  1  0
  3  1  2  0
  3  6  1  0
  4  2  1  0
  5  7  1  0
  5  2  2  0
  6  4  2  0
  8  9  1  0
  8  7  2  0
 10 18  1  0
 11 16  1  0
 12 13  1  0
 12 11  1  0
 14 13  1  0
 14 23  1  0
 14 15  1  0
 16 10  1  0
 16 15  1  0
 17 10  2  0
 18  9  1  0
 18 19  1  0
 20 21  2  0
 21 40  1  0
 22 21  1  0
 22 25  1  0
 23 20  1  0
 23 24  1  0
 24 22  2  0
 25 26  1  0
 26 27  2  0
 28 31  1  0
 28 27  1  0
 29 28  2  0
 30 29  1  0
 30 25  2  0
 31 32  1  0
 32 33  1  0
 33 34  2  0
 35 34  1  0
 35 39  1  0
 36 35  2  0
 37 32  2  0
 37 36  1  0
 38 37  1  0
 40 41  1  0
 41 44  1  0
 41 43  1  0
 42 40  2  0
 45 46  1  0
 45 20  1  0
 47 45  1  0
 48 50  1  0
 48  6  1  0
 49 60  2  0
 50 55  1  0
 51 59  1  0
 51 61  1  0
 52 58  1  0
 52 54  1  0
 53 59  1  0
 54 55  2  0
 54 53  1  0
 56 50  2  0
 57 56  1  0
 57 52  2  0
 58 51  1  0
 59 49  1  0
 61 63  2  0
 62 61  1  0
 64 62  1  0
 65 74  2  0
 65 70  1  0
 66 62  1  0
 66 70  1  0
 67 66  1  0
 68 69  1  0
 68 67  1  0
 69 65  1  0
 70 71  2  0
 71 72  1  0
 73 72  2  0
 74 73  1  0
 75 49  1  0
 75 76  1  0
 75 85  1  0
 76 79  1  0
 77 81  1  0
 77 76  1  0
 78 77  2  0
 81 80  1  0
 83 84  1  0
 83 81  1  0
 83 82  1  0
 85 88  1  1
 85 86  1  0
 87 85  1  0
M  ISO  4   6 101  10 100  18 100  48 101
M  END
>  <TORSDO>  (42) 
F 18

>  <SCORE>  (42) 
-14.493

>  <name>  (42) 
41

>  <ligand_id>  (42) 
41

>  <original_smiles>  (42) 
[H]C(=C([H])C([H])([H])N([H])C(=O)N1C([H])([H])C([H])([H])C([H])([H])C([H])(n2nc(-c3c([H])c([H])c(Oc4c([H])c([H])c(F)c([H])c4F)c([H])c3[H])c(C(=O)N([H])[H])c2N([H])[H])C1([H])[H])c1c([H])c([H])c(Oc2c([H])c([H])c3c(c2[H])C([H])([H])N(C(=O)C([H])(N([H])C(=O)C([H])(N([H])C([H])([H])[H])C([H])([H])[H])C(C([H])([H])[H])(C([H])([H])[H])C([H])([H])[H])C([H])(C(=O)N([H])C2([H])c4c([H])c([H])c([H])c([H])c4C([H])([H])C([H])([H])C2([H])[H])C3([H])[H])c([H])c1[H]

>  <smiles>  (42) 
[H]C(=C([H])C([H])([H])N([H])C(=O)N1C([H])([H])C([H])([H])C([H])([H])C([H])(n2nc(-c3c([H])c([H])c(Oc4c([H])c([H])c(F)c([H])c4F)c([H])c3[H])c(C(=O)N([H])[H])c2N([H])[H])C1([H])[H])c1c([H])c([H])c(Oc2c([H])c([H])c3c(c2[H])C([H])([H])N(C(=O)C([H])(N([H])C(=O)C([H])(N([H])C([H])([H])[H])C([H])([H])[H])C(C([H])([H])[H])(C([H])([H])[H])C([H])([H])[H])C([H])(C(=O)N([H])C2([H])c4c([H])c([H])c([H])c([H])c4C([H])([H])C([H])([H])C2([H])[H])C3([H])[H])c([H])c1[H]

$$$$
42:0:0
     RDKit          3D

 92100  0  0  1  0  0  0  0  0999 V2000
  -29.5620  -21.2010   19.5420 N   0  0  0  0  0  4  0  0  0  0  0  0
  -29.3400  -21.2660   20.5230 H   0  0  0  0  0  0  0  0  0  0  0  0
  -28.6950  -21.1160   19.0360 H   0  0  0  0  0  0  0  0  0  0  0  0
  -30.3610  -19.9710   19.3210 C   0  0  0  0  0  2  0  0  0  0  0  0
  -29.6480  -18.7160   19.8740 C   0  0  0  0  0  2  0  0  0  0  0  0
  -30.4510  -17.4010   19.7130 C   0  0  0  0  0  2  0  0  0  0  0  0
  -30.9830  -14.2970   19.5020 C   0  0  0  0  0  0  0  0  0  0  0  0
  -30.3900  -12.2640   18.2200 C   0  0  0  0  0  2  0  0  0  0  0  0
  -29.2390  -12.5320   17.2340 C   0  0  0  0  0  2  0  0  0  0  0  0
  -27.8730  -12.3640   17.9250 C   0  0  0  0  0  2  0  0  0  0  0  0
  -27.7870  -13.1390   19.2660 C   0  0  0  0  0  3  0  0  0  0  0  0
  -29.0210  -12.8410   20.1450 C   0  0  0  0  0  2  0  0  0  0  0  0
  -30.2370  -13.1640   19.3720 N   0  0  0  0  0  0  0  0  0  0  0  0
  -31.8340  -14.6440   18.6780 O   0  0  0  0  0  0  0  0  0  0  0  0
  -30.5630  -15.4780   22.9380 C   0  0  0  0  0  2  0  0  0  0  0  0
  -30.1830  -16.7390   22.1790 C   0  0  0  0  0  2  0  0  0  0  0  0
  -31.3260  -14.6530   21.9070 C   0  0  0  0  0  2  0  0  0  0  0  0
  -30.0120  -16.2970   20.7130 C   0  0  0  0  0  3  0  0  0  0  0  0
  -30.7420  -15.0180   20.6180 N   0  0  0  0  0  0  0  0  0  0  0  0
  -25.6030  -13.7200   20.5070 C   0  0  0  0  0  0  0  0  0  0  0  0
  -24.5950  -12.9350   20.9980 C   0  0  0  0  0  0  0  0  0  0  0  0
  -24.9760  -11.5870   20.7250 C   0  0  0  0  0  0  0  0  0  0  0  0
  -26.5410  -12.8490   19.9740 N   0  0  0  0  0  0  0  0  0  0  0  0
  -26.1750  -11.5530   20.1580 N   0  0  0  0  0  0  0  0  0  0  0  0
  -24.2440  -10.3290   20.9180 C   0  0  0  0  0  0  0  0  0  0  0  0
  -24.7050   -9.3360   21.8100 C   0  0  0  0  0  3  0  0  0  0  0  0
  -23.9740   -8.1410   21.9920 C   0  0  0  0  0  3  0  0  0  0  0  0
  -22.7690   -7.9330   21.2800 C   0  0  0  0  0  0  0  0  0  0  0  0
  -22.3280   -8.9130   20.3730 C   0  0  0  0  0  3  0  0  0  0  0  0
  -23.0600  -10.0980   20.1900 C   0  0  0  0  0  3  0  0  0  0  0  0
  -22.0050   -6.7940   21.3740 O   0  0  0  0  0  0  0  0  0  0  0  0
  -21.8730   -6.1100   22.5550 C   0  0  0  0  0  0  0  0  0  0  0  0
  -21.3640   -6.7230   23.7210 C   0  0  0  0  0  3  0  0  0  0  0  0
  -21.1820   -5.9650   24.8930 C   0  0  0  0  0  3  0  0  0  0  0  0
  -21.4980   -4.5930   24.9020 C   0  0  0  0  0  0  0  0  0  0  0  0
  -22.0000   -3.9780   23.7410 C   0  0  0  0  0  3  0  0  0  0  0  0
  -22.1840   -4.7340   22.5700 C   0  0  0  0  0  0  0  0  0  0  0  0
  -22.6470   -4.1330   21.4490 F   0  0  0  0  0  0  0  0  0  0  0  0
  -21.3160   -3.8610   26.0260 F   0  0  0  0  0  0  0  0  0  0  0  0
  -23.3040  -13.4070   21.6040 C   0  0  0  0  0  0  0  0  0  0  0  0
  -22.7710  -12.6680   22.5710 N   0  0  0  0  0  0  0  0  0  0  0  0
  -22.7830  -14.4650   21.2530 O   0  0  0  0  0  0  0  0  0  0  0  0
  -23.2100  -11.8130   22.8770 H   0  0  0  0  0  0  0  0  0  0  0  0
  -21.9140  -12.9650   23.0150 H   0  0  0  0  0  0  0  0  0  0  0  0
  -25.7910  -15.0980   20.4510 N   0  0  0  0  0  0  0  0  0  0  0  0
  -25.0890  -15.7550   20.7750 H   0  0  0  0  0  0  0  0  0  0  0  0
  -26.5730  -15.5520   19.9960 H   0  0  0  0  0  0  0  0  0  0  0  0
  -30.2310  -22.4600   19.1350 C   0  0  0  0  0  2  0  0  0  0  0  0
  -29.3030  -23.6930   19.2570 C   0  0  0  0  0  2  0  0  0  0  0  0
  -29.9770  -25.0040   18.8000 C   0  0  0  0  0  2  0  0  0  0  0  0
  -29.0070  -26.1890   18.6230 C   0  0  0  0  0  2  0  0  0  0  0  0
  -28.6080  -26.7300   19.8850 O   0  0  0  0  0  0  0  0  0  0  0  0
  -24.7340  -31.7420   23.1500 C   0  0  0  0  0  0  0  0  0  0  0  0
  -27.4140  -27.4180   19.9220 C   0  0  0  0  0  0  0  0  0  0  0  0
  -23.5230  -30.3370   21.5140 C   0  0  0  0  0  3  0  0  0  0  0  0
  -24.9770  -28.8510   20.0370 C   0  0  0  0  0  0  0  0  0  0  0  0
  -26.0350  -30.7520   21.2670 C   0  0  0  0  0  2  0  0  0  0  0  0
  -26.1350  -29.3930   20.6090 C   0  0  0  0  0  0  0  0  0  0  0  0
  -27.3520  -28.6770   20.5620 C   0  0  0  0  0  3  0  0  0  0  0  0
  -26.2300  -26.8750   19.3730 C   0  0  0  0  0  3  0  0  0  0  0  0
  -25.0170  -27.5860   19.4250 C   0  0  0  0  0  3  0  0  0  0  0  0
  -23.7170  -29.6820   20.1200 C   0  0  0  0  0  2  0  0  0  0  0  0
  -24.7830  -30.9580   22.0350 N   0  0  0  0  0  0  0  0  0  0  0  0
  -23.6600  -31.9830   23.7180 O   0  0  0  0  0  0  0  0  0  0  0  0
  -22.9140  -29.2890   22.4720 C   0  0  0  0  0  0  0  0  0  0  0  0
  -21.6070  -29.0230   22.3170 N   0  0  0  0  0  0  0  0  0  0  0  0
  -23.6170  -28.7170   23.3100 O   0  0  0  0  0  0  0  0  0  0  0  0
  -21.1000  -29.5410   21.6140 H   0  0  0  0  0  0  0  0  0  0  0  0
  -18.3170  -27.5830   22.7070 C   0  0  0  0  0  0  0  0  0  0  0  0
  -20.8320  -28.0450   23.0800 C   0  0  0  0  0  3  0  0  0  0  0  0
  -21.0700  -26.6110   22.5530 C   0  0  0  0  0  2  0  0  0  0  0  0
  -20.0420  -26.1770   21.5020 C   0  0  0  0  0  2  0  0  0  0  0  0
  -18.6260  -26.2320   22.0820 C   0  0  0  0  0  2  0  0  0  0  0  0
  -19.3530  -28.4410   23.1610 C   0  0  0  0  0  0  0  0  0  0  0  0
  -19.0130  -29.6990   23.7010 C   0  0  0  0  0  3  0  0  0  0  0  0
  -17.6680  -30.1030   23.7940 C   0  0  0  0  0  3  0  0  0  0  0  0
  -16.6460  -29.2440   23.3560 C   0  0  0  0  0  3  0  0  0  0  0  0
  -16.9700  -27.9860   22.8190 C   0  0  0  0  0  3  0  0  0  0  0  0
  -26.0210  -32.3910   23.7500 C   0  0  0  0  0  3  0  0  0  0  0  0
  -26.5930  -31.6030   24.9930 C   0  0  1  0  0  0  0  0  0  0  0  0
  -25.5310  -31.2840   26.0710 C   0  0  0  0  0  1  0  0  0  0  0  0
  -27.2260  -30.2650   24.5440 C   0  0  0  0  0  1  0  0  0  0  0  0
  -27.7210  -32.4240   25.6600 C   0  0  0  0  0  1  0  0  0  0  0  0
  -25.6880  -33.7730   24.1210 N   0  0  0  0  0  0  0  0  0  0  0  0
  -25.9830  -34.8490   23.3790 C   0  0  0  0  0  0  0  0  0  0  0  0
  -26.6340  -34.7850   22.3340 O   0  0  0  0  0  0  0  0  0  0  0  0
  -25.1040  -33.8950   24.9350 H   0  0  0  0  0  0  0  0  0  0  0  0
  -24.2060  -36.6080   23.0960 C   0  0  0  0  0  1  0  0  0  0  0  0
  -25.4710  -36.2150   23.8770 C   0  0  0  0  0  3  0  0  0  0  0  0
  -27.5980  -37.1290   24.6920 C   0  0  0  0  0  1  0  0  0  0  0  0
  -26.4770  -37.2930   23.7710 N   0  0  0  0  0  0  0  0  0  0  0  0
  -26.0530  -38.2000   23.9470 H   0  0  0  0  0  0  0  0  0  0  0  0
  1  2  1  0
  3  1  1  0
  4  1  1  0
  4  5  1  0
  6  5  1  0
  7 19  1  0
  8 13  1  0
  9 10  1  0
  9  8  1  0
 11 10  1  0
 11 23  1  0
 11 12  1  0
 13  7  1  0
 13 12  1  0
 14  7  2  0
 16 15  1  0
 17 15  1  0
 18  6  1  0
 18 16  1  0
 19 18  1  0
 19 17  1  0
 20 21  2  0
 21 40  1  0
 22 25  1  0
 22 21  1  0
 23 24  1  0
 23 20  1  0
 24 22  2  0
 25 26  1  0
 26 27  2  0
 28 31  1  0
 28 27  1  0
 29 28  2  0
 30 29  1  0
 30 25  2  0
 31 32  1  0
 32 37  2  0
 32 33  1  0
 33 34  2  0
 34 35  1  0
 35 39  1  0
 36 35  2  0
 37 36  1  0
 38 37  1  0
 40 41  1  0
 41 43  1  0
 41 44  1  0
 42 40  2  0
 45 20  1  0
 45 46  1  0
 47 45  1  0
 48 49  1  0
 48  1  1  0
 50 49  1  0
 51 50  1  0
 51 52  1  0
 52 54  1  0
 53 64  2  0
 54 59  1  0
 55 63  1  0
 55 65  1  0
 56 62  1  0
 56 58  1  0
 57 63  1  0
 58 57  1  0
 59 58  2  0
 60 61  1  0
 60 54  2  0
 61 56  2  0
 62 55  1  0
 63 53  1  0
 65 67  2  0
 66 65  1  0
 68 66  1  0
 69 78  2  0
 69 74  1  0
 70 66  1  0
 70 74  1  0
 71 70  1  0
 72 73  1  0
 72 71  1  0
 73 69  1  0
 74 75  2  0
 75 76  1  0
 77 76  2  0
 78 77  1  0
 79 53  1  0
 79 84  1  0
 79 80  1  0
 80 83  1  1
 80 81  1  0
 82 80  1  0
 84 87  1  0
 85 89  1  0
 85 84  1  0
 86 85  2  0
 89 88  1  0
 91 89  1  0
 91 92  1  0
 91 90  1  0
M  ISO  4   7 100  19 100  51 101  52 101
M  END
>  <TORSDO>  (43) 
F 23

>  <SCORE>  (43) 
-8.977

>  <name>  (43) 
42

>  <ligand_id>  (43) 
42

>  <original_smiles>  (43) 
[H]c1c([H])c([H])c2c(c1[H])C([H])([H])C([H])([H])C([H])([H])C2([H])N([H])C(=O)C1([H])N(C(=O)C([H])(N([H])C(=O)C([H])(N([H])C([H])([H])[H])C([H])([H])[H])C(C([H])([H])[H])(C([H])([H])[H])C([H])([H])[H])C([H])([H])c2c([H])c(OC([H])([H])C([H])([H])C([H])([H])C([H])([H])[N+]([H])([H])C([H])([H])C([H])([H])C([H])([H])C3([H])N(C(=O)N4C([H])([H])C([H])([H])C([H])([H])C([H])(n5nc(-c6c([H])c([H])c(Oc7c([H])c([H])c(F)c([H])c7F)c([H])c6[H])c(C(=O)N([H])[H])c5N([H])[H])C4([H])[H])C([H])([H])C([H])([H])C3([H])[H])c([H])c([H])c2C1([H])[H]

>  <smiles>  (43) 
[H]c1c([H])c([H])c2c(c1[H])C([H])([H])C([H])([H])C([H])([H])C2([H])N([H])C(=O)C1([H])N(C(=O)C([H])(N([H])C(=O)C([H])(N([H])C([H])([H])[H])C([H])([H])[H])C(C([H])([H])[H])(C([H])([H])[H])C([H])([H])[H])C([H])([H])c2c([H])c(OC([H])([H])C([H])([H])C([H])([H])C([H])([H])[N+]([H])([H])C([H])([H])C([H])([H])C([H])([H])C3([H])N(C(=O)N4C([H])([H])C([H])([H])C([H])([H])C([H])(n5nc(-c6c([H])c([H])c(Oc7c([H])c([H])c(F)c([H])c7F)c([H])c6[H])c(C(=O)N([H])[H])c5N([H])[H])C4([H])[H])C([H])([H])C([H])([H])C3([H])[H])c([H])c([H])c2C1([H])[H]

$$$$
43:0:0
     RDKit          3D

 91 99  0  0  1  0  0  0  0  0999 V2000
  -29.7840  -21.5160   19.4950 C   0  0  0  0  0  0  0  0  0  0  0  0
  -30.4760  -20.1130   19.7490 C   0  0  0  0  0  2  0  0  0  0  0  0
  -28.1720  -19.4160   20.3650 C   0  0  0  0  0  2  0  0  0  0  0  0
  -28.7730  -22.0470   20.5520 C   0  0  0  0  0  3  0  0  0  0  0  0
  -29.6690  -18.9310   20.4480 C   0  0  0  0  0  3  0  0  0  0  0  0
  -27.8690  -20.8480   20.8440 N   0  0  0  0  0  4  0  0  0  0  0  0
  -30.0620  -22.1450   18.4730 O   0  0  0  0  0  0  0  0  0  0  0  0
  -27.7540  -20.8100   21.8440 H   0  0  0  0  0  0  0  0  0  0  0  0
  -26.9610  -21.0650   20.4740 H   0  0  0  0  0  0  0  0  0  0  0  0
  -27.9970  -23.5250   20.3680 C   0  0  0  0  0  2  0  0  0  0  0  0
  -28.5790  -24.9530   19.7900 C   0  0  0  0  0  2  0  0  0  0  0  0
  -28.3760  -26.3670   20.3350 O   0  0  0  0  0  0  0  0  0  0  0  0
  -24.6250  -31.8740   23.2280 C   0  0  0  0  0  0  0  0  0  0  0  0
  -27.2560  -27.2350   20.2090 C   0  0  0  0  0  0  0  0  0  0  0  0
  -23.4330  -30.4670   21.5850 C   0  0  0  0  0  3  0  0  0  0  0  0
  -24.8940  -28.8970   20.1650 C   0  0  0  0  0  0  0  0  0  0  0  0
  -25.9750  -30.7690   21.4170 C   0  0  0  0  0  2  0  0  0  0  0  0
  -26.0590  -29.3800   20.7720 C   0  0  0  0  0  0  0  0  0  0  0  0
  -27.2340  -28.5580   20.7840 C   0  0  0  0  0  3  0  0  0  0  0  0
  -26.0700  -26.8220   19.5690 C   0  0  0  0  0  3  0  0  0  0  0  0
  -24.9070  -27.6300   19.5550 C   0  0  0  0  0  3  0  0  0  0  0  0
  -23.6520  -29.7750   20.2100 C   0  0  0  0  0  2  0  0  0  0  0  0
  -24.6960  -31.0580   22.1320 N   0  0  0  0  0  0  0  0  0  0  0  0
  -23.5380  -32.1540   23.7560 O   0  0  0  0  0  0  0  0  0  0  0  0
  -22.7620  -29.4610   22.5500 C   0  0  0  0  0  0  0  0  0  0  0  0
  -21.4350  -29.2900   22.4230 N   0  0  0  0  0  0  0  0  0  0  0  0
  -23.4370  -28.8360   23.3730 O   0  0  0  0  0  0  0  0  0  0  0  0
  -20.9500  -29.8420   21.7300 H   0  0  0  0  0  0  0  0  0  0  0  0
  -18.0570  -28.0980   22.9310 C   0  0  0  0  0  0  0  0  0  0  0  0
  -20.6160  -28.3510   23.1930 C   0  0  0  0  0  3  0  0  0  0  0  0
  -20.7110  -26.9220   22.6090 C   0  0  0  0  0  2  0  0  0  0  0  0
  -19.6050  -26.6090   21.5940 C   0  0  0  0  0  2  0  0  0  0  0  0
  -18.2270  -26.7530   22.2440 C   0  0  0  0  0  2  0  0  0  0  0  0
  -19.1790  -28.8560   23.3610 C   0  0  0  0  0  0  0  0  0  0  0  0
  -18.9650  -30.1160   23.9600 C   0  0  0  0  0  3  0  0  0  0  0  0
  -17.6610  -30.6200   24.1350 C   0  0  0  0  0  3  0  0  0  0  0  0
  -16.5530  -29.8590   23.7200 C   0  0  0  0  0  3  0  0  0  0  0  0
  -16.7530  -28.6000   23.1240 C   0  0  0  0  0  3  0  0  0  0  0  0
  -25.9000  -32.5140   23.8570 C   0  0  0  0  0  3  0  0  0  0  0  0
  -26.4080  -31.7500   25.1420 C   0  0  1  0  0  0  0  0  0  0  0  0
  -25.3080  -31.5170   26.2040 C   0  0  0  0  0  1  0  0  0  0  0  0
  -26.9950  -30.3710   24.7630 C   0  0  0  0  0  1  0  0  0  0  0  0
  -27.5530  -32.5490   25.8080 C   0  0  0  0  0  1  0  0  0  0  0  0
  -25.5840  -33.9130   24.1850 N   0  0  0  0  0  0  0  0  0  0  0  0
  -25.9180  -34.9680   23.4310 C   0  0  0  0  0  0  0  0  0  0  0  0
  -26.5900  -34.8670   22.4010 O   0  0  0  0  0  0  0  0  0  0  0  0
  -24.9790  -34.0650   24.9790 H   0  0  0  0  0  0  0  0  0  0  0  0
  -24.1840  -36.7580   23.0810 C   0  0  0  0  0  1  0  0  0  0  0  0
  -25.4280  -36.3550   23.8900 C   0  0  0  0  0  3  0  0  0  0  0  0
  -27.5600  -37.2470   24.7210 C   0  0  0  0  0  1  0  0  0  0  0  0
  -26.4580  -37.4100   23.7760 N   0  0  0  0  0  0  0  0  0  0  0  0
  -26.0520  -38.3300   23.9180 H   0  0  0  0  0  0  0  0  0  0  0  0
  -30.1520  -17.4450   19.8720 C   0  0  0  0  0  2  0  0  0  0  0  0
  -30.6010  -14.8500   20.2160 C   0  0  0  0  0  0  0  0  0  0  0  0
  -30.4100  -12.5550   19.2280 C   0  0  0  0  0  2  0  0  0  0  0  0
  -29.4690  -12.6190   18.0050 C   0  0  0  0  0  2  0  0  0  0  0  0
  -28.0030  -12.4300   18.4400 C   0  0  0  0  0  2  0  0  0  0  0  0
  -27.6310  -13.3140   19.6590 C   0  0  0  0  0  3  0  0  0  0  0  0
  -28.6940  -13.2490   20.7770 C   0  0  0  0  0  2  0  0  0  0  0  0
  -29.9800  -13.6140   20.1750 N   0  0  0  0  0  0  0  0  0  0  0  0
  -31.7800  -14.9290   19.8610 O   0  0  0  0  0  0  0  0  0  0  0  0
  -29.8410  -16.0180   20.4070 N   0  0  0  0  0  0  0  0  0  0  0  0
  -28.8920  -15.8540   20.7120 H   0  0  0  0  0  0  0  0  0  0  0  0
  -25.2520  -13.8950   20.4100 C   0  0  0  0  0  0  0  0  0  0  0  0
  -24.1920  -13.1190   20.7940 C   0  0  0  0  0  0  0  0  0  0  0  0
  -24.6600  -11.7700   20.7670 C   0  0  0  0  0  0  0  0  0  0  0  0
  -26.2950  -13.0190   20.1650 N   0  0  0  0  0  0  0  0  0  0  0  0
  -25.9480  -11.7350   20.4430 N   0  0  0  0  0  0  0  0  0  0  0  0
  -23.9390  -10.5060   20.9700 C   0  0  0  0  0  0  0  0  0  0  0  0
  -24.3740   -9.5490   21.9110 C   0  0  0  0  0  3  0  0  0  0  0  0
  -23.6540   -8.3500   22.1010 C   0  0  0  0  0  3  0  0  0  0  0  0
  -22.4850   -8.0990   21.3460 C   0  0  0  0  0  0  0  0  0  0  0  0
  -22.0670   -9.0450   20.3930 C   0  0  0  0  0  3  0  0  0  0  0  0
  -22.7880  -10.2360   20.2020 C   0  0  0  0  0  3  0  0  0  0  0  0
  -21.7330   -6.9520   21.4430 O   0  0  0  0  0  0  0  0  0  0  0  0
  -21.6760   -6.2260   22.6050 C   0  0  0  0  0  0  0  0  0  0  0  0
  -21.2270   -6.7950   23.8170 C   0  0  0  0  0  3  0  0  0  0  0  0
  -21.1200   -5.9950   24.9720 C   0  0  0  0  0  3  0  0  0  0  0  0
  -21.4520   -4.6280   24.9170 C   0  0  0  0  0  0  0  0  0  0  0  0
  -21.8930   -4.0590   23.7090 C   0  0  0  0  0  3  0  0  0  0  0  0
  -22.0040   -4.8560   22.5570 C   0  0  0  0  0  0  0  0  0  0  0  0
  -22.4100   -4.2990   21.3910 F   0  0  0  0  0  0  0  0  0  0  0  0
  -21.3420   -3.8570   26.0240 F   0  0  0  0  0  0  0  0  0  0  0  0
  -22.7970  -13.5940   21.0770 C   0  0  0  0  0  0  0  0  0  0  0  0
  -22.0760  -12.8990   21.9490 N   0  0  0  0  0  0  0  0  0  0  0  0
  -22.3550  -14.6160   20.5540 O   0  0  0  0  0  0  0  0  0  0  0  0
  -22.4480  -12.0710   22.3930 H   0  0  0  0  0  0  0  0  0  0  0  0
  -21.1400  -13.2020   22.1820 H   0  0  0  0  0  0  0  0  0  0  0  0
  -25.4090  -15.2640   20.2210 N   0  0  0  0  0  0  0  0  0  0  0  0
  -24.6190  -15.8970   20.2770 H   0  0  0  0  0  0  0  0  0  0  0  0
  -26.2280  -15.6900   19.8100 H   0  0  0  0  0  0  0  0  0  0  0  0
  1  2  1  0
  1  4  1  0
  2  5  1  0
  3  5  1  0
  3  6  1  0
  4 10  1  0
  4  6  1  0
  5 53  1  0
  6  8  1  0
  7  1  2  0
  9  6  1  0
 11 12  1  0
 11 10  1  0
 13 24  2  0
 14 12  1  0
 14 19  1  0
 15 23  1  0
 15 25  1  0
 16 22  1  0
 16 18  1  0
 17 23  1  0
 18 19  2  0
 18 17  1  0
 20 14  2  0
 21 20  1  0
 21 16  2  0
 22 15  1  0
 23 13  1  0
 25 27  2  0
 26 25  1  0
 28 26  1  0
 29 38  2  0
 29 34  1  0
 30 26  1  0
 30 34  1  0
 31 30  1  0
 32 33  1  0
 32 31  1  0
 33 29  1  0
 34 35  2  0
 35 36  1  0
 37 36  2  0
 38 37  1  0
 39 13  1  0
 39 44  1  0
 39 40  1  0
 40 43  1  1
 40 41  1  0
 42 40  1  0
 44 47  1  0
 45 49  1  0
 45 44  1  0
 46 45  2  0
 49 48  1  0
 51 49  1  0
 51 52  1  0
 51 50  1  0
 53 62  1  0
 54 62  1  0
 55 60  1  0
 56 57  1  0
 56 55  1  0
 58 57  1  0
 58 67  1  0
 58 59  1  0
 60 54  1  0
 60 59  1  0
 61 54  2  0
 62 63  1  0
 64 65  2  0
 65 84  1  0
 66 65  1  0
 66 69  1  0
 67 64  1  0
 67 68  1  0
 68 66  2  0
 69 70  1  0
 70 71  2  0
 72 75  1  0
 72 71  1  0
 73 72  2  0
 74 73  1  0
 74 69  2  0
 75 76  1  0
 76 77  1  0
 77 78  2  0
 79 78  1  0
 79 83  1  0
 80 79  2  0
 81 76  2  0
 81 80  1  0
 82 81  1  0
 84 85  1  0
 85 88  1  0
 85 87  1  0
 86 84  2  0
 89 90  1  0
 89 64  1  0
 91 89  1  0
M  ISO  4  11 101  12 101  54 100  62 100
M  END
>  <TORSDO>  (44) 
F 19

>  <SCORE>  (44) 
-14.308

>  <name>  (44) 
43

>  <ligand_id>  (44) 
43

>  <original_smiles>  (44) 
[H]c1c([H])c([H])c2c(c1[H])C([H])([H])C([H])([H])C([H])([H])C2([H])N([H])C(=O)C1([H])N(C(=O)C([H])(N([H])C(=O)C([H])(N([H])C([H])([H])[H])C([H])([H])[H])C(C([H])([H])[H])(C([H])([H])[H])C([H])([H])[H])C([H])([H])c2c([H])c(OC([H])([H])C([H])([H])C3([H])C(=O)C([H])([H])C([H])(C([H])([H])N([H])C(=O)N4C([H])([H])C([H])([H])C([H])([H])C([H])(n5nc(-c6c([H])c([H])c(Oc7c([H])c([H])c(F)c([H])c7F)c([H])c6[H])c(C(=O)N([H])[H])c5N([H])[H])C4([H])[H])C([H])([H])[N+]3([H])[H])c([H])c([H])c2C1([H])[H]

>  <smiles>  (44) 
[H]c1c([H])c([H])c2c(c1[H])C([H])([H])C([H])([H])C([H])([H])C2([H])N([H])C(=O)C1([H])N(C(=O)C([H])(N([H])C(=O)C([H])(N([H])C([H])([H])[H])C([H])([H])[H])C(C([H])([H])[H])(C([H])([H])[H])C([H])([H])[H])C([H])([H])c2c([H])c(OC([H])([H])C([H])([H])C3([H])C(=O)C([H])([H])C([H])(C([H])([H])N([H])C(=O)N4C([H])([H])C([H])([H])C([H])([H])C([H])(n5nc(-c6c([H])c([H])c(Oc7c([H])c([H])c(F)c([H])c7F)c([H])c6[H])c(C(=O)N([H])[H])c5N([H])[H])C4([H])[H])C([H])([H])[N+]3([H])[H])c([H])c([H])c2C1([H])[H]

$$$$
44:0:0
     RDKit          3D

 94103  0  0  1  0  0  0  0  0999 V2000
  -30.8230  -17.5360   22.2210 C   0  0  0  0  0  0  0  0  0  0  0  0
  -30.9420  -19.0390   22.4750 C   0  0  0  0  0  2  0  0  0  0  0  0
  -30.0180  -20.3450   18.9270 C   0  0  0  0  0  2  0  0  0  0  0  0
  -30.5000  -17.9520   19.7220 C   0  0  0  0  0  2  0  0  0  0  0  0
  -30.2070  -21.8500   19.2170 C   0  0  0  0  0  2  0  0  0  0  0  0
  -30.3930  -21.3850   21.6240 C   0  0  0  0  0  2  0  0  0  0  0  0
  -31.1590  -17.0560   20.8020 C   0  0  0  0  0  3  0  0  0  0  0  0
  -30.2220  -19.8640   21.3850 C   0  0  0  0  0  3  0  0  0  0  0  0
  -30.7190  -19.4650   19.9780 C   0  0  0  0  0  3  0  0  0  0  0  0
  -29.7290  -22.2170   20.5790 N   0  0  1  0  0  4  0  0  0  0  0  0
  -30.4650  -16.7790   23.1280 O   0  0  0  0  0  0  0  0  0  0  0  0
  -28.7460  -21.9920   20.6170 H   0  0  0  0  0  0  0  0  0  0  0  0
  -31.3740  -14.6930   19.9400 C   0  0  0  0  0  0  0  0  0  0  0  0
  -31.0050  -12.4930   18.8840 C   0  0  0  0  0  2  0  0  0  0  0  0
  -29.9700  -12.6340   17.7500 C   0  0  0  0  0  2  0  0  0  0  0  0
  -28.5320  -12.5180   18.2950 C   0  0  0  0  0  2  0  0  0  0  0  0
  -28.2880  -13.4200   19.5350 C   0  0  0  0  0  3  0  0  0  0  0  0
  -29.4190  -13.2320   20.5700 C   0  0  0  0  0  2  0  0  0  0  0  0
  -30.7030  -13.5120   19.8990 N   0  0  0  0  0  0  0  0  0  0  0  0
  -32.4130  -14.9100   19.3100 O   0  0  0  0  0  0  0  0  0  0  0  0
  -30.7650  -15.6520   20.6490 N   0  0  0  0  0  0  0  0  0  0  0  0
  -29.9470  -15.3750   21.1700 H   0  0  0  0  0  0  0  0  0  0  0  0
  -26.0220  -14.0920   20.5570 C   0  0  0  0  0  0  0  0  0  0  0  0
  -24.9430  -13.3480   20.9540 C   0  0  0  0  0  0  0  0  0  0  0  0
  -25.2980  -11.9840   20.7250 C   0  0  0  0  0  0  0  0  0  0  0  0
  -26.9710  -13.1800   20.1210 N   0  0  0  0  0  0  0  0  0  0  0  0
  -26.5430  -11.9020   20.2750 N   0  0  0  0  0  0  0  0  0  0  0  0
  -24.5050  -10.7550   20.8550 C   0  0  0  0  0  0  0  0  0  0  0  0
  -24.8570   -9.7440   21.7760 C   0  0  0  0  0  3  0  0  0  0  0  0
  -24.0690   -8.5780   21.8940 C   0  0  0  0  0  3  0  0  0  0  0  0
  -22.9150   -8.4170   21.0900 C   0  0  0  0  0  0  0  0  0  0  0  0
  -22.5830   -9.4160   20.1600 C   0  0  0  0  0  3  0  0  0  0  0  0
  -23.3700  -10.5730   20.0380 C   0  0  0  0  0  3  0  0  0  0  0  0
  -22.1050   -7.3070   21.1190 O   0  0  0  0  0  0  0  0  0  0  0  0
  -21.8010   -6.6670   22.2940 C   0  0  0  0  0  0  0  0  0  0  0  0
  -21.1230   -7.3230   23.3450 C   0  0  0  0  0  3  0  0  0  0  0  0
  -20.7690   -6.6080   24.5070 C   0  0  0  0  0  3  0  0  0  0  0  0
  -21.0820   -5.2400   24.6160 C   0  0  0  0  0  0  0  0  0  0  0  0
  -21.7530   -4.5850   23.5690 C   0  0  0  0  0  3  0  0  0  0  0  0
  -22.1090   -5.2970   22.4090 C   0  0  0  0  0  0  0  0  0  0  0  0
  -22.7360   -4.6570   21.3930 F   0  0  0  0  0  0  0  0  0  0  0  0
  -20.7360   -4.5520   25.7290 F   0  0  0  0  0  0  0  0  0  0  0  0
  -23.6190  -13.8750   21.4300 C   0  0  0  0  0  0  0  0  0  0  0  0
  -22.9410  -13.1330   22.2990 N   0  0  0  0  0  0  0  0  0  0  0  0
  -23.2010  -14.9740   21.0690 O   0  0  0  0  0  0  0  0  0  0  0  0
  -23.2930  -12.2410   22.6100 H   0  0  0  0  0  0  0  0  0  0  0  0
  -22.0560  -13.4630   22.6580 H   0  0  0  0  0  0  0  0  0  0  0  0
  -26.2680  -15.4610   20.5130 N   0  0  0  0  0  0  0  0  0  0  0  0
  -25.5650  -16.1450   20.7720 H   0  0  0  0  0  0  0  0  0  0  0  0
  -27.1100  -15.8800   20.1380 H   0  0  0  0  0  0  0  0  0  0  0  0
  -29.8400  -23.6740   20.8960 C   0  0  0  0  0  2  0  0  0  0  0  0
  -28.9780  -24.6180   20.0190 C   0  0  0  0  0  2  0  0  0  0  0  0
  -28.8000  -26.0160   20.6520 C   0  0  0  0  0  2  0  0  0  0  0  0
  -28.5180  -26.9930   19.6490 O   0  0  0  0  0  0  0  0  0  0  0  0
  -24.4610  -31.6800   23.1700 C   0  0  0  0  0  0  0  0  0  0  0  0
  -27.3090  -27.6300   19.7720 C   0  0  0  0  0  0  0  0  0  0  0  0
  -23.3120  -30.3300   21.4450 C   0  0  0  0  0  3  0  0  0  0  0  0
  -24.8320  -28.9710   19.9100 C   0  0  0  0  0  0  0  0  0  0  0  0
  -25.8080  -30.8450   21.2480 C   0  0  0  0  0  2  0  0  0  0  0  0
  -25.9630  -29.5250   20.5230 C   0  0  0  0  0  0  0  0  0  0  0  0
  -27.2060  -28.8610   20.4560 C   0  0  0  0  0  3  0  0  0  0  0  0
  -26.1680  -27.0780   19.1600 C   0  0  0  0  0  3  0  0  0  0  0  0
  -24.9270  -27.7430   19.2290 C   0  0  0  0  0  3  0  0  0  0  0  0
  -23.5420  -29.7520   20.0210 C   0  0  0  0  0  2  0  0  0  0  0  0
  -24.5450  -30.9640   22.0140 N   0  0  0  0  0  0  0  0  0  0  0  0
  -23.3750  -31.8550   23.7380 O   0  0  0  0  0  0  0  0  0  0  0  0
  -22.7290  -29.2120   22.3380 C   0  0  0  0  0  0  0  0  0  0  0  0
  -21.4160  -28.9680   22.2110 N   0  0  0  0  0  0  0  0  0  0  0  0
  -23.4570  -28.5690   23.1010 O   0  0  0  0  0  0  0  0  0  0  0  0
  -20.8880  -29.5430   21.5690 H   0  0  0  0  0  0  0  0  0  0  0  0
  -18.1240  -27.5360   22.6160 C   0  0  0  0  0  0  0  0  0  0  0  0
  -20.6590  -27.9370   22.9200 C   0  0  0  0  0  3  0  0  0  0  0  0
  -20.8540  -26.5520   22.2610 C   0  0  0  0  0  2  0  0  0  0  0  0
  -19.7770  -26.2210   21.2230 C   0  0  0  0  0  2  0  0  0  0  0  0
  -18.3880  -26.2420   21.8650 C   0  0  0  0  0  2  0  0  0  0  0  0
  -19.1900  -28.3390   23.0980 C   0  0  0  0  0  0  0  0  0  0  0  0
  -18.8920  -29.5510   23.7580 C   0  0  0  0  0  3  0  0  0  0  0  0
  -17.5580  -29.9600   23.9430 C   0  0  0  0  0  3  0  0  0  0  0  0
  -16.5050  -29.1530   23.4780 C   0  0  0  0  0  3  0  0  0  0  0  0
  -16.7890  -27.9420   22.8210 C   0  0  0  0  0  3  0  0  0  0  0  0
  -25.7200  -32.3350   23.8210 C   0  0  0  0  0  3  0  0  0  0  0  0
  -26.2000  -31.5960   25.1300 C   0  0  1  0  0  0  0  0  0  0  0  0
  -25.0770  -31.3790   26.1690 C   0  0  0  0  0  1  0  0  0  0  0  0
  -26.7990  -30.2120   24.7850 C   0  0  0  0  0  1  0  0  0  0  0  0
  -27.3280  -32.4100   25.8080 C   0  0  0  0  0  1  0  0  0  0  0  0
  -25.3920  -33.7380   24.1060 N   0  0  0  0  0  0  0  0  0  0  0  0
  -25.7560  -34.7750   23.3400 C   0  0  0  0  0  0  0  0  0  0  0  0
  -26.4740  -34.6520   22.3440 O   0  0  0  0  0  0  0  0  0  0  0  0
  -24.7600  -33.9070   24.8750 H   0  0  0  0  0  0  0  0  0  0  0  0
  -24.0280  -36.5410   22.8720 C   0  0  0  0  0  1  0  0  0  0  0  0
  -25.2400  -36.1700   23.7410 C   0  0  0  0  0  3  0  0  0  0  0  0
  -27.3250  -37.1040   24.6430 C   0  0  0  0  0  1  0  0  0  0  0  0
  -26.2690  -37.2280   23.6420 N   0  0  0  0  0  0  0  0  0  0  0  0
  -25.8480  -38.1490   23.7380 H   0  0  0  0  0  0  0  0  0  0  0  0
  1  2  1  0
  1 11  2  0
  3  5  1  0
  4  9  1  0
  4  7  1  0
  5 10  1  0
  7 21  1  0
  7  1  1  0
  8  6  1  0
  8  2  1  0
  9  3  1  0
  9  8  1  0
 10 12  1  6
 10 51  1  0
 10  6  1  0
 13 21  1  0
 14 19  1  0
 15 16  1  0
 15 14  1  0
 17 16  1  0
 17 26  1  0
 17 18  1  0
 19 13  1  0
 19 18  1  0
 20 13  2  0
 21 22  1  0
 23 24  2  0
 24 43  1  0
 25 28  1  0
 25 24  1  0
 26 27  1  0
 26 23  1  0
 27 25  2  0
 28 29  1  0
 29 30  2  0
 31 34  1  0
 31 30  1  0
 32 31  2  0
 33 32  1  0
 33 28  2  0
 34 35  1  0
 35 40  2  0
 35 36  1  0
 36 37  2  0
 37 38  1  0
 38 42  1  0
 39 38  2  0
 40 39  1  0
 41 40  1  0
 43 44  1  0
 44 46  1  0
 44 47  1  0
 45 43  2  0
 48 23  1  0
 48 49  1  0
 50 48  1  0
 52 53  1  0
 52 51  1  0
 54 56  1  0
 54 53  1  0
 55 66  2  0
 56 61  1  0
 57 65  1  0
 57 67  1  0
 58 64  1  0
 58 60  1  0
 59 65  1  0
 60 59  1  0
 61 60  2  0
 62 63  1  0
 62 56  2  0
 63 58  2  0
 64 57  1  0
 65 55  1  0
 67 69  2  0
 68 67  1  0
 70 68  1  0
 71 80  2  0
 71 76  1  0
 72 68  1  0
 72 76  1  0
 73 72  1  0
 74 75  1  0
 74 73  1  0
 75 71  1  0
 76 77  2  0
 77 78  1  0
 79 78  2  0
 80 79  1  0
 81 55  1  0
 81 86  1  0
 81 82  1  0
 82 85  1  1
 82 83  1  0
 84 82  1  0
 86 89  1  0
 87 91  1  0
 87 86  1  0
 88 87  2  0
 91 90  1  0
 93 94  1  0
 93 91  1  0
 93 92  1  0
M  ISO  4  13 100  21 100  53 101  54 101
M  END
>  <TORSDO>  (45) 
F 19

>  <SCORE>  (45) 
-12.599

>  <name>  (45) 
44

>  <ligand_id>  (45) 
44

>  <original_smiles>  (45) 
[H]c1c([H])c([H])c2c(c1[H])C([H])([H])C([H])([H])C([H])([H])C2([H])N([H])C(=O)C1([H])N(C(=O)C([H])(N([H])C(=O)C([H])(N([H])C([H])([H])[H])C([H])([H])[H])C(C([H])([H])[H])(C([H])([H])[H])C([H])([H])[H])C([H])([H])c2c([H])c(OC([H])([H])C([H])([H])C([H])([H])[N+]3([H])C([H])([H])C([H])([H])C4([H])C([H])([H])C([H])(N([H])C(=O)N5C([H])([H])C([H])([H])C([H])([H])C([H])(n6nc(-c7c([H])c([H])c(Oc8c([H])c([H])c(F)c([H])c8F)c([H])c7[H])c(C(=O)N([H])[H])c6N([H])[H])C5([H])[H])C(=O)C([H])([H])C4([H])C3([H])[H])c([H])c([H])c2C1([H])[H]

>  <smiles>  (45) 
[H]c1c([H])c([H])c2c(c1[H])C([H])([H])C([H])([H])C([H])([H])C2([H])N([H])C(=O)C1([H])N(C(=O)C([H])(N([H])C(=O)C([H])(N([H])C([H])([H])[H])C([H])([H])[H])C(C([H])([H])[H])(C([H])([H])[H])C([H])([H])[H])C([H])([H])c2c([H])c(OC([H])([H])C([H])([H])C([H])([H])[N+]3([H])C([H])([H])C([H])([H])C4([H])C([H])([H])C([H])(N([H])C(=O)N5C([H])([H])C([H])([H])C([H])([H])C([H])(n6nc(-c7c([H])c([H])c(Oc8c([H])c([H])c(F)c([H])c8F)c([H])c7[H])c(C(=O)N([H])[H])c6N([H])[H])C5([H])[H])C(=O)C([H])([H])C4([H])C3([H])[H])c([H])c([H])c2C1([H])[H]

$$$$
45:0:0
     RDKit          3D

 97106  0  0  1  0  0  0  0  0999 V2000
  -27.0020  -24.2720   21.3120 C   0  0  0  0  0  2  0  0  0  0  0  0
  -26.5030  -23.0510   20.5280 C   0  0  0  0  0  2  0  0  0  0  0  0
  -29.3510  -23.5170   20.9760 C   0  0  0  0  0  2  0  0  0  0  0  0
  -28.3780  -24.6950   20.7680 C   0  0  0  0  0  3  0  0  0  0  0  0
  -27.5100  -21.8730   20.5540 C   0  0  0  0  0  3  0  0  0  0  0  0
  -28.8840  -22.3330   20.2190 N   0  0  0  0  0  4  0  0  0  0  0  0
  -29.5310  -21.5740   20.3760 H   0  0  0  0  0  0  0  0  0  0  0  0
  -28.9270  -22.5650   19.2410 H   0  0  0  0  0  0  0  0  0  0  0  0
  -28.8830  -26.0310   21.3550 C   0  0  0  0  0  2  0  0  0  0  0  0
  -28.7490  -27.0730   20.3890 O   0  0  0  0  0  0  0  0  0  0  0  0
  -24.6720  -31.9840   23.5190 C   0  0  0  0  0  0  0  0  0  0  0  0
  -27.5530  -27.7440   20.4090 C   0  0  0  0  0  0  0  0  0  0  0  0
  -23.5660  -30.6070   21.7850 C   0  0  0  0  0  3  0  0  0  0  0  0
  -25.1130  -29.1510   20.3750 C   0  0  0  0  0  0  0  0  0  0  0  0
  -26.0810  -31.0420   21.6980 C   0  0  0  0  0  2  0  0  0  0  0  0
  -26.2260  -29.6930   21.0320 C   0  0  0  0  0  0  0  0  0  0  0  0
  -27.4490  -28.9890   21.0580 C   0  0  0  0  0  3  0  0  0  0  0  0
  -26.4370  -27.2150   19.7300 C   0  0  0  0  0  3  0  0  0  0  0  0
  -25.2100  -27.9060   19.7280 C   0  0  0  0  0  3  0  0  0  0  0  0
  -23.8440  -29.9720   20.3950 C   0  0  0  0  0  2  0  0  0  0  0  0
  -24.7870  -31.2240   22.3940 N   0  0  0  0  0  0  0  0  0  0  0  0
  -23.5660  -32.2110   24.0270 O   0  0  0  0  0  0  0  0  0  0  0  0
  -22.9050  -29.5410   22.6870 C   0  0  0  0  0  0  0  0  0  0  0  0
  -21.6070  -29.2860   22.4570 N   0  0  0  0  0  0  0  0  0  0  0  0
  -23.5590  -28.9490   23.5480 O   0  0  0  0  0  0  0  0  0  0  0  0
  -21.1420  -29.8210   21.7370 H   0  0  0  0  0  0  0  0  0  0  0  0
  -18.2930  -27.8630   22.6450 C   0  0  0  0  0  0  0  0  0  0  0  0
  -20.7890  -28.2960   23.1540 C   0  0  0  0  0  3  0  0  0  0  0  0
  -21.0430  -26.8730   22.6030 C   0  0  0  0  0  2  0  0  0  0  0  0
  -20.0660  -26.4750   21.4920 C   0  0  0  0  0  2  0  0  0  0  0  0
  -18.6230  -26.5260   22.0020 C   0  0  0  0  0  2  0  0  0  0  0  0
  -19.3120  -28.7000   23.1720 C   0  0  0  0  0  0  0  0  0  0  0  0
  -18.9530  -29.9480   23.7280 C   0  0  0  0  0  3  0  0  0  0  0  0
  -17.6080  -30.3590   23.7670 C   0  0  0  0  0  3  0  0  0  0  0  0
  -16.6020  -29.5190   23.2590 C   0  0  0  0  0  3  0  0  0  0  0  0
  -16.9450  -28.2740   22.7000 C   0  0  0  0  0  3  0  0  0  0  0  0
  -25.9190  -32.6200   24.2090 C   0  0  0  0  0  3  0  0  0  0  0  0
  -25.6270  -34.0420   24.4280 N   0  0  0  0  0  0  0  0  0  0  0  0
  -26.0440  -35.0340   23.6300 C   0  0  0  0  0  0  0  0  0  0  0  0
  -26.7880  -34.8500   22.6630 O   0  0  0  0  0  0  0  0  0  0  0  0
  -24.9740  -34.2600   25.1670 H   0  0  0  0  0  0  0  0  0  0  0  0
  -24.3950  -36.8360   23.0280 C   0  0  0  0  0  1  0  0  0  0  0  0
  -25.5600  -36.4590   23.9580 C   0  0  0  0  0  3  0  0  0  0  0  0
  -27.6510  -37.3480   24.8910 C   0  0  0  0  0  1  0  0  0  0  0  0
  -26.6240  -37.4810   23.8590 N   0  0  0  0  0  0  0  0  0  0  0  0
  -26.2330  -38.4170   23.9180 H   0  0  0  0  0  0  0  0  0  0  0  0
  -26.3100  -31.9130   25.5650 C   0  0  1  0  0  0  0  0  0  0  0  0
  -25.1150  -31.6960   26.5210 C   0  0  0  0  0  1  0  0  0  0  0  0
  -26.9540  -30.5330   25.2960 C   0  0  0  0  0  1  0  0  0  0  0  0
  -27.3710  -32.7570   26.3100 C   0  0  0  0  0  1  0  0  0  0  0  0
  -27.0280  -20.7690   19.5830 C   0  0  0  0  0  2  0  0  0  0  0  0
  -27.4560  -19.3230   19.9120 C   0  0  0  0  0  2  0  0  0  0  0  0
  -30.7380  -18.8310   17.9390 C   0  0  0  0  0  3  0  0  0  0  0  0
  -29.4320  -19.2440   18.2660 C   0  0  0  0  0  3  0  0  0  0  0  0
  -31.4760  -18.0440   18.8450 C   0  0  0  0  0  3  0  0  0  0  0  0
  -29.6150  -18.1160   20.4180 C   0  0  0  0  0  3  0  0  0  0  0  0
  -28.8710  -18.9120   19.5220 C   0  0  0  0  0  0  0  0  0  0  0  0
  -30.9080  -17.6690   20.0780 C   0  0  0  0  0  0  0  0  0  0  0  0
  -31.6510  -16.7200   20.9990 C   0  0  0  0  0  2  0  0  0  0  0  0
  -31.5550  -14.4460   19.9810 C   0  0  0  0  0  0  0  0  0  0  0  0
  -31.0720  -12.2500   18.9580 C   0  0  0  0  0  2  0  0  0  0  0  0
  -30.0780  -12.3980   17.7910 C   0  0  0  0  0  2  0  0  0  0  0  0
  -28.6250  -12.3620   18.3010 C   0  0  0  0  0  2  0  0  0  0  0  0
  -28.3900  -13.3250   19.4940 C   0  0  0  0  0  3  0  0  0  0  0  0
  -29.4810  -13.1340   20.5700 C   0  0  0  0  0  2  0  0  0  0  0  0
  -30.8010  -13.3170   19.9330 N   0  0  0  0  0  0  0  0  0  0  0  0
  -32.5540  -14.6260   19.2780 O   0  0  0  0  0  0  0  0  0  0  0  0
  -31.1350  -15.3640   20.8600 N   0  0  0  0  0  0  0  0  0  0  0  0
  -30.3220  -15.1270   21.4060 H   0  0  0  0  0  0  0  0  0  0  0  0
  -26.1340  -14.1290   20.4410 C   0  0  0  0  0  0  0  0  0  0  0  0
  -25.0120  -13.4480   20.8320 C   0  0  0  0  0  0  0  0  0  0  0  0
  -25.3070  -12.0630   20.6490 C   0  0  0  0  0  0  0  0  0  0  0  0
  -27.0500  -13.1620   20.0530 N   0  0  0  0  0  0  0  0  0  0  0  0
  -26.5560  -11.9100   20.2310 N   0  0  0  0  0  0  0  0  0  0  0  0
  -24.4540  -10.8750   20.7950 C   0  0  0  0  0  0  0  0  0  0  0  0
  -24.8230   -9.7990   21.6330 C   0  0  0  0  0  3  0  0  0  0  0  0
  -23.9770   -8.6780   21.7690 C   0  0  0  0  0  3  0  0  0  0  0  0
  -22.7500   -8.6240   21.0670 C   0  0  0  0  0  0  0  0  0  0  0  0
  -22.4000   -9.6880   20.2170 C   0  0  0  0  0  3  0  0  0  0  0  0
  -23.2440  -10.8010   20.0780 C   0  0  0  0  0  3  0  0  0  0  0  0
  -21.8780   -7.5640   21.1190 O   0  0  0  0  0  0  0  0  0  0  0  0
  -21.7520   -6.7900   22.2450 C   0  0  0  0  0  0  0  0  0  0  0  0
  -21.4030   -7.3450   23.4950 C   0  0  0  0  0  3  0  0  0  0  0  0
  -21.2150   -6.5050   24.6110 C   0  0  0  0  0  3  0  0  0  0  0  0
  -21.3650   -5.1110   24.4770 C   0  0  0  0  0  0  0  0  0  0  0  0
  -21.7060   -4.5570   23.2320 C   0  0  0  0  0  3  0  0  0  0  0  0
  -21.8950   -5.3940   22.1180 C   0  0  0  0  0  0  0  0  0  0  0  0
  -22.2030   -4.8510   20.9150 F   0  0  0  0  0  0  0  0  0  0  0  0
  -21.1770   -4.3040   25.5460 F   0  0  0  0  0  0  0  0  0  0  0  0
  -23.7040  -14.0490   21.2620 C   0  0  0  0  0  0  0  0  0  0  0  0
  -22.9810  -13.3720   22.1490 N   0  0  0  0  0  0  0  0  0  0  0  0
  -23.3390  -15.1490   20.8500 O   0  0  0  0  0  0  0  0  0  0  0  0
  -23.2890  -12.4780   22.5020 H   0  0  0  0  0  0  0  0  0  0  0  0
  -22.1060  -13.7530   22.4780 H   0  0  0  0  0  0  0  0  0  0  0  0
  -26.4470  -15.4830   20.3670 N   0  0  0  0  0  0  0  0  0  0  0  0
  -25.7780  -16.2090   20.5970 H   0  0  0  0  0  0  0  0  0  0  0  0
  -27.3300  -15.8490   20.0330 H   0  0  0  0  0  0  0  0  0  0  0  0
  2  5  1  0
  2  1  1  0
  4  3  1  0
  4  1  1  0
  4  9  1  0
  5 51  1  0
  6  7  1  0
  6  5  1  0
  6  3  1  0
  8  6  1  0
 10 12  1  0
 10  9  1  0
 11 22  2  0
 12 17  1  0
 13 21  1  0
 13 23  1  0
 14 20  1  0
 14 16  1  0
 15 21  1  0
 16 17  2  0
 16 15  1  0
 18 12  2  0
 19 18  1  0
 19 14  2  0
 20 13  1  0
 21 11  1  0
 23 25  2  0
 24 23  1  0
 26 24  1  0
 27 36  2  0
 27 32  1  0
 28 24  1  0
 28 32  1  0
 29 28  1  0
 30 31  1  0
 30 29  1  0
 31 27  1  0
 32 33  2  0
 33 34  1  0
 35 34  2  0
 36 35  1  0
 37 11  1  0
 37 38  1  0
 37 47  1  0
 38 41  1  0
 39 43  1  0
 39 38  1  0
 40 39  2  0
 43 42  1  0
 45 46  1  0
 45 43  1  0
 45 44  1  0
 47 50  1  1
 47 48  1  0
 49 47  1  0
 51 52  1  0
 53 54  2  0
 53 55  1  0
 54 57  1  0
 55 58  2  0
 57 52  1  0
 57 56  2  0
 58 56  1  0
 58 59  1  0
 60 68  1  0
 61 66  1  0
 62 63  1  0
 62 61  1  0
 64 63  1  0
 64 73  1  0
 64 65  1  0
 66 60  1  0
 66 65  1  0
 67 60  2  0
 68 59  1  0
 68 69  1  0
 70 71  2  0
 71 90  1  0
 72 75  1  0
 72 71  1  0
 73 74  1  0
 73 70  1  0
 74 72  2  0
 75 76  1  0
 76 77  2  0
 78 81  1  0
 78 77  1  0
 79 78  2  0
 80 79  1  0
 80 75  2  0
 81 82  1  0
 82 83  1  0
 83 84  2  0
 85 84  1  0
 85 89  1  0
 86 85  2  0
 87 82  2  0
 87 86  1  0
 88 87  1  0
 90 91  1  0
 91 94  1  0
 91 93  1  0
 92 90  2  0
 95 70  1  0
 95 96  1  0
 97 95  1  0
M  ISO  4   9 101  10 101  60 100  68 100
M  END
>  <TORSDO>  (46) 
F 21

>  <SCORE>  (46) 
-12.097

>  <name>  (46) 
45

>  <ligand_id>  (46) 
45

>  <original_smiles>  (46) 
[H]c1c([H])c([H])c2c(c1[H])C([H])([H])C([H])([H])C([H])([H])C2([H])N([H])C(=O)C1([H])N(C(=O)C([H])(N([H])C(=O)C([H])(N([H])C([H])([H])[H])C([H])([H])[H])C(C([H])([H])[H])(C([H])([H])[H])C([H])([H])[H])C([H])([H])c2c([H])c(OC([H])([H])C3([H])C([H])([H])C([H])([H])C([H])(C([H])([H])C([H])([H])c4c([H])c([H])c([H])c(C([H])([H])N([H])C(=O)N5C([H])([H])C([H])([H])C([H])([H])C([H])(n6nc(-c7c([H])c([H])c(Oc8c([H])c([H])c(F)c([H])c8F)c([H])c7[H])c(C(=O)N([H])[H])c6N([H])[H])C5([H])[H])c4[H])[N+]([H])([H])C3([H])[H])c([H])c([H])c2C1([H])[H]

>  <smiles>  (46) 
[H]c1c([H])c([H])c2c(c1[H])C([H])([H])C([H])([H])C([H])([H])C2([H])N([H])C(=O)C1([H])N(C(=O)C([H])(N([H])C(=O)C([H])(N([H])C([H])([H])[H])C([H])([H])[H])C(C([H])([H])[H])(C([H])([H])[H])C([H])([H])[H])C([H])([H])c2c([H])c(OC([H])([H])C3([H])C([H])([H])C([H])([H])C([H])(C([H])([H])C([H])([H])c4c([H])c([H])c([H])c(C([H])([H])N([H])C(=O)N5C([H])([H])C([H])([H])C([H])([H])C([H])(n6nc(-c7c([H])c([H])c(Oc8c([H])c([H])c(F)c([H])c8F)c([H])c7[H])c(C(=O)N([H])[H])c6N([H])[H])C5([H])[H])c4[H])[N+]([H])([H])C3([H])[H])c([H])c([H])c2C1([H])[H]

$$$$
46:0:0
     RDKit          3D

 98106  0  0  1  0  0  0  0  0999 V2000
  -29.1840  -22.7190   22.6070 C   0  0  0  0  0  2  0  0  0  0  0  0
  -29.6630  -24.0400   21.9830 C   0  0  0  0  0  2  0  0  0  0  0  0
  -27.7070  -22.3890   22.2920 C   0  0  0  0  0  2  0  0  0  0  0  0
  -28.5110  -25.0560   21.9080 C   0  0  0  0  0  3  0  0  0  0  0  0
  -27.3160  -24.5250   21.0570 C   0  0  0  0  0  3  0  0  0  0  0  0
  -27.2090  -23.0340   21.0450 N   0  0  1  0  0  4  0  0  0  0  0  0
  -26.2020  -22.9150   21.0210 H   0  0  0  0  0  0  0  0  0  0  0  0
  -29.0170  -26.4890   21.5840 C   0  0  0  0  0  2  0  0  0  0  0  0
  -28.8220  -26.9160   20.2270 O   0  0  0  0  0  0  0  0  0  0  0  0
  -24.7060  -31.8010   23.2650 C   0  0  0  0  0  0  0  0  0  0  0  0
  -27.6980  -27.6940   20.0910 C   0  0  0  0  0  0  0  0  0  0  0  0
  -23.6640  -30.4720   21.4570 C   0  0  0  0  0  3  0  0  0  0  0  0
  -25.2620  -29.1020   20.0180 C   0  0  0  0  0  0  0  0  0  0  0  0
  -26.1730  -30.9390   21.4520 C   0  0  0  0  0  2  0  0  0  0  0  0
  -26.3500  -29.6280   20.7250 C   0  0  0  0  0  0  0  0  0  0  0  0
  -27.5740  -28.9310   20.7570 C   0  0  0  0  0  3  0  0  0  0  0  0
  -26.6200  -27.2050   19.3300 C   0  0  0  0  0  3  0  0  0  0  0  0
  -25.3910  -27.8930   19.3110 C   0  0  0  0  0  3  0  0  0  0  0  0
  -23.9810  -29.8970   20.0500 C   0  0  0  0  0  2  0  0  0  0  0  0
  -24.8600  -31.0790   22.1190 N   0  0  0  0  0  0  0  0  0  0  0  0
  -23.5830  -32.0010   23.7490 O   0  0  0  0  0  0  0  0  0  0  0  0
  -22.9930  -29.3650   22.3030 C   0  0  0  0  0  0  0  0  0  0  0  0
  -21.6660  -29.2290   22.1570 N   0  0  0  0  0  0  0  0  0  0  0  0
  -23.6600  -28.6400   23.0450 O   0  0  0  0  0  0  0  0  0  0  0  0
  -21.1890  -29.8790   21.5500 H   0  0  0  0  0  0  0  0  0  0  0  0
  -18.2510  -28.1450   22.6010 C   0  0  0  0  0  0  0  0  0  0  0  0
  -20.8260  -28.2260   22.8150 C   0  0  0  0  0  3  0  0  0  0  0  0
  -20.8280  -26.8920   22.0350 C   0  0  0  0  0  2  0  0  0  0  0  0
  -19.6830  -26.7870   21.0230 C   0  0  0  0  0  2  0  0  0  0  0  0
  -18.3330  -26.9010   21.7340 C   0  0  0  0  0  2  0  0  0  0  0  0
  -19.4210  -28.7780   23.0970 C   0  0  0  0  0  0  0  0  0  0  0  0
  -19.2940  -29.9520   23.8680 C   0  0  0  0  0  3  0  0  0  0  0  0
  -18.0250  -30.4940   24.1470 C   0  0  0  0  0  3  0  0  0  0  0  0
  -16.8690  -29.8560   23.6670 C   0  0  0  0  0  3  0  0  0  0  0  0
  -16.9810  -28.6820   22.9030 C   0  0  0  0  0  3  0  0  0  0  0  0
  -25.9250  -32.4280   24.0120 C   0  0  0  0  0  3  0  0  0  0  0  0
  -26.3430  -31.6290   25.3090 C   0  0  1  0  0  0  0  0  0  0  0  0
  -25.1660  -31.3510   26.2730 C   0  0  0  0  0  1  0  0  0  0  0  0
  -26.9740  -30.2690   24.9270 C   0  0  0  0  0  1  0  0  0  0  0  0
  -27.4190  -32.4170   26.0880 C   0  0  0  0  0  1  0  0  0  0  0  0
  -25.5720  -33.8150   24.3460 N   0  0  0  0  0  0  0  0  0  0  0  0
  -25.9450  -34.8860   23.6340 C   0  0  0  0  0  0  0  0  0  0  0  0
  -26.6890  -34.8130   22.6510 O   0  0  0  0  0  0  0  0  0  0  0  0
  -24.9220  -33.9430   25.1060 H   0  0  0  0  0  0  0  0  0  0  0  0
  -24.2060  -36.6510   23.2040 C   0  0  0  0  0  1  0  0  0  0  0  0
  -25.4030  -36.2570   24.0820 C   0  0  0  0  0  3  0  0  0  0  0  0
  -27.4660  -37.1650   25.0560 C   0  0  0  0  0  1  0  0  0  0  0  0
  -26.4220  -37.3270   24.0490 N   0  0  0  0  0  0  0  0  0  0  0  0
  -25.9900  -38.2390   24.1840 H   0  0  0  0  0  0  0  0  0  0  0  0
  -25.9490  -25.0980   21.5020 C   0  0  0  0  0  2  0  0  0  0  0  0
  -23.6930  -24.4570   21.0540 C   0  0  0  0  0  0  0  0  0  0  0  0
  -22.6220  -23.8950   20.1360 C   0  0  0  0  0  1  0  0  0  0  0  0
  -23.2210  -24.8070   22.4570 C   0  0  0  0  0  1  0  0  0  0  0  0
  -24.8910  -24.5740   20.6330 N   0  0  0  0  0  0  0  0  0  0  0  0
  -27.6690  -22.4190   19.7700 C   0  0  0  0  0  2  0  0  0  0  0  0
  -27.4530  -20.8920   19.6560 C   0  0  0  0  0  2  0  0  0  0  0  0
  -28.7160  -20.0670   19.9680 C   0  0  0  0  0  2  0  0  0  0  0  0
  -28.4960  -18.5550   19.9350 C   0  0  0  0  0  2  0  0  0  0  0  0
  -29.6880  -17.8170   20.5730 C   0  0  0  0  0  2  0  0  0  0  0  0
  -29.5070  -16.3040   20.4780 C   0  0  0  0  0  2  0  0  0  0  0  0
  -31.2120  -14.5600   20.3250 C   0  0  0  0  0  0  0  0  0  0  0  0
  -30.8180  -12.3740   19.2410 C   0  0  0  0  0  2  0  0  0  0  0  0
  -29.8910  -12.5350   18.0210 C   0  0  0  0  0  2  0  0  0  0  0  0
  -28.4130  -12.4260   18.4510 C   0  0  0  0  0  2  0  0  0  0  0  0
  -28.0810  -13.3670   19.6360 C   0  0  0  0  0  3  0  0  0  0  0  0
  -29.1240  -13.2030   20.7670 C   0  0  0  0  0  2  0  0  0  0  0  0
  -30.4670  -13.4280   20.2020 N   0  0  0  0  0  0  0  0  0  0  0  0
  -32.3380  -14.6910   19.8410 O   0  0  0  0  0  0  0  0  0  0  0  0
  -30.6630  -15.5760   20.9990 N   0  0  0  0  0  0  0  0  0  0  0  0
  -31.3570  -16.2090   21.3680 H   0  0  0  0  0  0  0  0  0  0  0  0
  -25.7310  -14.1150   20.3770 C   0  0  0  0  0  0  0  0  0  0  0  0
  -24.6190  -13.4020   20.7270 C   0  0  0  0  0  0  0  0  0  0  0  0
  -24.9990  -12.0250   20.6620 C   0  0  0  0  0  0  0  0  0  0  0  0
  -26.7190  -13.1770   20.1170 N   0  0  0  0  0  0  0  0  0  0  0  0
  -26.2840  -11.9160   20.3550 N   0  0  0  0  0  0  0  0  0  0  0  0
  -24.2040  -10.8040   20.8060 C   0  0  0  0  0  0  0  0  0  0  0  0
  -24.5820   -9.7880   21.7130 C   0  0  0  0  0  3  0  0  0  0  0  0
  -23.7950   -8.6260   21.8570 C   0  0  0  0  0  3  0  0  0  0  0  0
  -22.6150   -8.4740   21.0910 C   0  0  0  0  0  0  0  0  0  0  0  0
  -22.2540   -9.4760   20.1720 C   0  0  0  0  0  3  0  0  0  0  0  0
  -23.0430  -10.6290   20.0260 C   0  0  0  0  0  3  0  0  0  0  0  0
  -21.8010   -7.3690   21.1440 O   0  0  0  0  0  0  0  0  0  0  0  0
  -21.6950   -6.6090   22.2790 C   0  0  0  0  0  0  0  0  0  0  0  0
  -21.2950   -7.1650   23.5140 C   0  0  0  0  0  3  0  0  0  0  0  0
  -21.1330   -6.3360   24.6410 C   0  0  0  0  0  3  0  0  0  0  0  0
  -21.3580   -4.9490   24.5320 C   0  0  0  0  0  0  0  0  0  0  0  0
  -21.7550   -4.3950   23.3030 C   0  0  0  0  0  3  0  0  0  0  0  0
  -21.9180   -5.2220   22.1790 C   0  0  0  0  0  0  0  0  0  0  0  0
  -22.2780   -4.6780   20.9910 F   0  0  0  0  0  0  0  0  0  0  0  0
  -21.1980   -4.1510   25.6120 F   0  0  0  0  0  0  0  0  0  0  0  0
  -23.2490  -13.9490   21.0160 C   0  0  0  0  0  0  0  0  0  0  0  0
  -22.4870  -13.2770   21.8690 N   0  0  0  0  0  0  0  0  0  0  0  0
  -22.8650  -15.0080   20.5170 O   0  0  0  0  0  0  0  0  0  0  0  0
  -22.8120  -12.4190   22.2910 H   0  0  0  0  0  0  0  0  0  0  0  0
  -21.5650  -13.6220   22.1050 H   0  0  0  0  0  0  0  0  0  0  0  0
  -25.9740  -15.4800   20.2390 N   0  0  0  0  0  0  0  0  0  0  0  0
  -25.2310  -16.1600   20.3560 H   0  0  0  0  0  0  0  0  0  0  0  0
  -26.8430  -15.8900   19.9320 H   0  0  0  0  0  0  0  0  0  0  0  0
  2  1  1  0
  3  1  1  0
  4  8  1  0
  4  2  1  0
  5 50  1  0
  5  4  1  0
  6  5  1  0
  6  3  1  0
  6  7  1  1
  9  8  1  0
 10 21  2  0
 11  9  1  0
 11 16  1  0
 12 20  1  0
 12 22  1  0
 13 19  1  0
 13 15  1  0
 14 20  1  0
 15 16  2  0
 15 14  1  0
 17 11  2  0
 18 17  1  0
 18 13  2  0
 19 12  1  0
 20 10  1  0
 22 24  2  0
 23 22  1  0
 25 23  1  0
 26 35  2  0
 26 31  1  0
 27 23  1  0
 27 31  1  0
 28 27  1  0
 29 30  1  0
 29 28  1  0
 30 26  1  0
 31 32  2  0
 32 33  1  0
 34 33  2  0
 35 34  1  0
 36 10  1  0
 36 41  1  0
 36 37  1  0
 37 40  1  1
 37 38  1  0
 39 37  1  0
 41 44  1  0
 42 46  1  0
 42 41  1  0
 43 42  2  0
 46 45  1  0
 48 46  1  0
 48 49  1  0
 48 47  1  0
 51 53  1  0
 52 51  1  0
 54 51  2  0
 54 50  1  0
 55  6  1  0
 56 55  1  0
 56 57  1  0
 58 57  1  0
 58 59  1  0
 60 59  1  0
 60 69  1  0
 61 69  1  0
 62 67  1  0
 63 64  1  0
 63 62  1  0
 65 64  1  0
 65 74  1  0
 65 66  1  0
 67 61  1  0
 67 66  1  0
 68 61  2  0
 69 70  1  0
 71 72  2  0
 72 91  1  0
 73 72  1  0
 73 76  1  0
 74 75  1  0
 74 71  1  0
 75 73  2  0
 76 77  1  0
 77 78  2  0
 79 82  1  0
 79 78  1  0
 80 79  2  0
 81 80  1  0
 81 76  2  0
 82 83  1  0
 83 84  1  0
 84 85  2  0
 86 85  1  0
 86 90  1  0
 87 86  2  0
 88 83  2  0
 88 87  1  0
 89 88  1  0
 91 92  1  0
 92 95  1  0
 92 94  1  0
 93 91  2  0
 96 97  1  0
 96 71  1  0
 98 96  1  0
M  ISO  4   8 101   9 101  61 100  69 100
M  END
>  <TORSDO>  (47) 
F 25

>  <SCORE>  (47) 
-11.735

>  <name>  (47) 
46

>  <ligand_id>  (47) 
46

>  <original_smiles>  (47) 
[H]c1c([H])c([H])c2c(c1[H])C([H])([H])C([H])([H])C([H])([H])C2([H])N([H])C(=O)C1([H])N(C(=O)C([H])(N([H])C(=O)C([H])(N([H])C([H])([H])[H])C([H])([H])[H])C(C([H])([H])[H])(C([H])([H])[H])C([H])([H])[H])C([H])([H])c2c([H])c(OC([H])([H])C3([H])C([H])([H])C([H])([H])C([H])([H])[N+]([H])(C([H])([H])C([H])([H])C([H])([H])C([H])([H])C([H])([H])C([H])([H])N([H])C(=O)N4C([H])([H])C([H])([H])C([H])([H])C([H])(n5nc(-c6c([H])c([H])c(Oc7c([H])c([H])c(F)c([H])c7F)c([H])c6[H])c(C(=O)N([H])[H])c5N([H])[H])C4([H])[H])C3([H])C([H])([H])N=C(C([H])([H])[H])C([H])([H])[H])c([H])c([H])c2C1([H])[H]

>  <smiles>  (47) 
[H]c1c([H])c([H])c2c(c1[H])C([H])([H])C([H])([H])C([H])([H])C2([H])N([H])C(=O)C1([H])N(C(=O)C([H])(N([H])C(=O)C([H])(N([H])C([H])([H])[H])C([H])([H])[H])C(C([H])([H])[H])(C([H])([H])[H])C([H])([H])[H])C([H])([H])c2c([H])c(OC([H])([H])C3([H])C([H])([H])C([H])([H])C([H])([H])[N+]([H])(C([H])([H])C([H])([H])C([H])([H])C([H])([H])C([H])([H])C([H])([H])N([H])C(=O)N4C([H])([H])C([H])([H])C([H])([H])C([H])(n5nc(-c6c([H])c([H])c(Oc7c([H])c([H])c(F)c([H])c7F)c([H])c6[H])c(C(=O)N([H])[H])c5N([H])[H])C4([H])[H])C3([H])C([H])([H])N=C(C([H])([H])[H])C([H])([H])[H])c([H])c([H])c2C1([H])[H]

$$$$
47:0:0
     RDKit          3D

 94102  0  0  1  0  0  0  0  0999 V2000
  -29.7480  -22.9980   22.7810 C   0  0  0  0  0  2  0  0  0  0  0  0
  -28.6130  -22.8020   20.4950 C   0  0  0  0  0  2  0  0  0  0  0  0
  -29.4960  -21.4910   22.9580 C   0  0  0  0  0  2  0  0  0  0  0  0
  -28.4020  -21.3140   20.7920 C   0  0  0  0  0  2  0  0  0  0  0  0
  -28.7870  -23.6620   21.7660 C   0  0  0  0  0  3  0  0  0  0  0  0
  -29.5190  -20.8310   21.6330 N   0  0  2  0  0  4  0  0  0  0  0  0
  -30.3570  -21.1450   21.1710 H   0  0  0  0  0  0  0  0  0  0  0  0
  -29.3090  -25.0340   21.3180 C   0  0  0  0  0  2  0  0  0  0  0  0
  -29.5530  -26.0760   22.4190 C   0  0  0  0  0  2  0  0  0  0  0  0
  -30.2630  -27.3070   21.8340 C   0  0  0  0  0  2  0  0  0  0  0  0
  -29.7250  -27.6180   20.5480 O   0  0  0  0  0  0  0  0  0  0  0  0
  -24.7730  -31.8460   23.4220 C   0  0  0  0  0  0  0  0  0  0  0  0
  -28.4550  -28.1370   20.5080 C   0  0  0  0  0  0  0  0  0  0  0  0
  -23.9970  -30.3480   21.6060 C   0  0  0  0  0  3  0  0  0  0  0  0
  -25.8330  -29.1520   20.3050 C   0  0  0  0  0  0  0  0  0  0  0  0
  -26.4150  -31.1570   21.6880 C   0  0  0  0  0  2  0  0  0  0  0  0
  -26.8030  -29.8530   21.0290 C   0  0  0  0  0  0  0  0  0  0  0  0
  -28.1110  -29.3530   21.1350 C   0  0  0  0  0  3  0  0  0  0  0  0
  -27.4760  -27.4380   19.7740 C   0  0  0  0  0  3  0  0  0  0  0  0
  -26.1620  -27.9380   19.6740 C   0  0  0  0  0  3  0  0  0  0  0  0
  -24.4580  -29.7740   20.2380 C   0  0  0  0  0  2  0  0  0  0  0  0
  -25.0710  -31.1300   22.3010 N   0  0  0  0  0  0  0  0  0  0  0  0
  -23.6130  -31.9030   23.8520 O   0  0  0  0  0  0  0  0  0  0  0  0
  -23.4380  -29.1870   22.4580 C   0  0  0  0  0  0  0  0  0  0  0  0
  -22.1910  -28.7830   22.1650 N   0  0  0  0  0  0  0  0  0  0  0  0
  -24.1270  -28.6520   23.3310 O   0  0  0  0  0  0  0  0  0  0  0  0
  -21.6890  -29.2800   21.4440 H   0  0  0  0  0  0  0  0  0  0  0  0
  -19.0460  -27.0140   22.2280 C   0  0  0  0  0  0  0  0  0  0  0  0
  -21.4750  -27.6800   22.8020 C   0  0  0  0  0  3  0  0  0  0  0  0
  -21.8840  -26.3210   22.1910 C   0  0  0  0  0  2  0  0  0  0  0  0
  -20.9700  -25.8720   21.0470 C   0  0  0  0  0  2  0  0  0  0  0  0
  -19.5230  -25.7510   21.5330 C   0  0  0  0  0  2  0  0  0  0  0  0
  -19.9630  -27.9290   22.8110 C   0  0  0  0  0  0  0  0  0  0  0  0
  -19.4690  -29.1060   23.4130 C   0  0  0  0  0  3  0  0  0  0  0  0
  -18.0870  -29.3730   23.4420 C   0  0  0  0  0  3  0  0  0  0  0  0
  -17.1810  -28.4550   22.8790 C   0  0  0  0  0  3  0  0  0  0  0  0
  -17.6610  -27.2780   22.2790 C   0  0  0  0  0  3  0  0  0  0  0  0
  -25.8660  -32.6440   24.2000 C   0  0  0  0  0  3  0  0  0  0  0  0
  -25.3660  -34.0140   24.3830 N   0  0  0  0  0  0  0  0  0  0  0  0
  -25.7080  -35.0580   23.6160 C   0  0  0  0  0  0  0  0  0  0  0  0
  -26.5440  -34.9790   22.7120 O   0  0  0  0  0  0  0  0  0  0  0  0
  -24.6350  -34.1420   25.0670 H   0  0  0  0  0  0  0  0  0  0  0  0
  -23.8770  -36.6110   22.8760 C   0  0  0  0  0  1  0  0  0  0  0  0
  -25.0090  -36.4010   23.8940 C   0  0  0  0  0  3  0  0  0  0  0  0
  -26.8910  -37.5610   24.9620 C   0  0  0  0  0  1  0  0  0  0  0  0
  -25.9270  -37.5590   23.8650 N   0  0  0  0  0  0  0  0  0  0  0  0
  -25.4060  -38.4320   23.8950 H   0  0  0  0  0  0  0  0  0  0  0  0
  -26.2470  -31.9960   25.5870 C   0  0  1  0  0  0  0  0  0  0  0  0
  -25.0250  -31.6350   26.4630 C   0  0  0  0  0  1  0  0  0  0  0  0
  -27.0750  -30.7050   25.3770 C   0  0  0  0  0  1  0  0  0  0  0  0
  -27.1370  -32.9690   26.3960 C   0  0  0  0  0  1  0  0  0  0  0  0
  -29.6440  -19.3610   21.6810 C   0  0  0  0  0  2  0  0  0  0  0  0
  -31.0810  -18.9280   21.3490 C   0  0  0  0  0  2  0  0  0  0  0  0
  -31.2150  -17.4040   21.2860 C   0  0  0  0  0  2  0  0  0  0  0  0
  -32.4960  -16.9570   20.5670 C   0  0  0  0  0  2  0  0  0  0  0  0
  -32.7830  -15.4570   20.7250 C   0  0  0  0  0  2  0  0  0  0  0  0
  -31.4480  -14.0080   19.2150 C   0  0  0  0  0  0  0  0  0  0  0  0
  -30.8340  -11.7520   18.4760 C   0  0  0  0  0  2  0  0  0  0  0  0
  -29.7500  -11.6910   17.3920 C   0  0  0  0  0  2  0  0  0  0  0  0
  -28.3550  -11.6840   18.0310 C   0  0  0  0  0  2  0  0  0  0  0  0
  -28.1680  -12.8340   19.0520 C   0  0  0  0  0  3  0  0  0  0  0  0
  -29.3470  -12.9080   20.0510 C   0  0  0  0  0  2  0  0  0  0  0  0
  -30.6190  -12.9430   19.3050 N   0  0  0  0  0  0  0  0  0  0  0  0
  -32.1940  -14.2260   18.2560 O   0  0  0  0  0  0  0  0  0  0  0  0
  -31.6290  -14.6250   20.3870 N   0  0  0  0  0  0  0  0  0  0  0  0
  -31.0190  -14.3460   21.1410 H   0  0  0  0  0  0  0  0  0  0  0  0
  -26.0260  -13.7270   20.1730 C   0  0  0  0  0  0  0  0  0  0  0  0
  -24.9230  -13.0910   20.6770 C   0  0  0  0  0  0  0  0  0  0  0  0
  -25.1620  -11.6930   20.5050 C   0  0  0  0  0  0  0  0  0  0  0  0
  -26.8790  -12.7250   19.7370 N   0  0  0  0  0  0  0  0  0  0  0  0
  -26.3680  -11.4930   19.9890 N   0  0  0  0  0  0  0  0  0  0  0  0
  -24.2900  -10.5360   20.7530 C   0  0  0  0  0  0  0  0  0  0  0  0
  -24.6660   -9.5070   21.6460 C   0  0  0  0  0  3  0  0  0  0  0  0
  -23.8050   -8.4140   21.8840 C   0  0  0  0  0  3  0  0  0  0  0  0
  -22.5530   -8.3420   21.2270 C   0  0  0  0  0  0  0  0  0  0  0  0
  -22.1920   -9.3560   20.3230 C   0  0  0  0  0  3  0  0  0  0  0  0
  -23.0530  -10.4410   20.0850 C   0  0  0  0  0  3  0  0  0  0  0  0
  -21.6640   -7.3040   21.3750 O   0  0  0  0  0  0  0  0  0  0  0  0
  -21.5570   -6.6080   22.5520 C   0  0  0  0  0  0  0  0  0  0  0  0
  -21.2460   -7.2480   23.7710 C   0  0  0  0  0  3  0  0  0  0  0  0
  -21.0790   -6.4860   24.9440 C   0  0  0  0  0  3  0  0  0  0  0  0
  -21.2140   -5.0850   24.8990 C   0  0  0  0  0  0  0  0  0  0  0  0
  -21.5190   -4.4460   23.6850 C   0  0  0  0  0  3  0  0  0  0  0  0
  -21.6880   -5.2050   22.5140 C   0  0  0  0  0  0  0  0  0  0  0  0
  -21.9600   -4.5810   21.3430 F   0  0  0  0  0  0  0  0  0  0  0  0
  -21.0460   -4.3520   26.0240 F   0  0  0  0  0  0  0  0  0  0  0  0
  -23.6740  -13.7410   21.2010 C   0  0  0  0  0  0  0  0  0  0  0  0
  -23.0080  -13.1060   22.1610 N   0  0  0  0  0  0  0  0  0  0  0  0
  -23.3070  -14.8420   20.7930 O   0  0  0  0  0  0  0  0  0  0  0  0
  -23.3220  -12.2130   22.5090 H   0  0  0  0  0  0  0  0  0  0  0  0
  -22.1740  -13.5210   22.5510 H   0  0  0  0  0  0  0  0  0  0  0  0
  -26.3680  -15.0690   20.0350 N   0  0  0  0  0  0  0  0  0  0  0  0
  -25.7390  -15.8210   20.2930 H   0  0  0  0  0  0  0  0  0  0  0  0
  -27.2220  -15.3990   19.6030 H   0  0  0  0  0  0  0  0  0  0  0  0
  1  3  1  0
  2  4  1  0
  2  5  1  0
  4  6  1  0
  5  8  1  0
  5  1  1  0
  6 52  1  0
  6  3  1  0
  6  7  1  6
  8  9  1  0
 10  9  1  0
 11 10  1  0
 12 23  2  0
 13 11  1  0
 13 18  1  0
 14 22  1  0
 14 24  1  0
 15 17  1  0
 16 22  1  0
 17 18  2  0
 17 16  1  0
 19 13  2  0
 20 19  1  0
 20 15  2  0
 21 15  1  0
 21 14  1  0
 22 12  1  0
 24 26  2  0
 25 24  1  0
 27 25  1  0
 28 37  2  0
 28 33  1  0
 29 25  1  0
 29 33  1  0
 30 29  1  0
 31 32  1  0
 31 30  1  0
 32 28  1  0
 33 34  2  0
 34 35  1  0
 36 35  2  0
 37 36  1  0
 38 12  1  0
 38 39  1  0
 38 48  1  0
 39 42  1  0
 40 44  1  0
 40 39  1  0
 41 40  2  0
 44 43  1  0
 46 44  1  0
 46 47  1  0
 46 45  1  0
 48 51  1  1
 48 49  1  0
 50 48  1  0
 53 52  1  0
 54 53  1  0
 55 56  1  0
 55 54  1  0
 57 63  1  0
 57 65  1  0
 58 63  1  0
 59 60  1  0
 59 58  1  0
 61 60  1  0
 61 70  1  0
 61 62  1  0
 63 62  1  0
 64 57  2  0
 65 56  1  0
 65 66  1  0
 67 68  2  0
 68 87  1  0
 69 68  1  0
 69 72  1  0
 70 71  1  0
 70 67  1  0
 71 69  2  0
 72 73  1  0
 73 74  2  0
 75 78  1  0
 75 74  1  0
 76 75  2  0
 77 76  1  0
 77 72  2  0
 78 79  1  0
 79 80  1  0
 80 81  2  0
 82 81  1  0
 82 86  1  0
 83 82  2  0
 84 79  2  0
 84 83  1  0
 85 84  1  0
 87 88  1  0
 88 90  1  0
 88 91  1  0
 89 87  2  0
 92 67  1  0
 92 93  1  0
 94 92  1  0
M  ISO  4  10 101  11 101  57 100  65 100
M  END
>  <TORSDO>  (48) 
F 24

>  <SCORE>  (48) 
-9.010

>  <name>  (48) 
47

>  <ligand_id>  (48) 
47

>  <original_smiles>  (48) 
[H]c1c([H])c([H])c2c(c1[H])C([H])([H])C([H])([H])C([H])([H])C2([H])N([H])C(=O)C1([H])N(C(=O)C([H])(N([H])C(=O)C([H])(N([H])C([H])([H])[H])C([H])([H])[H])C(C([H])([H])[H])(C([H])([H])[H])C([H])([H])[H])C([H])([H])c2c([H])c(OC([H])([H])C([H])([H])C([H])([H])C3([H])C([H])([H])C([H])([H])[N+]([H])(C([H])([H])C([H])([H])C([H])([H])C([H])([H])C([H])([H])N([H])C(=O)N4C([H])([H])C([H])([H])C([H])([H])C([H])(n5nc(-c6c([H])c([H])c(Oc7c([H])c([H])c(F)c([H])c7F)c([H])c6[H])c(C(=O)N([H])[H])c5N([H])[H])C4([H])[H])C([H])([H])C3([H])[H])c([H])c([H])c2C1([H])[H]

>  <smiles>  (48) 
[H]c1c([H])c([H])c2c(c1[H])C([H])([H])C([H])([H])C([H])([H])C2([H])N([H])C(=O)C1([H])N(C(=O)C([H])(N([H])C(=O)C([H])(N([H])C([H])([H])[H])C([H])([H])[H])C(C([H])([H])[H])(C([H])([H])[H])C([H])([H])[H])C([H])([H])c2c([H])c(OC([H])([H])C([H])([H])C([H])([H])C3([H])C([H])([H])C([H])([H])[N+]([H])(C([H])([H])C([H])([H])C([H])([H])C([H])([H])C([H])([H])N([H])C(=O)N4C([H])([H])C([H])([H])C([H])([H])C([H])(n5nc(-c6c([H])c([H])c(Oc7c([H])c([H])c(F)c([H])c7F)c([H])c6[H])c(C(=O)N([H])[H])c5N([H])[H])C4([H])[H])C([H])([H])C3([H])[H])c([H])c([H])c2C1([H])[H]

$$$$
48:0:0
     RDKit          3D

 90 98  0  0  1  0  0  0  0  0999 V2000
  -31.3420  -22.4450   21.3690 C   0  0  0  0  0  3  0  0  0  0  0  0
  -31.3940  -23.7660   21.6090 C   0  0  0  0  0  3  0  0  0  0  0  0
  -30.1360  -21.7770   20.9020 C   0  0  0  0  0  0  0  0  0  0  0  0
  -30.1670  -20.4120   20.8650 C   0  0  0  0  0  3  0  0  0  0  0  0
  -30.2200  -24.7070   21.4120 C   0  0  0  0  0  2  0  0  0  0  0  0
  -28.9120  -22.6650   20.5750 C   0  0  0  0  0  2  0  0  0  0  0  0
  -29.2540  -24.1900   20.3310 C   0  0  0  0  0  3  0  0  0  0  0  0
  -29.0400  -19.4140   20.5760 C   0  0  0  0  0  2  0  0  0  0  0  0
  -29.4450  -17.9920   20.0360 C   0  0  0  0  0  2  0  0  0  0  0  0
  -30.1700  -16.9990   21.0080 C   0  0  0  0  0  2  0  0  0  0  0  0
  -30.5740  -14.5570   20.2900 C   0  0  0  0  0  0  0  0  0  0  0  0
  -30.3100  -12.3840   19.1320 C   0  0  0  0  0  2  0  0  0  0  0  0
  -29.3370  -12.5620   17.9470 C   0  0  0  0  0  2  0  0  0  0  0  0
  -27.8730  -12.4020   18.4060 C   0  0  0  0  0  2  0  0  0  0  0  0
  -27.5490  -13.2300   19.6780 C   0  0  0  0  0  3  0  0  0  0  0  0
  -28.6290  -13.0180   20.7620 C   0  0  0  0  0  2  0  0  0  0  0  0
  -29.9320  -13.3590   20.1670 N   0  0  0  0  0  0  0  0  0  0  0  0
  -31.7050  -14.7530   19.8400 O   0  0  0  0  0  0  0  0  0  0  0  0
  -29.8260  -15.5680   20.7980 N   0  0  0  0  0  0  0  0  0  0  0  0
  -28.9050  -15.2910   21.1020 H   0  0  0  0  0  0  0  0  0  0  0  0
  -25.1560  -13.8140   20.4180 C   0  0  0  0  0  0  0  0  0  0  0  0
  -24.1020  -13.0330   20.8110 C   0  0  0  0  0  0  0  0  0  0  0  0
  -24.5790  -11.6860   20.7860 C   0  0  0  0  0  0  0  0  0  0  0  0
  -26.2070  -12.9430   20.1810 N   0  0  0  0  0  0  0  0  0  0  0  0
  -25.8650  -11.6590   20.4600 N   0  0  0  0  0  0  0  0  0  0  0  0
  -23.8710  -10.4180   20.9990 C   0  0  0  0  0  0  0  0  0  0  0  0
  -24.3270   -9.4650   21.9360 C   0  0  0  0  0  3  0  0  0  0  0  0
  -23.6200   -8.2600   22.1340 C   0  0  0  0  0  3  0  0  0  0  0  0
  -22.4420   -7.9990   21.3960 C   0  0  0  0  0  0  0  0  0  0  0  0
  -22.0040   -8.9400   20.4470 C   0  0  0  0  0  3  0  0  0  0  0  0
  -22.7120  -10.1370   20.2470 C   0  0  0  0  0  3  0  0  0  0  0  0
  -21.7030   -6.8460   21.5040 O   0  0  0  0  0  0  0  0  0  0  0  0
  -21.6770   -6.1150   22.6650 C   0  0  0  0  0  0  0  0  0  0  0  0
  -21.2440   -6.6730   23.8880 C   0  0  0  0  0  3  0  0  0  0  0  0
  -21.1660   -5.8670   25.0410 C   0  0  0  0  0  3  0  0  0  0  0  0
  -21.5110   -4.5040   24.9730 C   0  0  0  0  0  0  0  0  0  0  0  0
  -21.9370   -3.9450   23.7550 C   0  0  0  0  0  3  0  0  0  0  0  0
  -22.0170   -4.7470   22.6040 C   0  0  0  0  0  0  0  0  0  0  0  0
  -22.4070   -4.1990   21.4280 F   0  0  0  0  0  0  0  0  0  0  0  0
  -21.4290   -3.7270   26.0780 F   0  0  0  0  0  0  0  0  0  0  0  0
  -22.7030  -13.4960   21.0980 C   0  0  0  0  0  0  0  0  0  0  0  0
  -21.9950  -12.7990   21.9800 N   0  0  0  0  0  0  0  0  0  0  0  0
  -22.2470  -14.5120   20.5760 O   0  0  0  0  0  0  0  0  0  0  0  0
  -22.3750  -11.9770   22.4260 H   0  0  0  0  0  0  0  0  0  0  0  0
  -21.0570  -13.0920   22.2140 H   0  0  0  0  0  0  0  0  0  0  0  0
  -25.3010  -15.1840   20.2240 N   0  0  0  0  0  0  0  0  0  0  0  0
  -24.5280  -15.8310   20.3440 H   0  0  0  0  0  0  0  0  0  0  0  0
  -26.1380  -15.6310   19.8700 H   0  0  0  0  0  0  0  0  0  0  0  0
  -28.0020  -25.1190   20.1820 C   0  0  0  0  0  2  0  0  0  0  0  0
  -28.2300  -26.5610   20.0870 O   0  0  0  0  0  0  0  0  0  0  0  0
  -24.5180  -31.8640   23.1920 C   0  0  0  0  0  0  0  0  0  0  0  0
  -27.0900  -27.3670   20.0710 C   0  0  0  0  0  0  0  0  0  0  0  0
  -23.2890  -30.4780   21.5580 C   0  0  0  0  0  3  0  0  0  0  0  0
  -24.7170  -28.9420   20.1080 C   0  0  0  0  0  0  0  0  0  0  0  0
  -25.8220  -30.8080   21.3410 C   0  0  0  0  0  2  0  0  0  0  0  0
  -25.8920  -29.4380   20.6870 C   0  0  0  0  0  0  0  0  0  0  0  0
  -27.0830  -28.6610   20.6580 C   0  0  0  0  0  3  0  0  0  0  0  0
  -25.8890  -26.9100   19.4760 C   0  0  0  0  0  3  0  0  0  0  0  0
  -24.7140  -27.6800   19.4960 C   0  0  0  0  0  3  0  0  0  0  0  0
  -23.4820  -29.8130   20.1730 C   0  0  0  0  0  2  0  0  0  0  0  0
  -24.5620  -31.0650   22.0880 N   0  0  0  0  0  0  0  0  0  0  0  0
  -23.4420  -32.1400   23.7430 O   0  0  0  0  0  0  0  0  0  0  0  0
  -22.6400  -29.4540   22.5190 C   0  0  0  0  0  0  0  0  0  0  0  0
  -21.3120  -29.2800   22.4060 N   0  0  0  0  0  0  0  0  0  0  0  0
  -23.3270  -28.8210   23.3240 O   0  0  0  0  0  0  0  0  0  0  0  0
  -20.8170  -29.8440   21.7290 H   0  0  0  0  0  0  0  0  0  0  0  0
  -17.9360  -28.0990   22.9400 C   0  0  0  0  0  0  0  0  0  0  0  0
  -20.4990  -28.3430   23.1820 C   0  0  0  0  0  3  0  0  0  0  0  0
  -20.5870  -26.9140   22.5970 C   0  0  0  0  0  2  0  0  0  0  0  0
  -19.4710  -26.6030   21.5950 C   0  0  0  0  0  2  0  0  0  0  0  0
  -18.0980  -26.7530   22.2550 C   0  0  0  0  0  2  0  0  0  0  0  0
  -19.0640  -28.8530   23.3600 C   0  0  0  0  0  0  0  0  0  0  0  0
  -18.8600  -30.1150   23.9600 C   0  0  0  0  0  3  0  0  0  0  0  0
  -17.5600  -30.6230   24.1430 C   0  0  0  0  0  3  0  0  0  0  0  0
  -16.4460  -29.8660   23.7390 C   0  0  0  0  0  3  0  0  0  0  0  0
  -16.6360  -28.6060   23.1430 C   0  0  0  0  0  3  0  0  0  0  0  0
  -25.8110  -32.4880   23.8010 C   0  0  0  0  0  3  0  0  0  0  0  0
  -26.3440  -31.7070   25.0640 C   0  0  1  0  0  0  0  0  0  0  0  0
  -25.2640  -31.4630   26.1450 C   0  0  0  0  0  1  0  0  0  0  0  0
  -26.9180  -30.3310   24.6540 C   0  0  0  0  0  1  0  0  0  0  0  0
  -27.5050  -32.4930   25.7170 C   0  0  0  0  0  1  0  0  0  0  0  0
  -25.5100  -33.8840   24.1440 N   0  0  0  0  0  0  0  0  0  0  0  0
  -25.8390  -34.9420   23.3900 C   0  0  0  0  0  0  0  0  0  0  0  0
  -26.5020  -34.8440   22.3520 O   0  0  0  0  0  0  0  0  0  0  0  0
  -24.9220  -34.0350   24.9510 H   0  0  0  0  0  0  0  0  0  0  0  0
  -24.1230  -36.7490   23.0520 C   0  0  0  0  0  1  0  0  0  0  0  0
  -25.3600  -36.3280   23.8620 C   0  0  0  0  0  3  0  0  0  0  0  0
  -27.4970  -37.1910   24.7070 C   0  0  0  0  0  1  0  0  0  0  0  0
  -26.4000  -37.3760   23.7610 N   0  0  0  0  0  0  0  0  0  0  0  0
  -25.9980  -38.2960   23.9170 H   0  0  0  0  0  0  0  0  0  0  0  0
  1  2  2  0
  3  1  1  0
  4  3  2  0
  5  2  1  0
  6  3  1  0
  7 49  1  0
  7  6  1  0
  7  5  1  0
  8  4  1  0
  9  8  1  0
  9 10  1  0
 11 19  1  0
 12 17  1  0
 13 14  1  0
 13 12  1  0
 15 14  1  0
 15 24  1  0
 15 16  1  0
 17 11  1  0
 17 16  1  0
 18 11  2  0
 19 10  1  0
 19 20  1  0
 21 22  2  0
 22 41  1  0
 23 22  1  0
 23 26  1  0
 24 21  1  0
 24 25  1  0
 25 23  2  0
 26 27  1  0
 27 28  2  0
 29 32  1  0
 29 28  1  0
 30 29  2  0
 31 30  1  0
 31 26  2  0
 32 33  1  0
 33 34  1  0
 34 35  2  0
 36 35  1  0
 36 40  1  0
 37 36  2  0
 38 33  2  0
 38 37  1  0
 39 38  1  0
 41 42  1  0
 42 45  1  0
 42 44  1  0
 43 41  2  0
 46 47  1  0
 46 21  1  0
 48 46  1  0
 50 49  1  0
 51 62  2  0
 52 50  1  0
 52 57  1  0
 53 61  1  0
 53 63  1  0
 54 60  1  0
 54 56  1  0
 55 61  1  0
 56 55  1  0
 57 56  2  0
 58 59  1  0
 58 52  2  0
 59 54  2  0
 60 53  1  0
 61 51  1  0
 63 65  2  0
 64 63  1  0
 66 64  1  0
 67 76  2  0
 67 72  1  0
 68 64  1  0
 68 72  1  0
 69 68  1  0
 70 71  1  0
 70 69  1  0
 71 67  1  0
 72 73  2  0
 73 74  1  0
 75 74  2  0
 76 75  1  0
 77 51  1  0
 77 82  1  0
 77 78  1  0
 78 81  1  1
 78 79  1  0
 80 78  1  0
 82 85  1  0
 83 87  1  0
 83 82  1  0
 84 83  2  0
 87 86  1  0
 89 87  1  0
 89 90  1  0
 89 88  1  0
M  ISO  4  11 100  19 100  49 101  50 101
M  END
>  <TORSDO>  (49) 
F 20

>  <SCORE>  (49) 
-13.213

>  <name>  (49) 
48

>  <ligand_id>  (49) 
48

>  <original_smiles>  (49) 
[H]C1=C([H])C([H])([H])C([H])(C([H])([H])Oc2c([H])c([H])c3c(c2[H])C([H])([H])N(C(=O)C([H])(N([H])C(=O)C([H])(N([H])C([H])([H])[H])C([H])([H])[H])C(C([H])([H])[H])(C([H])([H])[H])C([H])([H])[H])C([H])(C(=O)N([H])C2([H])c4c([H])c([H])c([H])c([H])c4C([H])([H])C([H])([H])C2([H])[H])C3([H])[H])C([H])([H])C1=C([H])C([H])([H])C([H])([H])C([H])([H])N([H])C(=O)N1C([H])([H])C([H])([H])C([H])([H])C([H])(n2nc(-c3c([H])c([H])c(Oc4c([H])c([H])c(F)c([H])c4F)c([H])c3[H])c(C(=O)N([H])[H])c2N([H])[H])C1([H])[H]

>  <smiles>  (49) 
[H]C1=C([H])C([H])([H])C([H])(C([H])([H])Oc2c([H])c([H])c3c(c2[H])C([H])([H])N(C(=O)C([H])(N([H])C(=O)C([H])(N([H])C([H])([H])[H])C([H])([H])[H])C(C([H])([H])[H])(C([H])([H])[H])C([H])([H])[H])C([H])(C(=O)N([H])C2([H])c4c([H])c([H])c([H])c([H])c4C([H])([H])C([H])([H])C2([H])[H])C3([H])[H])C([H])([H])C1=C([H])C([H])([H])C([H])([H])C([H])([H])N([H])C(=O)N1C([H])([H])C([H])([H])C([H])([H])C([H])(n2nc(-c3c([H])c([H])c(Oc4c([H])c([H])c(F)c([H])c4F)c([H])c3[H])c(C(=O)N([H])[H])c2N([H])[H])C1([H])[H]

$$$$
49:0:0
     RDKit          3D

 93102  0  0  1  0  0  0  0  0999 V2000
  -30.3910  -23.0470   20.0720 C   0  0  0  0  0  3  0  0  0  0  0  0
  -29.7770  -23.7050   21.0730 C   0  0  0  0  0  0  0  0  0  0  0  0
  -30.3100  -21.5360   19.8350 C   0  0  0  0  0  2  0  0  0  0  0  0
  -28.9190  -22.9310   22.0500 C   0  0  0  0  0  2  0  0  0  0  0  0
  -29.3900  -21.4720   22.1730 C   0  0  0  0  0  2  0  0  0  0  0  0
  -29.5490  -20.7650   20.8690 N   0  0  2  0  0  4  0  0  0  0  0  0
  -28.6110  -20.6590   20.5130 H   0  0  0  0  0  0  0  0  0  0  0  0
  -30.0170  -25.1880   21.3630 C   0  0  0  0  0  2  0  0  0  0  0  0
  -28.7780  -26.1160   21.4020 C   0  0  0  0  0  2  0  0  0  0  0  0
  -28.3220  -26.4940   20.1020 O   0  0  0  0  0  0  0  0  0  0  0  0
  -24.5260  -31.7000   23.1820 C   0  0  0  0  0  0  0  0  0  0  0  0
  -27.1910  -27.2800   20.1090 C   0  0  0  0  0  0  0  0  0  0  0  0
  -23.3320  -30.3190   21.5100 C   0  0  0  0  0  3  0  0  0  0  0  0
  -24.7990  -28.7850   20.0910 C   0  0  0  0  0  0  0  0  0  0  0  0
  -25.8560  -30.6730   21.3430 C   0  0  0  0  0  2  0  0  0  0  0  0
  -25.9470  -29.3020   20.7060 C   0  0  0  0  0  0  0  0  0  0  0  0
  -27.1460  -28.5540   20.7220 C   0  0  0  0  0  3  0  0  0  0  0  0
  -26.0350  -26.7800   19.4790 C   0  0  0  0  0  3  0  0  0  0  0  0
  -24.8370  -27.5210   19.4740 C   0  0  0  0  0  3  0  0  0  0  0  0
  -23.5540  -29.6440   20.1290 C   0  0  0  0  0  2  0  0  0  0  0  0
  -24.5900  -30.9110   22.0720 N   0  0  0  0  0  0  0  0  0  0  0  0
  -23.4410  -31.9730   23.7130 O   0  0  0  0  0  0  0  0  0  0  0  0
  -22.6620  -29.2970   22.4570 C   0  0  0  0  0  0  0  0  0  0  0  0
  -21.3370  -29.1300   22.3160 N   0  0  0  0  0  0  0  0  0  0  0  0
  -23.3320  -28.6550   23.2710 O   0  0  0  0  0  0  0  0  0  0  0  0
  -20.8610  -29.6980   21.6290 H   0  0  0  0  0  0  0  0  0  0  0  0
  -17.9450  -27.9740   22.7700 C   0  0  0  0  0  0  0  0  0  0  0  0
  -20.5030  -28.1930   23.0670 C   0  0  0  0  0  3  0  0  0  0  0  0
  -20.5920  -26.7690   22.4710 C   0  0  0  0  0  2  0  0  0  0  0  0
  -19.4950  -26.4760   21.4430 C   0  0  0  0  0  2  0  0  0  0  0  0
  -18.1080  -26.6310   22.0770 C   0  0  0  0  0  2  0  0  0  0  0  0
  -19.0710  -28.7130   23.2200 C   0  0  0  0  0  0  0  0  0  0  0  0
  -18.8650  -29.9720   23.8270 C   0  0  0  0  0  3  0  0  0  0  0  0
  -17.5670  -30.4900   23.9880 C   0  0  0  0  0  3  0  0  0  0  0  0
  -16.4550  -29.7460   23.5560 C   0  0  0  0  0  3  0  0  0  0  0  0
  -16.6450  -28.4900   22.9540 C   0  0  0  0  0  3  0  0  0  0  0  0
  -25.8100  -32.3180   23.8220 C   0  0  0  0  0  3  0  0  0  0  0  0
  -26.3200  -31.5230   25.0850 C   0  0  1  0  0  0  0  0  0  0  0  0
  -25.2210  -31.2680   26.1440 C   0  0  0  0  0  1  0  0  0  0  0  0
  -26.9040  -30.1530   24.6690 C   0  0  0  0  0  1  0  0  0  0  0  0
  -27.4670  -32.3050   25.7670 C   0  0  0  0  0  1  0  0  0  0  0  0
  -25.5050  -33.7110   24.1690 N   0  0  0  0  0  0  0  0  0  0  0  0
  -25.8570  -34.7740   23.4320 C   0  0  0  0  0  0  0  0  0  0  0  0
  -26.5430  -34.6820   22.4100 O   0  0  0  0  0  0  0  0  0  0  0  0
  -24.8990  -33.8560   24.9650 H   0  0  0  0  0  0  0  0  0  0  0  0
  -24.1500  -36.5830   23.0710 C   0  0  0  0  0  1  0  0  0  0  0  0
  -25.3710  -36.1570   23.9030 C   0  0  0  0  0  3  0  0  0  0  0  0
  -27.4890  -37.0140   24.7980 C   0  0  0  0  0  1  0  0  0  0  0  0
  -26.4130  -37.2040   23.8280 N   0  0  0  0  0  0  0  0  0  0  0  0
  -26.0110  -38.1240   23.9800 H   0  0  0  0  0  0  0  0  0  0  0  0
  -30.0830  -19.3870   21.1070 C   0  0  0  0  0  2  0  0  0  0  0  0
  -31.2150  -14.2470   20.0100 C   0  0  0  0  0  0  0  0  0  0  0  0
  -30.8380  -12.0540   18.9700 C   0  0  0  0  0  2  0  0  0  0  0  0
  -29.8690  -12.2620   17.7850 C   0  0  0  0  0  2  0  0  0  0  0  0
  -28.3970  -12.2090   18.2460 C   0  0  0  0  0  2  0  0  0  0  0  0
  -28.1240  -13.0940   19.4920 C   0  0  0  0  0  3  0  0  0  0  0  0
  -29.1950  -12.8380   20.5740 C   0  0  0  0  0  2  0  0  0  0  0  0
  -30.5160  -13.0810   19.9710 N   0  0  0  0  0  0  0  0  0  0  0  0
  -32.3760  -14.3420   19.6000 O   0  0  0  0  0  0  0  0  0  0  0  0
  -29.0190  -17.0630   21.1600 C   0  0  0  0  0  2  0  0  0  0  0  0
  -30.4050  -17.7250   19.1410 C   0  0  0  0  0  2  0  0  0  0  0  0
  -30.1360  -16.0170   21.3430 C   0  0  0  0  0  2  0  0  0  0  0  0
  -30.2820  -16.2050   18.8590 C   0  0  0  0  0  2  0  0  0  0  0  0
  -29.4560  -18.2440   20.2550 C   0  0  0  0  0  3  0  0  0  0  0  0
  -30.4320  -15.3550   20.0640 N   0  0  0  0  0  0  0  0  0  0  0  0
  -25.7880  -13.8550   20.2620 C   0  0  0  0  0  0  0  0  0  0  0  0
  -24.6860  -13.1550   20.6670 C   0  0  0  0  0  0  0  0  0  0  0  0
  -25.0610  -11.7770   20.6240 C   0  0  0  0  0  0  0  0  0  0  0  0
  -26.7720  -12.9110   20.0070 N   0  0  0  0  0  0  0  0  0  0  0  0
  -26.3360  -11.6550   20.2780 N   0  0  0  0  0  0  0  0  0  0  0  0
  -24.2610  -10.5650   20.8320 C   0  0  0  0  0  0  0  0  0  0  0  0
  -24.6050   -9.6150   21.8200 C   0  0  0  0  0  3  0  0  0  0  0  0
  -23.8120   -8.4630   22.0120 C   0  0  0  0  0  3  0  0  0  0  0  0
  -22.6600   -8.2550   21.2150 C   0  0  0  0  0  0  0  0  0  0  0  0
  -22.3360   -9.1900   20.2170 C   0  0  0  0  0  3  0  0  0  0  0  0
  -23.1290  -10.3340   20.0250 C   0  0  0  0  0  3  0  0  0  0  0  0
  -21.8440   -7.1560   21.3150 O   0  0  0  0  0  0  0  0  0  0  0  0
  -21.6430   -6.5160   22.5120 C   0  0  0  0  0  0  0  0  0  0  0  0
  -21.1130   -7.1860   23.6360 C   0  0  0  0  0  3  0  0  0  0  0  0
  -20.8590   -6.4730   24.8250 C   0  0  0  0  0  3  0  0  0  0  0  0
  -21.1240   -5.0920   24.8890 C   0  0  0  0  0  0  0  0  0  0  0  0
  -21.6460   -4.4230   23.7690 C   0  0  0  0  0  3  0  0  0  0  0  0
  -21.9020   -5.1320   22.5820 C   0  0  0  0  0  0  0  0  0  0  0  0
  -22.3860   -4.4780   21.4990 F   0  0  0  0  0  0  0  0  0  0  0  0
  -20.8710   -4.4050   26.0290 F   0  0  0  0  0  0  0  0  0  0  0  0
  -23.3300  -13.7200   20.9790 C   0  0  0  0  0  0  0  0  0  0  0  0
  -22.5880  -13.0800   21.8750 N   0  0  0  0  0  0  0  0  0  0  0  0
  -22.9380  -14.7650   20.4610 O   0  0  0  0  0  0  0  0  0  0  0  0
  -22.9160  -12.2360   22.3230 H   0  0  0  0  0  0  0  0  0  0  0  0
  -21.6760  -13.4400   22.1220 H   0  0  0  0  0  0  0  0  0  0  0  0
  -26.0220  -15.2140   20.0690 N   0  0  0  0  0  0  0  0  0  0  0  0
  -25.2850  -15.9010   20.1840 H   0  0  0  0  0  0  0  0  0  0  0  0
  -26.8740  -15.5990   19.6870 H   0  0  0  0  0  0  0  0  0  0  0  0
  1  2  2  0
  2  8  1  0
  2  4  1  0
  3  1  1  0
  3  6  1  0
  4  5  1  0
  6 51  1  0
  6  5  1  0
  6  7  1  6
  8  9  1  0
 10 12  1  0
 10  9  1  0
 11 22  2  0
 12 17  1  0
 13 21  1  0
 13 23  1  0
 14 20  1  0
 14 16  1  0
 15 21  1  0
 16 17  2  0
 16 15  1  0
 18 12  2  0
 19 18  1  0
 19 14  2  0
 20 13  1  0
 21 11  1  0
 23 25  2  0
 24 23  1  0
 26 24  1  0
 27 36  2  0
 27 32  1  0
 28 24  1  0
 28 32  1  0
 29 28  1  0
 30 31  1  0
 30 29  1  0
 31 27  1  0
 32 33  2  0
 33 34  1  0
 35 34  2  0
 36 35  1  0
 37 11  1  0
 37 42  1  0
 37 38  1  0
 38 41  1  1
 38 39  1  0
 40 38  1  0
 42 45  1  0
 43 47  1  0
 43 42  1  0
 44 43  2  0
 47 46  1  0
 49 47  1  0
 49 50  1  0
 49 48  1  0
 52 65  1  0
 53 58  1  0
 54 55  1  0
 54 53  1  0
 56 55  1  0
 56 69  1  0
 56 57  1  0
 58 52  1  0
 58 57  1  0
 59 52  2  0
 60 62  1  0
 61 64  1  0
 63 61  1  0
 63 65  1  0
 64 51  1  0
 64 60  1  0
 65 62  1  0
 66 67  2  0
 67 86  1  0
 68 67  1  0
 68 71  1  0
 69 66  1  0
 69 70  1  0
 70 68  2  0
 71 72  1  0
 72 73  2  0
 74 77  1  0
 74 73  1  0
 75 74  2  0
 76 75  1  0
 76 71  2  0
 77 78  1  0
 78 83  2  0
 78 79  1  0
 79 80  2  0
 80 81  1  0
 81 85  1  0
 82 81  2  0
 83 82  1  0
 84 83  1  0
 86 87  1  0
 87 90  1  0
 87 89  1  0
 88 86  2  0
 91 92  1  0
 91 66  1  0
 93 91  1  0
M  ISO  4   9 101  10 101  52 100  65 100
M  END
>  <TORSDO>  (50) 
F 19

>  <SCORE>  (50) 
-13.772

>  <name>  (50) 
49

>  <ligand_id>  (50) 
49

>  <original_smiles>  (50) 
[H]C1=C(C([H])([H])C([H])([H])Oc2c([H])c([H])c3c(c2[H])C([H])([H])N(C(=O)C([H])(N([H])C(=O)C([H])(N([H])C([H])([H])[H])C([H])([H])[H])C(C([H])([H])[H])(C([H])([H])[H])C([H])([H])[H])C([H])(C(=O)N([H])C2([H])c4c([H])c([H])c([H])c([H])c4C([H])([H])C([H])([H])C2([H])[H])C3([H])[H])C([H])([H])C([H])([H])[N+]([H])(C([H])([H])C2([H])C([H])([H])C([H])([H])N(C(=O)N3C([H])([H])C([H])([H])C([H])([H])C([H])(n4nc(-c5c([H])c([H])c(Oc6c([H])c([H])c(F)c([H])c6F)c([H])c5[H])c(C(=O)N([H])[H])c4N([H])[H])C3([H])[H])C([H])([H])C2([H])[H])C1([H])[H]

>  <smiles>  (50) 
[H]C1=C(C([H])([H])C([H])([H])Oc2c([H])c([H])c3c(c2[H])C([H])([H])N(C(=O)C([H])(N([H])C(=O)C([H])(N([H])C([H])([H])[H])C([H])([H])[H])C(C([H])([H])[H])(C([H])([H])[H])C([H])([H])[H])C([H])(C(=O)N([H])C2([H])c4c([H])c([H])c([H])c([H])c4C([H])([H])C([H])([H])C2([H])[H])C3([H])[H])C([H])([H])C([H])([H])[N+]([H])(C([H])([H])C2([H])C([H])([H])C([H])([H])N(C(=O)N3C([H])([H])C([H])([H])C([H])([H])C([H])(n4nc(-c5c([H])c([H])c(Oc6c([H])c([H])c(F)c([H])c6F)c([H])c5[H])c(C(=O)N([H])[H])c4N([H])[H])C3([H])[H])C([H])([H])C2([H])[H])C1([H])[H]

$$$$
50:0:0
     RDKit          3D

 96105  0  0  1  0  0  0  0  0999 V2000
  -32.0660  -22.4730   23.1390 C   0  0  0  0  0  3  0  0  0  0  0  0
  -30.9580  -23.2200   22.6930 C   0  0  0  0  0  3  0  0  0  0  0  0
  -32.1420  -21.0930   22.8790 C   0  0  0  0  0  3  0  0  0  0  0  0
  -30.0110  -21.2160   21.7060 C   0  0  0  0  0  3  0  0  0  0  0  0
  -29.9150  -22.6070   21.9570 C   0  0  0  0  0  0  0  0  0  0  0  0
  -31.1070  -20.4510   22.1710 C   0  0  0  0  0  0  0  0  0  0  0  0
  -31.0080  -18.6100   20.4250 C   0  0  0  0  0  2  0  0  0  0  0  0
  -30.1700  -18.1590   22.7860 C   0  0  0  0  0  2  0  0  0  0  0  0
  -31.0580  -17.0930   20.1670 C   0  0  0  0  0  2  0  0  0  0  0  0
  -30.2390  -16.6460   22.5120 C   0  0  0  0  0  2  0  0  0  0  0  0
  -31.1770  -18.9460   21.9190 C   0  0  0  0  0  3  0  0  0  0  0  0
  -30.0030  -16.3560   21.0200 C   0  0  0  0  0  3  0  0  0  0  0  0
  -30.3740  -14.0770   19.8830 C   0  0  0  0  0  0  0  0  0  0  0  0
  -29.9440  -12.0060   18.6100 C   0  0  0  0  0  2  0  0  0  0  0  0
  -28.8500  -12.2680   17.5560 C   0  0  0  0  0  2  0  0  0  0  0  0
  -27.4440  -12.0750   18.1620 C   0  0  0  0  0  2  0  0  0  0  0  0
  -27.2670  -12.8260   19.5090 C   0  0  0  0  0  3  0  0  0  0  0  0
  -28.4550  -12.5370   20.4520 C   0  0  0  0  0  2  0  0  0  0  0  0
  -29.7010  -12.9020   19.7500 N   0  0  0  0  0  0  0  0  0  0  0  0
  -31.3430  -14.3750   19.1810 O   0  0  0  0  0  0  0  0  0  0  0  0
  -29.8380  -14.9130   20.7880 N   0  0  0  0  0  0  0  0  0  0  0  0
  -29.0810  -14.4930   21.3100 H   0  0  0  0  0  0  0  0  0  0  0  0
  -24.9570  -13.3420   20.5290 C   0  0  0  0  0  0  0  0  0  0  0  0
  -23.9620  -12.5260   21.0020 C   0  0  0  0  0  0  0  0  0  0  0  0
  -24.4480  -11.1910   20.8590 C   0  0  0  0  0  0  0  0  0  0  0  0
  -25.9860  -12.4990   20.1370 N   0  0  0  0  0  0  0  0  0  0  0  0
  -25.6890  -11.1990   20.3880 N   0  0  0  0  0  0  0  0  0  0  0  0
  -23.7820   -9.9030   21.0910 C   0  0  0  0  0  0  0  0  0  0  0  0
  -24.2850   -8.9710   22.0260 C   0  0  0  0  0  3  0  0  0  0  0  0
  -23.6190   -7.7450   22.2460 C   0  0  0  0  0  3  0  0  0  0  0  0
  -22.4360   -7.4430   21.5310 C   0  0  0  0  0  0  0  0  0  0  0  0
  -21.9520   -8.3650   20.5860 C   0  0  0  0  0  3  0  0  0  0  0  0
  -22.6190   -9.5810   20.3640 C   0  0  0  0  0  3  0  0  0  0  0  0
  -21.7370   -6.2670   21.6590 O   0  0  0  0  0  0  0  0  0  0  0  0
  -21.6490   -5.6100   22.8600 C   0  0  0  0  0  0  0  0  0  0  0  0
  -21.0770   -6.2140   24.0000 C   0  0  0  0  0  3  0  0  0  0  0  0
  -20.9430   -5.4780   25.1950 C   0  0  0  0  0  3  0  0  0  0  0  0
  -21.3690   -4.1380   25.2480 C   0  0  0  0  0  0  0  0  0  0  0  0
  -21.9340   -3.5330   24.1120 C   0  0  0  0  0  3  0  0  0  0  0  0
  -22.0710   -4.2670   22.9210 C   0  0  0  0  0  0  0  0  0  0  0  0
  -22.5960   -3.6720   21.8210 F   0  0  0  0  0  0  0  0  0  0  0  0
  -21.2340   -3.4270   26.3920 F   0  0  0  0  0  0  0  0  0  0  0  0
  -22.6010  -12.9530   21.4690 C   0  0  0  0  0  0  0  0  0  0  0  0
  -22.0130  -12.2120   22.4030 N   0  0  0  0  0  0  0  0  0  0  0  0
  -22.0700  -13.9770   21.0440 O   0  0  0  0  0  0  0  0  0  0  0  0
  -22.4580  -11.3830   22.7690 H   0  0  0  0  0  0  0  0  0  0  0  0
  -21.1050  -12.4790   22.7560 H   0  0  0  0  0  0  0  0  0  0  0  0
  -25.0640  -14.7220   20.3880 N   0  0  0  0  0  0  0  0  0  0  0  0
  -24.3040  -15.3500   20.6210 H   0  0  0  0  0  0  0  0  0  0  0  0
  -25.8600  -15.1990   19.9810 H   0  0  0  0  0  0  0  0  0  0  0  0
  -28.7110  -23.3630   21.4910 C   0  0  0  0  0  0  0  0  0  0  0  0
  -27.6050  -22.7800   21.2750 N   0  0  0  0  0  0  0  0  0  0  0  0
  -26.8890  -23.4260   20.9640 H   0  0  0  0  0  0  0  0  0  0  0  0
  -28.8010  -24.8720   21.2510 C   0  0  0  0  0  2  0  0  0  0  0  0
  -28.5790  -25.2680   19.7790 C   0  0  0  0  0  2  0  0  0  0  0  0
  -28.5730  -26.6950   19.6660 O   0  0  0  0  0  0  0  0  0  0  0  0
  -24.6880  -31.5560   23.1010 C   0  0  0  0  0  0  0  0  0  0  0  0
  -27.3670  -27.3540   19.7440 C   0  0  0  0  0  0  0  0  0  0  0  0
  -23.4910  -30.2630   21.3630 C   0  0  0  0  0  3  0  0  0  0  0  0
  -24.9540  -28.8240   19.8530 C   0  0  0  0  0  0  0  0  0  0  0  0
  -26.0140  -30.6490   21.1950 C   0  0  0  0  0  2  0  0  0  0  0  0
  -26.1070  -29.3240   20.4710 C   0  0  0  0  0  0  0  0  0  0  0  0
  -27.3160  -28.5970   20.4100 C   0  0  0  0  0  3  0  0  0  0  0  0
  -26.1950  -26.8610   19.1240 C   0  0  0  0  0  3  0  0  0  0  0  0
  -24.9920  -27.5910   19.1800 C   0  0  0  0  0  3  0  0  0  0  0  0
  -23.7060  -29.6700   19.9450 C   0  0  0  0  0  2  0  0  0  0  0  0
  -24.7490  -30.8330   21.9460 N   0  0  0  0  0  0  0  0  0  0  0  0
  -23.6050  -31.7890   23.6540 O   0  0  0  0  0  0  0  0  0  0  0  0
  -22.8420  -29.1800   22.2530 C   0  0  0  0  0  0  0  0  0  0  0  0
  -21.5150  -29.0180   22.1250 N   0  0  0  0  0  0  0  0  0  0  0  0
  -23.5270  -28.4880   23.0110 O   0  0  0  0  0  0  0  0  0  0  0  0
  -21.0240  -29.6260   21.4850 H   0  0  0  0  0  0  0  0  0  0  0  0
  -18.1290  -27.8570   22.6020 C   0  0  0  0  0  0  0  0  0  0  0  0
  -20.6970  -28.0330   22.8310 C   0  0  0  0  0  3  0  0  0  0  0  0
  -20.7530  -26.6570   22.1280 C   0  0  0  0  0  2  0  0  0  0  0  0
  -19.6200  -26.4490   21.1180 C   0  0  0  0  0  2  0  0  0  0  0  0
  -18.2580  -26.5670   21.8080 C   0  0  0  0  0  2  0  0  0  0  0  0
  -19.2750  -28.5530   23.0680 C   0  0  0  0  0  0  0  0  0  0  0  0
  -19.1000  -29.7650   23.7720 C   0  0  0  0  0  3  0  0  0  0  0  0
  -17.8110  -30.2780   24.0120 C   0  0  0  0  0  3  0  0  0  0  0  0
  -16.6800  -29.5760   23.5600 C   0  0  0  0  0  3  0  0  0  0  0  0
  -16.8400  -28.3680   22.8610 C   0  0  0  0  0  3  0  0  0  0  0  0
  -25.9720  -32.1460   23.7640 C   0  0  0  0  0  3  0  0  0  0  0  0
  -26.4610  -31.3190   25.0160 C   0  0  1  0  0  0  0  0  0  0  0  0
  -25.3500  -31.0520   26.0570 C   0  0  0  0  0  1  0  0  0  0  0  0
  -27.0340  -29.9520   24.5760 C   0  0  0  0  0  1  0  0  0  0  0  0
  -27.6080  -32.0720   25.7270 C   0  0  0  0  0  1  0  0  0  0  0  0
  -25.6740  -33.5350   24.1400 N   0  0  0  0  0  0  0  0  0  0  0  0
  -26.0330  -34.6100   23.4260 C   0  0  0  0  0  0  0  0  0  0  0  0
  -26.7210  -34.5360   22.4030 O   0  0  0  0  0  0  0  0  0  0  0  0
  -25.0620  -33.6670   24.9330 H   0  0  0  0  0  0  0  0  0  0  0  0
  -24.3310  -36.4330   23.1070 C   0  0  0  0  0  1  0  0  0  0  0  0
  -25.5530  -35.9860   23.9250 C   0  0  0  0  0  3  0  0  0  0  0  0
  -27.6780  -36.8240   24.8270 C   0  0  0  0  0  1  0  0  0  0  0  0
  -26.5980  -37.0310   23.8650 N   0  0  0  0  0  0  0  0  0  0  0  0
  -26.1990  -37.9510   24.0290 H   0  0  0  0  0  0  0  0  0  0  0  0
  2  1  2  0
  3  1  1  0
  4  5  2  0
  4  6  1  0
  5  2  1  0
  6  3  2  0
  7 11  1  0
  9  7  1  0
  9 12  1  0
 10  8  1  0
 11  6  1  0
 11  8  1  0
 12 21  1  0
 12 10  1  0
 13 21  1  0
 14 19  1  0
 15 16  1  0
 15 14  1  0
 17 16  1  0
 17 26  1  0
 17 18  1  0
 19 13  1  0
 19 18  1  0
 20 13  2  0
 21 22  1  0
 23 24  2  0
 24 43  1  0
 25 24  1  0
 25 28  1  0
 26 27  1  0
 26 23  1  0
 27 25  2  0
 28 29  1  0
 29 30  2  0
 31 34  1  0
 31 30  1  0
 32 31  2  0
 33 32  1  0
 33 28  2  0
 34 35  1  0
 35 40  2  0
 35 36  1  0
 36 37  2  0
 37 38  1  0
 38 42  1  0
 39 38  2  0
 40 39  1  0
 41 40  1  0
 43 44  1  0
 44 47  1  0
 44 46  1  0
 45 43  2  0
 48 23  1  0
 48 49  1  0
 50 48  1  0
 51  5  1  0
 52 51  2  0
 53 52  1  0
 54 51  1  0
 55 54  1  0
 56 58  1  0
 56 55  1  0
 57 68  2  0
 58 63  1  0
 59 67  1  0
 59 69  1  0
 60 66  1  0
 60 62  1  0
 61 67  1  0
 62 61  1  0
 63 62  2  0
 64 65  1  0
 64 58  2  0
 65 60  2  0
 66 59  1  0
 67 57  1  0
 69 71  2  0
 70 69  1  0
 72 70  1  0
 73 82  2  0
 73 78  1  0
 74 70  1  0
 74 78  1  0
 75 74  1  0
 76 77  1  0
 76 75  1  0
 77 73  1  0
 78 79  2  0
 79 80  1  0
 81 80  2  0
 82 81  1  0
 83 57  1  0
 83 88  1  0
 83 84  1  0
 84 87  1  1
 84 85  1  0
 86 84  1  0
 88 91  1  0
 89 93  1  0
 89 88  1  0
 90 89  2  0
 93 92  1  0
 95 93  1  0
 95 96  1  0
 95 94  1  0
M  ISO  4  13 100  21 100  55 101  56 101
M  END
>  <TORSDO>  (51) 
F 20

>  <SCORE>  (51) 
-9.291

>  <name>  (51) 
50

>  <ligand_id>  (51) 
50

>  <original_smiles>  (51) 
[H]N=C(c1c([H])c([H])c([H])c(C2([H])C([H])([H])C([H])([H])C([H])(N([H])C(=O)N3C([H])([H])C([H])([H])C([H])([H])C([H])(n4nc(-c5c([H])c([H])c(Oc6c([H])c([H])c(F)c([H])c6F)c([H])c5[H])c(C(=O)N([H])[H])c4N([H])[H])C3([H])[H])C([H])([H])C2([H])[H])c1[H])C([H])([H])C([H])([H])Oc1c([H])c([H])c2c(c1[H])C([H])([H])N(C(=O)C([H])(N([H])C(=O)C([H])(N([H])C([H])([H])[H])C([H])([H])[H])C(C([H])([H])[H])(C([H])([H])[H])C([H])([H])[H])C([H])(C(=O)N([H])C1([H])c3c([H])c([H])c([H])c([H])c3C([H])([H])C([H])([H])C1([H])[H])C2([H])[H]

>  <smiles>  (51) 
[H]N=C(c1c([H])c([H])c([H])c(C2([H])C([H])([H])C([H])([H])C([H])(N([H])C(=O)N3C([H])([H])C([H])([H])C([H])([H])C([H])(n4nc(-c5c([H])c([H])c(Oc6c([H])c([H])c(F)c([H])c6F)c([H])c5[H])c(C(=O)N([H])[H])c4N([H])[H])C3([H])[H])C([H])([H])C2([H])[H])c1[H])C([H])([H])C([H])([H])Oc1c([H])c([H])c2c(c1[H])C([H])([H])N(C(=O)C([H])(N([H])C(=O)C([H])(N([H])C([H])([H])[H])C([H])([H])[H])C(C([H])([H])[H])(C([H])([H])[H])C([H])([H])[H])C([H])(C(=O)N([H])C1([H])c3c([H])c([H])c([H])c([H])c3C([H])([H])C([H])([H])C1([H])[H])C2([H])[H]

$$$$
51:0:0
     RDKit          3D

 90 98  0  0  1  0  0  0  0  0999 V2000
  -29.3260  -21.5820   19.9740 C   0  0  0  0  0  2  0  0  0  0  0  0
  -29.7430  -19.2510   20.3690 C   0  0  0  0  0  0  0  0  0  0  0  0
  -29.8540  -17.9240   21.1060 C   0  0  0  0  0  0  0  0  0  0  0  0
  -30.1850  -18.9770   18.9380 C   0  0  0  0  0  2  0  0  0  0  0  0
  -30.3080  -17.4460   18.7900 C   0  0  0  0  0  2  0  0  0  0  0  0
  -30.5600  -16.9040   20.2090 C   0  0  0  0  0  3  0  0  0  0  0  0
  -29.3590  -20.3920   20.8290 N   0  0  0  0  0  0  0  0  0  0  0  0
  -29.4430  -17.7040   22.2510 O   0  0  0  0  0  0  0  0  0  0  0  0
  -30.8070  -14.4280   19.9530 C   0  0  0  0  0  0  0  0  0  0  0  0
  -30.4170  -12.2540   18.8660 C   0  0  0  0  0  2  0  0  0  0  0  0
  -29.4030  -12.4590   17.7220 C   0  0  0  0  0  2  0  0  0  0  0  0
  -27.9600  -12.3320   18.2480 C   0  0  0  0  0  2  0  0  0  0  0  0
  -27.7090  -13.1800   19.5240 C   0  0  0  0  0  3  0  0  0  0  0  0
  -28.8350  -12.9730   20.5640 C   0  0  0  0  0  2  0  0  0  0  0  0
  -30.1180  -13.2550   19.9030 N   0  0  0  0  0  0  0  0  0  0  0  0
  -31.9200  -14.5690   19.4430 O   0  0  0  0  0  0  0  0  0  0  0  0
  -30.1240  -15.5020   20.3970 N   0  0  0  0  0  0  0  0  0  0  0  0
  -29.2190  -15.3490   20.8170 H   0  0  0  0  0  0  0  0  0  0  0  0
  -25.3840  -13.8060   20.4280 C   0  0  0  0  0  0  0  0  0  0  0  0
  -24.3290  -13.0420   20.8470 C   0  0  0  0  0  0  0  0  0  0  0  0
  -24.7560  -11.6830   20.7350 C   0  0  0  0  0  0  0  0  0  0  0  0
  -26.3900  -12.9150   20.0920 N   0  0  0  0  0  0  0  0  0  0  0  0
  -26.0190  -11.6300   20.3330 N   0  0  0  0  0  0  0  0  0  0  0  0
  -24.0170  -10.4290   20.9300 C   0  0  0  0  0  0  0  0  0  0  0  0
  -24.4470   -9.4560   21.8580 C   0  0  0  0  0  3  0  0  0  0  0  0
  -23.7100   -8.2660   22.0420 C   0  0  0  0  0  3  0  0  0  0  0  0
  -22.5270   -8.0430   21.2960 C   0  0  0  0  0  0  0  0  0  0  0  0
  -22.1170   -9.0040   20.3570 C   0  0  0  0  0  3  0  0  0  0  0  0
  -22.8550  -10.1850   20.1720 C   0  0  0  0  0  3  0  0  0  0  0  0
  -21.7600   -6.9060   21.3900 O   0  0  0  0  0  0  0  0  0  0  0  0
  -21.6520   -6.2060   22.5650 C   0  0  0  0  0  0  0  0  0  0  0  0
  -21.1480   -6.7990   23.7420 C   0  0  0  0  0  3  0  0  0  0  0  0
  -20.9880   -6.0240   24.9090 C   0  0  0  0  0  3  0  0  0  0  0  0
  -21.3240   -4.6570   24.8980 C   0  0  0  0  0  0  0  0  0  0  0  0
  -21.8210   -4.0630   23.7240 C   0  0  0  0  0  3  0  0  0  0  0  0
  -21.9820   -4.8360   22.5600 C   0  0  0  0  0  0  0  0  0  0  0  0
  -22.4420   -4.2540   21.4260 F   0  0  0  0  0  0  0  0  0  0  0  0
  -21.1630   -3.9100   26.0150 F   0  0  0  0  0  0  0  0  0  0  0  0
  -22.9660  -13.5360   21.2370 C   0  0  0  0  0  0  0  0  0  0  0  0
  -22.2880  -12.8240   22.1300 N   0  0  0  0  0  0  0  0  0  0  0  0
  -22.5130  -14.5870   20.7860 O   0  0  0  0  0  0  0  0  0  0  0  0
  -22.6670  -11.9700   22.5140 H   0  0  0  0  0  0  0  0  0  0  0  0
  -21.3770  -13.1340   22.4340 H   0  0  0  0  0  0  0  0  0  0  0  0
  -25.5680  -15.1790   20.2850 N   0  0  0  0  0  0  0  0  0  0  0  0
  -24.8260  -15.8460   20.4660 H   0  0  0  0  0  0  0  0  0  0  0  0
  -26.3940  -15.6050   19.8870 H   0  0  0  0  0  0  0  0  0  0  0  0
  -28.9140  -22.8290   20.7990 C   0  0  0  0  0  2  0  0  0  0  0  0
  -28.9220  -24.1830   20.0340 C   0  0  0  0  0  2  0  0  0  0  0  0
  -28.4500  -25.3710   20.9110 C   0  0  0  0  0  2  0  0  0  0  0  0
  -28.5530  -26.6570   20.2680 O   0  0  0  0  0  0  0  0  0  0  0  0
  -24.6120  -31.8500   23.1650 C   0  0  0  0  0  0  0  0  0  0  0  0
  -27.3840  -27.3870   20.2330 C   0  0  0  0  0  0  0  0  0  0  0  0
  -23.4610  -30.4000   21.5250 C   0  0  0  0  0  3  0  0  0  0  0  0
  -24.9670  -28.8540   20.1620 C   0  0  0  0  0  0  0  0  0  0  0  0
  -25.9840  -30.7960   21.3690 C   0  0  0  0  0  2  0  0  0  0  0  0
  -26.1060  -29.4120   20.7600 C   0  0  0  0  0  0  0  0  0  0  0  0
  -27.3210  -28.6880   20.7870 C   0  0  0  0  0  3  0  0  0  0  0  0
  -26.2310  -26.8430   19.6330 C   0  0  0  0  0  3  0  0  0  0  0  0
  -25.0250  -27.5680   19.5970 C   0  0  0  0  0  3  0  0  0  0  0  0
  -23.7090  -29.6940   20.1650 C   0  0  0  0  0  2  0  0  0  0  0  0
  -24.7030  -31.0310   22.0800 N   0  0  0  0  0  0  0  0  0  0  0  0
  -23.5160  -32.1170   23.6760 O   0  0  0  0  0  0  0  0  0  0  0  0
  -22.8020  -29.3880   22.4910 C   0  0  0  0  0  0  0  0  0  0  0  0
  -21.4850  -29.1820   22.3370 N   0  0  0  0  0  0  0  0  0  0  0  0
  -23.4760  -28.7900   23.3360 O   0  0  0  0  0  0  0  0  0  0  0  0
  -21.0030  -29.7180   21.6280 H   0  0  0  0  0  0  0  0  0  0  0  0
  -18.1210  -27.9390   22.7690 C   0  0  0  0  0  0  0  0  0  0  0  0
  -20.6640  -28.2480   23.1060 C   0  0  0  0  0  3  0  0  0  0  0  0
  -20.8070  -26.8060   22.5640 C   0  0  0  0  0  2  0  0  0  0  0  0
  -19.7400  -26.4430   21.5270 C   0  0  0  0  0  2  0  0  0  0  0  0
  -18.3380  -26.5770   22.1290 C   0  0  0  0  0  2  0  0  0  0  0  0
  -19.2140  -28.7290   23.2120 C   0  0  0  0  0  0  0  0  0  0  0  0
  -18.9580  -30.0020   23.7670 C   0  0  0  0  0  3  0  0  0  0  0  0
  -17.6400  -30.4850   23.8820 C   0  0  0  0  0  3  0  0  0  0  0  0
  -16.5610  -29.6910   23.4580 C   0  0  0  0  0  3  0  0  0  0  0  0
  -16.8020  -28.4200   22.9070 C   0  0  0  0  0  3  0  0  0  0  0  0
  -25.8760  -32.5110   23.8010 C   0  0  0  0  0  3  0  0  0  0  0  0
  -26.3870  -31.7610   25.0910 C   0  0  1  0  0  0  0  0  0  0  0  0
  -25.2810  -31.5060   26.1420 C   0  0  0  0  0  1  0  0  0  0  0  0
  -27.0070  -30.3950   24.7180 C   0  0  0  0  0  1  0  0  0  0  0  0
  -27.5090  -32.5840   25.7670 C   0  0  0  0  0  1  0  0  0  0  0  0
  -25.5380  -33.9070   24.1090 N   0  0  0  0  0  0  0  0  0  0  0  0
  -25.8590  -34.9540   23.3370 C   0  0  0  0  0  0  0  0  0  0  0  0
  -26.5420  -34.8480   22.3140 O   0  0  0  0  0  0  0  0  0  0  0  0
  -24.9330  -34.0620   24.9020 H   0  0  0  0  0  0  0  0  0  0  0  0
  -24.0980  -36.7050   22.9390 C   0  0  0  0  0  1  0  0  0  0  0  0
  -25.3400  -36.3390   23.7680 C   0  0  0  0  0  3  0  0  0  0  0  0
  -27.4460  -37.2820   24.6070 C   0  0  0  0  0  1  0  0  0  0  0  0
  -26.3530  -37.4100   23.6470 N   0  0  0  0  0  0  0  0  0  0  0  0
  -25.9260  -38.3250   23.7740 H   0  0  0  0  0  0  0  0  0  0  0  0
  1 47  1  0
  1  7  1  0
  2  7  2  0
  2  3  1  0
  3  8  2  0
  4  2  1  0
  5  4  1  0
  5  6  1  0
  6 17  1  0
  6  3  1  0
  9 17  1  0
 10 15  1  0
 11 12  1  0
 11 10  1  0
 13 12  1  0
 13 22  1  0
 13 14  1  0
 15  9  1  0
 15 14  1  0
 16  9  2  0
 17 18  1  0
 19 20  2  0
 20 39  1  0
 21 20  1  0
 21 24  1  0
 22 23  1  0
 22 19  1  0
 23 21  2  0
 24 25  1  0
 25 26  2  0
 27 30  1  0
 27 26  1  0
 28 27  2  0
 29 28  1  0
 29 24  2  0
 30 31  1  0
 31 32  1  0
 32 33  2  0
 34 33  1  0
 34 38  1  0
 35 34  2  0
 36 31  2  0
 36 35  1  0
 37 36  1  0
 39 40  1  0
 40 43  1  0
 40 42  1  0
 41 39  2  0
 44 19  1  0
 44 45  1  0
 46 44  1  0
 48 47  1  0
 48 49  1  0
 50 49  1  0
 51 62  2  0
 52 50  1  0
 52 57  1  0
 53 61  1  0
 53 63  1  0
 54 60  1  0
 54 56  1  0
 55 61  1  0
 56 57  2  0
 56 55  1  0
 58 52  2  0
 59 58  1  0
 59 54  2  0
 60 53  1  0
 61 51  1  0
 63 65  2  0
 64 63  1  0
 66 64  1  0
 67 76  2  0
 67 72  1  0
 68 64  1  0
 68 72  1  0
 69 68  1  0
 70 71  1  0
 70 69  1  0
 71 67  1  0
 72 73  2  0
 73 74  1  0
 75 74  2  0
 76 75  1  0
 77 51  1  0
 77 82  1  0
 77 78  1  0
 78 81  1  1
 78 79  1  0
 80 78  1  0
 82 85  1  0
 83 87  1  0
 83 82  1  0
 84 83  2  0
 87 86  1  0
 89 87  1  0
 89 90  1  0
 89 88  1  0
M  ISO  4   9 100  17 100  49 101  50 101
M  END
>  <TORSDO>  (52) 
F 20

>  <SCORE>  (52) 
-12.985

>  <name>  (52) 
51

>  <ligand_id>  (52) 
51

>  <original_smiles>  (52) 
[H]c1c([H])c([H])c2c(c1[H])C([H])([H])C([H])([H])C([H])([H])C2([H])N([H])C(=O)C1([H])N(C(=O)C([H])(N([H])C(=O)C([H])(N([H])C([H])([H])[H])C([H])([H])[H])C(C([H])([H])[H])(C([H])([H])[H])C([H])([H])[H])C([H])([H])c2c([H])c(OC([H])([H])C([H])([H])C([H])([H])C([H])([H])N=C3C(=O)C([H])(N([H])C(=O)N4C([H])([H])C([H])([H])C([H])([H])C([H])(n5nc(-c6c([H])c([H])c(Oc7c([H])c([H])c(F)c([H])c7F)c([H])c6[H])c(C(=O)N([H])[H])c5N([H])[H])C4([H])[H])C([H])([H])C3([H])[H])c([H])c([H])c2C1([H])[H]

>  <smiles>  (52) 
[H]c1c([H])c([H])c2c(c1[H])C([H])([H])C([H])([H])C([H])([H])C2([H])N([H])C(=O)C1([H])N(C(=O)C([H])(N([H])C(=O)C([H])(N([H])C([H])([H])[H])C([H])([H])[H])C(C([H])([H])[H])(C([H])([H])[H])C([H])([H])[H])C([H])([H])c2c([H])c(OC([H])([H])C([H])([H])C([H])([H])C([H])([H])N=C3C(=O)C([H])(N([H])C(=O)N4C([H])([H])C([H])([H])C([H])([H])C([H])(n5nc(-c6c([H])c([H])c(Oc7c([H])c([H])c(F)c([H])c7F)c([H])c6[H])c(C(=O)N([H])[H])c5N([H])[H])C4([H])[H])C([H])([H])C3([H])[H])c([H])c([H])c2C1([H])[H]

$$$$
52:0:0
     RDKit          3D

 93101  0  0  1  0  0  0  0  0999 V2000
  -27.7090  -21.5260   21.2500 C   0  0  0  0  0  0  0  0  0  0  0  0
  -29.0580  -21.4920   20.5300 C   0  0  0  0  0  0  0  0  0  0  0  0
  -26.6280  -22.3740   20.5800 C   0  0  0  0  0  2  0  0  0  0  0  0
  -27.2400  -23.4540   19.6720 C   0  0  0  0  0  2  0  0  0  0  0  0
  -28.2990  -22.8310   18.7300 C   0  0  0  0  0  3  0  0  0  0  0  0
  -29.3580  -22.1460   19.4680 N   0  0  0  0  0  0  0  0  0  0  0  0
  -27.4570  -20.9060   22.2880 O   0  0  0  0  0  0  0  0  0  0  0  0
  -30.0980  -20.5420   21.1130 C   0  0  0  0  0  2  0  0  0  0  0  0
  -30.4670  -19.4660   20.0750 C   0  0  0  0  0  2  0  0  0  0  0  0
  -31.5220  -18.4560   20.5390 C   0  0  0  0  0  2  0  0  0  0  0  0
  -31.7000  -17.3580   19.4830 C   0  0  0  0  0  2  0  0  0  0  0  0
  -32.9090  -15.3240   19.0820 C   0  0  0  0  0  0  0  0  0  0  0  0
  -32.4670  -12.9690   18.5100 C   0  0  0  0  0  2  0  0  0  0  0  0
  -31.3710  -12.8270   17.4370 C   0  0  0  0  0  2  0  0  0  0  0  0
  -29.9720  -12.8070   18.0800 C   0  0  0  0  0  2  0  0  0  0  0  0
  -29.7640  -13.9710   19.0860 C   0  0  0  0  0  3  0  0  0  0  0  0
  -30.9530  -14.0670   20.0690 C   0  0  0  0  0  2  0  0  0  0  0  0
  -32.2000  -14.1860   19.2900 N   0  0  0  0  0  0  0  0  0  0  0  0
  -33.8240  -15.4230   18.2610 O   0  0  0  0  0  0  0  0  0  0  0  0
  -32.6490  -16.3390   19.9110 N   0  0  0  0  0  0  0  0  0  0  0  0
  -33.5100  -16.7770   20.2040 H   0  0  0  0  0  0  0  0  0  0  0  0
  -27.6930  -14.8290   20.3560 C   0  0  0  0  0  0  0  0  0  0  0  0
  -26.5770  -14.1870   20.8210 C   0  0  0  0  0  0  0  0  0  0  0  0
  -26.7510  -12.8050   20.4960 C   0  0  0  0  0  0  0  0  0  0  0  0
  -28.4890  -13.8450   19.7890 N   0  0  0  0  0  0  0  0  0  0  0  0
  -27.9320  -12.6130   19.9250 N   0  0  0  0  0  0  0  0  0  0  0  0
  -25.8370  -11.6650   20.6450 C   0  0  0  0  0  0  0  0  0  0  0  0
  -26.0750  -10.6480   21.5950 C   0  0  0  0  0  3  0  0  0  0  0  0
  -25.1730   -9.5730   21.7320 C   0  0  0  0  0  3  0  0  0  0  0  0
  -24.0170   -9.5080   20.9200 C   0  0  0  0  0  0  0  0  0  0  0  0
  -23.7960  -10.5120   19.9610 C   0  0  0  0  0  3  0  0  0  0  0  0
  -24.6980  -11.5780   19.8210 C   0  0  0  0  0  3  0  0  0  0  0  0
  -23.0970   -8.4880   20.9670 O   0  0  0  0  0  0  0  0  0  0  0  0
  -22.6470   -7.9800   22.1590 C   0  0  0  0  0  0  0  0  0  0  0  0
  -21.9790   -8.7840   23.1090 C   0  0  0  0  0  3  0  0  0  0  0  0
  -21.4690   -8.2040   24.2890 C   0  0  0  0  0  3  0  0  0  0  0  0
  -21.6190   -6.8240   24.5170 C   0  0  0  0  0  0  0  0  0  0  0  0
  -22.2800   -6.0210   23.5720 C   0  0  0  0  0  3  0  0  0  0  0  0
  -22.7890   -6.5970   22.3940 C   0  0  0  0  0  0  0  0  0  0  0  0
  -23.4050   -5.8140   21.4750 F   0  0  0  0  0  0  0  0  0  0  0  0
  -21.1240   -6.2660   25.6470 F   0  0  0  0  0  0  0  0  0  0  0  0
  -25.3680  -14.8270   21.4420 C   0  0  0  0  0  0  0  0  0  0  0  0
  -24.7030  -14.1290   22.3570 N   0  0  0  0  0  0  0  0  0  0  0  0
  -25.0330  -15.9750   21.1520 O   0  0  0  0  0  0  0  0  0  0  0  0
  -24.9870  -13.1950   22.6100 H   0  0  0  0  0  0  0  0  0  0  0  0
  -23.8970  -14.5370   22.8080 H   0  0  0  0  0  0  0  0  0  0  0  0
  -28.0830  -16.1650   20.3510 N   0  0  0  0  0  0  0  0  0  0  0  0
  -27.4850  -16.9000   20.7160 H   0  0  0  0  0  0  0  0  0  0  0  0
  -28.9300  -16.5170   19.9230 H   0  0  0  0  0  0  0  0  0  0  0  0
  -28.9030  -23.8620   17.7590 C   0  0  0  0  0  2  0  0  0  0  0  0
  -27.8180  -24.4750   16.8550 C   0  0  0  0  0  2  0  0  0  0  0  0
  -28.2650  -25.7240   16.0830 C   0  0  0  0  0  2  0  0  0  0  0  0
  -27.1210  -26.3630   15.5160 O   0  0  0  0  0  0  0  0  0  0  0  0
  -26.0790  -28.1900   22.3010 C   0  0  0  0  0  0  0  0  0  0  0  0
  -26.3450  -27.0310   16.4270 C   0  0  0  0  0  0  0  0  0  0  0  0
  -24.2050  -28.6690   20.7540 C   0  0  0  0  0  3  0  0  0  0  0  0
  -24.7350  -28.4280   18.2700 C   0  0  0  0  0  0  0  0  0  0  0  0
  -26.6160  -28.6140   19.9080 C   0  0  0  0  0  2  0  0  0  0  0  0
  -26.0720  -28.1460   18.5780 C   0  0  0  0  0  0  0  0  0  0  0  0
  -26.8820  -27.4470   17.6620 C   0  0  0  0  0  3  0  0  0  0  0  0
  -25.0030  -27.3270   16.1160 C   0  0  0  0  0  3  0  0  0  0  0  0
  -24.1900  -28.0180   17.0370 C   0  0  0  0  0  3  0  0  0  0  0  0
  -23.9400  -29.1820   19.3120 C   0  0  0  0  0  2  0  0  0  0  0  0
  -25.6630  -28.4550   21.0290 N   0  0  0  0  0  0  0  0  0  0  0  0
  -25.2760  -28.1670   23.2440 O   0  0  0  0  0  0  0  0  0  0  0  0
  -23.3460  -27.4070   20.9920 C   0  0  0  0  0  0  0  0  0  0  0  0
  -22.0150  -27.5820   20.9820 N   0  0  0  0  0  0  0  0  0  0  0  0
  -23.8740  -26.3030   21.1500 O   0  0  0  0  0  0  0  0  0  0  0  0
  -21.6620  -28.5200   20.8540 H   0  0  0  0  0  0  0  0  0  0  0  0
  -18.4710  -26.9020   20.8220 C   0  0  0  0  0  0  0  0  0  0  0  0
  -21.0090  -26.5340   21.1500 C   0  0  0  0  0  3  0  0  0  0  0  0
  -20.9360  -25.6310   19.8970 C   0  0  0  0  0  2  0  0  0  0  0  0
  -19.8800  -26.0860   18.8860 C   0  0  0  0  0  2  0  0  0  0  0  0
  -18.4910  -26.1050   19.5280 C   0  0  0  0  0  2  0  0  0  0  0  0
  -19.6570  -27.1170   21.5740 C   0  0  0  0  0  0  0  0  0  0  0  0
  -19.5900  -27.8960   22.7500 C   0  0  0  0  0  3  0  0  0  0  0  0
  -18.3690  -28.4510   23.1770 C   0  0  0  0  0  3  0  0  0  0  0  0
  -17.1950  -28.2210   22.4390 C   0  0  0  0  0  3  0  0  0  0  0  0
  -17.2480  -27.4450   21.2670 C   0  0  0  0  0  3  0  0  0  0  0  0
  -27.5810  -27.9270   22.6340 C   0  0  0  0  0  3  0  0  0  0  0  0
  -27.8470  -28.5080   23.9570 N   0  0  0  0  0  0  0  0  0  0  0  0
  -28.5980  -29.5970   24.1710 C   0  0  0  0  0  0  0  0  0  0  0  0
  -29.2040  -30.1810   23.2700 O   0  0  0  0  0  0  0  0  0  0  0  0
  -27.3430  -28.1110   24.7350 H   0  0  0  0  0  0  0  0  0  0  0  0
  -27.8410  -31.3940   25.7580 C   0  0  0  0  0  1  0  0  0  0  0  0
  -28.6910  -30.1210   25.6180 C   0  0  0  0  0  3  0  0  0  0  0  0
  -30.8800  -29.1860   26.2150 C   0  0  0  0  0  1  0  0  0  0  0  0
  -30.0760  -30.3950   26.0560 N   0  0  0  0  0  0  0  0  0  0  0  0
  -30.0830  -30.8970   26.9380 H   0  0  0  0  0  0  0  0  0  0  0  0
  -27.9680  -26.3980   22.6060 C   0  0  1  0  0  0  0  0  0  0  0  0
  -27.0270  -25.5020   23.4440 C   0  0  0  0  0  1  0  0  0  0  0  0
  -27.9610  -25.8620   21.1540 C   0  0  0  0  0  1  0  0  0  0  0  0
  -29.4080  -26.2120   23.1380 C   0  0  0  0  0  1  0  0  0  0  0  0
  1  7  2  0
  2  8  1  0
  2  1  1  0
  3  1  1  0
  4  3  1  0
  5 50  1  0
  5  6  1  0
  5  4  1  0
  6  2  2  0
  9 10  1  0
  9  8  1  0
 11 20  1  0
 11 10  1  0
 12 18  1  0
 12 20  1  0
 13 18  1  0
 14 15  1  0
 14 13  1  0
 16 15  1  0
 16 25  1  0
 16 17  1  0
 18 17  1  0
 19 12  2  0
 20 21  1  0
 22 23  2  0
 23 42  1  0
 24 27  1  0
 24 23  1  0
 25 26  1  0
 25 22  1  0
 26 24  2  0
 27 28  1  0
 28 29  2  0
 30 33  1  0
 30 29  1  0
 31 30  2  0
 32 31  1  0
 32 27  2  0
 33 34  1  0
 34 39  2  0
 34 35  1  0
 35 36  2  0
 36 37  1  0
 37 41  1  0
 38 37  2  0
 39 38  1  0
 40 39  1  0
 42 43  1  0
 43 45  1  0
 43 46  1  0
 44 42  2  0
 47 22  1  0
 47 48  1  0
 49 47  1  0
 51 50  1  0
 52 51  1  0
 53 52  1  0
 53 55  1  0
 54 65  2  0
 55 60  1  0
 56 66  1  0
 56 64  1  0
 57 59  1  0
 57 63  1  0
 58 64  1  0
 59 58  1  0
 60 59  2  0
 61 55  2  0
 61 62  1  0
 62 57  2  0
 63 56  1  0
 64 54  1  0
 66 68  2  0
 67 66  1  0
 69 67  1  0
 70 79  2  0
 70 75  1  0
 71 67  1  0
 71 75  1  0
 72 71  1  0
 73 74  1  0
 73 72  1  0
 74 70  1  0
 75 76  2  0
 76 77  1  0
 78 77  2  0
 79 78  1  0
 80 54  1  0
 80 81  1  0
 81 82  1  0
 81 84  1  0
 82 86  1  0
 83 82  2  0
 86 85  1  0
 86 88  1  0
 88 87  1  0
 88 89  1  0
 90 80  1  0
 90 93  1  1
 90 91  1  0
 92 90  1  0
M  ISO  4  12 100  20 100  52 101  53 101
M  END
>  <TORSDO>  (53) 
F 23

>  <SCORE>  (53) 
-4.557

>  <name>  (53) 
52

>  <ligand_id>  (53) 
52

>  <original_smiles>  (53) 
[H]c1c([H])c([H])c2c(c1[H])C([H])([H])C([H])([H])C([H])([H])C2([H])N([H])C(=O)C1([H])N(C(=O)C([H])(N([H])C(=O)C([H])(N([H])C([H])([H])[H])C([H])([H])[H])C(C([H])([H])[H])(C([H])([H])[H])C([H])([H])[H])C([H])([H])c2c([H])c(OC([H])([H])C([H])([H])C([H])([H])C3([H])N=C(C([H])([H])C([H])([H])C([H])([H])C([H])([H])N([H])C(=O)N4C([H])([H])C([H])([H])C([H])([H])C([H])(n5nc(-c6c([H])c([H])c(Oc7c([H])c([H])c(F)c([H])c7F)c([H])c6[H])c(C(=O)N([H])[H])c5N([H])[H])C4([H])[H])C(=O)C([H])([H])C3([H])[H])c([H])c([H])c2C1([H])[H]

>  <smiles>  (53) 
[H]c1c([H])c([H])c2c(c1[H])C([H])([H])C([H])([H])C([H])([H])C2([H])N([H])C(=O)C1([H])N(C(=O)C([H])(N([H])C(=O)C([H])(N([H])C([H])([H])[H])C([H])([H])[H])C(C([H])([H])[H])(C([H])([H])[H])C([H])([H])[H])C([H])([H])c2c([H])c(OC([H])([H])C([H])([H])C([H])([H])C3([H])N=C(C([H])([H])C([H])([H])C([H])([H])C([H])([H])N([H])C(=O)N4C([H])([H])C([H])([H])C([H])([H])C([H])(n5nc(-c6c([H])c([H])c(Oc7c([H])c([H])c(F)c([H])c7F)c([H])c6[H])c(C(=O)N([H])[H])c5N([H])[H])C4([H])[H])C(=O)C([H])([H])C3([H])[H])c([H])c([H])c2C1([H])[H]

$$$$
53:0:0
     RDKit          3D

 91 99  0  0  1  0  0  0  0  0999 V2000
  -29.3480  -19.8470   20.5600 C   0  0  0  0  0  0  0  0  0  0  0  0
  -30.3560  -19.2300   21.5430 C   0  0  0  0  0  0  0  0  0  0  0  0
  -28.6290  -18.8570   19.6200 C   0  0  0  0  0  2  0  0  0  0  0  0
  -30.3740  -17.7050   21.7740 C   0  0  0  0  0  2  0  0  0  0  0  0
  -28.6150  -17.3750   20.0460 C   0  0  0  0  0  2  0  0  0  0  0  0
  -29.9860  -16.8830   20.5350 C   0  0  0  0  0  3  0  0  0  0  0  0
  -29.1620  -21.1250   20.4890 N   0  0  0  0  0  0  0  0  0  0  0  0
  -31.1400  -19.9320   22.1940 O   0  0  0  0  0  0  0  0  0  0  0  0
  -30.6410  -14.4650   20.2600 C   0  0  0  0  0  0  0  0  0  0  0  0
  -30.3170  -12.3450   19.0500 C   0  0  0  0  0  2  0  0  0  0  0  0
  -29.3330  -12.6140   17.8910 C   0  0  0  0  0  2  0  0  0  0  0  0
  -27.8720  -12.4730   18.3620 C   0  0  0  0  0  2  0  0  0  0  0  0
  -27.5880  -13.2590   19.6710 C   0  0  0  0  0  3  0  0  0  0  0  0
  -28.6760  -12.9640   20.7310 C   0  0  0  0  0  2  0  0  0  0  0  0
  -29.9870  -13.2790   20.1370 N   0  0  0  0  0  0  0  0  0  0  0  0
  -31.7330  -14.6970   19.7340 O   0  0  0  0  0  0  0  0  0  0  0  0
  -29.9040  -15.4420   20.8230 N   0  0  0  0  0  0  0  0  0  0  0  0
  -29.0550  -15.1200   21.2640 H   0  0  0  0  0  0  0  0  0  0  0  0
  -25.2100  -13.8670   20.4470 C   0  0  0  0  0  0  0  0  0  0  0  0
  -24.1520  -13.0950   20.8430 C   0  0  0  0  0  0  0  0  0  0  0  0
  -24.6110  -11.7420   20.7870 C   0  0  0  0  0  0  0  0  0  0  0  0
  -26.2470  -12.9850   20.1810 N   0  0  0  0  0  0  0  0  0  0  0  0
  -25.8900  -11.7020   20.4400 N   0  0  0  0  0  0  0  0  0  0  0  0
  -23.8890  -10.4790   20.9890 C   0  0  0  0  0  0  0  0  0  0  0  0
  -24.3450   -9.5080   21.9070 C   0  0  0  0  0  3  0  0  0  0  0  0
  -23.6250   -8.3090   22.0960 C   0  0  0  0  0  3  0  0  0  0  0  0
  -22.4350   -8.0730   21.3670 C   0  0  0  0  0  0  0  0  0  0  0  0
  -21.9980   -9.0340   20.4380 C   0  0  0  0  0  3  0  0  0  0  0  0
  -22.7180  -10.2240   20.2480 C   0  0  0  0  0  3  0  0  0  0  0  0
  -21.6830   -6.9270   21.4670 O   0  0  0  0  0  0  0  0  0  0  0  0
  -21.6590   -6.1800   22.6170 C   0  0  0  0  0  0  0  0  0  0  0  0
  -21.2460   -6.7270   23.8520 C   0  0  0  0  0  3  0  0  0  0  0  0
  -21.1700   -5.9060   24.9950 C   0  0  0  0  0  3  0  0  0  0  0  0
  -21.4960   -4.5400   24.9030 C   0  0  0  0  0  0  0  0  0  0  0  0
  -21.9020   -3.9930   23.6740 C   0  0  0  0  0  3  0  0  0  0  0  0
  -21.9800   -4.8100   22.5330 C   0  0  0  0  0  0  0  0  0  0  0  0
  -22.3510   -4.2740   21.3460 F   0  0  0  0  0  0  0  0  0  0  0  0
  -21.4160   -3.7480   25.9980 F   0  0  0  0  0  0  0  0  0  0  0  0
  -22.7650  -13.5710   21.1620 C   0  0  0  0  0  0  0  0  0  0  0  0
  -22.0620  -12.8650   22.0410 N   0  0  0  0  0  0  0  0  0  0  0  0
  -22.3130  -14.6040   20.6690 O   0  0  0  0  0  0  0  0  0  0  0  0
  -22.4400  -12.0290   22.4620 H   0  0  0  0  0  0  0  0  0  0  0  0
  -21.1320  -13.1650   22.2970 H   0  0  0  0  0  0  0  0  0  0  0  0
  -25.3710  -15.2390   20.2740 N   0  0  0  0  0  0  0  0  0  0  0  0
  -24.6010  -15.8880   20.3930 H   0  0  0  0  0  0  0  0  0  0  0  0
  -26.2010  -15.6750   19.8960 H   0  0  0  0  0  0  0  0  0  0  0  0
  -28.2420  -21.7270   19.5240 C   0  0  0  0  0  2  0  0  0  0  0  0
  -28.6920  -23.1430   19.0940 C   0  0  0  0  0  2  0  0  0  0  0  0
  -28.3340  -24.3110   20.0430 C   0  0  0  0  0  2  0  0  0  0  0  0
  -28.6680  -25.6830   19.4060 C   0  0  0  0  0  2  0  0  0  0  0  0
  -28.4420  -26.8030   20.2690 O   0  0  0  0  0  0  0  0  0  0  0  0
  -24.5660  -31.9420   23.2850 C   0  0  0  0  0  0  0  0  0  0  0  0
  -27.2400  -27.4840   20.2390 C   0  0  0  0  0  0  0  0  0  0  0  0
  -23.3710  -30.5320   21.6410 C   0  0  0  0  0  3  0  0  0  0  0  0
  -24.8340  -28.9830   20.2370 C   0  0  0  0  0  0  0  0  0  0  0  0
  -25.8980  -30.8870   21.4610 C   0  0  0  0  0  2  0  0  0  0  0  0
  -25.9860  -29.5100   20.8330 C   0  0  0  0  0  0  0  0  0  0  0  0
  -27.1840  -28.7640   20.8390 C   0  0  0  0  0  3  0  0  0  0  0  0
  -26.0650  -26.9650   19.6480 C   0  0  0  0  0  3  0  0  0  0  0  0
  -24.8670  -27.7080   19.6470 C   0  0  0  0  0  3  0  0  0  0  0  0
  -23.5910  -29.8430   20.2670 C   0  0  0  0  0  2  0  0  0  0  0  0
  -24.6290  -31.1360   22.1880 N   0  0  0  0  0  0  0  0  0  0  0  0
  -23.4810  -32.2180   23.8160 O   0  0  0  0  0  0  0  0  0  0  0  0
  -22.7130  -29.5160   22.6030 C   0  0  0  0  0  0  0  0  0  0  0  0
  -21.3890  -29.3370   22.4670 N   0  0  0  0  0  0  0  0  0  0  0  0
  -23.3900  -28.8930   23.4260 O   0  0  0  0  0  0  0  0  0  0  0  0
  -20.9040  -29.8930   21.7750 H   0  0  0  0  0  0  0  0  0  0  0  0
  -18.0070  -28.1660   22.9570 C   0  0  0  0  0  0  0  0  0  0  0  0
  -20.5650  -28.4040   23.2360 C   0  0  0  0  0  3  0  0  0  0  0  0
  -20.6600  -26.9730   22.6570 C   0  0  0  0  0  2  0  0  0  0  0  0
  -19.5580  -26.6600   21.6410 C   0  0  0  0  0  2  0  0  0  0  0  0
  -18.1750  -26.8150   22.2800 C   0  0  0  0  0  2  0  0  0  0  0  0
  -19.1300  -28.9190   23.3900 C   0  0  0  0  0  0  0  0  0  0  0  0
  -18.9200  -30.1840   23.9800 C   0  0  0  0  0  3  0  0  0  0  0  0
  -17.6180  -30.6960   24.1420 C   0  0  0  0  0  3  0  0  0  0  0  0
  -16.5090  -29.9390   23.7250 C   0  0  0  0  0  3  0  0  0  0  0  0
  -16.7050  -28.6770   23.1380 C   0  0  0  0  0  3  0  0  0  0  0  0
  -25.8490  -32.5760   23.9110 C   0  0  0  0  0  3  0  0  0  0  0  0
  -26.3500  -31.8170   25.2020 C   0  0  1  0  0  0  0  0  0  0  0  0
  -25.2450  -31.5940   26.2610 C   0  0  0  0  0  1  0  0  0  0  0  0
  -26.9310  -30.4320   24.8290 C   0  0  0  0  0  1  0  0  0  0  0  0
  -27.4960  -32.6140   25.8660 C   0  0  0  0  0  1  0  0  0  0  0  0
  -25.5430  -33.9780   24.2190 N   0  0  0  0  0  0  0  0  0  0  0  0
  -25.8920  -35.0190   23.4520 C   0  0  0  0  0  0  0  0  0  0  0  0
  -26.5750  -34.8980   22.4310 O   0  0  0  0  0  0  0  0  0  0  0  0
  -24.9370  -34.1470   25.0100 H   0  0  0  0  0  0  0  0  0  0  0  0
  -24.1790  -36.8150   23.0440 C   0  0  0  0  0  1  0  0  0  0  0  0
  -25.4040  -36.4140   23.8830 C   0  0  0  0  0  3  0  0  0  0  0  0
  -27.5300  -37.2950   24.7390 C   0  0  0  0  0  1  0  0  0  0  0  0
  -26.4430  -37.4620   23.7780 N   0  0  0  0  0  0  0  0  0  0  0  0
  -26.0380  -38.3840   23.9160 H   0  0  0  0  0  0  0  0  0  0  0  0
  1  2  1  0
  2  4  1  0
  2  8  2  0
  3  5  1  0
  3  1  1  0
  5  6  1  0
  6 17  1  0
  6  4  1  0
  7  1  2  0
  9 17  1  0
 10 15  1  0
 11 12  1  0
 11 10  1  0
 13 12  1  0
 13 22  1  0
 13 14  1  0
 15  9  1  0
 15 14  1  0
 16  9  2  0
 17 18  1  0
 19 20  2  0
 20 39  1  0
 21 20  1  0
 21 24  1  0
 22 23  1  0
 22 19  1  0
 23 21  2  0
 24 25  1  0
 25 26  2  0
 27 30  1  0
 27 26  1  0
 28 27  2  0
 29 28  1  0
 29 24  2  0
 30 31  1  0
 31 32  1  0
 32 33  2  0
 34 33  1  0
 34 38  1  0
 35 34  2  0
 36 31  2  0
 36 35  1  0
 37 36  1  0
 39 40  1  0
 40 43  1  0
 40 42  1  0
 41 39  2  0
 44 45  1  0
 44 19  1  0
 46 44  1  0
 47  7  1  0
 48 47  1  0
 48 49  1  0
 50 49  1  0
 50 51  1  0
 52 63  2  0
 53 51  1  0
 53 58  1  0
 54 62  1  0
 54 64  1  0
 55 61  1  0
 55 57  1  0
 56 62  1  0
 57 58  2  0
 57 56  1  0
 59 53  2  0
 60 59  1  0
 60 55  2  0
 61 54  1  0
 62 52  1  0
 64 66  2  0
 65 64  1  0
 67 65  1  0
 68 77  2  0
 68 73  1  0
 69 65  1  0
 69 73  1  0
 70 69  1  0
 71 72  1  0
 71 70  1  0
 72 68  1  0
 73 74  2  0
 74 75  1  0
 76 75  2  0
 77 76  1  0
 78 52  1  0
 78 83  1  0
 78 79  1  0
 79 82  1  1
 79 80  1  0
 81 79  1  0
 83 86  1  0
 84 88  1  0
 84 83  1  0
 85 84  2  0
 88 87  1  0
 90 88  1  0
 90 91  1  0
 90 89  1  0
M  ISO  4   9 100  17 100  50 101  51 101
M  END
>  <TORSDO>  (54) 
F 20

>  <SCORE>  (54) 
-13.939

>  <name>  (54) 
53

>  <ligand_id>  (54) 
53

>  <original_smiles>  (54) 
[H]c1c([H])c([H])c2c(c1[H])C([H])([H])C([H])([H])C([H])([H])C2([H])N([H])C(=O)C1([H])N(C(=O)C([H])(N([H])C(=O)C([H])(N([H])C([H])([H])[H])C([H])([H])[H])C(C([H])([H])[H])(C([H])([H])[H])C([H])([H])[H])C([H])([H])c2c([H])c(OC([H])([H])C([H])([H])C([H])([H])C([H])([H])N=C3C(=O)C([H])([H])C([H])(N([H])C(=O)N4C([H])([H])C([H])([H])C([H])([H])C([H])(n5nc(-c6c([H])c([H])c(Oc7c([H])c([H])c(F)c([H])c7F)c([H])c6[H])c(C(=O)N([H])[H])c5N([H])[H])C4([H])[H])C([H])([H])C3([H])[H])c([H])c([H])c2C1([H])[H]

>  <smiles>  (54) 
[H]c1c([H])c([H])c2c(c1[H])C([H])([H])C([H])([H])C([H])([H])C2([H])N([H])C(=O)C1([H])N(C(=O)C([H])(N([H])C(=O)C([H])(N([H])C([H])([H])[H])C([H])([H])[H])C(C([H])([H])[H])(C([H])([H])[H])C([H])([H])[H])C([H])([H])c2c([H])c(OC([H])([H])C([H])([H])C([H])([H])C([H])([H])N=C3C(=O)C([H])([H])C([H])(N([H])C(=O)N4C([H])([H])C([H])([H])C([H])([H])C([H])(n5nc(-c6c([H])c([H])c(Oc7c([H])c([H])c(F)c([H])c7F)c([H])c6[H])c(C(=O)N([H])[H])c5N([H])[H])C4([H])[H])C([H])([H])C3([H])[H])c([H])c([H])c2C1([H])[H]

$$$$
54:0:0
     RDKit          3D

 90 98  0  0  1  0  0  0  0  0999 V2000
  -28.4080  -19.1630   20.1370 C   0  0  0  0  0  2  0  0  0  0  0  0
  -30.5810  -20.2750   20.7270 C   0  0  0  0  0  2  0  0  0  0  0  0
  -28.8600  -17.8740   20.8550 C   0  0  0  0  0  2  0  0  0  0  0  0
  -31.0450  -18.9930   21.4400 C   0  0  0  0  0  2  0  0  0  0  0  0
  -29.0460  -20.4270   20.7520 C   0  0  0  0  0  3  0  0  0  0  0  0
  -30.3960  -17.7190   20.8580 C   0  0  0  0  0  3  0  0  0  0  0  0
  -28.5710  -21.7180   20.0400 C   0  0  0  0  0  2  0  0  0  0  0  0
  -28.7840  -23.0060   20.8650 C   0  0  0  0  0  2  0  0  0  0  0  0
  -28.4410  -24.3000   20.0980 C   0  0  0  0  0  2  0  0  0  0  0  0
  -28.5190  -25.5540   20.9930 C   0  0  0  0  0  2  0  0  0  0  0  0
  -28.5050  -26.7670   20.2360 O   0  0  0  0  0  0  0  0  0  0  0  0
  -24.6190  -31.8960   23.2720 C   0  0  0  0  0  0  0  0  0  0  0  0
  -27.3220  -27.4630   20.2540 C   0  0  0  0  0  0  0  0  0  0  0  0
  -23.4360  -30.4760   21.6260 C   0  0  0  0  0  3  0  0  0  0  0  0
  -24.9140  -28.9340   20.2320 C   0  0  0  0  0  0  0  0  0  0  0  0
  -25.9600  -30.8540   21.4490 C   0  0  0  0  0  2  0  0  0  0  0  0
  -26.0600  -29.4780   20.8240 C   0  0  0  0  0  0  0  0  0  0  0  0
  -27.2700  -28.7510   20.8300 C   0  0  0  0  0  3  0  0  0  0  0  0
  -26.1620  -26.9220   19.6630 C   0  0  0  0  0  3  0  0  0  0  0  0
  -24.9580  -27.6530   19.6510 C   0  0  0  0  0  3  0  0  0  0  0  0
  -23.6640  -29.7840   20.2550 C   0  0  0  0  0  2  0  0  0  0  0  0
  -24.6890  -31.0900   22.1740 N   0  0  0  0  0  0  0  0  0  0  0  0
  -23.5310  -32.1660   23.8000 O   0  0  0  0  0  0  0  0  0  0  0  0
  -22.7810  -29.4590   22.5880 C   0  0  0  0  0  0  0  0  0  0  0  0
  -21.4600  -29.2680   22.4440 N   0  0  0  0  0  0  0  0  0  0  0  0
  -23.4590  -28.8450   23.4160 O   0  0  0  0  0  0  0  0  0  0  0  0
  -20.9750  -29.8160   21.7460 H   0  0  0  0  0  0  0  0  0  0  0  0
  -18.0870  -28.0580   22.9010 C   0  0  0  0  0  0  0  0  0  0  0  0
  -20.6390  -28.3320   23.2100 C   0  0  0  0  0  3  0  0  0  0  0  0
  -20.7580  -26.8970   22.6480 C   0  0  0  0  0  2  0  0  0  0  0  0
  -19.6730  -26.5610   21.6190 C   0  0  0  0  0  2  0  0  0  0  0  0
  -18.2810  -26.7030   22.2410 C   0  0  0  0  0  2  0  0  0  0  0  0
  -19.1950  -28.8290   23.3420 C   0  0  0  0  0  0  0  0  0  0  0  0
  -18.9620  -30.0980   23.9180 C   0  0  0  0  0  3  0  0  0  0  0  0
  -17.6520  -30.5940   24.0590 C   0  0  0  0  0  3  0  0  0  0  0  0
  -16.5580  -29.8200   23.6350 C   0  0  0  0  0  3  0  0  0  0  0  0
  -16.7770  -28.5540   23.0630 C   0  0  0  0  0  3  0  0  0  0  0  0
  -25.8960  -32.5360   23.9010 C   0  0  0  0  0  3  0  0  0  0  0  0
  -25.5820  -33.9370   24.2120 N   0  0  0  0  0  0  0  0  0  0  0  0
  -25.9160  -34.9800   23.4410 C   0  0  0  0  0  0  0  0  0  0  0  0
  -26.5920  -34.8650   22.4150 O   0  0  0  0  0  0  0  0  0  0  0  0
  -24.9820  -34.0990   25.0080 H   0  0  0  0  0  0  0  0  0  0  0  0
  -24.1760  -36.7550   23.0580 C   0  0  0  0  0  1  0  0  0  0  0  0
  -25.4190  -36.3720   23.8760 C   0  0  0  0  0  3  0  0  0  0  0  0
  -27.5480  -37.2810   24.6950 C   0  0  0  0  0  1  0  0  0  0  0  0
  -26.4450  -37.4290   23.7480 N   0  0  0  0  0  0  0  0  0  0  0  0
  -26.0330  -38.3490   23.8820 H   0  0  0  0  0  0  0  0  0  0  0  0
  -26.4030  -31.7770   25.1890 C   0  0  1  0  0  0  0  0  0  0  0  0
  -25.3000  -31.5450   26.2470 C   0  0  0  0  0  1  0  0  0  0  0  0
  -26.9950  -30.3990   24.8110 C   0  0  0  0  0  1  0  0  0  0  0  0
  -27.5450  -32.5810   25.8560 C   0  0  0  0  0  1  0  0  0  0  0  0
  -30.8830  -16.4710   21.6350 C   0  0  0  0  0  2  0  0  0  0  0  0
  -30.7660  -14.3840   20.2540 C   0  0  0  0  0  0  0  0  0  0  0  0
  -30.3450  -12.3170   18.9680 C   0  0  0  0  0  2  0  0  0  0  0  0
  -29.3540  -12.5840   17.8190 C   0  0  0  0  0  2  0  0  0  0  0  0
  -27.8990  -12.4560   18.3090 C   0  0  0  0  0  2  0  0  0  0  0  0
  -27.6350  -13.2580   19.6110 C   0  0  0  0  0  3  0  0  0  0  0  0
  -28.7240  -12.9570   20.6620 C   0  0  0  0  0  2  0  0  0  0  0  0
  -30.0390  -13.2520   20.0600 N   0  0  0  0  0  0  0  0  0  0  0  0
  -31.7980  -14.6430   19.6270 O   0  0  0  0  0  0  0  0  0  0  0  0
  -30.2770  -15.2190   21.1810 N   0  0  0  0  0  0  0  0  0  0  0  0
  -29.4300  -14.9250   21.6430 H   0  0  0  0  0  0  0  0  0  0  0  0
  -25.2680  -13.8940   20.4020 C   0  0  0  0  0  0  0  0  0  0  0  0
  -24.2040  -13.1320   20.8080 C   0  0  0  0  0  0  0  0  0  0  0  0
  -24.6480  -11.7750   20.7570 C   0  0  0  0  0  0  0  0  0  0  0  0
  -26.2950  -13.0010   20.1330 N   0  0  0  0  0  0  0  0  0  0  0  0
  -25.9250  -11.7220   20.4010 N   0  0  0  0  0  0  0  0  0  0  0  0
  -23.9150  -10.5210   20.9710 C   0  0  0  0  0  0  0  0  0  0  0  0
  -24.3690   -9.5480   21.8890 C   0  0  0  0  0  3  0  0  0  0  0  0
  -23.6380   -8.3580   22.0900 C   0  0  0  0  0  3  0  0  0  0  0  0
  -22.4390   -8.1320   21.3740 C   0  0  0  0  0  0  0  0  0  0  0  0
  -22.0040   -9.0930   20.4440 C   0  0  0  0  0  3  0  0  0  0  0  0
  -22.7360  -10.2750   20.2410 C   0  0  0  0  0  3  0  0  0  0  0  0
  -21.6760   -6.9950   21.4850 O   0  0  0  0  0  0  0  0  0  0  0  0
  -21.6520   -6.2550   22.6400 C   0  0  0  0  0  0  0  0  0  0  0  0
  -21.2650   -6.8150   23.8760 C   0  0  0  0  0  3  0  0  0  0  0  0
  -21.1880   -6.0020   25.0250 C   0  0  0  0  0  3  0  0  0  0  0  0
  -21.4850   -4.6300   24.9380 C   0  0  0  0  0  0  0  0  0  0  0  0
  -21.8660   -4.0680   23.7060 C   0  0  0  0  0  3  0  0  0  0  0  0
  -21.9450   -4.8780   22.5600 C   0  0  0  0  0  0  0  0  0  0  0  0
  -22.2910   -4.3280   21.3710 F   0  0  0  0  0  0  0  0  0  0  0  0
  -21.4040   -3.8460   26.0390 F   0  0  0  0  0  0  0  0  0  0  0  0
  -22.8240  -13.6240   21.1330 C   0  0  0  0  0  0  0  0  0  0  0  0
  -22.1210  -12.9340   22.0240 N   0  0  0  0  0  0  0  0  0  0  0  0
  -22.3770  -14.6560   20.6340 O   0  0  0  0  0  0  0  0  0  0  0  0
  -22.4950  -12.0980   22.4500 H   0  0  0  0  0  0  0  0  0  0  0  0
  -21.1960  -13.2450   22.2850 H   0  0  0  0  0  0  0  0  0  0  0  0
  -25.4430  -15.2620   20.2220 N   0  0  0  0  0  0  0  0  0  0  0  0
  -24.6910  -15.9280   20.3610 H   0  0  0  0  0  0  0  0  0  0  0  0
  -26.2920  -15.6900   19.8760 H   0  0  0  0  0  0  0  0  0  0  0  0
  1  5  1  0
  1  3  1  0
  2  5  1  0
  2  4  1  0
  3  6  1  0
  5  7  1  0
  6  4  1  0
  6 52  1  0
  7  8  1  0
  9  8  1  0
  9 10  1  0
 11 13  1  0
 11 10  1  0
 12 23  2  0
 13 18  1  0
 14 22  1  0
 14 24  1  0
 15 21  1  0
 15 17  1  0
 16 22  1  0
 17 18  2  0
 17 16  1  0
 19 13  2  0
 20 19  1  0
 20 15  2  0
 21 14  1  0
 22 12  1  0
 24 26  2  0
 25 24  1  0
 27 25  1  0
 28 37  2  0
 28 33  1  0
 29 25  1  0
 29 33  1  0
 30 29  1  0
 31 32  1  0
 31 30  1  0
 32 28  1  0
 33 34  2  0
 34 35  1  0
 36 35  2  0
 37 36  1  0
 38 12  1  0
 38 39  1  0
 38 48  1  0
 39 42  1  0
 40 44  1  0
 40 39  1  0
 41 40  2  0
 44 43  1  0
 46 44  1  0
 46 47  1  0
 46 45  1  0
 48 51  1  1
 48 49  1  0
 50 48  1  0
 53 61  1  0
 54 59  1  0
 55 56  1  0
 55 54  1  0
 57 56  1  0
 57 66  1  0
 57 58  1  0
 59 53  1  0
 59 58  1  0
 60 53  2  0
 61 52  1  0
 61 62  1  0
 63 64  2  0
 64 83  1  0
 65 64  1  0
 65 68  1  0
 66 67  1  0
 66 63  1  0
 67 65  2  0
 68 69  1  0
 69 70  2  0
 71 74  1  0
 71 70  1  0
 72 71  2  0
 73 72  1  0
 73 68  2  0
 74 75  1  0
 75 76  1  0
 76 77  2  0
 78 77  1  0
 78 82  1  0
 79 78  2  0
 80 75  2  0
 80 79  1  0
 81 80  1  0
 83 84  1  0
 84 87  1  0
 84 86  1  0
 85 83  2  0
 88 89  1  0
 88 63  1  0
 90 88  1  0
M  ISO  4  10 101  11 101  53 100  61 100
M  END
>  <TORSDO>  (55) 
F 21

>  <SCORE>  (55) 
-13.686

>  <name>  (55) 
54

>  <ligand_id>  (55) 
54

>  <original_smiles>  (55) 
[H]c1c([H])c([H])c2c(c1[H])C([H])([H])C([H])([H])C([H])([H])C2([H])N([H])C(=O)C1([H])N(C(=O)C([H])(N([H])C(=O)C([H])(N([H])C([H])([H])[H])C([H])([H])[H])C(C([H])([H])[H])(C([H])([H])[H])C([H])([H])[H])C([H])([H])c2c([H])c(OC([H])([H])C([H])([H])C([H])([H])C([H])([H])C3([H])C([H])([H])C([H])([H])C([H])(C([H])([H])N([H])C(=O)N4C([H])([H])C([H])([H])C([H])([H])C([H])(n5nc(-c6c([H])c([H])c(Oc7c([H])c([H])c(F)c([H])c7F)c([H])c6[H])c(C(=O)N([H])[H])c5N([H])[H])C4([H])[H])C([H])([H])C3([H])[H])c([H])c([H])c2C1([H])[H]

>  <smiles>  (55) 
[H]c1c([H])c([H])c2c(c1[H])C([H])([H])C([H])([H])C([H])([H])C2([H])N([H])C(=O)C1([H])N(C(=O)C([H])(N([H])C(=O)C([H])(N([H])C([H])([H])[H])C([H])([H])[H])C(C([H])([H])[H])(C([H])([H])[H])C([H])([H])[H])C([H])([H])c2c([H])c(OC([H])([H])C([H])([H])C([H])([H])C([H])([H])C3([H])C([H])([H])C([H])([H])C([H])(C([H])([H])N([H])C(=O)N4C([H])([H])C([H])([H])C([H])([H])C([H])(n5nc(-c6c([H])c([H])c(Oc7c([H])c([H])c(F)c([H])c7F)c([H])c6[H])c(C(=O)N([H])[H])c5N([H])[H])C4([H])[H])C([H])([H])C3([H])[H])c([H])c([H])c2C1([H])[H]

$$$$
55:0:0
     RDKit          3D

 92101  0  0  1  0  0  0  0  0999 V2000
  -28.4520  -22.0850   19.9620 C   0  0  0  0  0  3  0  0  0  0  0  0
  -30.3650  -22.2580   21.4350 C   0  0  0  0  0  3  0  0  0  0  0  0
  -28.2100  -23.4770   20.1120 C   0  0  0  0  0  3  0  0  0  0  0  0
  -30.1280  -23.6450   21.5780 C   0  0  0  0  0  3  0  0  0  0  0  0
  -29.5180  -21.4440   20.6450 C   0  0  0  0  0  0  0  0  0  0  0  0
  -29.0360  -24.2770   20.9370 C   0  0  0  0  0  0  0  0  0  0  0  0
  -29.3710  -19.2260   19.5000 C   0  0  0  0  0  3  0  0  0  0  0  0
  -29.7530  -19.9600   20.5700 C   0  0  0  0  0  0  0  0  0  0  0  0
  -29.5090  -17.7030   19.3550 C   0  0  0  0  0  2  0  0  0  0  0  0
  -30.3480  -19.2240   21.7730 C   0  0  0  0  0  2  0  0  0  0  0  0
  -30.0400  -17.7050   21.8120 C   0  0  0  0  0  2  0  0  0  0  0  0
  -30.3340  -17.0070   20.4700 C   0  0  0  0  0  3  0  0  0  0  0  0
  -30.7510  -14.5290   20.0270 C   0  0  0  0  0  0  0  0  0  0  0  0
  -30.4130  -12.3510   18.9100 C   0  0  0  0  0  2  0  0  0  0  0  0
  -29.3980  -12.5480   17.7630 C   0  0  0  0  0  2  0  0  0  0  0  0
  -27.9520  -12.4060   18.2800 C   0  0  0  0  0  2  0  0  0  0  0  0
  -27.6890  -13.2410   19.5620 C   0  0  0  0  0  3  0  0  0  0  0  0
  -28.8110  -13.0220   20.6040 C   0  0  0  0  0  2  0  0  0  0  0  0
  -30.0950  -13.3370   19.9570 N   0  0  0  0  0  0  0  0  0  0  0  0
  -31.8540  -14.7130   19.5030 O   0  0  0  0  0  0  0  0  0  0  0  0
  -30.0380  -15.5560   20.5460 N   0  0  0  0  0  0  0  0  0  0  0  0
  -29.1460  -15.3000   20.9400 H   0  0  0  0  0  0  0  0  0  0  0  0
  -25.3510  -13.8510   20.4470 C   0  0  0  0  0  0  0  0  0  0  0  0
  -24.2990  -13.0810   20.8610 C   0  0  0  0  0  0  0  0  0  0  0  0
  -24.7370  -11.7250   20.7550 C   0  0  0  0  0  0  0  0  0  0  0  0
  -26.3670  -12.9660   20.1190 N   0  0  0  0  0  0  0  0  0  0  0  0
  -26.0040  -11.6790   20.3620 N   0  0  0  0  0  0  0  0  0  0  0  0
  -24.0070  -10.4660   20.9510 C   0  0  0  0  0  0  0  0  0  0  0  0
  -24.4580   -9.4840   21.8610 C   0  0  0  0  0  3  0  0  0  0  0  0
  -23.7290   -8.2900   22.0450 C   0  0  0  0  0  3  0  0  0  0  0  0
  -22.5330   -8.0690   21.3200 C   0  0  0  0  0  0  0  0  0  0  0  0
  -22.1010   -9.0400   20.4000 C   0  0  0  0  0  3  0  0  0  0  0  0
  -22.8310  -10.2250   20.2130 C   0  0  0  0  0  3  0  0  0  0  0  0
  -21.7730   -6.9290   21.4160 O   0  0  0  0  0  0  0  0  0  0  0  0
  -21.7080   -6.2020   22.5780 C   0  0  0  0  0  0  0  0  0  0  0  0
  -21.2530   -6.7710   23.7880 C   0  0  0  0  0  3  0  0  0  0  0  0
  -21.1360   -5.9710   24.9410 C   0  0  0  0  0  3  0  0  0  0  0  0
  -21.4620   -4.6020   24.8870 C   0  0  0  0  0  0  0  0  0  0  0  0
  -21.9110   -4.0330   23.6820 C   0  0  0  0  0  3  0  0  0  0  0  0
  -22.0300   -4.8310   22.5300 C   0  0  0  0  0  0  0  0  0  0  0  0
  -22.4420   -4.2720   21.3660 F   0  0  0  0  0  0  0  0  0  0  0  0
  -21.3430   -3.8320   25.9930 F   0  0  0  0  0  0  0  0  0  0  0  0
  -22.9300  -13.5650   21.2400 C   0  0  0  0  0  0  0  0  0  0  0  0
  -22.2540  -12.8530   22.1360 N   0  0  0  0  0  0  0  0  0  0  0  0
  -22.4700  -14.6100   20.7810 O   0  0  0  0  0  0  0  0  0  0  0  0
  -22.6400  -12.0080   22.5290 H   0  0  0  0  0  0  0  0  0  0  0  0
  -21.3380  -13.1580   22.4330 H   0  0  0  0  0  0  0  0  0  0  0  0
  -25.5250  -15.2250   20.3020 N   0  0  0  0  0  0  0  0  0  0  0  0
  -24.7750  -15.8850   20.4830 H   0  0  0  0  0  0  0  0  0  0  0  0
  -26.3550  -15.6640   19.9250 H   0  0  0  0  0  0  0  0  0  0  0  0
  -28.6860  -25.7420   21.2730 C   0  0  0  0  0  2  0  0  0  0  0  0
  -28.6420  -26.6790   20.1770 O   0  0  0  0  0  0  0  0  0  0  0  0
  -24.6820  -31.8040   23.2300 C   0  0  0  0  0  0  0  0  0  0  0  0
  -27.4980  -27.4510   20.1600 C   0  0  0  0  0  0  0  0  0  0  0  0
  -23.5470  -30.3910   21.5490 C   0  0  0  0  0  3  0  0  0  0  0  0
  -25.0710  -28.9070   20.1350 C   0  0  0  0  0  0  0  0  0  0  0  0
  -26.0680  -30.8140   21.4080 C   0  0  0  0  0  2  0  0  0  0  0  0
  -26.2050  -29.4500   20.7560 C   0  0  0  0  0  0  0  0  0  0  0  0
  -27.4240  -28.7270   20.7700 C   0  0  0  0  0  3  0  0  0  0  0  0
  -26.3530  -26.9290   19.5270 C   0  0  0  0  0  3  0  0  0  0  0  0
  -25.1410  -27.6470   19.5170 C   0  0  0  0  0  3  0  0  0  0  0  0
  -23.8040  -29.7330   20.1660 C   0  0  0  0  0  2  0  0  0  0  0  0
  -24.7830  -31.0180   22.1200 N   0  0  0  0  0  0  0  0  0  0  0  0
  -23.5840  -32.0420   23.7520 O   0  0  0  0  0  0  0  0  0  0  0  0
  -22.9030  -29.3420   22.4850 C   0  0  0  0  0  0  0  0  0  0  0  0
  -21.5880  -29.1230   22.3260 N   0  0  0  0  0  0  0  0  0  0  0  0
  -23.5860  -28.7310   23.3120 O   0  0  0  0  0  0  0  0  0  0  0  0
  -21.0980  -29.6680   21.6310 H   0  0  0  0  0  0  0  0  0  0  0  0
  -18.2440  -27.8070   22.7170 C   0  0  0  0  0  0  0  0  0  0  0  0
  -20.7820  -28.1540   23.0690 C   0  0  0  0  0  3  0  0  0  0  0  0
  -20.9540  -26.7290   22.4930 C   0  0  0  0  0  2  0  0  0  0  0  0
  -19.8950  -26.3720   21.4440 C   0  0  0  0  0  2  0  0  0  0  0  0
  -18.4900  -26.4660   22.0450 C   0  0  0  0  0  2  0  0  0  0  0  0
  -19.3210  -28.6060   23.1840 C   0  0  0  0  0  0  0  0  0  0  0  0
  -19.0390  -29.8590   23.7700 C   0  0  0  0  0  3  0  0  0  0  0  0
  -17.7140  -30.3140   23.8960 C   0  0  0  0  0  3  0  0  0  0  0  0
  -16.6510  -29.5110   23.4460 C   0  0  0  0  0  3  0  0  0  0  0  0
  -16.9170  -28.2600   22.8630 C   0  0  0  0  0  3  0  0  0  0  0  0
  -25.9390  -32.4620   23.8820 C   0  0  0  0  0  3  0  0  0  0  0  0
  -25.5960  -33.8560   24.1950 N   0  0  0  0  0  0  0  0  0  0  0  0
  -25.9190  -34.9080   23.4300 C   0  0  0  0  0  0  0  0  0  0  0  0
  -26.6060  -34.8080   22.4090 O   0  0  0  0  0  0  0  0  0  0  0  0
  -24.9880  -34.0040   24.9860 H   0  0  0  0  0  0  0  0  0  0  0  0
  -24.1520  -36.6540   23.0410 C   0  0  0  0  0  1  0  0  0  0  0  0
  -25.3960  -36.2900   23.8670 C   0  0  0  0  0  3  0  0  0  0  0  0
  -27.5000  -37.2360   24.7050 C   0  0  0  0  0  1  0  0  0  0  0  0
  -26.4050  -37.3650   23.7480 N   0  0  0  0  0  0  0  0  0  0  0  0
  -25.9750  -38.2770   23.8780 H   0  0  0  0  0  0  0  0  0  0  0  0
  -26.4370  -31.7050   25.1740 C   0  0  1  0  0  0  0  0  0  0  0  0
  -25.3200  -31.4500   26.2130 C   0  0  0  0  0  1  0  0  0  0  0  0
  -27.0570  -30.3380   24.8020 C   0  0  0  0  0  1  0  0  0  0  0  0
  -27.5540  -32.5240   25.8630 C   0  0  0  0  0  1  0  0  0  0  0  0
  1  3  2  0
  1  5  1  0
  2  4  1  0
  3  6  1  0
  5  2  2  0
  6 51  1  0
  6  4  2  0
  7  8  2  0
  8  5  1  0
  8 10  1  0
  9  7  1  0
  9 12  1  0
 10 11  1  0
 12 21  1  0
 12 11  1  0
 13 21  1  0
 14 19  1  0
 15 16  1  0
 15 14  1  0
 17 16  1  0
 17 26  1  0
 17 18  1  0
 19 13  1  0
 19 18  1  0
 20 13  2  0
 21 22  1  0
 23 24  2  0
 24 43  1  0
 25 24  1  0
 25 28  1  0
 26 27  1  0
 26 23  1  0
 27 25  2  0
 28 29  1  0
 29 30  2  0
 31 34  1  0
 31 30  1  0
 32 31  2  0
 33 32  1  0
 33 28  2  0
 34 35  1  0
 35 36  1  0
 36 37  2  0
 38 37  1  0
 38 42  1  0
 39 38  2  0
 40 35  2  0
 40 39  1  0
 41 40  1  0
 43 44  1  0
 44 47  1  0
 44 46  1  0
 45 43  2  0
 48 23  1  0
 48 49  1  0
 50 48  1  0
 52 51  1  0
 53 64  2  0
 54 52  1  0
 54 59  1  0
 55 63  1  0
 55 65  1  0
 56 62  1  0
 56 58  1  0
 57 63  1  0
 58 59  2  0
 58 57  1  0
 60 54  2  0
 61 60  1  0
 61 56  2  0
 62 55  1  0
 63 53  1  0
 65 67  2  0
 66 65  1  0
 68 66  1  0
 69 78  2  0
 69 74  1  0
 70 66  1  0
 70 74  1  0
 71 70  1  0
 72 73  1  0
 72 71  1  0
 73 69  1  0
 74 75  2  0
 75 76  1  0
 77 76  2  0
 78 77  1  0
 79 53  1  0
 79 80  1  0
 79 89  1  0
 80 83  1  0
 81 85  1  0
 81 80  1  0
 82 81  2  0
 85 84  1  0
 87 85  1  0
 87 88  1  0
 87 86  1  0
 89 92  1  1
 89 90  1  0
 91 89  1  0
M  ISO  4  13 100  21 100  51 101  52 101
M  END
>  <TORSDO>  (56) 
F 18

>  <SCORE>  (56) 
-14.271

>  <name>  (56) 
55

>  <ligand_id>  (56) 
55

>  <original_smiles>  (56) 
[H]C1=C(c2c([H])c([H])c(C([H])([H])Oc3c([H])c([H])c4c(c3[H])C([H])([H])N(C(=O)C([H])(N([H])C(=O)C([H])(N([H])C([H])([H])[H])C([H])([H])[H])C(C([H])([H])[H])(C([H])([H])[H])C([H])([H])[H])C([H])(C(=O)N([H])C3([H])c5c([H])c([H])c([H])c([H])c5C([H])([H])C([H])([H])C3([H])[H])C4([H])[H])c([H])c2[H])C([H])([H])C([H])([H])C([H])(N([H])C(=O)N2C([H])([H])C([H])([H])C([H])([H])C([H])(n3nc(-c4c([H])c([H])c(Oc5c([H])c([H])c(F)c([H])c5F)c([H])c4[H])c(C(=O)N([H])[H])c3N([H])[H])C2([H])[H])C1([H])[H]

>  <smiles>  (56) 
[H]C1=C(c2c([H])c([H])c(C([H])([H])Oc3c([H])c([H])c4c(c3[H])C([H])([H])N(C(=O)C([H])(N([H])C(=O)C([H])(N([H])C([H])([H])[H])C([H])([H])[H])C(C([H])([H])[H])(C([H])([H])[H])C([H])([H])[H])C([H])(C(=O)N([H])C3([H])c5c([H])c([H])c([H])c([H])c5C([H])([H])C([H])([H])C3([H])[H])C4([H])[H])c([H])c2[H])C([H])([H])C([H])([H])C([H])(N([H])C(=O)N2C([H])([H])C([H])([H])C([H])([H])C([H])(n3nc(-c4c([H])c([H])c(Oc5c([H])c([H])c(F)c([H])c5F)c([H])c4[H])c(C(=O)N([H])[H])c3N([H])[H])C2([H])[H])C1([H])[H]

$$$$
56:0:0
     RDKit          3D

 89 97  0  0  1  0  0  0  0  0999 V2000
  -29.9060  -19.6860   18.0550 C   0  0  0  0  0  3  0  0  0  0  0  0
  -29.7450  -20.9140   18.6240 C   0  0  0  0  0  0  0  0  0  0  0  0
  -29.4660  -18.3220   18.6110 C   0  0  0  0  0  2  0  0  0  0  0  0
  -29.3290  -19.5920   20.8000 C   0  0  0  0  0  2  0  0  0  0  0  0
  -29.0120  -21.1200   19.9760 C   0  0  0  0  0  3  0  0  0  0  0  0
  -29.9050  -18.0980   20.0710 C   0  0  0  0  0  3  0  0  0  0  0  0
  -30.4490  -15.2320   20.3220 C   0  0  0  0  0  0  0  0  0  0  0  0
  -30.3920  -12.7930   19.4650 C   0  0  0  0  0  2  0  0  0  0  0  0
  -29.4810  -12.6310   18.2230 C   0  0  0  0  0  2  0  0  0  0  0  0
  -28.0250  -12.3760   18.6460 C   0  0  0  0  0  2  0  0  0  0  0  0
  -27.5800  -13.3290   19.7840 C   0  0  0  0  0  3  0  0  0  0  0  0
  -28.6220  -13.4570   20.9170 C   0  0  0  0  0  2  0  0  0  0  0  0
  -29.8700  -13.9370   20.2990 N   0  0  0  0  0  0  0  0  0  0  0  0
  -31.6550  -15.2350   20.0360 O   0  0  0  0  0  0  0  0  0  0  0  0
  -29.6990  -16.4970   20.4610 N   0  0  0  0  0  0  0  0  0  0  0  0
  -28.7490  -16.3040   20.7370 H   0  0  0  0  0  0  0  0  0  0  0  0
  -25.2050  -13.8910   20.5210 C   0  0  0  0  0  0  0  0  0  0  0  0
  -24.1390  -13.1170   20.8830 C   0  0  0  0  0  0  0  0  0  0  0  0
  -24.6040  -11.7660   20.8550 C   0  0  0  0  0  0  0  0  0  0  0  0
  -26.2480  -13.0140   20.2830 N   0  0  0  0  0  0  0  0  0  0  0  0
  -25.8970  -11.7290   20.5510 N   0  0  0  0  0  0  0  0  0  0  0  0
  -23.8730  -10.5040   21.0400 C   0  0  0  0  0  0  0  0  0  0  0  0
  -24.2940   -9.5360   21.9800 C   0  0  0  0  0  3  0  0  0  0  0  0
  -23.5610   -8.3430   22.1570 C   0  0  0  0  0  3  0  0  0  0  0  0
  -22.3930   -8.1070   21.3900 C   0  0  0  0  0  0  0  0  0  0  0  0
  -21.9900   -9.0640   20.4420 C   0  0  0  0  0  3  0  0  0  0  0  0
  -22.7240  -10.2490   20.2650 C   0  0  0  0  0  3  0  0  0  0  0  0
  -21.6320   -6.9660   21.4760 O   0  0  0  0  0  0  0  0  0  0  0  0
  -21.5660   -6.2290   22.6300 C   0  0  0  0  0  0  0  0  0  0  0  0
  -21.1210   -6.7890   23.8480 C   0  0  0  0  0  3  0  0  0  0  0  0
  -21.0030   -5.9780   24.9950 C   0  0  0  0  0  3  0  0  0  0  0  0
  -21.3180   -4.6080   24.9260 C   0  0  0  0  0  0  0  0  0  0  0  0
  -21.7560   -4.0470   23.7120 C   0  0  0  0  0  3  0  0  0  0  0  0
  -21.8770   -4.8550   22.5680 C   0  0  0  0  0  0  0  0  0  0  0  0
  -22.2780   -4.3050   21.3970 F   0  0  0  0  0  0  0  0  0  0  0  0
  -21.1970   -3.8270   26.0230 F   0  0  0  0  0  0  0  0  0  0  0  0
  -22.7420  -13.5950   21.1430 C   0  0  0  0  0  0  0  0  0  0  0  0
  -22.0040  -12.9000   21.9990 N   0  0  0  0  0  0  0  0  0  0  0  0
  -22.3110  -14.6250   20.6210 O   0  0  0  0  0  0  0  0  0  0  0  0
  -22.3640  -12.0680   22.4430 H   0  0  0  0  0  0  0  0  0  0  0  0
  -21.0640  -13.2030   22.2140 H   0  0  0  0  0  0  0  0  0  0  0  0
  -25.3690  -15.2620   20.3410 N   0  0  0  0  0  0  0  0  0  0  0  0
  -24.6010  -15.9160   20.4460 H   0  0  0  0  0  0  0  0  0  0  0  0
  -26.2030  -15.6970   19.9710 H   0  0  0  0  0  0  0  0  0  0  0  0
  -30.3430  -22.0470   17.8730 C   0  0  0  0  0  3  0  0  0  0  0  0
  -30.6460  -23.1490   18.3350 O   0  0  0  0  0  0  0  0  0  0  0  0
  -28.9070  -22.8190   20.5800 C   0  0  0  0  0  3  0  0  0  0  0  0
  -28.0990  -24.3190   20.0070 C   0  0  0  0  0  3  0  0  0  0  0  0
  -28.2580  -25.9230   20.3050 O   0  0  0  0  0  0  0  0  0  0  0  0
  -24.6710  -31.8450   23.2220 C   0  0  0  0  0  0  0  0  0  0  0  0
  -27.2360  -26.9950   20.2050 C   0  0  0  0  0  0  0  0  0  0  0  0
  -23.4730  -30.4490   21.5820 C   0  0  0  0  0  3  0  0  0  0  0  0
  -24.9220  -28.8470   20.1580 C   0  0  0  0  0  0  0  0  0  0  0  0
  -26.0360  -30.6700   21.4320 C   0  0  0  0  0  2  0  0  0  0  0  0
  -26.1080  -29.2630   20.7750 C   0  0  0  0  0  0  0  0  0  0  0  0
  -27.2560  -28.3570   20.7760 C   0  0  0  0  0  3  0  0  0  0  0  0
  -26.0230  -26.7230   19.5330 C   0  0  0  0  0  3  0  0  0  0  0  0
  -24.9040  -27.5970   19.5150 C   0  0  0  0  0  3  0  0  0  0  0  0
  -23.7000  -29.7630   20.2060 C   0  0  0  0  0  2  0  0  0  0  0  0
  -24.7480  -31.0150   22.1320 N   0  0  0  0  0  0  0  0  0  0  0  0
  -23.5840  -32.1360   23.7450 O   0  0  0  0  0  0  0  0  0  0  0  0
  -22.7800  -29.4550   22.5500 C   0  0  0  0  0  0  0  0  0  0  0  0
  -21.4500  -29.2890   22.4220 N   0  0  0  0  0  0  0  0  0  0  0  0
  -23.4440  -28.8350   23.3840 O   0  0  0  0  0  0  0  0  0  0  0  0
  -20.9700  -29.8390   21.7260 H   0  0  0  0  0  0  0  0  0  0  0  0
  -18.0700  -28.0630   22.9130 C   0  0  0  0  0  0  0  0  0  0  0  0
  -20.6260  -28.3500   23.1930 C   0  0  0  0  0  3  0  0  0  0  0  0
  -20.7420  -26.9150   22.6290 C   0  0  0  0  0  2  0  0  0  0  0  0
  -19.6510  -26.5770   21.6090 C   0  0  0  0  0  2  0  0  0  0  0  0
  -18.2630  -26.7130   22.2420 C   0  0  0  0  0  2  0  0  0  0  0  0
  -19.1800  -28.8380   23.3440 C   0  0  0  0  0  0  0  0  0  0  0  0
  -18.9430  -30.0980   23.9350 C   0  0  0  0  0  3  0  0  0  0  0  0
  -17.6330  -30.5850   24.0940 C   0  0  0  0  0  3  0  0  0  0  0  0
  -16.5390  -29.8080   23.6770 C   0  0  0  0  0  3  0  0  0  0  0  0
  -16.7580  -28.5470   23.0940 C   0  0  0  0  0  3  0  0  0  0  0  0
  -25.9450  -32.4860   23.8530 C   0  0  0  0  0  3  0  0  0  0  0  0
  -26.4420  -31.7260   25.1450 C   0  0  1  0  0  0  0  0  0  0  0  0
  -25.3380  -31.5110   26.2080 C   0  0  0  0  0  1  0  0  0  0  0  0
  -27.0160  -30.3380   24.7840 C   0  0  0  0  0  1  0  0  0  0  0  0
  -27.5950  -32.5180   25.8080 C   0  0  0  0  0  1  0  0  0  0  0  0
  -25.6340  -33.8890   24.1800 N   0  0  0  0  0  0  0  0  0  0  0  0
  -25.9770  -34.9440   23.4280 C   0  0  0  0  0  0  0  0  0  0  0  0
  -26.6480  -34.8390   22.4000 O   0  0  0  0  0  0  0  0  0  0  0  0
  -25.0390  -34.0440   24.9780 H   0  0  0  0  0  0  0  0  0  0  0  0
  -24.2620  -36.7570   23.0780 C   0  0  0  0  0  1  0  0  0  0  0  0
  -25.5000  -36.3380   23.8890 C   0  0  0  0  0  3  0  0  0  0  0  0
  -27.6410  -37.2080   24.7260 C   0  0  0  0  0  1  0  0  0  0  0  0
  -26.5420  -37.3840   23.7790 N   0  0  0  0  0  0  0  0  0  0  0  0
  -26.1420  -38.3080   23.9250 H   0  0  0  0  0  0  0  0  0  0  0  0
  1  3  1  0
  1  2  2  0
  2  5  1  0
  3  6  1  0
  5 47  1  0
  5  4  1  0
  6 15  1  0
  6  4  1  0
  7 15  1  0
  8 13  1  0
  9 10  1  0
  9  8  1  0
 11 10  1  0
 11 20  1  0
 11 12  1  0
 13  7  1  0
 13 12  1  0
 14  7  2  0
 15 16  1  0
 17 18  2  0
 18 37  1  0
 19 18  1  0
 19 22  1  0
 20 17  1  0
 20 21  1  0
 21 19  2  0
 22 23  1  0
 23 24  2  0
 25 28  1  0
 25 24  1  0
 26 25  2  0
 27 26  1  0
 27 22  2  0
 28 29  1  0
 29 30  1  0
 30 31  2  0
 32 31  1  0
 32 36  1  0
 33 32  2  0
 34 29  2  0
 34 33  1  0
 35 34  1  0
 37 38  1  0
 38 41  1  0
 38 40  1  0
 39 37  2  0
 42 43  1  0
 42 17  1  0
 44 42  1  0
 45 46  2  0
 45  2  1  0
 48 49  1  0
 48 47  2  0
 50 61  2  0
 51 49  1  0
 51 56  1  0
 52 60  1  0
 52 62  1  0
 53 59  1  0
 53 55  1  0
 54 60  1  0
 55 56  2  0
 55 54  1  0
 57 51  2  0
 58 57  1  0
 58 53  2  0
 59 52  1  0
 60 50  1  0
 62 64  2  0
 63 62  1  0
 65 63  1  0
 66 75  2  0
 66 71  1  0
 67 63  1  0
 67 71  1  0
 68 67  1  0
 69 70  1  0
 69 68  1  0
 70 66  1  0
 71 72  2  0
 72 73  1  0
 74 73  2  0
 75 74  1  0
 76 50  1  0
 76 81  1  0
 76 77  1  0
 77 80  1  1
 77 78  1  0
 79 77  1  0
 81 84  1  0
 82 86  1  0
 82 81  1  0
 83 82  2  0
 86 85  1  0
 88 86  1  0
 88 89  1  0
 88 87  1  0
M  ISO  4   7 100  15 100  48 101  49 101
M  END
>  <TORSDO>  (57) 
F 19

>  <SCORE>  (57) 
-15.027

>  <name>  (57) 
56

>  <ligand_id>  (57) 
56

>  <original_smiles>  (57) 
[H]C(=O)C1=C([H])C([H])([H])C([H])(N([H])C(=O)N2C([H])([H])C([H])([H])C([H])([H])C([H])(n3nc(-c4c([H])c([H])c(Oc5c([H])c([H])c(F)c([H])c5F)c([H])c4[H])c(C(=O)N([H])[H])c3N([H])[H])C2([H])[H])C([H])([H])C1([H])C([H])([H])C([H])([H])Oc1c([H])c([H])c2c(c1[H])C([H])([H])N(C(=O)C([H])(N([H])C(=O)C([H])(N([H])C([H])([H])[H])C([H])([H])[H])C(C([H])([H])[H])(C([H])([H])[H])C([H])([H])[H])C([H])(C(=O)N([H])C1([H])c3c([H])c([H])c([H])c([H])c3C([H])([H])C([H])([H])C1([H])[H])C2([H])[H]

>  <smiles>  (57) 
[H]C(=O)C1=C([H])C([H])([H])C([H])(N([H])C(=O)N2C([H])([H])C([H])([H])C([H])([H])C([H])(n3nc(-c4c([H])c([H])c(Oc5c([H])c([H])c(F)c([H])c5F)c([H])c4[H])c(C(=O)N([H])[H])c3N([H])[H])C2([H])[H])C([H])([H])C1([H])C([H])([H])C([H])([H])Oc1c([H])c([H])c2c(c1[H])C([H])([H])N(C(=O)C([H])(N([H])C(=O)C([H])(N([H])C([H])([H])[H])C([H])([H])[H])C(C([H])([H])[H])(C([H])([H])[H])C([H])([H])[H])C([H])(C(=O)N([H])C1([H])c3c([H])c([H])c([H])c([H])c3C([H])([H])C([H])([H])C1([H])[H])C2([H])[H]

$$$$
57:0:0
     RDKit          3D

 92100  0  0  1  0  0  0  0  0999 V2000
  -28.6270  -21.8850   20.6570 C   0  0  0  0  0  0  0  0  0  0  0  0
  -30.3150  -22.2250   19.0070 C   0  0  0  0  0  2  0  0  0  0  0  0
  -29.5420  -22.9810   20.1060 C   0  0  0  0  0  3  0  0  0  0  0  0
  -28.8980  -20.5060   20.0060 C   0  0  0  0  0  3  0  0  0  0  0  0
  -29.7560  -20.8610   18.8590 N   0  0  0  0  0  4  0  0  0  0  0  0
  -27.7780  -22.1180   21.5210 O   0  0  0  0  0  0  0  0  0  0  0  0
  -30.4900  -20.1870   18.7220 H   0  0  0  0  0  0  0  0  0  0  0  0
  -29.1800  -20.8530   18.0330 H   0  0  0  0  0  0  0  0  0  0  0  0
  -28.8680  -24.3080   19.5960 C   0  0  0  0  0  2  0  0  0  0  0  0
  -28.3880  -25.3360   20.6600 C   0  0  0  0  0  2  0  0  0  0  0  0
  -28.4260  -26.7010   20.1720 O   0  0  0  0  0  0  0  0  0  0  0  0
  -24.6040  -31.8940   23.2380 C   0  0  0  0  0  0  0  0  0  0  0  0
  -27.2510  -27.4290   20.1830 C   0  0  0  0  0  0  0  0  0  0  0  0
  -23.3970  -30.4850   21.6010 C   0  0  0  0  0  3  0  0  0  0  0  0
  -24.8530  -28.9410   20.1790 C   0  0  0  0  0  0  0  0  0  0  0  0
  -25.9210  -30.8480   21.3950 C   0  0  0  0  0  2  0  0  0  0  0  0
  -26.0120  -29.4720   20.7610 C   0  0  0  0  0  0  0  0  0  0  0  0
  -27.2150  -28.7270   20.7510 C   0  0  0  0  0  3  0  0  0  0  0  0
  -26.0750  -26.9140   19.5970 C   0  0  0  0  0  3  0  0  0  0  0  0
  -24.8820  -27.6640   19.5900 C   0  0  0  0  0  3  0  0  0  0  0  0
  -23.6060  -29.7990   20.2230 C   0  0  0  0  0  2  0  0  0  0  0  0
  -24.6590  -31.0920   22.1370 N   0  0  0  0  0  0  0  0  0  0  0  0
  -23.5230  -32.1650   23.7800 O   0  0  0  0  0  0  0  0  0  0  0  0
  -22.7480  -29.4690   22.5660 C   0  0  0  0  0  0  0  0  0  0  0  0
  -21.4230  -29.2830   22.4420 N   0  0  0  0  0  0  0  0  0  0  0  0
  -23.4330  -28.8470   23.3840 O   0  0  0  0  0  0  0  0  0  0  0  0
  -20.9320  -29.8360   21.7520 H   0  0  0  0  0  0  0  0  0  0  0  0
  -18.0530  -28.0780   22.9400 C   0  0  0  0  0  0  0  0  0  0  0  0
  -20.6100  -28.3450   23.2140 C   0  0  0  0  0  3  0  0  0  0  0  0
  -20.7190  -26.9130   22.6410 C   0  0  0  0  0  2  0  0  0  0  0  0
  -19.6190  -26.5840   21.6270 C   0  0  0  0  0  2  0  0  0  0  0  0
  -18.2360  -26.7270   22.2690 C   0  0  0  0  0  2  0  0  0  0  0  0
  -19.1690  -28.8450   23.3690 C   0  0  0  0  0  0  0  0  0  0  0  0
  -18.9460  -30.1090   23.9550 C   0  0  0  0  0  3  0  0  0  0  0  0
  -17.6390  -30.6070   24.1180 C   0  0  0  0  0  3  0  0  0  0  0  0
  -16.5390  -29.8380   23.7040 C   0  0  0  0  0  3  0  0  0  0  0  0
  -16.7460  -28.5750   23.1210 C   0  0  0  0  0  3  0  0  0  0  0  0
  -25.8900  -32.5290   23.8550 C   0  0  0  0  0  3  0  0  0  0  0  0
  -25.5790  -33.9260   24.1860 N   0  0  0  0  0  0  0  0  0  0  0  0
  -25.9090  -34.9790   23.4260 C   0  0  0  0  0  0  0  0  0  0  0  0
  -26.5760  -34.8760   22.3940 O   0  0  0  0  0  0  0  0  0  0  0  0
  -24.9870  -34.0790   24.9890 H   0  0  0  0  0  0  0  0  0  0  0  0
  -24.1750  -36.7660   23.0760 C   0  0  0  0  0  1  0  0  0  0  0  0
  -25.4190  -36.3660   23.8850 C   0  0  0  0  0  3  0  0  0  0  0  0
  -27.5560  -37.2540   24.7060 C   0  0  0  0  0  1  0  0  0  0  0  0
  -26.4480  -37.4210   23.7680 N   0  0  0  0  0  0  0  0  0  0  0  0
  -26.0410  -38.3410   23.9200 H   0  0  0  0  0  0  0  0  0  0  0  0
  -26.4160  -31.7570   25.1270 C   0  0  1  0  0  0  0  0  0  0  0  0
  -25.3290  -31.5160   26.2010 C   0  0  0  0  0  1  0  0  0  0  0  0
  -26.9980  -30.3820   24.7270 C   0  0  0  0  0  1  0  0  0  0  0  0
  -27.5690  -32.5530   25.7830 C   0  0  0  0  0  1  0  0  0  0  0  0
  -29.5500  -19.4300   20.9390 C   0  0  0  0  0  3  0  0  0  0  0  0
  -29.5010  -17.9590   20.4040 C   0  0  0  0  0  3  0  0  0  0  0  0
  -30.2740  -16.9140   21.2670 C   0  0  0  0  0  2  0  0  0  0  0  0
  -30.6270  -14.5160   20.4520 C   0  0  0  0  0  0  0  0  0  0  0  0
  -30.3550  -12.3540   19.2790 C   0  0  0  0  0  2  0  0  0  0  0  0
  -29.4150  -12.5560   18.0720 C   0  0  0  0  0  2  0  0  0  0  0  0
  -27.9360  -12.4310   18.4900 C   0  0  0  0  0  2  0  0  0  0  0  0
  -27.5980  -13.2580   19.7600 C   0  0  0  0  0  3  0  0  0  0  0  0
  -28.6440  -13.0160   20.8690 C   0  0  0  0  0  2  0  0  0  0  0  0
  -29.9690  -13.3310   20.3090 N   0  0  0  0  0  0  0  0  0  0  0  0
  -31.7580  -14.7140   19.9990 O   0  0  0  0  0  0  0  0  0  0  0  0
  -29.8950  -15.5100   20.9990 N   0  0  0  0  0  0  0  0  0  0  0  0
  -28.9740  -15.2340   21.3070 H   0  0  0  0  0  0  0  0  0  0  0  0
  -25.1980  -13.8800   20.4430 C   0  0  0  0  0  0  0  0  0  0  0  0
  -24.1240  -13.1170   20.8130 C   0  0  0  0  0  0  0  0  0  0  0  0
  -24.5810  -11.7640   20.8010 C   0  0  0  0  0  0  0  0  0  0  0  0
  -26.2410  -12.9930   20.2290 N   0  0  0  0  0  0  0  0  0  0  0  0
  -25.8720  -11.7160   20.5020 N   0  0  0  0  0  0  0  0  0  0  0  0
  -23.8480  -10.5070   21.0010 C   0  0  0  0  0  0  0  0  0  0  0  0
  -24.2790   -9.5430   21.9390 C   0  0  0  0  0  3  0  0  0  0  0  0
  -23.5500   -8.3490   22.1240 C   0  0  0  0  0  3  0  0  0  0  0  0
  -22.3730   -8.1120   21.3710 C   0  0  0  0  0  0  0  0  0  0  0  0
  -21.9620   -9.0630   20.4230 C   0  0  0  0  0  3  0  0  0  0  0  0
  -22.6930  -10.2490   20.2360 C   0  0  0  0  0  3  0  0  0  0  0  0
  -21.6150   -6.9700   21.4680 O   0  0  0  0  0  0  0  0  0  0  0  0
  -21.5720   -6.2280   22.6210 C   0  0  0  0  0  0  0  0  0  0  0  0
  -21.1660   -6.7870   23.8520 C   0  0  0  0  0  3  0  0  0  0  0  0
  -21.0710   -5.9720   24.9990 C   0  0  0  0  0  3  0  0  0  0  0  0
  -21.3690   -4.5990   24.9130 C   0  0  0  0  0  0  0  0  0  0  0  0
  -21.7680   -4.0400   23.6870 C   0  0  0  0  0  3  0  0  0  0  0  0
  -21.8660   -4.8510   22.5430 C   0  0  0  0  0  0  0  0  0  0  0  0
  -22.2290   -4.3030   21.3590 F   0  0  0  0  0  0  0  0  0  0  0  0
  -21.2680   -3.8150   26.0110 F   0  0  0  0  0  0  0  0  0  0  0  0
  -22.7270  -13.6030   21.0710 C   0  0  0  0  0  0  0  0  0  0  0  0
  -21.9920  -12.9170   21.9400 N   0  0  0  0  0  0  0  0  0  0  0  0
  -22.2960  -14.6240   20.5380 O   0  0  0  0  0  0  0  0  0  0  0  0
  -22.3540  -12.0900   22.3910 H   0  0  0  0  0  0  0  0  0  0  0  0
  -21.0540  -13.2240   22.1570 H   0  0  0  0  0  0  0  0  0  0  0  0
  -25.3700  -15.2480   20.2520 N   0  0  0  0  0  0  0  0  0  0  0  0
  -24.6050  -15.9080   20.3460 H   0  0  0  0  0  0  0  0  0  0  0  0
  -26.2230  -15.6780   19.9180 H   0  0  0  0  0  0  0  0  0  0  0  0
  1  6  2  0
  2  3  1  0
  3  9  1  0
  3  1  1  0
  4  1  1  0
  4 52  1  0
  5  2  1  0
  5  4  1  0
  7  5  1  0
  8  5  1  0
  9 10  1  0
 11 13  1  0
 11 10  1  0
 12 23  2  0
 13 18  1  0
 14 22  1  0
 14 24  1  0
 15 21  1  0
 15 17  1  0
 16 22  1  0
 17 16  1  0
 18 17  2  0
 19 13  2  0
 20 19  1  0
 20 15  2  0
 21 14  1  0
 22 12  1  0
 24 26  2  0
 25 24  1  0
 27 25  1  0
 28 37  2  0
 28 33  1  0
 29 25  1  0
 29 33  1  0
 30 29  1  0
 31 32  1  0
 31 30  1  0
 32 28  1  0
 33 34  2  0
 34 35  1  0
 36 35  2  0
 37 36  1  0
 38 12  1  0
 38 39  1  0
 38 48  1  0
 39 42  1  0
 40 44  1  0
 40 39  1  0
 41 40  2  0
 44 43  1  0
 46 44  1  0
 46 47  1  0
 46 45  1  0
 48 51  1  1
 48 49  1  0
 50 48  1  0
 53 52  2  0
 53 54  1  0
 55 63  1  0
 56 61  1  0
 57 58  1  0
 57 56  1  0
 59 58  1  0
 59 68  1  0
 59 60  1  0
 61 55  1  0
 61 60  1  0
 62 55  2  0
 63 54  1  0
 63 64  1  0
 65 66  2  0
 66 85  1  0
 67 66  1  0
 67 70  1  0
 68 65  1  0
 68 69  1  0
 69 67  2  0
 70 71  1  0
 71 72  2  0
 73 76  1  0
 73 72  1  0
 74 73  2  0
 75 74  1  0
 75 70  2  0
 76 77  1  0
 77 78  1  0
 78 79  2  0
 80 79  1  0
 80 84  1  0
 81 80  2  0
 82 77  2  0
 82 81  1  0
 83 82  1  0
 85 86  1  0
 86 89  1  0
 86 88  1  0
 87 85  2  0
 90 91  1  0
 90 65  1  0
 92 90  1  0
M  ISO  4  10 101  11 101  55 100  63 100
M  END
>  <TORSDO>  (58) 
F 21

>  <SCORE>  (58) 
-13.500

>  <name>  (58) 
57

>  <ligand_id>  (58) 
57

>  <original_smiles>  (58) 
[H]c1c([H])c([H])c2c(c1[H])C([H])([H])C([H])([H])C([H])([H])C2([H])N([H])C(=O)C1([H])N(C(=O)C([H])(N([H])C(=O)C([H])(N([H])C([H])([H])[H])C([H])([H])[H])C(C([H])([H])[H])(C([H])([H])[H])C([H])([H])[H])C([H])([H])c2c([H])c(OC([H])([H])C([H])([H])C3([H])C(=O)C([H])(C([H])([H])C([H])([H])C([H])([H])N([H])C(=O)N4C([H])([H])C([H])([H])C([H])([H])C([H])(n5nc(-c6c([H])c([H])c(Oc7c([H])c([H])c(F)c([H])c7F)c([H])c6[H])c(C(=O)N([H])[H])c5N([H])[H])C4([H])[H])[N+]([H])([H])C3([H])[H])c([H])c([H])c2C1([H])[H]

>  <smiles>  (58) 
[H]c1c([H])c([H])c2c(c1[H])C([H])([H])C([H])([H])C([H])([H])C2([H])N([H])C(=O)C1([H])N(C(=O)C([H])(N([H])C(=O)C([H])(N([H])C([H])([H])[H])C([H])([H])[H])C(C([H])([H])[H])(C([H])([H])[H])C([H])([H])[H])C([H])([H])c2c([H])c(OC([H])([H])C([H])([H])C3([H])C(=O)C([H])(C([H])([H])C([H])([H])C([H])([H])N([H])C(=O)N4C([H])([H])C([H])([H])C([H])([H])C([H])(n5nc(-c6c([H])c([H])c(Oc7c([H])c([H])c(F)c([H])c7F)c([H])c6[H])c(C(=O)N([H])[H])c5N([H])[H])C4([H])[H])[N+]([H])([H])C3([H])[H])c([H])c([H])c2C1([H])[H]

$$$$
58:0:0
     RDKit          3D

 92 95  0  0  1  0  0  0  0  0999 V2000
  -22.8490  -28.5110   24.9340 C   0  0  0  0  0  3  0  0  0  0  0  0
  -21.8780  -28.7390   23.9100 C   0  0  0  0  0  2  0  0  0  0  0  0
  -23.6460  -26.9850   25.1500 C   0  0  0  0  0  3  0  0  0  0  0  0
  -21.8270  -27.1110   24.8380 C   0  0  2  0  0  0  0  0  0  0  0  0
  -22.9800  -25.6710   24.3810 C   0  0  0  0  0  2  0  0  0  0  0  0
  -21.8830  -28.7610   21.5310 C   0  0  0  0  0  2  0  0  0  0  0  0
  -23.7240  -27.1170   20.4950 C   0  0  0  0  0  1  0  0  0  0  0  0
  -25.7870  -25.6640   21.0660 C   0  0  0  0  0 15  0  0  0  0  0  0
  -26.7180  -23.3690   20.9690 C   0  0  0  0  0 15  0  0  0  0  0  0
  -27.8500  -21.2530   20.2210 C   0  0  0  0  0 15  0  0  0  0  0  0
  -29.4830  -17.4290   19.9780 C   0  0  0  0  0  0  0  0  0  0  0  0
  -30.3290  -14.6290   19.1510 C   0  0  0  0  0  2  0  0  0  0  0  0
  -29.7870  -13.5070   18.1210 C   0  0  0  0  0  2  0  0  0  0  0  0
  -28.5360  -12.7940   18.6220 C   0  0  0  0  0  2  0  0  0  0  0  0
  -27.7890  -13.8270   19.4520 C   0  0  0  0  0  3  0  0  0  0  0  0
  -28.5930  -14.6660   20.5040 C   0  0  0  0  0  2  0  0  0  0  0  0
  -29.3530  -15.7950   19.8070 N   0  0  0  0  0  0  0  0  0  0  0  0
  -30.7500  -17.3060   19.7730 O   0  0  0  0  0  0  0  0  0  0  0  0
  -28.5190  -19.0670   20.1910 N   0  0  0  0  0  2  0  0  0  0  0  0
  -29.4340  -19.5090   20.2360 H   0  0  0  0  0  0  0  0  0  0  0  0
  -25.4920  -14.2660   20.2560 C   0  0  0  0  0  0  0  0  0  0  0  0
  -24.4600  -13.4740   20.6480 C   0  0  0  0  0  0  0  0  0  0  0  0
  -24.9250  -12.1240   20.5710 C   0  0  0  0  0  0  0  0  0  0  0  0
  -26.5260  -13.4050   19.9740 N   0  0  0  0  0  0  0  0  0  0  0  0
  -26.2090  -12.1000   20.2030 N   0  0  0  0  0  0  0  0  0  0  0  0
  -24.1920  -10.8680   20.7680 C   0  0  0  0  0  0  0  0  0  0  0  0
  -24.5870   -9.9260   21.7390 C   0  0  0  0  0  3  0  0  0  0  0  0
  -23.8400   -8.7440   21.9290 C   0  0  0  0  0  3  0  0  0  0  0  0
  -22.6840   -8.5010   21.1480 C   0  0  0  0  0  0  0  0  0  0  0  0
  -22.3080   -9.4390   20.1690 C   0  0  0  0  0  3  0  0  0  0  0  0
  -23.0560  -10.6100   19.9780 C   0  0  0  0  0  3  0  0  0  0  0  0
  -21.9080   -7.3700   21.2440 O   0  0  0  0  0  0  0  0  0  0  0  0
  -21.7330   -6.7170   22.4380 C   0  0  0  0  0  0  0  0  0  0  0  0
  -21.1900   -7.3640   23.5700 C   0  0  0  0  0  3  0  0  0  0  0  0
  -20.9630   -6.6350   24.7540 C   0  0  0  0  0  3  0  0  0  0  0  0
  -21.2660   -5.2610   24.8060 C   0  0  0  0  0  0  0  0  0  0  0  0
  -21.8010   -4.6150   23.6760 C   0  0  0  0  0  3  0  0  0  0  0  0
  -22.0290   -5.3400   22.4950 C   0  0  0  0  0  0  0  0  0  0  0  0
  -22.5230   -4.7080   21.4030 F   0  0  0  0  0  0  0  0  0  0  0  0
  -21.0410   -4.5590   25.9410 F   0  0  0  0  0  0  0  0  0  0  0  0
  -23.0870  -13.9690   20.9750 C   0  0  0  0  0  0  0  0  0  0  0  0
  -22.3920  -13.2860   21.8770 N   0  0  0  0  0  0  0  0  0  0  0  0
  -22.6440  -15.0020   20.4720 O   0  0  0  0  0  0  0  0  0  0  0  0
  -22.7720  -12.4580   22.3090 H   0  0  0  0  0  0  0  0  0  0  0  0
  -21.4690  -13.6040   22.1390 H   0  0  0  0  0  0  0  0  0  0  0  0
  -25.6290  -15.6400   20.0940 N   0  0  0  0  0  0  0  0  0  0  0  0
  -24.8470  -16.2630   20.2550 H   0  0  0  0  0  0  0  0  0  0  0  0
  -26.4430  -16.1170   19.7200 H   0  0  0  0  0  0  0  0  0  0  0  0
  -23.4230  -24.7780   22.5690 C   0  0  0  0  0 15  0  0  0  0  0  0
  -23.4230  -24.5760   20.5610 C   0  0  0  0  0 15  0  0  0  0  0  0
  -24.3660  -25.2170   18.8740 C   0  0  0  0  0  1  0  0  0  0  0  0
  -25.9470  -26.0080   18.5510 O   0  0  0  0  0  0  0  0  0  0  0  0
  -24.5120  -31.5790   22.5990 C   0  0  0  0  0  0  0  0  0  0  0  0
  -26.2110  -27.4050   18.5500 C   0  0  0  0  0  0  0  0  0  0  0  0
  -23.8700  -29.7220   21.1780 C   0  0  0  0  0  3  0  0  0  0  0  0
  -24.8650  -29.7070   18.8490 C   0  0  0  0  0  0  0  0  0  0  0  0
  -26.0480  -30.6810   20.7550 C   0  0  0  0  0  2  0  0  0  0  0  0
  -26.0440  -29.6370   19.5820 C   0  0  0  0  0  0  0  0  0  0  0  0
  -26.7090  -28.3780   19.5260 C   0  0  0  0  0  3  0  0  0  0  0  0
  -25.5340  -27.8860   17.4970 C   0  0  0  0  0  3  0  0  0  0  0  0
  -24.7060  -28.9520   17.6730 C   0  0  0  0  0  3  0  0  0  0  0  0
  -23.6560  -30.0940   19.6020 C   0  0  0  0  0  2  0  0  0  0  0  0
  -24.8120  -30.6920   21.6080 N   0  0  0  0  0  0  0  0  0  0  0  0
  -23.3500  -31.7870   23.0000 O   0  0  0  0  0  0  0  0  0  0  0  0
  -23.6040  -28.2440   22.0610 C   0  0  2  0  0  0  0  0  0  0  0  0
  -22.4200  -27.1040   21.8840 N   0  0  2  0  0  4  0  0  0  0  0  0
  -24.3430  -28.0960   22.9730 O   0  0  0  0  0  1  0  0  0  0  0  0
  -22.5530  -26.2730   22.4840 H   0  0  0  0  0  0  0  0  0  0  0  0
  -17.6570  -27.7050   21.8070 C   0  0  0  0  0  0  0  0  0  0  0  0
  -20.4350  -27.0140   21.4990 C   0  0  0  0  0  2  0  0  0  0  0  0
  -20.0970  -26.7400   20.1060 C   0  0  0  0  0  2  0  0  0  0  0  0
  -18.8040  -27.2870   19.6310 C   0  0  0  0  0  2  0  0  0  0  0  0
  -17.6150  -26.9530   20.5300 C   0  0  0  0  0  2  0  0  0  0  0  0
  -18.9760  -27.9500   22.3020 C   0  0  0  0  0  0  0  0  0  0  0  0
  -18.7090  -28.8820   23.4790 C   0  0  0  0  0  3  0  0  0  0  0  0
  -17.4740  -29.2810   24.0940 C   0  0  0  0  0  3  0  0  0  0  0  0
  -16.2570  -28.8930   23.5110 C   0  0  0  0  0  3  0  0  0  0  0  0
  -16.3790  -28.1070   22.3500 C   0  0  0  0  0  3  0  0  0  0  0  0
  -25.7180  -32.1990   23.3330 C   0  0  0  0  0  3  0  0  0  0  0  0
  -25.3870  -33.5630   23.7830 N   0  0  0  0  0  0  0  0  0  0  0  0
  -25.7900  -34.6740   23.1600 C   0  0  0  0  0  0  0  0  0  0  0  0
  -26.4840  -34.6480   22.1380 O   0  0  0  0  0  0  0  0  0  0  0  0
  -24.7780  -33.6550   24.5850 H   0  0  0  0  0  0  0  0  0  0  0  0
  -24.1290  -36.5720   22.9860 C   0  0  0  0  0  1  0  0  0  0  0  0
  -25.3540  -36.0380   23.7470 C   0  0  0  0  0  3  0  0  0  0  0  0
  -27.5250  -36.7500   24.6510 C   0  0  0  0  0  1  0  0  0  0  0  0
  -26.4240  -37.0590   23.7450 N   0  0  0  0  0  0  0  0  0  0  0  0
  -26.0540  -37.9730   23.9910 H   0  0  0  0  0  0  0  0  0  0  0  0
  -26.1360  -31.3020   24.5620 C   0  0  1  0  0  0  0  0  0  0  0  0
  -24.9430  -30.8860   25.4600 C   0  0  0  0  0  1  0  0  0  0  0  0
  -26.8730  -30.0150   24.1090 C   0  0  0  0  0  1  0  0  0  0  0  0
  -27.1510  -32.0530   25.4380 C   0  0  0  0  0  1  0  0  0  0  0  0
  1  2  1  0
  1  3  1  0
  3  5  1  0
  4  2  1  6
  4  1  1  0
  4  3  1  0
  5  4  1  0
  6 66  1  0
  6 65  1  0
  7 66  1  0
 11 19  1  0
 12 17  1  0
 13 14  1  0
 13 12  1  0
 15 14  1  0
 15 24  1  0
 15 16  1  0
 17 11  1  0
 17 16  1  0
 18 11  2  0
 19 20  1  0
 21 22  2  0
 22 41  1  0
 23 22  1  0
 23 26  1  0
 24 25  1  0
 24 21  1  0
 25 23  2  0
 26 27  1  0
 27 28  2  0
 29 32  1  0
 29 28  1  0
 30 29  2  0
 31 30  1  0
 31 26  2  0
 32 33  1  0
 33 38  2  0
 33 34  1  0
 34 35  2  0
 35 36  1  0
 36 40  1  0
 37 36  2  0
 38 37  1  0
 39 38  1  0
 41 42  1  0
 42 45  1  0
 42 44  1  0
 43 41  2  0
 46 47  1  0
 46 21  1  0
 48 46  1  0
 52 51  1  0
 53 64  2  0
 54 52  1  0
 54 59  1  0
 55 62  1  0
 55 63  1  0
 55 65  1  0
 56 58  1  0
 56 62  1  0
 57 63  1  0
 58 57  1  0
 59 58  2  0
 60 61  1  0
 60 54  2  0
 61 56  2  0
 63 53  1  0
 65 67  1  1
 66 65  1  0
 66 68  1  1
 69 74  2  0
 69 78  1  0
 70 74  1  0
 71 70  1  0
 72 71  1  0
 72 73  1  0
 73 69  1  0
 74 75  1  0
 75 76  2  0
 77 76  1  0
 78 77  2  0
 79 53  1  0
 79 80  1  0
 79 89  1  0
 80 83  1  0
 81 85  1  0
 81 80  1  0
 82 81  2  0
 85 84  1  0
 87 85  1  0
 87 88  1  0
 87 86  1  0
 89 92  1  1
 89 90  1  0
 91 89  1  0
M  ISO  4  11 100  19 100  51 101  52 101
M  END
>  <TORSDO>  (59) 
F 24

>  <SCORE>  (59) 
-13.037

>  <name>  (59) 
58

>  <ligand_id>  (59) 
58

>  <original_smiles>  (59) 
[H]C1=C(C([H])([H])C([H])([H])C([H])([H])C([H])([H])C([H])([H])N([H])C(=O)N2C([H])([H])C([H])([H])C([H])([H])C([H])(n3nc(-c4c([H])c([H])c(Oc5c([H])c([H])c(F)c([H])c5F)c([H])c4[H])c(C(=O)N([H])[H])c3N([H])[H])C2([H])[H])C([H])([H])C([H])(C([H])([H])C([H])([H])C([H])([H])Oc2c([H])c([H])c3c(c2[H])C([H])([H])N(C(=O)C([H])(N([H])C(=O)C([H])(N([H])C([H])([H])[H])C([H])([H])[H])C(C([H])([H])[H])(C([H])([H])[H])C([H])([H])[H])C([H])(C(=O)N([H])C2([H])c4c([H])c([H])c([H])c([H])c4C([H])([H])C([H])([H])C2([H])[H])C3([H])[H])C1([H])[H]

>  <smiles>  (59) 
[H]C1=C(C([H])([H])C([H])([H])C([H])([H])C([H])([H])C([H])([H])N([H])C(=O)N2C([H])([H])C([H])([H])C([H])([H])C([H])(n3nc(-c4c([H])c([H])c(Oc5c([H])c([H])c(F)c([H])c5F)c([H])c4[H])c(C(=O)N([H])[H])c3N([H])[H])C2([H])[H])C([H])([H])C([H])(C([H])([H])C([H])([H])C([H])([H])Oc2c([H])c([H])c3c(c2[H])C([H])([H])N(C(=O)C([H])(N([H])C(=O)C([H])(N([H])C([H])([H])[H])C([H])([H])[H])C(C([H])([H])[H])(C([H])([H])[H])C([H])([H])[H])C([H])(C(=O)N([H])C2([H])c4c([H])c([H])c([H])c([H])c4C([H])([H])C([H])([H])C2([H])[H])C3([H])[H])C1([H])[H]

$$$$
59:0:0
     RDKit          3D

 93101  0  0  1  0  0  0  0  0999 V2000
  -30.3760  -15.1110   20.2470 C   0  0  0  0  0  0  0  0  0  0  0  0
  -30.2340  -12.6690   19.5820 C   0  0  0  0  0  2  0  0  0  0  0  0
  -29.3660  -12.4610   18.3230 C   0  0  0  0  0  2  0  0  0  0  0  0
  -27.8940  -12.2720   18.7260 C   0  0  0  0  0  2  0  0  0  0  0  0
  -27.4250  -13.3240   19.7650 C   0  0  0  0  0  3  0  0  0  0  0  0
  -28.4320  -13.5320   20.9160 C   0  0  0  0  0  2  0  0  0  0  0  0
  -29.7190  -13.8780   20.3010 N   0  0  0  0  0  0  0  0  0  0  0  0
  -31.5870  -15.0380   20.0020 O   0  0  0  0  0  0  0  0  0  0  0  0
  -29.1560  -18.8760   20.0350 C   0  0  0  0  0  3  0  0  0  0  0  0
  -28.8810  -17.3420   19.6320 C   0  0  0  0  0  2  0  0  0  0  0  0
  -30.6930  -17.4640   20.9930 C   0  0  0  0  0  3  0  0  0  0  0  0
  -30.1410  -18.8480   20.8280 N   0  0  0  0  0  2  0  0  0  0  0  0
  -29.7930  -16.4080   20.4450 N   0  0  0  0  0  0  0  0  0  0  0  0
  -30.9610  -17.1810   22.4470 C   0  0  0  0  0  0  0  0  0  0  0  0
  -31.6960  -16.1250   22.8180 N   0  0  0  0  0  4  0  0  0  0  0  0
  -30.4460  -18.0200   23.3550 N   0  0  0  0  0  0  0  0  0  0  0  0
  -32.1090  -15.5220   22.1150 H   0  0  0  0  0  0  0  0  0  0  0  0
  -31.9150  -15.9080   23.7790 H   0  0  0  0  0  0  0  0  0  0  0  0
  -30.0150  -18.8570   22.9830 H   0  0  0  0  0  0  0  0  0  0  0  0
  -30.5630  -17.9360   24.3520 H   0  0  0  0  0  0  0  0  0  0  0  0
  -25.0590  -13.9450   20.4970 C   0  0  0  0  0  0  0  0  0  0  0  0
  -23.9720  -13.1910   20.8420 C   0  0  0  0  0  0  0  0  0  0  0  0
  -24.4020  -11.8290   20.7960 C   0  0  0  0  0  0  0  0  0  0  0  0
  -26.0800  -13.0460   20.2530 N   0  0  0  0  0  0  0  0  0  0  0  0
  -25.6970  -11.7670   20.5000 N   0  0  0  0  0  0  0  0  0  0  0  0
  -23.6410  -10.5840   20.9560 C   0  0  0  0  0  0  0  0  0  0  0  0
  -24.0450   -9.5800   21.8640 C   0  0  0  0  0  3  0  0  0  0  0  0
  -23.2830   -8.4030   22.0160 C   0  0  0  0  0  3  0  0  0  0  0  0
  -22.1010   -8.2180   21.2590 C   0  0  0  0  0  0  0  0  0  0  0  0
  -21.7150   -9.2100   20.3400 C   0  0  0  0  0  3  0  0  0  0  0  0
  -22.4780  -10.3800   20.1860 C   0  0  0  0  0  3  0  0  0  0  0  0
  -21.3120   -7.0960   21.3210 O   0  0  0  0  0  0  0  0  0  0  0  0
  -21.2580   -6.3150   22.4480 C   0  0  0  0  0  0  0  0  0  0  0  0
  -20.8560   -6.8360   23.6970 C   0  0  0  0  0  3  0  0  0  0  0  0
  -20.7480   -5.9840   24.8140 C   0  0  0  0  0  3  0  0  0  0  0  0
  -21.0330   -4.6110   24.6820 C   0  0  0  0  0  0  0  0  0  0  0  0
  -21.4280   -4.0900   23.4380 C   0  0  0  0  0  3  0  0  0  0  0  0
  -21.5370   -4.9400   22.3240 C   0  0  0  0  0  0  0  0  0  0  0  0
  -21.8980   -4.4280   21.1220 F   0  0  0  0  0  0  0  0  0  0  0  0
  -20.9230   -3.7900   25.7540 F   0  0  0  0  0  0  0  0  0  0  0  0
  -22.5850  -13.7020   21.1010 C   0  0  0  0  0  0  0  0  0  0  0  0
  -21.8340  -13.0240   21.9620 N   0  0  0  0  0  0  0  0  0  0  0  0
  -22.1770  -14.7370   20.5760 O   0  0  0  0  0  0  0  0  0  0  0  0
  -22.1760  -12.1860   22.4060 H   0  0  0  0  0  0  0  0  0  0  0  0
  -20.9020  -13.3480   22.1790 H   0  0  0  0  0  0  0  0  0  0  0  0
  -25.2600  -15.3140   20.3420 N   0  0  0  0  0  0  0  0  0  0  0  0
  -24.5060  -15.9840   20.4520 H   0  0  0  0  0  0  0  0  0  0  0  0
  -26.1190  -15.7330   20.0130 H   0  0  0  0  0  0  0  0  0  0  0  0
  -28.2470  -20.2480   19.6770 C   0  0  0  0  0  2  0  0  0  0  0  0
  -28.7640  -21.8450   19.4160 C   0  0  0  0  0  2  0  0  0  0  0  0
  -27.9310  -23.2830   19.8030 C   0  0  0  0  0  2  0  0  0  0  0  0
  -28.0860  -24.8080   19.0730 C   0  0  0  0  0  2  0  0  0  0  0  0
  -28.0280  -26.2580   19.6580 O   0  0  0  0  0  0  0  0  0  0  0  0
  -24.4550  -31.7150   23.0390 C   0  0  0  0  0  0  0  0  0  0  0  0
  -26.9520  -27.2180   19.6270 C   0  0  0  0  0  0  0  0  0  0  0  0
  -23.2130  -30.4340   21.3360 C   0  0  0  0  0  3  0  0  0  0  0  0
  -24.6240  -28.9600   19.7650 C   0  0  0  0  0  0  0  0  0  0  0  0
  -25.7600  -30.7110   21.1270 C   0  0  0  0  0  2  0  0  0  0  0  0
  -25.8150  -29.3680   20.3770 C   0  0  0  0  0  0  0  0  0  0  0  0
  -26.9750  -28.5110   20.2940 C   0  0  0  0  0  3  0  0  0  0  0  0
  -25.7370  -26.9120   18.9810 C   0  0  0  0  0  3  0  0  0  0  0  0
  -24.5980  -27.7490   19.0530 C   0  0  0  0  0  3  0  0  0  0  0  0
  -23.3980  -29.8510   19.9070 C   0  0  0  0  0  2  0  0  0  0  0  0
  -24.4980  -30.9720   21.8890 N   0  0  0  0  0  0  0  0  0  0  0  0
  -23.3830  -31.9610   23.6130 O   0  0  0  0  0  0  0  0  0  0  0  0
  -22.5580  -29.3650   22.2440 C   0  0  0  0  0  0  0  0  0  0  0  0
  -21.2210  -29.2360   22.1750 N   0  0  0  0  0  0  0  0  0  0  0  0
  -23.2540  -28.6550   22.9760 O   0  0  0  0  0  0  0  0  0  0  0  0
  -20.7160  -29.8610   21.5630 H   0  0  0  0  0  0  0  0  0  0  0  0
  -17.8340  -28.1140   22.8010 C   0  0  0  0  0  0  0  0  0  0  0  0
  -20.4150  -28.2540   22.9060 C   0  0  0  0  0  3  0  0  0  0  0  0
  -20.4130  -26.8870   22.1840 C   0  0  0  0  0  2  0  0  0  0  0  0
  -19.2320  -26.7120   21.2240 C   0  0  0  0  0  2  0  0  0  0  0  0
  -17.9050  -26.8380   21.9780 C   0  0  0  0  0  2  0  0  0  0  0  0
  -19.0120  -28.7870   23.2220 C   0  0  0  0  0  0  0  0  0  0  0  0
  -18.8890  -29.9870   23.9560 C   0  0  0  0  0  3  0  0  0  0  0  0
  -17.6210  -30.5120   24.2700 C   0  0  0  0  0  3  0  0  0  0  0  0
  -16.4590  -29.8340   23.8620 C   0  0  0  0  0  3  0  0  0  0  0  0
  -16.5670  -28.6360   23.1340 C   0  0  0  0  0  3  0  0  0  0  0  0
  -25.7490  -32.3060   23.6780 C   0  0  0  0  0  3  0  0  0  0  0  0
  -26.2760  -31.4650   24.9060 C   0  0  1  0  0  0  0  0  0  0  0  0
  -25.1970  -31.1860   25.9790 C   0  0  0  0  0  1  0  0  0  0  0  0
  -26.8370  -30.1020   24.4390 C   0  0  0  0  0  1  0  0  0  0  0  0
  -27.4470  -32.2110   25.5880 C   0  0  0  0  0  1  0  0  0  0  0  0
  -25.4530  -33.6870   24.0940 N   0  0  0  0  0  0  0  0  0  0  0  0
  -25.7930  -34.7840   23.4040 C   0  0  0  0  0  0  0  0  0  0  0  0
  -26.4540  -34.7390   22.3640 O   0  0  0  0  0  0  0  0  0  0  0  0
  -24.8650  -33.7960   24.9070 H   0  0  0  0  0  0  0  0  0  0  0  0
  -24.0830  -36.6190   23.1820 C   0  0  0  0  0  1  0  0  0  0  0  0
  -25.3270  -36.1470   23.9530 C   0  0  0  0  0  3  0  0  0  0  0  0
  -27.4740  -36.9590   24.8250 C   0  0  0  0  0  1  0  0  0  0  0  0
  -26.3700  -37.1930   23.8980 N   0  0  0  0  0  0  0  0  0  0  0  0
  -25.9760  -38.1080   24.1010 H   0  0  0  0  0  0  0  0  0  0  0  0
  1  7  1  0
  1 13  1  0
  2  7  1  0
  3  4  1  0
  3  2  1  0
  5  4  1  0
  5 24  1  0
  5  6  1  0
  7  6  1  0
  8  1  2  0
  9 49  1  0
  9 12  1  0
 10  9  1  0
 10 13  1  0
 11 14  1  0
 12 11  1  0
 13 11  1  0
 14 15  2  0
 14 16  1  0
 15 18  1  0
 16 20  1  0
 17 15  1  0
 19 16  1  0
 21 22  2  0
 22 41  1  0
 23 22  1  0
 23 26  1  0
 24 21  1  0
 24 25  1  0
 25 23  2  0
 26 27  1  0
 27 28  2  0
 29 32  1  0
 29 28  1  0
 30 29  2  0
 31 30  1  0
 31 26  2  0
 32 33  1  0
 33 34  1  0
 34 35  2  0
 36 35  1  0
 36 40  1  0
 37 36  2  0
 38 33  2  0
 38 37  1  0
 39 38  1  0
 41 42  1  0
 42 45  1  0
 42 44  1  0
 43 41  2  0
 46 47  1  0
 46 21  1  0
 48 46  1  0
 50 49  1  0
 50 51  1  0
 52 53  1  0
 52 51  1  0
 54 65  2  0
 55 53  1  0
 55 60  1  0
 56 64  1  0
 56 66  1  0
 57 63  1  0
 57 59  1  0
 58 64  1  0
 59 58  1  0
 60 59  2  0
 61 62  1  0
 61 55  2  0
 62 57  2  0
 63 56  1  0
 64 54  1  0
 66 68  2  0
 67 66  1  0
 69 67  1  0
 70 79  2  0
 70 75  1  0
 71 67  1  0
 71 75  1  0
 72 71  1  0
 73 74  1  0
 73 72  1  0
 74 70  1  0
 75 76  2  0
 76 77  1  0
 78 77  2  0
 79 78  1  0
 80 54  1  0
 80 85  1  0
 80 81  1  0
 81 84  1  1
 81 82  1  0
 83 81  1  0
 85 88  1  0
 86 90  1  0
 86 85  1  0
 87 86  2  0
 90 89  1  0
 92 90  1  0
 92 93  1  0
 92 91  1  0
M  ISO  4   1 100  13 100  52 101  53 101
M  END
>  <TORSDO>  (60) 
F 20

>  <SCORE>  (60) 
-13.388

>  <name>  (60) 
59

>  <ligand_id>  (60) 
59

>  <original_smiles>  (60) 
[H]c1c([H])c([H])c2c(c1[H])C([H])([H])C([H])([H])C([H])([H])C2([H])N([H])C(=O)C1([H])N(C(=O)C([H])(N([H])C(=O)C([H])(N([H])C([H])([H])[H])C([H])([H])[H])C(C([H])([H])[H])(C([H])([H])[H])C([H])([H])[H])C([H])([H])c2c([H])c(OC([H])([H])C([H])([H])C([H])([H])C([H])([H])C3=NC([H])(C(N([H])[H])=[N+]([H])[H])N(C(=O)N4C([H])([H])C([H])([H])C([H])([H])C([H])(n5nc(-c6c([H])c([H])c(Oc7c([H])c([H])c(F)c([H])c7F)c([H])c6[H])c(C(=O)N([H])[H])c5N([H])[H])C4([H])[H])C3([H])[H])c([H])c([H])c2C1([H])[H]

>  <smiles>  (60) 
[H]c1c([H])c([H])c2c(c1[H])C([H])([H])C([H])([H])C([H])([H])C2([H])N([H])C(=O)C1([H])N(C(=O)C([H])(N([H])C(=O)C([H])(N([H])C([H])([H])[H])C([H])([H])[H])C(C([H])([H])[H])(C([H])([H])[H])C([H])([H])[H])C([H])([H])c2c([H])c(OC([H])([H])C([H])([H])C([H])([H])C([H])([H])C3=NC([H])(C(N([H])[H])=[N+]([H])[H])N(C(=O)N4C([H])([H])C([H])([H])C([H])([H])C([H])(n5nc(-c6c([H])c([H])c(Oc7c([H])c([H])c(F)c([H])c7F)c([H])c6[H])c(C(=O)N([H])[H])c5N([H])[H])C4([H])[H])C3([H])[H])c([H])c([H])c2C1([H])[H]

$$$$
60:0:0
     RDKit          3D

 92 94  0  0  1  0  0  0  0  0999 V2000
  -23.0070  -13.1100   20.7710 C   0  0  0  0  0  1  0  0  0  0  0  0
  -24.9150  -12.4700   23.1960 C   0  0  0  0  0  3  0  0  0  0  0  0
  -24.4910  -10.8240   19.0680 C   0  0  0  0  0  2  0  0  0  0  0  0
  -26.7450  -14.7680   21.6370 C   0  0  0  0  0 15  0  0  0  0  0  0
  -26.5490  -13.3730   18.7590 C   0  0  0  0  0 15  0  0  0  0  0  0
  -24.6150  -13.9880   22.5480 C   0  0  0  0  0  2  0  0  0  0  0  0
  -24.3590  -12.4450   18.9030 C   0  0  0  0  0  1  0  0  0  0  0  0
  -25.4600  -10.3990   20.3220 C   0  0  0  0  0  2  0  0  0  0  0  0
  -28.0370  -14.7830   19.7090 C   0  0  0  0  0 15  0  0  0  0  0  0
  -26.8680   -9.5040   19.8100 C   0  0  0  0  0  3  0  0  0  0  0  0
  -30.6280   -8.7660   22.4610 C   0  0  0  0  0  0  0  0  0  0  0  0
  -29.7620   -6.5150   22.4360 C   0  0  0  0  0  2  0  0  0  0  0  0
  -28.7450   -6.3910   21.2960 C   0  0  0  0  0  2  0  0  0  0  0  0
  -27.4010   -7.0370   21.6950 C   0  0  0  0  0  2  0  0  0  0  0  0
  -27.5440   -8.3110   22.6350 C   0  0  0  0  0  3  0  0  0  0  0  0
  -28.5080   -8.1580   23.7400 C   0  0  0  0  0  2  0  0  0  0  0  0
  -29.7270   -7.8740   22.9620 N   0  0  0  0  0  0  0  0  0  0  0  0
  -31.7850   -8.7310   22.8680 O   0  0  0  0  0  0  0  0  0  0  0  0
  -29.4080  -10.5910   21.1440 C   0  0  0  0  0  2  0  0  0  0  0  0
  -29.9220   -9.1780   19.8250 C   0  0  0  0  0  2  0  0  0  0  0  0
  -28.4840   -9.6420   20.2330 C   0  0  0  0  0  0  0  0  0  0  0  0
  -30.3290   -9.4650   21.2700 N   0  0  0  0  0  0  0  0  0  0  0  0
  -26.1810  -10.7100   22.4840 C   0  0  0  0  0  0  0  0  0  0  0  0
  -24.6720  -10.9610   22.2950 C   0  0  0  0  0  2  0  0  0  0  0  0
  -24.0520   -8.9980   22.5860 C   0  0  0  0  0  2  0  0  0  0  0  0
  -26.4380   -9.0920   22.7880 N   0  0  0  0  0  0  0  0  0  0  0  0
  -25.2400   -8.1930   22.8390 N   0  0  0  0  0  2  0  0  0  0  0  0
  -22.8870   -7.8790   23.1020 C   0  0  0  0  0  0  0  0  0  0  0  0
  -22.6370   -7.3840   24.4690 C   0  0  0  0  0  3  0  0  0  0  0  0
  -21.6100   -6.4300   24.8710 C   0  0  0  0  0  3  0  0  0  0  0  0
  -20.7140   -5.8670   23.9250 C   0  0  0  0  0  0  0  0  0  0  0  0
  -20.9640   -6.2650   22.5940 C   0  0  0  0  0  3  0  0  0  0  0  0
  -22.0040   -7.1770   22.2160 C   0  0  0  0  0  3  0  0  0  0  0  0
  -19.7020   -4.9160   24.1420 O   0  0  0  0  0  0  0  0  0  0  0  0
  -18.7350   -4.9500   25.1390 C   0  0  0  0  0  0  0  0  0  0  0  0
  -17.8410   -6.0340   25.2890 C   0  0  0  0  0  3  0  0  0  0  0  0
  -16.8330   -6.0060   26.2790 C   0  0  0  0  0  3  0  0  0  0  0  0
  -16.6960   -4.8910   27.1260 C   0  0  0  0  0  0  0  0  0  0  0  0
  -17.5520   -3.7890   26.9630 C   0  0  0  0  0  3  0  0  0  0  0  0
  -18.5540   -3.8120   25.9700 C   0  0  0  0  0  0  0  0  0  0  0  0
  -19.3410   -2.7200   25.8150 F   0  0  0  0  0  0  0  0  0  0  0  0
  -15.7430   -4.8740   28.0910 F   0  0  0  0  0  0  0  0  0  0  0  0
  -23.5210  -12.7780   22.4080 C   0  0  2  0  0  0  0  0  0  0  0  0
  -22.4340  -12.9900   23.2760 N   0  0  0  0  0  0  0  0  0  0  0  0
  -22.9250  -13.4000   21.5520 O   0  0  0  0  0  0  0  0  0  0  0  0
  -22.3160  -12.4070   24.0900 H   0  0  0  0  0  0  0  0  0  0  0  0
  -21.7840  -13.7320   23.0690 H   0  0  0  0  0  0  0  0  0  0  0  0
  -27.0640  -11.5910   22.1300 N   0  0  0  0  0  4  0  0  0  0  0  0
  -26.7300  -12.4780   21.7820 H   0  0  0  0  0  0  0  0  0  0  0  0
  -27.9660  -11.3270   21.7680 H   0  0  0  0  0  0  0  0  0  0  0  0
  -30.2520  -16.1160   18.6910 C   0  0  0  0  0 15  0  0  0  0  0  0
  -32.4890  -16.9120   18.0860 O   0  0  0  0  0 15  0  0  0  0  0  0
  -38.3800  -23.3480   18.2820 C   0  0  0  0  0  0  0  0  0  0  0  0
  -33.7290  -18.1850   17.4050 C   0  0  0  0  0  2  0  0  0  0  0  0
  -36.1020  -23.3410   17.4160 C   0  0  0  0  0  3  0  0  0  0  0  0
  -35.0100  -21.1140   16.4290 C   0  0  0  0  0  3  0  0  0  0  0  0
  -37.3640  -21.1210   17.1180 C   0  0  0  0  0  2  0  0  0  0  0  0
  -35.9250  -20.2560   17.0120 C   0  0  0  0  0  0  0  0  0  0  0  0
  -35.2950  -18.8340   17.4380 C   0  0  0  0  0  3  0  0  0  0  0  0
  -33.3390  -19.1440   16.3910 C   0  0  0  0  0  3  0  0  0  0  0  0
  -33.8300  -20.4680   16.0150 C   0  0  0  0  0  3  0  0  0  0  0  0
  -35.2580  -22.6470   16.2890 C   0  0  0  0  0  2  0  0  0  0  0  0
  -37.3900  -22.6130   17.6060 N   0  0  0  0  0  0  0  0  0  0  0  0
  -38.1390  -24.4560   18.8050 O   0  0  0  0  0  0  0  0  0  0  0  0
  -35.3200  -23.3970   18.7560 C   0  0  0  0  0  0  0  0  0  0  0  0
  -34.2390  -24.1910   18.8530 N   0  0  0  0  0  0  0  0  0  0  0  0
  -35.7050  -22.7090   19.7060 O   0  0  0  0  0  0  0  0  0  0  0  0
  -33.9810  -24.7580   18.0570 H   0  0  0  0  0  0  0  0  0  0  0  0
  -31.1040  -25.5210   20.1250 C   0  0  0  0  0  0  0  0  0  0  0  0
  -33.3510  -24.2450   20.0220 C   0  0  0  0  0  3  0  0  0  0  0  0
  -32.4990  -22.9580   20.1220 C   0  0  0  0  0  2  0  0  0  0  0  0
  -31.1380  -23.0860   19.4330 C   0  0  0  0  0  2  0  0  0  0  0  0
  -30.3240  -24.2180   20.0660 C   0  0  0  0  0  2  0  0  0  0  0  0
  -32.5250  -25.5360   20.0870 C   0  0  0  0  0  0  0  0  0  0  0  0
  -33.1960  -26.7760   20.1200 C   0  0  0  0  0  3  0  0  0  0  0  0
  -32.4750  -27.9840   20.1860 C   0  0  0  0  0  3  0  0  0  0  0  0
  -31.0700  -27.9630   20.2320 C   0  0  0  0  0  3  0  0  0  0  0  0
  -30.3890  -26.7340   20.2060 C   0  0  0  0  0  3  0  0  0  0  0  0
  -39.8650  -22.8810   18.4530 C   0  0  0  0  0  3  0  0  0  0  0  0
  -40.7670  -24.0690   18.4410 N   0  0  0  0  0  0  0  0  0  0  0  0
  -41.5050  -24.5080   17.4090 C   0  0  0  0  0  0  0  0  0  0  0  0
  -41.5100  -23.9340   16.3200 O   0  0  0  0  0  0  0  0  0  0  0  0
  -40.7630  -24.6280   19.2820 H   0  0  0  0  0  0  0  0  0  0  0  0
  -41.6430  -27.0100   17.0430 C   0  0  0  0  0  1  0  0  0  0  0  0
  -42.3740  -25.7780   17.6040 C   0  0  0  0  0  3  0  0  0  0  0  0
  -44.6020  -24.7310   17.6330 C   0  0  0  0  0  1  0  0  0  0  0  0
  -43.7160  -25.6920   16.9810 N   0  0  0  0  0  0  0  0  0  0  0  0
  -44.1750  -26.5990   16.9920 H   0  0  0  0  0  0  0  0  0  0  0  0
  -40.1120  -22.0950   19.8030 C   0  0  1  0  0  0  0  0  0  0  0  0
  -39.6570  -22.8620   21.0680 C   0  0  0  0  0  1  0  0  0  0  0  0
  -39.3800  -20.7420   19.8080 C   0  0  0  0  0  1  0  0  0  0  0  0
  -41.6160  -21.7640   19.9550 C   0  0  0  0  0  1  0  0  0  0  0  0
  1 45  1  0
  2 24  1  0
  3  8  1  0
  6  2  1  0
  7  3  1  0
 10 21  2  0
 10  8  1  0
 11 18  2  0
 11 17  1  0
 12 17  1  0
 13 14  1  0
 13 12  1  0
 14 15  1  0
 15 26  1  0
 15 16  1  0
 17 16  1  0
 19 22  1  0
 20 21  1  0
 20 22  1  0
 21 19  1  0
 22 11  1  0
 23 26  1  0
 24 23  1  0
 25 27  1  0
 25 28  1  0
 26 27  1  0
 28 29  1  0
 29 30  2  0
 31 34  1  0
 31 30  1  0
 32 31  2  0
 33 32  1  0
 33 28  2  0
 34 35  1  0
 35 36  2  0
 35 40  1  0
 36 37  1  0
 37 38  2  0
 38 42  1  0
 39 38  1  0
 40 39  2  0
 41 40  1  0
 43 45  1  6
 43  6  1  0
 43  2  1  0
 43 44  1  0
 44 46  1  0
 47 44  1  0
 48 23  2  0
 49 48  1  0
 50 48  1  0
 53 64  2  0
 54 59  1  0
 55 63  1  0
 55 65  1  0
 56 61  1  0
 56 58  1  0
 57 63  1  0
 58 57  1  0
 58 59  2  0
 60 54  1  0
 61 60  2  0
 62 56  1  0
 62 55  1  0
 63 53  1  0
 65 66  1  0
 65 67  2  0
 68 66  1  0
 69 78  1  0
 70 66  1  0
 70 74  1  0
 70 71  1  0
 72 73  1  0
 72 71  1  0
 73 69  1  0
 74 75  1  0
 74 69  2  0
 75 76  2  0
 76 77  1  0
 78 77  2  0
 79 53  1  0
 79 89  1  0
 80 79  1  0
 80 83  1  0
 81 85  1  0
 81 80  1  0
 82 81  2  0
 85 84  1  0
 87 88  1  0
 87 85  1  0
 87 86  1  0
 89 91  1  6
 89 92  1  0
 89 90  1  0
M  ISO  4  11 100  22 100  51 101  52 101
M  END
>  <TORSDO>  (61) 
F 18

>  <SCORE>  (61) 
20.717

>  <name>  (61) 
60

>  <ligand_id>  (61) 
60

>  <original_smiles>  (61) 
[H]c1c([H])c([H])c2c(c1[H])C([H])([H])C([H])([H])C([H])([H])C2([H])N([H])C(=O)C1([H])N(C(=O)C([H])(N([H])C(=O)C([H])(N([H])C([H])([H])[H])C([H])([H])[H])C(C([H])([H])[H])(C([H])([H])[H])C([H])([H])[H])C([H])([H])c2c([H])c(OC([H])([H])C3([H])C([H])([H])C4([H])C([H])([H])C([H])(C([H])([H])C5([H])C([H])([H])N(C(=O)N6C([H])([H])C([H])([H])C([H])([H])C([H])(n7nc(-c8c([H])c([H])c(Oc9c([H])c([H])c(F)c([H])c9F)c([H])c8[H])c(C(=O)N([H])[H])c7N([H])[H])C6([H])[H])C5([H])[H])C([H])([H])C([H])(C3([H])[H])C4([H])[H])c([H])c([H])c2C1([H])[H]

>  <smiles>  (61) 
[H]c1c([H])c([H])c2c(c1[H])C([H])([H])C([H])([H])C([H])([H])C2([H])N([H])C(=O)C1([H])N(C(=O)C([H])(N([H])C(=O)C([H])(N([H])C([H])([H])[H])C([H])([H])[H])C(C([H])([H])[H])(C([H])([H])[H])C([H])([H])[H])C([H])([H])c2c([H])c(OC([H])([H])C3([H])C([H])([H])C4([H])C([H])([H])C([H])(C([H])([H])C5([H])C([H])([H])N(C(=O)N6C([H])([H])C([H])([H])C([H])([H])C([H])(n7nc(-c8c([H])c([H])c(Oc9c([H])c([H])c(F)c([H])c9F)c([H])c8[H])c(C(=O)N([H])[H])c7N([H])[H])C6([H])[H])C5([H])[H])C([H])([H])C([H])(C3([H])[H])C4([H])[H])c([H])c([H])c2C1([H])[H]

$$$$
61:0:0
     RDKit          3D

 91 99  0  0  1  0  0  0  0  0999 V2000
  -27.3830  -20.7710   19.0740 C   0  0  0  0  0  2  0  0  0  0  0  0
  -27.8530  -22.0120   19.8540 C   0  0  0  0  0  2  0  0  0  0  0  0
  -28.0310  -23.2700   18.9860 C   0  0  0  0  0  2  0  0  0  0  0  0
  -28.2930  -24.5000   19.8670 C   0  0  0  0  0  2  0  0  0  0  0  0
  -28.6150  -25.7790   19.0930 C   0  0  0  0  0  2  0  0  0  0  0  0
  -28.4580  -26.8870   19.9740 O   0  0  0  0  0  0  0  0  0  0  0  0
  -24.5970  -31.8890   23.2210 C   0  0  0  0  0  0  0  0  0  0  0  0
  -27.2330  -27.5140   20.0410 C   0  0  0  0  0  0  0  0  0  0  0  0
  -23.3700  -30.4910   21.5900 C   0  0  0  0  0  3  0  0  0  0  0  0
  -24.8090  -28.9620   20.1440 C   0  0  0  0  0  0  0  0  0  0  0  0
  -25.8900  -30.8630   21.3560 C   0  0  0  0  0  2  0  0  0  0  0  0
  -25.9690  -29.4940   20.7170 C   0  0  0  0  0  0  0  0  0  0  0  0
  -27.1790  -28.7710   20.6760 C   0  0  0  0  0  3  0  0  0  0  0  0
  -26.0440  -26.9770   19.4860 C   0  0  0  0  0  3  0  0  0  0  0  0
  -24.8390  -27.6970   19.5350 C   0  0  0  0  0  3  0  0  0  0  0  0
  -23.5600  -29.8090   20.2090 C   0  0  0  0  0  2  0  0  0  0  0  0
  -24.6390  -31.0950   22.1150 N   0  0  0  0  0  0  0  0  0  0  0  0
  -23.5220  -32.1560   23.7750 O   0  0  0  0  0  0  0  0  0  0  0  0
  -22.7320  -29.4680   22.5520 C   0  0  0  0  0  0  0  0  0  0  0  0
  -21.4080  -29.2840   22.4350 N   0  0  0  0  0  0  0  0  0  0  0  0
  -23.4270  -28.8400   23.3560 O   0  0  0  0  0  0  0  0  0  0  0  0
  -20.9100  -29.8470   21.7580 H   0  0  0  0  0  0  0  0  0  0  0  0
  -18.0470  -28.0750   22.9490 C   0  0  0  0  0  0  0  0  0  0  0  0
  -20.6040  -28.3430   23.2090 C   0  0  0  0  0  3  0  0  0  0  0  0
  -20.7080  -26.9130   22.6320 C   0  0  0  0  0  2  0  0  0  0  0  0
  -19.6030  -26.5870   21.6200 C   0  0  0  0  0  2  0  0  0  0  0  0
  -18.2230  -26.7270   22.2700 C   0  0  0  0  0  2  0  0  0  0  0  0
  -19.1630  -28.8410   23.3760 C   0  0  0  0  0  0  0  0  0  0  0  0
  -18.9450  -30.1040   23.9670 C   0  0  0  0  0  3  0  0  0  0  0  0
  -17.6390  -30.6000   24.1470 C   0  0  0  0  0  3  0  0  0  0  0  0
  -16.5360  -29.8320   23.7340 C   0  0  0  0  0  3  0  0  0  0  0  0
  -16.7400  -28.5720   23.1450 C   0  0  0  0  0  3  0  0  0  0  0  0
  -25.8910  -32.5170   23.8260 C   0  0  0  0  0  3  0  0  0  0  0  0
  -26.4320  -31.7340   25.0840 C   0  0  1  0  0  0  0  0  0  0  0  0
  -25.3610  -31.4770   26.1690 C   0  0  0  0  0  1  0  0  0  0  0  0
  -27.0170  -30.3650   24.6660 C   0  0  0  0  0  1  0  0  0  0  0  0
  -27.5950  -32.5200   25.7340 C   0  0  0  0  0  1  0  0  0  0  0  0
  -25.5840  -33.9100   24.1750 N   0  0  0  0  0  0  0  0  0  0  0  0
  -25.9110  -34.9710   23.4240 C   0  0  0  0  0  0  0  0  0  0  0  0
  -26.5730  -34.8780   22.3860 O   0  0  0  0  0  0  0  0  0  0  0  0
  -24.9900  -34.0560   24.9780 H   0  0  0  0  0  0  0  0  0  0  0  0
  -24.1750  -36.7670   23.0970 C   0  0  0  0  0  1  0  0  0  0  0  0
  -25.4230  -36.3530   23.8960 C   0  0  0  0  0  3  0  0  0  0  0  0
  -27.5620  -37.2310   24.7220 C   0  0  0  0  0  1  0  0  0  0  0  0
  -26.4530  -37.4100   23.7880 N   0  0  0  0  0  0  0  0  0  0  0  0
  -26.0460  -38.3250   23.9530 H   0  0  0  0  0  0  0  0  0  0  0  0
  -27.0860  -19.5530   19.9760 C   0  0  0  0  0  2  0  0  0  0  0  0
  -28.2970  -18.9560   20.5930 N   0  0  0  0  0  4  0  0  0  0  0  0
  -29.1070  -19.5190   20.3780 H   0  0  0  0  0  0  0  0  0  0  0  0
  -28.1580  -18.9920   21.5900 H   0  0  0  0  0  0  0  0  0  0  0  0
  -30.7430  -14.6290   20.7620 C   0  0  0  0  0  0  0  0  0  0  0  0
  -30.6190  -12.3590   19.8660 C   0  0  0  0  0  2  0  0  0  0  0  0
  -29.7770  -12.4320   18.5760 C   0  0  0  0  0  2  0  0  0  0  0  0
  -28.2640  -12.3590   18.8900 C   0  0  0  0  0  2  0  0  0  0  0  0
  -27.8070  -13.2460   20.0850 C   0  0  0  0  0  3  0  0  0  0  0  0
  -28.7910  -13.1370   21.2740 C   0  0  0  0  0  2  0  0  0  0  0  0
  -30.1400  -13.4140   20.7630 N   0  0  0  0  0  0  0  0  0  0  0  0
  -31.9610  -14.7890   20.6410 O   0  0  0  0  0  0  0  0  0  0  0  0
  -29.1530  -17.3590   18.8330 C   0  0  0  0  0  2  0  0  0  0  0  0
  -29.8280  -15.9860   18.9170 C   0  0  0  0  0  2  0  0  0  0  0  0
  -29.5210  -16.7770   21.1370 C   0  0  0  0  0  2  0  0  0  0  0  0
  -28.5490  -17.5450   20.2220 C   0  0  0  0  0  3  0  0  0  0  0  0
  -29.9030  -15.6090   20.3460 N   0  0  0  0  0  0  0  0  0  0  0  0
  -25.3600  -13.8330   20.6100 C   0  0  0  0  0  0  0  0  0  0  0  0
  -24.2790  -13.0550   20.9220 C   0  0  0  0  0  0  0  0  0  0  0  0
  -24.7650  -11.7140   20.9690 C   0  0  0  0  0  0  0  0  0  0  0  0
  -26.4310  -12.9640   20.4810 N   0  0  0  0  0  0  0  0  0  0  0  0
  -26.0740  -11.6850   20.7630 N   0  0  0  0  0  0  0  0  0  0  0  0
  -24.0510  -10.4450   21.1340 C   0  0  0  0  0  0  0  0  0  0  0  0
  -24.4530   -9.4930   22.0970 C   0  0  0  0  0  3  0  0  0  0  0  0
  -23.7300   -8.2900   22.2470 C   0  0  0  0  0  3  0  0  0  0  0  0
  -22.6010   -8.0320   21.4360 C   0  0  0  0  0  0  0  0  0  0  0  0
  -22.2300   -8.9700   20.4560 C   0  0  0  0  0  3  0  0  0  0  0  0
  -22.9470  -10.1640   20.3020 C   0  0  0  0  0  3  0  0  0  0  0  0
  -21.8540   -6.8810   21.4930 O   0  0  0  0  0  0  0  0  0  0  0  0
  -21.7710   -6.1360   22.6430 C   0  0  0  0  0  0  0  0  0  0  0  0
  -21.3070   -6.6900   23.8550 C   0  0  0  0  0  3  0  0  0  0  0  0
  -21.1690   -5.8740   24.9950 C   0  0  0  0  0  3  0  0  0  0  0  0
  -21.4900   -4.5040   24.9240 C   0  0  0  0  0  0  0  0  0  0  0  0
  -21.9500   -3.9500   23.7130 C   0  0  0  0  0  3  0  0  0  0  0  0
  -22.0860   -4.7660   22.5770 C   0  0  0  0  0  0  0  0  0  0  0  0
  -22.5080   -4.2210   21.4100 F   0  0  0  0  0  0  0  0  0  0  0  0
  -21.3510   -3.7180   26.0170 F   0  0  0  0  0  0  0  0  0  0  0  0
  -22.8590  -13.5150   21.0660 C   0  0  0  0  0  0  0  0  0  0  0  0
  -22.0810  -12.8330   21.8980 N   0  0  0  0  0  0  0  0  0  0  0  0
  -22.4440  -14.5160   20.4820 O   0  0  0  0  0  0  0  0  0  0  0  0
  -22.4220  -12.0230   22.3930 H   0  0  0  0  0  0  0  0  0  0  0  0
  -21.1210  -13.1120   22.0340 H   0  0  0  0  0  0  0  0  0  0  0  0
  -25.5050  -15.2010   20.3910 N   0  0  0  0  0  0  0  0  0  0  0  0
  -24.7120  -15.8340   20.3670 H   0  0  0  0  0  0  0  0  0  0  0  0
  -26.3540  -15.6000   20.0220 H   0  0  0  0  0  0  0  0  0  0  0  0
  1  2  1  0
  1 47  1  0
  3  2  1  0
  3  4  1  0
  5  4  1  0
  5  6  1  0
  6  8  1  0
  7 18  2  0
  8 13  1  0
  9 17  1  0
  9 19  1  0
 10 16  1  0
 10 12  1  0
 11 17  1  0
 12 11  1  0
 13 12  2  0
 14 15  1  0
 14  8  2  0
 15 10  2  0
 16  9  1  0
 17  7  1  0
 19 21  2  0
 20 19  1  0
 22 20  1  0
 23 32  2  0
 23 28  1  0
 24 20  1  0
 24 28  1  0
 25 24  1  0
 26 27  1  0
 26 25  1  0
 27 23  1  0
 28 29  2  0
 29 30  1  0
 31 30  2  0
 32 31  1  0
 33  7  1  0
 33 38  1  0
 33 34  1  0
 34 37  1  1
 34 35  1  0
 36 34  1  0
 38 41  1  0
 39 43  1  0
 39 38  1  0
 40 39  2  0
 43 42  1  0
 45 43  1  0
 45 46  1  0
 45 44  1  0
 47 48  1  0
 48 50  1  0
 49 48  1  0
 51 57  1  0
 52 57  1  0
 53 54  1  0
 53 52  1  0
 55 54  1  0
 55 67  1  0
 55 56  1  0
 57 56  1  0
 58 51  2  0
 59 60  1  0
 59 62  1  0
 60 63  1  0
 62 48  1  0
 62 61  1  0
 63 51  1  0
 63 61  1  0
 64 65  2  0
 65 66  1  0
 65 84  1  0
 66 69  1  0
 67 64  1  0
 67 68  1  0
 68 66  2  0
 69 70  1  0
 70 71  2  0
 72 75  1  0
 72 71  1  0
 73 72  2  0
 74 73  1  0
 74 69  2  0
 75 76  1  0
 76 77  1  0
 77 78  2  0
 79 78  1  0
 79 83  1  0
 80 79  2  0
 81 76  2  0
 81 80  1  0
 82 81  1  0
 84 85  1  0
 85 88  1  0
 85 87  1  0
 86 84  2  0
 89 64  1  0
 90 89  1  0
 91 89  1  0
M  ISO  4   5 101   6 101  51 100  63 100
M  END
>  <TORSDO>  (62) 
F 22

>  <SCORE>  (62) 
-12.563

>  <name>  (62) 
61

>  <ligand_id>  (62) 
61

>  <original_smiles>  (62) 
[H]c1c([H])c([H])c2c(c1[H])C([H])([H])C([H])([H])C([H])([H])C2([H])N([H])C(=O)C1([H])N(C(=O)C([H])(N([H])C(=O)C([H])(N([H])C([H])([H])[H])C([H])([H])[H])C(C([H])([H])[H])(C([H])([H])[H])C([H])([H])[H])C([H])([H])c2c([H])c(OC([H])([H])C([H])([H])C([H])([H])C([H])([H])C([H])([H])C([H])([H])[N+]([H])([H])C3([H])C([H])([H])N(C(=O)N4C([H])([H])C([H])([H])C([H])([H])C([H])(n5nc(-c6c([H])c([H])c(Oc7c([H])c([H])c(F)c([H])c7F)c([H])c6[H])c(C(=O)N([H])[H])c5N([H])[H])C4([H])[H])C([H])([H])C3([H])[H])c([H])c([H])c2C1([H])[H]

>  <smiles>  (62) 
[H]c1c([H])c([H])c2c(c1[H])C([H])([H])C([H])([H])C([H])([H])C2([H])N([H])C(=O)C1([H])N(C(=O)C([H])(N([H])C(=O)C([H])(N([H])C([H])([H])[H])C([H])([H])[H])C(C([H])([H])[H])(C([H])([H])[H])C([H])([H])[H])C([H])([H])c2c([H])c(OC([H])([H])C([H])([H])C([H])([H])C([H])([H])C([H])([H])C([H])([H])[N+]([H])([H])C3([H])C([H])([H])N(C(=O)N4C([H])([H])C([H])([H])C([H])([H])C([H])(n5nc(-c6c([H])c([H])c(Oc7c([H])c([H])c(F)c([H])c7F)c([H])c6[H])c(C(=O)N([H])[H])c5N([H])[H])C4([H])[H])C([H])([H])C3([H])[H])c([H])c([H])c2C1([H])[H]

$$$$
62:0:0
     RDKit          3D

 90 99  0  0  1  0  0  0  0  0999 V2000
  -30.5470  -22.5500   18.6550 C   0  0  0  0  0  3  0  0  0  0  0  0
  -30.3460  -21.2310   19.1240 C   0  0  0  0  0  3  0  0  0  0  0  0
  -29.8040  -23.6490   19.1430 C   0  0  0  0  0  3  0  0  0  0  0  0
  -28.6360  -22.0930   20.6040 C   0  0  0  0  0  3  0  0  0  0  0  0
  -29.3920  -20.9230   20.1200 C   0  0  0  0  0  0  0  0  0  0  0  0
  -28.8190  -23.4820   20.1340 C   0  0  0  0  0  0  0  0  0  0  0  0
  -30.5830  -14.8580   20.3460 C   0  0  0  0  0  0  0  0  0  0  0  0
  -30.3440  -12.5500   19.3670 C   0  0  0  0  0  2  0  0  0  0  0  0
  -29.4030  -12.5410   18.1450 C   0  0  0  0  0  2  0  0  0  0  0  0
  -27.9450  -12.3410   18.5970 C   0  0  0  0  0  2  0  0  0  0  0  0
  -27.5590  -13.2660   19.7820 C   0  0  0  0  0  3  0  0  0  0  0  0
  -28.6290  -13.2820   20.8940 C   0  0  0  0  0  2  0  0  0  0  0  0
  -29.9010  -13.6520   20.2630 N   0  0  0  0  0  0  0  0  0  0  0  0
  -31.7920  -14.8400   20.0970 O   0  0  0  0  0  0  0  0  0  0  0  0
  -28.8340  -18.2900   19.5230 C   0  0  0  0  0  2  0  0  0  0  0  0
  -30.6080  -18.6770   21.0770 C   0  0  0  0  0  2  0  0  0  0  0  0
  -28.7880  -16.7280   19.9280 C   0  0  0  0  0  2  0  0  0  0  0  0
  -30.5630  -17.1430   21.5300 C   0  0  0  0  0  2  0  0  0  0  0  0
  -29.2790  -19.3630   20.5930 C   0  0  0  0  0  3  0  0  0  0  0  0
  -29.9560  -16.1010   20.6310 N   0  0  0  0  0  0  0  0  0  0  0  0
  -25.1890  -13.8530   20.5420 C   0  0  0  0  0  0  0  0  0  0  0  0
  -24.1260  -13.0800   20.9200 C   0  0  0  0  0  0  0  0  0  0  0  0
  -24.5890  -11.7280   20.8870 C   0  0  0  0  0  0  0  0  0  0  0  0
  -26.2280  -12.9730   20.2970 N   0  0  0  0  0  0  0  0  0  0  0  0
  -25.8780  -11.6900   20.5710 N   0  0  0  0  0  0  0  0  0  0  0  0
  -23.8620  -10.4660   21.0790 C   0  0  0  0  0  0  0  0  0  0  0  0
  -24.3100   -9.4890   21.9940 C   0  0  0  0  0  3  0  0  0  0  0  0
  -23.5820   -8.2930   22.1770 C   0  0  0  0  0  3  0  0  0  0  0  0
  -22.3920   -8.0680   21.4430 C   0  0  0  0  0  0  0  0  0  0  0  0
  -21.9640   -9.0350   20.5170 C   0  0  0  0  0  3  0  0  0  0  0  0
  -22.6930  -10.2220   20.3330 C   0  0  0  0  0  3  0  0  0  0  0  0
  -21.6340   -6.9260   21.5370 O   0  0  0  0  0  0  0  0  0  0  0  0
  -21.6200   -6.1630   22.6770 C   0  0  0  0  0  0  0  0  0  0  0  0
  -21.2540   -6.7030   23.9300 C   0  0  0  0  0  3  0  0  0  0  0  0
  -21.1850   -5.8680   25.0620 C   0  0  0  0  0  3  0  0  0  0  0  0
  -21.4710   -4.4940   24.9450 C   0  0  0  0  0  0  0  0  0  0  0  0
  -21.8300   -3.9540   23.6970 C   0  0  0  0  0  3  0  0  0  0  0  0
  -21.9010   -4.7860   22.5660 C   0  0  0  0  0  0  0  0  0  0  0  0
  -22.2260   -4.2570   21.3620 F   0  0  0  0  0  0  0  0  0  0  0  0
  -21.3970   -3.6900   26.0310 F   0  0  0  0  0  0  0  0  0  0  0  0
  -22.7300  -13.5590   21.1960 C   0  0  0  0  0  0  0  0  0  0  0  0
  -22.0070  -12.8670   22.0680 N   0  0  0  0  0  0  0  0  0  0  0  0
  -22.2920  -14.5820   20.6730 O   0  0  0  0  0  0  0  0  0  0  0  0
  -22.3760  -12.0400   22.5130 H   0  0  0  0  0  0  0  0  0  0  0  0
  -21.0710  -13.1710   22.2970 H   0  0  0  0  0  0  0  0  0  0  0  0
  -25.3500  -15.2220   20.3610 N   0  0  0  0  0  0  0  0  0  0  0  0
  -24.5820  -15.8760   20.4760 H   0  0  0  0  0  0  0  0  0  0  0  0
  -26.1950  -15.6600   20.0200 H   0  0  0  0  0  0  0  0  0  0  0  0
  -27.9610  -24.7790   20.6000 C   0  0  0  0  0  2  0  0  0  0  0  0
  -28.2690  -26.2330   20.2060 O   0  0  0  0  0  0  0  0  0  0  0  0
  -24.6470  -31.8690   23.2130 C   0  0  0  0  0  0  0  0  0  0  0  0
  -27.2060  -27.1900   20.1810 C   0  0  0  0  0  0  0  0  0  0  0  0
  -23.4330  -30.4650   21.5890 C   0  0  0  0  0  3  0  0  0  0  0  0
  -24.8720  -28.8950   20.1600 C   0  0  0  0  0  0  0  0  0  0  0  0
  -25.9820  -30.7470   21.3980 C   0  0  0  0  0  2  0  0  0  0  0  0
  -26.0530  -29.3560   20.7550 C   0  0  0  0  0  0  0  0  0  0  0  0
  -27.2260  -28.5190   20.7500 C   0  0  0  0  0  3  0  0  0  0  0  0
  -26.0050  -26.8240   19.5360 C   0  0  0  0  0  3  0  0  0  0  0  0
  -24.8580  -27.6400   19.5350 C   0  0  0  0  0  3  0  0  0  0  0  0
  -23.6420  -29.7860   20.2100 C   0  0  0  0  0  2  0  0  0  0  0  0
  -24.7070  -31.0470   22.1220 N   0  0  0  0  0  0  0  0  0  0  0  0
  -23.5660  -32.1530   23.7500 O   0  0  0  0  0  0  0  0  0  0  0  0
  -22.7680  -29.4570   22.5590 C   0  0  0  0  0  0  0  0  0  0  0  0
  -21.4400  -29.2840   22.4450 N   0  0  0  0  0  0  0  0  0  0  0  0
  -23.4490  -28.8330   23.3770 O   0  0  0  0  0  0  0  0  0  0  0  0
  -20.9480  -29.8400   21.7570 H   0  0  0  0  0  0  0  0  0  0  0  0
  -18.0650  -28.0800   22.9700 C   0  0  0  0  0  0  0  0  0  0  0  0
  -20.6250  -28.3510   23.2270 C   0  0  0  0  0  3  0  0  0  0  0  0
  -20.7290  -26.9150   22.6640 C   0  0  0  0  0  2  0  0  0  0  0  0
  -19.6240  -26.5790   21.6570 C   0  0  0  0  0  2  0  0  0  0  0  0
  -18.2440  -26.7260   22.3040 C   0  0  0  0  0  2  0  0  0  0  0  0
  -19.1840  -28.8500   23.3890 C   0  0  0  0  0  0  0  0  0  0  0  0
  -18.9620  -30.1160   23.9720 C   0  0  0  0  0  3  0  0  0  0  0  0
  -17.6560  -30.6130   24.1410 C   0  0  0  0  0  3  0  0  0  0  0  0
  -16.5530  -29.8410   23.7380 C   0  0  0  0  0  3  0  0  0  0  0  0
  -16.7590  -28.5760   23.1570 C   0  0  0  0  0  3  0  0  0  0  0  0
  -25.9310  -32.5070   23.8250 C   0  0  0  0  0  3  0  0  0  0  0  0
  -25.6150  -33.9000   24.1730 N   0  0  0  0  0  0  0  0  0  0  0  0
  -25.9240  -34.9650   23.4190 C   0  0  0  0  0  0  0  0  0  0  0  0
  -26.5730  -34.8770   22.3730 O   0  0  0  0  0  0  0  0  0  0  0  0
  -25.0370  -34.0430   24.9880 H   0  0  0  0  0  0  0  0  0  0  0  0
  -24.1710  -36.7470   23.1260 C   0  0  0  0  0  1  0  0  0  0  0  0
  -25.4370  -36.3460   23.9010 C   0  0  0  0  0  3  0  0  0  0  0  0
  -27.5860  -37.2410   24.6800 C   0  0  0  0  0  1  0  0  0  0  0  0
  -26.4560  -37.4090   23.7690 N   0  0  0  0  0  0  0  0  0  0  0  0
  -26.0470  -38.3240   23.9380 H   0  0  0  0  0  0  0  0  0  0  0  0
  -26.4660  -31.7310   25.0900 C   0  0  1  0  0  0  0  0  0  0  0  0
  -25.3880  -31.4830   26.1720 C   0  0  0  0  0  1  0  0  0  0  0  0
  -27.0500  -30.3570   24.6870 C   0  0  0  0  0  1  0  0  0  0  0  0
  -27.6230  -32.5260   25.7410 C   0  0  0  0  0  1  0  0  0  0  0  0
  1  2  2  0
  1  3  1  0
  2  5  1  0
  3  6  2  0
  5  4  2  0
  6 49  1  0
  6  4  1  0
  7 20  1  0
  8 13  1  0
  9 10  1  0
  9  8  1  0
 11 10  1  0
 11 24  1  0
 11 12  1  0
 13  7  1  0
 13 12  1  0
 14  7  2  0
 15 17  1  0
 15 19  1  0
 16 18  1  0
 17 20  1  0
 19  5  1  0
 19 16  1  0
 20 18  1  0
 21 22  2  0
 22 41  1  0
 23 22  1  0
 23 26  1  0
 24 21  1  0
 24 25  1  0
 25 23  2  0
 26 27  1  0
 27 28  2  0
 29 32  1  0
 29 28  1  0
 30 29  2  0
 31 30  1  0
 31 26  2  0
 32 33  1  0
 33 34  1  0
 34 35  2  0
 36 35  1  0
 36 40  1  0
 37 36  2  0
 38 33  2  0
 38 37  1  0
 39 38  1  0
 41 42  1  0
 42 45  1  0
 42 44  1  0
 43 41  2  0
 46 47  1  0
 46 21  1  0
 48 46  1  0
 50 49  1  0
 51 62  2  0
 52 50  1  0
 52 57  1  0
 53 61  1  0
 53 63  1  0
 54 60  1  0
 54 56  1  0
 55 61  1  0
 56 55  1  0
 57 56  2  0
 58 52  2  0
 59 58  1  0
 59 54  2  0
 60 53  1  0
 61 51  1  0
 63 65  2  0
 64 63  1  0
 66 64  1  0
 67 76  2  0
 67 72  1  0
 68 64  1  0
 68 72  1  0
 69 68  1  0
 70 71  1  0
 70 69  1  0
 71 67  1  0
 72 73  2  0
 73 74  1  0
 75 74  2  0
 76 75  1  0
 77 51  1  0
 77 78  1  0
 77 87  1  0
 78 81  1  0
 79 83  1  0
 79 78  1  0
 80 79  2  0
 83 82  1  0
 85 83  1  0
 85 86  1  0
 85 84  1  0
 87 90  1  1
 87 88  1  0
 89 87  1  0
M  ISO  4   7 100  20 100  49 101  50 101
M  END
>  <TORSDO>  (63) 
F 17

>  <SCORE>  (63) 
-15.194

>  <name>  (63) 
62

>  <ligand_id>  (63) 
62

>  <original_smiles>  (63) 
[H]c1c([H])c([H])c2c(c1[H])C([H])([H])C([H])([H])C([H])([H])C2([H])N([H])C(=O)C1([H])N(C(=O)C([H])(N([H])C(=O)C([H])(N([H])C([H])([H])[H])C([H])([H])[H])C(C([H])([H])[H])(C([H])([H])[H])C([H])([H])[H])C([H])([H])c2c([H])c(OC([H])([H])c3c([H])c([H])c([H])c(C4([H])C([H])([H])C([H])([H])N(C(=O)N5C([H])([H])C([H])([H])C([H])([H])C([H])(n6nc(-c7c([H])c([H])c(Oc8c([H])c([H])c(F)c([H])c8F)c([H])c7[H])c(C(=O)N([H])[H])c6N([H])[H])C5([H])[H])C([H])([H])C4([H])[H])c3[H])c([H])c([H])c2C1([H])[H]

>  <smiles>  (63) 
[H]c1c([H])c([H])c2c(c1[H])C([H])([H])C([H])([H])C([H])([H])C2([H])N([H])C(=O)C1([H])N(C(=O)C([H])(N([H])C(=O)C([H])(N([H])C([H])([H])[H])C([H])([H])[H])C(C([H])([H])[H])(C([H])([H])[H])C([H])([H])[H])C([H])([H])c2c([H])c(OC([H])([H])c3c([H])c([H])c([H])c(C4([H])C([H])([H])C([H])([H])N(C(=O)N5C([H])([H])C([H])([H])C([H])([H])C([H])(n6nc(-c7c([H])c([H])c(Oc8c([H])c([H])c(F)c([H])c8F)c([H])c7[H])c(C(=O)N([H])[H])c6N([H])[H])C5([H])[H])C([H])([H])C4([H])[H])c3[H])c([H])c([H])c2C1([H])[H]

$$$$
63:0:0
     RDKit          3D

 92101  0  0  1  0  0  0  0  0999 V2000
  -30.2320  -18.4860   17.9340 C   0  0  0  0  0  3  0  0  0  0  0  0
  -30.5320  -17.4180   18.6960 C   0  0  0  0  0  3  0  0  0  0  0  0
  -28.1750  -20.0490   18.0700 C   0  0  0  0  0  2  0  0  0  0  0  0
  -29.3010  -18.5180   20.6330 C   0  0  0  0  0  2  0  0  0  0  0  0
  -27.5910  -20.8630   19.2500 C   0  0  0  0  0  2  0  0  0  0  0  0
  -29.6420  -19.7910   18.4470 C   0  0  0  0  0  3  0  0  0  0  0  0
  -30.2480  -17.2920   20.1910 C   0  0  0  0  0  3  0  0  0  0  0  0
  -29.6570  -19.9500   19.9710 C   0  0  0  0  0  3  0  0  0  0  0  0
  -28.7070  -21.1300   20.1930 N   0  0  1  0  0  4  0  0  0  0  0  0
  -28.3740  -21.1030   21.1450 H   0  0  0  0  0  0  0  0  0  0  0  0
  -30.5940  -14.7080   20.3850 C   0  0  0  0  0  0  0  0  0  0  0  0
  -30.3650  -12.4510   19.3710 C   0  0  0  0  0  2  0  0  0  0  0  0
  -29.4420  -12.5600   18.1390 C   0  0  0  0  0  2  0  0  0  0  0  0
  -27.9600  -12.4200   18.5490 C   0  0  0  0  0  2  0  0  0  0  0  0
  -27.5880  -13.2850   19.7840 C   0  0  0  0  0  3  0  0  0  0  0  0
  -28.6390  -13.1740   20.9080 C   0  0  0  0  0  2  0  0  0  0  0  0
  -29.9460  -13.4990   20.3260 N   0  0  0  0  0  0  0  0  0  0  0  0
  -31.7870  -14.7860   20.0860 O   0  0  0  0  0  0  0  0  0  0  0  0
  -29.8330  -15.8560   20.5160 N   0  0  0  0  0  0  0  0  0  0  0  0
  -28.8560  -15.7000   20.7160 H   0  0  0  0  0  0  0  0  0  0  0  0
  -25.2040  -13.8830   20.5110 C   0  0  0  0  0  0  0  0  0  0  0  0
  -24.1330  -13.1140   20.8790 C   0  0  0  0  0  0  0  0  0  0  0  0
  -24.5890  -11.7600   20.8440 C   0  0  0  0  0  0  0  0  0  0  0  0
  -26.2420  -12.9980   20.2710 N   0  0  0  0  0  0  0  0  0  0  0  0
  -25.8810  -11.7140   20.5360 N   0  0  0  0  0  0  0  0  0  0  0  0
  -23.8530  -10.5020   21.0340 C   0  0  0  0  0  0  0  0  0  0  0  0
  -24.2750   -9.5350   21.9730 C   0  0  0  0  0  3  0  0  0  0  0  0
  -23.5430   -8.3400   22.1500 C   0  0  0  0  0  3  0  0  0  0  0  0
  -22.3720   -8.1080   21.3900 C   0  0  0  0  0  0  0  0  0  0  0  0
  -21.9680   -9.0640   20.4400 C   0  0  0  0  0  3  0  0  0  0  0  0
  -22.7020  -10.2490   20.2610 C   0  0  0  0  0  3  0  0  0  0  0  0
  -21.6120   -6.9670   21.4730 O   0  0  0  0  0  0  0  0  0  0  0  0
  -21.5480   -6.2260   22.6250 C   0  0  0  0  0  0  0  0  0  0  0  0
  -21.1070   -6.7850   23.8450 C   0  0  0  0  0  3  0  0  0  0  0  0
  -20.9920   -5.9740   24.9900 C   0  0  0  0  0  3  0  0  0  0  0  0
  -21.3030   -4.6030   24.9160 C   0  0  0  0  0  0  0  0  0  0  0  0
  -21.7320   -4.0410   23.7020 C   0  0  0  0  0  3  0  0  0  0  0  0
  -21.8520   -4.8510   22.5580 C   0  0  0  0  0  0  0  0  0  0  0  0
  -22.2490   -4.3010   21.3870 F   0  0  0  0  0  0  0  0  0  0  0  0
  -21.1800   -3.8230   26.0170 F   0  0  0  0  0  0  0  0  0  0  0  0
  -22.7370  -13.5980   21.1450 C   0  0  0  0  0  0  0  0  0  0  0  0
  -22.0000  -12.9040   22.0030 N   0  0  0  0  0  0  0  0  0  0  0  0
  -22.3060  -14.6280   20.6270 O   0  0  0  0  0  0  0  0  0  0  0  0
  -22.3600  -12.0730   22.4490 H   0  0  0  0  0  0  0  0  0  0  0  0
  -21.0590  -13.2070   22.2170 H   0  0  0  0  0  0  0  0  0  0  0  0
  -25.3720  -15.2550   20.3380 N   0  0  0  0  0  0  0  0  0  0  0  0
  -24.5960  -15.9030   20.4310 H   0  0  0  0  0  0  0  0  0  0  0  0
  -26.2110  -15.6910   19.9760 H   0  0  0  0  0  0  0  0  0  0  0  0
  -29.2760  -22.5390   19.9500 C   0  0  0  0  0  2  0  0  0  0  0  0
  -28.4850  -23.8330   20.5000 C   0  0  0  0  0  2  0  0  0  0  0  0
  -28.6300  -25.2010   19.6760 C   0  0  0  0  0  2  0  0  0  0  0  0
  -28.4490  -26.5350   20.2980 O   0  0  0  0  0  0  0  0  0  0  0  0
  -24.6200  -31.8710   23.2280 C   0  0  0  0  0  0  0  0  0  0  0  0
  -27.2920  -27.3230   20.2040 C   0  0  0  0  0  0  0  0  0  0  0  0
  -23.4320  -30.4590   21.5810 C   0  0  0  0  0  3  0  0  0  0  0  0
  -24.9040  -28.9070   20.1720 C   0  0  0  0  0  0  0  0  0  0  0  0
  -25.9670  -30.7990   21.4060 C   0  0  0  0  0  2  0  0  0  0  0  0
  -26.0620  -29.4160   20.7710 C   0  0  0  0  0  0  0  0  0  0  0  0
  -27.2520  -28.6330   20.7800 C   0  0  0  0  0  3  0  0  0  0  0  0
  -26.1090  -26.8600   19.5880 C   0  0  0  0  0  3  0  0  0  0  0  0
  -24.9310  -27.6360   19.5710 C   0  0  0  0  0  3  0  0  0  0  0  0
  -23.6570  -29.7690   20.2080 C   0  0  0  0  0  2  0  0  0  0  0  0
  -24.6930  -31.0600   22.1300 N   0  0  0  0  0  0  0  0  0  0  0  0
  -23.5330  -32.1440   23.7570 O   0  0  0  0  0  0  0  0  0  0  0  0
  -22.7700  -29.4470   22.5440 C   0  0  0  0  0  0  0  0  0  0  0  0
  -21.4430  -29.2700   22.4180 N   0  0  0  0  0  0  0  0  0  0  0  0
  -23.4470  -28.8220   23.3630 O   0  0  0  0  0  0  0  0  0  0  0  0
  -20.9550  -29.8240   21.7280 H   0  0  0  0  0  0  0  0  0  0  0  0
  -18.0650  -28.0830   22.9190 C   0  0  0  0  0  0  0  0  0  0  0  0
  -20.6240  -28.3330   23.1880 C   0  0  0  0  0  3  0  0  0  0  0  0
  -20.7210  -26.9020   22.6090 C   0  0  0  0  0  2  0  0  0  0  0  0
  -19.6170  -26.5860   21.5960 C   0  0  0  0  0  2  0  0  0  0  0  0
  -18.2370  -26.7350   22.2400 C   0  0  0  0  0  2  0  0  0  0  0  0
  -19.1860  -28.8400   23.3510 C   0  0  0  0  0  0  0  0  0  0  0  0
  -18.9710  -30.1010   23.9460 C   0  0  0  0  0  3  0  0  0  0  0  0
  -17.6680  -30.6070   24.1130 C   0  0  0  0  0  3  0  0  0  0  0  0
  -16.5620  -29.8470   23.6990 C   0  0  0  0  0  3  0  0  0  0  0  0
  -16.7610  -28.5860   23.1070 C   0  0  0  0  0  3  0  0  0  0  0  0
  -25.8990  -32.5100   23.8550 C   0  0  0  0  0  3  0  0  0  0  0  0
  -26.4140  -31.7420   25.1360 C   0  0  1  0  0  0  0  0  0  0  0  0
  -25.3170  -31.5030   26.1980 C   0  0  0  0  0  1  0  0  0  0  0  0
  -27.0030  -30.3660   24.7500 C   0  0  0  0  0  1  0  0  0  0  0  0
  -27.5600  -32.5410   25.8040 C   0  0  0  0  0  1  0  0  0  0  0  0
  -25.5830  -33.9080   24.1820 N   0  0  0  0  0  0  0  0  0  0  0  0
  -25.9130  -34.9600   23.4210 C   0  0  0  0  0  0  0  0  0  0  0  0
  -26.5870  -34.8580   22.3930 O   0  0  0  0  0  0  0  0  0  0  0  0
  -24.9880  -34.0620   24.9830 H   0  0  0  0  0  0  0  0  0  0  0  0
  -24.1840  -36.7490   23.0540 C   0  0  0  0  0  1  0  0  0  0  0  0
  -25.4190  -36.3460   23.8740 C   0  0  0  0  0  3  0  0  0  0  0  0
  -27.5450  -37.2420   24.7190 C   0  0  0  0  0  1  0  0  0  0  0  0
  -26.4490  -37.4040   23.7680 N   0  0  0  0  0  0  0  0  0  0  0  0
  -26.0360  -38.3230   23.9130 H   0  0  0  0  0  0  0  0  0  0  0  0
  1  2  2  0
  2  7  1  0
  3  6  1  0
  3  5  1  0
  5  9  1  0
  6  1  1  0
  6  8  1  0
  7 19  1  0
  7  4  1  0
  8  9  1  0
  8  4  1  0
  9 10  1  1
 11 19  1  0
 12 17  1  0
 13 14  1  0
 13 12  1  0
 15 14  1  0
 15 24  1  0
 15 16  1  0
 17 11  1  0
 17 16  1  0
 18 11  2  0
 19 20  1  0
 21 22  2  0
 22 41  1  0
 23 22  1  0
 23 26  1  0
 24 21  1  0
 24 25  1  0
 25 23  2  0
 26 27  1  0
 27 28  2  0
 29 32  1  0
 29 28  1  0
 30 29  2  0
 31 30  1  0
 31 26  2  0
 32 33  1  0
 33 34  1  0
 34 35  2  0
 36 35  1  0
 36 40  1  0
 37 36  2  0
 38 33  2  0
 38 37  1  0
 39 38  1  0
 41 42  1  0
 42 45  1  0
 42 44  1  0
 43 41  2  0
 46 47  1  0
 46 21  1  0
 48 46  1  0
 49  9  1  0
 49 50  1  0
 51 52  1  0
 51 50  1  0
 53 64  2  0
 54 52  1  0
 54 59  1  0
 55 63  1  0
 55 65  1  0
 56 62  1  0
 56 58  1  0
 57 63  1  0
 58 59  2  0
 58 57  1  0
 60 54  2  0
 61 60  1  0
 61 56  2  0
 62 55  1  0
 63 53  1  0
 65 67  2  0
 66 65  1  0
 68 66  1  0
 69 78  2  0
 69 74  1  0
 70 66  1  0
 70 74  1  0
 71 70  1  0
 72 73  1  0
 72 71  1  0
 73 69  1  0
 74 75  2  0
 75 76  1  0
 77 76  2  0
 78 77  1  0
 79 53  1  0
 79 84  1  0
 79 80  1  0
 80 83  1  1
 80 81  1  0
 82 80  1  0
 84 87  1  0
 85 89  1  0
 85 84  1  0
 86 85  2  0
 89 88  1  0
 91 89  1  0
 91 92  1  0
 91 90  1  0
M  ISO  4  11 100  19 100  51 101  52 101
M  END
>  <TORSDO>  (64) 
F 19

>  <SCORE>  (64) 
-14.283

>  <name>  (64) 
63

>  <ligand_id>  (64) 
63

>  <original_smiles>  (64) 
[H]C1=C([H])C2([H])C([H])([H])C([H])([H])[N+]([H])(C([H])([H])C([H])([H])C([H])([H])Oc3c([H])c([H])c4c(c3[H])C([H])([H])N(C(=O)C([H])(N([H])C(=O)C([H])(N([H])C([H])([H])[H])C([H])([H])[H])C(C([H])([H])[H])(C([H])([H])[H])C([H])([H])[H])C([H])(C(=O)N([H])C3([H])c5c([H])c([H])c([H])c([H])c5C([H])([H])C([H])([H])C3([H])[H])C4([H])[H])C2([H])C([H])([H])C1([H])N([H])C(=O)N1C([H])([H])C([H])([H])C([H])([H])C([H])(n2nc(-c3c([H])c([H])c(Oc4c([H])c([H])c(F)c([H])c4F)c([H])c3[H])c(C(=O)N([H])[H])c2N([H])[H])C1([H])[H]

>  <smiles>  (64) 
[H]C1=C([H])C2([H])C([H])([H])C([H])([H])[N+]([H])(C([H])([H])C([H])([H])C([H])([H])Oc3c([H])c([H])c4c(c3[H])C([H])([H])N(C(=O)C([H])(N([H])C(=O)C([H])(N([H])C([H])([H])[H])C([H])([H])[H])C(C([H])([H])[H])(C([H])([H])[H])C([H])([H])[H])C([H])(C(=O)N([H])C3([H])c5c([H])c([H])c([H])c([H])c5C([H])([H])C([H])([H])C3([H])[H])C4([H])[H])C2([H])C([H])([H])C1([H])N([H])C(=O)N1C([H])([H])C([H])([H])C([H])([H])C([H])(n2nc(-c3c([H])c([H])c(Oc4c([H])c([H])c(F)c([H])c4F)c([H])c3[H])c(C(=O)N([H])[H])c2N([H])[H])C1([H])[H]

$$$$
64:0:0
     RDKit          3D

 98106  0  0  1  0  0  0  0  0999 V2000
  -31.2440  -22.9850   21.0810 C   0  0  0  0  0  2  0  0  0  0  0  0
  -31.5180  -21.8930   22.1300 C   0  0  0  0  0  2  0  0  0  0  0  0
  -29.0010  -22.0470   20.3670 C   0  0  0  0  0  2  0  0  0  0  0  0
  -28.9720  -20.8370   21.3320 C   0  0  0  0  0  2  0  0  0  0  0  0
  -29.7490  -23.2750   20.9170 C   0  0  0  0  0  3  0  0  0  0  0  0
  -31.5010  -20.4320   21.6120 C   0  0  0  0  0  3  0  0  0  0  0  0
  -30.1410  -19.9050   21.2230 N   0  0  1  0  0  4  0  0  0  0  0  0
  -30.1910  -19.7280   20.2330 H   0  0  0  0  0  0  0  0  0  0  0  0
  -29.5240  -24.5410   20.0650 C   0  0  0  0  0  2  0  0  0  0  0  0
  -28.3640  -25.4120   20.5730 C   0  0  0  0  0  2  0  0  0  0  0  0
  -28.4490  -26.6810   19.9280 O   0  0  0  0  0  0  0  0  0  0  0  0
  -24.5550  -31.6840   23.1240 C   0  0  0  0  0  0  0  0  0  0  0  0
  -27.2800  -27.3930   19.9470 C   0  0  0  0  0  0  0  0  0  0  0  0
  -23.3810  -30.3190   21.4260 C   0  0  0  0  0  3  0  0  0  0  0  0
  -24.8660  -28.8450   19.9730 C   0  0  0  0  0  0  0  0  0  0  0  0
  -25.9000  -30.7270   21.2590 C   0  0  0  0  0  2  0  0  0  0  0  0
  -26.0100  -29.3760   20.5860 C   0  0  0  0  0  0  0  0  0  0  0  0
  -27.2240  -28.6570   20.5670 C   0  0  0  0  0  3  0  0  0  0  0  0
  -26.1260  -26.8710   19.3240 C   0  0  0  0  0  3  0  0  0  0  0  0
  -24.9170  -27.5880   19.3420 C   0  0  0  0  0  3  0  0  0  0  0  0
  -23.6100  -29.6830   20.0280 C   0  0  0  0  0  2  0  0  0  0  0  0
  -24.6300  -30.9210   21.9960 N   0  0  0  0  0  0  0  0  0  0  0  0
  -23.4670  -31.9240   23.6620 O   0  0  0  0  0  0  0  0  0  0  0  0
  -22.7380  -29.2590   22.3470 C   0  0  0  0  0  0  0  0  0  0  0  0
  -21.4140  -29.0810   22.2160 N   0  0  0  0  0  0  0  0  0  0  0  0
  -23.4230  -28.6020   23.1350 O   0  0  0  0  0  0  0  0  0  0  0  0
  -20.9190  -29.6640   21.5550 H   0  0  0  0  0  0  0  0  0  0  0  0
  -18.0410  -27.8710   22.6710 C   0  0  0  0  0  0  0  0  0  0  0  0
  -20.5980  -28.1140   22.9520 C   0  0  0  0  0  3  0  0  0  0  0  0
  -20.6990  -26.7060   22.3210 C   0  0  0  0  0  2  0  0  0  0  0  0
  -19.5970  -26.4240   21.2950 C   0  0  0  0  0  2  0  0  0  0  0  0
  -18.2150  -26.5480   21.9450 C   0  0  0  0  0  2  0  0  0  0  0  0
  -19.1620  -28.6130   23.1290 C   0  0  0  0  0  0  0  0  0  0  0  0
  -18.9460  -29.8540   23.7660 C   0  0  0  0  0  3  0  0  0  0  0  0
  -17.6430  -30.3530   23.9510 C   0  0  0  0  0  3  0  0  0  0  0  0
  -16.5360  -29.6070   23.5080 C   0  0  0  0  0  3  0  0  0  0  0  0
  -16.7370  -28.3680   22.8740 C   0  0  0  0  0  3  0  0  0  0  0  0
  -25.8300  -32.3090   23.7740 C   0  0  0  0  0  3  0  0  0  0  0  0
  -26.3370  -31.5120   25.0380 C   0  0  1  0  0  0  0  0  0  0  0  0
  -25.2350  -31.2400   26.0870 C   0  0  0  0  0  1  0  0  0  0  0  0
  -26.9380  -30.1500   24.6180 C   0  0  0  0  0  1  0  0  0  0  0  0
  -27.4740  -32.2990   25.7330 C   0  0  0  0  0  1  0  0  0  0  0  0
  -25.5080  -33.6980   24.1280 N   0  0  0  0  0  0  0  0  0  0  0  0
  -25.8480  -34.7660   23.3950 C   0  0  0  0  0  0  0  0  0  0  0  0
  -26.5400  -34.6860   22.3750 O   0  0  0  0  0  0  0  0  0  0  0  0
  -24.8990  -33.8330   24.9210 H   0  0  0  0  0  0  0  0  0  0  0  0
  -24.1200  -36.5540   23.0320 C   0  0  0  0  0  1  0  0  0  0  0  0
  -25.3430  -36.1410   23.8680 C   0  0  0  0  0  3  0  0  0  0  0  0
  -27.4510  -37.0180   24.7690 C   0  0  0  0  0  1  0  0  0  0  0  0
  -26.3710  -37.2020   23.8030 N   0  0  0  0  0  0  0  0  0  0  0  0
  -25.9550  -38.1150   23.9650 H   0  0  0  0  0  0  0  0  0  0  0  0
  -32.5450  -20.1570   20.4890 C   0  0  0  0  0  2  0  0  0  0  0  0
  -33.9990  -20.6260   20.7740 C   0  0  0  0  0  2  0  0  0  0  0  0
  -34.9420  -20.2460   19.7020 N   0  0  0  0  0  4  0  0  0  0  0  0
  -34.9040  -19.2620   19.5180 H   0  0  0  0  0  0  0  0  0  0  0  0
  -35.8850  -20.4640   19.9770 H   0  0  0  0  0  0  0  0  0  0  0  0
  -34.7440  -20.7450   18.8520 H   0  0  0  0  0  0  0  0  0  0  0  0
  -29.8360  -18.5710   21.8320 C   0  0  0  0  0  2  0  0  0  0  0  0
  -30.1160  -17.3800   20.8820 C   0  0  0  0  0  2  0  0  0  0  0  0
  -31.1630  -16.3540   21.3820 C   0  0  0  0  0  2  0  0  0  0  0  0
  -31.1890  -14.1810   20.0740 C   0  0  0  0  0  0  0  0  0  0  0  0
  -30.7720  -12.0250   18.9390 C   0  0  0  0  0  2  0  0  0  0  0  0
  -29.7740  -12.1200   17.7710 C   0  0  0  0  0  2  0  0  0  0  0  0
  -28.3170  -12.0710   18.2670 C   0  0  0  0  0  2  0  0  0  0  0  0
  -28.0490  -13.0230   19.4630 C   0  0  0  0  0  3  0  0  0  0  0  0
  -29.1260  -12.8160   20.5490 C   0  0  0  0  0  2  0  0  0  0  0  0
  -30.4530  -13.0480   19.9420 N   0  0  0  0  0  0  0  0  0  0  0  0
  -32.1830  -14.4380   19.3890 O   0  0  0  0  0  0  0  0  0  0  0  0
  -30.7430  -14.9980   21.0380 N   0  0  0  0  0  0  0  0  0  0  0  0
  -29.9650  -14.6270   21.5680 H   0  0  0  0  0  0  0  0  0  0  0  0
  -25.7290  -13.7910   20.2900 C   0  0  0  0  0  0  0  0  0  0  0  0
  -24.6330  -13.0860   20.7080 C   0  0  0  0  0  0  0  0  0  0  0  0
  -24.9990  -11.7080   20.6370 C   0  0  0  0  0  0  0  0  0  0  0  0
  -26.7020  -12.8440   20.0010 N   0  0  0  0  0  0  0  0  0  0  0  0
  -26.2670  -11.5860   20.2710 N   0  0  0  0  0  0  0  0  0  0  0  0
  -24.2040  -10.4910   20.8520 C   0  0  0  0  0  0  0  0  0  0  0  0
  -24.5860   -9.5210   21.8050 C   0  0  0  0  0  3  0  0  0  0  0  0
  -23.7980   -8.3680   22.0090 C   0  0  0  0  0  3  0  0  0  0  0  0
  -22.6100   -8.1790   21.2620 C   0  0  0  0  0  0  0  0  0  0  0  0
  -22.2460   -9.1360   20.2980 C   0  0  0  0  0  3  0  0  0  0  0  0
  -23.0340  -10.2810   20.0930 C   0  0  0  0  0  3  0  0  0  0  0  0
  -21.7970   -7.0800   21.3720 O   0  0  0  0  0  0  0  0  0  0  0  0
  -21.6680   -6.3930   22.5530 C   0  0  0  0  0  0  0  0  0  0  0  0
  -21.2200   -7.0260   23.7330 C   0  0  0  0  0  3  0  0  0  0  0  0
  -21.0310   -6.2710   24.9060 C   0  0  0  0  0  3  0  0  0  0  0  0
  -21.2810   -4.8870   24.9010 C   0  0  0  0  0  0  0  0  0  0  0  0
  -21.7240   -4.2540   23.7270 C   0  0  0  0  0  3  0  0  0  0  0  0
  -21.9130   -5.0050   22.5530 C   0  0  0  0  0  0  0  0  0  0  0  0
  -22.3140   -4.3870   21.4160 F   0  0  0  0  0  0  0  0  0  0  0  0
  -21.0980   -4.1600   26.0270 F   0  0  0  0  0  0  0  0  0  0  0  0
  -23.2830  -13.6470   21.0540 C   0  0  0  0  0  0  0  0  0  0  0  0
  -22.5550  -12.9890   21.9530 N   0  0  0  0  0  0  0  0  0  0  0  0
  -22.8810  -14.6950   20.5550 O   0  0  0  0  0  0  0  0  0  0  0  0
  -22.8900  -12.1380   22.3760 H   0  0  0  0  0  0  0  0  0  0  0  0
  -21.6510  -13.3480   22.2200 H   0  0  0  0  0  0  0  0  0  0  0  0
  -25.9750  -15.1510   20.1160 N   0  0  0  0  0  0  0  0  0  0  0  0
  -25.2660  -15.8570   20.2950 H   0  0  0  0  0  0  0  0  0  0  0  0
  -26.8360  -15.5340   19.7470 H   0  0  0  0  0  0  0  0  0  0  0  0
  1  2  1  0
  3  5  1  0
  3  4  1  0
  5  9  1  0
  5  1  1  0
  6 52  1  0
  6  2  1  0
  7  4  1  0
  7  6  1  0
  7 58  1  0
  7  8  1  6
  9 10  1  0
 11 13  1  0
 11 10  1  0
 12 23  2  0
 13 18  1  0
 14 22  1  0
 14 24  1  0
 15 21  1  0
 15 17  1  0
 16 22  1  0
 17 16  1  0
 18 17  2  0
 19 20  1  0
 19 13  2  0
 20 15  2  0
 21 14  1  0
 22 12  1  0
 24 26  2  0
 25 24  1  0
 27 25  1  0
 28 37  2  0
 28 33  1  0
 29 25  1  0
 29 33  1  0
 30 29  1  0
 31 32  1  0
 31 30  1  0
 32 28  1  0
 33 34  2  0
 34 35  1  0
 36 35  2  0
 37 36  1  0
 38 12  1  0
 38 43  1  0
 38 39  1  0
 39 42  1  1
 39 40  1  0
 41 39  1  0
 43 46  1  0
 44 48  1  0
 44 43  1  0
 45 44  2  0
 48 47  1  0
 50 48  1  0
 50 51  1  0
 50 49  1  0
 52 53  1  0
 54 56  1  0
 54 53  1  0
 55 54  1  0
 57 54  1  0
 59 60  1  0
 59 58  1  0
 61 69  1  0
 62 67  1  0
 63 64  1  0
 63 62  1  0
 65 64  1  0
 65 74  1  0
 65 66  1  0
 67 61  1  0
 67 66  1  0
 68 61  2  0
 69 60  1  0
 69 70  1  0
 71 72  2  0
 72 91  1  0
 73 72  1  0
 73 76  1  0
 74 75  1  0
 74 71  1  0
 75 73  2  0
 76 77  1  0
 77 78  2  0
 79 82  1  0
 79 78  1  0
 80 79  2  0
 81 80  1  0
 81 76  2  0
 82 83  1  0
 83 84  1  0
 84 85  2  0
 86 85  1  0
 86 90  1  0
 87 86  2  0
 88 83  2  0
 88 87  1  0
 89 88  1  0
 91 92  1  0
 92 95  1  0
 92 94  1  0
 93 91  2  0
 96 71  1  0
 96 97  1  0
 98 96  1  0
M  ISO  4  10 101  11 101  61 100  69 100
M  END
>  <TORSDO>  (65) 
F 24

>  <SCORE>  (65) 
-11.935

>  <name>  (65) 
64

>  <ligand_id>  (65) 
64

>  <original_smiles>  (65) 
[H]c1c([H])c([H])c2c(c1[H])C([H])([H])C([H])([H])C([H])([H])C2([H])N([H])C(=O)C1([H])N(C(=O)C([H])(N([H])C(=O)C([H])(N([H])C([H])([H])[H])C([H])([H])[H])C(C([H])([H])[H])(C([H])([H])[H])C([H])([H])[H])C([H])([H])c2c([H])c(OC([H])([H])C([H])([H])C3([H])C([H])([H])C([H])([H])C([H])(C([H])([H])C([H])([H])[N+]([H])([H])[H])[N+]([H])(C([H])([H])C([H])([H])C([H])([H])N([H])C(=O)N4C([H])([H])C([H])([H])C([H])([H])C([H])(n5nc(-c6c([H])c([H])c(Oc7c([H])c([H])c(F)c([H])c7F)c([H])c6[H])c(C(=O)N([H])[H])c5N([H])[H])C4([H])[H])C([H])([H])C3([H])[H])c([H])c([H])c2C1([H])[H]

>  <smiles>  (65) 
[H]c1c([H])c([H])c2c(c1[H])C([H])([H])C([H])([H])C([H])([H])C2([H])N([H])C(=O)C1([H])N(C(=O)C([H])(N([H])C(=O)C([H])(N([H])C([H])([H])[H])C([H])([H])[H])C(C([H])([H])[H])(C([H])([H])[H])C([H])([H])[H])C([H])([H])c2c([H])c(OC([H])([H])C([H])([H])C3([H])C([H])([H])C([H])([H])C([H])(C([H])([H])C([H])([H])[N+]([H])([H])[H])[N+]([H])(C([H])([H])C([H])([H])C([H])([H])N([H])C(=O)N4C([H])([H])C([H])([H])C([H])([H])C([H])(n5nc(-c6c([H])c([H])c(Oc7c([H])c([H])c(F)c([H])c7F)c([H])c6[H])c(C(=O)N([H])[H])c5N([H])[H])C4([H])[H])C([H])([H])C3([H])[H])c([H])c([H])c2C1([H])[H]

$$$$
65:0:0
     RDKit          3D

 95104  0  0  1  0  0  0  0  0999 V2000
  -28.6230  -23.0110   19.3080 C   0  0  0  0  0  3  0  0  0  0  0  0
  -31.2100  -20.1830   18.5910 C   0  0  0  0  0  3  0  0  0  0  0  0
  -30.7960  -19.0930   19.3910 C   0  0  0  0  0  3  0  0  0  0  0  0
  -30.5390  -21.4240   18.6380 C   0  0  0  0  0  3  0  0  0  0  0  0
  -29.0240  -20.5050   20.2900 C   0  0  0  0  0  3  0  0  0  0  0  0
  -29.7020  -19.2230   20.2700 C   0  0  0  0  0  0  0  0  0  0  0  0
  -29.4170  -21.6370   19.4720 C   0  0  0  0  0  0  0  0  0  0  0  0
  -29.4010  -18.0470   21.2790 C   0  0  0  0  0  2  0  0  0  0  0  0
  -30.1690  -15.5910   20.7000 C   0  0  0  0  0  0  0  0  0  0  0  0
  -30.2750  -13.3020   19.7140 C   0  0  0  0  0  2  0  0  0  0  0  0
  -29.4010  -13.2400   18.4440 C   0  0  0  0  0  2  0  0  0  0  0  0
  -27.9280  -12.9410   18.8010 C   0  0  0  0  0  2  0  0  0  0  0  0
  -27.4000  -13.8170   19.9690 C   0  0  0  0  0  3  0  0  0  0  0  0
  -28.4010  -13.8360   21.1460 C   0  0  0  0  0  2  0  0  0  0  0  0
  -29.6850  -14.3100   20.6130 N   0  0  0  0  0  0  0  0  0  0  0  0
  -31.3570  -15.8360   20.4680 O   0  0  0  0  0  0  0  0  0  0  0  0
  -29.2470  -16.5950   20.8770 N   0  0  0  0  0  0  0  0  0  0  0  0
  -28.3060  -16.2450   20.9760 H   0  0  0  0  0  0  0  0  0  0  0  0
  -24.9600  -14.1990   20.6770 C   0  0  0  0  0  0  0  0  0  0  0  0
  -23.9340  -13.3310   20.9360 C   0  0  0  0  0  0  0  0  0  0  0  0
  -24.4810  -12.0190   20.7860 C   0  0  0  0  0  0  0  0  0  0  0  0
  -26.0610  -13.4120   20.3890 N   0  0  0  0  0  0  0  0  0  0  0  0
  -25.7780  -12.0890   20.5150 N   0  0  0  0  0  0  0  0  0  0  0  0
  -23.8280  -10.7030   20.8230 C   0  0  0  0  0  0  0  0  0  0  0  0
  -24.3570   -9.6380   21.5850 C   0  0  0  0  0  3  0  0  0  0  0  0
  -23.7000   -8.3900   21.6200 C   0  0  0  0  0  3  0  0  0  0  0  0
  -22.5010   -8.1980   20.8930 C   0  0  0  0  0  0  0  0  0  0  0  0
  -21.9930   -9.2550   20.1160 C   0  0  0  0  0  3  0  0  0  0  0  0
  -22.6500  -10.4950   20.0780 C   0  0  0  0  0  3  0  0  0  0  0  0
  -21.8070   -7.0140   20.8490 O   0  0  0  0  0  0  0  0  0  0  0  0
  -21.9190   -6.0760   21.8440 C   0  0  0  0  0  0  0  0  0  0  0  0
  -21.6140   -6.3770   23.1890 C   0  0  0  0  0  3  0  0  0  0  0  0
  -21.6770   -5.3670   24.1680 C   0  0  0  0  0  3  0  0  0  0  0  0
  -22.0350   -4.0540   23.8040 C   0  0  0  0  0  0  0  0  0  0  0  0
  -22.3350   -3.7510   22.4660 C   0  0  0  0  0  3  0  0  0  0  0  0
  -22.2740   -4.7600   21.4880 C   0  0  0  0  0  0  0  0  0  0  0  0
  -22.5400   -4.4570   20.1930 F   0  0  0  0  0  0  0  0  0  0  0  0
  -22.0900   -3.0810   24.7440 F   0  0  0  0  0  0  0  0  0  0  0  0
  -22.5030  -13.6960   21.2060 C   0  0  0  0  0  0  0  0  0  0  0  0
  -21.8010  -12.8850   21.9910 N   0  0  0  0  0  0  0  0  0  0  0  0
  -22.0120  -14.7320   20.7570 O   0  0  0  0  0  0  0  0  0  0  0  0
  -22.2100  -12.0460   22.3730 H   0  0  0  0  0  0  0  0  0  0  0  0
  -20.8400  -13.1070   22.2120 H   0  0  0  0  0  0  0  0  0  0  0  0
  -25.0370  -15.5890   20.6430 N   0  0  0  0  0  0  0  0  0  0  0  0
  -24.2170  -16.1660   20.8030 H   0  0  0  0  0  0  0  0  0  0  0  0
  -25.8420  -16.1230   20.3440 H   0  0  0  0  0  0  0  0  0  0  0  0
  -24.9260  -23.4000   21.5910 C   0  0  0  0  0  3  0  0  0  0  0  0
  -24.8810  -23.1040   20.2160 C   0  0  0  0  0  3  0  0  0  0  0  0
  -26.1690  -23.5260   22.2360 C   0  0  0  0  0  3  0  0  0  0  0  0
  -26.0750  -22.9460   19.4830 C   0  0  0  0  0  3  0  0  0  0  0  0
  -27.3660  -23.3610   21.5090 C   0  0  0  0  0  3  0  0  0  0  0  0
  -27.3290  -23.0850   20.1230 C   0  0  0  0  0  0  0  0  0  0  0  0
  -29.3710  -24.4470   19.2750 C   0  0  0  0  0  2  0  0  0  0  0  0
  -28.4450  -25.7420   19.0270 C   0  0  0  0  0  2  0  0  0  0  0  0
  -28.7480  -27.1410   19.4840 O   0  0  0  0  0  0  0  0  0  0  0  0
  -25.0160  -31.7840   23.6630 C   0  0  0  0  0  0  0  0  0  0  0  0
  -27.6490  -28.0180   19.6460 C   0  0  0  0  0  0  0  0  0  0  0  0
  -23.8270  -30.7810   21.7530 C   0  0  0  0  0  3  0  0  0  0  0  0
  -25.2850  -29.6110   20.0140 C   0  0  0  0  0  0  0  0  0  0  0  0
  -26.3700  -31.1400   21.6500 C   0  0  0  0  0  2  0  0  0  0  0  0
  -26.4550  -29.9400   20.7100 C   0  0  0  0  0  0  0  0  0  0  0  0
  -27.6390  -29.1530   20.5240 C   0  0  0  0  0  3  0  0  0  0  0  0
  -26.4480  -27.7690   18.9380 C   0  0  0  0  0  3  0  0  0  0  0  0
  -25.2880  -28.5360   19.1210 C   0  0  0  0  0  3  0  0  0  0  0  0
  -24.0440  -30.4440   20.2560 C   0  0  0  0  0  2  0  0  0  0  0  0
  -25.0910  -31.2410   22.4150 N   0  0  0  0  0  0  0  0  0  0  0  0
  -23.9270  -31.9260   24.2420 O   0  0  0  0  0  0  0  0  0  0  0  0
  -23.1700  -29.5680   22.4590 C   0  0  0  0  0  0  0  0  0  0  0  0
  -21.8490  -29.4000   22.2720 N   0  0  0  0  0  0  0  0  0  0  0  0
  -23.8470  -28.7910   23.1330 O   0  0  0  0  0  0  0  0  0  0  0  0
  -21.3620  -30.0820   21.7090 H   0  0  0  0  0  0  0  0  0  0  0  0
  -18.4870  -28.0750   22.4460 C   0  0  0  0  0  0  0  0  0  0  0  0
  -21.0380  -28.3050   22.8070 C   0  0  0  0  0  3  0  0  0  0  0  0
  -21.1730  -27.0340   21.9370 C   0  0  0  0  0  2  0  0  0  0  0  0
  -20.0870  -26.9220   20.8620 C   0  0  0  0  0  2  0  0  0  0  0  0
  -18.6960  -26.9070   21.4980 C   0  0  0  0  0  2  0  0  0  0  0  0
  -19.5880  -28.7400   23.0480 C   0  0  0  0  0  0  0  0  0  0  0  0
  -19.3390  -29.8430   23.8940 C   0  0  0  0  0  3  0  0  0  0  0  0
  -18.0230  -30.2760   24.1480 C   0  0  0  0  0  3  0  0  0  0  0  0
  -16.9380  -29.6010   23.5620 C   0  0  0  0  0  3  0  0  0  0  0  0
  -17.1690  -28.5030   22.7140 C   0  0  0  0  0  3  0  0  0  0  0  0
  -26.2920  -32.2740   24.4160 C   0  0  0  0  0  3  0  0  0  0  0  0
  -26.0210  -33.6290   24.9180 N   0  0  0  0  0  0  0  0  0  0  0  0
  -26.4100  -34.7580   24.3140 C   0  0  0  0  0  0  0  0  0  0  0  0
  -27.1130  -34.7670   23.3000 O   0  0  0  0  0  0  0  0  0  0  0  0
  -25.4050  -33.7000   25.7150 H   0  0  0  0  0  0  0  0  0  0  0  0
  -24.7590  -36.6520   24.1480 C   0  0  0  0  0  1  0  0  0  0  0  0
  -25.9530  -36.0920   24.9380 C   0  0  0  0  0  3  0  0  0  0  0  0
  -28.0830  -36.7760   25.9470 C   0  0  0  0  0  1  0  0  0  0  0  0
  -27.0210  -37.1110   25.0010 N   0  0  0  0  0  0  0  0  0  0  0  0
  -26.6410  -38.0180   25.2570 H   0  0  0  0  0  0  0  0  0  0  0  0
  -26.7150  -31.3190   25.5990 C   0  0  1  0  0  0  0  0  0  0  0  0
  -25.5680  -31.0010   26.5860 C   0  0  0  0  0  1  0  0  0  0  0  0
  -27.2560  -29.9770   25.0540 C   0  0  0  0  0  1  0  0  0  0  0  0
  -27.8730  -31.9620   26.3990 C   0  0  0  0  0  1  0  0  0  0  0  0
  1 53  1  0
  1  7  1  0
  1 52  1  0
  2  4  2  0
  2  3  1  0
  3  6  2  0
  4  7  1  0
  6  5  1  0
  6  8  1  0
  7  5  2  0
  9 17  1  0
 10 15  1  0
 11 12  1  0
 11 10  1  0
 13 12  1  0
 13 22  1  0
 13 14  1  0
 15  9  1  0
 15 14  1  0
 16  9  2  0
 17 18  1  0
 17  8  1  0
 19 20  2  0
 20 39  1  0
 21 24  1  0
 21 20  1  0
 22 23  1  0
 22 19  1  0
 23 21  2  0
 24 25  1  0
 25 26  2  0
 27 26  1  0
 28 27  2  0
 29 28  1  0
 29 24  2  0
 30 27  1  0
 30 31  1  0
 31 32  1  0
 32 33  2  0
 34 33  1  0
 34 38  1  0
 35 34  2  0
 36 31  2  0
 36 35  1  0
 37 36  1  0
 39 40  1  0
 40 43  1  0
 40 42  1  0
 41 39  2  0
 44 19  1  0
 44 45  1  0
 46 44  1  0
 47 49  1  0
 48 47  2  0
 50 52  2  0
 50 48  1  0
 51 49  2  0
 52 51  1  0
 54 53  1  0
 54 55  1  0
 55 57  1  0
 56 67  2  0
 57 62  1  0
 58 66  1  0
 58 68  1  0
 59 65  1  0
 59 61  1  0
 60 66  1  0
 61 60  1  0
 62 61  2  0
 63 64  1  0
 63 57  2  0
 64 59  2  0
 65 58  1  0
 66 56  1  0
 68 70  2  0
 69 68  1  0
 71 69  1  0
 72 81  2  0
 72 77  1  0
 73 69  1  0
 73 77  1  0
 74 73  1  0
 75 76  1  0
 75 74  1  0
 76 72  1  0
 77 78  2  0
 78 79  1  0
 80 79  2  0
 81 80  1  0
 82 56  1  0
 82 83  1  0
 82 92  1  0
 83 86  1  0
 84 83  1  0
 84 88  1  0
 85 84  2  0
 88 87  1  0
 88 90  1  0
 90 91  1  0
 90 89  1  0
 92 95  1  1
 92 93  1  0
 94 92  1  0
M  ISO  4   9 100  17 100  54 101  55 101
M  END
>  <TORSDO>  (66) 
F 21

>  <SCORE>  (66) 
-11.047

>  <name>  (66) 
65

>  <ligand_id>  (66) 
65

>  <original_smiles>  (66) 
[H]c1c([H])c([H])c(C([H])(c2c([H])c([H])c([H])c(C([H])([H])N([H])C(=O)N3C([H])([H])C([H])([H])C([H])([H])C([H])(n4nc(-c5c([H])c([H])c(Oc6c([H])c([H])c(F)c([H])c6F)c([H])c5[H])c(C(=O)N([H])[H])c4N([H])[H])C3([H])[H])c2[H])C([H])([H])C([H])([H])Oc2c([H])c([H])c3c(c2[H])C([H])([H])N(C(=O)C([H])(N([H])C(=O)C([H])(N([H])C([H])([H])[H])C([H])([H])[H])C(C([H])([H])[H])(C([H])([H])[H])C([H])([H])[H])C([H])(C(=O)N([H])C2([H])c4c([H])c([H])c([H])c([H])c4C([H])([H])C([H])([H])C2([H])[H])C3([H])[H])c([H])c1[H]

>  <smiles>  (66) 
[H]c1c([H])c([H])c(C([H])(c2c([H])c([H])c([H])c(C([H])([H])N([H])C(=O)N3C([H])([H])C([H])([H])C([H])([H])C([H])(n4nc(-c5c([H])c([H])c(Oc6c([H])c([H])c(F)c([H])c6F)c([H])c5[H])c(C(=O)N([H])[H])c4N([H])[H])C3([H])[H])c2[H])C([H])([H])C([H])([H])Oc2c([H])c([H])c3c(c2[H])C([H])([H])N(C(=O)C([H])(N([H])C(=O)C([H])(N([H])C([H])([H])[H])C([H])([H])[H])C(C([H])([H])[H])(C([H])([H])[H])C([H])([H])[H])C([H])(C(=O)N([H])C2([H])c4c([H])c([H])c([H])c([H])c4C([H])([H])C([H])([H])C2([H])[H])C3([H])[H])c([H])c1[H]

$$$$
66:0:0
     RDKit          3D

 85 93  0  0  1  0  0  0  0  0999 V2000
  -28.6760  -22.6460   20.4760 C   0  0  0  0  0  3  0  0  0  0  0  0
  -29.1190  -21.0750   19.6960 C   0  0  0  0  0  3  0  0  0  0  0  0
  -30.4610  -15.3050   19.8830 C   0  0  0  0  0  0  0  0  0  0  0  0
  -30.3170  -12.8780   18.9610 C   0  0  0  0  0  2  0  0  0  0  0  0
  -29.3190  -12.7060   17.7890 C   0  0  0  0  0  2  0  0  0  0  0  0
  -27.9020  -12.4430   18.3200 C   0  0  0  0  0  2  0  0  0  0  0  0
  -27.5400  -13.3790   19.5020 C   0  0  0  0  0  3  0  0  0  0  0  0
  -28.6660  -13.5020   20.5530 C   0  0  0  0  0  2  0  0  0  0  0  0
  -29.8470  -14.0170   19.8420 N   0  0  0  0  0  0  0  0  0  0  0  0
  -31.6420  -15.2580   19.5050 O   0  0  0  0  0  0  0  0  0  0  0  0
  -28.5680  -18.6550   21.0390 C   0  0  0  0  0  3  0  0  0  0  0  0
  -29.2730  -19.3840   20.1520 C   0  0  0  0  0  0  0  0  0  0  0  0
  -28.8060  -17.0880   21.0590 C   0  0  0  0  0  3  0  0  0  0  0  0
  -30.1070  -18.1200   19.4800 C   0  0  0  0  0  3  0  0  0  0  0  0
  -29.7910  -16.6380   20.0230 N   0  0  0  0  0  0  0  0  0  0  0  0
  -25.2340  -13.9260   20.4330 C   0  0  0  0  0  0  0  0  0  0  0  0
  -24.1960  -13.1450   20.8570 C   0  0  0  0  0  0  0  0  0  0  0  0
  -24.6510  -11.7940   20.7610 C   0  0  0  0  0  0  0  0  0  0  0  0
  -26.2520  -13.0530   20.0970 N   0  0  0  0  0  0  0  0  0  0  0  0
  -25.9180  -11.7630   20.3600 N   0  0  0  0  0  0  0  0  0  0  0  0
  -23.9290  -10.5310   20.9680 C   0  0  0  0  0  0  0  0  0  0  0  0
  -24.4000   -9.5470   21.8640 C   0  0  0  0  0  3  0  0  0  0  0  0
  -23.6740   -8.3520   22.0610 C   0  0  0  0  0  3  0  0  0  0  0  0
  -22.4620   -8.1330   21.3630 C   0  0  0  0  0  0  0  0  0  0  0  0
  -22.0100   -9.1060   20.4540 C   0  0  0  0  0  3  0  0  0  0  0  0
  -22.7370  -10.2920   20.2550 C   0  0  0  0  0  3  0  0  0  0  0  0
  -21.7040   -6.9920   21.4720 O   0  0  0  0  0  0  0  0  0  0  0  0
  -21.6860   -6.2470   22.6250 C   0  0  0  0  0  0  0  0  0  0  0  0
  -21.3160   -6.8060   23.8670 C   0  0  0  0  0  3  0  0  0  0  0  0
  -21.2440   -5.9890   25.0130 C   0  0  0  0  0  3  0  0  0  0  0  0
  -21.5320   -4.6150   24.9180 C   0  0  0  0  0  0  0  0  0  0  0  0
  -21.8960   -4.0550   23.6800 C   0  0  0  0  0  3  0  0  0  0  0  0
  -21.9700   -4.8700   22.5370 C   0  0  0  0  0  0  0  0  0  0  0  0
  -22.2990   -4.3220   21.3420 F   0  0  0  0  0  0  0  0  0  0  0  0
  -21.4560   -3.8270   26.0160 F   0  0  0  0  0  0  0  0  0  0  0  0
  -22.8240  -13.6240   21.2310 C   0  0  0  0  0  0  0  0  0  0  0  0
  -22.1520  -12.9170   22.1320 N   0  0  0  0  0  0  0  0  0  0  0  0
  -22.3600  -14.6620   20.7610 O   0  0  0  0  0  0  0  0  0  0  0  0
  -22.5440  -12.0780   22.5360 H   0  0  0  0  0  0  0  0  0  0  0  0
  -21.2350  -13.2210   22.4260 H   0  0  0  0  0  0  0  0  0  0  0  0
  -25.3900  -15.3000   20.2760 N   0  0  0  0  0  0  0  0  0  0  0  0
  -24.6330  -15.9520   20.4530 H   0  0  0  0  0  0  0  0  0  0  0  0
  -26.2060  -15.7410   19.8730 H   0  0  0  0  0  0  0  0  0  0  0  0
  -28.1770  -24.2700   19.8340 C   0  0  0  0  0  2  0  0  0  0  0  0
  -28.1900  -25.8500   20.3370 O   0  0  0  0  0  0  0  0  0  0  0  0
  -24.6270  -31.8400   23.2100 C   0  0  0  0  0  0  0  0  0  0  0  0
  -27.1790  -26.9440   20.2130 C   0  0  0  0  0  0  0  0  0  0  0  0
  -23.4320  -30.4360   21.5800 C   0  0  0  0  0  3  0  0  0  0  0  0
  -24.8790  -28.8270   20.1560 C   0  0  0  0  0  0  0  0  0  0  0  0
  -25.9970  -30.6460   21.4320 C   0  0  0  0  0  2  0  0  0  0  0  0
  -26.0640  -29.2330   20.7800 C   0  0  0  0  0  0  0  0  0  0  0  0
  -27.2050  -28.3100   20.7870 C   0  0  0  0  0  3  0  0  0  0  0  0
  -25.9680  -26.6960   19.5270 C   0  0  0  0  0  3  0  0  0  0  0  0
  -24.8560  -27.5810   19.5100 C   0  0  0  0  0  3  0  0  0  0  0  0
  -23.6580  -29.7460   20.2050 C   0  0  0  0  0  2  0  0  0  0  0  0
  -24.7060  -31.0020   22.1260 N   0  0  0  0  0  0  0  0  0  0  0  0
  -23.5370  -32.1330   23.7320 O   0  0  0  0  0  0  0  0  0  0  0  0
  -22.7390  -29.4460   22.5510 C   0  0  0  0  0  0  0  0  0  0  0  0
  -21.4070  -29.2860   22.4350 N   0  0  0  0  0  0  0  0  0  0  0  0
  -23.4060  -28.8200   23.3790 O   0  0  0  0  0  0  0  0  0  0  0  0
  -20.9210  -29.8400   21.7430 H   0  0  0  0  0  0  0  0  0  0  0  0
  -18.0250  -28.0800   22.9590 C   0  0  0  0  0  0  0  0  0  0  0  0
  -20.5850  -28.3520   23.2120 C   0  0  0  0  0  3  0  0  0  0  0  0
  -20.6860  -26.9160   22.6450 C   0  0  0  0  0  2  0  0  0  0  0  0
  -19.5810  -26.5870   21.6360 C   0  0  0  0  0  2  0  0  0  0  0  0
  -18.2020  -26.7300   22.2850 C   0  0  0  0  0  2  0  0  0  0  0  0
  -19.1440  -28.8490   23.3800 C   0  0  0  0  0  0  0  0  0  0  0  0
  -18.9200  -30.1090   23.9750 C   0  0  0  0  0  3  0  0  0  0  0  0
  -17.6150  -30.6040   24.1490 C   0  0  0  0  0  3  0  0  0  0  0  0
  -16.5110  -29.8340   23.7410 C   0  0  0  0  0  3  0  0  0  0  0  0
  -16.7180  -28.5730   23.1530 C   0  0  0  0  0  3  0  0  0  0  0  0
  -25.8970  -32.4870   23.8400 C   0  0  0  0  0  3  0  0  0  0  0  0
  -25.5830  -33.8920   24.1590 N   0  0  0  0  0  0  0  0  0  0  0  0
  -25.9150  -34.9450   23.3990 C   0  0  0  0  0  0  0  0  0  0  0  0
  -26.5800  -34.8370   22.3660 O   0  0  0  0  0  0  0  0  0  0  0  0
  -24.9900  -34.0490   24.9600 H   0  0  0  0  0  0  0  0  0  0  0  0
  -24.1830  -36.7440   23.0620 C   0  0  0  0  0  1  0  0  0  0  0  0
  -25.4360  -36.3390   23.8560 C   0  0  0  0  0  3  0  0  0  0  0  0
  -27.5830  -37.2310   24.6510 C   0  0  0  0  0  1  0  0  0  0  0  0
  -26.4670  -37.3910   23.7220 N   0  0  0  0  0  0  0  0  0  0  0  0
  -26.0640  -38.3130   23.8670 H   0  0  0  0  0  0  0  0  0  0  0  0
  -26.3980  -31.7370   25.1360 C   0  0  1  0  0  0  0  0  0  0  0  0
  -25.2930  -31.5260   26.2000 C   0  0  0  0  0  1  0  0  0  0  0  0
  -26.9760  -30.3480   24.7830 C   0  0  0  0  0  1  0  0  0  0  0  0
  -27.5470  -32.5370   25.7940 C   0  0  0  0  0  1  0  0  0  0  0  0
  2 12  1  0
  2  1  2  0
  3 15  1  0
  4  9  1  0
  5  6  1  0
  5  4  1  0
  7  6  1  0
  7 19  1  0
  7  8  1  0
  9  3  1  0
  9  8  1  0
 10  3  2  0
 11 13  2  0
 12 11  1  0
 14 15  1  0
 14 12  2  0
 15 13  1  0
 16 17  2  0
 17 36  1  0
 18 17  1  0
 18 21  1  0
 19 20  1  0
 19 16  1  0
 20 18  2  0
 21 22  1  0
 22 23  2  0
 24 27  1  0
 24 23  1  0
 25 24  2  0
 26 25  1  0
 26 21  2  0
 27 28  1  0
 28 29  1  0
 29 30  2  0
 31 30  1  0
 31 35  1  0
 32 31  2  0
 33 28  2  0
 33 32  1  0
 34 33  1  0
 36 37  1  0
 37 40  1  0
 37 39  1  0
 38 36  2  0
 41 16  1  0
 41 42  1  0
 43 41  1  0
 44 45  1  0
 44  1  1  0
 46 57  2  0
 47 45  1  0
 47 52  1  0
 48 56  1  0
 48 58  1  0
 49 55  1  0
 49 51  1  0
 50 56  1  0
 51 52  2  0
 51 50  1  0
 53 47  2  0
 54 53  1  0
 54 49  2  0
 55 48  1  0
 56 46  1  0
 58 60  2  0
 59 58  1  0
 61 59  1  0
 62 71  2  0
 62 67  1  0
 63 59  1  0
 63 67  1  0
 64 63  1  0
 65 66  1  0
 65 64  1  0
 66 62  1  0
 67 68  2  0
 68 69  1  0
 70 69  2  0
 71 70  1  0
 72 46  1  0
 72 73  1  0
 72 82  1  0
 73 76  1  0
 74 78  1  0
 74 73  1  0
 75 74  2  0
 78 77  1  0
 80 78  1  0
 80 81  1  0
 80 79  1  0
 82 85  1  1
 82 83  1  0
 84 82  1  0
M  ISO  4   3 100  15 100  44 101  45 101
M  END
>  <TORSDO>  (67) 
F 18

>  <SCORE>  (67) 
-15.706

>  <name>  (67) 
66

>  <ligand_id>  (67) 
66

>  <original_smiles>  (67) 
[H]C1=C(C([H])([H])C([H])([H])C([H])([H])Oc2c([H])c([H])c3c(c2[H])C([H])([H])N(C(=O)C([H])(N([H])C(=O)C([H])(N([H])C([H])([H])[H])C([H])([H])[H])C(C([H])([H])[H])(C([H])([H])[H])C([H])([H])[H])C([H])(C(=O)N([H])C2([H])c4c([H])c([H])c([H])c([H])c4C([H])([H])C([H])([H])C2([H])[H])C3([H])[H])C([H])([H])N(C(=O)N2C([H])([H])C([H])([H])C([H])([H])C([H])(n3nc(-c4c([H])c([H])c(Oc5c([H])c([H])c(F)c([H])c5F)c([H])c4[H])c(C(=O)N([H])[H])c3N([H])[H])C2([H])[H])C1([H])[H]

>  <smiles>  (67) 
[H]C1=C(C([H])([H])C([H])([H])C([H])([H])Oc2c([H])c([H])c3c(c2[H])C([H])([H])N(C(=O)C([H])(N([H])C(=O)C([H])(N([H])C([H])([H])[H])C([H])([H])[H])C(C([H])([H])[H])(C([H])([H])[H])C([H])([H])[H])C([H])(C(=O)N([H])C2([H])c4c([H])c([H])c([H])c([H])c4C([H])([H])C([H])([H])C2([H])[H])C3([H])[H])C([H])([H])N(C(=O)N2C([H])([H])C([H])([H])C([H])([H])C([H])(n3nc(-c4c([H])c([H])c(Oc5c([H])c([H])c(F)c([H])c5F)c([H])c4[H])c(C(=O)N([H])[H])c3N([H])[H])C2([H])[H])C1([H])[H]

$$$$
67:0:0
     RDKit          3D

 91100  0  0  1  0  0  0  0  0999 V2000
  -29.2230  -20.5830   21.3680 C   0  0  0  0  0  3  0  0  0  0  0  0
  -29.1000  -19.2030   20.7130 C   0  0  0  0  0  0  0  0  0  0  0  0
  -28.4250  -21.6870   20.6660 C   0  0  0  0  0  2  0  0  0  0  0  0
  -31.0350  -20.2830   19.4030 C   0  0  0  0  0  2  0  0  0  0  0  0
  -30.2740  -18.8860   19.7310 C   0  0  0  0  0  3  0  0  0  0  0  0
  -29.5280  -22.5450   19.9900 C   0  0  0  0  0  3  0  0  0  0  0  0
  -30.7500  -21.5850   20.3330 C   0  0  0  0  0  3  0  0  0  0  0  0
  -30.3740  -21.0470   21.6180 N   0  0  0  0  0  2  0  0  0  0  0  0
  -28.1550  -18.4260   20.8780 O   0  0  0  0  0  0  0  0  0  0  0  0
  -31.2170  -17.6310   20.1440 C   0  0  0  0  0  2  0  0  0  0  0  0
  -31.3990  -15.0410   20.0810 C   0  0  0  0  0  0  0  0  0  0  0  0
  -31.1090  -12.7350   19.1780 C   0  0  0  0  0  2  0  0  0  0  0  0
  -30.1650  -12.7840   17.9580 C   0  0  0  0  0  2  0  0  0  0  0  0
  -28.6960  -12.6780   18.4080 C   0  0  0  0  0  2  0  0  0  0  0  0
  -28.3590  -13.6360   19.5830 C   0  0  0  0  0  3  0  0  0  0  0  0
  -29.4230  -13.5740   20.7010 C   0  0  0  0  0  2  0  0  0  0  0  0
  -30.7240  -13.8450   20.0810 N   0  0  0  0  0  0  0  0  0  0  0  0
  -32.5770  -15.0880   19.7190 O   0  0  0  0  0  0  0  0  0  0  0  0
  -30.6880  -16.2090   20.2850 N   0  0  0  0  0  0  0  0  0  0  0  0
  -29.7210  -16.0990   20.5510 H   0  0  0  0  0  0  0  0  0  0  0  0
  -26.0330  -14.3390   20.4020 C   0  0  0  0  0  0  0  0  0  0  0  0
  -24.9310  -13.6150   20.7650 C   0  0  0  0  0  0  0  0  0  0  0  0
  -25.3100  -12.2410   20.6640 C   0  0  0  0  0  0  0  0  0  0  0  0
  -27.0150  -13.4100   20.0990 N   0  0  0  0  0  0  0  0  0  0  0  0
  -26.5880  -12.1400   20.3180 N   0  0  0  0  0  0  0  0  0  0  0  0
  -24.5140  -11.0180   20.8180 C   0  0  0  0  0  0  0  0  0  0  0  0
  -24.8580  -10.0230   21.7590 C   0  0  0  0  0  3  0  0  0  0  0  0
  -24.0630   -8.8640   21.9000 C   0  0  0  0  0  3  0  0  0  0  0  0
  -22.9100   -8.6940   21.0990 C   0  0  0  0  0  0  0  0  0  0  0  0
  -22.5860   -9.6750   20.1450 C   0  0  0  0  0  3  0  0  0  0  0  0
  -23.3790  -10.8240   20.0030 C   0  0  0  0  0  3  0  0  0  0  0  0
  -22.0920   -7.5890   21.1480 O   0  0  0  0  0  0  0  0  0  0  0  0
  -21.8690   -6.9140   22.3200 C   0  0  0  0  0  0  0  0  0  0  0  0
  -21.3070   -7.5460   23.4520 C   0  0  0  0  0  3  0  0  0  0  0  0
  -21.0290   -6.7970   24.6120 C   0  0  0  0  0  3  0  0  0  0  0  0
  -21.3020   -5.4160   24.6420 C   0  0  0  0  0  0  0  0  0  0  0  0
  -21.8570   -4.7830   23.5150 C   0  0  0  0  0  3  0  0  0  0  0  0
  -22.1360   -5.5300   22.3560 C   0  0  0  0  0  0  0  0  0  0  0  0
  -22.6510   -4.9110   21.2660 F   0  0  0  0  0  0  0  0  0  0  0  0
  -21.0290   -4.6930   25.7540 F   0  0  0  0  0  0  0  0  0  0  0  0
  -23.5720  -14.1620   21.0950 C   0  0  0  0  0  0  0  0  0  0  0  0
  -22.8340  -13.4830   21.9640 N   0  0  0  0  0  0  0  0  0  0  0  0
  -23.1790  -15.2260   20.6190 O   0  0  0  0  0  0  0  0  0  0  0  0
  -23.1670  -12.6210   22.3690 H   0  0  0  0  0  0  0  0  0  0  0  0
  -21.9240  -13.8290   22.2290 H   0  0  0  0  0  0  0  0  0  0  0  0
  -26.2770  -15.7050   20.2800 N   0  0  0  0  0  0  0  0  0  0  0  0
  -25.5540  -16.3960   20.4480 H   0  0  0  0  0  0  0  0  0  0  0  0
  -27.1420  -16.1110   19.9510 H   0  0  0  0  0  0  0  0  0  0  0  0
  -29.6170  -24.0880   20.4950 C   0  0  0  0  0  3  0  0  0  0  0  0
  -28.5130  -25.1660   20.0440 C   0  0  0  0  0  3  0  0  0  0  0  0
  -28.6580  -26.6270   20.3420 O   0  0  0  0  0  0  0  0  0  0  0  0
  -24.5510  -31.8320   23.2580 C   0  0  0  0  0  0  0  0  0  0  0  0
  -27.5140  -27.4500   20.2380 C   0  0  0  0  0  0  0  0  0  0  0  0
  -23.4900  -30.4070   21.5470 C   0  0  0  0  0  3  0  0  0  0  0  0
  -25.0740  -28.9640   20.1510 C   0  0  0  0  0  0  0  0  0  0  0  0
  -26.0190  -30.8520   21.4730 C   0  0  0  0  0  2  0  0  0  0  0  0
  -26.1970  -29.4930   20.8040 C   0  0  0  0  0  0  0  0  0  0  0  0
  -27.4200  -28.7500   20.8360 C   0  0  0  0  0  3  0  0  0  0  0  0
  -26.3650  -26.9860   19.5560 C   0  0  0  0  0  3  0  0  0  0  0  0
  -25.1640  -27.7170   19.5160 C   0  0  0  0  0  3  0  0  0  0  0  0
  -23.7930  -29.7730   20.1660 C   0  0  0  0  0  2  0  0  0  0  0  0
  -24.7040  -31.0480   22.1500 N   0  0  0  0  0  0  0  0  0  0  0  0
  -23.4340  -32.0420   23.7520 O   0  0  0  0  0  0  0  0  0  0  0  0
  -22.8440  -29.3390   22.4600 C   0  0  0  0  0  0  0  0  0  0  0  0
  -21.5340  -29.0930   22.2740 N   0  0  0  0  0  0  0  0  0  0  0  0
  -23.5200  -28.7350   23.2960 O   0  0  0  0  0  0  0  0  0  0  0  0
  -21.0460  -29.6330   21.5740 H   0  0  0  0  0  0  0  0  0  0  0  0
  -18.1960  -27.7480   22.6560 C   0  0  0  0  0  0  0  0  0  0  0  0
  -20.7360  -28.0970   22.9930 C   0  0  0  0  0  3  0  0  0  0  0  0
  -20.9070  -26.6910   22.3710 C   0  0  0  0  0  2  0  0  0  0  0  0
  -19.8420  -26.3630   21.3200 C   0  0  0  0  0  2  0  0  0  0  0  0
  -18.4420  -26.4320   21.9350 C   0  0  0  0  0  2  0  0  0  0  0  0
  -19.2750  -28.5370   23.1350 C   0  0  0  0  0  0  0  0  0  0  0  0
  -18.9920  -29.7690   23.7670 C   0  0  0  0  0  3  0  0  0  0  0  0
  -17.6650  -30.2160   23.9140 C   0  0  0  0  0  3  0  0  0  0  0  0
  -16.6010  -29.4220   23.4500 C   0  0  0  0  0  3  0  0  0  0  0  0
  -16.8670  -28.1880   22.8290 C   0  0  0  0  0  3  0  0  0  0  0  0
  -25.7740  -32.5160   23.9450 C   0  0  0  0  0  3  0  0  0  0  0  0
  -26.2350  -31.7840   25.2650 C   0  0  1  0  0  0  0  0  0  0  0  0
  -25.0810  -31.4990   26.2540 C   0  0  0  0  0  1  0  0  0  0  0  0
  -26.9150  -30.4340   24.9350 C   0  0  0  0  0  1  0  0  0  0  0  0
  -27.2980  -32.6430   25.9940 C   0  0  0  0  0  1  0  0  0  0  0  0
  -25.3960  -33.9080   24.2320 N   0  0  0  0  0  0  0  0  0  0  0  0
  -25.7150  -34.9570   23.4620 C   0  0  0  0  0  0  0  0  0  0  0  0
  -26.4240  -34.8580   22.4580 O   0  0  0  0  0  0  0  0  0  0  0  0
  -24.7590  -34.0540   25.0010 H   0  0  0  0  0  0  0  0  0  0  0  0
  -23.9230  -36.6700   23.0220 C   0  0  0  0  0  1  0  0  0  0  0  0
  -25.1590  -36.3350   23.8730 C   0  0  0  0  0  3  0  0  0  0  0  0
  -27.2320  -37.3320   24.7370 C   0  0  0  0  0  1  0  0  0  0  0  0
  -26.1520  -37.4250   23.7580 N   0  0  0  0  0  0  0  0  0  0  0  0
  -25.7050  -38.3330   23.8620 H   0  0  0  0  0  0  0  0  0  0  0  0
  1  3  1  0
  1  8  1  0
  2  9  2  0
  2  1  1  0
  4  5  1  0
  5 10  1  0
  5  2  1  0
  6  7  1  0
  6 49  1  0
  6  3  1  0
  7  4  1  0
  7  8  1  0
 10 19  1  0
 11 17  1  0
 11 19  1  0
 12 17  1  0
 13 14  1  0
 13 12  1  0
 15 14  1  0
 15 24  1  0
 15 16  1  0
 17 16  1  0
 18 11  2  0
 19 20  1  0
 21 22  2  0
 22 41  1  0
 23 22  1  0
 23 26  1  0
 24 25  1  0
 24 21  1  0
 25 23  2  0
 26 27  1  0
 27 28  2  0
 29 32  1  0
 29 28  1  0
 30 29  2  0
 31 30  1  0
 31 26  2  0
 32 33  1  0
 33 38  2  0
 33 34  1  0
 34 35  2  0
 35 36  1  0
 36 40  1  0
 37 36  2  0
 38 37  1  0
 39 38  1  0
 41 42  1  0
 42 45  1  0
 42 44  1  0
 43 41  2  0
 46 21  1  0
 46 47  1  0
 48 46  1  0
 50 51  1  0
 50 49  2  0
 52 63  2  0
 53 51  1  0
 53 58  1  0
 54 62  1  0
 54 64  1  0
 55 61  1  0
 55 57  1  0
 56 62  1  0
 57 58  2  0
 57 56  1  0
 59 53  2  0
 60 59  1  0
 60 55  2  0
 61 54  1  0
 62 52  1  0
 64 66  2  0
 65 64  1  0
 67 65  1  0
 68 77  2  0
 68 73  1  0
 69 65  1  0
 69 73  1  0
 70 69  1  0
 71 72  1  0
 71 70  1  0
 72 68  1  0
 73 74  2  0
 74 75  1  0
 76 75  2  0
 77 76  1  0
 78 52  1  0
 78 83  1  0
 78 79  1  0
 79 82  1  1
 79 80  1  0
 81 79  1  0
 83 86  1  0
 84 88  1  0
 84 83  1  0
 85 84  2  0
 88 87  1  0
 90 91  1  0
 90 88  1  0
 90 89  1  0
M  ISO  4  11 100  19 100  50 101  51 101
M  END
>  <TORSDO>  (68) 
F 19

>  <SCORE>  (68) 
-13.082

>  <name>  (68) 
67

>  <ligand_id>  (68) 
67

>  <original_smiles>  (68) 
[H]c1c([H])c([H])c2c(c1[H])C([H])([H])C([H])([H])C([H])([H])C2([H])N([H])C(=O)C1([H])N(C(=O)C([H])(N([H])C(=O)C([H])(N([H])C([H])([H])[H])C([H])([H])[H])C(C([H])([H])[H])(C([H])([H])[H])C([H])([H])[H])C([H])([H])c2c([H])c(OC([H])([H])C([H])([H])C3([H])C([H])([H])C4=NC3([H])C([H])([H])C([H])(C([H])([H])N([H])C(=O)N3C([H])([H])C([H])([H])C([H])([H])C([H])(n5nc(-c6c([H])c([H])c(Oc7c([H])c([H])c(F)c([H])c7F)c([H])c6[H])c(C(=O)N([H])[H])c5N([H])[H])C3([H])[H])C4=O)c([H])c([H])c2C1([H])[H]

>  <smiles>  (68) 
[H]c1c([H])c([H])c2c(c1[H])C([H])([H])C([H])([H])C([H])([H])C2([H])N([H])C(=O)C1([H])N(C(=O)C([H])(N([H])C(=O)C([H])(N([H])C([H])([H])[H])C([H])([H])[H])C(C([H])([H])[H])(C([H])([H])[H])C([H])([H])[H])C([H])([H])c2c([H])c(OC([H])([H])C([H])([H])C3([H])C([H])([H])C4=NC3([H])C([H])([H])C([H])(C([H])([H])N([H])C(=O)N3C([H])([H])C([H])([H])C([H])([H])C([H])(n5nc(-c6c([H])c([H])c(Oc7c([H])c([H])c(F)c([H])c7F)c([H])c6[H])c(C(=O)N([H])[H])c5N([H])[H])C3([H])[H])C4=O)c([H])c([H])c2C1([H])[H]

$$$$
68:0:0
     RDKit          3D

 91100  0  0  1  0  0  0  0  0999 V2000
  -28.6850  -21.8210   19.5780 N   0  0  0  0  0  4  0  0  0  0  0  0
  -27.8660  -21.6580   20.1410 H   0  0  0  0  0  0  0  0  0  0  0  0
  -28.3470  -21.8440   18.6280 H   0  0  0  0  0  0  0  0  0  0  0  0
  -30.8290  -15.2340   19.7280 C   0  0  0  0  0  0  0  0  0  0  0  0
  -30.6410  -12.8430   18.8690 C   0  0  0  0  0  2  0  0  0  0  0  0
  -29.6190  -12.7150   17.7180 C   0  0  0  0  0  2  0  0  0  0  0  0
  -28.2090  -12.4760   18.2830 C   0  0  0  0  0  2  0  0  0  0  0  0
  -27.8720  -13.4350   19.4540 C   0  0  0  0  0  3  0  0  0  0  0  0
  -29.0140  -13.5430   20.4880 C   0  0  0  0  0  2  0  0  0  0  0  0
  -30.2070  -13.9750   19.7510 N   0  0  0  0  0  0  0  0  0  0  0  0
  -31.9970  -15.2320   19.3210 O   0  0  0  0  0  0  0  0  0  0  0  0
  -28.7520  -19.5240   21.7200 C   0  0  0  0  0  2  0  0  0  0  0  0
  -27.9900  -18.8130   20.5910 C   0  0  0  0  0  2  0  0  0  0  0  0
  -31.1360  -18.8430   21.0340 C   0  0  0  0  0  2  0  0  0  0  0  0
  -30.7640  -17.2840   21.1710 C   0  0  0  0  0  2  0  0  0  0  0  0
  -29.7460  -17.5970   18.9980 C   0  0  0  0  0  2  0  0  0  0  0  0
  -30.0460  -20.0110   21.0510 C   0  0  0  0  0  3  0  0  0  0  0  0
  -28.8760  -19.0010   19.3410 C   0  0  0  0  0  3  0  0  0  0  0  0
  -29.5690  -20.4690   19.6380 C   0  0  0  0  0  3  0  0  0  0  0  0
  -30.1860  -16.5040   20.0230 N   0  0  0  0  0  0  0  0  0  0  0  0
  -25.6090  -13.9810   20.5020 C   0  0  0  0  0  0  0  0  0  0  0  0
  -24.5650  -13.1980   20.9050 C   0  0  0  0  0  0  0  0  0  0  0  0
  -24.9820  -11.8450   20.7010 C   0  0  0  0  0  0  0  0  0  0  0  0
  -26.5930  -13.1110   20.0700 N   0  0  0  0  0  0  0  0  0  0  0  0
  -26.2340  -11.8140   20.2560 N   0  0  0  0  0  0  0  0  0  0  0  0
  -24.2370  -10.5880   20.8470 C   0  0  0  0  0  0  0  0  0  0  0  0
  -24.6390   -9.5930   21.7670 C   0  0  0  0  0  3  0  0  0  0  0  0
  -23.8930   -8.4020   21.9050 C   0  0  0  0  0  3  0  0  0  0  0  0
  -22.7320   -8.1970   21.1220 C   0  0  0  0  0  0  0  0  0  0  0  0
  -22.3490   -9.1790   20.1920 C   0  0  0  0  0  3  0  0  0  0  0  0
  -23.0950  -10.3610   20.0520 C   0  0  0  0  0  3  0  0  0  0  0  0
  -21.9610   -7.0600   21.1700 O   0  0  0  0  0  0  0  0  0  0  0  0
  -21.7440   -6.3870   22.3450 C   0  0  0  0  0  0  0  0  0  0  0  0
  -21.1210   -7.0020   23.4510 C   0  0  0  0  0  3  0  0  0  0  0  0
  -20.8540   -6.2550   24.6140 C   0  0  0  0  0  3  0  0  0  0  0  0
  -21.2020   -4.8910   24.6700 C   0  0  0  0  0  0  0  0  0  0  0  0
  -21.8180   -4.2750   23.5660 C   0  0  0  0  0  3  0  0  0  0  0  0
  -22.0850   -5.0210   22.4060 C   0  0  0  0  0  0  0  0  0  0  0  0
  -22.6590   -4.4180   21.3370 F   0  0  0  0  0  0  0  0  0  0  0  0
  -20.9390   -4.1690   25.7840 F   0  0  0  0  0  0  0  0  0  0  0  0
  -23.2180  -13.6780   21.3590 C   0  0  0  0  0  0  0  0  0  0  0  0
  -22.5720  -12.9320   22.2480 N   0  0  0  0  0  0  0  0  0  0  0  0
  -22.7520  -14.7470   20.9650 O   0  0  0  0  0  0  0  0  0  0  0  0
  -22.9640  -12.0660   22.5860 H   0  0  0  0  0  0  0  0  0  0  0  0
  -21.6720  -13.2300   22.5980 H   0  0  0  0  0  0  0  0  0  0  0  0
  -25.7970  -15.3600   20.4410 N   0  0  0  0  0  0  0  0  0  0  0  0
  -25.0730  -16.0150   20.7210 H   0  0  0  0  0  0  0  0  0  0  0  0
  -26.6300  -15.8130   20.0880 H   0  0  0  0  0  0  0  0  0  0  0  0
  -29.1340  -23.3370   19.8700 C   0  0  0  0  0  3  0  0  0  0  0  0
  -28.1290  -24.7040   19.6060 C   0  0  0  0  0  3  0  0  0  0  0  0
  -28.3400  -26.2340   19.9580 O   0  0  0  0  0  0  0  0  0  0  0  0
  -24.5780  -31.7560   23.1720 C   0  0  0  0  0  0  0  0  0  0  0  0
  -27.2710  -27.2200   19.9290 C   0  0  0  0  0  0  0  0  0  0  0  0
  -23.4160  -30.4150   21.4610 C   0  0  0  0  0  3  0  0  0  0  0  0
  -24.9070  -28.9360   19.9700 C   0  0  0  0  0  0  0  0  0  0  0  0
  -25.9650  -30.7380   21.3210 C   0  0  0  0  0  2  0  0  0  0  0  0
  -26.0750  -29.3740   20.6050 C   0  0  0  0  0  0  0  0  0  0  0  0
  -27.2540  -28.5300   20.5720 C   0  0  0  0  0  3  0  0  0  0  0  0
  -26.0730  -26.8990   19.2540 C   0  0  0  0  0  3  0  0  0  0  0  0
  -24.9200  -27.7140   19.2810 C   0  0  0  0  0  3  0  0  0  0  0  0
  -23.6620  -29.8060   20.0540 C   0  0  0  0  0  2  0  0  0  0  0  0
  -24.6730  -30.9890   22.0430 N   0  0  0  0  0  0  0  0  0  0  0  0
  -23.4840  -31.9930   23.7070 O   0  0  0  0  0  0  0  0  0  0  0  0
  -22.7560  -29.3500   22.3760 C   0  0  0  0  0  0  0  0  0  0  0  0
  -21.4360  -29.1400   22.2230 N   0  0  0  0  0  0  0  0  0  0  0  0
  -23.4350  -28.7140   23.1870 O   0  0  0  0  0  0  0  0  0  0  0  0
  -20.9430  -29.7090   21.5480 H   0  0  0  0  0  0  0  0  0  0  0  0
  -18.0880  -27.8170   22.6470 C   0  0  0  0  0  0  0  0  0  0  0  0
  -20.6360  -28.1450   22.9440 C   0  0  0  0  0  3  0  0  0  0  0  0
  -20.7850  -26.7450   22.3040 C   0  0  0  0  0  2  0  0  0  0  0  0
  -19.6990  -26.4370   21.2670 C   0  0  0  0  0  2  0  0  0  0  0  0
  -18.3090  -26.5090   21.9060 C   0  0  0  0  0  2  0  0  0  0  0  0
  -19.1810  -28.5930   23.1190 C   0  0  0  0  0  0  0  0  0  0  0  0
  -18.9200  -29.8170   23.7730 C   0  0  0  0  0  3  0  0  0  0  0  0
  -17.5980  -30.2680   23.9560 C   0  0  0  0  0  3  0  0  0  0  0  0
  -16.5210  -29.4920   23.4980 C   0  0  0  0  0  3  0  0  0  0  0  0
  -16.7650  -28.2670   22.8500 C   0  0  0  0  0  3  0  0  0  0  0  0
  -25.8420  -32.3900   23.8350 C   0  0  0  0  0  3  0  0  0  0  0  0
  -25.5210  -33.7880   24.1650 N   0  0  0  0  0  0  0  0  0  0  0  0
  -25.8260  -34.8450   23.4020 C   0  0  0  0  0  0  0  0  0  0  0  0
  -26.4780  -34.7470   22.3590 O   0  0  0  0  0  0  0  0  0  0  0  0
  -24.9500  -33.9380   24.9850 H   0  0  0  0  0  0  0  0  0  0  0  0
  -24.0640  -36.6160   23.0990 C   0  0  0  0  0  1  0  0  0  0  0  0
  -25.3370  -36.2320   23.8680 C   0  0  0  0  0  3  0  0  0  0  0  0
  -27.4770  -37.1650   24.6290 C   0  0  0  0  0  1  0  0  0  0  0  0
  -26.3510  -37.2980   23.7100 N   0  0  0  0  0  0  0  0  0  0  0  0
  -25.9360  -38.2160   23.8450 H   0  0  0  0  0  0  0  0  0  0  0  0
  -26.3150  -31.6170   25.1280 C   0  0  1  0  0  0  0  0  0  0  0  0
  -25.1850  -31.3820   26.1600 C   0  0  0  0  0  1  0  0  0  0  0  0
  -26.9100  -30.2380   24.7580 C   0  0  0  0  0  1  0  0  0  0  0  0
  -27.4490  -32.4100   25.8230 C   0  0  0  0  0  1  0  0  0  0  0  0
  1 49  1  0
  1  2  1  0
  3  1  1  0
  4 10  1  0
  4 20  1  0
  5 10  1  0
  6  7  1  0
  6  5  1  0
  8  7  1  0
  8 24  1  0
  8  9  1  0
 10  9  1  0
 11  4  2  0
 13 12  1  0
 14 15  1  0
 16 20  1  0
 17 14  1  0
 17 12  1  0
 18 16  1  0
 18 19  1  0
 18 13  1  0
 19  1  1  0
 19 17  1  0
 20 15  1  0
 21 22  2  0
 22 41  1  0
 23 26  1  0
 23 22  1  0
 24 25  1  0
 24 21  1  0
 25 23  2  0
 26 27  1  0
 27 28  2  0
 29 32  1  0
 29 28  1  0
 30 29  2  0
 31 30  1  0
 31 26  2  0
 32 33  1  0
 33 38  2  0
 33 34  1  0
 34 35  2  0
 35 36  1  0
 36 40  1  0
 37 36  2  0
 38 37  1  0
 39 38  1  0
 41 42  1  0
 42 44  1  0
 42 45  1  0
 43 41  2  0
 46 21  1  0
 46 47  1  0
 48 46  1  0
 50 49  2  0
 50 51  1  0
 52 63  2  0
 53 51  1  0
 53 58  1  0
 54 62  1  0
 54 64  1  0
 55 61  1  0
 55 57  1  0
 56 62  1  0
 57 56  1  0
 58 57  2  0
 59 60  1  0
 59 53  2  0
 60 55  2  0
 61 54  1  0
 62 52  1  0
 64 66  2  0
 65 64  1  0
 67 65  1  0
 68 77  2  0
 68 73  1  0
 69 65  1  0
 69 73  1  0
 70 69  1  0
 71 72  1  0
 71 70  1  0
 72 68  1  0
 73 74  2  0
 74 75  1  0
 76 75  2  0
 77 76  1  0
 78 52  1  0
 78 79  1  0
 78 88  1  0
 79 82  1  0
 80 84  1  0
 80 79  1  0
 81 80  2  0
 84 83  1  0
 86 87  1  0
 86 84  1  0
 86 85  1  0
 88 91  1  1
 88 89  1  0
 90 88  1  0
M  ISO  4   4 100  20 100  50 101  51 101
M  END
>  <TORSDO>  (69) 
F 18

>  <SCORE>  (69) 
-13.272

>  <name>  (69) 
68

>  <ligand_id>  (69) 
68

>  <original_smiles>  (69) 
[H]c1c([H])c([H])c2c(c1[H])C([H])([H])C([H])([H])C([H])([H])C2([H])N([H])C(=O)C1([H])N(C(=O)C([H])(N([H])C(=O)C([H])(N([H])C([H])([H])[H])C([H])([H])[H])C(C([H])([H])[H])(C([H])([H])[H])C([H])([H])[H])C([H])([H])c2c([H])c(OC([H])([H])C([H])([H])[N+]([H])([H])C3([H])C4([H])C([H])([H])N(C(=O)N5C([H])([H])C([H])([H])C([H])([H])C([H])(n6nc(-c7c([H])c([H])c(Oc8c([H])c([H])c(F)c([H])c8F)c([H])c7[H])c(C(=O)N([H])[H])c6N([H])[H])C5([H])[H])C([H])([H])C([H])([H])C3([H])C([H])([H])C4([H])[H])c([H])c([H])c2C1([H])[H]

>  <smiles>  (69) 
[H]c1c([H])c([H])c2c(c1[H])C([H])([H])C([H])([H])C([H])([H])C2([H])N([H])C(=O)C1([H])N(C(=O)C([H])(N([H])C(=O)C([H])(N([H])C([H])([H])[H])C([H])([H])[H])C(C([H])([H])[H])(C([H])([H])[H])C([H])([H])[H])C([H])([H])c2c([H])c(OC([H])([H])C([H])([H])[N+]([H])([H])C3([H])C4([H])C([H])([H])N(C(=O)N5C([H])([H])C([H])([H])C([H])([H])C([H])(n6nc(-c7c([H])c([H])c(Oc8c([H])c([H])c(F)c([H])c8F)c([H])c7[H])c(C(=O)N([H])[H])c6N([H])[H])C5([H])[H])C([H])([H])C([H])([H])C3([H])C([H])([H])C4([H])[H])c([H])c([H])c2C1([H])[H]

$$$$
69:0:0
     RDKit          3D

 94102  0  0  1  0  0  0  0  0999 V2000
  -29.3090  -19.9980   21.1720 C   0  0  0  0  0  0  0  0  0  0  0  0
  -28.5720  -20.7610   20.3550 N   0  0  0  0  0  0  0  0  0  0  0  0
  -29.8870  -20.4570   22.1630 O   0  0  0  0  0  0  0  0  0  0  0  0
  -28.1780  -20.3120   19.5370 H   0  0  0  0  0  0  0  0  0  0  0  0
  -30.4950  -17.9620   20.0950 C   0  0  0  0  0  2  0  0  0  0  0  0
  -30.5860  -16.9510   22.3120 C   0  0  0  0  0  2  0  0  0  0  0  0
  -29.3070  -18.4770   20.9400 C   0  0  0  0  0  3  0  0  0  0  0  0
  -31.1530  -16.8150   20.8810 C   0  0  0  0  0  3  0  0  0  0  0  0
  -29.4410  -17.8810   22.2770 N   0  0  0  0  0  4  0  0  0  0  0  0
  -29.5740  -18.6560   22.9110 H   0  0  0  0  0  0  0  0  0  0  0  0
  -28.5780  -17.4210   22.5180 H   0  0  0  0  0  0  0  0  0  0  0  0
  -31.5480  -14.5540   19.6540 C   0  0  0  0  0  0  0  0  0  0  0  0
  -31.2100  -12.3200   18.6040 C   0  0  0  0  0  2  0  0  0  0  0  0
  -30.1760  -12.4070   17.4600 C   0  0  0  0  0  2  0  0  0  0  0  0
  -28.7220  -12.3760   17.9810 C   0  0  0  0  0  2  0  0  0  0  0  0
  -28.4990  -13.3450   19.1690 C   0  0  0  0  0  3  0  0  0  0  0  0
  -29.5870  -13.0990   20.2300 C   0  0  0  0  0  2  0  0  0  0  0  0
  -30.8910  -13.3640   19.5900 N   0  0  0  0  0  0  0  0  0  0  0  0
  -32.6090  -14.7820   19.0620 O   0  0  0  0  0  0  0  0  0  0  0  0
  -30.8670  -15.4620   20.3880 N   0  0  0  0  0  0  0  0  0  0  0  0
  -30.0180  -15.0690   20.7630 H   0  0  0  0  0  0  0  0  0  0  0  0
  -26.2120  -14.1810   20.0030 C   0  0  0  0  0  0  0  0  0  0  0  0
  -25.1160  -13.5110   20.4770 C   0  0  0  0  0  0  0  0  0  0  0  0
  -25.4650  -12.1260   20.4600 C   0  0  0  0  0  0  0  0  0  0  0  0
  -27.1630  -13.2070   19.7350 N   0  0  0  0  0  0  0  0  0  0  0  0
  -26.7200  -11.9700   20.0650 N   0  0  0  0  0  0  0  0  0  0  0  0
  -24.6580  -10.9320   20.7380 C   0  0  0  0  0  0  0  0  0  0  0  0
  -25.0210  -10.0190   21.7520 C   0  0  0  0  0  3  0  0  0  0  0  0
  -24.2210   -8.8870   22.0110 C   0  0  0  0  0  3  0  0  0  0  0  0
  -23.0460   -8.6610   21.2550 C   0  0  0  0  0  0  0  0  0  0  0  0
  -22.7040   -9.5590   20.2270 C   0  0  0  0  0  3  0  0  0  0  0  0
  -23.5060  -10.6830   19.9670 C   0  0  0  0  0  3  0  0  0  0  0  0
  -22.2220   -7.5750   21.4180 O   0  0  0  0  0  0  0  0  0  0  0  0
  -22.0160   -7.0060   22.6500 C   0  0  0  0  0  0  0  0  0  0  0  0
  -21.5200   -7.7520   23.7410 C   0  0  0  0  0  3  0  0  0  0  0  0
  -21.2600   -7.1130   24.9710 C   0  0  0  0  0  3  0  0  0  0  0  0
  -21.4840   -5.7290   25.1060 C   0  0  0  0  0  0  0  0  0  0  0  0
  -21.9710   -4.9840   24.0180 C   0  0  0  0  0  3  0  0  0  0  0  0
  -22.2340   -5.6210   22.7930 C   0  0  0  0  0  0  0  0  0  0  0  0
  -22.6840   -4.8940   21.7410 F   0  0  0  0  0  0  0  0  0  0  0  0
  -21.2260   -5.1140   26.2820 F   0  0  0  0  0  0  0  0  0  0  0  0
  -23.7850  -14.1040   20.8320 C   0  0  0  0  0  0  0  0  0  0  0  0
  -23.0890  -13.5110   21.7960 N   0  0  0  0  0  0  0  0  0  0  0  0
  -23.3770  -15.1330   20.2920 O   0  0  0  0  0  0  0  0  0  0  0  0
  -23.4310  -12.6750   22.2490 H   0  0  0  0  0  0  0  0  0  0  0  0
  -22.2040  -13.8940   22.0960 H   0  0  0  0  0  0  0  0  0  0  0  0
  -26.4710  -15.5280   19.7520 N   0  0  0  0  0  0  0  0  0  0  0  0
  -25.6770  -16.1570   19.6930 H   0  0  0  0  0  0  0  0  0  0  0  0
  -27.2040  -15.7830   19.1050 H   0  0  0  0  0  0  0  0  0  0  0  0
  -28.0000  -22.0590   20.7170 C   0  0  0  0  0  2  0  0  0  0  0  0
  -28.9170  -23.2810   20.5230 C   0  0  0  0  0  2  0  0  0  0  0  0
  -28.0640  -24.5610   20.4150 C   0  0  0  0  0  2  0  0  0  0  0  0
  -28.8580  -25.8780   20.4260 C   0  0  0  0  0  2  0  0  0  0  0  0
  -28.4200  -26.7500   19.3890 O   0  0  0  0  0  0  0  0  0  0  0  0
  -24.7480  -31.6240   23.0800 C   0  0  0  0  0  0  0  0  0  0  0  0
  -27.2430  -27.4200   19.6010 C   0  0  0  0  0  0  0  0  0  0  0  0
  -23.4610  -30.3230   21.4160 C   0  0  0  0  0  3  0  0  0  0  0  0
  -24.8430  -28.8790   19.8370 C   0  0  0  0  0  0  0  0  0  0  0  0
  -25.9670  -30.7050   21.1150 C   0  0  0  0  0  2  0  0  0  0  0  0
  -26.0240  -29.3730   20.4020 C   0  0  0  0  0  0  0  0  0  0  0  0
  -27.2280  -28.6480   20.2940 C   0  0  0  0  0  3  0  0  0  0  0  0
  -26.0520  -26.9340   19.0250 C   0  0  0  0  0  3  0  0  0  0  0  0
  -24.8480  -27.6510   19.1510 C   0  0  0  0  0  3  0  0  0  0  0  0
  -23.6010  -29.7260   19.9920 C   0  0  0  0  0  2  0  0  0  0  0  0
  -24.7480  -30.8960   21.9290 N   0  0  0  0  0  0  0  0  0  0  0  0
  -23.6990  -31.8610   23.6910 O   0  0  0  0  0  0  0  0  0  0  0  0
  -22.8570  -29.2460   22.3420 C   0  0  0  0  0  0  0  0  0  0  0  0
  -21.5340  -29.0390   22.2340 N   0  0  0  0  0  0  0  0  0  0  0  0
  -23.5730  -28.5950   23.1090 O   0  0  0  0  0  0  0  0  0  0  0  0
  -21.0160  -29.6230   21.5920 H   0  0  0  0  0  0  0  0  0  0  0  0
  -18.2090  -27.7020   22.7010 C   0  0  0  0  0  0  0  0  0  0  0  0
  -20.7550  -28.0450   22.9670 C   0  0  0  0  0  3  0  0  0  0  0  0
  -20.9140  -26.6420   22.3390 C   0  0  0  0  0  2  0  0  0  0  0  0
  -19.8120  -26.2920   21.3350 C   0  0  0  0  0  2  0  0  0  0  0  0
  -18.4310  -26.3740   21.9960 C   0  0  0  0  0  2  0  0  0  0  0  0
  -19.3010  -28.4930   23.1450 C   0  0  0  0  0  0  0  0  0  0  0  0
  -19.0400  -29.7300   23.7700 C   0  0  0  0  0  3  0  0  0  0  0  0
  -17.7200  -30.1820   23.9530 C   0  0  0  0  0  3  0  0  0  0  0  0
  -16.6420  -29.3880   23.5260 C   0  0  0  0  0  3  0  0  0  0  0  0
  -16.8860  -28.1500   22.9060 C   0  0  0  0  0  3  0  0  0  0  0  0
  -26.0670  -32.2110   23.6760 C   0  0  0  0  0  3  0  0  0  0  0  0
  -25.7830  -33.5880   24.1030 N   0  0  0  0  0  0  0  0  0  0  0  0
  -26.0960  -34.6830   23.3940 C   0  0  0  0  0  0  0  0  0  0  0  0
  -26.7270  -34.6390   22.3340 O   0  0  0  0  0  0  0  0  0  0  0  0
  -25.2210  -33.6960   24.9330 H   0  0  0  0  0  0  0  0  0  0  0  0
  -24.3590  -36.4910   23.2190 C   0  0  0  0  0  1  0  0  0  0  0  0
  -25.6330  -36.0420   23.9490 C   0  0  0  0  0  3  0  0  0  0  0  0
  -27.8070  -36.8750   24.7310 C   0  0  0  0  0  1  0  0  0  0  0  0
  -26.6640  -37.0980   23.8480 N   0  0  0  0  0  0  0  0  0  0  0  0
  -26.2690  -38.0100   24.0670 H   0  0  0  0  0  0  0  0  0  0  0  0
  -26.6460  -31.3610   24.8730 C   0  0  1  0  0  0  0  0  0  0  0  0
  -25.6030  -31.0460   25.9690 C   0  0  0  0  0  1  0  0  0  0  0  0
  -27.2170  -30.0180   24.3590 C   0  0  0  0  0  1  0  0  0  0  0  0
  -27.8250  -32.1170   25.5330 C   0  0  0  0  0  1  0  0  0  0  0  0
  1  3  2  0
  2 50  1  0
  2  1  1  0
  4  2  1  0
  5  8  1  0
  5  7  1  0
  7  1  1  0
  7  9  1  0
  8 20  1  0
  8  6  1  0
  9  6  1  0
  9 11  1  0
  9 10  1  0
 12 20  1  0
 13 18  1  0
 14 15  1  0
 14 13  1  0
 16 15  1  0
 16 25  1  0
 16 17  1  0
 18 12  1  0
 18 17  1  0
 19 12  2  0
 20 21  1  0
 22 23  2  0
 23 42  1  0
 24 23  1  0
 24 27  1  0
 25 22  1  0
 25 26  1  0
 26 24  2  0
 27 28  1  0
 28 29  2  0
 30 33  1  0
 30 29  1  0
 31 30  2  0
 32 31  1  0
 32 27  2  0
 33 34  1  0
 34 39  2  0
 34 35  1  0
 35 36  2  0
 36 37  1  0
 37 41  1  0
 38 37  2  0
 39 38  1  0
 40 39  1  0
 42 43  1  0
 43 46  1  0
 43 45  1  0
 44 42  2  0
 47 22  1  0
 48 47  1  0
 49 47  1  0
 51 50  1  0
 52 53  1  0
 52 51  1  0
 54 56  1  0
 54 53  1  0
 55 66  2  0
 56 61  1  0
 57 65  1  0
 57 67  1  0
 58 64  1  0
 58 60  1  0
 59 65  1  0
 60 59  1  0
 61 60  2  0
 62 63  1  0
 62 56  2  0
 63 58  2  0
 64 57  1  0
 65 55  1  0
 67 69  2  0
 68 67  1  0
 70 68  1  0
 71 80  2  0
 71 76  1  0
 72 68  1  0
 72 76  1  0
 73 72  1  0
 74 75  1  0
 74 73  1  0
 75 71  1  0
 76 77  2  0
 77 78  1  0
 79 78  2  0
 80 79  1  0
 81 55  1  0
 81 82  1  0
 81 91  1  0
 82 85  1  0
 83 87  1  0
 83 82  1  0
 84 83  2  0
 87 86  1  0
 89 87  1  0
 89 90  1  0
 89 88  1  0
 91 94  1  1
 91 92  1  0
 93 91  1  0
M  ISO  4  12 100  20 100  53 101  54 101
M  END
>  <TORSDO>  (70) 
F 21

>  <SCORE>  (70) 
-10.444

>  <name>  (70) 
69

>  <ligand_id>  (70) 
69

>  <original_smiles>  (70) 
[H]c1c([H])c([H])c2c(c1[H])C([H])([H])C([H])([H])C([H])([H])C2([H])N([H])C(=O)C1([H])N(C(=O)C([H])(N([H])C(=O)C([H])(N([H])C([H])([H])[H])C([H])([H])[H])C(C([H])([H])[H])(C([H])([H])[H])C([H])([H])[H])C([H])([H])c2c([H])c(OC([H])([H])C([H])([H])C([H])([H])C([H])([H])N([H])C(=O)C3([H])C([H])([H])C([H])(N([H])C(=O)N4C([H])([H])C([H])([H])C([H])([H])C([H])(n5nc(-c6c([H])c([H])c(Oc7c([H])c([H])c(F)c([H])c7F)c([H])c6[H])c(C(=O)N([H])[H])c5N([H])[H])C4([H])[H])C([H])([H])[N+]3([H])[H])c([H])c([H])c2C1([H])[H]

>  <smiles>  (70) 
[H]c1c([H])c([H])c2c(c1[H])C([H])([H])C([H])([H])C([H])([H])C2([H])N([H])C(=O)C1([H])N(C(=O)C([H])(N([H])C(=O)C([H])(N([H])C([H])([H])[H])C([H])([H])[H])C(C([H])([H])[H])(C([H])([H])[H])C([H])([H])[H])C([H])([H])c2c([H])c(OC([H])([H])C([H])([H])C([H])([H])C([H])([H])N([H])C(=O)C3([H])C([H])([H])C([H])(N([H])C(=O)N4C([H])([H])C([H])([H])C([H])([H])C([H])(n5nc(-c6c([H])c([H])c(Oc7c([H])c([H])c(F)c([H])c7F)c([H])c6[H])c(C(=O)N([H])[H])c5N([H])[H])C4([H])[H])C([H])([H])[N+]3([H])[H])c([H])c([H])c2C1([H])[H]

$$$$
70:0:0
     RDKit          3D

 95103  0  0  1  0  0  0  0  0999 V2000
  -27.7230  -21.0410   20.6890 C   0  0  0  0  0  3  0  0  0  0  0  0
  -29.9340  -19.7230   21.7610 C   0  0  0  0  0  2  0  0  0  0  0  0
  -28.7710  -21.9740   21.3040 C   0  0  0  0  0  3  0  0  0  0  0  0
  -30.1260  -21.2520   21.6270 C   0  0  0  0  0  3  0  0  0  0  0  0
  -29.1740  -19.1530   20.5460 C   0  0  0  0  0  3  0  0  0  0  0  0
  -27.8840  -19.8150   20.3680 N   0  0  0  0  0  0  0  0  0  0  0  0
  -28.9720  -23.1000   20.3550 N   0  0  0  0  0  4  0  0  0  0  0  0
  -28.6620  -22.7720   19.4520 H   0  0  0  0  0  0  0  0  0  0  0  0
  -29.9630  -23.2600   20.2840 H   0  0  0  0  0  0  0  0  0  0  0  0
  -28.2950  -24.3910   20.6780 C   0  0  0  0  0  2  0  0  0  0  0  0
  -28.4680  -25.4460   19.5570 C   0  0  0  0  0  2  0  0  0  0  0  0
  -28.3170  -26.7630   20.0910 O   0  0  0  0  0  0  0  0  0  0  0  0
  -24.5970  -31.8210   23.3890 C   0  0  0  0  0  0  0  0  0  0  0  0
  -27.1030  -27.4230   20.1320 C   0  0  0  0  0  0  0  0  0  0  0  0
  -23.3380  -30.5230   21.6990 C   0  0  0  0  0  3  0  0  0  0  0  0
  -24.7370  -28.9790   20.2230 C   0  0  0  0  0  0  0  0  0  0  0  0
  -25.8710  -30.8110   21.4960 C   0  0  0  0  0  2  0  0  0  0  0  0
  -25.9100  -29.4560   20.8180 C   0  0  0  0  0  0  0  0  0  0  0  0
  -27.0900  -28.6860   20.7690 C   0  0  0  0  0  3  0  0  0  0  0  0
  -25.9030  -26.9420   19.5580 C   0  0  0  0  0  3  0  0  0  0  0  0
  -24.7250  -27.7200   19.5960 C   0  0  0  0  0  3  0  0  0  0  0  0
  -23.5190  -29.8760   20.2970 C   0  0  0  0  0  2  0  0  0  0  0  0
  -24.6230  -31.0630   22.2550 N   0  0  0  0  0  0  0  0  0  0  0  0
  -23.5270  -32.1060   23.9460 O   0  0  0  0  0  0  0  0  0  0  0  0
  -22.6540  -29.4940   22.6280 C   0  0  0  0  0  0  0  0  0  0  0  0
  -21.3290  -29.3410   22.4830 N   0  0  0  0  0  0  0  0  0  0  0  0
  -23.3160  -28.8310   23.4330 O   0  0  0  0  0  0  0  0  0  0  0  0
  -20.8560  -29.9240   21.8070 H   0  0  0  0  0  0  0  0  0  0  0  0
  -17.9280  -28.2060   22.9030 C   0  0  0  0  0  0  0  0  0  0  0  0
  -20.4860  -28.3980   23.2140 C   0  0  0  0  0  3  0  0  0  0  0  0
  -20.5650  -26.9810   22.6000 C   0  0  0  0  0  2  0  0  0  0  0  0
  -19.4710  -26.7120   21.5620 C   0  0  0  0  0  2  0  0  0  0  0  0
  -18.0840  -26.8710   22.1920 C   0  0  0  0  0  2  0  0  0  0  0  0
  -19.0570  -28.9300   23.3690 C   0  0  0  0  0  0  0  0  0  0  0  0
  -18.8580  -30.1840   23.9890 C   0  0  0  0  0  3  0  0  0  0  0  0
  -17.5620  -30.7090   24.1470 C   0  0  0  0  0  3  0  0  0  0  0  0
  -16.4470  -29.9810   23.6950 C   0  0  0  0  0  3  0  0  0  0  0  0
  -16.6310  -28.7300   23.0790 C   0  0  0  0  0  3  0  0  0  0  0  0
  -25.9030  -32.3840   24.0300 C   0  0  0  0  0  3  0  0  0  0  0  0
  -25.6600  -33.7920   24.3690 N   0  0  0  0  0  0  0  0  0  0  0  0
  -26.0640  -34.8320   23.6250 C   0  0  0  0  0  0  0  0  0  0  0  0
  -26.7440  -34.7040   22.6050 O   0  0  0  0  0  0  0  0  0  0  0  0
  -25.0670  -33.9720   25.1660 H   0  0  0  0  0  0  0  0  0  0  0  0
  -24.4270  -36.7050   23.2700 C   0  0  0  0  0  1  0  0  0  0  0  0
  -25.6400  -36.2390   24.0910 C   0  0  0  0  0  3  0  0  0  0  0  0
  -27.8040  -37.0160   24.9540 C   0  0  0  0  0  1  0  0  0  0  0  0
  -26.7240  -37.2410   23.9960 N   0  0  0  0  0  0  0  0  0  0  0  0
  -26.3610  -38.1800   24.1380 H   0  0  0  0  0  0  0  0  0  0  0  0
  -26.3720  -31.5750   25.3020 C   0  0  1  0  0  0  0  0  0  0  0  0
  -25.2590  -31.3710   26.3540 C   0  0  0  0  0  1  0  0  0  0  0  0
  -26.8960  -30.1810   24.8880 C   0  0  0  0  0  1  0  0  0  0  0  0
  -27.5480  -32.3090   25.9920 C   0  0  0  0  0  1  0  0  0  0  0  0
  -30.8830  -21.7480   22.8910 C   0  0  0  0  0  2  0  0  0  0  0  0
  -29.4260  -23.5360   24.0590 C   0  0  0  0  0  1  0  0  0  0  0  0
  -30.7300  -23.2260   23.3040 C   0  0  0  0  0  2  0  0  0  0  0  0
  -28.9140  -17.6280   20.6440 C   0  0  0  0  0  2  0  0  0  0  0  0
  -30.1710  -16.7370   20.5440 C   0  0  0  0  0  2  0  0  0  0  0  0
  -30.5170  -14.3240   20.0430 C   0  0  0  0  0  0  0  0  0  0  0  0
  -30.1860  -12.1570   18.9280 C   0  0  0  0  0  2  0  0  0  0  0  0
  -29.1440  -12.3250   17.8030 C   0  0  0  0  0  2  0  0  0  0  0  0
  -27.7110  -12.1630   18.3520 C   0  0  0  0  0  2  0  0  0  0  0  0
  -27.4550  -13.0070   19.6310 C   0  0  0  0  0  3  0  0  0  0  0  0
  -28.6000  -12.8070   20.6500 C   0  0  0  0  0  2  0  0  0  0  0  0
  -29.8680  -13.1330   19.9780 N   0  0  0  0  0  0  0  0  0  0  0  0
  -31.5950  -14.5430   19.4840 O   0  0  0  0  0  0  0  0  0  0  0  0
  -29.8230  -15.3150   20.6190 N   0  0  0  0  0  0  0  0  0  0  0  0
  -28.9310  -15.0680   21.0240 H   0  0  0  0  0  0  0  0  0  0  0  0
  -25.1180  -13.5730   20.5570 C   0  0  0  0  0  0  0  0  0  0  0  0
  -24.0890  -12.7790   20.9900 C   0  0  0  0  0  0  0  0  0  0  0  0
  -24.5560  -11.4340   20.8800 C   0  0  0  0  0  0  0  0  0  0  0  0
  -26.1470  -12.7100   20.2140 N   0  0  0  0  0  0  0  0  0  0  0  0
  -25.8160  -11.4160   20.4640 N   0  0  0  0  0  0  0  0  0  0  0  0
  -23.8590  -10.1600   21.0930 C   0  0  0  0  0  0  0  0  0  0  0  0
  -24.3460   -9.1970   22.0040 C   0  0  0  0  0  3  0  0  0  0  0  0
  -23.6510   -7.9860   22.2070 C   0  0  0  0  0  3  0  0  0  0  0  0
  -22.4530   -7.7280   21.4980 C   0  0  0  0  0  0  0  0  0  0  0  0
  -21.9860   -8.6790   20.5740 C   0  0  0  0  0  3  0  0  0  0  0  0
  -22.6810   -9.8820   20.3710 C   0  0  0  0  0  3  0  0  0  0  0  0
  -21.7250   -6.5690   21.6090 O   0  0  0  0  0  0  0  0  0  0  0  0
  -21.6890   -5.8510   22.7780 C   0  0  0  0  0  0  0  0  0  0  0  0
  -21.2110   -6.4130   23.9830 C   0  0  0  0  0  3  0  0  0  0  0  0
  -21.1250   -5.6190   25.1440 C   0  0  0  0  0  3  0  0  0  0  0  0
  -21.5090   -4.2650   25.1030 C   0  0  0  0  0  0  0  0  0  0  0  0
  -21.9810   -3.7030   23.9040 C   0  0  0  0  0  3  0  0  0  0  0  0
  -22.0690   -4.4960   22.7450 C   0  0  0  0  0  0  0  0  0  0  0  0
  -22.5040   -3.9430   21.5860 F   0  0  0  0  0  0  0  0  0  0  0  0
  -21.4210   -3.5000   26.2160 F   0  0  0  0  0  0  0  0  0  0  0  0
  -22.7160  -13.2340   21.3940 C   0  0  0  0  0  0  0  0  0  0  0  0
  -22.0720  -12.5060   22.3000 N   0  0  0  0  0  0  0  0  0  0  0  0
  -22.2220  -14.2650   20.9400 O   0  0  0  0  0  0  0  0  0  0  0  0
  -22.4870  -11.6730   22.6930 H   0  0  0  0  0  0  0  0  0  0  0  0
  -21.1520  -12.7860   22.6090 H   0  0  0  0  0  0  0  0  0  0  0  0
  -25.2540  -14.9490   20.4060 N   0  0  0  0  0  0  0  0  0  0  0  0
  -24.4910  -15.5900   20.6050 H   0  0  0  0  0  0  0  0  0  0  0  0
  -26.0660  -15.4110   20.0140 H   0  0  0  0  0  0  0  0  0  0  0  0
  1  3  1  0
  3  7  1  0
  3  4  1  0
  4  2  1  0
  4 53  1  0
  5 56  1  0
  5  2  1  0
  6  5  1  0
  6  1  2  0
  7 10  1  0
  8  7  1  0
  9  7  1  0
 11 12  1  0
 11 10  1  0
 12 14  1  0
 13 24  2  0
 14 19  1  0
 15 23  1  0
 15 25  1  0
 16 22  1  0
 16 18  1  0
 17 23  1  0
 18 17  1  0
 19 18  2  0
 20 21  1  0
 20 14  2  0
 21 16  2  0
 22 15  1  0
 23 13  1  0
 25 27  2  0
 26 25  1  0
 28 26  1  0
 29 38  2  0
 29 34  1  0
 30 26  1  0
 30 34  1  0
 31 30  1  0
 32 33  1  0
 32 31  1  0
 33 29  1  0
 34 35  2  0
 35 36  1  0
 37 36  2  0
 38 37  1  0
 39 13  1  0
 39 40  1  0
 39 49  1  0
 40 43  1  0
 41 45  1  0
 41 40  1  0
 42 41  2  0
 45 44  1  0
 47 45  1  0
 47 48  1  0
 47 46  1  0
 49 52  1  1
 49 50  1  0
 51 49  1  0
 53 55  1  0
 55 54  1  0
 57 66  1  0
 57 56  1  0
 58 66  1  0
 59 64  1  0
 60 61  1  0
 60 59  1  0
 62 61  1  0
 62 71  1  0
 62 63  1  0
 64 58  1  0
 64 63  1  0
 65 58  2  0
 66 67  1  0
 68 69  2  0
 69 88  1  0
 70 69  1  0
 70 73  1  0
 71 72  1  0
 71 68  1  0
 72 70  2  0
 73 74  1  0
 74 75  2  0
 76 79  1  0
 76 75  1  0
 77 76  2  0
 78 77  1  0
 78 73  2  0
 79 80  1  0
 80 81  1  0
 81 82  2  0
 83 82  1  0
 83 87  1  0
 84 83  2  0
 85 80  2  0
 85 84  1  0
 86 85  1  0
 88 89  1  0
 89 92  1  0
 89 91  1  0
 90 88  2  0
 93 68  1  0
 93 94  1  0
 95 93  1  0
M  ISO  4  11 101  12 101  58 100  66 100
M  END
>  <TORSDO>  (71) 
F 23

>  <SCORE>  (71) 
-11.072

>  <name>  (71) 
70

>  <ligand_id>  (71) 
70

>  <original_smiles>  (71) 
[H]C1=NC([H])(C([H])([H])C([H])([H])N([H])C(=O)N2C([H])([H])C([H])([H])C([H])([H])C([H])(n3nc(-c4c([H])c([H])c(Oc5c([H])c([H])c(F)c([H])c5F)c([H])c4[H])c(C(=O)N([H])[H])c3N([H])[H])C2([H])[H])C([H])([H])C([H])(C([H])([H])C([H])([H])C([H])([H])[H])C1([H])[N+]([H])([H])C([H])([H])C([H])([H])Oc1c([H])c([H])c2c(c1[H])C([H])([H])N(C(=O)C([H])(N([H])C(=O)C([H])(N([H])C([H])([H])[H])C([H])([H])[H])C(C([H])([H])[H])(C([H])([H])[H])C([H])([H])[H])C([H])(C(=O)N([H])C1([H])c3c([H])c([H])c([H])c([H])c3C([H])([H])C([H])([H])C1([H])[H])C2([H])[H]

>  <smiles>  (71) 
[H]C1=NC([H])(C([H])([H])C([H])([H])N([H])C(=O)N2C([H])([H])C([H])([H])C([H])([H])C([H])(n3nc(-c4c([H])c([H])c(Oc5c([H])c([H])c(F)c([H])c5F)c([H])c4[H])c(C(=O)N([H])[H])c3N([H])[H])C2([H])[H])C([H])([H])C([H])(C([H])([H])C([H])([H])C([H])([H])[H])C1([H])[N+]([H])([H])C([H])([H])C([H])([H])Oc1c([H])c([H])c2c(c1[H])C([H])([H])N(C(=O)C([H])(N([H])C(=O)C([H])(N([H])C([H])([H])[H])C([H])([H])[H])C(C([H])([H])[H])(C([H])([H])[H])C([H])([H])[H])C([H])(C(=O)N([H])C1([H])c3c([H])c([H])c([H])c([H])c3C([H])([H])C([H])([H])C1([H])[H])C2([H])[H]

$$$$
71:0:0
     RDKit          3D

 89 97  0  0  1  0  0  0  0  0999 V2000
  -30.0580  -20.2040   20.1020 C   0  0  0  0  0  0  0  0  0  0  0  0
  -29.7670  -21.4910   19.7330 C   0  0  0  0  0  3  0  0  0  0  0  0
  -30.9380  -19.3010   19.2260 C   0  0  0  0  0  2  0  0  0  0  0  0
  -29.6670  -19.5280   21.4230 C   0  0  0  0  0  2  0  0  0  0  0  0
  -30.4720  -17.8200   19.1330 C   0  0  0  0  0  2  0  0  0  0  0  0
  -29.3160  -18.0040   21.3100 C   0  0  0  0  0  2  0  0  0  0  0  0
  -30.3500  -17.1490   20.5220 C   0  0  0  0  0  3  0  0  0  0  0  0
  -30.7410  -14.6380   20.0540 C   0  0  0  0  0  0  0  0  0  0  0  0
  -30.4310  -12.4630   18.9090 C   0  0  0  0  0  2  0  0  0  0  0  0
  -29.4200  -12.6600   17.7600 C   0  0  0  0  0  2  0  0  0  0  0  0
  -27.9730  -12.4950   18.2700 C   0  0  0  0  0  2  0  0  0  0  0  0
  -27.6960  -13.3070   19.5630 C   0  0  0  0  0  3  0  0  0  0  0  0
  -28.8170  -13.0970   20.6050 C   0  0  0  0  0  2  0  0  0  0  0  0
  -30.0930  -13.4400   19.9600 N   0  0  0  0  0  0  0  0  0  0  0  0
  -31.8830  -14.7990   19.6140 O   0  0  0  0  0  0  0  0  0  0  0  0
  -29.9910  -15.6970   20.4700 N   0  0  0  0  0  0  0  0  0  0  0  0
  -29.0570  -15.4600   20.7660 H   0  0  0  0  0  0  0  0  0  0  0  0
  -25.3460  -13.8830   20.4330 C   0  0  0  0  0  0  0  0  0  0  0  0
  -24.3000  -13.1000   20.8430 C   0  0  0  0  0  0  0  0  0  0  0  0
  -24.7620  -11.7500   20.7530 C   0  0  0  0  0  0  0  0  0  0  0  0
  -26.3750  -13.0120   20.1170 N   0  0  0  0  0  0  0  0  0  0  0  0
  -26.0320  -11.7230   20.3680 N   0  0  0  0  0  0  0  0  0  0  0  0
  -24.0470  -10.4830   20.9560 C   0  0  0  0  0  0  0  0  0  0  0  0
  -24.4990   -9.5210   21.8870 C   0  0  0  0  0  3  0  0  0  0  0  0
  -23.7870   -8.3160   22.0770 C   0  0  0  0  0  3  0  0  0  0  0  0
  -22.6080   -8.0660   21.3330 C   0  0  0  0  0  0  0  0  0  0  0  0
  -22.1750   -9.0160   20.3920 C   0  0  0  0  0  3  0  0  0  0  0  0
  -22.8890  -10.2110   20.2020 C   0  0  0  0  0  3  0  0  0  0  0  0
  -21.8660   -6.9130   21.4290 O   0  0  0  0  0  0  0  0  0  0  0  0
  -21.7990   -6.1990   22.6000 C   0  0  0  0  0  0  0  0  0  0  0  0
  -21.2920   -6.7660   23.7890 C   0  0  0  0  0  3  0  0  0  0  0  0
  -21.1740   -5.9760   24.9500 C   0  0  0  0  0  3  0  0  0  0  0  0
  -21.5490   -4.6180   24.9220 C   0  0  0  0  0  0  0  0  0  0  0  0
  -22.0490   -4.0520   23.7360 C   0  0  0  0  0  3  0  0  0  0  0  0
  -22.1690   -4.8390   22.5780 C   0  0  0  0  0  0  0  0  0  0  0  0
  -22.6310   -4.2840   21.4310 F   0  0  0  0  0  0  0  0  0  0  0  0
  -21.4280   -3.8580   26.0350 F   0  0  0  0  0  0  0  0  0  0  0  0
  -22.9200  -13.5680   21.2050 C   0  0  0  0  0  0  0  0  0  0  0  0
  -22.2390  -12.8480   22.0900 N   0  0  0  0  0  0  0  0  0  0  0  0
  -22.4560  -14.6070   20.7390 O   0  0  0  0  0  0  0  0  0  0  0  0
  -22.6310  -12.0100   22.4930 H   0  0  0  0  0  0  0  0  0  0  0  0
  -21.3160  -13.1440   22.3730 H   0  0  0  0  0  0  0  0  0  0  0  0
  -25.4960  -15.2600   20.2840 N   0  0  0  0  0  0  0  0  0  0  0  0
  -24.7290  -15.9040   20.4490 H   0  0  0  0  0  0  0  0  0  0  0  0
  -26.3130  -15.7130   19.8990 H   0  0  0  0  0  0  0  0  0  0  0  0
  -28.9580  -22.5930   20.4650 C   0  0  0  0  0  2  0  0  0  0  0  0
  -29.3140  -24.0970   20.1160 C   0  0  0  0  0  3  0  0  0  0  0  0
  -28.3120  -25.1770   20.6740 C   0  0  0  0  0  3  0  0  0  0  0  0
  -28.5120  -26.5870   20.3020 O   0  0  0  0  0  0  0  0  0  0  0  0
  -24.6730  -31.9050   23.2680 C   0  0  0  0  0  0  0  0  0  0  0  0
  -27.3730  -27.3940   20.2650 C   0  0  0  0  0  0  0  0  0  0  0  0
  -23.4990  -30.4870   21.6210 C   0  0  0  0  0  3  0  0  0  0  0  0
  -24.9830  -28.9480   20.2220 C   0  0  0  0  0  0  0  0  0  0  0  0
  -26.0330  -30.8400   21.4630 C   0  0  0  0  0  2  0  0  0  0  0  0
  -26.1350  -29.4620   20.8290 C   0  0  0  0  0  0  0  0  0  0  0  0
  -27.3360  -28.6960   20.8420 C   0  0  0  0  0  3  0  0  0  0  0  0
  -26.2020  -26.9300   19.6230 C   0  0  0  0  0  3  0  0  0  0  0  0
  -25.0160  -27.6860   19.6110 C   0  0  0  0  0  3  0  0  0  0  0  0
  -23.7350  -29.8050   20.2480 C   0  0  0  0  0  2  0  0  0  0  0  0
  -24.7520  -31.0970   22.1740 N   0  0  0  0  0  0  0  0  0  0  0  0
  -23.5810  -32.1760   23.7900 O   0  0  0  0  0  0  0  0  0  0  0  0
  -22.8380  -29.4680   22.5780 C   0  0  0  0  0  0  0  0  0  0  0  0
  -21.5140  -29.2880   22.4470 N   0  0  0  0  0  0  0  0  0  0  0  0
  -23.5160  -28.8430   23.3990 O   0  0  0  0  0  0  0  0  0  0  0  0
  -21.0260  -29.8440   21.7580 H   0  0  0  0  0  0  0  0  0  0  0  0
  -18.1330  -28.1090   22.9490 C   0  0  0  0  0  0  0  0  0  0  0  0
  -20.6930  -28.3500   23.2140 C   0  0  0  0  0  3  0  0  0  0  0  0
  -20.7830  -26.9220   22.6270 C   0  0  0  0  0  2  0  0  0  0  0  0
  -19.6760  -26.6120   21.6140 C   0  0  0  0  0  2  0  0  0  0  0  0
  -18.2980  -26.7620   22.2640 C   0  0  0  0  0  2  0  0  0  0  0  0
  -19.2580  -28.8610   23.3800 C   0  0  0  0  0  0  0  0  0  0  0  0
  -19.0490  -30.1220   23.9810 C   0  0  0  0  0  3  0  0  0  0  0  0
  -17.7480  -30.6310   24.1530 C   0  0  0  0  0  3  0  0  0  0  0  0
  -16.6370  -29.8760   23.7370 C   0  0  0  0  0  3  0  0  0  0  0  0
  -16.8310  -28.6170   23.1420 C   0  0  0  0  0  3  0  0  0  0  0  0
  -25.9430  -32.5520   23.9030 C   0  0  0  0  0  3  0  0  0  0  0  0
  -26.4430  -31.7980   25.1970 C   0  0  1  0  0  0  0  0  0  0  0  0
  -25.3330  -31.5660   26.2480 C   0  0  0  0  0  1  0  0  0  0  0  0
  -27.0420  -30.4190   24.8300 C   0  0  0  0  0  1  0  0  0  0  0  0
  -27.5750  -32.6090   25.8700 C   0  0  0  0  0  1  0  0  0  0  0  0
  -25.6220  -33.9520   24.2100 N   0  0  0  0  0  0  0  0  0  0  0  0
  -25.9570  -34.9960   23.4410 C   0  0  0  0  0  0  0  0  0  0  0  0
  -26.6400  -34.8820   22.4190 O   0  0  0  0  0  0  0  0  0  0  0  0
  -25.0160  -34.1140   25.0020 H   0  0  0  0  0  0  0  0  0  0  0  0
  -24.2330  -36.7800   23.0310 C   0  0  0  0  0  1  0  0  0  0  0  0
  -25.4560  -36.3870   23.8730 C   0  0  0  0  0  3  0  0  0  0  0  0
  -27.5670  -37.2910   24.7470 C   0  0  0  0  0  1  0  0  0  0  0  0
  -26.4880  -37.4410   23.7730 N   0  0  0  0  0  0  0  0  0  0  0  0
  -26.0770  -38.3630   23.8950 H   0  0  0  0  0  0  0  0  0  0  0  0
  1  4  1  0
  2  1  2  0
  2 46  1  0
  3  1  1  0
  5  3  1  0
  5  7  1  0
  6  4  1  0
  7 16  1  0
  7  6  1  0
  8 16  1  0
  9 14  1  0
 10 11  1  0
 10  9  1  0
 12 11  1  0
 12 21  1  0
 12 13  1  0
 14  8  1  0
 14 13  1  0
 15  8  2  0
 16 17  1  0
 18 19  2  0
 19 38  1  0
 20 19  1  0
 20 23  1  0
 21 22  1  0
 21 18  1  0
 22 20  2  0
 23 24  1  0
 24 25  2  0
 26 29  1  0
 26 25  1  0
 27 26  2  0
 28 27  1  0
 28 23  2  0
 29 30  1  0
 30 31  1  0
 31 32  2  0
 33 32  1  0
 33 37  1  0
 34 33  2  0
 35 30  2  0
 35 34  1  0
 36 35  1  0
 38 39  1  0
 39 42  1  0
 39 41  1  0
 40 38  2  0
 43 18  1  0
 43 44  1  0
 45 43  1  0
 47 46  1  0
 47 48  2  0
 49 48  1  0
 50 61  2  0
 51 49  1  0
 51 56  1  0
 52 60  1  0
 52 62  1  0
 53 59  1  0
 53 55  1  0
 54 60  1  0
 55 56  2  0
 55 54  1  0
 57 51  2  0
 58 57  1  0
 58 53  2  0
 59 52  1  0
 60 50  1  0
 62 64  2  0
 63 62  1  0
 65 63  1  0
 66 75  2  0
 66 71  1  0
 67 63  1  0
 67 71  1  0
 68 67  1  0
 69 70  1  0
 69 68  1  0
 70 66  1  0
 71 72  2  0
 72 73  1  0
 74 73  2  0
 75 74  1  0
 76 50  1  0
 76 81  1  0
 76 77  1  0
 77 80  1  1
 77 78  1  0
 79 77  1  0
 81 84  1  0
 82 86  1  0
 82 81  1  0
 83 82  2  0
 86 85  1  0
 88 86  1  0
 88 89  1  0
 88 87  1  0
M  ISO  4   8 100  16 100  48 101  49 101
M  END
>  <TORSDO>  (72) 
F 19

>  <SCORE>  (72) 
-13.430

>  <name>  (72) 
71

>  <ligand_id>  (72) 
71

>  <original_smiles>  (72) 
[H]C(=C1C([H])([H])C([H])([H])C([H])(N([H])C(=O)N2C([H])([H])C([H])([H])C([H])([H])C([H])(n3nc(-c4c([H])c([H])c(Oc5c([H])c([H])c(F)c([H])c5F)c([H])c4[H])c(C(=O)N([H])[H])c3N([H])[H])C2([H])[H])C([H])([H])C1([H])[H])C([H])([H])C([H])([H])C([H])([H])Oc1c([H])c([H])c2c(c1[H])C([H])([H])N(C(=O)C([H])(N([H])C(=O)C([H])(N([H])C([H])([H])[H])C([H])([H])[H])C(C([H])([H])[H])(C([H])([H])[H])C([H])([H])[H])C([H])(C(=O)N([H])C1([H])c3c([H])c([H])c([H])c([H])c3C([H])([H])C([H])([H])C1([H])[H])C2([H])[H]

>  <smiles>  (72) 
[H]C(=C1C([H])([H])C([H])([H])C([H])(N([H])C(=O)N2C([H])([H])C([H])([H])C([H])([H])C([H])(n3nc(-c4c([H])c([H])c(Oc5c([H])c([H])c(F)c([H])c5F)c([H])c4[H])c(C(=O)N([H])[H])c3N([H])[H])C2([H])[H])C([H])([H])C1([H])[H])C([H])([H])C([H])([H])C([H])([H])Oc1c([H])c([H])c2c(c1[H])C([H])([H])N(C(=O)C([H])(N([H])C(=O)C([H])(N([H])C([H])([H])[H])C([H])([H])[H])C(C([H])([H])[H])(C([H])([H])[H])C([H])([H])[H])C([H])(C(=O)N([H])C1([H])c3c([H])c([H])c([H])c([H])c3C([H])([H])C([H])([H])C1([H])[H])C2([H])[H]

$$$$
72:0:0
     RDKit          3D

 90 98  0  0  1  0  0  0  0  0999 V2000
  -30.9080  -20.0580   20.6860 C   0  0  0  0  0  2  0  0  0  0  0  0
  -30.6770  -21.5240   20.1350 C   0  0  0  0  0  2  0  0  0  0  0  0
  -28.6920  -19.4060   19.9410 C   0  0  0  0  0  2  0  0  0  0  0  0
  -30.1730  -18.8670   19.9720 C   0  0  0  0  0  3  0  0  0  0  0  0
  -29.2090  -22.0800   20.1100 C   0  0  0  0  0  3  0  0  0  0  0  0
  -28.4400  -20.8990   19.3720 C   0  0  0  0  0  3  0  0  0  0  0  0
  -26.1760  -20.4450   18.2060 C   0  0  0  0  0  1  0  0  0  0  0  0
  -26.9320  -21.2180   19.2980 C   0  0  0  0  0  2  0  0  0  0  0  0
  -29.1330  -23.6320   19.5300 C   0  0  0  0  0  3  0  0  0  0  0  0
  -28.1820  -24.8390   20.0950 C   0  0  0  0  0  3  0  0  0  0  0  0
  -28.3570  -26.2980   19.6970 O   0  0  0  0  0  0  0  0  0  0  0  0
  -24.7410  -31.6990   23.0320 C   0  0  0  0  0  0  0  0  0  0  0  0
  -27.2630  -27.2020   19.7460 C   0  0  0  0  0  0  0  0  0  0  0  0
  -23.5020  -30.3750   21.3600 C   0  0  0  0  0  3  0  0  0  0  0  0
  -24.9180  -28.8720   19.8410 C   0  0  0  0  0  0  0  0  0  0  0  0
  -26.0440  -30.6770   21.1410 C   0  0  0  0  0  2  0  0  0  0  0  0
  -26.1050  -29.3200   20.4350 C   0  0  0  0  0  0  0  0  0  0  0  0
  -27.2820  -28.5000   20.3700 C   0  0  0  0  0  3  0  0  0  0  0  0
  -26.0550  -26.8300   19.1220 C   0  0  0  0  0  3  0  0  0  0  0  0
  -24.8990  -27.6380   19.1710 C   0  0  0  0  0  3  0  0  0  0  0  0
  -23.6880  -29.7570   19.9480 C   0  0  0  0  0  2  0  0  0  0  0  0
  -24.7830  -30.9340   21.9010 N   0  0  0  0  0  0  0  0  0  0  0  0
  -23.6690  -31.9570   23.6000 O   0  0  0  0  0  0  0  0  0  0  0  0
  -22.8500  -29.3240   22.2910 C   0  0  0  0  0  0  0  0  0  0  0  0
  -21.5170  -29.1730   22.2020 N   0  0  0  0  0  0  0  0  0  0  0  0
  -23.5440  -28.6470   23.0560 O   0  0  0  0  0  0  0  0  0  0  0  0
  -21.0160  -29.7700   21.5600 H   0  0  0  0  0  0  0  0  0  0  0  0
  -18.1360  -28.0200   22.7870 C   0  0  0  0  0  0  0  0  0  0  0  0
  -20.7100  -28.2070   22.9510 C   0  0  0  0  0  3  0  0  0  0  0  0
  -20.7500  -26.8110   22.2860 C   0  0  0  0  0  2  0  0  0  0  0  0
  -19.5960  -26.5770   21.3060 C   0  0  0  0  0  2  0  0  0  0  0  0
  -18.2480  -26.7120   22.0220 C   0  0  0  0  0  2  0  0  0  0  0  0
  -19.2910  -28.7290   23.2100 C   0  0  0  0  0  0  0  0  0  0  0  0
  -19.1300  -29.9560   23.8880 C   0  0  0  0  0  3  0  0  0  0  0  0
  -17.8470  -30.4740   24.1460 C   0  0  0  0  0  3  0  0  0  0  0  0
  -16.7070  -29.7590   23.7390 C   0  0  0  0  0  3  0  0  0  0  0  0
  -16.8520  -28.5340   23.0640 C   0  0  0  0  0  3  0  0  0  0  0  0
  -26.0360  -32.3050   23.6560 C   0  0  0  0  0  3  0  0  0  0  0  0
  -26.5860  -31.4700   24.8780 C   0  0  1  0  0  0  0  0  0  0  0  0
  -25.5210  -31.1770   25.9610 C   0  0  0  0  0  1  0  0  0  0  0  0
  -27.1560  -30.1140   24.4020 C   0  0  0  0  0  1  0  0  0  0  0  0
  -27.7560  -32.2300   25.5470 C   0  0  0  0  0  1  0  0  0  0  0  0
  -25.7290  -33.6820   24.0710 N   0  0  0  0  0  0  0  0  0  0  0  0
  -26.0380  -34.7790   23.3670 C   0  0  0  0  0  0  0  0  0  0  0  0
  -26.6810  -34.7370   22.3150 O   0  0  0  0  0  0  0  0  0  0  0  0
  -25.1550  -33.7890   24.8950 H   0  0  0  0  0  0  0  0  0  0  0  0
  -24.2900  -36.5790   23.1740 C   0  0  0  0  0  1  0  0  0  0  0  0
  -25.5610  -36.1370   23.9170 C   0  0  0  0  0  3  0  0  0  0  0  0
  -27.7170  -36.9890   24.7240 C   0  0  0  0  0  1  0  0  0  0  0  0
  -26.5830  -37.2030   23.8300 N   0  0  0  0  0  0  0  0  0  0  0  0
  -26.1770  -38.1100   24.0430 H   0  0  0  0  0  0  0  0  0  0  0  0
  -30.5580  -17.4220   20.6760 C   0  0  0  0  0  2  0  0  0  0  0  0
  -30.7330  -14.8430   20.0620 C   0  0  0  0  0  0  0  0  0  0  0  0
  -30.4560  -12.5780   19.0120 C   0  0  0  0  0  2  0  0  0  0  0  0
  -29.4580  -12.6420   17.8360 C   0  0  0  0  0  2  0  0  0  0  0  0
  -28.0140  -12.4630   18.3400 C   0  0  0  0  0  2  0  0  0  0  0  0
  -27.6990  -13.3520   19.5720 C   0  0  0  0  0  3  0  0  0  0  0  0
  -28.8090  -13.2720   20.6410 C   0  0  0  0  0  2  0  0  0  0  0  0
  -30.0690  -13.6350   19.9810 N   0  0  0  0  0  0  0  0  0  0  0  0
  -31.9200  -14.8950   19.7330 O   0  0  0  0  0  0  0  0  0  0  0  0
  -30.0210  -16.0170   20.3300 N   0  0  0  0  0  0  0  0  0  0  0  0
  -29.0330  -15.8850   20.4780 H   0  0  0  0  0  0  0  0  0  0  0  0
  -25.3550  -13.9480   20.4210 C   0  0  0  0  0  0  0  0  0  0  0  0
  -24.3010  -13.1760   20.8270 C   0  0  0  0  0  0  0  0  0  0  0  0
  -24.7530  -11.8230   20.7590 C   0  0  0  0  0  0  0  0  0  0  0  0
  -26.3790  -13.0640   20.1270 N   0  0  0  0  0  0  0  0  0  0  0  0
  -26.0290  -11.7800   20.3940 N   0  0  0  0  0  0  0  0  0  0  0  0
  -24.0230  -10.5630   20.9630 C   0  0  0  0  0  0  0  0  0  0  0  0
  -24.4710   -9.5910   21.8840 C   0  0  0  0  0  3  0  0  0  0  0  0
  -23.7420   -8.3970   22.0760 C   0  0  0  0  0  3  0  0  0  0  0  0
  -22.5520   -8.1680   21.3450 C   0  0  0  0  0  0  0  0  0  0  0  0
  -22.1240   -9.1280   20.4120 C   0  0  0  0  0  3  0  0  0  0  0  0
  -22.8530  -10.3130   20.2190 C   0  0  0  0  0  3  0  0  0  0  0  0
  -21.7910   -7.0260   21.4470 O   0  0  0  0  0  0  0  0  0  0  0  0
  -21.7500   -6.2920   22.6050 C   0  0  0  0  0  0  0  0  0  0  0  0
  -21.3330   -6.8560   23.8320 C   0  0  0  0  0  3  0  0  0  0  0  0
  -21.2380   -6.0480   24.9820 C   0  0  0  0  0  3  0  0  0  0  0  0
  -21.5480   -4.6770   24.9080 C   0  0  0  0  0  0  0  0  0  0  0  0
  -21.9580   -4.1130   23.6870 C   0  0  0  0  0  3  0  0  0  0  0  0
  -22.0560   -4.9180   22.5380 C   0  0  0  0  0  0  0  0  0  0  0  0
  -22.4300   -4.3640   21.3610 F   0  0  0  0  0  0  0  0  0  0  0  0
  -21.4500   -3.8990   26.0120 F   0  0  0  0  0  0  0  0  0  0  0  0
  -22.9200  -13.6600   21.1630 C   0  0  0  0  0  0  0  0  0  0  0  0
  -22.2280  -12.9650   22.0580 N   0  0  0  0  0  0  0  0  0  0  0  0
  -22.4650  -14.6910   20.6670 O   0  0  0  0  0  0  0  0  0  0  0  0
  -22.6080  -12.1300   22.4790 H   0  0  0  0  0  0  0  0  0  0  0  0
  -21.3040  -13.2720   22.3290 H   0  0  0  0  0  0  0  0  0  0  0  0
  -25.5210  -15.3190   20.2520 N   0  0  0  0  0  0  0  0  0  0  0  0
  -24.7600  -15.9750   20.4010 H   0  0  0  0  0  0  0  0  0  0  0  0
  -26.3480  -15.7560   19.8700 H   0  0  0  0  0  0  0  0  0  0  0  0
  2  1  1  0
  3  4  1  0
  4 52  1  0
  4  1  1  0
  5  9  1  0
  5  2  1  0
  6  8  1  0
  6  3  1  0
  6  5  1  0
  7  8  1  0
  9 10  2  0
 11 13  1  0
 11 10  1  0
 12 23  2  0
 13 18  1  0
 14 22  1  0
 14 24  1  0
 15 21  1  0
 15 17  1  0
 16 22  1  0
 17 16  1  0
 18 17  2  0
 19 20  1  0
 19 13  2  0
 20 15  2  0
 21 14  1  0
 22 12  1  0
 24 26  2  0
 25 24  1  0
 27 25  1  0
 28 37  2  0
 28 33  1  0
 29 25  1  0
 29 33  1  0
 30 29  1  0
 31 32  1  0
 31 30  1  0
 32 28  1  0
 33 34  2  0
 34 35  1  0
 36 35  2  0
 37 36  1  0
 38 12  1  0
 38 43  1  0
 38 39  1  0
 39 42  1  1
 39 40  1  0
 41 39  1  0
 43 46  1  0
 44 48  1  0
 44 43  1  0
 45 44  2  0
 48 47  1  0
 50 48  1  0
 50 51  1  0
 50 49  1  0
 53 61  1  0
 54 59  1  0
 55 56  1  0
 55 54  1  0
 57 56  1  0
 57 66  1  0
 57 58  1  0
 59 53  1  0
 59 58  1  0
 60 53  2  0
 61 62  1  0
 61 52  1  0
 63 64  2  0
 64 83  1  0
 65 64  1  0
 65 68  1  0
 66 67  1  0
 66 63  1  0
 67 65  2  0
 68 69  1  0
 69 70  2  0
 71 74  1  0
 71 70  1  0
 72 71  2  0
 73 72  1  0
 73 68  2  0
 74 75  1  0
 75 76  1  0
 76 77  2  0
 78 77  1  0
 78 82  1  0
 79 78  2  0
 80 75  2  0
 80 79  1  0
 81 80  1  0
 83 84  1  0
 84 87  1  0
 84 86  1  0
 85 83  2  0
 88 89  1  0
 88 63  1  0
 90 88  1  0
M  ISO  4  10 101  11 101  53 100  61 100
M  END
>  <TORSDO>  (73) 
F 20

>  <SCORE>  (73) 
-13.310

>  <name>  (73) 
72

>  <ligand_id>  (73) 
72

>  <original_smiles>  (73) 
[H]c1c([H])c([H])c2c(c1[H])C([H])([H])C([H])([H])C([H])([H])C2([H])N([H])C(=O)C1([H])N(C(=O)C([H])(N([H])C(=O)C([H])(N([H])C([H])([H])[H])C([H])([H])[H])C(C([H])([H])[H])(C([H])([H])[H])C([H])([H])[H])C([H])([H])c2c([H])c(OC([H])([H])C([H])([H])C3([H])C([H])([H])C([H])([H])C([H])(C([H])([H])N([H])C(=O)N4C([H])([H])C([H])([H])C([H])([H])C([H])(n5nc(-c6c([H])c([H])c(Oc7c([H])c([H])c(F)c([H])c7F)c([H])c6[H])c(C(=O)N([H])[H])c5N([H])[H])C4([H])[H])C([H])([H])C3([H])C([H])([H])C([H])([H])[H])c([H])c([H])c2C1([H])[H]

>  <smiles>  (73) 
[H]c1c([H])c([H])c2c(c1[H])C([H])([H])C([H])([H])C([H])([H])C2([H])N([H])C(=O)C1([H])N(C(=O)C([H])(N([H])C(=O)C([H])(N([H])C([H])([H])[H])C([H])([H])[H])C(C([H])([H])[H])(C([H])([H])[H])C([H])([H])[H])C([H])([H])c2c([H])c(OC([H])([H])C([H])([H])C3([H])C([H])([H])C([H])([H])C([H])(C([H])([H])N([H])C(=O)N4C([H])([H])C([H])([H])C([H])([H])C([H])(n5nc(-c6c([H])c([H])c(Oc7c([H])c([H])c(F)c([H])c7F)c([H])c6[H])c(C(=O)N([H])[H])c5N([H])[H])C4([H])[H])C([H])([H])C3([H])C([H])([H])C([H])([H])[H])c([H])c([H])c2C1([H])[H]

$$$$
73:0:0
     RDKit          3D

 93102  0  0  1  0  0  0  0  0999 V2000
  -29.9730  -17.5150   21.5920 C   0  0  0  0  0  0  0  0  0  0  0  0
  -28.5260  -17.9180   21.3230 C   0  0  0  0  0  2  0  0  0  0  0  0
  -28.4040  -19.1180   20.3570 C   0  0  0  0  0  2  0  0  0  0  0  0
  -29.4990  -21.1070   19.3020 C   0  0  0  0  0  2  0  0  0  0  0  0
  -31.0180  -17.6790   20.4460 C   0  0  0  0  0  3  0  0  0  0  0  0
  -30.9840  -20.8480   18.9830 C   0  0  0  0  0  3  0  0  0  0  0  0
  -29.2560  -20.3960   20.6410 C   0  0  0  0  0  3  0  0  0  0  0  0
  -31.3510  -19.4540   20.0390 C   0  0  0  0  0  3  0  0  0  0  0  0
  -30.6290  -20.1280   21.1440 N   0  0  0  0  0  4  0  0  0  0  0  0
  -30.2740  -17.1190   22.7200 O   0  0  0  0  0  0  0  0  0  0  0  0
  -30.6230  -19.6030   22.0040 H   0  0  0  0  0  0  0  0  0  0  0  0
  -31.0760  -21.0080   21.3420 H   0  0  0  0  0  0  0  0  0  0  0  0
  -31.6660  -14.8850   20.2980 C   0  0  0  0  0  0  0  0  0  0  0  0
  -31.5320  -12.3370   19.8540 C   0  0  0  0  0  2  0  0  0  0  0  0
  -30.7000  -11.8840   18.6290 C   0  0  0  0  0  2  0  0  0  0  0  0
  -29.2160  -11.7540   19.0080 C   0  0  0  0  0  2  0  0  0  0  0  0
  -28.7160  -12.9610   19.8390 C   0  0  0  0  0  3  0  0  0  0  0  0
  -29.6830  -13.3540   20.9730 C   0  0  0  0  0  2  0  0  0  0  0  0
  -30.9740  -13.6510   20.3250 N   0  0  0  0  0  0  0  0  0  0  0  0
  -32.8910  -14.7610   20.4090 O   0  0  0  0  0  0  0  0  0  0  0  0
  -31.1510  -16.1740   19.7830 N   0  0  0  0  0  0  0  0  0  0  0  0
  -30.5890  -16.0500   18.9500 H   0  0  0  0  0  0  0  0  0  0  0  0
  -26.3970  -13.7890   20.4840 C   0  0  0  0  0  0  0  0  0  0  0  0
  -25.2350  -13.1380   20.7980 C   0  0  0  0  0  0  0  0  0  0  0  0
  -25.5470  -11.7460   20.7790 C   0  0  0  0  0  0  0  0  0  0  0  0
  -27.3410  -12.7990   20.2920 N   0  0  0  0  0  0  0  0  0  0  0  0
  -26.8410  -11.5620   20.5410 N   0  0  0  0  0  0  0  0  0  0  0  0
  -24.6700  -10.5750   20.9150 C   0  0  0  0  0  0  0  0  0  0  0  0
  -24.9540   -9.5450   21.8380 C   0  0  0  0  0  3  0  0  0  0  0  0
  -24.0830   -8.4430   21.9690 C   0  0  0  0  0  3  0  0  0  0  0  0
  -22.9160   -8.3640   21.1750 C   0  0  0  0  0  0  0  0  0  0  0  0
  -22.6510   -9.3800   20.2420 C   0  0  0  0  0  3  0  0  0  0  0  0
  -23.5200  -10.4740   20.1080 C   0  0  0  0  0  3  0  0  0  0  0  0
  -22.0240   -7.3190   21.2090 O   0  0  0  0  0  0  0  0  0  0  0  0
  -21.8280   -6.5820   22.3480 C   0  0  0  0  0  0  0  0  0  0  0  0
  -21.4270   -7.1810   23.5620 C   0  0  0  0  0  3  0  0  0  0  0  0
  -21.1690   -6.3780   24.6890 C   0  0  0  0  0  3  0  0  0  0  0  0
  -21.2980   -4.9790   24.6060 C   0  0  0  0  0  0  0  0  0  0  0  0
  -21.6950   -4.3820   23.3970 C   0  0  0  0  0  3  0  0  0  0  0  0
  -21.9560   -5.1820   22.2710 C   0  0  0  0  0  0  0  0  0  0  0  0
  -22.3160   -4.5960   21.1020 F   0  0  0  0  0  0  0  0  0  0  0  0
  -21.0440   -4.2100   25.6900 F   0  0  0  0  0  0  0  0  0  0  0  0
  -23.8920  -13.7750   21.0000 C   0  0  0  0  0  0  0  0  0  0  0  0
  -23.0550  -13.1720   21.8330 N   0  0  0  0  0  0  0  0  0  0  0  0
  -23.5970  -14.8370   20.4530 O   0  0  0  0  0  0  0  0  0  0  0  0
  -23.3120  -12.3050   22.2820 H   0  0  0  0  0  0  0  0  0  0  0  0
  -22.1480  -13.5750   22.0190 H   0  0  0  0  0  0  0  0  0  0  0  0
  -26.7210  -15.1280   20.3020 N   0  0  0  0  0  0  0  0  0  0  0  0
  -25.9780  -15.8080   20.1740 H   0  0  0  0  0  0  0  0  0  0  0  0
  -27.5680  -15.3890   19.8170 H   0  0  0  0  0  0  0  0  0  0  0  0
  -31.6690  -22.5000   19.0210 C   0  0  0  0  0  2  0  0  0  0  0  0
  -30.9680  -24.1040   18.6970 C   0  0  0  0  0  2  0  0  0  0  0  0
  -31.2350  -25.6080   19.2610 O   0  0  0  0  0  0  0  0  0  0  0  0
  -27.3040  -29.7800   24.0820 C   0  0  0  0  0  0  0  0  0  0  0  0
  -30.2210  -26.6520   19.5370 C   0  0  0  0  0  0  0  0  0  0  0  0
  -26.3140  -29.3230   21.8740 C   0  0  0  0  0  3  0  0  0  0  0  0
  -27.9220  -28.4330   20.0540 C   0  0  0  0  0  0  0  0  0  0  0  0
  -28.8730  -29.4570   22.1170 C   0  0  0  0  0  2  0  0  0  0  0  0
  -29.0240  -28.4830   20.9180 C   0  0  0  0  0  0  0  0  0  0  0  0
  -30.1690  -27.6190   20.6460 C   0  0  0  0  0  3  0  0  0  0  0  0
  -29.1020  -26.7530   18.6830 C   0  0  0  0  0  3  0  0  0  0  0  0
  -27.9830  -27.5920   18.9290 C   0  0  0  0  0  3  0  0  0  0  0  0
  -26.7050  -29.3010   20.3690 C   0  0  0  0  0  2  0  0  0  0  0  0
  -27.5110  -29.5190   22.7520 N   0  0  0  0  0  0  0  0  0  0  0  0
  -26.1600  -29.8670   24.5590 O   0  0  0  0  0  0  0  0  0  0  0  0
  -25.5060  -28.0430   22.2190 C   0  0  0  0  0  0  0  0  0  0  0  0
  -24.2120  -28.0070   21.8590 N   0  0  0  0  0  0  0  0  0  0  0  0
  -26.0580  -27.0950   22.7840 O   0  0  0  0  0  0  0  0  0  0  0  0
  -23.8220  -28.8230   21.3990 H   0  0  0  0  0  0  0  0  0  0  0  0
  -20.8140  -26.8420   21.3420 C   0  0  0  0  0  0  0  0  0  0  0  0
  -23.3030  -26.8750   22.0430 C   0  0  0  0  0  3  0  0  0  0  0  0
  -23.5200  -25.8140   20.9360 C   0  0  0  0  0  2  0  0  0  0  0  0
  -22.5750  -25.9880   19.7420 C   0  0  0  0  0  2  0  0  0  0  0  0
  -21.1210  -25.8900   20.2020 C   0  0  0  0  0  2  0  0  0  0  0  0
  -21.8450  -27.3140   22.2030 C   0  0  0  0  0  0  0  0  0  0  0  0
  -21.5110  -28.2130   23.2380 C   0  0  0  0  0  3  0  0  0  0  0  0
  -20.1840  -28.6400   23.4220 C   0  0  0  0  0  3  0  0  0  0  0  0
  -19.1710  -28.1710   22.5690 C   0  0  0  0  0  3  0  0  0  0  0  0
  -19.4830  -27.2700   21.5340 C   0  0  0  0  0  3  0  0  0  0  0  0
  -28.4900  -30.0010   25.0690 C   0  0  0  0  0  3  0  0  0  0  0  0
  -28.1260  -31.1060   25.9710 N   0  0  0  0  0  0  0  0  0  0  0  0
  -28.5590  -32.3690   25.8510 C   0  0  0  0  0  0  0  0  0  0  0  0
  -29.3690  -32.7140   24.9870 O   0  0  0  0  0  0  0  0  0  0  0  0
  -27.4160  -30.9070   26.6620 H   0  0  0  0  0  0  0  0  0  0  0  0
  -26.8980  -34.2350   26.1820 C   0  0  0  0  0  1  0  0  0  0  0  0
  -28.0130  -33.4120   26.8480 C   0  0  0  0  0  3  0  0  0  0  0  0
  -30.0090  -33.6640   28.2580 C   0  0  0  0  0  1  0  0  0  0  0  0
  -29.0530  -34.3240   27.3730 N   0  0  0  0  0  0  0  0  0  0  0  0
  -28.6310  -35.1010   27.8770 H   0  0  0  0  0  0  0  0  0  0  0  0
  -28.8500  -28.7120   25.9070 C   0  0  1  0  0  0  0  0  0  0  0  0
  -27.6390  -28.0790   26.6370 C   0  0  0  0  0  1  0  0  0  0  0  0
  -29.4730  -27.6250   25.0050 C   0  0  0  0  0  1  0  0  0  0  0  0
  -29.9170  -29.0630   26.9730 C   0  0  0  0  0  1  0  0  0  0  0  0
  1 10  2  0
  2  1  1  0
  3  7  1  0
  3  2  1  0
  5 21  1  0
  5  1  1  0
  6 51  1  0
  6  4  1  0
  6  8  1  0
  7  4  1  0
  7  9  1  0
  8  5  1  0
  8  9  1  0
  9 12  1  0
  9 11  1  0
 13 19  1  0
 13 20  2  0
 14 19  1  0
 15 16  1  0
 15 14  1  0
 17 16  1  0
 17 26  1  0
 17 18  1  0
 19 18  1  0
 21 13  1  0
 22 21  1  0
 23 24  2  0
 24 43  1  0
 25 24  1  0
 25 28  1  0
 26 23  1  0
 26 27  1  0
 27 25  2  0
 28 29  1  0
 29 30  2  0
 31 34  1  0
 31 30  1  0
 32 31  2  0
 33 32  1  0
 33 28  2  0
 34 35  1  0
 35 36  1  0
 36 37  2  0
 38 37  1  0
 38 42  1  0
 39 38  2  0
 40 35  2  0
 40 39  1  0
 41 40  1  0
 43 44  1  0
 44 47  1  0
 44 46  1  0
 45 43  2  0
 48 23  1  0
 49 48  1  0
 50 48  1  0
 52 51  1  0
 52 53  1  0
 53 55  1  0
 54 65  2  0
 55 60  1  0
 56 66  1  0
 56 64  1  0
 57 63  1  0
 57 59  1  0
 58 64  1  0
 59 58  1  0
 60 59  2  0
 61 62  1  0
 61 55  2  0
 62 57  2  0
 63 56  1  0
 64 54  1  0
 66 68  2  0
 67 66  1  0
 69 67  1  0
 70 79  2  0
 70 75  1  0
 71 67  1  0
 71 75  1  0
 72 71  1  0
 73 74  1  0
 73 72  1  0
 74 70  1  0
 75 76  2  0
 76 77  1  0
 78 77  2  0
 79 78  1  0
 80 54  1  0
 80 90  1  0
 80 81  1  0
 81 84  1  0
 82 81  1  0
 82 86  1  0
 83 82  2  0
 86 85  1  0
 86 88  1  0
 88 89  1  0
 88 87  1  0
 90 91  1  1
 90 93  1  0
 92 90  1  0
M  ISO  4  13 100  21 100  52 101  53 101
M  END
>  <TORSDO>  (74) 
F 18

>  <SCORE>  (74) 
-9.830

>  <name>  (74) 
73

>  <ligand_id>  (74) 
73

>  <original_smiles>  (74) 
[H]c1c([H])c([H])c2c(c1[H])C([H])([H])C([H])([H])C([H])([H])C2([H])N([H])C(=O)C1([H])N(C(=O)C([H])(N([H])C(=O)C([H])(N([H])C([H])([H])[H])C([H])([H])[H])C(C([H])([H])[H])(C([H])([H])[H])C([H])([H])[H])C([H])([H])c2c([H])c(OC([H])([H])C([H])([H])C3([H])C([H])([H])C4([H])C([H])([H])C([H])([H])C(=O)C([H])(N([H])C(=O)N5C([H])([H])C([H])([H])C([H])([H])C([H])(n6nc(-c7c([H])c([H])c(Oc8c([H])c([H])c(F)c([H])c8F)c([H])c7[H])c(C(=O)N([H])[H])c6N([H])[H])C5([H])[H])C3([H])[N+]4([H])[H])c([H])c([H])c2C1([H])[H]

>  <smiles>  (74) 
[H]c1c([H])c([H])c2c(c1[H])C([H])([H])C([H])([H])C([H])([H])C2([H])N([H])C(=O)C1([H])N(C(=O)C([H])(N([H])C(=O)C([H])(N([H])C([H])([H])[H])C([H])([H])[H])C(C([H])([H])[H])(C([H])([H])[H])C([H])([H])[H])C([H])([H])c2c([H])c(OC([H])([H])C([H])([H])C3([H])C([H])([H])C4([H])C([H])([H])C([H])([H])C(=O)C([H])(N([H])C(=O)N5C([H])([H])C([H])([H])C([H])([H])C([H])(n6nc(-c7c([H])c([H])c(Oc8c([H])c([H])c(F)c([H])c8F)c([H])c7[H])c(C(=O)N([H])[H])c6N([H])[H])C5([H])[H])C3([H])[N+]4([H])[H])c([H])c([H])c2C1([H])[H]

$$$$
74:0:0
     RDKit          3D

 90 98  0  0  1  0  0  0  0  0999 V2000
  -30.4170  -22.9550   21.8200 C   0  0  0  0  0  3  0  0  0  0  0  0
  -30.0030  -21.6710   21.4020 C   0  0  0  0  0  3  0  0  0  0  0  0
  -29.9150  -24.1250   21.2050 C   0  0  0  0  0  3  0  0  0  0  0  0
  -28.5780  -22.7220   19.7420 C   0  0  0  0  0  3  0  0  0  0  0  0
  -29.0610  -21.5210   20.3630 C   0  0  0  0  0  0  0  0  0  0  0  0
  -28.9850  -24.0340   20.1500 C   0  0  0  0  0  0  0  0  0  0  0  0
  -28.5330  -20.1750   19.9390 C   0  0  0  0  0  3  0  0  0  0  0  0
  -28.9730  -18.8760   19.9740 C   0  0  0  0  0  3  0  0  0  0  0  0
  -30.3050  -18.2090   20.3750 C   0  0  0  0  0  2  0  0  0  0  0  0
  -30.2530  -16.9820   21.3660 C   0  0  0  0  0  2  0  0  0  0  0  0
  -30.6020  -14.5880   20.4540 C   0  0  0  0  0  0  0  0  0  0  0  0
  -30.3450  -12.3920   19.3190 C   0  0  0  0  0  2  0  0  0  0  0  0
  -29.3890  -12.5540   18.1170 C   0  0  0  0  0  2  0  0  0  0  0  0
  -27.9190  -12.4080   18.5590 C   0  0  0  0  0  2  0  0  0  0  0  0
  -27.5820  -13.2530   19.8170 C   0  0  0  0  0  3  0  0  0  0  0  0
  -28.6470  -13.0600   20.9170 C   0  0  0  0  0  2  0  0  0  0  0  0
  -29.9540  -13.3930   20.3280 N   0  0  0  0  0  0  0  0  0  0  0  0
  -31.7680  -14.7460   20.0810 O   0  0  0  0  0  0  0  0  0  0  0  0
  -29.8400  -15.6350   20.8720 N   0  0  0  0  0  0  0  0  0  0  0  0
  -28.8760  -15.3940   21.0510 H   0  0  0  0  0  0  0  0  0  0  0  0
  -25.1920  -13.8600   20.5420 C   0  0  0  0  0  0  0  0  0  0  0  0
  -24.1250  -13.0890   20.9150 C   0  0  0  0  0  0  0  0  0  0  0  0
  -24.5840  -11.7370   20.8840 C   0  0  0  0  0  0  0  0  0  0  0  0
  -26.2340  -12.9770   20.3060 N   0  0  0  0  0  0  0  0  0  0  0  0
  -25.8730  -11.6950   20.5720 N   0  0  0  0  0  0  0  0  0  0  0  0
  -23.8570  -10.4760   21.0760 C   0  0  0  0  0  0  0  0  0  0  0  0
  -24.3050   -9.4980   21.9920 C   0  0  0  0  0  3  0  0  0  0  0  0
  -23.5790   -8.3010   22.1720 C   0  0  0  0  0  3  0  0  0  0  0  0
  -22.3920   -8.0730   21.4360 C   0  0  0  0  0  0  0  0  0  0  0  0
  -21.9620   -9.0400   20.5100 C   0  0  0  0  0  3  0  0  0  0  0  0
  -22.6890  -10.2290   20.3270 C   0  0  0  0  0  3  0  0  0  0  0  0
  -21.6350   -6.9300   21.5280 O   0  0  0  0  0  0  0  0  0  0  0  0
  -21.6200   -6.1670   22.6660 C   0  0  0  0  0  0  0  0  0  0  0  0
  -21.2500   -6.7050   23.9190 C   0  0  0  0  0  3  0  0  0  0  0  0
  -21.1790   -5.8680   25.0510 C   0  0  0  0  0  3  0  0  0  0  0  0
  -21.4700   -4.4970   24.9330 C   0  0  0  0  0  0  0  0  0  0  0  0
  -21.8330   -3.9580   23.6860 C   0  0  0  0  0  3  0  0  0  0  0  0
  -21.9050   -4.7910   22.5560 C   0  0  0  0  0  0  0  0  0  0  0  0
  -22.2350   -4.2640   21.3530 F   0  0  0  0  0  0  0  0  0  0  0  0
  -21.3940   -3.6910   26.0180 F   0  0  0  0  0  0  0  0  0  0  0  0
  -22.7300  -13.5680   21.1900 C   0  0  0  0  0  0  0  0  0  0  0  0
  -22.0020  -12.8760   22.0590 N   0  0  0  0  0  0  0  0  0  0  0  0
  -22.2910  -14.5930   20.6690 O   0  0  0  0  0  0  0  0  0  0  0  0
  -22.3690  -12.0470   22.5050 H   0  0  0  0  0  0  0  0  0  0  0  0
  -21.0670  -13.1820   22.2860 H   0  0  0  0  0  0  0  0  0  0  0  0
  -25.3550  -15.2310   20.3630 N   0  0  0  0  0  0  0  0  0  0  0  0
  -24.5840  -15.8790   20.4750 H   0  0  0  0  0  0  0  0  0  0  0  0
  -26.1920  -15.6700   19.9990 H   0  0  0  0  0  0  0  0  0  0  0  0
  -28.5130  -25.3140   19.3960 C   0  0  0  0  0  2  0  0  0  0  0  0
  -28.3860  -26.5700   20.1520 O   0  0  0  0  0  0  0  0  0  0  0  0
  -24.6190  -31.8710   23.2290 C   0  0  0  0  0  0  0  0  0  0  0  0
  -27.2240  -27.3530   20.1140 C   0  0  0  0  0  0  0  0  0  0  0  0
  -23.4030  -30.4740   21.5970 C   0  0  0  0  0  3  0  0  0  0  0  0
  -24.8410  -28.9350   20.1560 C   0  0  0  0  0  0  0  0  0  0  0  0
  -25.9380  -30.8050   21.3890 C   0  0  0  0  0  2  0  0  0  0  0  0
  -26.0130  -29.4310   20.7390 C   0  0  0  0  0  0  0  0  0  0  0  0
  -27.2030  -28.6490   20.7150 C   0  0  0  0  0  3  0  0  0  0  0  0
  -26.0140  -26.8960   19.5380 C   0  0  0  0  0  3  0  0  0  0  0  0
  -24.8410  -27.6700   19.5550 C   0  0  0  0  0  3  0  0  0  0  0  0
  -23.6040  -29.8030   20.2140 C   0  0  0  0  0  2  0  0  0  0  0  0
  -24.6730  -31.0660   22.1290 N   0  0  0  0  0  0  0  0  0  0  0  0
  -23.5390  -32.1450   23.7730 O   0  0  0  0  0  0  0  0  0  0  0  0
  -22.7530  -29.4520   22.5590 C   0  0  0  0  0  0  0  0  0  0  0  0
  -21.4260  -29.2750   22.4420 N   0  0  0  0  0  0  0  0  0  0  0  0
  -23.4410  -28.8220   23.3670 O   0  0  0  0  0  0  0  0  0  0  0  0
  -20.9330  -29.8380   21.7630 H   0  0  0  0  0  0  0  0  0  0  0  0
  -18.0540  -28.0700   22.9510 C   0  0  0  0  0  0  0  0  0  0  0  0
  -20.6120  -28.3360   23.2160 C   0  0  0  0  0  3  0  0  0  0  0  0
  -20.7170  -26.9030   22.6420 C   0  0  0  0  0  2  0  0  0  0  0  0
  -19.6140  -26.5760   21.6320 C   0  0  0  0  0  2  0  0  0  0  0  0
  -18.2330  -26.7190   22.2780 C   0  0  0  0  0  2  0  0  0  0  0  0
  -19.1710  -28.8350   23.3760 C   0  0  0  0  0  0  0  0  0  0  0  0
  -18.9510  -30.1000   23.9660 C   0  0  0  0  0  3  0  0  0  0  0  0
  -17.6450  -30.5980   24.1330 C   0  0  0  0  0  3  0  0  0  0  0  0
  -16.5420  -29.8290   23.7230 C   0  0  0  0  0  3  0  0  0  0  0  0
  -16.7470  -28.5660   23.1390 C   0  0  0  0  0  3  0  0  0  0  0  0
  -25.9070  -32.5020   23.8430 C   0  0  0  0  0  3  0  0  0  0  0  0
  -26.4370  -31.7230   25.1080 C   0  0  1  0  0  0  0  0  0  0  0  0
  -25.3550  -31.4750   26.1860 C   0  0  0  0  0  1  0  0  0  0  0  0
  -27.0180  -30.3500   24.7000 C   0  0  0  0  0  1  0  0  0  0  0  0
  -27.5930  -32.5140   25.7630 C   0  0  0  0  0  1  0  0  0  0  0  0
  -25.5950  -33.8960   24.1880 N   0  0  0  0  0  0  0  0  0  0  0  0
  -25.9150  -34.9570   23.4340 C   0  0  0  0  0  0  0  0  0  0  0  0
  -26.5730  -34.8630   22.3940 O   0  0  0  0  0  0  0  0  0  0  0  0
  -25.0110  -34.0420   24.9980 H   0  0  0  0  0  0  0  0  0  0  0  0
  -24.1720  -36.7410   23.1160 C   0  0  0  0  0  1  0  0  0  0  0  0
  -25.4270  -36.3390   23.9070 C   0  0  0  0  0  3  0  0  0  0  0  0
  -27.5710  -37.2260   24.7120 C   0  0  0  0  0  1  0  0  0  0  0  0
  -26.4540  -37.3980   23.7860 N   0  0  0  0  0  0  0  0  0  0  0  0
  -26.0460  -38.3150   23.9480 H   0  0  0  0  0  0  0  0  0  0  0  0
  2  1  1  0
  3  1  2  0
  4  6  2  0
  4  5  1  0
  5  2  2  0
  6  3  1  0
  7  8  2  0
  7  5  1  0
  8  9  1  0
  9 10  1  0
 11 19  1  0
 12 17  1  0
 13 14  1  0
 13 12  1  0
 15 14  1  0
 15 24  1  0
 15 16  1  0
 17 11  1  0
 17 16  1  0
 18 11  2  0
 19 20  1  0
 19 10  1  0
 21 22  2  0
 22 41  1  0
 23 22  1  0
 23 26  1  0
 24 21  1  0
 24 25  1  0
 25 23  2  0
 26 27  1  0
 27 28  2  0
 29 32  1  0
 29 28  1  0
 30 29  2  0
 31 30  1  0
 31 26  2  0
 32 33  1  0
 33 34  1  0
 34 35  2  0
 36 35  1  0
 36 40  1  0
 37 36  2  0
 38 33  2  0
 38 37  1  0
 39 38  1  0
 41 42  1  0
 42 45  1  0
 42 44  1  0
 43 41  2  0
 46 47  1  0
 46 21  1  0
 48 46  1  0
 49  6  1  0
 49 50  1  0
 51 62  2  0
 52 50  1  0
 52 57  1  0
 53 61  1  0
 53 63  1  0
 54 60  1  0
 54 56  1  0
 55 61  1  0
 56 55  1  0
 57 56  2  0
 58 59  1  0
 58 52  2  0
 59 54  2  0
 60 53  1  0
 61 51  1  0
 63 65  2  0
 64 63  1  0
 66 64  1  0
 67 76  2  0
 67 72  1  0
 68 64  1  0
 68 72  1  0
 69 68  1  0
 70 71  1  0
 70 69  1  0
 71 67  1  0
 72 73  2  0
 73 74  1  0
 75 74  2  0
 76 75  1  0
 77 51  1  0
 77 82  1  0
 77 78  1  0
 78 81  1  1
 78 79  1  0
 80 78  1  0
 82 85  1  0
 83 87  1  0
 83 82  1  0
 84 83  2  0
 87 86  1  0
 89 87  1  0
 89 90  1  0
 89 88  1  0
M  ISO  4  11 100  19 100  49 101  50 101
M  END
>  <TORSDO>  (75) 
F 20

>  <SCORE>  (75) 
-13.987

>  <name>  (75) 
74

>  <ligand_id>  (75) 
74

>  <original_smiles>  (75) 
[H]C(=C([H])C([H])([H])C([H])([H])N([H])C(=O)N1C([H])([H])C([H])([H])C([H])([H])C([H])(n2nc(-c3c([H])c([H])c(Oc4c([H])c([H])c(F)c([H])c4F)c([H])c3[H])c(C(=O)N([H])[H])c2N([H])[H])C1([H])[H])c1c([H])c([H])c([H])c(C([H])([H])Oc2c([H])c([H])c3c(c2[H])C([H])([H])N(C(=O)C([H])(N([H])C(=O)C([H])(N([H])C([H])([H])[H])C([H])([H])[H])C(C([H])([H])[H])(C([H])([H])[H])C([H])([H])[H])C([H])(C(=O)N([H])C2([H])c4c([H])c([H])c([H])c([H])c4C([H])([H])C([H])([H])C2([H])[H])C3([H])[H])c1[H]

>  <smiles>  (75) 
[H]C(=C([H])C([H])([H])C([H])([H])N([H])C(=O)N1C([H])([H])C([H])([H])C([H])([H])C([H])(n2nc(-c3c([H])c([H])c(Oc4c([H])c([H])c(F)c([H])c4F)c([H])c3[H])c(C(=O)N([H])[H])c2N([H])[H])C1([H])[H])c1c([H])c([H])c([H])c(C([H])([H])Oc2c([H])c([H])c3c(c2[H])C([H])([H])N(C(=O)C([H])(N([H])C(=O)C([H])(N([H])C([H])([H])[H])C([H])([H])[H])C(C([H])([H])[H])(C([H])([H])[H])C([H])([H])[H])C([H])(C(=O)N([H])C2([H])c4c([H])c([H])c([H])c([H])c4C([H])([H])C([H])([H])C2([H])[H])C3([H])[H])c1[H]

$$$$
75:0:0
     RDKit          3D

 93101  0  0  1  0  0  0  0  0999 V2000
  -31.6590  -17.6590   21.3360 C   0  0  0  0  0  0  0  0  0  0  0  0
  -31.9680  -18.3790   22.6480 C   0  0  0  0  0  2  0  0  0  0  0  0
  -29.4810  -18.5780   20.3400 C   0  0  0  0  0  2  0  0  0  0  0  0
  -31.0910  -19.6320   22.9170 C   0  0  0  0  0  2  0  0  0  0  0  0
  -30.1720  -17.3290   21.0810 C   0  0  0  0  0  3  0  0  0  0  0  0
  -29.4070  -20.0200   21.0700 C   0  0  0  0  0  3  0  0  0  0  0  0
  -30.6930  -20.4090   21.7130 N   0  0  0  0  0  4  0  0  0  0  0  0
  -32.5520  -17.5140   20.5000 O   0  0  0  0  0  0  0  0  0  0  0  0
  -31.4450  -20.4640   21.0430 H   0  0  0  0  0  0  0  0  0  0  0  0
  -30.5530  -21.3550   22.0380 H   0  0  0  0  0  0  0  0  0  0  0  0
  -30.6020  -14.7840   20.3740 C   0  0  0  0  0  0  0  0  0  0  0  0
  -30.3480  -12.5470   19.3070 C   0  0  0  0  0  2  0  0  0  0  0  0
  -29.3940  -12.6410   18.1000 C   0  0  0  0  0  2  0  0  0  0  0  0
  -27.9320  -12.4650   18.5460 C   0  0  0  0  0  2  0  0  0  0  0  0
  -27.5680  -13.3410   19.7750 C   0  0  0  0  0  3  0  0  0  0  0  0
  -28.6410  -13.2490   20.8790 C   0  0  0  0  0  2  0  0  0  0  0  0
  -29.9320  -13.5910   20.2660 N   0  0  0  0  0  0  0  0  0  0  0  0
  -31.7930  -14.8460   20.0860 O   0  0  0  0  0  0  0  0  0  0  0  0
  -29.8470  -15.9210   20.5800 N   0  0  0  0  0  0  0  0  0  0  0  0
  -28.8600  -15.7230   20.5920 H   0  0  0  0  0  0  0  0  0  0  0  0
  -25.1800  -13.8990   20.5320 C   0  0  0  0  0  0  0  0  0  0  0  0
  -24.1310  -13.1090   20.9100 C   0  0  0  0  0  0  0  0  0  0  0  0
  -24.6080  -11.7630   20.8660 C   0  0  0  0  0  0  0  0  0  0  0  0
  -26.2340  -13.0330   20.2810 N   0  0  0  0  0  0  0  0  0  0  0  0
  -25.8970  -11.7450   20.5450 N   0  0  0  0  0  0  0  0  0  0  0  0
  -23.8980  -10.4900   21.0540 C   0  0  0  0  0  0  0  0  0  0  0  0
  -24.3430   -9.5210   21.9790 C   0  0  0  0  0  3  0  0  0  0  0  0
  -23.6290   -8.3160   22.1530 C   0  0  0  0  0  3  0  0  0  0  0  0
  -22.4560   -8.0700   21.4000 C   0  0  0  0  0  0  0  0  0  0  0  0
  -22.0270   -9.0300   20.4680 C   0  0  0  0  0  3  0  0  0  0  0  0
  -22.7400  -10.2260   20.2910 C   0  0  0  0  0  3  0  0  0  0  0  0
  -21.7130   -6.9150   21.4880 O   0  0  0  0  0  0  0  0  0  0  0  0
  -21.6770   -6.1680   22.6370 C   0  0  0  0  0  0  0  0  0  0  0  0
  -21.2460   -6.7120   23.8660 C   0  0  0  0  0  3  0  0  0  0  0  0
  -21.1580   -5.8890   25.0080 C   0  0  0  0  0  3  0  0  0  0  0  0
  -21.4920   -4.5240   24.9200 C   0  0  0  0  0  0  0  0  0  0  0  0
  -21.9160   -3.9780   23.6960 C   0  0  0  0  0  3  0  0  0  0  0  0
  -22.0060   -4.7980   22.5550 C   0  0  0  0  0  0  0  0  0  0  0  0
  -22.3970   -4.2660   21.3730 F   0  0  0  0  0  0  0  0  0  0  0  0
  -21.3950   -3.7310   26.0140 F   0  0  0  0  0  0  0  0  0  0  0  0
  -22.7320  -13.5710   21.1970 C   0  0  0  0  0  0  0  0  0  0  0  0
  -22.0130  -12.8640   22.0620 N   0  0  0  0  0  0  0  0  0  0  0  0
  -22.2840  -14.5990   20.6890 O   0  0  0  0  0  0  0  0  0  0  0  0
  -22.3820  -12.0290   22.4940 H   0  0  0  0  0  0  0  0  0  0  0  0
  -21.0800  -13.1680   22.2990 H   0  0  0  0  0  0  0  0  0  0  0  0
  -25.3210  -15.2720   20.3540 N   0  0  0  0  0  0  0  0  0  0  0  0
  -24.5220  -15.8930   20.4300 H   0  0  0  0  0  0  0  0  0  0  0  0
  -26.1260  -15.7130   19.9280 H   0  0  0  0  0  0  0  0  0  0  0  0
  -28.9090  -21.2630   20.1880 C   0  0  0  0  0  3  0  0  0  0  0  0
  -28.6860  -22.6730   20.9100 C   0  0  0  0  0  3  0  0  0  0  0  0
  -28.4090  -23.9750   20.0310 C   0  0  0  0  0  3  0  0  0  0  0  0
  -28.1430  -25.3270   20.8230 C   0  0  0  0  0  3  0  0  0  0  0  0
  -28.2540  -26.6200   20.1300 O   0  0  0  0  0  0  0  0  0  0  0  0
  -24.5630  -31.9660   23.2410 C   0  0  0  0  0  0  0  0  0  0  0  0
  -27.1330  -27.4480   20.1430 C   0  0  0  0  0  0  0  0  0  0  0  0
  -23.3350  -30.5700   21.6140 C   0  0  0  0  0  3  0  0  0  0  0  0
  -24.7650  -29.0250   20.1630 C   0  0  0  0  0  0  0  0  0  0  0  0
  -25.8640  -30.9060   21.3830 C   0  0  0  0  0  2  0  0  0  0  0  0
  -25.9400  -29.5290   20.7400 C   0  0  0  0  0  0  0  0  0  0  0  0
  -27.1310  -28.7510   20.7190 C   0  0  0  0  0  3  0  0  0  0  0  0
  -25.9440  -26.9840   19.5470 C   0  0  0  0  0  3  0  0  0  0  0  0
  -24.7670  -27.7560   19.5590 C   0  0  0  0  0  3  0  0  0  0  0  0
  -23.5280  -29.8980   20.2280 C   0  0  0  0  0  2  0  0  0  0  0  0
  -24.6080  -31.1640   22.1370 N   0  0  0  0  0  0  0  0  0  0  0  0
  -23.4900  -32.2400   23.7960 O   0  0  0  0  0  0  0  0  0  0  0  0
  -22.6910  -29.5500   22.5800 C   0  0  0  0  0  0  0  0  0  0  0  0
  -21.3670  -29.3580   22.4610 N   0  0  0  0  0  0  0  0  0  0  0  0
  -23.3800  -28.9340   23.3980 O   0  0  0  0  0  0  0  0  0  0  0  0
  -20.8680  -29.9090   21.7740 H   0  0  0  0  0  0  0  0  0  0  0  0
  -18.0080  -28.1160   22.9590 C   0  0  0  0  0  0  0  0  0  0  0  0
  -20.5610  -28.4160   23.2360 C   0  0  0  0  0  3  0  0  0  0  0  0
  -20.6890  -26.9810   22.6740 C   0  0  0  0  0  2  0  0  0  0  0  0
  -19.5950  -26.6320   21.6590 C   0  0  0  0  0  2  0  0  0  0  0  0
  -18.2090  -26.7630   22.2970 C   0  0  0  0  0  2  0  0  0  0  0  0
  -19.1140  -28.8980   23.3870 C   0  0  0  0  0  0  0  0  0  0  0  0
  -18.8740  -30.1620   23.9660 C   0  0  0  0  0  3  0  0  0  0  0  0
  -17.5610  -30.6460   24.1230 C   0  0  0  0  0  3  0  0  0  0  0  0
  -16.4700  -29.8600   23.7130 C   0  0  0  0  0  3  0  0  0  0  0  0
  -16.6940  -28.5980   23.1360 C   0  0  0  0  0  3  0  0  0  0  0  0
  -25.8570  -32.5960   23.8460 C   0  0  0  0  0  3  0  0  0  0  0  0
  -26.3830  -31.8280   25.1190 C   0  0  1  0  0  0  0  0  0  0  0  0
  -25.3010  -31.6040   26.2010 C   0  0  0  0  0  1  0  0  0  0  0  0
  -26.9530  -30.4470   24.7240 C   0  0  0  0  0  1  0  0  0  0  0  0
  -27.5480  -32.6180   25.7640 C   0  0  0  0  0  1  0  0  0  0  0  0
  -25.5580  -33.9980   24.1720 N   0  0  0  0  0  0  0  0  0  0  0  0
  -25.8970  -35.0450   23.4080 C   0  0  0  0  0  0  0  0  0  0  0  0
  -26.5660  -34.9330   22.3770 O   0  0  0  0  0  0  0  0  0  0  0  0
  -24.9660  -34.1590   24.9740 H   0  0  0  0  0  0  0  0  0  0  0  0
  -24.1890  -36.8550   23.0390 C   0  0  0  0  0  1  0  0  0  0  0  0
  -25.4200  -36.4380   23.8610 C   0  0  0  0  0  3  0  0  0  0  0  0
  -27.5600  -37.3010   24.7040 C   0  0  0  0  0  1  0  0  0  0  0  0
  -26.4630  -37.4830   23.7570 N   0  0  0  0  0  0  0  0  0  0  0  0
  -26.0630  -38.4050   23.9110 H   0  0  0  0  0  0  0  0  0  0  0  0
  1  2  1  0
  2  4  1  0
  3  6  1  0
  3  5  1  0
  5 19  1  0
  5  1  1  0
  6 49  1  0
  6  7  1  0
  7 10  1  0
  7  4  1  0
  8  1  2  0
  9  7  1  0
 11 19  1  0
 12 17  1  0
 13 14  1  0
 13 12  1  0
 15 14  1  0
 15 24  1  0
 15 16  1  0
 17 11  1  0
 17 16  1  0
 18 11  2  0
 19 20  1  0
 21 22  2  0
 22 41  1  0
 23 22  1  0
 23 26  1  0
 24 21  1  0
 24 25  1  0
 25 23  2  0
 26 27  1  0
 27 28  2  0
 29 32  1  0
 29 28  1  0
 30 29  2  0
 31 30  1  0
 31 26  2  0
 32 33  1  0
 33 34  1  0
 34 35  2  0
 36 35  1  0
 36 40  1  0
 37 36  2  0
 38 33  2  0
 38 37  1  0
 39 38  1  0
 41 42  1  0
 42 45  1  0
 42 44  1  0
 43 41  2  0
 46 47  1  0
 46 21  1  0
 48 46  1  0
 49 50  2  0
 51 52  2  0
 51 50  1  0
 53 55  1  0
 53 52  1  0
 54 65  2  0
 55 60  1  0
 56 64  1  0
 56 66  1  0
 57 63  1  0
 57 59  1  0
 58 64  1  0
 59 58  1  0
 60 59  2  0
 61 62  1  0
 61 55  2  0
 62 57  2  0
 63 56  1  0
 64 54  1  0
 66 68  2  0
 67 66  1  0
 69 67  1  0
 70 79  2  0
 70 75  1  0
 71 67  1  0
 71 75  1  0
 72 71  1  0
 73 74  1  0
 73 72  1  0
 74 70  1  0
 75 76  2  0
 76 77  1  0
 78 77  2  0
 79 78  1  0
 80 54  1  0
 80 85  1  0
 80 81  1  0
 81 84  1  1
 81 82  1  0
 83 81  1  0
 85 88  1  0
 86 90  1  0
 86 85  1  0
 87 86  2  0
 90 89  1  0
 92 90  1  0
 92 93  1  0
 92 91  1  0
M  ISO  4  11 100  19 100  52 101  53 101
M  END
>  <TORSDO>  (76) 
F 20

>  <SCORE>  (76) 
-13.378

>  <name>  (76) 
75

>  <ligand_id>  (76) 
75

>  <original_smiles>  (76) 
[H]c1c([H])c([H])c2c(c1[H])C([H])([H])C([H])([H])C([H])([H])C2([H])N([H])C(=O)C1([H])N(C(=O)C([H])(N([H])C(=O)C([H])(N([H])C([H])([H])[H])C([H])([H])[H])C(C([H])([H])[H])(C([H])([H])[H])C([H])([H])[H])C([H])([H])c2c([H])c(OC([H])([H])C([H])([H])C([H])([H])C([H])([H])C3([H])C([H])([H])C([H])(N([H])C(=O)N4C([H])([H])C([H])([H])C([H])([H])C([H])(n5nc(-c6c([H])c([H])c(Oc7c([H])c([H])c(F)c([H])c7F)c([H])c6[H])c(C(=O)N([H])[H])c5N([H])[H])C4([H])[H])C(=O)C([H])([H])C([H])([H])[N+]3([H])[H])c([H])c([H])c2C1([H])[H]

>  <smiles>  (76) 
[H]c1c([H])c([H])c2c(c1[H])C([H])([H])C([H])([H])C([H])([H])C2([H])N([H])C(=O)C1([H])N(C(=O)C([H])(N([H])C(=O)C([H])(N([H])C([H])([H])[H])C([H])([H])[H])C(C([H])([H])[H])(C([H])([H])[H])C([H])([H])[H])C([H])([H])c2c([H])c(OC([H])([H])C([H])([H])C([H])([H])C([H])([H])C3([H])C([H])([H])C([H])(N([H])C(=O)N4C([H])([H])C([H])([H])C([H])([H])C([H])(n5nc(-c6c([H])c([H])c(Oc7c([H])c([H])c(F)c([H])c7F)c([H])c6[H])c(C(=O)N([H])[H])c5N([H])[H])C4([H])[H])C(=O)C([H])([H])C([H])([H])[N+]3([H])[H])c([H])c([H])c2C1([H])[H]

$$$$
76:0:0
     RDKit          3D

 88 97  0  0  1  0  0  0  0  0999 V2000
  -30.5010  -15.2840   20.2800 C   0  0  0  0  0  0  0  0  0  0  0  0
  -30.4880  -12.7780   19.6080 C   0  0  0  0  0  2  0  0  0  0  0  0
  -29.6250  -12.4440   18.3670 C   0  0  0  0  0  2  0  0  0  0  0  0
  -28.1480  -12.2270   18.7560 C   0  0  0  0  0  2  0  0  0  0  0  0
  -27.6560  -13.2790   19.7780 C   0  0  0  0  0  3  0  0  0  0  0  0
  -28.6590  -13.5270   20.9250 C   0  0  0  0  0  2  0  0  0  0  0  0
  -29.9050  -13.9880   20.2920 N   0  0  0  0  0  0  0  0  0  0  0  0
  -31.7380  -15.2170   20.1750 O   0  0  0  0  0  0  0  0  0  0  0  0
  -26.2770  -20.1750   19.6550 C   0  0  0  0  0  3  0  0  0  0  0  0
  -27.1830  -21.0880   19.2540 C   0  0  0  0  0  3  0  0  0  0  0  0
  -26.6050  -18.8260   20.2570 C   0  0  0  0  0  2  0  0  0  0  0  0
  -28.3550  -16.8690   20.1910 C   0  0  0  0  0  2  0  0  0  0  0  0
  -30.2360  -18.1420   19.8790 C   0  0  0  0  0  2  0  0  0  0  0  0
  -28.7030  -21.0440   19.4460 C   0  0  0  0  0  3  0  0  0  0  0  0
  -27.9900  -18.3660   19.7880 C   0  0  0  0  0  3  0  0  0  0  0  0
  -29.0910  -19.4060   20.1370 C   0  0  0  0  0  3  0  0  0  0  0  0
  -29.8080  -16.6050   20.1560 N   0  0  0  0  0  0  0  0  0  0  0  0
  -25.2790  -13.9260   20.4450 C   0  0  0  0  0  0  0  0  0  0  0  0
  -24.1830  -13.1890   20.7930 C   0  0  0  0  0  0  0  0  0  0  0  0
  -24.6180  -11.8270   20.8150 C   0  0  0  0  0  0  0  0  0  0  0  0
  -26.3050  -13.0170   20.2590 N   0  0  0  0  0  0  0  0  0  0  0  0
  -25.9180  -11.7510   20.5590 N   0  0  0  0  0  0  0  0  0  0  0  0
  -23.8540  -10.5900   21.0070 C   0  0  0  0  0  0  0  0  0  0  0  0
  -24.2540   -9.6130   21.9440 C   0  0  0  0  0  3  0  0  0  0  0  0
  -23.4880   -8.4430   22.1300 C   0  0  0  0  0  3  0  0  0  0  0  0
  -22.3060   -8.2420   21.3760 C   0  0  0  0  0  0  0  0  0  0  0  0
  -21.9230   -9.2090   20.4280 C   0  0  0  0  0  3  0  0  0  0  0  0
  -22.6920  -10.3690   20.2400 C   0  0  0  0  0  3  0  0  0  0  0  0
  -21.5120   -7.1250   21.4710 O   0  0  0  0  0  0  0  0  0  0  0  0
  -21.4780   -6.3620   22.6110 C   0  0  0  0  0  0  0  0  0  0  0  0
  -21.1520   -6.9140   23.8700 C   0  0  0  0  0  3  0  0  0  0  0  0
  -21.0560   -6.0810   25.0020 C   0  0  0  0  0  3  0  0  0  0  0  0
  -21.2830   -4.6960   24.8790 C   0  0  0  0  0  0  0  0  0  0  0  0
  -21.6050   -4.1450   23.6270 C   0  0  0  0  0  3  0  0  0  0  0  0
  -21.7000   -4.9740   22.4960 C   0  0  0  0  0  0  0  0  0  0  0  0
  -21.9890   -4.4350   21.2870 F   0  0  0  0  0  0  0  0  0  0  0  0
  -21.1860   -3.8960   25.9650 F   0  0  0  0  0  0  0  0  0  0  0  0
  -22.7890  -13.7100   20.9850 C   0  0  0  0  0  0  0  0  0  0  0  0
  -22.0080  -13.0720   21.8470 N   0  0  0  0  0  0  0  0  0  0  0  0
  -22.3990  -14.7240   20.4060 O   0  0  0  0  0  0  0  0  0  0  0  0
  -22.3390  -12.2650   22.3510 H   0  0  0  0  0  0  0  0  0  0  0  0
  -21.0670  -13.4020   22.0110 H   0  0  0  0  0  0  0  0  0  0  0  0
  -25.4680  -15.2870   20.2390 N   0  0  0  0  0  0  0  0  0  0  0  0
  -24.7070  -15.9480   20.3360 H   0  0  0  0  0  0  0  0  0  0  0  0
  -26.3340  -15.7120   19.9380 H   0  0  0  0  0  0  0  0  0  0  0  0
  -28.9740  -22.7480   19.9170 C   0  0  0  0  0  3  0  0  0  0  0  0
  -28.1110  -24.2560   19.4580 C   0  0  0  0  0  3  0  0  0  0  0  0
  -28.3260  -25.8600   19.7070 O   0  0  0  0  0  0  0  0  0  0  0  0
  -24.6440  -31.5820   22.9130 C   0  0  0  0  0  0  0  0  0  0  0  0
  -27.2850  -26.9170   19.6790 C   0  0  0  0  0  0  0  0  0  0  0  0
  -23.4620  -30.2080   21.2460 C   0  0  0  0  0  3  0  0  0  0  0  0
  -24.9340  -28.7080   19.7380 C   0  0  0  0  0  0  0  0  0  0  0  0
  -26.0180  -30.5080   21.0690 C   0  0  0  0  0  2  0  0  0  0  0  0
  -26.1150  -29.1270   20.3640 C   0  0  0  0  0  0  0  0  0  0  0  0
  -27.2830  -28.2480   20.3180 C   0  0  0  0  0  3  0  0  0  0  0  0
  -26.0750  -26.6480   19.0030 C   0  0  0  0  0  3  0  0  0  0  0  0
  -24.9370  -27.4910   19.0380 C   0  0  0  0  0  3  0  0  0  0  0  0
  -23.6900  -29.5840   19.8390 C   0  0  0  0  0  2  0  0  0  0  0  0
  -24.7290  -30.7920   21.7960 N   0  0  0  0  0  0  0  0  0  0  0  0
  -23.5580  -31.8160   23.4660 O   0  0  0  0  0  0  0  0  0  0  0  0
  -22.8220  -29.1520   22.1840 C   0  0  0  0  0  0  0  0  0  0  0  0
  -21.4910  -28.9720   22.1060 N   0  0  0  0  0  0  0  0  0  0  0  0
  -23.5290  -28.5010   22.9600 O   0  0  0  0  0  0  0  0  0  0  0  0
  -20.9720  -29.5500   21.4610 H   0  0  0  0  0  0  0  0  0  0  0  0
  -18.1520  -27.6830   22.6850 C   0  0  0  0  0  0  0  0  0  0  0  0
  -20.7150  -27.9850   22.8650 C   0  0  0  0  0  3  0  0  0  0  0  0
  -20.8170  -26.5810   22.2230 C   0  0  0  0  0  2  0  0  0  0  0  0
  -19.6840  -26.2820   21.2380 C   0  0  0  0  0  2  0  0  0  0  0  0
  -18.3260  -26.3700   21.9390 C   0  0  0  0  0  2  0  0  0  0  0  0
  -19.2720  -28.4480   23.1070 C   0  0  0  0  0  0  0  0  0  0  0  0
  -19.0490  -29.6750   23.7720 C   0  0  0  0  0  3  0  0  0  0  0  0
  -17.7420  -30.1370   24.0150 C   0  0  0  0  0  3  0  0  0  0  0  0
  -16.6370  -29.3680   23.6060 C   0  0  0  0  0  3  0  0  0  0  0  0
  -16.8440  -28.1430   22.9460 C   0  0  0  0  0  3  0  0  0  0  0  0
  -25.9070  -32.2470   23.5440 C   0  0  0  0  0  3  0  0  0  0  0  0
  -25.5320  -33.6010   23.9850 N   0  0  0  0  0  0  0  0  0  0  0  0
  -25.7890  -34.7290   23.3090 C   0  0  0  0  0  0  0  0  0  0  0  0
  -26.4270  -34.7390   22.2530 O   0  0  0  0  0  0  0  0  0  0  0  0
  -24.9560  -33.6580   24.8120 H   0  0  0  0  0  0  0  0  0  0  0  0
  -23.9640  -36.4590   23.1650 C   0  0  0  0  0  1  0  0  0  0  0  0
  -25.2560  -36.0530   23.8920 C   0  0  0  0  0  3  0  0  0  0  0  0
  -27.3820  -36.9850   24.7000 C   0  0  0  0  0  1  0  0  0  0  0  0
  -26.2300  -37.1640   23.8210 N   0  0  0  0  0  0  0  0  0  0  0  0
  -25.7840  -38.0470   24.0570 H   0  0  0  0  0  0  0  0  0  0  0  0
  -26.4980  -31.4250   24.7560 C   0  0  1  0  0  0  0  0  0  0  0  0
  -25.4540  -31.0820   25.8460 C   0  0  0  0  0  1  0  0  0  0  0  0
  -27.1240  -30.0960   24.2720 C   0  0  0  0  0  1  0  0  0  0  0  0
  -27.6360  -32.2300   25.4290 C   0  0  0  0  0  1  0  0  0  0  0  0
  1  7  1  0
  2  7  1  0
  3  4  1  0
  3  2  1  0
  5  4  1  0
  5 21  1  0
  5  6  1  0
  7  6  1  0
  8  1  2  0
  9 11  1  0
 10 14  1  0
 10  9  2  0
 13 17  1  0
 14 46  1  0
 14 16  1  0
 15 16  1  0
 15 12  1  0
 15 11  1  0
 16 13  1  0
 17 12  1  0
 17  1  1  0
 18 19  2  0
 19 20  1  0
 19 38  1  0
 20 23  1  0
 21 18  1  0
 21 22  1  0
 22 20  2  0
 23 24  1  0
 24 25  2  0
 26 29  1  0
 26 25  1  0
 27 26  2  0
 28 27  1  0
 28 23  2  0
 29 30  1  0
 30 31  1  0
 31 32  2  0
 33 32  1  0
 33 37  1  0
 34 33  2  0
 35 30  2  0
 35 34  1  0
 36 35  1  0
 38 39  1  0
 39 42  1  0
 39 41  1  0
 40 38  2  0
 43 44  1  0
 43 18  1  0
 45 43  1  0
 47 48  1  0
 47 46  2  0
 49 60  2  0
 50 48  1  0
 50 55  1  0
 51 59  1  0
 51 61  1  0
 52 58  1  0
 52 54  1  0
 53 59  1  0
 54 53  1  0
 55 54  2  0
 56 57  1  0
 56 50  2  0
 57 52  2  0
 58 51  1  0
 59 49  1  0
 61 63  2  0
 62 61  1  0
 64 62  1  0
 65 74  2  0
 65 70  1  0
 66 62  1  0
 66 70  1  0
 67 66  1  0
 68 69  1  0
 68 67  1  0
 69 65  1  0
 70 71  2  0
 71 72  1  0
 73 72  2  0
 74 73  1  0
 75 49  1  0
 75 76  1  0
 75 85  1  0
 76 79  1  0
 77 81  1  0
 77 76  1  0
 78 77  2  0
 81 80  1  0
 83 81  1  0
 83 84  1  0
 83 82  1  0
 85 88  1  1
 85 86  1  0
 87 85  1  0
M  ISO  4   1 100  17 100  47 101  48 101
M  END
>  <TORSDO>  (77) 
F 17

>  <SCORE>  (77) 
-13.504

>  <name>  (77) 
76

>  <ligand_id>  (77) 
76

>  <original_smiles>  (77) 
[H]C1=C([H])C([H])(C([H])([H])C([H])([H])Oc2c([H])c([H])c3c(c2[H])C([H])([H])N(C(=O)C([H])(N([H])C(=O)C([H])(N([H])C([H])([H])[H])C([H])([H])[H])C(C([H])([H])[H])(C([H])([H])[H])C([H])([H])[H])C([H])(C(=O)N([H])C2([H])c4c([H])c([H])c([H])c([H])c4C([H])([H])C([H])([H])C2([H])[H])C3([H])[H])C2([H])C([H])([H])N(C(=O)N3C([H])([H])C([H])([H])C([H])([H])C([H])(n4nc(-c5c([H])c([H])c(Oc6c([H])c([H])c(F)c([H])c6F)c([H])c5[H])c(C(=O)N([H])[H])c4N([H])[H])C3([H])[H])C([H])([H])C2([H])C1([H])[H]

>  <smiles>  (77) 
[H]C1=C([H])C([H])(C([H])([H])C([H])([H])Oc2c([H])c([H])c3c(c2[H])C([H])([H])N(C(=O)C([H])(N([H])C(=O)C([H])(N([H])C([H])([H])[H])C([H])([H])[H])C(C([H])([H])[H])(C([H])([H])[H])C([H])([H])[H])C([H])(C(=O)N([H])C2([H])c4c([H])c([H])c([H])c([H])c4C([H])([H])C([H])([H])C2([H])[H])C3([H])[H])C2([H])C([H])([H])N(C(=O)N3C([H])([H])C([H])([H])C([H])([H])C([H])(n4nc(-c5c([H])c([H])c(Oc6c([H])c([H])c(F)c([H])c6F)c([H])c5[H])c(C(=O)N([H])[H])c4N([H])[H])C3([H])[H])C([H])([H])C2([H])C1([H])[H]

$$$$
77:0:0
     RDKit          3D

 90 98  0  0  1  0  0  0  0  0999 V2000
  -29.6750  -21.0680   20.3360 C   0  0  0  0  0  3  0  0  0  0  0  0
  -29.2040  -19.6850   20.7950 N   0  0  0  0  0  4  0  0  0  0  0  0
  -29.2040  -19.6890   21.8010 H   0  0  0  0  0  0  0  0  0  0  0  0
  -28.2490  -19.5700   20.4940 H   0  0  0  0  0  0  0  0  0  0  0  0
  -30.5930  -14.7190   20.3960 C   0  0  0  0  0  0  0  0  0  0  0  0
  -30.3670  -12.4610   19.3770 C   0  0  0  0  0  2  0  0  0  0  0  0
  -29.4330  -12.5580   18.1520 C   0  0  0  0  0  2  0  0  0  0  0  0
  -27.9590  -12.3990   18.5770 C   0  0  0  0  0  2  0  0  0  0  0  0
  -27.5840  -13.2770   19.8000 C   0  0  0  0  0  3  0  0  0  0  0  0
  -28.6420  -13.1840   20.9220 C   0  0  0  0  0  2  0  0  0  0  0  0
  -29.9430  -13.5120   20.3250 N   0  0  0  0  0  0  0  0  0  0  0  0
  -31.8040  -14.7990   20.1800 O   0  0  0  0  0  0  0  0  0  0  0  0
  -29.3400  -17.8930   19.0500 C   0  0  0  0  0  0  0  0  0  0  0  0
  -29.5720  -16.3870   18.9360 C   0  0  0  0  0  2  0  0  0  0  0  0
  -29.8560  -17.0830   21.1900 C   0  0  0  0  0  2  0  0  0  0  0  0
  -29.9310  -18.4190   20.3310 C   0  0  0  0  0  3  0  0  0  0  0  0
  -29.8150  -15.8610   20.2980 N   0  0  0  0  0  0  0  0  0  0  0  0
  -28.7220  -18.5470   18.2050 O   0  0  0  0  0  0  0  0  0  0  0  0
  -25.1910  -13.8780   20.5020 C   0  0  0  0  0  0  0  0  0  0  0  0
  -24.1200  -13.1060   20.8610 C   0  0  0  0  0  0  0  0  0  0  0  0
  -24.5840  -11.7550   20.8450 C   0  0  0  0  0  0  0  0  0  0  0  0
  -26.2370  -12.9960   20.2830 N   0  0  0  0  0  0  0  0  0  0  0  0
  -25.8780  -11.7150   20.5530 N   0  0  0  0  0  0  0  0  0  0  0  0
  -23.8570  -10.4930   21.0310 C   0  0  0  0  0  0  0  0  0  0  0  0
  -24.2780   -9.5300   21.9750 C   0  0  0  0  0  3  0  0  0  0  0  0
  -23.5490   -8.3340   22.1500 C   0  0  0  0  0  3  0  0  0  0  0  0
  -22.3870   -8.0930   21.3810 C   0  0  0  0  0  0  0  0  0  0  0  0
  -21.9860   -9.0430   20.4270 C   0  0  0  0  0  3  0  0  0  0  0  0
  -22.7150  -10.2310   20.2490 C   0  0  0  0  0  3  0  0  0  0  0  0
  -21.6320   -6.9470   21.4650 O   0  0  0  0  0  0  0  0  0  0  0  0
  -21.5660   -6.2130   22.6220 C   0  0  0  0  0  0  0  0  0  0  0  0
  -21.1120   -6.7740   23.8360 C   0  0  0  0  0  3  0  0  0  0  0  0
  -20.9940   -5.9660   24.9840 C   0  0  0  0  0  3  0  0  0  0  0  0
  -21.3180   -4.5980   24.9190 C   0  0  0  0  0  0  0  0  0  0  0  0
  -21.7640   -4.0370   23.7100 C   0  0  0  0  0  3  0  0  0  0  0  0
  -21.8850   -4.8410   22.5640 C   0  0  0  0  0  0  0  0  0  0  0  0
  -22.2950   -4.2910   21.3960 F   0  0  0  0  0  0  0  0  0  0  0  0
  -21.1970   -3.8190   26.0190 F   0  0  0  0  0  0  0  0  0  0  0  0
  -22.7190  -13.5850   21.1120 C   0  0  0  0  0  0  0  0  0  0  0  0
  -21.9810  -12.8920   21.9720 N   0  0  0  0  0  0  0  0  0  0  0  0
  -22.2880  -14.6080   20.5820 O   0  0  0  0  0  0  0  0  0  0  0  0
  -22.3420  -12.0640   22.4230 H   0  0  0  0  0  0  0  0  0  0  0  0
  -21.0410  -13.1940   22.1850 H   0  0  0  0  0  0  0  0  0  0  0  0
  -25.3580  -15.2480   20.3190 N   0  0  0  0  0  0  0  0  0  0  0  0
  -24.5910  -15.9040   20.4180 H   0  0  0  0  0  0  0  0  0  0  0  0
  -26.2160  -15.6840   20.0090 H   0  0  0  0  0  0  0  0  0  0  0  0
  -28.6670  -22.3090   20.5530 C   0  0  0  0  0  3  0  0  0  0  0  0
  -29.1400  -23.8360   20.3280 C   0  0  0  0  0  3  0  0  0  0  0  0
  -28.0020  -24.9590   20.2080 C   0  0  0  0  0  3  0  0  0  0  0  0
  -28.2850  -26.4280   20.2180 O   0  0  0  0  0  0  0  0  0  0  0  0
  -24.6060  -31.8910   23.2580 C   0  0  0  0  0  0  0  0  0  0  0  0
  -27.1800  -27.3070   20.1790 C   0  0  0  0  0  0  0  0  0  0  0  0
  -23.3880  -30.4990   21.6280 C   0  0  0  0  0  3  0  0  0  0  0  0
  -24.8230  -28.9490   20.1900 C   0  0  0  0  0  0  0  0  0  0  0  0
  -25.9300  -30.8040   21.4280 C   0  0  0  0  0  2  0  0  0  0  0  0
  -26.0020  -29.4250   20.7780 C   0  0  0  0  0  0  0  0  0  0  0  0
  -27.1840  -28.6180   20.7610 C   0  0  0  0  0  3  0  0  0  0  0  0
  -25.9720  -26.8970   19.5640 C   0  0  0  0  0  3  0  0  0  0  0  0
  -24.8130  -27.6900   19.5730 C   0  0  0  0  0  3  0  0  0  0  0  0
  -23.5900  -29.8260   20.2460 C   0  0  0  0  0  2  0  0  0  0  0  0
  -24.6610  -31.0820   22.1600 N   0  0  0  0  0  0  0  0  0  0  0  0
  -23.5260  -32.1730   23.7990 O   0  0  0  0  0  0  0  0  0  0  0  0
  -22.7280  -29.4830   22.5900 C   0  0  0  0  0  0  0  0  0  0  0  0
  -21.4020  -29.3010   22.4650 N   0  0  0  0  0  0  0  0  0  0  0  0
  -23.4090  -28.8590   23.4090 O   0  0  0  0  0  0  0  0  0  0  0  0
  -20.9130  -29.8550   21.7770 H   0  0  0  0  0  0  0  0  0  0  0  0
  -18.0280  -28.0960   22.9700 C   0  0  0  0  0  0  0  0  0  0  0  0
  -20.5850  -28.3660   23.2410 C   0  0  0  0  0  3  0  0  0  0  0  0
  -20.6930  -26.9310   22.6730 C   0  0  0  0  0  2  0  0  0  0  0  0
  -19.5920  -26.5990   21.6600 C   0  0  0  0  0  2  0  0  0  0  0  0
  -18.2090  -26.7430   22.3020 C   0  0  0  0  0  2  0  0  0  0  0  0
  -19.1440  -28.8640   23.3970 C   0  0  0  0  0  0  0  0  0  0  0  0
  -18.9200  -30.1300   23.9820 C   0  0  0  0  0  3  0  0  0  0  0  0
  -17.6130  -30.6270   24.1440 C   0  0  0  0  0  3  0  0  0  0  0  0
  -16.5120  -29.8550   23.7330 C   0  0  0  0  0  3  0  0  0  0  0  0
  -16.7210  -28.5920   23.1530 C   0  0  0  0  0  3  0  0  0  0  0  0
  -25.8940  -32.5210   23.8710 C   0  0  0  0  0  3  0  0  0  0  0  0
  -26.4140  -31.7520   25.1470 C   0  0  1  0  0  0  0  0  0  0  0  0
  -25.3250  -31.5210   26.2210 C   0  0  0  0  0  1  0  0  0  0  0  0
  -26.9890  -30.3700   24.7570 C   0  0  0  0  0  1  0  0  0  0  0  0
  -27.5710  -32.5420   25.8010 C   0  0  0  0  0  1  0  0  0  0  0  0
  -25.5900  -33.9220   24.2010 N   0  0  0  0  0  0  0  0  0  0  0  0
  -25.9150  -34.9720   23.4350 C   0  0  0  0  0  0  0  0  0  0  0  0
  -26.5710  -34.8640   22.3950 O   0  0  0  0  0  0  0  0  0  0  0  0
  -25.0060  -34.0790   25.0090 H   0  0  0  0  0  0  0  0  0  0  0  0
  -24.1830  -36.7660   23.1010 C   0  0  0  0  0  1  0  0  0  0  0  0
  -25.4360  -36.3630   23.8950 C   0  0  0  0  0  3  0  0  0  0  0  0
  -27.5830  -37.2470   24.6920 C   0  0  0  0  0  1  0  0  0  0  0  0
  -26.4680  -37.4140   23.7640 N   0  0  0  0  0  0  0  0  0  0  0  0
  -26.0660  -38.3350   23.9150 H   0  0  0  0  0  0  0  0  0  0  0  0
  1 47  2  0
  1  2  1  0
  2  3  1  0
  4  2  1  0
  6 11  1  0
  7  8  1  0
  7  6  1  0
  9  8  1  0
  9 22  1  0
  9 10  1  0
 11  5  1  0
 11 10  1  0
 12  5  2  0
 13 16  1  0
 14 13  1  0
 14 17  1  0
 16  2  1  0
 16 15  1  0
 17  5  1  0
 17 15  1  0
 18 13  2  0
 19 20  2  0
 20 39  1  0
 21 20  1  0
 21 24  1  0
 22 19  1  0
 22 23  1  0
 23 21  2  0
 24 25  1  0
 25 26  2  0
 27 30  1  0
 27 26  1  0
 28 27  2  0
 29 28  1  0
 29 24  2  0
 30 31  1  0
 31 32  1  0
 32 33  2  0
 34 33  1  0
 34 38  1  0
 35 34  2  0
 36 31  2  0
 36 35  1  0
 37 36  1  0
 39 40  1  0
 40 43  1  0
 40 42  1  0
 41 39  2  0
 44 45  1  0
 44 19  1  0
 46 44  1  0
 48 47  1  0
 49 50  1  0
 49 48  2  0
 51 62  2  0
 52 50  1  0
 52 57  1  0
 53 61  1  0
 53 63  1  0
 54 60  1  0
 54 56  1  0
 55 61  1  0
 56 55  1  0
 57 56  2  0
 58 59  1  0
 58 52  2  0
 59 54  2  0
 60 53  1  0
 61 51  1  0
 63 65  2  0
 64 63  1  0
 66 64  1  0
 67 76  2  0
 67 72  1  0
 68 64  1  0
 68 72  1  0
 69 68  1  0
 70 71  1  0
 70 69  1  0
 71 67  1  0
 72 73  2  0
 73 74  1  0
 75 74  2  0
 76 75  1  0
 77 51  1  0
 77 82  1  0
 77 78  1  0
 78 81  1  1
 78 79  1  0
 80 78  1  0
 82 85  1  0
 83 87  1  0
 83 82  1  0
 84 83  2  0
 87 86  1  0
 89 87  1  0
 89 90  1  0
 89 88  1  0
M  ISO  4   5 100  17 100  49 101  50 101
M  END
>  <TORSDO>  (78) 
F 20

>  <SCORE>  (78) 
-13.821

>  <name>  (78) 
77

>  <ligand_id>  (78) 
77

>  <original_smiles>  (78) 
[H]c1c([H])c([H])c2c(c1[H])C([H])([H])C([H])([H])C([H])([H])C2([H])N([H])C(=O)C1([H])N(C(=O)C([H])(N([H])C(=O)C([H])(N([H])C([H])([H])[H])C([H])([H])[H])C(C([H])([H])[H])(C([H])([H])[H])C([H])([H])[H])C([H])([H])c2c([H])c(OC([H])([H])C([H])([H])C([H])([H])C([H])([H])[N+]([H])([H])C3([H])C(=O)C([H])([H])N(C(=O)N4C([H])([H])C([H])([H])C([H])([H])C([H])(n5nc(-c6c([H])c([H])c(Oc7c([H])c([H])c(F)c([H])c7F)c([H])c6[H])c(C(=O)N([H])[H])c5N([H])[H])C4([H])[H])C3([H])[H])c([H])c([H])c2C1([H])[H]

>  <smiles>  (78) 
[H]c1c([H])c([H])c2c(c1[H])C([H])([H])C([H])([H])C([H])([H])C2([H])N([H])C(=O)C1([H])N(C(=O)C([H])(N([H])C(=O)C([H])(N([H])C([H])([H])[H])C([H])([H])[H])C(C([H])([H])[H])(C([H])([H])[H])C([H])([H])[H])C([H])([H])c2c([H])c(OC([H])([H])C([H])([H])C([H])([H])C([H])([H])[N+]([H])([H])C3([H])C(=O)C([H])([H])N(C(=O)N4C([H])([H])C([H])([H])C([H])([H])C([H])(n5nc(-c6c([H])c([H])c(Oc7c([H])c([H])c(F)c([H])c7F)c([H])c6[H])c(C(=O)N([H])[H])c5N([H])[H])C4([H])[H])C3([H])[H])c([H])c([H])c2C1([H])[H]

$$$$
78:0:0
     RDKit          3D

102112  0  0  1  0  0  0  0  0999 V2000
  -31.0130  -21.4240   20.3890 C   0  0  0  0  0  3  0  0  0  0  0  0
  -30.9450  -22.7580   20.8250 C   0  0  0  0  0  3  0  0  0  0  0  0
  -30.7350  -20.6780   22.6770 C   0  0  0  0  0  3  0  0  0  0  0  0
  -30.8990  -20.3620   21.3120 C   0  0  0  0  0  0  0  0  0  0  0  0
  -30.6720  -22.0220   23.1270 C   0  0  0  0  0  0  0  0  0  0  0  0
  -30.7690  -23.0960   22.1880 C   0  0  0  0  0  0  0  0  0  0  0  0
  -30.5010  -22.1880   24.5700 C   0  0  0  0  0  0  0  0  0  0  0  0
  -29.5040  -21.5670   25.1940 N   0  0  0  0  0  4  0  0  0  0  0  0
  -31.3710  -22.8920   25.2840 N   0  0  0  0  0  0  0  0  0  0  0  0
  -28.8110  -21.0790   24.6450 H   0  0  0  0  0  0  0  0  0  0  0  0
  -29.4240  -21.5250   26.1980 H   0  0  0  0  0  0  0  0  0  0  0  0
  -32.1240  -23.3630   24.8040 H   0  0  0  0  0  0  0  0  0  0  0  0
  -31.2640  -23.0410   26.2740 H   0  0  0  0  0  0  0  0  0  0  0  0
  -30.9330  -18.9480   20.8280 C   0  0  0  0  0  3  0  0  0  0  0  0
  -30.5400  -17.7200   21.6360 C   0  0  0  0  0  2  0  0  0  0  0  0
  -31.3140  -17.2180   19.4520 C   0  0  0  0  0  2  0  0  0  0  0  0
  -31.1790  -16.5760   20.8440 C   0  0  0  0  0  3  0  0  0  0  0  0
  -31.3460  -18.6440   19.6650 N   0  0  0  0  0  2  0  0  0  0  0  0
  -30.8840  -14.2610   20.0490 C   0  0  0  0  0  0  0  0  0  0  0  0
  -30.3750  -12.1240   18.9410 C   0  0  0  0  0  2  0  0  0  0  0  0
  -29.3650  -12.3270   17.7950 C   0  0  0  0  0  2  0  0  0  0  0  0
  -27.9260  -12.2220   18.3290 C   0  0  0  0  0  2  0  0  0  0  0  0
  -27.6890  -13.0960   19.5890 C   0  0  0  0  0  3  0  0  0  0  0  0
  -28.8160  -12.9070   20.6340 C   0  0  0  0  0  2  0  0  0  0  0  0
  -30.1100  -13.1440   19.9720 N   0  0  0  0  0  0  0  0  0  0  0  0
  -31.9180  -14.3850   19.3910 O   0  0  0  0  0  0  0  0  0  0  0  0
  -30.4620  -15.2840   20.8170 N   0  0  0  0  0  0  0  0  0  0  0  0
  -29.6220  -15.1680   21.3680 H   0  0  0  0  0  0  0  0  0  0  0  0
  -25.3880  -13.7500   20.5430 C   0  0  0  0  0  0  0  0  0  0  0  0
  -24.3190  -12.9970   20.9530 C   0  0  0  0  0  0  0  0  0  0  0  0
  -24.7110  -11.6340   20.7880 C   0  0  0  0  0  0  0  0  0  0  0  0
  -26.3680  -12.8440   20.1640 N   0  0  0  0  0  0  0  0  0  0  0  0
  -25.9680  -11.5620   20.3660 N   0  0  0  0  0  0  0  0  0  0  0  0
  -23.9420  -10.3920   20.9550 C   0  0  0  0  0  0  0  0  0  0  0  0
  -24.3830   -9.3600   21.8100 C   0  0  0  0  0  3  0  0  0  0  0  0
  -23.6170   -8.1840   21.9690 C   0  0  0  0  0  3  0  0  0  0  0  0
  -22.3950   -8.0350   21.2710 C   0  0  0  0  0  0  0  0  0  0  0  0
  -21.9730   -9.0560   20.4010 C   0  0  0  0  0  3  0  0  0  0  0  0
  -22.7390  -10.2230   20.2420 C   0  0  0  0  0  3  0  0  0  0  0  0
  -21.5980   -6.9180   21.3440 O   0  0  0  0  0  0  0  0  0  0  0  0
  -21.5110   -6.1680   22.4900 C   0  0  0  0  0  0  0  0  0  0  0  0
  -21.0280   -6.7100   23.7010 C   0  0  0  0  0  3  0  0  0  0  0  0
  -20.8910   -5.8860   24.8350 C   0  0  0  0  0  3  0  0  0  0  0  0
  -21.2250   -4.5210   24.7590 C   0  0  0  0  0  0  0  0  0  0  0  0
  -21.7010   -3.9780   23.5540 C   0  0  0  0  0  3  0  0  0  0  0  0
  -21.8400   -4.7990   22.4210 C   0  0  0  0  0  0  0  0  0  0  0  0
  -22.2790   -4.2670   21.2550 F   0  0  0  0  0  0  0  0  0  0  0  0
  -21.0860   -3.7270   25.8470 F   0  0  0  0  0  0  0  0  0  0  0  0
  -22.9750  -13.5140   21.3780 C   0  0  0  0  0  0  0  0  0  0  0  0
  -22.2990  -12.7970   22.2690 N   0  0  0  0  0  0  0  0  0  0  0  0
  -22.5370  -14.5830   20.9580 O   0  0  0  0  0  0  0  0  0  0  0  0
  -22.6640  -11.9290   22.6310 H   0  0  0  0  0  0  0  0  0  0  0  0
  -21.3990  -13.1230   22.5950 H   0  0  0  0  0  0  0  0  0  0  0  0
  -25.6040  -15.1210   20.4450 N   0  0  0  0  0  0  0  0  0  0  0  0
  -24.8870  -15.8000   20.6780 H   0  0  0  0  0  0  0  0  0  0  0  0
  -26.4400  -15.5450   20.0620 H   0  0  0  0  0  0  0  0  0  0  0  0
  -30.0990  -25.4020   23.6210 C   0  0  0  0  0  2  0  0  0  0  0  0
  -30.6170  -24.5910   22.4370 C   0  0  0  0  0  3  0  0  0  0  0  0
  -29.1980  -25.1130   22.4580 C   0  0  0  0  0  3  0  0  0  0  0  0
  -28.7720  -26.1600   21.4660 C   0  0  0  0  0  2  0  0  0  0  0  0
  -28.4670  -25.5030   20.1120 C   0  0  0  0  0  2  0  0  0  0  0  0
  -28.1870  -26.4740   19.1240 O   0  0  0  0  0  0  0  0  0  0  0  0
  -24.2920  -31.2410   22.6790 C   0  0  0  0  0  0  0  0  0  0  0  0
  -26.9820  -27.1070   19.2680 C   0  0  0  0  0  0  0  0  0  0  0  0
  -23.0790  -29.8990   20.9860 C   0  0  0  0  0  3  0  0  0  0  0  0
  -24.5370  -28.4810   19.4500 C   0  0  0  0  0  0  0  0  0  0  0  0
  -25.5810  -30.3510   20.7480 C   0  0  0  0  0  2  0  0  0  0  0  0
  -25.6910  -29.0240   20.0300 C   0  0  0  0  0  0  0  0  0  0  0  0
  -26.9210  -28.3450   19.9360 C   0  0  0  0  0  3  0  0  0  0  0  0
  -25.8170  -26.5480   18.7060 C   0  0  0  0  0  3  0  0  0  0  0  0
  -24.5910  -27.2370   18.7940 C   0  0  0  0  0  3  0  0  0  0  0  0
  -23.2720  -29.2970   19.5690 C   0  0  0  0  0  2  0  0  0  0  0  0
  -24.3350  -30.5090   21.5300 N   0  0  0  0  0  0  0  0  0  0  0  0
  -23.2180  -31.4550   23.2610 O   0  0  0  0  0  0  0  0  0  0  0  0
  -22.4790  -28.8090   21.9020 C   0  0  0  0  0  0  0  0  0  0  0  0
  -21.1530  -28.6220   21.8110 N   0  0  0  0  0  0  0  0  0  0  0  0
  -23.2000  -28.1400   22.6470 O   0  0  0  0  0  0  0  0  0  0  0  0
  -20.6380  -29.2170   21.1770 H   0  0  0  0  0  0  0  0  0  0  0  0
  -17.8030  -27.3960   22.3760 C   0  0  0  0  0  0  0  0  0  0  0  0
  -20.3700  -27.6280   22.5440 C   0  0  0  0  0  3  0  0  0  0  0  0
  -20.4410  -26.2480   21.8530 C   0  0  0  0  0  2  0  0  0  0  0  0
  -19.2890  -26.0050   20.8710 C   0  0  0  0  0  2  0  0  0  0  0  0
  -17.9410  -26.1020   21.5900 C   0  0  0  0  0  2  0  0  0  0  0  0
  -18.9450  -28.1200   22.8100 C   0  0  0  0  0  0  0  0  0  0  0  0
  -18.7620  -29.3340   23.5060 C   0  0  0  0  0  3  0  0  0  0  0  0
  -17.4710  -29.8250   23.7710 C   0  0  0  0  0  3  0  0  0  0  0  0
  -16.3430  -29.0960   23.3570 C   0  0  0  0  0  3  0  0  0  0  0  0
  -16.5110  -27.8820   22.6640 C   0  0  0  0  0  3  0  0  0  0  0  0
  -25.5790  -31.8640   23.3050 C   0  0  0  0  0  3  0  0  0  0  0  0
  -25.2340  -33.2070   23.7840 N   0  0  0  0  0  0  0  0  0  0  0  0
  -25.5000  -34.3420   23.1230 C   0  0  0  0  0  0  0  0  0  0  0  0
  -26.1390  -34.3660   22.0670 O   0  0  0  0  0  0  0  0  0  0  0  0
  -24.6760  -33.2590   24.6240 H   0  0  0  0  0  0  0  0  0  0  0  0
  -23.6950  -36.0810   22.9950 C   0  0  0  0  0  1  0  0  0  0  0  0
  -24.9750  -35.6560   23.7310 C   0  0  0  0  0  3  0  0  0  0  0  0
  -27.0880  -36.5500   24.6030 C   0  0  0  0  0  1  0  0  0  0  0  0
  -25.9620  -36.7580   23.6960 N   0  0  0  0  0  0  0  0  0  0  0  0
  -25.5220  -37.6440   23.9340 H   0  0  0  0  0  0  0  0  0  0  0  0
  -26.1880  -30.9920   24.4710 C   0  0  1  0  0  0  0  0  0  0  0  0
  -25.1580  -30.6120   25.5600 C   0  0  0  0  0  1  0  0  0  0  0  0
  -26.7970  -29.6850   23.9110 C   0  0  0  0  0  1  0  0  0  0  0  0
  -27.3440  -31.7610   25.1520 C   0  0  0  0  0  1  0  0  0  0  0  0
  1  2  2  0
  1  4  1  0
  2  6  1  0
  3  5  1  0
  4  3  2  0
  5  7  1  0
  6  5  2  0
  7  8  2  0
  7  9  1  0
  8 11  1  0
  9 13  1  0
 10  8  1  0
 12  9  1  0
 14  4  1  0
 14 15  1  0
 16 18  1  0
 16 17  1  0
 17 27  1  0
 17 15  1  0
 18 14  1  0
 19 27  1  0
 20 25  1  0
 21 22  1  0
 21 20  1  0
 23 22  1  0
 23 32  1  0
 23 24  1  0
 25 19  1  0
 25 24  1  0
 26 19  2  0
 27 28  1  0
 29 30  2  0
 30 49  1  0
 31 30  1  0
 31 34  1  0
 32 33  1  0
 32 29  1  0
 33 31  2  0
 34 35  1  0
 35 36  2  0
 37 40  1  0
 37 36  1  0
 38 37  2  0
 39 38  1  0
 39 34  2  0
 40 41  1  0
 41 42  1  0
 42 43  2  0
 44 43  1  0
 44 48  1  0
 45 44  2  0
 46 41  2  0
 46 45  1  0
 47 46  1  0
 49 50  1  0
 50 53  1  0
 50 52  1  0
 51 49  2  0
 54 29  1  0
 54 55  1  0
 56 54  1  0
 58  6  1  0
 58 59  1  0
 58 57  1  0
 59 60  1  0
 59 57  1  0
 61 60  1  0
 62 64  1  0
 62 61  1  0
 63 74  2  0
 64 69  1  0
 65 73  1  0
 65 75  1  0
 66 72  1  0
 66 68  1  0
 67 73  1  0
 68 67  1  0
 69 68  2  0
 70 71  1  0
 70 64  2  0
 71 66  2  0
 72 65  1  0
 73 63  1  0
 75 77  2  0
 76 75  1  0
 78 76  1  0
 79 88  2  0
 79 84  1  0
 80 76  1  0
 80 84  1  0
 81 80  1  0
 82 83  1  0
 82 81  1  0
 83 79  1  0
 84 85  2  0
 85 86  1  0
 87 86  2  0
 88 87  1  0
 89 63  1  0
 89 90  1  0
 89 99  1  0
 90 93  1  0
 91 95  1  0
 91 90  1  0
 92 91  2  0
 95 94  1  0
 97 95  1  0
 97 98  1  0
 97 96  1  0
 99102  1  1
 99100  1  0
101 99  1  0
M  ISO  4  19 100  27 100  61 101  62 101
M  END
>  <TORSDO>  (79) 
F 21

>  <SCORE>  (79) 
-9.774

>  <name>  (79) 
78

>  <ligand_id>  (79) 
78

>  <original_smiles>  (79) 
[H]c1c([H])c([H])c2c(c1[H])C([H])([H])C([H])([H])C([H])([H])C2([H])N([H])C(=O)C1([H])N(C(=O)C([H])(N([H])C(=O)C([H])(N([H])C([H])([H])[H])C([H])([H])[H])C(C([H])([H])[H])(C([H])([H])[H])C([H])([H])[H])C([H])([H])c2c([H])c(OC([H])([H])C([H])([H])C3([H])C([H])([H])C3([H])c3c([H])c([H])c(C4=NC([H])([H])C([H])(N([H])C(=O)N5C([H])([H])C([H])([H])C([H])([H])C([H])(n6nc(-c7c([H])c([H])c(Oc8c([H])c([H])c(F)c([H])c8F)c([H])c7[H])c(C(=O)N([H])[H])c6N([H])[H])C5([H])[H])C4([H])[H])c([H])c3C(N([H])[H])=[N+]([H])[H])c([H])c([H])c2C1([H])[H]

>  <smiles>  (79) 
[H]c1c([H])c([H])c2c(c1[H])C([H])([H])C([H])([H])C([H])([H])C2([H])N([H])C(=O)C1([H])N(C(=O)C([H])(N([H])C(=O)C([H])(N([H])C([H])([H])[H])C([H])([H])[H])C(C([H])([H])[H])(C([H])([H])[H])C([H])([H])[H])C([H])([H])c2c([H])c(OC([H])([H])C([H])([H])C3([H])C([H])([H])C3([H])c3c([H])c([H])c(C4=NC([H])([H])C([H])(N([H])C(=O)N5C([H])([H])C([H])([H])C([H])([H])C([H])(n6nc(-c7c([H])c([H])c(Oc8c([H])c([H])c(F)c([H])c8F)c([H])c7[H])c(C(=O)N([H])[H])c6N([H])[H])C5([H])[H])C4([H])[H])c([H])c3C(N([H])[H])=[N+]([H])[H])c([H])c([H])c2C1([H])[H]

$$$$
79:0:0
     RDKit          3D

 94102  0  0  1  0  0  0  0  0999 V2000
  -30.4840  -22.3600   19.4650 C   0  0  0  0  0  0  0  0  0  0  0  0
  -29.7090  -22.6130   20.5290 N   0  0  0  0  0  0  0  0  0  0  0  0
  -30.5120  -23.0830   18.4680 O   0  0  0  0  0  0  0  0  0  0  0  0
  -29.7640  -21.9270   21.2700 H   0  0  0  0  0  0  0  0  0  0  0  0
  -31.7510  -20.1000   17.2980 C   0  0  0  0  0  2  0  0  0  0  0  0
  -32.3980  -20.9430   18.4080 C   0  0  0  0  0  2  0  0  0  0  0  0
  -31.2860  -18.7490   17.8630 C   0  0  0  0  0  2  0  0  0  0  0  0
  -30.7960  -19.8520   20.1050 C   0  0  0  0  0  2  0  0  0  0  0  0
  -31.4580  -21.1730   19.6190 C   0  0  0  0  0  3  0  0  0  0  0  0
  -30.2380  -18.9450   18.9810 C   0  0  0  0  0  3  0  0  0  0  0  0
  -29.6320  -17.6020   19.4900 C   0  0  0  0  0  2  0  0  0  0  0  0
  -30.3240  -16.9300   20.7080 C   0  0  0  0  0  2  0  0  0  0  0  0
  -30.6540  -14.4660   20.4720 C   0  0  0  0  0  0  0  0  0  0  0  0
  -30.3370  -12.3100   19.3430 C   0  0  0  0  0  2  0  0  0  0  0  0
  -29.3920  -12.5380   18.1440 C   0  0  0  0  0  2  0  0  0  0  0  0
  -27.9200  -12.3980   18.5770 C   0  0  0  0  0  2  0  0  0  0  0  0
  -27.5920  -13.2290   19.8450 C   0  0  0  0  0  3  0  0  0  0  0  0
  -28.6540  -13.0060   20.9490 C   0  0  0  0  0  2  0  0  0  0  0  0
  -29.9770  -13.2930   20.3730 N   0  0  0  0  0  0  0  0  0  0  0  0
  -31.7970  -14.6210   20.0370 O   0  0  0  0  0  0  0  0  0  0  0  0
  -29.9270  -15.5200   20.8750 N   0  0  0  0  0  0  0  0  0  0  0  0
  -28.9940  -15.3280   21.2110 H   0  0  0  0  0  0  0  0  0  0  0  0
  -25.1940  -13.8380   20.5450 C   0  0  0  0  0  0  0  0  0  0  0  0
  -24.1240  -13.0670   20.9160 C   0  0  0  0  0  0  0  0  0  0  0  0
  -24.5850  -11.7160   20.8890 C   0  0  0  0  0  0  0  0  0  0  0  0
  -26.2390  -12.9560   20.3240 N   0  0  0  0  0  0  0  0  0  0  0  0
  -25.8770  -11.6740   20.5870 N   0  0  0  0  0  0  0  0  0  0  0  0
  -23.8580  -10.4530   21.0820 C   0  0  0  0  0  0  0  0  0  0  0  0
  -24.3020   -9.4790   22.0020 C   0  0  0  0  0  3  0  0  0  0  0  0
  -23.5790   -8.2820   22.1810 C   0  0  0  0  0  3  0  0  0  0  0  0
  -22.3960   -8.0490   21.4390 C   0  0  0  0  0  0  0  0  0  0  0  0
  -21.9710   -9.0110   20.5040 C   0  0  0  0  0  3  0  0  0  0  0  0
  -22.6970  -10.2010   20.3250 C   0  0  0  0  0  3  0  0  0  0  0  0
  -21.6420   -6.9040   21.5260 O   0  0  0  0  0  0  0  0  0  0  0  0
  -21.6190   -6.1430   22.6670 C   0  0  0  0  0  0  0  0  0  0  0  0
  -21.2340   -6.6830   23.9150 C   0  0  0  0  0  3  0  0  0  0  0  0
  -21.1580   -5.8500   25.0490 C   0  0  0  0  0  3  0  0  0  0  0  0
  -21.4570   -4.4800   24.9390 C   0  0  0  0  0  0  0  0  0  0  0  0
  -21.8320   -3.9380   23.6960 C   0  0  0  0  0  3  0  0  0  0  0  0
  -21.9130   -4.7680   22.5640 C   0  0  0  0  0  0  0  0  0  0  0  0
  -22.2550   -4.2380   21.3660 F   0  0  0  0  0  0  0  0  0  0  0  0
  -21.3760   -3.6780   26.0270 F   0  0  0  0  0  0  0  0  0  0  0  0
  -22.7260  -13.5450   21.1820 C   0  0  0  0  0  0  0  0  0  0  0  0
  -21.9990  -12.8480   22.0490 N   0  0  0  0  0  0  0  0  0  0  0  0
  -22.2870  -14.5670   20.6580 O   0  0  0  0  0  0  0  0  0  0  0  0
  -22.3680  -12.0200   22.4920 H   0  0  0  0  0  0  0  0  0  0  0  0
  -21.0610  -13.1460   22.2710 H   0  0  0  0  0  0  0  0  0  0  0  0
  -25.3590  -15.2070   20.3590 N   0  0  0  0  0  0  0  0  0  0  0  0
  -24.5920  -15.8630   20.4560 H   0  0  0  0  0  0  0  0  0  0  0  0
  -26.2080  -15.6390   20.0160 H   0  0  0  0  0  0  0  0  0  0  0  0
  -28.9910  -23.8390   20.8690 C   0  0  0  0  0  2  0  0  0  0  0  0
  -28.0400  -24.3770   19.7860 C   0  0  0  0  0  2  0  0  0  0  0  0
  -28.5320  -25.6990   19.1620 C   0  0  0  0  0  2  0  0  0  0  0  0
  -28.4040  -26.7950   20.0730 O   0  0  0  0  0  0  0  0  0  0  0  0
  -24.5940  -31.9030   23.2560 C   0  0  0  0  0  0  0  0  0  0  0  0
  -27.2040  -27.4700   20.1200 C   0  0  0  0  0  0  0  0  0  0  0  0
  -23.3710  -30.5000   21.6280 C   0  0  0  0  0  3  0  0  0  0  0  0
  -24.8060  -28.9650   20.1970 C   0  0  0  0  0  0  0  0  0  0  0  0
  -25.8980  -30.8520   21.4140 C   0  0  0  0  0  2  0  0  0  0  0  0
  -25.9710  -29.4840   20.7730 C   0  0  0  0  0  0  0  0  0  0  0  0
  -27.1700  -28.7380   20.7460 C   0  0  0  0  0  3  0  0  0  0  0  0
  -26.0070  -26.9600   19.5600 C   0  0  0  0  0  3  0  0  0  0  0  0
  -24.8140  -27.6960   19.6020 C   0  0  0  0  0  3  0  0  0  0  0  0
  -23.5680  -29.8250   20.2480 C   0  0  0  0  0  2  0  0  0  0  0  0
  -24.6390  -31.1010   22.1560 N   0  0  0  0  0  0  0  0  0  0  0  0
  -23.5170  -32.1790   23.8040 O   0  0  0  0  0  0  0  0  0  0  0  0
  -22.7300  -29.4760   22.5930 C   0  0  0  0  0  0  0  0  0  0  0  0
  -21.4060  -29.2870   22.4710 N   0  0  0  0  0  0  0  0  0  0  0  0
  -23.4200  -28.8560   23.4070 O   0  0  0  0  0  0  0  0  0  0  0  0
  -20.9110  -29.8420   21.7870 H   0  0  0  0  0  0  0  0  0  0  0  0
  -18.0420  -28.0680   22.9620 C   0  0  0  0  0  0  0  0  0  0  0  0
  -20.5960  -28.3480   23.2450 C   0  0  0  0  0  3  0  0  0  0  0  0
  -20.7130  -26.9130   22.6820 C   0  0  0  0  0  2  0  0  0  0  0  0
  -19.6180  -26.5720   21.6660 C   0  0  0  0  0  2  0  0  0  0  0  0
  -18.2330  -26.7130   22.3030 C   0  0  0  0  0  2  0  0  0  0  0  0
  -19.1520  -28.8430   23.3900 C   0  0  0  0  0  0  0  0  0  0  0  0
  -18.9210  -30.1120   23.9660 C   0  0  0  0  0  3  0  0  0  0  0  0
  -17.6130  -30.6060   24.1180 C   0  0  0  0  0  3  0  0  0  0  0  0
  -16.5160  -29.8260   23.7090 C   0  0  0  0  0  3  0  0  0  0  0  0
  -16.7320  -28.5600   23.1370 C   0  0  0  0  0  3  0  0  0  0  0  0
  -25.8860  -32.5320   23.8630 C   0  0  0  0  0  3  0  0  0  0  0  0
  -25.5820  -33.9310   24.1950 N   0  0  0  0  0  0  0  0  0  0  0  0
  -25.9070  -34.9810   23.4320 C   0  0  0  0  0  0  0  0  0  0  0  0
  -26.5690  -34.8760   22.3950 O   0  0  0  0  0  0  0  0  0  0  0  0
  -24.9930  -34.0870   25.0010 H   0  0  0  0  0  0  0  0  0  0  0  0
  -24.1770  -36.7740   23.0870 C   0  0  0  0  0  1  0  0  0  0  0  0
  -25.4230  -36.3700   23.8910 C   0  0  0  0  0  3  0  0  0  0  0  0
  -27.5650  -37.2520   24.7040 C   0  0  0  0  0  1  0  0  0  0  0  0
  -26.4550  -37.4220   23.7710 N   0  0  0  0  0  0  0  0  0  0  0  0
  -26.0500  -38.3420   23.9250 H   0  0  0  0  0  0  0  0  0  0  0  0
  -26.4200  -31.7580   25.1320 C   0  0  1  0  0  0  0  0  0  0  0  0
  -25.3430  -31.5200   26.2160 C   0  0  0  0  0  1  0  0  0  0  0  0
  -26.9970  -30.3800   24.7290 C   0  0  0  0  0  1  0  0  0  0  0  0
  -27.5790  -32.5540   25.7800 C   0  0  0  0  0  1  0  0  0  0  0  0
  1  2  1  0
  2 51  1  0
  2  4  1  0
  3  1  2  0
  5  7  1  0
  5  6  1  0
  6  9  1  0
  7 10  1  0
  9  1  1  0
  9  8  1  0
 10 11  1  0
 10  8  1  0
 11 12  1  0
 12 21  1  0
 13 21  1  0
 14 19  1  0
 15 16  1  0
 15 14  1  0
 17 16  1  0
 17 26  1  0
 17 18  1  0
 19 13  1  0
 19 18  1  0
 20 13  2  0
 21 22  1  0
 23 24  2  0
 24 43  1  0
 25 24  1  0
 25 28  1  0
 26 23  1  0
 26 27  1  0
 27 25  2  0
 28 29  1  0
 29 30  2  0
 31 34  1  0
 31 30  1  0
 32 31  2  0
 33 32  1  0
 33 28  2  0
 34 35  1  0
 35 36  1  0
 36 37  2  0
 38 37  1  0
 38 42  1  0
 39 38  2  0
 40 35  2  0
 40 39  1  0
 41 40  1  0
 43 44  1  0
 44 47  1  0
 44 46  1  0
 45 43  2  0
 48 49  1  0
 48 23  1  0
 50 48  1  0
 52 51  1  0
 53 52  1  0
 53 54  1  0
 54 56  1  0
 55 66  2  0
 56 61  1  0
 57 65  1  0
 57 67  1  0
 58 64  1  0
 58 60  1  0
 59 65  1  0
 60 59  1  0
 61 60  2  0
 62 63  1  0
 62 56  2  0
 63 58  2  0
 64 57  1  0
 65 55  1  0
 67 69  2  0
 68 67  1  0
 70 68  1  0
 71 80  2  0
 71 76  1  0
 72 68  1  0
 72 76  1  0
 73 72  1  0
 74 75  1  0
 74 73  1  0
 75 71  1  0
 76 77  2  0
 77 78  1  0
 79 78  2  0
 80 79  1  0
 81 55  1  0
 81 82  1  0
 81 91  1  0
 82 85  1  0
 83 87  1  0
 83 82  1  0
 84 83  2  0
 87 86  1  0
 89 87  1  0
 89 90  1  0
 89 88  1  0
 91 94  1  1
 91 92  1  0
 93 91  1  0
M  ISO  4  13 100  21 100  53 101  54 101
M  END
>  <TORSDO>  (80) 
F 22

>  <SCORE>  (80) 
-13.076

>  <name>  (80) 
79

>  <ligand_id>  (80) 
79

>  <original_smiles>  (80) 
[H]c1c([H])c([H])c2c(c1[H])C([H])([H])C([H])([H])C([H])([H])C2([H])N([H])C(=O)C1([H])N(C(=O)C([H])(N([H])C(=O)C([H])(N([H])C([H])([H])[H])C([H])([H])[H])C(C([H])([H])[H])(C([H])([H])[H])C([H])([H])[H])C([H])([H])c2c([H])c(OC([H])([H])C([H])([H])C([H])([H])N([H])C(=O)C3([H])C([H])([H])C([H])([H])C([H])([H])C([H])(C([H])([H])C([H])([H])N([H])C(=O)N4C([H])([H])C([H])([H])C([H])([H])C([H])(n5nc(-c6c([H])c([H])c(Oc7c([H])c([H])c(F)c([H])c7F)c([H])c6[H])c(C(=O)N([H])[H])c5N([H])[H])C4([H])[H])C3([H])[H])c([H])c([H])c2C1([H])[H]

>  <smiles>  (80) 
[H]c1c([H])c([H])c2c(c1[H])C([H])([H])C([H])([H])C([H])([H])C2([H])N([H])C(=O)C1([H])N(C(=O)C([H])(N([H])C(=O)C([H])(N([H])C([H])([H])[H])C([H])([H])[H])C(C([H])([H])[H])(C([H])([H])[H])C([H])([H])[H])C([H])([H])c2c([H])c(OC([H])([H])C([H])([H])C([H])([H])N([H])C(=O)C3([H])C([H])([H])C([H])([H])C([H])([H])C([H])(C([H])([H])C([H])([H])N([H])C(=O)N4C([H])([H])C([H])([H])C([H])([H])C([H])(n5nc(-c6c([H])c([H])c(Oc7c([H])c([H])c(F)c([H])c7F)c([H])c6[H])c(C(=O)N([H])[H])c5N([H])[H])C4([H])[H])C3([H])[H])c([H])c([H])c2C1([H])[H]

$$$$
80:0:0
     RDKit          3D

 95 99  0  0  1  0  0  0  0  0999 V2000
  -29.0090  -23.4420   23.8680 C   0  0  0  0  0  2  0  0  0  0  0  0
  -30.2730  -22.8220   23.8530 C   0  0  0  0  0  2  0  0  0  0  0  0
  -31.1450  -24.4980   22.4440 C   0  0  0  0  0  2  0  0  0  0  0  0
  -28.7690  -24.2880   22.7630 C   0  0  0  0  0  3  0  0  0  0  0  0
  -29.8680  -24.9780   22.1350 C   0  0  0  0  0  3  0  0  0  0  0  0
  -31.0520  -23.1320   22.7180 C   0  0  0  0  0  3  0  0  0  0  0  0
  -28.2300  -22.0780   18.7340 C   0  0  0  0  0  2  0  0  0  0  0  0
  -29.8030  -25.7190   20.7910 C   0  0  0  0  0  2  0  0  0  0  0  0
  -29.9860  -24.7710   19.5580 C   0  0  0  0  0  2  0  0  0  0  0  0
  -26.7980  -21.7660   21.2660 C   0  0  0  0  0 15  0  0  0  0  0  0
  -27.7100  -23.8160   21.7810 C   0  0  0  0  0  1  0  0  0  0  0  0
  -28.7320  -23.8870   19.5760 C   0  0  0  0  0  2  0  0  0  0  0  0
  -27.6820  -20.3830   19.8750 C   0  0  0  0  0 15  0  0  0  0  0  0
  -28.3060  -21.9870   17.5080 O   0  0  0  0  0  0  0  0  0  0  0  0
  -29.0160  -16.5930   19.7200 C   0  0  0  0  0  0  0  0  0  0  0  0
  -29.5270  -13.7840   18.9520 C   0  0  0  0  0  2  0  0  0  0  0  0
  -28.7510  -12.8160   17.9470 C   0  0  0  0  0  2  0  0  0  0  0  0
  -27.5530  -12.1190   18.5910 C   0  0  0  0  0  2  0  0  0  0  0  0
  -26.9120  -13.1110   19.5670 C   0  0  0  0  0  3  0  0  0  0  0  0
  -27.8920  -13.9560   20.4860 C   0  0  0  0  0  2  0  0  0  0  0  0
  -28.7200  -14.9910   19.6870 N   0  0  0  0  0  0  0  0  0  0  0  0
  -30.2420  -16.4160   19.4060 O   0  0  0  0  0  0  0  0  0  0  0  0
  -28.2160  -18.2390   19.9530 N   0  0  0  0  0  2  0  0  0  0  0  0
  -27.3340  -17.8750   20.2900 H   0  0  0  0  0  0  0  0  0  0  0  0
  -24.6540  -13.3470   20.6490 C   0  0  0  0  0  0  0  0  0  0  0  0
  -23.7070  -12.4770   21.0990 C   0  0  0  0  0  0  0  0  0  0  0  0
  -24.2550  -11.1650   20.9340 C   0  0  0  0  0  0  0  0  0  0  0  0
  -25.7260  -12.5830   20.2440 N   0  0  0  0  0  0  0  0  0  0  0  0
  -25.5030  -11.2490   20.4590 N   0  0  0  0  0  0  0  0  0  0  0  0
  -23.6210   -9.8510   21.1520 C   0  0  0  0  0  0  0  0  0  0  0  0
  -24.1120   -8.9350   22.1090 C   0  0  0  0  0  3  0  0  0  0  0  0
  -23.4600   -7.6990   22.3240 C   0  0  0  0  0  3  0  0  0  0  0  0
  -22.3010   -7.3660   21.5820 C   0  0  0  0  0  0  0  0  0  0  0  0
  -21.8250   -8.2730   20.6170 C   0  0  0  0  0  3  0  0  0  0  0  0
  -22.4790   -9.4980   20.4020 C   0  0  0  0  0  3  0  0  0  0  0  0
  -21.6190   -6.1780   21.7030 O   0  0  0  0  0  0  0  0  0  0  0  0
  -21.5240   -5.5170   22.9020 C   0  0  0  0  0  0  0  0  0  0  0  0
  -20.8900   -6.0990   24.0220 C   0  0  0  0  0  3  0  0  0  0  0  0
  -20.7520   -5.3610   25.2160 C   0  0  0  0  0  3  0  0  0  0  0  0
  -21.2370   -4.0410   25.2890 C   0  0  0  0  0  0  0  0  0  0  0  0
  -21.8610   -3.4580   24.1730 C   0  0  0  0  0  3  0  0  0  0  0  0
  -22.0010   -4.1930   22.9820 C   0  0  0  0  0  0  0  0  0  0  0  0
  -22.5860   -3.6180   21.9040 F   0  0  0  0  0  0  0  0  0  0  0  0
  -21.0970   -3.3300   26.4320 F   0  0  0  0  0  0  0  0  0  0  0  0
  -22.3290  -12.8520   21.5550 C   0  0  0  0  0  0  0  0  0  0  0  0
  -21.7580  -12.0870   22.4780 N   0  0  0  0  0  0  0  0  0  0  0  0
  -21.7730  -13.8670   21.1330 O   0  0  0  0  0  0  0  0  0  0  0  0
  -22.2270  -11.2690   22.8410 H   0  0  0  0  0  0  0  0  0  0  0  0
  -20.8420  -12.3220   22.8290 H   0  0  0  0  0  0  0  0  0  0  0  0
  -24.6870  -14.7320   20.5120 N   0  0  0  0  0  0  0  0  0  0  0  0
  -23.8900  -15.3180   20.7340 H   0  0  0  0  0  0  0  0  0  0  0  0
  -25.4520  -15.2420   20.0880 H   0  0  0  0  0  0  0  0  0  0  0  0
  -30.5910  -22.3940   21.4350 C   0  0  0  0  0  2  0  0  0  0  0  0
  -29.0310  -22.4340   20.8980 C   0  0  0  0  0  1  0  0  0  0  0  0
  -27.0170  -24.3190   19.7740 O   0  0  0  0  0  0  0  0  0  0  0  0
  -24.6120  -31.9210   23.1190 C   0  0  0  0  0  0  0  0  0  0  0  0
  -26.4630  -26.0540   19.9230 C   0  0  0  0  0  0  0  0  0  0  0  0
  -23.2280  -30.6060   21.5830 C   0  0  0  0  0  3  0  0  0  0  0  0
  -24.4440  -28.7330   20.0810 C   0  0  0  0  0  0  0  0  0  0  0  0
  -25.8100  -30.3390   21.3410 C   0  0  0  0  0  2  0  0  0  0  0  0
  -25.7120  -28.8300   20.6680 C   0  0  0  0  0  0  0  0  0  0  0  0
  -26.6560  -27.5510   20.5680 C   0  0  0  0  0  3  0  0  0  0  0  0
  -25.2000  -26.4020   19.2700 C   0  0  0  0  0  3  0  0  0  0  0  0
  -24.2760  -27.5380   19.3470 C   0  0  0  0  0  3  0  0  0  0  0  0
  -23.3460  -29.8480   20.2140 C   0  0  0  0  0  2  0  0  0  0  0  0
  -24.5930  -31.0040   22.0630 N   0  0  0  0  0  0  0  0  0  0  0  0
  -23.5730  -32.3230   23.6800 O   0  0  0  0  0  0  0  0  0  0  0  0
  -22.4600  -29.7470   22.6310 C   0  0  0  0  0  0  0  0  0  0  0  0
  -21.1230  -29.5940   22.5180 N   0  0  0  0  0  0  0  0  0  0  0  0
  -23.0970  -29.2040   23.5350 O   0  0  0  0  0  0  0  0  0  0  0  0
  -20.6440  -30.0800   21.7740 H   0  0  0  0  0  0  0  0  0  0  0  0
  -17.7940  -28.1630   23.0040 C   0  0  0  0  0  0  0  0  0  0  0  0
  -20.3060  -28.6960   23.3550 C   0  0  0  0  0  3  0  0  0  0  0  0
  -20.5540  -27.2150   22.9780 C   0  0  0  0  0  2  0  0  0  0  0  0
  -19.5510  -26.6800   21.9510 C   0  0  0  0  0  2  0  0  0  0  0  0
  -18.1240  -26.7710   22.4970 C   0  0  0  0  0  2  0  0  0  0  0  0
  -18.8160  -29.0750   23.3900 C   0  0  0  0  0  0  0  0  0  0  0  0
  -18.4480  -30.3630   23.8330 C   0  0  0  0  0  3  0  0  0  0  0  0
  -17.0940  -30.7470   23.8900 C   0  0  0  0  0  3  0  0  0  0  0  0
  -16.0890  -29.8400   23.5130 C   0  0  0  0  0  3  0  0  0  0  0  0
  -16.4390  -28.5500   23.0760 C   0  0  0  0  0  3  0  0  0  0  0  0
  -25.9370  -32.5210   23.6900 C   0  0  0  0  0  3  0  0  0  0  0  0
  -25.6990  -33.9250   24.1140 N   0  0  0  0  0  0  0  0  0  0  0  0
  -26.1090  -35.0260   23.4650 C   0  0  0  0  0  0  0  0  0  0  0  0
  -26.7610  -34.9670   22.4200 O   0  0  0  0  0  0  0  0  0  0  0  0
  -25.1160  -34.0480   24.9290 H   0  0  0  0  0  0  0  0  0  0  0  0
  -24.5330  -36.9970   23.3200 C   0  0  0  0  0  1  0  0  0  0  0  0
  -25.7470  -36.4090   24.0600 C   0  0  0  0  0  3  0  0  0  0  0  0
  -27.9540  -37.0650   24.9250 C   0  0  0  0  0  1  0  0  0  0  0  0
  -26.8590  -37.3870   24.0160 N   0  0  0  0  0  0  0  0  0  0  0  0
  -26.5260  -38.3210   24.2390 H   0  0  0  0  0  0  0  0  0  0  0  0
  -26.4930  -31.7070   24.9260 C   0  0  1  0  0  0  0  0  0  0  0  0
  -25.4550  -31.4920   26.0540 C   0  0  0  0  0  1  0  0  0  0  0  0
  -26.9990  -30.3140   24.5030 C   0  0  0  0  0  1  0  0  0  0  0  0
  -27.7130  -32.4410   25.5330 C   0  0  0  0  0  1  0  0  0  0  0  0
  2  1  1  0
  3  6  1  0
  4 11  1  0
  4  1  1  0
  5  8  1  0
  5  3  1  0
  5  4  1  0
  6 53  1  0
  6  2  1  0
  9 12  1  0
  9  8  1  0
 12 55  1  0
 14  7  2  0
 15 23  1  0
 16 21  1  0
 17 18  1  0
 17 16  1  0
 19 18  1  0
 19 28  1  0
 19 20  1  0
 21 15  1  0
 21 20  1  0
 22 15  2  0
 23 24  1  0
 25 26  2  0
 26 45  1  0
 27 26  1  0
 27 30  1  0
 28 29  1  0
 28 25  1  0
 29 27  2  0
 30 31  1  0
 31 32  2  0
 33 36  1  0
 33 32  1  0
 34 33  2  0
 35 34  1  0
 35 30  2  0
 36 37  1  0
 37 42  2  0
 37 38  1  0
 38 39  2  0
 39 40  1  0
 40 44  1  0
 41 40  2  0
 42 41  1  0
 43 42  1  0
 45 46  1  0
 46 49  1  0
 46 48  1  0
 47 45  2  0
 50 25  1  0
 50 51  1  0
 52 50  1  0
 54 53  1  0
 55 57  1  0
 56 67  2  0
 57 62  1  0
 58 66  1  0
 58 68  1  0
 59 65  1  0
 59 61  1  0
 60 66  1  0
 61 60  1  0
 62 61  2  0
 63 64  1  0
 63 57  2  0
 64 59  2  0
 65 58  1  0
 66 56  1  0
 68 70  2  0
 69 68  1  0
 71 69  1  0
 72 81  2  0
 72 77  1  0
 73 69  1  0
 73 77  1  0
 74 73  1  0
 75 76  1  0
 75 74  1  0
 76 72  1  0
 77 78  2  0
 78 79  1  0
 80 79  2  0
 81 80  1  0
 82 56  1  0
 82 83  1  0
 82 92  1  0
 83 86  1  0
 84 88  1  0
 84 83  1  0
 85 84  2  0
 88 87  1  0
 90 88  1  0
 90 91  1  0
 90 89  1  0
 92 95  1  1
 92 93  1  0
 94 92  1  0
M  ISO  4  15 100  23 100  54 101  55 101
M  END
>  <TORSDO>  (81) 
F 18

>  <SCORE>  (81) 
-9.594

>  <name>  (81) 
80

>  <ligand_id>  (81) 
80

>  <original_smiles>  (81) 
[H]c1c([H])c([H])c2c(c1[H])C([H])([H])C([H])([H])C([H])([H])C2([H])N([H])C(=O)C1([H])N(C(=O)C([H])(N([H])C(=O)C([H])(N([H])C([H])([H])[H])C([H])([H])[H])C(C([H])([H])[H])(C([H])([H])[H])C([H])([H])[H])C([H])([H])c2c([H])c(OC([H])([H])C([H])([H])c3c([H])c([H])c4c(c3[H])C([H])([H])C([H])([H])C3([H])C(=O)C([H])(N([H])C(=O)N5C([H])([H])C([H])([H])C([H])([H])C([H])(n6nc(-c7c([H])c([H])c(Oc8c([H])c([H])c(F)c([H])c8F)c([H])c7[H])c(C(=O)N([H])[H])c6N([H])[H])C5([H])[H])C([H])([H])C43[H])c([H])c([H])c2C1([H])[H]

>  <smiles>  (81) 
[H]c1c([H])c([H])c2c(c1[H])C([H])([H])C([H])([H])C([H])([H])C2([H])N([H])C(=O)C1([H])N(C(=O)C([H])(N([H])C(=O)C([H])(N([H])C([H])([H])[H])C([H])([H])[H])C(C([H])([H])[H])(C([H])([H])[H])C([H])([H])[H])C([H])([H])c2c([H])c(OC([H])([H])C([H])([H])c3c([H])c([H])c4c(c3[H])C([H])([H])C([H])([H])C3([H])C(=O)C([H])(N([H])C(=O)N5C([H])([H])C([H])([H])C([H])([H])C([H])(n6nc(-c7c([H])c([H])c(Oc8c([H])c([H])c(F)c([H])c8F)c([H])c7[H])c(C(=O)N([H])[H])c6N([H])[H])C5([H])[H])C([H])([H])C43[H])c([H])c([H])c2C1([H])[H]

$$$$
81:0:0
     RDKit          3D

 92101  0  0  1  0  0  0  0  0999 V2000
  -28.4760  -21.0470   20.0070 C   0  0  0  0  0  2  0  0  0  0  0  0
  -29.4840  -20.0350   20.1730 C   0  0  0  0  0  0  0  0  0  0  0  0
  -30.5190  -20.9600   20.5580 C   0  0  0  0  0  0  0  0  0  0  0  0
  -28.7130  -22.6270   20.5240 C   0  0  0  0  0  3  0  0  0  0  0  0
  -30.1580  -22.2990   20.6930 N   0  0  0  0  0  0  0  0  0  0  0  0
  -31.7860  -20.5640   20.7220 N   0  0  0  0  0  0  0  0  0  0  0  0
  -30.7910  -23.0210   21.0040 H   0  0  0  0  0  0  0  0  0  0  0  0
  -32.0340  -19.5900   20.6390 H   0  0  0  0  0  0  0  0  0  0  0  0
  -32.5240  -21.2110   20.9590 H   0  0  0  0  0  0  0  0  0  0  0  0
  -30.4300  -15.4540   20.1340 C   0  0  0  0  0  0  0  0  0  0  0  0
  -30.4280  -12.9960   19.2320 C   0  0  0  0  0  2  0  0  0  0  0  0
  -29.4760  -12.7610   18.0300 C   0  0  0  0  0  2  0  0  0  0  0  0
  -28.0400  -12.4650   18.5010 C   0  0  0  0  0  2  0  0  0  0  0  0
  -27.6120  -13.3960   19.6640 C   0  0  0  0  0  3  0  0  0  0  0  0
  -28.7060  -13.5020   20.7540 C   0  0  0  0  0  2  0  0  0  0  0  0
  -29.8810  -14.1200   20.0950 N   0  0  0  0  0  0  0  0  0  0  0  0
  -31.6330  -15.4340   19.8240 O   0  0  0  0  0  0  0  0  0  0  0  0
  -27.5760  -17.5290   19.4870 C   0  0  0  0  0  2  0  0  0  0  0  0
  -28.6860  -18.1310   18.6270 C   0  0  0  0  0  2  0  0  0  0  0  0
  -28.2990  -16.8480   20.6690 C   0  0  0  0  0  2  0  0  0  0  0  0
  -29.7850  -18.3520   19.6590 C   0  0  0  0  0  3  0  0  0  0  0  0
  -29.7010  -16.7840   20.2800 N   0  0  0  0  0  0  0  0  0  0  0  0
  -25.2450  -13.9220   20.4660 C   0  0  0  0  0  0  0  0  0  0  0  0
  -24.1990  -13.1350   20.8490 C   0  0  0  0  0  0  0  0  0  0  0  0
  -24.6770  -11.7900   20.7900 C   0  0  0  0  0  0  0  0  0  0  0  0
  -26.2970  -13.0620   20.1970 N   0  0  0  0  0  0  0  0  0  0  0  0
  -25.9640  -11.7710   20.4540 N   0  0  0  0  0  0  0  0  0  0  0  0
  -23.9600  -10.5250   20.9790 C   0  0  0  0  0  0  0  0  0  0  0  0
  -24.3980   -9.5590   21.9120 C   0  0  0  0  0  3  0  0  0  0  0  0
  -23.6760   -8.3600   22.0910 C   0  0  0  0  0  3  0  0  0  0  0  0
  -22.5020   -8.1180   21.3380 C   0  0  0  0  0  0  0  0  0  0  0  0
  -22.0830   -9.0740   20.3950 C   0  0  0  0  0  3  0  0  0  0  0  0
  -22.8070  -10.2640   20.2140 C   0  0  0  0  0  3  0  0  0  0  0  0
  -21.7500   -6.9710   21.4280 O   0  0  0  0  0  0  0  0  0  0  0  0
  -21.6810   -6.2460   22.5900 C   0  0  0  0  0  0  0  0  0  0  0  0
  -21.1830   -6.8040   23.7880 C   0  0  0  0  0  3  0  0  0  0  0  0
  -21.0630   -6.0040   24.9410 C   0  0  0  0  0  3  0  0  0  0  0  0
  -21.4300   -4.6460   24.8980 C   0  0  0  0  0  0  0  0  0  0  0  0
  -21.9230   -4.0870   23.7050 C   0  0  0  0  0  3  0  0  0  0  0  0
  -22.0440   -4.8840   22.5540 C   0  0  0  0  0  0  0  0  0  0  0  0
  -22.4970   -4.3360   21.4020 F   0  0  0  0  0  0  0  0  0  0  0  0
  -21.3080   -3.8750   26.0040 F   0  0  0  0  0  0  0  0  0  0  0  0
  -22.8060  -13.6040   21.1520 C   0  0  0  0  0  0  0  0  0  0  0  0
  -22.0950  -12.8980   22.0230 N   0  0  0  0  0  0  0  0  0  0  0  0
  -22.3590  -14.6380   20.6560 O   0  0  0  0  0  0  0  0  0  0  0  0
  -22.4720  -12.0650   22.4510 H   0  0  0  0  0  0  0  0  0  0  0  0
  -21.1620  -13.1980   22.2670 H   0  0  0  0  0  0  0  0  0  0  0  0
  -25.3670  -15.2940   20.3000 N   0  0  0  0  0  0  0  0  0  0  0  0
  -24.5830  -15.9240   20.4390 H   0  0  0  0  0  0  0  0  0  0  0  0
  -26.2030  -15.7650   19.9830 H   0  0  0  0  0  0  0  0  0  0  0  0
  -28.1670  -24.2630   19.8900 C   0  0  0  0  0  2  0  0  0  0  0  0
  -28.1980  -25.8720   20.3470 O   0  0  0  0  0  0  0  0  0  0  0  0
  -24.6250  -31.9110   23.2040 C   0  0  0  0  0  0  0  0  0  0  0  0
  -27.1880  -26.9790   20.2270 C   0  0  0  0  0  0  0  0  0  0  0  0
  -23.4360  -30.5050   21.5690 C   0  0  0  0  0  3  0  0  0  0  0  0
  -24.8890  -28.8830   20.1600 C   0  0  0  0  0  0  0  0  0  0  0  0
  -26.0040  -30.7010   21.4370 C   0  0  0  0  0  2  0  0  0  0  0  0
  -26.0750  -29.2830   20.7900 C   0  0  0  0  0  0  0  0  0  0  0  0
  -27.2120  -28.3510   20.8030 C   0  0  0  0  0  3  0  0  0  0  0  0
  -25.9730  -26.7430   19.5400 C   0  0  0  0  0  3  0  0  0  0  0  0
  -24.8660  -27.6350   19.5160 C   0  0  0  0  0  3  0  0  0  0  0  0
  -23.6710  -29.8090   20.1990 C   0  0  0  0  0  2  0  0  0  0  0  0
  -24.7110  -31.0670   22.1230 N   0  0  0  0  0  0  0  0  0  0  0  0
  -23.5340  -32.2070   23.7170 O   0  0  0  0  0  0  0  0  0  0  0  0
  -22.7350  -29.5200   22.5420 C   0  0  0  0  0  0  0  0  0  0  0  0
  -21.4020  -29.3650   22.4210 N   0  0  0  0  0  0  0  0  0  0  0  0
  -23.3960  -28.8950   23.3740 O   0  0  0  0  0  0  0  0  0  0  0  0
  -20.9210  -29.9200   21.7280 H   0  0  0  0  0  0  0  0  0  0  0  0
  -18.0120  -28.1820   22.9450 C   0  0  0  0  0  0  0  0  0  0  0  0
  -20.5750  -28.4350   23.1980 C   0  0  0  0  0  3  0  0  0  0  0  0
  -20.6650  -27.0010   22.6270 C   0  0  0  0  0  2  0  0  0  0  0  0
  -19.5570  -26.6820   21.6170 C   0  0  0  0  0  2  0  0  0  0  0  0
  -18.1790  -26.8330   22.2670 C   0  0  0  0  0  2  0  0  0  0  0  0
  -19.1360  -28.9420   23.3670 C   0  0  0  0  0  0  0  0  0  0  0  0
  -18.9220  -30.2030   23.9660 C   0  0  0  0  0  3  0  0  0  0  0  0
  -17.6190  -30.7040   24.1440 C   0  0  0  0  0  3  0  0  0  0  0  0
  -16.5100  -29.9440   23.7340 C   0  0  0  0  0  3  0  0  0  0  0  0
  -16.7080  -28.6840   23.1400 C   0  0  0  0  0  3  0  0  0  0  0  0
  -25.8930  -32.5580   23.8380 C   0  0  0  0  0  3  0  0  0  0  0  0
  -25.5770  -33.9620   24.1550 N   0  0  0  0  0  0  0  0  0  0  0  0
  -25.9110  -35.0170   23.4000 C   0  0  0  0  0  0  0  0  0  0  0  0
  -26.5800  -34.9100   22.3680 O   0  0  0  0  0  0  0  0  0  0  0  0
  -24.9810  -34.1190   24.9570 H   0  0  0  0  0  0  0  0  0  0  0  0
  -24.1950  -36.8270   23.0460 C   0  0  0  0  0  1  0  0  0  0  0  0
  -25.4320  -36.4100   23.8570 C   0  0  0  0  0  3  0  0  0  0  0  0
  -27.5640  -37.2950   24.7000 C   0  0  0  0  0  1  0  0  0  0  0  0
  -26.4710  -37.4590   23.7450 N   0  0  0  0  0  0  0  0  0  0  0  0
  -26.0660  -38.3810   23.8790 H   0  0  0  0  0  0  0  0  0  0  0  0
  -26.3870  -31.8080   25.1370 C   0  0  1  0  0  0  0  0  0  0  0  0
  -25.2760  -31.5920   26.1920 C   0  0  0  0  0  1  0  0  0  0  0  0
  -26.9740  -30.4220   24.7860 C   0  0  0  0  0  1  0  0  0  0  0  0
  -27.5280  -32.6110   25.8040 C   0  0  0  0  0  1  0  0  0  0  0  0
  1  2  1  0
  1  4  1  0
  2  3  2  0
  3  5  1  0
  3  6  1  0
  4 51  1  0
  4  5  1  0
  5  7  1  0
  6  9  1  0
  8  6  1  0
 10 22  1  0
 11 16  1  0
 12 13  1  0
 12 11  1  0
 14 13  1  0
 14 26  1  0
 14 15  1  0
 16 10  1  0
 16 15  1  0
 17 10  2  0
 18 20  1  0
 19 18  1  0
 19 21  1  0
 21  2  1  0
 21 22  1  0
 22 20  1  0
 23 24  2  0
 24 43  1  0
 25 24  1  0
 25 28  1  0
 26 27  1  0
 26 23  1  0
 27 25  2  0
 28 29  1  0
 29 30  2  0
 31 34  1  0
 31 30  1  0
 32 31  2  0
 33 32  1  0
 33 28  2  0
 34 35  1  0
 35 36  1  0
 36 37  2  0
 38 37  1  0
 38 42  1  0
 39 38  2  0
 40 35  2  0
 40 39  1  0
 41 40  1  0
 43 44  1  0
 44 47  1  0
 44 46  1  0
 45 43  2  0
 48 49  1  0
 48 23  1  0
 50 48  1  0
 51 52  1  0
 53 64  2  0
 54 52  1  0
 54 59  1  0
 55 63  1  0
 55 65  1  0
 56 62  1  0
 56 58  1  0
 57 63  1  0
 58 59  2  0
 58 57  1  0
 60 54  2  0
 61 60  1  0
 61 56  2  0
 62 55  1  0
 63 53  1  0
 65 67  2  0
 66 65  1  0
 68 66  1  0
 69 78  2  0
 69 74  1  0
 70 66  1  0
 70 74  1  0
 71 70  1  0
 72 73  1  0
 72 71  1  0
 73 69  1  0
 74 75  2  0
 75 76  1  0
 77 76  2  0
 78 77  1  0
 79 53  1  0
 79 80  1  0
 79 89  1  0
 80 83  1  0
 81 85  1  0
 81 80  1  0
 82 81  2  0
 85 84  1  0
 87 85  1  0
 87 88  1  0
 87 86  1  0
 89 92  1  1
 89 90  1  0
 91 89  1  0
M  ISO  4  10 100  22 100  51 101  52 101
M  END
>  <TORSDO>  (82) 
F 17

>  <SCORE>  (82) 
-17.095

>  <name>  (82) 
81

>  <ligand_id>  (82) 
81

>  <original_smiles>  (82) 
[H]C1=C(C2([H])N(C(=O)N3C([H])([H])C([H])([H])C([H])([H])C([H])(n4nc(-c5c([H])c([H])c(Oc6c([H])c([H])c(F)c([H])c6F)c([H])c5[H])c(C(=O)N([H])[H])c4N([H])[H])C3([H])[H])C([H])([H])C([H])([H])C2([H])[H])C(N([H])[H])=[N+]([H])C1([H])C([H])([H])Oc1c([H])c([H])c2c(c1[H])C([H])([H])N(C(=O)C([H])(N([H])C(=O)C([H])(N([H])C([H])([H])[H])C([H])([H])[H])C(C([H])([H])[H])(C([H])([H])[H])C([H])([H])[H])C([H])(C(=O)N([H])C1([H])c3c([H])c([H])c([H])c([H])c3C([H])([H])C([H])([H])C1([H])[H])C2([H])[H]

>  <smiles>  (82) 
[H]C1=C(C2([H])N(C(=O)N3C([H])([H])C([H])([H])C([H])([H])C([H])(n4nc(-c5c([H])c([H])c(Oc6c([H])c([H])c(F)c([H])c6F)c([H])c5[H])c(C(=O)N([H])[H])c4N([H])[H])C3([H])[H])C([H])([H])C([H])([H])C2([H])[H])C(N([H])[H])=[N+]([H])C1([H])C([H])([H])Oc1c([H])c([H])c2c(c1[H])C([H])([H])N(C(=O)C([H])(N([H])C(=O)C([H])(N([H])C([H])([H])[H])C([H])([H])[H])C(C([H])([H])[H])(C([H])([H])[H])C([H])([H])[H])C([H])(C(=O)N([H])C1([H])c3c([H])c([H])c([H])c([H])c3C([H])([H])C([H])([H])C1([H])[H])C2([H])[H]

$$$$
82:0:0
     RDKit          3D

 97106  0  0  1  0  0  0  0  0999 V2000
  -29.2190  -19.4000   18.7300 C   0  0  0  0  0  3  0  0  0  0  0  0
  -29.6750  -18.3370   20.8830 C   0  0  0  0  0  3  0  0  0  0  0  0
  -29.8570  -17.0630   18.8050 C   0  0  0  0  0  3  0  0  0  0  0  0
  -29.3140  -19.4970   20.1370 C   0  0  0  0  0  0  0  0  0  0  0  0
  -29.4760  -18.1880   18.0580 C   0  0  0  0  0  0  0  0  0  0  0  0
  -29.9690  -17.1150   20.2130 C   0  0  0  0  0  0  0  0  0  0  0  0
  -31.0100  -14.9130   20.4130 C   0  0  0  0  0  0  0  0  0  0  0  0
  -30.7220  -12.7710   19.2250 C   0  0  0  0  0  2  0  0  0  0  0  0
  -29.7930  -13.0100   18.0150 C   0  0  0  0  0  2  0  0  0  0  0  0
  -28.3150  -12.8770   18.4340 C   0  0  0  0  0  2  0  0  0  0  0  0
  -27.9760  -13.6980   19.7050 C   0  0  0  0  0  3  0  0  0  0  0  0
  -29.0160  -13.4380   20.8200 C   0  0  0  0  0  2  0  0  0  0  0  0
  -30.3510  -13.7300   20.2760 N   0  0  0  0  0  0  0  0  0  0  0  0
  -32.1280  -15.1160   19.9290 O   0  0  0  0  0  0  0  0  0  0  0  0
  -30.2890  -15.9210   20.9420 N   0  0  0  0  0  0  0  0  0  0  0  0
  -29.5850  -15.6290   21.6040 H   0  0  0  0  0  0  0  0  0  0  0  0
  -25.5840  -14.3290   20.4190 C   0  0  0  0  0  0  0  0  0  0  0  0
  -24.5020  -13.5630   20.7620 C   0  0  0  0  0  0  0  0  0  0  0  0
  -24.9410  -12.2040   20.6860 C   0  0  0  0  0  0  0  0  0  0  0  0
  -26.6140  -13.4350   20.1620 N   0  0  0  0  0  0  0  0  0  0  0  0
  -26.2310  -12.1520   20.3800 N   0  0  0  0  0  0  0  0  0  0  0  0
  -24.1940  -10.9470   20.8330 C   0  0  0  0  0  0  0  0  0  0  0  0
  -24.5880   -9.9620   21.7640 C   0  0  0  0  0  3  0  0  0  0  0  0
  -23.8470   -8.7680   21.9020 C   0  0  0  0  0  3  0  0  0  0  0  0
  -22.6960   -8.5530   21.1070 C   0  0  0  0  0  0  0  0  0  0  0  0
  -22.3190   -9.5270   20.1670 C   0  0  0  0  0  3  0  0  0  0  0  0
  -23.0610  -10.7110   20.0280 C   0  0  0  0  0  3  0  0  0  0  0  0
  -21.9300   -7.4130   21.1530 O   0  0  0  0  0  0  0  0  0  0  0  0
  -21.8060   -6.6740   22.3020 C   0  0  0  0  0  0  0  0  0  0  0  0
  -21.2910   -7.2330   23.4930 C   0  0  0  0  0  3  0  0  0  0  0  0
  -21.1140   -6.4210   24.6320 C   0  0  0  0  0  3  0  0  0  0  0  0
  -21.4400   -5.0530   24.5790 C   0  0  0  0  0  0  0  0  0  0  0  0
  -21.9480   -4.4940   23.3930 C   0  0  0  0  0  3  0  0  0  0  0  0
  -22.1260   -5.3030   22.2570 C   0  0  0  0  0  0  0  0  0  0  0  0
  -22.5950   -4.7580   21.1090 F   0  0  0  0  0  0  0  0  0  0  0  0
  -21.2640   -4.2700   25.6690 F   0  0  0  0  0  0  0  0  0  0  0  0
  -23.1120  -14.0500   21.0550 C   0  0  0  0  0  0  0  0  0  0  0  0
  -22.3780  -13.3380   21.9040 N   0  0  0  0  0  0  0  0  0  0  0  0
  -22.6820  -15.0930   20.5650 O   0  0  0  0  0  0  0  0  0  0  0  0
  -22.7360  -12.4900   22.3200 H   0  0  0  0  0  0  0  0  0  0  0  0
  -21.4470  -13.6500   22.1470 H   0  0  0  0  0  0  0  0  0  0  0  0
  -25.7730  -15.7000   20.2850 N   0  0  0  0  0  0  0  0  0  0  0  0
  -25.0170  -16.3660   20.3990 H   0  0  0  0  0  0  0  0  0  0  0  0
  -26.6340  -16.1290   19.9720 H   0  0  0  0  0  0  0  0  0  0  0  0
  -29.4130  -18.0960   16.5650 C   0  0  0  0  0  0  0  0  0  0  0  0
  -28.3440  -18.6240   15.9950 N   0  0  0  0  0  0  0  0  0  0  0  0
  -30.2790  -17.5100   15.9190 O   0  0  0  0  0  0  0  0  0  0  0  0
  -27.6070  -19.0240   16.5560 H   0  0  0  0  0  0  0  0  0  0  0  0
  -28.2430  -18.5850   14.9890 H   0  0  0  0  0  0  0  0  0  0  0  0
  -29.0130  -21.1520   22.0460 C   0  0  0  0  0  2  0  0  0  0  0  0
  -29.0730  -20.8400   20.7500 C   0  0  0  0  0  3  0  0  0  0  0  0
  -28.8780  -22.6420   22.2990 C   0  0  0  0  0  2  0  0  0  0  0  0
  -28.9790  -22.1120   19.9250 C   0  0  0  0  0  2  0  0  0  0  0  0
  -28.5620  -23.2330   20.9010 C   0  0  0  0  0  3  0  0  0  0  0  0
  -29.1380  -24.6330   20.5180 C   0  0  0  0  0  2  0  0  0  0  0  0
  -28.3520  -25.8490   21.0740 C   0  0  0  0  0  2  0  0  0  0  0  0
  -28.5210  -27.0670   20.2990 O   0  0  0  0  0  0  0  0  0  0  0  0
  -24.6230  -32.1180   23.4340 C   0  0  0  0  0  0  0  0  0  0  0  0
  -27.3790  -27.8440   20.2390 C   0  0  0  0  0  0  0  0  0  0  0  0
  -23.4520  -30.7360   21.7440 C   0  0  0  0  0  3  0  0  0  0  0  0
  -24.9510  -29.3010   20.2620 C   0  0  0  0  0  0  0  0  0  0  0  0
  -25.9670  -31.1850   21.5520 C   0  0  0  0  0  2  0  0  0  0  0  0
  -26.0950  -29.8380   20.8650 C   0  0  0  0  0  0  0  0  0  0  0  0
  -27.3140  -29.1170   20.8500 C   0  0  0  0  0  3  0  0  0  0  0  0
  -26.2270  -27.3400   19.6000 C   0  0  0  0  0  3  0  0  0  0  0  0
  -25.0130  -28.0530   19.6200 C   0  0  0  0  0  3  0  0  0  0  0  0
  -23.6800  -30.1210   20.3370 C   0  0  0  0  0  2  0  0  0  0  0  0
  -24.6980  -31.3580   22.3050 N   0  0  0  0  0  0  0  0  0  0  0  0
  -23.5380  -32.3380   23.9880 O   0  0  0  0  0  0  0  0  0  0  0  0
  -22.8340  -29.6610   22.6700 C   0  0  0  0  0  0  0  0  0  0  0  0
  -21.5200  -29.4220   22.5260 N   0  0  0  0  0  0  0  0  0  0  0  0
  -23.5340  -29.0500   23.4810 O   0  0  0  0  0  0  0  0  0  0  0  0
  -21.0070  -29.9880   21.8670 H   0  0  0  0  0  0  0  0  0  0  0  0
  -18.2060  -28.0420   22.9230 C   0  0  0  0  0  0  0  0  0  0  0  0
  -20.7380  -28.4270   23.2610 C   0  0  0  0  0  3  0  0  0  0  0  0
  -20.9260  -27.0100   22.6750 C   0  0  0  0  0  2  0  0  0  0  0  0
  -19.8720  -26.6510   21.6260 C   0  0  0  0  0  2  0  0  0  0  0  0
  -18.4700  -26.7100   22.2400 C   0  0  0  0  0  2  0  0  0  0  0  0
  -19.2730  -28.8540   23.3910 C   0  0  0  0  0  0  0  0  0  0  0  0
  -18.9790  -30.1000   23.9870 C   0  0  0  0  0  3  0  0  0  0  0  0
  -17.6480  -30.5370   24.1120 C   0  0  0  0  0  3  0  0  0  0  0  0
  -16.5920  -29.7220   23.6670 C   0  0  0  0  0  3  0  0  0  0  0  0
  -16.8730  -28.4740   23.0770 C   0  0  0  0  0  3  0  0  0  0  0  0
  -25.8950  -32.7650   24.0670 C   0  0  0  0  0  3  0  0  0  0  0  0
  -26.4030  -32.0050   25.3550 C   0  0  1  0  0  0  0  0  0  0  0  0
  -25.2910  -31.7500   26.4000 C   0  0  0  0  0  1  0  0  0  0  0  0
  -27.0210  -30.6370   24.9790 C   0  0  0  0  0  1  0  0  0  0  0  0
  -27.5280  -32.8200   26.0400 C   0  0  0  0  0  1  0  0  0  0  0  0
  -25.5760  -34.1620   24.3840 N   0  0  0  0  0  0  0  0  0  0  0  0
  -25.9120  -35.2110   23.6180 C   0  0  0  0  0  0  0  0  0  0  0  0
  -26.5990  -35.1030   22.5990 O   0  0  0  0  0  0  0  0  0  0  0  0
  -24.9690  -34.3200   25.1770 H   0  0  0  0  0  0  0  0  0  0  0  0
  -24.1780  -36.9840   23.2120 C   0  0  0  0  0  1  0  0  0  0  0  0
  -25.4080  -36.5980   24.0500 C   0  0  0  0  0  3  0  0  0  0  0  0
  -27.5190  -37.5100   24.9130 C   0  0  0  0  0  1  0  0  0  0  0  0
  -26.4350  -37.6580   23.9440 N   0  0  0  0  0  0  0  0  0  0  0  0
  -26.0190  -38.5750   24.0750 H   0  0  0  0  0  0  0  0  0  0  0  0
  1  4  1  0
  3  6  2  0
  4  2  2  0
  5  1  2  0
  5  3  1  0
  6  2  1  0
  6 15  1  0
  7 15  1  0
  8 13  1  0
  9 10  1  0
  9  8  1  0
 11 10  1  0
 11 20  1  0
 11 12  1  0
 13  7  1  0
 13 12  1  0
 14  7  2  0
 15 16  1  0
 17 18  2  0
 18 37  1  0
 19 18  1  0
 19 22  1  0
 20 21  1  0
 20 17  1  0
 21 19  2  0
 22 23  1  0
 23 24  2  0
 25 28  1  0
 25 24  1  0
 26 25  2  0
 27 26  1  0
 27 22  2  0
 28 29  1  0
 29 30  1  0
 30 31  2  0
 32 31  1  0
 32 36  1  0
 33 32  2  0
 34 29  2  0
 34 33  1  0
 35 34  1  0
 37 38  1  0
 38 41  1  0
 38 40  1  0
 39 37  2  0
 42 43  1  0
 42 17  1  0
 44 42  1  0
 45  5  1  0
 46 48  1  0
 46 45  1  0
 47 45  2  0
 49 46  1  0
 50 52  1  0
 51  4  1  0
 51 50  1  0
 53 51  1  0
 53 54  1  0
 54 55  1  0
 54 52  1  0
 55 56  1  0
 57 56  1  0
 58 69  2  0
 59 57  1  0
 59 64  1  0
 60 68  1  0
 60 70  1  0
 61 67  1  0
 61 63  1  0
 62 68  1  0
 63 62  1  0
 64 63  2  0
 65 66  1  0
 65 59  2  0
 66 61  2  0
 67 60  1  0
 68 58  1  0
 70 72  2  0
 71 70  1  0
 73 71  1  0
 74 83  2  0
 74 79  1  0
 75 71  1  0
 75 79  1  0
 76 75  1  0
 77 78  1  0
 77 76  1  0
 78 74  1  0
 79 80  2  0
 80 81  1  0
 82 81  2  0
 83 82  1  0
 84 58  1  0
 84 89  1  0
 84 85  1  0
 85 88  1  1
 85 86  1  0
 87 85  1  0
 89 92  1  0
 90 94  1  0
 90 89  1  0
 91 90  2  0
 94 93  1  0
 96 94  1  0
 96 97  1  0
 96 95  1  0
M  ISO  4   7 100  15 100  56 101  57 101
M  END
>  <TORSDO>  (83) 
F 20

>  <SCORE>  (83) 
-12.419

>  <name>  (83) 
82

>  <ligand_id>  (83) 
82

>  <original_smiles>  (83) 
[H]C1=C(c2c([H])c(C(=O)N([H])[H])c([H])c(N([H])C(=O)N3C([H])([H])C([H])([H])C([H])([H])C([H])(n4nc(-c5c([H])c([H])c(Oc6c([H])c([H])c(F)c([H])c6F)c([H])c5[H])c(C(=O)N([H])[H])c4N([H])[H])C3([H])[H])c2[H])C([H])([H])C([H])(C([H])([H])C([H])([H])Oc2c([H])c([H])c3c(c2[H])C([H])([H])N(C(=O)C([H])(N([H])C(=O)C([H])(N([H])C([H])([H])[H])C([H])([H])[H])C(C([H])([H])[H])(C([H])([H])[H])C([H])([H])[H])C([H])(C(=O)N([H])C2([H])c4c([H])c([H])c([H])c([H])c4C([H])([H])C([H])([H])C2([H])[H])C3([H])[H])C1([H])[H]

>  <smiles>  (83) 
[H]C1=C(c2c([H])c(C(=O)N([H])[H])c([H])c(N([H])C(=O)N3C([H])([H])C([H])([H])C([H])([H])C([H])(n4nc(-c5c([H])c([H])c(Oc6c([H])c([H])c(F)c([H])c6F)c([H])c5[H])c(C(=O)N([H])[H])c4N([H])[H])C3([H])[H])c2[H])C([H])([H])C([H])(C([H])([H])C([H])([H])Oc2c([H])c([H])c3c(c2[H])C([H])([H])N(C(=O)C([H])(N([H])C(=O)C([H])(N([H])C([H])([H])[H])C([H])([H])[H])C(C([H])([H])[H])(C([H])([H])[H])C([H])([H])[H])C([H])(C(=O)N([H])C2([H])c4c([H])c([H])c([H])c([H])c4C([H])([H])C([H])([H])C2([H])[H])C3([H])[H])C1([H])[H]

$$$$
83:0:0
     RDKit          3D

 93 91  0  0  1  0  0  0  0  0999 V2000
  -19.6900  -25.3820   22.5980 C   0  0  0  0  0 15  0  0  0  0  0  0
  -20.3350  -23.5820   22.0970 C   0  0  0  0  0  1  0  0  0  0  0  0
  -21.8780  -22.9500   21.2480 C   0  0  0  0  0  2  0  0  0  0  0  0
  -22.8390  -23.0410   19.5840 C   0  0  0  0  0  2  0  0  0  0  0  0
  -24.5570  -23.4090   18.8060 C   0  0  0  0  0  3  0  0  0  0  0  0
  -26.1980  -24.4100   18.9570 C   0  0  0  0  0  3  0  0  0  0  0  0
  -27.0660  -25.5960   19.7800 O   0  0  0  0  0  0  0  0  0  0  0  0
  -24.7050  -31.8910   23.2260 C   0  0  0  0  0  0  0  0  0  0  0  0
  -26.6950  -26.9740   19.8900 C   0  0  0  0  0  0  0  0  0  0  0  0
  -23.4270  -30.4120   21.8600 C   0  0  0  0  0  3  0  0  0  0  0  0
  -24.8230  -29.1080   20.0760 C   0  0  0  0  0  0  0  0  0  0  0  0
  -26.0380  -30.5990   21.5550 C   0  0  0  0  0  2  0  0  0  0  0  0
  -26.0160  -29.2700   20.7600 C   0  0  0  0  0  0  0  0  0  0  0  0
  -27.0030  -28.1770   20.7030 C   0  0  0  0  0  3  0  0  0  0  0  0
  -25.6920  -27.1380   18.9840 C   0  0  0  0  0  3  0  0  0  0  0  0
  -24.7560  -28.1310   19.0950 C   0  0  0  0  0  3  0  0  0  0  0  0
  -23.6460  -30.0490   20.3490 C   0  0  0  0  0  2  0  0  0  0  0  0
  -24.7600  -30.9460   22.2820 N   0  0  0  0  0  0  0  0  0  0  0  0
  -23.6310  -32.3040   23.6600 O   0  0  0  0  0  0  0  0  0  0  0  0
  -22.9630  -29.2800   23.0450 C   0  0  0  0  0  0  0  0  0  0  0  0
  -21.8910  -28.4740   22.9620 N   0  0  0  0  0  0  0  0  0  0  0  0
  -23.6370  -29.1020   24.0500 O   0  0  0  0  0  0  0  0  0  0  0  0
  -22.5190  -27.7080   22.6370 H   0  0  0  0  0  0  0  0  0  0  0  0
  -18.3420  -27.6940   22.7150 C   0  0  0  0  0  0  0  0  0  0  0  0
  -21.2380  -27.0240   23.0670 C   0  0  0  0  0  2  0  0  0  0  0  0
  -21.0470  -25.6050   20.8550 C   0  0  0  0  0  1  0  0  0  0  0  0
  -19.2290  -25.8400   20.3330 C   0  0  0  0  0  3  0  0  0  0  0  0
  -18.0900  -26.7900   21.3360 C   0  0  0  0  0  3  0  0  0  0  0  0
  -19.6470  -27.8890   23.4210 C   0  0  0  0  0  0  0  0  0  0  0  0
  -19.5500  -29.1910   24.0770 C   0  0  0  0  0  3  0  0  0  0  0  0
  -18.4430  -30.0970   24.1660 C   0  0  0  0  0  3  0  0  0  0  0  0
  -17.1910  -29.6800   23.7430 C   0  0  0  0  0  3  0  0  0  0  0  0
  -17.1510  -28.4430   23.0780 C   0  0  0  0  0  3  0  0  0  0  0  0
  -25.9980  -32.4980   23.8490 C   0  0  0  0  0  3  0  0  0  0  0  0
  -26.5120  -31.7240   25.1330 C   0  0  1  0  0  0  0  0  0  0  0  0
  -25.4270  -31.4440   26.2110 C   0  0  0  0  0  1  0  0  0  0  0  0
  -27.2150  -30.4160   24.7400 C   0  0  0  0  0  1  0  0  0  0  0  0
  -27.6240  -32.5930   25.8130 C   0  0  0  0  0  1  0  0  0  0  0  0
  -25.6530  -33.8760   24.2260 N   0  0  0  0  0  0  0  0  0  0  0  0
  -25.9320  -34.9640   23.5050 C   0  0  0  0  0  0  0  0  0  0  0  0
  -26.5900  -34.9240   22.4640 O   0  0  0  0  0  0  0  0  0  0  0  0
  -24.9410  -33.9990   24.9260 H   0  0  0  0  0  0  0  0  0  0  0  0
  -24.1410  -36.7180   23.2600 C   0  0  0  0  0  1  0  0  0  0  0  0
  -25.4110  -36.3120   24.0220 C   0  0  0  0  0  3  0  0  0  0  0  0
  -27.5510  -37.1700   24.8460 C   0  0  0  0  0  1  0  0  0  0  0  0
  -26.4250  -37.3870   23.9410 N   0  0  0  0  0  0  0  0  0  0  0  0
  -26.0090  -38.2920   24.1450 H   0  0  0  0  0  0  0  0  0  0  0  0
  -20.5920  -27.6170   21.0720 C   0  0  0  0  0 15  0  0  0  0  0  0
  -22.7520  -27.0800   21.0290 C   0  0  0  0  0 15  0  0  0  0  0  0
  -27.9090  -18.1770   21.0820 C   0  0  0  0  0  2  0  0  0  0  0  0
  -29.3560  -15.4540   19.9080 C   0  0  0  0  0  2  0  0  0  0  0  0
  -29.2860  -14.1310   18.8690 C   0  0  0  0  0  2  0  0  0  0  0  0
  -28.3630  -13.0030   19.2890 C   0  0  0  0  0  2  0  0  0  0  0  0
  -27.3590  -13.8110   20.0870 C   0  0  0  0  0  3  0  0  0  0  0  0
  -27.8070  -14.9350   21.1980 C   0  0  0  0  0  2  0  0  0  0  0  0
  -28.1240  -16.3930   20.6550 N   0  0  0  0  0  0  0  0  0  0  0  0
  -29.2440  -17.9770   20.8950 O   0  0  0  0  0  1  0  0  0  0  0  0
  -24.6900  -22.8230   23.2010 C   0  0  0  0  0 15  0  0  0  0  0  0
  -25.8150  -21.2090   22.7680 C   0  0  0  0  0  1  0  0  0  0  0  0
  -25.6260  -21.8830   21.0070 C   0  0  0  0  0  1  0  0  0  0  0  0
  -24.0590  -24.7670   23.0710 C   0  0  0  0  0  1  0  0  0  0  0  0
  -24.9530  -24.1760   21.1810 C   0  0  0  0  0  1  0  0  0  0  0  0
  -26.7010  -20.0360   21.4750 N   0  0  0  0  0 15  0  0  0  0  0  0
  -23.6630  -25.4200   21.6550 N   0  0  0  0  0  0  0  0  0  0  0  0
  -22.7620  -24.9500   21.4910 H   0  0  0  0  0  0  0  0  0  0  0  0
  -25.0160  -13.9070   20.6010 C   0  0  0  0  0  0  0  0  0  0  0  0
  -24.0510  -13.0360   20.9350 C   0  0  0  0  0  0  0  0  0  0  0  0
  -24.6260  -11.7240   20.8850 C   0  0  0  0  0  0  0  0  0  0  0  0
  -26.1390  -13.1530   20.4360 N   0  0  0  0  0  0  0  0  0  0  0  0
  -25.9380  -11.8080   20.6050 N   0  0  0  0  0  0  0  0  0  0  0  0
  -23.9360  -10.4300   21.0260 C   0  0  0  0  0  0  0  0  0  0  0  0
  -24.3830   -9.4280   21.9110 C   0  0  0  0  0  3  0  0  0  0  0  0
  -23.6450   -8.2340   22.0730 C   0  0  0  0  0  3  0  0  0  0  0  0
  -22.4430   -8.0310   21.3540 C   0  0  0  0  0  0  0  0  0  0  0  0
  -22.0130   -9.0270   20.4590 C   0  0  0  0  0  3  0  0  0  0  0  0
  -22.7530  -10.2100   20.2930 C   0  0  0  0  0  3  0  0  0  0  0  0
  -21.6750   -6.8940   21.4260 O   0  0  0  0  0  0  0  0  0  0  0  0
  -21.6920   -6.0770   22.5290 C   0  0  0  0  0  0  0  0  0  0  0  0
  -21.4060   -6.5650   23.8230 C   0  0  0  0  0  3  0  0  0  0  0  0
  -21.3670   -5.6790   24.9190 C   0  0  0  0  0  3  0  0  0  0  0  0
  -21.6060   -4.3050   24.7230 C   0  0  0  0  0  0  0  0  0  0  0  0
  -21.8810   -3.8150   23.4350 C   0  0  0  0  0  3  0  0  0  0  0  0
  -21.9220   -4.6980   22.3410 C   0  0  0  0  0  0  0  0  0  0  0  0
  -22.1660   -4.2140   21.1000 F   0  0  0  0  0  0  0  0  0  0  0  0
  -21.5620   -3.4540   25.7750 F   0  0  0  0  0  0  0  0  0  0  0  0
  -22.6510  -13.4610   21.2050 C   0  0  0  0  0  0  0  0  0  0  0  0
  -21.9550  -12.7510   22.0780 N   0  0  0  0  0  0  0  0  0  0  0  0
  -22.1990  -14.4860   20.6920 O   0  0  0  0  0  0  0  0  0  0  0  0
  -22.3490  -11.9330   22.5140 H   0  0  0  0  0  0  0  0  0  0  0  0
  -21.0110  -13.0250   22.3050 H   0  0  0  0  0  0  0  0  0  0  0  0
  -25.0170  -15.2890   20.4030 N   0  0  0  0  0  0  0  0  0  0  0  0
  -24.1620  -15.8330   20.4570 H   0  0  0  0  0  0  0  0  0  0  0  0
  -25.8260  -15.8350   20.1470 H   0  0  0  0  0  0  0  0  0  0  0  0
  3  2  1  0
  4  3  1  0
  5  6  2  0
  5  4  1  0
  6  7  1  0
  7  9  1  0
  8 19  2  0
  9 14  1  0
 10 18  1  0
 10 20  1  0
 11 17  1  0
 11 13  1  0
 12 18  1  0
 13 12  1  0
 14 13  2  0
 15 16  1  0
 15  9  2  0
 16 11  2  0
 17 10  1  0
 18  8  1  0
 20 22  2  0
 21 20  1  0
 21 25  1  0
 23 21  1  0
 24 33  2  0
 24 29  1  0
 25 29  1  0
 27 26  1  0
 27 28  2  0
 28 24  1  0
 29 30  2  0
 30 31  1  0
 32 31  2  0
 33 32  1  0
 34  8  1  0
 34 39  1  0
 34 35  1  0
 35 38  1  1
 35 36  1  0
 37 35  1  0
 39 42  1  0
 40 44  1  0
 40 39  1  0
 41 40  2  0
 44 43  1  0
 46 44  1  0
 46 47  1  0
 46 45  1  0
 51 56  1  0
 52 53  1  0
 52 51  1  0
 54 53  1  0
 54 69  1  0
 54 55  1  0
 56 50  1  0
 56 55  1  0
 57 50  1  0
 60 59  1  0
 62 64  1  0
 64 61  1  0
 65 64  1  0
 66 67  2  0
 67 86  1  0
 68 67  1  0
 68 71  1  0
 69 66  1  0
 69 70  1  0
 70 68  2  0
 71 72  1  0
 72 73  2  0
 74 77  1  0
 74 73  1  0
 75 74  2  0
 76 75  1  0
 76 71  2  0
 77 78  1  0
 78 79  1  0
 79 80  2  0
 81 80  1  0
 81 85  1  0
 82 81  2  0
 83 78  2  0
 83 82  1  0
 84 83  1  0
 86 87  1  0
 87 90  1  0
 87 89  1  0
 88 86  2  0
 91 92  1  0
 91 66  1  0
 93 91  1  0
M  ISO  4   6 101   7 101  50 100  63 100
M  END
>  <TORSDO>  (84) 
F 23

>  <SCORE>  (84) 
7.470

>  <name>  (84) 
83

>  <ligand_id>  (84) 
83

>  <original_smiles>  (84) 
[H]c1c([H])c([H])c2c(c1[H])C([H])([H])C([H])([H])C([H])([H])C2([H])N([H])C(=O)C1([H])N(C(=O)C([H])(N([H])C(=O)C([H])(N([H])C([H])([H])[H])C([H])([H])[H])C(C([H])([H])[H])(C([H])([H])[H])C([H])([H])[H])C([H])([H])c2c([H])c(OC([H])([H])C([H])([H])C([H])([H])C([H])([H])C([H])([H])C([H])([H])C([H])([H])C([H])([H])[N+]3([H])C([H])([H])C([H])([H])N(C(=O)N4C([H])([H])C([H])([H])C([H])([H])C([H])(n5nc(-c6c([H])c([H])c(Oc7c([H])c([H])c(F)c([H])c7F)c([H])c6[H])c(C(=O)N([H])[H])c5N([H])[H])C4([H])[H])C([H])([H])C([H])([H])C3([H])[H])c([H])c([H])c2C1([H])[H]

>  <smiles>  (84) 
[H]c1c([H])c([H])c2c(c1[H])C([H])([H])C([H])([H])C([H])([H])C2([H])N([H])C(=O)C1([H])N(C(=O)C([H])(N([H])C(=O)C([H])(N([H])C([H])([H])[H])C([H])([H])[H])C(C([H])([H])[H])(C([H])([H])[H])C([H])([H])[H])C([H])([H])c2c([H])c(OC([H])([H])C([H])([H])C([H])([H])C([H])([H])C([H])([H])C([H])([H])C([H])([H])C([H])([H])[N+]3([H])C([H])([H])C([H])([H])N(C(=O)N4C([H])([H])C([H])([H])C([H])([H])C([H])(n5nc(-c6c([H])c([H])c(Oc7c([H])c([H])c(F)c([H])c7F)c([H])c6[H])c(C(=O)N([H])[H])c5N([H])[H])C4([H])[H])C([H])([H])C([H])([H])C3([H])[H])c([H])c([H])c2C1([H])[H]

$$$$
85:0:0
     RDKit          3D

 93101  0  0  1  0  0  0  0  0999 V2000
  -28.7530  -19.5670   21.0330 C   0  0  0  0  0  2  0  0  0  0  0  0
  -30.9940  -20.5330   20.5780 C   0  0  0  0  0  2  0  0  0  0  0  0
  -28.0530  -20.7510   20.3510 C   0  0  0  0  0  2  0  0  0  0  0  0
  -30.3590  -21.7620   19.8810 C   0  0  0  0  0  2  0  0  0  0  0  0
  -30.1130  -19.2860   20.3730 C   0  0  0  0  0  3  0  0  0  0  0  0
  -28.8980  -22.0500   20.3190 C   0  0  0  0  0  3  0  0  0  0  0  0
  -30.7270  -17.9270   20.8290 C   0  0  0  0  0  2  0  0  0  0  0  0
  -30.6970  -14.4740   20.4710 C   0  0  0  0  0  0  0  0  0  0  0  0
  -30.4090  -12.3340   19.3020 C   0  0  0  0  0  2  0  0  0  0  0  0
  -29.4720  -12.5680   18.0970 C   0  0  0  0  0  2  0  0  0  0  0  0
  -27.9930  -12.4370   18.5150 C   0  0  0  0  0  2  0  0  0  0  0  0
  -27.6540  -13.2550   19.7890 C   0  0  0  0  0  3  0  0  0  0  0  0
  -28.7020  -13.0050   20.9030 C   0  0  0  0  0  2  0  0  0  0  0  0
  -30.0410  -13.2890   20.3570 N   0  0  0  0  0  0  0  0  0  0  0  0
  -31.7970  -14.7160   19.9600 O   0  0  0  0  0  0  0  0  0  0  0  0
  -29.8990  -16.7500   20.3340 C   0  0  0  0  0  0  0  0  0  0  0  0
  -29.9190  -15.5630   20.9810 N   0  0  0  0  0  0  0  0  0  0  0  0
  -29.0980  -16.9070   19.2510 N   0  0  0  0  0  4  0  0  0  0  0  0
  -29.0930  -15.3740   21.5250 H   0  0  0  0  0  0  0  0  0  0  0  0
  -29.0480  -17.8100   18.7980 H   0  0  0  0  0  0  0  0  0  0  0  0
  -28.5370  -16.1760   18.8400 H   0  0  0  0  0  0  0  0  0  0  0  0
  -25.2440  -13.8840   20.4520 C   0  0  0  0  0  0  0  0  0  0  0  0
  -24.1680  -13.1190   20.8130 C   0  0  0  0  0  0  0  0  0  0  0  0
  -24.6240  -11.7660   20.8020 C   0  0  0  0  0  0  0  0  0  0  0  0
  -26.2900  -12.9960   20.2470 N   0  0  0  0  0  0  0  0  0  0  0  0
  -25.9180  -11.7180   20.5120 N   0  0  0  0  0  0  0  0  0  0  0  0
  -23.8940  -10.5080   20.9960 C   0  0  0  0  0  0  0  0  0  0  0  0
  -24.3100   -9.5530   21.9500 C   0  0  0  0  0  3  0  0  0  0  0  0
  -23.5770   -8.3590   22.1300 C   0  0  0  0  0  3  0  0  0  0  0  0
  -22.4160   -8.1150   21.3600 C   0  0  0  0  0  0  0  0  0  0  0  0
  -22.0180   -9.0610   20.3980 C   0  0  0  0  0  3  0  0  0  0  0  0
  -22.7520  -10.2440   20.2140 C   0  0  0  0  0  3  0  0  0  0  0  0
  -21.6580   -6.9720   21.4470 O   0  0  0  0  0  0  0  0  0  0  0  0
  -21.5860   -6.2450   22.6070 C   0  0  0  0  0  0  0  0  0  0  0  0
  -21.1360   -6.8160   23.8170 C   0  0  0  0  0  3  0  0  0  0  0  0
  -21.0130   -6.0170   24.9720 C   0  0  0  0  0  3  0  0  0  0  0  0
  -21.3290   -4.6460   24.9160 C   0  0  0  0  0  0  0  0  0  0  0  0
  -21.7720   -4.0740   23.7110 C   0  0  0  0  0  3  0  0  0  0  0  0
  -21.8980   -4.8710   22.5590 C   0  0  0  0  0  0  0  0  0  0  0  0
  -22.3060   -4.3100   21.3940 F   0  0  0  0  0  0  0  0  0  0  0  0
  -21.2010   -3.8770   26.0230 F   0  0  0  0  0  0  0  0  0  0  0  0
  -22.7700  -13.6050   21.0630 C   0  0  0  0  0  0  0  0  0  0  0  0
  -22.0270  -12.9180   21.9240 N   0  0  0  0  0  0  0  0  0  0  0  0
  -22.3450  -14.6320   20.5340 O   0  0  0  0  0  0  0  0  0  0  0  0
  -22.3790  -12.0850   22.3730 H   0  0  0  0  0  0  0  0  0  0  0  0
  -21.0890  -13.2290   22.1360 H   0  0  0  0  0  0  0  0  0  0  0  0
  -25.4150  -15.2530   20.2660 N   0  0  0  0  0  0  0  0  0  0  0  0
  -24.6440  -15.9040   20.3610 H   0  0  0  0  0  0  0  0  0  0  0  0
  -26.2650  -15.7040   19.9600 H   0  0  0  0  0  0  0  0  0  0  0  0
  -28.1820  -23.0610   19.3810 C   0  0  0  0  0  2  0  0  0  0  0  0
  -28.7190  -24.5080   19.2980 C   0  0  0  0  0  2  0  0  0  0  0  0
  -28.3990  -25.3840   20.5180 C   0  0  0  0  0  2  0  0  0  0  0  0
  -28.4730  -26.7770   20.1850 O   0  0  0  0  0  0  0  0  0  0  0  0
  -24.6020  -31.8960   23.2180 C   0  0  0  0  0  0  0  0  0  0  0  0
  -27.2850  -27.4760   20.1600 C   0  0  0  0  0  0  0  0  0  0  0  0
  -23.4050  -30.4830   21.5760 C   0  0  0  0  0  3  0  0  0  0  0  0
  -24.8720  -28.9520   20.1570 C   0  0  0  0  0  0  0  0  0  0  0  0
  -25.9270  -30.8640   21.3770 C   0  0  0  0  0  2  0  0  0  0  0  0
  -26.0230  -29.4940   20.7380 C   0  0  0  0  0  0  0  0  0  0  0  0
  -27.2340  -28.7650   20.7280 C   0  0  0  0  0  3  0  0  0  0  0  0
  -26.1140  -26.9400   19.5730 C   0  0  0  0  0  3  0  0  0  0  0  0
  -24.9120  -27.6730   19.5680 C   0  0  0  0  0  3  0  0  0  0  0  0
  -23.6200  -29.7990   20.1990 C   0  0  0  0  0  2  0  0  0  0  0  0
  -24.6630  -31.0960   22.1160 N   0  0  0  0  0  0  0  0  0  0  0  0
  -23.5200  -32.1610   23.7570 O   0  0  0  0  0  0  0  0  0  0  0  0
  -22.7600  -29.4600   22.5380 C   0  0  0  0  0  0  0  0  0  0  0  0
  -21.4350  -29.2790   22.4160 N   0  0  0  0  0  0  0  0  0  0  0  0
  -23.4470  -28.8320   23.3490 O   0  0  0  0  0  0  0  0  0  0  0  0
  -20.9440  -29.8350   21.7300 H   0  0  0  0  0  0  0  0  0  0  0  0
  -18.0590  -28.1020   22.9350 C   0  0  0  0  0  0  0  0  0  0  0  0
  -20.6200  -28.3410   23.1860 C   0  0  0  0  0  3  0  0  0  0  0  0
  -20.7090  -26.9140   22.5970 C   0  0  0  0  0  2  0  0  0  0  0  0
  -19.5970  -26.6070   21.5890 C   0  0  0  0  0  2  0  0  0  0  0  0
  -18.2210  -26.7570   22.2470 C   0  0  0  0  0  2  0  0  0  0  0  0
  -19.1870  -28.8530   23.3610 C   0  0  0  0  0  0  0  0  0  0  0  0
  -18.9830  -30.1140   23.9640 C   0  0  0  0  0  3  0  0  0  0  0  0
  -17.6830  -30.6230   24.1450 C   0  0  0  0  0  3  0  0  0  0  0  0
  -16.5690  -29.8680   23.7360 C   0  0  0  0  0  3  0  0  0  0  0  0
  -16.7580  -28.6090   23.1370 C   0  0  0  0  0  3  0  0  0  0  0  0
  -25.8840  -32.5330   23.8400 C   0  0  0  0  0  3  0  0  0  0  0  0
  -26.4080  -31.7630   25.1140 C   0  0  1  0  0  0  0  0  0  0  0  0
  -25.3180  -31.5170   26.1830 C   0  0  0  0  0  1  0  0  0  0  0  0
  -26.9980  -30.3900   24.7160 C   0  0  0  0  0  1  0  0  0  0  0  0
  -27.5530  -32.5650   25.7770 C   0  0  0  0  0  1  0  0  0  0  0  0
  -25.5680  -33.9280   24.1690 N   0  0  0  0  0  0  0  0  0  0  0  0
  -25.9000  -34.9830   23.4110 C   0  0  0  0  0  0  0  0  0  0  0  0
  -26.5750  -34.8820   22.3830 O   0  0  0  0  0  0  0  0  0  0  0  0
  -24.9710  -34.0820   24.9690 H   0  0  0  0  0  0  0  0  0  0  0  0
  -24.1700  -36.7690   23.0360 C   0  0  0  0  0  1  0  0  0  0  0  0
  -25.4020  -36.3680   23.8640 C   0  0  0  0  0  3  0  0  0  0  0  0
  -27.5240  -37.2550   24.7220 C   0  0  0  0  0  1  0  0  0  0  0  0
  -26.4320  -37.4250   23.7670 N   0  0  0  0  0  0  0  0  0  0  0  0
  -26.0220  -38.3430   23.9140 H   0  0  0  0  0  0  0  0  0  0  0  0
  3  1  1  0
  4  6  1  0
  4  2  1  0
  5  2  1  0
  5  7  1  0
  5  1  1  0
  6 50  1  0
  6  3  1  0
  8 17  1  0
  9 14  1  0
 10 11  1  0
 10  9  1  0
 12 11  1  0
 12 25  1  0
 12 13  1  0
 14  8  1  0
 14 13  1  0
 15  8  2  0
 16  7  1  0
 16 17  1  0
 17 19  1  0
 18 16  2  0
 20 18  1  0
 21 18  1  0
 22 23  2  0
 23 42  1  0
 24 23  1  0
 24 27  1  0
 25 22  1  0
 25 26  1  0
 26 24  2  0
 27 28  1  0
 28 29  2  0
 30 33  1  0
 30 29  1  0
 31 30  2  0
 32 31  1  0
 32 27  2  0
 33 34  1  0
 34 35  1  0
 35 36  2  0
 37 36  1  0
 37 41  1  0
 38 37  2  0
 39 34  2  0
 39 38  1  0
 40 39  1  0
 42 43  1  0
 43 46  1  0
 43 45  1  0
 44 42  2  0
 47 48  1  0
 47 22  1  0
 49 47  1  0
 51 50  1  0
 51 52  1  0
 53 52  1  0
 54 65  2  0
 55 53  1  0
 55 60  1  0
 56 64  1  0
 56 66  1  0
 57 63  1  0
 57 59  1  0
 58 64  1  0
 59 58  1  0
 60 59  2  0
 61 55  2  0
 62 61  1  0
 62 57  2  0
 63 56  1  0
 64 54  1  0
 66 68  2  0
 67 66  1  0
 69 67  1  0
 70 79  2  0
 70 75  1  0
 71 67  1  0
 71 75  1  0
 72 71  1  0
 73 74  1  0
 73 72  1  0
 74 70  1  0
 75 76  2  0
 76 77  1  0
 78 77  2  0
 79 78  1  0
 80 54  1  0
 80 85  1  0
 80 81  1  0
 81 84  1  1
 81 82  1  0
 83 81  1  0
 85 88  1  0
 86 90  1  0
 86 85  1  0
 87 86  2  0
 90 89  1  0
 92 90  1  0
 92 93  1  0
 92 91  1  0
M  ISO  4   8 100  17 100  52 101  53 101
M  END
>  <TORSDO>  (85) 
F 20

>  <SCORE>  (85) 
-13.667

>  <name>  (85) 
85

>  <ligand_id>  (85) 
85

>  <original_smiles>  (85) 
[H]c1c([H])c([H])c2c(c1[H])C([H])([H])C([H])([H])C([H])([H])C2([H])N([H])C(=O)C1([H])N(C(=O)C([H])(N([H])C(=O)C([H])(N([H])C([H])([H])[H])C([H])([H])[H])C(C([H])([H])[H])(C([H])([H])[H])C([H])([H])[H])C([H])([H])c2c([H])c(OC([H])([H])C([H])([H])C([H])([H])C3([H])C([H])([H])C([H])([H])C([H])(C([H])([H])C(N([H])C(=O)N4C([H])([H])C([H])([H])C([H])([H])C([H])(n5nc(-c6c([H])c([H])c(Oc7c([H])c([H])c(F)c([H])c7F)c([H])c6[H])c(C(=O)N([H])[H])c5N([H])[H])C4([H])[H])=[N+]([H])[H])C([H])([H])C3([H])[H])c([H])c([H])c2C1([H])[H]

>  <smiles>  (85) 
[H]c1c([H])c([H])c2c(c1[H])C([H])([H])C([H])([H])C([H])([H])C2([H])N([H])C(=O)C1([H])N(C(=O)C([H])(N([H])C(=O)C([H])(N([H])C([H])([H])[H])C([H])([H])[H])C(C([H])([H])[H])(C([H])([H])[H])C([H])([H])[H])C([H])([H])c2c([H])c(OC([H])([H])C([H])([H])C([H])([H])C3([H])C([H])([H])C([H])([H])C([H])(C([H])([H])C(N([H])C(=O)N4C([H])([H])C([H])([H])C([H])([H])C([H])(n5nc(-c6c([H])c([H])c(Oc7c([H])c([H])c(F)c([H])c7F)c([H])c6[H])c(C(=O)N([H])[H])c5N([H])[H])C4([H])[H])=[N+]([H])[H])C([H])([H])C3([H])[H])c([H])c([H])c2C1([H])[H]

$$$$
86:0:0
     RDKit          3D

 99108  0  0  1  0  0  0  0  0999 V2000
  -28.9730  -19.3840   21.1000 C   0  0  0  0  0  3  0  0  0  0  0  0
  -28.8260  -17.9940   20.8500 C   0  0  0  0  0  3  0  0  0  0  0  0
  -31.2050  -17.7920   20.4830 C   0  0  0  0  0  3  0  0  0  0  0  0
  -30.2490  -19.9970   21.0920 C   0  0  0  0  0  0  0  0  0  0  0  0
  -31.3750  -19.1850   20.7230 C   0  0  0  0  0  0  0  0  0  0  0  0
  -29.9420  -17.1670   20.5720 C   0  0  0  0  0  0  0  0  0  0  0  0
  -30.5550  -14.7480   20.0030 C   0  0  0  0  0  0  0  0  0  0  0  0
  -30.3540  -12.5230   18.9270 C   0  0  0  0  0  2  0  0  0  0  0  0
  -29.3310  -12.6160   17.7740 C   0  0  0  0  0  2  0  0  0  0  0  0
  -27.8930  -12.4070   18.2940 C   0  0  0  0  0  2  0  0  0  0  0  0
  -27.5790  -13.2640   19.5480 C   0  0  0  0  0  3  0  0  0  0  0  0
  -28.7060  -13.1380   20.5980 C   0  0  0  0  0  2  0  0  0  0  0  0
  -29.9700  -13.5160   19.9450 N   0  0  0  0  0  0  0  0  0  0  0  0
  -31.6640  -14.9700   19.5030 O   0  0  0  0  0  0  0  0  0  0  0  0
  -29.7530  -15.7380   20.4760 N   0  0  0  0  0  0  0  0  0  0  0  0
  -28.8380  -15.4110   20.7450 H   0  0  0  0  0  0  0  0  0  0  0  0
  -25.2210  -13.7810   20.4370 C   0  0  0  0  0  0  0  0  0  0  0  0
  -24.2050  -12.9680   20.8610 C   0  0  0  0  0  0  0  0  0  0  0  0
  -24.7010  -11.6320   20.7640 C   0  0  0  0  0  0  0  0  0  0  0  0
  -26.2720  -12.9370   20.1110 N   0  0  0  0  0  0  0  0  0  0  0  0
  -25.9670  -11.6390   20.3660 N   0  0  0  0  0  0  0  0  0  0  0  0
  -24.0260  -10.3440   20.9710 C   0  0  0  0  0  0  0  0  0  0  0  0
  -24.4800   -9.4220   21.9380 C   0  0  0  0  0  3  0  0  0  0  0  0
  -23.8040   -8.1970   22.1310 C   0  0  0  0  0  3  0  0  0  0  0  0
  -22.6610   -7.8880   21.3570 C   0  0  0  0  0  0  0  0  0  0  0  0
  -22.2290   -8.8000   20.3780 C   0  0  0  0  0  3  0  0  0  0  0  0
  -22.9050  -10.0160   20.1840 C   0  0  0  0  0  3  0  0  0  0  0  0
  -21.9570   -6.7130   21.4560 O   0  0  0  0  0  0  0  0  0  0  0  0
  -21.7900   -6.0740   22.6590 C   0  0  0  0  0  0  0  0  0  0  0  0
  -21.1670   -6.7040   23.7590 C   0  0  0  0  0  3  0  0  0  0  0  0
  -20.9550   -5.9870   24.9530 C   0  0  0  0  0  3  0  0  0  0  0  0
  -21.3540   -4.6410   25.0480 C   0  0  0  0  0  0  0  0  0  0  0  0
  -21.9690   -4.0100   23.9520 C   0  0  0  0  0  3  0  0  0  0  0  0
  -22.1840   -4.7240   22.7610 C   0  0  0  0  0  0  0  0  0  0  0  0
  -22.7570   -4.1050   21.7010 F   0  0  0  0  0  0  0  0  0  0  0  0
  -21.1430   -3.9490   26.1920 F   0  0  0  0  0  0  0  0  0  0  0  0
  -22.8160  -13.3970   21.2400 C   0  0  0  0  0  0  0  0  0  0  0  0
  -22.1740  -12.6640   22.1430 N   0  0  0  0  0  0  0  0  0  0  0  0
  -22.3110  -14.4160   20.7710 O   0  0  0  0  0  0  0  0  0  0  0  0
  -22.5970  -11.8400   22.5440 H   0  0  0  0  0  0  0  0  0  0  0  0
  -21.2460  -12.9320   22.4390 H   0  0  0  0  0  0  0  0  0  0  0  0
  -25.3360  -15.1590   20.2790 N   0  0  0  0  0  0  0  0  0  0  0  0
  -24.5540  -15.7860   20.4390 H   0  0  0  0  0  0  0  0  0  0  0  0
  -26.1280  -15.6190   19.8490 H   0  0  0  0  0  0  0  0  0  0  0  0
  -30.4410  -21.3530   21.7470 C   0  0  0  0  0  0  0  0  0  0  0  0
  -30.0160  -22.7840   21.3570 C   0  0  0  0  0  0  0  0  0  0  0  0
  -30.6060  -23.6100   22.4820 C   0  0  0  0  0  3  0  0  0  0  0  0
  -31.2600  -22.6290   23.4350 C   0  0  0  0  0  3  0  0  0  0  0  0
  -31.0870  -21.3280   22.8470 N   0  0  0  0  0  2  0  0  0  0  0  0
  -29.3660  -23.2780   20.3490 N   0  0  0  0  0  2  0  0  0  0  0  0
  -29.3520  -24.7630   20.1710 C   0  0  0  0  0  2  0  0  0  0  0  0
  -28.0420  -25.4020   19.6220 C   0  0  0  0  0  2  0  0  0  0  0  0
  -28.1410  -26.8520   19.6840 O   0  0  0  0  0  0  0  0  0  0  0  0
  -24.4940  -31.9180   23.1590 C   0  0  0  0  0  0  0  0  0  0  0  0
  -26.9780  -27.6060   19.7420 C   0  0  0  0  0  0  0  0  0  0  0  0
  -23.2160  -30.6170   21.4880 C   0  0  0  0  0  3  0  0  0  0  0  0
  -24.6020  -29.1500   19.9250 C   0  0  0  0  0  0  0  0  0  0  0  0
  -25.7390  -30.9650   21.2140 C   0  0  0  0  0  2  0  0  0  0  0  0
  -25.7880  -29.6290   20.4930 C   0  0  0  0  0  0  0  0  0  0  0  0
  -26.9780  -28.8670   20.3910 C   0  0  0  0  0  3  0  0  0  0  0  0
  -25.7690  -27.1520   19.1650 C   0  0  0  0  0  3  0  0  0  0  0  0
  -24.5900  -27.9150   19.2560 C   0  0  0  0  0  3  0  0  0  0  0  0
  -23.3680  -30.0160   20.0660 C   0  0  0  0  0  2  0  0  0  0  0  0
  -24.5030  -31.1790   22.0120 N   0  0  0  0  0  0  0  0  0  0  0  0
  -23.4360  -32.1640   23.7540 O   0  0  0  0  0  0  0  0  0  0  0  0
  -22.5930  -29.5480   22.4160 C   0  0  0  0  0  0  0  0  0  0  0  0
  -21.2710  -29.3390   22.2900 N   0  0  0  0  0  0  0  0  0  0  0  0
  -23.2940  -28.9110   23.2060 O   0  0  0  0  0  0  0  0  0  0  0  0
  -20.7630  -29.9080   21.6260 H   0  0  0  0  0  0  0  0  0  0  0  0
  -17.9410  -28.0010   22.7130 C   0  0  0  0  0  0  0  0  0  0  0  0
  -20.4820  -28.3550   23.0330 C   0  0  0  0  0  3  0  0  0  0  0  0
  -20.6520  -26.9400   22.4320 C   0  0  0  0  0  2  0  0  0  0  0  0
  -19.5800  -26.5920   21.3960 C   0  0  0  0  0  2  0  0  0  0  0  0
  -18.1830  -26.6720   22.0190 C   0  0  0  0  0  2  0  0  0  0  0  0
  -19.0220  -28.7970   23.1770 C   0  0  0  0  0  0  0  0  0  0  0  0
  -18.7440  -30.0410   23.7860 C   0  0  0  0  0  3  0  0  0  0  0  0
  -17.4170  -30.4870   23.9390 C   0  0  0  0  0  3  0  0  0  0  0  0
  -16.3520  -29.6870   23.4960 C   0  0  0  0  0  3  0  0  0  0  0  0
  -16.6130  -28.4460   22.8880 C   0  0  0  0  0  3  0  0  0  0  0  0
  -25.8070  -32.5080   23.7610 C   0  0  0  0  0  3  0  0  0  0  0  0
  -25.5330  -33.9010   24.1410 N   0  0  0  0  0  0  0  0  0  0  0  0
  -25.8750  -34.9710   23.4110 C   0  0  0  0  0  0  0  0  0  0  0  0
  -26.5260  -34.8870   22.3660 O   0  0  0  0  0  0  0  0  0  0  0  0
  -24.9570  -34.0410   24.9580 H   0  0  0  0  0  0  0  0  0  0  0  0
  -24.1790  -36.8080   23.1480 C   0  0  0  0  0  1  0  0  0  0  0  0
  -25.4260  -36.3530   23.9240 C   0  0  0  0  0  3  0  0  0  0  0  0
  -27.5900  -37.1690   24.7460 C   0  0  0  0  0  1  0  0  0  0  0  0
  -26.4770  -37.3870   23.8250 N   0  0  0  0  0  0  0  0  0  0  0  0
  -26.0910  -38.3100   24.0080 H   0  0  0  0  0  0  0  0  0  0  0  0
  -26.3470  -31.6910   24.9980 C   0  0  1  0  0  0  0  0  0  0  0  0
  -25.2800  -31.4390   26.0890 C   0  0  0  0  0  1  0  0  0  0  0  0
  -26.8950  -30.3170   24.5460 C   0  0  0  0  0  1  0  0  0  0  0  0
  -27.5250  -32.4470   25.6540 C   0  0  0  0  0  1  0  0  0  0  0  0
  -33.6820  -19.3200   21.8150 C   0  0  0  0  0  1  0  0  0  0  0  0
  -32.8050  -19.7460   20.6190 C   0  0  0  0  0  3  0  0  0  0  0  0
  -33.4220  -19.3730   19.3330 N   0  0  0  0  0  4  0  0  0  0  0  0
  -33.5840  -18.3850   19.2750 H   0  0  0  0  0  0  0  0  0  0  0  0
  -34.2990  -19.8480   19.2150 H   0  0  0  0  0  0  0  0  0  0  0  0
  -32.8210  -19.6410   18.5750 H   0  0  0  0  0  0  0  0  0  0  0  0
  2  1  2  0
  3  6  2  0
  3  5  1  0
  4  1  1  0
  4 45  1  0
  5  4  2  0
  6  2  1  0
  7 15  1  0
  8 13  1  0
  9 10  1  0
  9  8  1  0
 11 10  1  0
 11 20  1  0
 11 12  1  0
 13  7  1  0
 13 12  1  0
 14  7  2  0
 15  6  1  0
 15 16  1  0
 17 18  2  0
 18 37  1  0
 19 18  1  0
 19 22  1  0
 20 21  1  0
 20 17  1  0
 21 19  2  0
 22 23  1  0
 23 24  2  0
 25 28  1  0
 25 24  1  0
 26 25  2  0
 27 26  1  0
 27 22  2  0
 28 29  1  0
 29 34  2  0
 29 30  1  0
 30 31  2  0
 31 32  1  0
 32 36  1  0
 33 32  2  0
 34 33  1  0
 35 34  1  0
 37 38  1  0
 38 41  1  0
 38 40  1  0
 39 37  2  0
 42 17  1  0
 42 43  1  0
 44 42  1  0
 45 49  1  0
 46 45  2  0
 46 47  1  0
 47 48  2  0
 49 48  1  0
 50 46  1  0
 51 50  1  0
 52 53  1  0
 52 51  1  0
 53 55  1  0
 54 65  2  0
 55 60  1  0
 56 64  1  0
 56 66  1  0
 57 63  1  0
 57 59  1  0
 58 64  1  0
 59 58  1  0
 60 59  2  0
 61 62  1  0
 61 55  2  0
 62 57  2  0
 63 56  1  0
 64 54  1  0
 66 68  2  0
 67 66  1  0
 69 67  1  0
 70 79  2  0
 70 75  1  0
 71 67  1  0
 71 75  1  0
 72 71  1  0
 73 74  1  0
 73 72  1  0
 74 70  1  0
 75 76  2  0
 76 77  1  0
 78 77  2  0
 79 78  1  0
 80 54  1  0
 80 81  1  0
 80 90  1  0
 81 84  1  0
 82 86  1  0
 82 81  1  0
 83 82  2  0
 86 85  1  0
 88 86  1  0
 88 89  1  0
 88 87  1  0
 90 93  1  1
 90 91  1  0
 92 90  1  0
 95  5  1  0
 95 94  1  0
 96 95  1  0
 97 96  1  0
 98 96  1  0
 99 96  1  0
M  ISO  4   7 100  15 100  52 101  53 101
M  END
>  <TORSDO>  (86) 
F 21

>  <SCORE>  (86) 
-11.803

>  <name>  (86) 
86

>  <ligand_id>  (86) 
86

>  <original_smiles>  (86) 
[H]c1c([H])c([H])c2c(c1[H])C([H])([H])C([H])([H])C([H])([H])C2([H])N([H])C(=O)C1([H])N(C(=O)C([H])(N([H])C(=O)C([H])(N([H])C([H])([H])[H])C([H])([H])[H])C(C([H])([H])[H])(C([H])([H])[H])C([H])([H])[H])C([H])([H])c2c([H])c(OC([H])([H])C([H])([H])N=C3C(c4c([H])c([H])c(N([H])C(=O)N5C([H])([H])C([H])([H])C([H])([H])C([H])(n6nc(-c7c([H])c([H])c(Oc8c([H])c([H])c(F)c([H])c8F)c([H])c7[H])c(C(=O)N([H])[H])c6N([H])[H])C5([H])[H])c([H])c4C([H])(C([H])([H])[H])[N+]([H])([H])[H])=NC([H])([H])C3([H])[H])c([H])c([H])c2C1([H])[H]

>  <smiles>  (86) 
[H]c1c([H])c([H])c2c(c1[H])C([H])([H])C([H])([H])C([H])([H])C2([H])N([H])C(=O)C1([H])N(C(=O)C([H])(N([H])C(=O)C([H])(N([H])C([H])([H])[H])C([H])([H])[H])C(C([H])([H])[H])(C([H])([H])[H])C([H])([H])[H])C([H])([H])c2c([H])c(OC([H])([H])C([H])([H])N=C3C(c4c([H])c([H])c(N([H])C(=O)N5C([H])([H])C([H])([H])C([H])([H])C([H])(n6nc(-c7c([H])c([H])c(Oc8c([H])c([H])c(F)c([H])c8F)c([H])c7[H])c(C(=O)N([H])[H])c6N([H])[H])C5([H])[H])c([H])c4C([H])(C([H])([H])[H])[N+]([H])([H])[H])=NC([H])([H])C3([H])[H])c([H])c([H])c2C1([H])[H]

$$$$
87:0:0
     RDKit          3D

 94103  0  0  1  0  0  0  0  0999 V2000
  -31.8020  -18.6350   21.4030 C   0  0  0  0  0  3  0  0  0  0  0  0
  -31.6240  -17.2500   21.5690 C   0  0  0  0  0  3  0  0  0  0  0  0
  -29.3740  -17.4420   20.6460 C   0  0  0  0  0  3  0  0  0  0  0  0
  -30.7860  -19.4250   20.8210 C   0  0  0  0  0  0  0  0  0  0  0  0
  -29.5540  -18.8270   20.4580 C   0  0  0  0  0  0  0  0  0  0  0  0
  -30.4180  -16.6500   21.1550 C   0  0  0  0  0  0  0  0  0  0  0  0
  -31.0650  -20.8980   20.5810 C   0  0  0  0  0  2  0  0  0  0  0  0
  -28.4170  -19.6180   19.8290 C   0  0  0  0  0  2  0  0  0  0  0  0
  -30.0930  -21.8440   21.2960 C   0  0  0  0  0  2  0  0  0  0  0  0
  -27.9110  -20.7840   20.6910 C   0  0  0  0  0  2  0  0  0  0  0  0
  -28.7820  -21.9820   20.6060 N   0  0  1  0  0  4  0  0  0  0  0  0
  -28.9720  -22.1050   19.6230 H   0  0  0  0  0  0  0  0  0  0  0  0
  -30.7270  -14.4470   20.2520 C   0  0  0  0  0  0  0  0  0  0  0  0
  -30.2790  -12.4390   18.9010 C   0  0  0  0  0  2  0  0  0  0  0  0
  -29.2720  -12.7650   17.7840 C   0  0  0  0  0  2  0  0  0  0  0  0
  -27.8250  -12.6180   18.2920 C   0  0  0  0  0  2  0  0  0  0  0  0
  -27.5850  -13.3600   19.6330 C   0  0  0  0  0  3  0  0  0  0  0  0
  -28.6920  -13.0140   20.6530 C   0  0  0  0  0  2  0  0  0  0  0  0
  -30.0000  -13.3220   20.0420 N   0  0  0  0  0  0  0  0  0  0  0  0
  -31.7470  -14.7250   19.6100 O   0  0  0  0  0  0  0  0  0  0  0  0
  -30.2460  -15.2550   21.2030 N   0  0  0  0  0  0  0  0  0  0  0  0
  -29.4020  -14.9160   21.6410 H   0  0  0  0  0  0  0  0  0  0  0  0
  -25.2210  -13.9510   20.4720 C   0  0  0  0  0  0  0  0  0  0  0  0
  -24.1730  -13.1670   20.8760 C   0  0  0  0  0  0  0  0  0  0  0  0
  -24.6340  -11.8180   20.7890 C   0  0  0  0  0  0  0  0  0  0  0  0
  -26.2530  -13.0770   20.1680 N   0  0  0  0  0  0  0  0  0  0  0  0
  -25.9060  -11.7880   20.4130 N   0  0  0  0  0  0  0  0  0  0  0  0
  -23.9210  -10.5490   20.9890 C   0  0  0  0  0  0  0  0  0  0  0  0
  -24.3870   -9.5770   21.9000 C   0  0  0  0  0  3  0  0  0  0  0  0
  -23.6760   -8.3720   22.0870 C   0  0  0  0  0  3  0  0  0  0  0  0
  -22.4840   -8.1310   21.3620 C   0  0  0  0  0  0  0  0  0  0  0  0
  -22.0390   -9.0930   20.4380 C   0  0  0  0  0  3  0  0  0  0  0  0
  -22.7500  -10.2890   20.2500 C   0  0  0  0  0  3  0  0  0  0  0  0
  -21.7430   -6.9790   21.4580 O   0  0  0  0  0  0  0  0  0  0  0  0
  -21.7120   -6.2380   22.6130 C   0  0  0  0  0  0  0  0  0  0  0  0
  -21.2740   -6.7860   23.8380 C   0  0  0  0  0  3  0  0  0  0  0  0
  -21.1930   -5.9710   24.9850 C   0  0  0  0  0  3  0  0  0  0  0  0
  -21.5360   -4.6080   24.9060 C   0  0  0  0  0  0  0  0  0  0  0  0
  -21.9670   -4.0600   23.6850 C   0  0  0  0  0  3  0  0  0  0  0  0
  -22.0510   -4.8730   22.5410 C   0  0  0  0  0  0  0  0  0  0  0  0
  -22.4460   -4.3340   21.3620 F   0  0  0  0  0  0  0  0  0  0  0  0
  -21.4500   -3.8220   26.0050 F   0  0  0  0  0  0  0  0  0  0  0  0
  -22.7910  -13.6340   21.2320 C   0  0  0  0  0  0  0  0  0  0  0  0
  -22.1090  -12.9120   22.1150 N   0  0  0  0  0  0  0  0  0  0  0  0
  -22.3270  -14.6740   20.7660 O   0  0  0  0  0  0  0  0  0  0  0  0
  -22.4970  -12.0690   22.5110 H   0  0  0  0  0  0  0  0  0  0  0  0
  -21.1860  -13.2070   22.3980 H   0  0  0  0  0  0  0  0  0  0  0  0
  -25.3760  -15.3260   20.3210 N   0  0  0  0  0  0  0  0  0  0  0  0
  -24.6210  -15.9800   20.4940 H   0  0  0  0  0  0  0  0  0  0  0  0
  -26.2150  -15.7700   19.9690 H   0  0  0  0  0  0  0  0  0  0  0  0
  -28.0880  -23.2230   21.0290 C   0  0  0  0  0  2  0  0  0  0  0  0
  -28.5490  -24.4390   20.2060 C   0  0  0  0  0  2  0  0  0  0  0  0
  -28.4030  -25.7410   20.9950 C   0  0  0  0  0  2  0  0  0  0  0  0
  -28.4790  -26.8540   20.1100 O   0  0  0  0  0  0  0  0  0  0  0  0
  -24.6020  -31.8830   23.2300 C   0  0  0  0  0  0  0  0  0  0  0  0
  -27.3150  -27.5710   20.0800 C   0  0  0  0  0  0  0  0  0  0  0  0
  -23.4190  -30.5010   21.5500 C   0  0  0  0  0  3  0  0  0  0  0  0
  -24.8990  -29.0100   20.1060 C   0  0  0  0  0  0  0  0  0  0  0  0
  -25.9380  -30.9030   21.3730 C   0  0  0  0  0  2  0  0  0  0  0  0
  -26.0440  -29.5490   20.7070 C   0  0  0  0  0  0  0  0  0  0  0  0
  -27.2580  -28.8350   20.6930 C   0  0  0  0  0  3  0  0  0  0  0  0
  -26.1610  -27.0300   19.4750 C   0  0  0  0  0  3  0  0  0  0  0  0
  -24.9500  -27.7470   19.4870 C   0  0  0  0  0  3  0  0  0  0  0  0
  -23.6430  -29.8480   20.1600 C   0  0  0  0  0  2  0  0  0  0  0  0
  -24.6710  -31.1070   22.1110 N   0  0  0  0  0  0  0  0  0  0  0  0
  -23.5150  -32.1350   23.7660 O   0  0  0  0  0  0  0  0  0  0  0  0
  -22.7730  -29.4550   22.4860 C   0  0  0  0  0  0  0  0  0  0  0  0
  -21.4470  -29.2840   22.3630 N   0  0  0  0  0  0  0  0  0  0  0  0
  -23.4600  -28.8030   23.2760 O   0  0  0  0  0  0  0  0  0  0  0  0
  -20.9530  -29.8630   21.6980 H   0  0  0  0  0  0  0  0  0  0  0  0
  -18.0660  -28.1220   22.8670 C   0  0  0  0  0  0  0  0  0  0  0  0
  -20.6290  -28.3300   23.1100 C   0  0  0  0  0  3  0  0  0  0  0  0
  -20.7020  -26.9200   22.4810 C   0  0  0  0  0  2  0  0  0  0  0  0
  -19.5810  -26.6510   21.4720 C   0  0  0  0  0  2  0  0  0  0  0  0
  -18.2110  -26.7960   22.1410 C   0  0  0  0  0  2  0  0  0  0  0  0
  -19.2020  -28.8510   23.3080 C   0  0  0  0  0  0  0  0  0  0  0  0
  -19.0120  -30.0960   23.9460 C   0  0  0  0  0  3  0  0  0  0  0  0
  -17.7180  -30.6110   24.1490 C   0  0  0  0  0  3  0  0  0  0  0  0
  -16.5960  -29.8780   23.7250 C   0  0  0  0  0  3  0  0  0  0  0  0
  -16.7710  -28.6360   23.0900 C   0  0  0  0  0  3  0  0  0  0  0  0
  -25.8800  -32.5110   23.8710 C   0  0  0  0  0  3  0  0  0  0  0  0
  -26.3770  -31.7390   25.1520 C   0  0  1  0  0  0  0  0  0  0  0  0
  -25.2690  -31.5010   26.2050 C   0  0  0  0  0  1  0  0  0  0  0  0
  -26.9630  -30.3610   24.7670 C   0  0  0  0  0  1  0  0  0  0  0  0
  -27.5190  -32.5310   25.8330 C   0  0  0  0  0  1  0  0  0  0  0  0
  -25.5690  -33.9100   24.1920 N   0  0  0  0  0  0  0  0  0  0  0  0
  -25.9140  -34.9580   23.4310 C   0  0  0  0  0  0  0  0  0  0  0  0
  -26.5980  -34.8500   22.4090 O   0  0  0  0  0  0  0  0  0  0  0  0
  -24.9660  -34.0690   24.9850 H   0  0  0  0  0  0  0  0  0  0  0  0
  -24.1930  -36.7500   23.0430 C   0  0  0  0  0  1  0  0  0  0  0  0
  -25.4210  -36.3480   23.8760 C   0  0  0  0  0  3  0  0  0  0  0  0
  -27.5400  -37.2360   24.7430 C   0  0  0  0  0  1  0  0  0  0  0  0
  -26.4570  -37.4000   23.7770 N   0  0  0  0  0  0  0  0  0  0  0  0
  -26.0470  -38.3200   23.9140 H   0  0  0  0  0  0  0  0  0  0  0  0
  1  2  1  0
  3  6  1  0
  4  1  2  0
  5  3  2  0
  5  4  1  0
  6 21  1  0
  6  2  2  0
  7  4  1  0
  7  9  1  0
  8  5  1  0
  8 10  1  0
 11 10  1  0
 11 51  1  0
 11  9  1  0
 11 12  1  6
 13 21  1  0
 14 19  1  0
 15 16  1  0
 15 14  1  0
 17 16  1  0
 17 26  1  0
 17 18  1  0
 19 13  1  0
 19 18  1  0
 20 13  2  0
 21 22  1  0
 23 24  2  0
 24 43  1  0
 25 24  1  0
 25 28  1  0
 26 27  1  0
 26 23  1  0
 27 25  2  0
 28 29  1  0
 29 30  2  0
 31 34  1  0
 31 30  1  0
 32 31  2  0
 33 32  1  0
 33 28  2  0
 34 35  1  0
 35 36  1  0
 36 37  2  0
 38 37  1  0
 38 42  1  0
 39 38  2  0
 40 35  2  0
 40 39  1  0
 41 40  1  0
 43 44  1  0
 44 47  1  0
 44 46  1  0
 45 43  2  0
 48 23  1  0
 48 49  1  0
 50 48  1  0
 52 53  1  0
 52 51  1  0
 54 53  1  0
 55 66  2  0
 56 54  1  0
 56 61  1  0
 57 65  1  0
 57 67  1  0
 58 64  1  0
 58 60  1  0
 59 65  1  0
 60 59  1  0
 61 60  2  0
 62 63  1  0
 62 56  2  0
 63 58  2  0
 64 57  1  0
 65 55  1  0
 67 69  2  0
 68 67  1  0
 70 68  1  0
 71 80  2  0
 71 76  1  0
 72 68  1  0
 72 76  1  0
 73 72  1  0
 74 75  1  0
 74 73  1  0
 75 71  1  0
 76 77  2  0
 77 78  1  0
 79 78  2  0
 80 79  1  0
 81 55  1  0
 81 86  1  0
 81 82  1  0
 82 85  1  1
 82 83  1  0
 84 82  1  0
 86 89  1  0
 87 91  1  0
 87 86  1  0
 88 87  2  0
 91 90  1  0
 93 91  1  0
 93 94  1  0
 93 92  1  0
M  ISO  4  13 100  21 100  53 101  54 101
M  END
>  <TORSDO>  (87) 
F 19

>  <SCORE>  (87) 
-14.354

>  <name>  (87) 
87

>  <ligand_id>  (87) 
87

>  <original_smiles>  (87) 
[H]c1c([H])c([H])c2c(c1[H])C([H])([H])C([H])([H])C([H])([H])C2([H])N([H])C(=O)C1([H])N(C(=O)C([H])(N([H])C(=O)C([H])(N([H])C([H])([H])[H])C([H])([H])[H])C(C([H])([H])[H])(C([H])([H])[H])C([H])([H])[H])C([H])([H])c2c([H])c(OC([H])([H])C([H])([H])C([H])([H])[N+]3([H])C([H])([H])C([H])([H])c4c([H])c([H])c(N([H])C(=O)N5C([H])([H])C([H])([H])C([H])([H])C([H])(n6nc(-c7c([H])c([H])c(Oc8c([H])c([H])c(F)c([H])c8F)c([H])c7[H])c(C(=O)N([H])[H])c6N([H])[H])C5([H])[H])c([H])c4C([H])([H])C3([H])[H])c([H])c([H])c2C1([H])[H]

>  <smiles>  (87) 
[H]c1c([H])c([H])c2c(c1[H])C([H])([H])C([H])([H])C([H])([H])C2([H])N([H])C(=O)C1([H])N(C(=O)C([H])(N([H])C(=O)C([H])(N([H])C([H])([H])[H])C([H])([H])[H])C(C([H])([H])[H])(C([H])([H])[H])C([H])([H])[H])C([H])([H])c2c([H])c(OC([H])([H])C([H])([H])C([H])([H])[N+]3([H])C([H])([H])C([H])([H])c4c([H])c([H])c(N([H])C(=O)N5C([H])([H])C([H])([H])C([H])([H])C([H])(n6nc(-c7c([H])c([H])c(Oc8c([H])c([H])c(F)c([H])c8F)c([H])c7[H])c(C(=O)N([H])[H])c6N([H])[H])C5([H])[H])c([H])c4C([H])([H])C3([H])[H])c([H])c([H])c2C1([H])[H]

$$$$
88:0:0
     RDKit          3D

 96105  0  0  1  0  0  0  0  0999 V2000
  -30.3380  -18.0870   22.4840 C   0  0  0  0  0  3  0  0  0  0  0  0
  -30.7460  -16.7870   22.1060 C   0  0  0  0  0  3  0  0  0  0  0  0
  -30.0920  -17.2460   19.7790 C   0  0  0  0  0  3  0  0  0  0  0  0
  -29.7110  -18.5400   20.1710 C   0  0  0  0  0  0  0  0  0  0  0  0
  -29.8260  -18.9520   21.4950 C   0  0  0  0  0  0  0  0  0  0  0  0
  -30.6070  -16.3650   20.7560 C   0  0  0  0  0  0  0  0  0  0  0  0
  -29.1870  -19.6370   19.3490 C   0  0  0  0  0  0  0  0  0  0  0  0
  -29.3470  -20.3750   21.6730 C   0  0  0  0  0  2  0  0  0  0  0  0
  -28.9830  -20.8650   20.2420 C   0  0  0  0  0  3  0  0  0  0  0  0
  -29.0330  -19.6370   18.1250 O   0  0  0  0  0  0  0  0  0  0  0  0
  -31.6870  -14.1170   20.8530 C   0  0  0  0  0  0  0  0  0  0  0  0
  -31.4260  -11.7330   20.3090 C   0  0  0  0  0  2  0  0  0  0  0  0
  -30.6540  -11.6720   18.9760 C   0  0  0  0  0  2  0  0  0  0  0  0
  -29.1290  -11.7140   19.2200 C   0  0  0  0  0  2  0  0  0  0  0  0
  -28.6950  -12.8740   20.1580 C   0  0  0  0  0  3  0  0  0  0  0  0
  -29.5930  -12.8970   21.4210 C   0  0  0  0  0  2  0  0  0  0  0  0
  -30.9980  -12.9620   20.9780 N   0  0  0  0  0  0  0  0  0  0  0  0
  -32.9140  -14.2070   20.7560 O   0  0  0  0  0  0  0  0  0  0  0  0
  -30.9070  -15.0580   20.3130 N   0  0  0  0  0  0  0  0  0  0  0  0
  -30.1570  -14.6420   19.7810 H   0  0  0  0  0  0  0  0  0  0  0  0
  -26.3440  -13.8310   20.5890 C   0  0  0  0  0  0  0  0  0  0  0  0
  -25.1490  -13.2200   20.8500 C   0  0  0  0  0  0  0  0  0  0  0  0
  -25.4290  -11.8220   20.9110 C   0  0  0  0  0  0  0  0  0  0  0  0
  -27.2800  -12.8100   20.5000 N   0  0  0  0  0  0  0  0  0  0  0  0
  -26.7260  -11.5990   20.7530 N   0  0  0  0  0  0  0  0  0  0  0  0
  -24.5280  -10.6740   21.0550 C   0  0  0  0  0  0  0  0  0  0  0  0
  -24.7890   -9.6440   21.9860 C   0  0  0  0  0  3  0  0  0  0  0  0
  -23.9000   -8.5570   22.1190 C   0  0  0  0  0  3  0  0  0  0  0  0
  -22.7350   -8.4910   21.3180 C   0  0  0  0  0  0  0  0  0  0  0  0
  -22.4930   -9.5050   20.3740 C   0  0  0  0  0  3  0  0  0  0  0  0
  -23.3840  -10.5850   20.2410 C   0  0  0  0  0  3  0  0  0  0  0  0
  -21.8280   -7.4610   21.3590 O   0  0  0  0  0  0  0  0  0  0  0  0
  -21.6690   -6.6840   22.4780 C   0  0  0  0  0  0  0  0  0  0  0  0
  -21.3450   -7.2430   23.7350 C   0  0  0  0  0  3  0  0  0  0  0  0
  -21.1220   -6.4020   24.8430 C   0  0  0  0  0  3  0  0  0  0  0  0
  -21.2160   -5.0040   24.6970 C   0  0  0  0  0  0  0  0  0  0  0  0
  -21.5330   -4.4470   23.4460 C   0  0  0  0  0  3  0  0  0  0  0  0
  -21.7570   -5.2840   22.3400 C   0  0  0  0  0  0  0  0  0  0  0  0
  -22.0410   -4.7410   21.1320 F   0  0  0  0  0  0  0  0  0  0  0  0
  -20.9960   -4.1950   25.7590 F   0  0  0  0  0  0  0  0  0  0  0  0
  -23.8060  -13.8840   20.9460 C   0  0  0  0  0  0  0  0  0  0  0  0
  -22.9160  -13.3450   21.7700 N   0  0  0  0  0  0  0  0  0  0  0  0
  -23.5580  -14.9160   20.3240 O   0  0  0  0  0  0  0  0  0  0  0  0
  -23.1210  -12.5020   22.2880 H   0  0  0  0  0  0  0  0  0  0  0  0
  -22.0130  -13.7860   21.8830 H   0  0  0  0  0  0  0  0  0  0  0  0
  -26.7090  -15.1630   20.4100 N   0  0  0  0  0  0  0  0  0  0  0  0
  -26.0410  -15.9210   20.4700 H   0  0  0  0  0  0  0  0  0  0  0  0
  -27.6590  -15.4810   20.2850 H   0  0  0  0  0  0  0  0  0  0  0  0
  -29.9480  -21.8710   19.7580 N   0  0  0  0  0  4  0  0  0  0  0  0
  -29.4080  -22.4260   20.4030 H   0  0  0  0  0  0  0  0  0  0  0  0
  -29.6810  -21.4040   18.8950 H   0  0  0  0  0  0  0  0  0  0  0  0
  -29.6860  -23.0480   18.9050 C   0  0  0  0  0  2  0  0  0  0  0  0
  -31.0240  -23.6920   18.5060 C   0  0  0  0  0  2  0  0  0  0  0  0
  -31.7080  -24.3860   19.7060 C   0  0  0  0  0  2  0  0  0  0  0  0
  -32.4980  -25.6730   19.3680 C   0  0  0  0  0  2  0  0  0  0  0  0
  -32.0760  -26.7650   20.2020 O   0  0  0  0  0  0  0  0  0  0  0  0
  -26.7870  -29.6660   24.0110 C   0  0  0  0  0  0  0  0  0  0  0  0
  -30.7540  -27.1670   20.2000 C   0  0  0  0  0  0  0  0  0  0  0  0
  -26.1500  -28.7880   21.7920 C   0  0  0  0  0  3  0  0  0  0  0  0
  -28.0820  -28.1130   20.2640 C   0  0  0  0  0  0  0  0  0  0  0  0
  -28.5410  -29.5850   22.2360 C   0  0  0  0  0  2  0  0  0  0  0  0
  -29.0070  -28.5620   21.2150 C   0  0  0  0  0  0  0  0  0  0  0  0
  -30.3320  -28.0720   21.2030 C   0  0  0  0  0  3  0  0  0  0  0  0
  -29.8050  -26.7380   19.2420 C   0  0  0  0  0  3  0  0  0  0  0  0
  -28.4720  -27.1800   19.2910 C   0  0  0  0  0  3  0  0  0  0  0  0
  -26.6840  -28.6800   20.3370 C   0  0  0  0  0  2  0  0  0  0  0  0
  -27.1680  -29.3430   22.7410 N   0  0  0  0  0  0  0  0  0  0  0  0
  -25.6130  -29.5390   24.3830 O   0  0  0  0  0  0  0  0  0  0  0  0
  -25.6230  -27.3990   22.2140 C   0  0  0  0  0  0  0  0  0  0  0  0
  -24.3990  -27.0590   21.7830 N   0  0  0  0  0  0  0  0  0  0  0  0
  -26.3250  -26.6380   22.8870 O   0  0  0  0  0  0  0  0  0  0  0  0
  -23.8780  -27.7390   21.2460 H   0  0  0  0  0  0  0  0  0  0  0  0
  -21.3480  -25.2220   21.2160 C   0  0  0  0  0  0  0  0  0  0  0  0
  -23.7400  -25.7750   22.0250 C   0  0  0  0  0  3  0  0  0  0  0  0
  -24.2160  -24.7020   21.0170 C   0  0  0  0  0  2  0  0  0  0  0  0
  -23.3290  -24.6050   19.7690 C   0  0  0  0  0  2  0  0  0  0  0  0
  -21.8920  -24.2700   20.1660 C   0  0  0  0  0  2  0  0  0  0  0  0
  -22.2190  -25.9380   22.0800 C   0  0  0  0  0  0  0  0  0  0  0  0
  -21.6670  -26.8540   23.0010 C   0  0  0  0  0  3  0  0  0  0  0  0
  -20.2770  -27.0510   23.0700 C   0  0  0  0  0  3  0  0  0  0  0  0
  -19.4180  -26.3230   22.2300 C   0  0  0  0  0  3  0  0  0  0  0  0
  -19.9540  -25.4070   21.3060 C   0  0  0  0  0  3  0  0  0  0  0  0
  -27.8070  -30.2340   25.0450 C   0  0  0  0  0  3  0  0  0  0  0  0
  -27.2460  -31.4780   25.5870 N   0  0  0  0  0  0  0  0  0  0  0  0
  -27.6130  -32.7100   25.2060 C   0  0  0  0  0  0  0  0  0  0  0  0
  -28.5320  -32.9150   24.4060 O   0  0  0  0  0  0  0  0  0  0  0  0
  -26.4480  -31.3800   26.1990 H   0  0  0  0  0  0  0  0  0  0  0  0
  -25.8410  -34.4460   24.7940 C   0  0  0  0  0  1  0  0  0  0  0  0
  -26.8500  -33.9020   25.8170 C   0  0  0  0  0  3  0  0  0  0  0  0
  -28.5580  -34.6320   27.4240 C   0  0  0  0  0  1  0  0  0  0  0  0
  -27.7360  -34.9950   26.2720 N   0  0  0  0  0  0  0  0  0  0  0  0
  -27.1960  -35.8210   26.5150 H   0  0  0  0  0  0  0  0  0  0  0  0
  -28.1460  -29.2220   26.2060 C   0  0  1  0  0  0  0  0  0  0  0  0
  -26.9050  -28.6400   26.9210 C   0  0  0  0  0  1  0  0  0  0  0  0
  -28.9700  -28.0310   25.6690 C   0  0  0  0  0  1  0  0  0  0  0  0
  -29.0250  -29.9220   27.2710 C   0  0  0  0  0  1  0  0  0  0  0  0
  2  1  1  0
  3  4  2  0
  3  6  1  0
  4  5  1  0
  5  8  1  0
  5  1  2  0
  6  2  2  0
  7  4  1  0
  7  9  1  0
  9 49  1  0
  9  8  1  0
 10  7  2  0
 11 17  1  0
 12 17  1  0
 13 14  1  0
 13 12  1  0
 15 14  1  0
 15 24  1  0
 15 16  1  0
 17 16  1  0
 18 11  2  0
 19  6  1  0
 19 11  1  0
 20 19  1  0
 21 22  2  0
 22 23  1  0
 22 41  1  0
 23 26  1  0
 24 21  1  0
 24 25  1  0
 25 23  2  0
 26 27  1  0
 27 28  2  0
 29 32  1  0
 29 28  1  0
 30 29  2  0
 31 30  1  0
 31 26  2  0
 32 33  1  0
 33 34  1  0
 34 35  2  0
 36 35  1  0
 36 40  1  0
 37 36  2  0
 38 33  2  0
 38 37  1  0
 39 38  1  0
 41 42  1  0
 42 45  1  0
 42 44  1  0
 43 41  2  0
 46 47  1  0
 46 21  1  0
 48 46  1  0
 49 50  1  0
 51 49  1  0
 52 49  1  0
 53 52  1  0
 53 54  1  0
 55 54  1  0
 55 56  1  0
 57 68  2  0
 58 56  1  0
 58 63  1  0
 59 69  1  0
 59 67  1  0
 60 66  1  0
 60 62  1  0
 61 67  1  0
 62 61  1  0
 63 62  2  0
 64 65  1  0
 64 58  2  0
 65 60  2  0
 66 59  1  0
 67 57  1  0
 69 71  2  0
 70 69  1  0
 72 70  1  0
 73 82  2  0
 73 78  1  0
 74 70  1  0
 74 78  1  0
 75 74  1  0
 76 77  1  0
 76 75  1  0
 77 73  1  0
 78 79  2  0
 79 80  1  0
 81 80  2  0
 82 81  1  0
 83 57  1  0
 83 84  1  0
 83 93  1  0
 84 87  1  0
 85 84  1  0
 85 89  1  0
 86 85  2  0
 89 88  1  0
 89 91  1  0
 91 92  1  0
 91 90  1  0
 93 94  1  1
 93 96  1  0
 95 93  1  0
M  ISO  4  11 100  19 100  55 101  56 101
M  END
>  <TORSDO>  (88) 
F 21

>  <SCORE>  (88) 
-9.107

>  <name>  (88) 
88

>  <ligand_id>  (88) 
88

>  <original_smiles>  (88) 
[H]c1c([H])c([H])c2c(c1[H])C([H])([H])C([H])([H])C([H])([H])C2([H])N([H])C(=O)C1([H])N(C(=O)C([H])(N([H])C(=O)C([H])(N([H])C([H])([H])[H])C([H])([H])[H])C(C([H])([H])[H])(C([H])([H])[H])C([H])([H])[H])C([H])([H])c2c([H])c(OC([H])([H])C([H])([H])C([H])([H])C([H])([H])[N+]([H])([H])C3([H])C(=O)c4c([H])c(N([H])C(=O)N5C([H])([H])C([H])([H])C([H])([H])C([H])(n6nc(-c7c([H])c([H])c(Oc8c([H])c([H])c(F)c([H])c8F)c([H])c7[H])c(C(=O)N([H])[H])c6N([H])[H])C5([H])[H])c([H])c([H])c4C3([H])[H])c([H])c([H])c2C1([H])[H]

>  <smiles>  (88) 
[H]c1c([H])c([H])c2c(c1[H])C([H])([H])C([H])([H])C([H])([H])C2([H])N([H])C(=O)C1([H])N(C(=O)C([H])(N([H])C(=O)C([H])(N([H])C([H])([H])[H])C([H])([H])[H])C(C([H])([H])[H])(C([H])([H])[H])C([H])([H])[H])C([H])([H])c2c([H])c(OC([H])([H])C([H])([H])C([H])([H])C([H])([H])[N+]([H])([H])C3([H])C(=O)c4c([H])c(N([H])C(=O)N5C([H])([H])C([H])([H])C([H])([H])C([H])(n6nc(-c7c([H])c([H])c(Oc8c([H])c([H])c(F)c([H])c8F)c([H])c7[H])c(C(=O)N([H])[H])c6N([H])[H])C5([H])[H])c([H])c([H])c4C3([H])[H])c([H])c([H])c2C1([H])[H]

$$$$
89:0:0
     RDKit          3D

 89 97  0  0  1  0  0  0  0  0999 V2000
  -30.4300  -15.4350   20.3240 C   0  0  0  0  0  0  0  0  0  0  0  0
  -30.3870  -12.9660   19.4820 C   0  0  0  0  0  2  0  0  0  0  0  0
  -29.5080  -12.6830   18.2410 C   0  0  0  0  0  2  0  0  0  0  0  0
  -28.0630  -12.3840   18.6680 C   0  0  0  0  0  2  0  0  0  0  0  0
  -27.5670  -13.3740   19.7520 C   0  0  0  0  0  3  0  0  0  0  0  0
  -28.5890  -13.6190   20.8850 C   0  0  0  0  0  2  0  0  0  0  0  0
  -29.8050  -14.1450   20.2450 N   0  0  0  0  0  0  0  0  0  0  0  0
  -31.6550  -15.3210   20.1650 O   0  0  0  0  0  0  0  0  0  0  0  0
  -28.5500  -17.6760   20.2930 C   0  0  0  0  0  2  0  0  0  0  0  0
  -30.5060  -18.2340   20.1400 C   0  0  0  0  0  3  0  0  0  0  0  0
  -29.2210  -19.1840   20.5370 C   0  0  0  0  0  3  0  0  0  0  0  0
  -29.8510  -16.8330   20.3610 N   0  0  0  0  0  0  0  0  0  0  0  0
  -25.1860  -13.9020   20.4710 C   0  0  0  0  0  0  0  0  0  0  0  0
  -24.1270  -13.1140   20.8220 C   0  0  0  0  0  0  0  0  0  0  0  0
  -24.6080  -11.7690   20.8050 C   0  0  0  0  0  0  0  0  0  0  0  0
  -26.2410  -13.0380   20.2490 N   0  0  0  0  0  0  0  0  0  0  0  0
  -25.9080  -11.7490   20.5200 N   0  0  0  0  0  0  0  0  0  0  0  0
  -23.8910  -10.5000   20.9860 C   0  0  0  0  0  0  0  0  0  0  0  0
  -24.3040   -9.5440   21.9400 C   0  0  0  0  0  3  0  0  0  0  0  0
  -23.5820   -8.3440   22.1110 C   0  0  0  0  0  3  0  0  0  0  0  0
  -22.4310   -8.0890   21.3270 C   0  0  0  0  0  0  0  0  0  0  0  0
  -22.0360   -9.0330   20.3630 C   0  0  0  0  0  3  0  0  0  0  0  0
  -22.7600  -10.2250   20.1910 C   0  0  0  0  0  3  0  0  0  0  0  0
  -21.6820   -6.9390   21.4060 O   0  0  0  0  0  0  0  0  0  0  0  0
  -21.5910   -6.2180   22.5690 C   0  0  0  0  0  0  0  0  0  0  0  0
  -21.1050   -6.7910   23.7650 C   0  0  0  0  0  3  0  0  0  0  0  0
  -20.9610   -5.9960   24.9190 C   0  0  0  0  0  3  0  0  0  0  0  0
  -21.2940   -4.6280   24.8790 C   0  0  0  0  0  0  0  0  0  0  0  0
  -21.7720   -4.0540   23.6870 C   0  0  0  0  0  3  0  0  0  0  0  0
  -21.9180   -4.8470   22.5360 C   0  0  0  0  0  0  0  0  0  0  0  0
  -22.3590   -4.2850   21.3840 F   0  0  0  0  0  0  0  0  0  0  0  0
  -21.1490   -3.8620   25.9860 F   0  0  0  0  0  0  0  0  0  0  0  0
  -22.7200  -13.5780   21.0570 C   0  0  0  0  0  0  0  0  0  0  0  0
  -21.9780  -12.8790   21.9080 N   0  0  0  0  0  0  0  0  0  0  0  0
  -22.2880  -14.6000   20.5230 O   0  0  0  0  0  0  0  0  0  0  0  0
  -22.3420  -12.0550   22.3620 H   0  0  0  0  0  0  0  0  0  0  0  0
  -21.0330  -13.1730   22.1080 H   0  0  0  0  0  0  0  0  0  0  0  0
  -25.3380  -15.2740   20.2910 N   0  0  0  0  0  0  0  0  0  0  0  0
  -24.5610  -15.9190   20.3930 H   0  0  0  0  0  0  0  0  0  0  0  0
  -26.1910  -15.7230   19.9840 H   0  0  0  0  0  0  0  0  0  0  0  0
  -31.7130  -18.4390   21.0670 C   0  0  0  0  0  0  0  0  0  0  0  0
  -32.8120  -18.9660   20.5460 N   0  0  0  0  0  0  0  0  0  0  0  0
  -31.6630  -18.1080   22.2510 O   0  0  0  0  0  0  0  0  0  0  0  0
  -32.8380  -19.2360   19.5720 H   0  0  0  0  0  0  0  0  0  0  0  0
  -33.6320  -19.1080   21.1190 H   0  0  0  0  0  0  0  0  0  0  0  0
  -28.6600  -20.8460   19.9490 C   0  0  0  0  0  2  0  0  0  0  0  0
  -28.7620  -22.5990   20.4930 C   0  0  0  0  0  3  0  0  0  0  0  0
  -27.9480  -24.1790   20.0020 C   0  0  0  0  0  3  0  0  0  0  0  0
  -28.1300  -25.8230   20.2840 O   0  0  0  0  0  0  0  0  0  0  0  0
  -24.5850  -31.8940   23.1480 C   0  0  0  0  0  0  0  0  0  0  0  0
  -27.1380  -26.9500   20.1790 C   0  0  0  0  0  0  0  0  0  0  0  0
  -23.3990  -30.4900   21.5100 C   0  0  0  0  0  3  0  0  0  0  0  0
  -24.8520  -28.8690   20.1010 C   0  0  0  0  0  0  0  0  0  0  0  0
  -25.9670  -30.6820   21.3810 C   0  0  0  0  0  2  0  0  0  0  0  0
  -26.0360  -29.2640   20.7330 C   0  0  0  0  0  0  0  0  0  0  0  0
  -27.1710  -28.3260   20.7460 C   0  0  0  0  0  3  0  0  0  0  0  0
  -25.9250  -26.7220   19.4880 C   0  0  0  0  0  3  0  0  0  0  0  0
  -24.8230  -27.6200   19.4580 C   0  0  0  0  0  3  0  0  0  0  0  0
  -23.6360  -29.7970   20.1390 C   0  0  0  0  0  2  0  0  0  0  0  0
  -24.6720  -31.0510   22.0660 N   0  0  0  0  0  0  0  0  0  0  0  0
  -23.4940  -32.1910   23.6600 O   0  0  0  0  0  0  0  0  0  0  0  0
  -22.6950  -29.5050   22.4800 C   0  0  0  0  0  0  0  0  0  0  0  0
  -21.3600  -29.3650   22.3690 N   0  0  0  0  0  0  0  0  0  0  0  0
  -23.3570  -28.8660   23.3010 O   0  0  0  0  0  0  0  0  0  0  0  0
  -20.8790  -29.9330   21.6840 H   0  0  0  0  0  0  0  0  0  0  0  0
  -17.9610  -28.2170   22.9190 C   0  0  0  0  0  0  0  0  0  0  0  0
  -20.5300  -28.4370   23.1450 C   0  0  0  0  0  3  0  0  0  0  0  0
  -20.5950  -27.0080   22.5580 C   0  0  0  0  0  2  0  0  0  0  0  0
  -19.4730  -26.7140   21.5580 C   0  0  0  0  0  2  0  0  0  0  0  0
  -18.1040  -26.8740   22.2240 C   0  0  0  0  0  2  0  0  0  0  0  0
  -19.0990  -28.9580   23.3370 C   0  0  0  0  0  0  0  0  0  0  0  0
  -18.9080  -30.2140   23.9520 C   0  0  0  0  0  3  0  0  0  0  0  0
  -17.6130  -30.7310   24.1500 C   0  0  0  0  0  3  0  0  0  0  0  0
  -16.4900  -29.9880   23.7460 C   0  0  0  0  0  3  0  0  0  0  0  0
  -16.6650  -28.7330   23.1370 C   0  0  0  0  0  3  0  0  0  0  0  0
  -25.8530  -32.5400   23.7840 C   0  0  0  0  0  3  0  0  0  0  0  0
  -26.3550  -31.7770   25.0730 C   0  0  1  0  0  0  0  0  0  0  0  0
  -25.2520  -31.5530   26.1340 C   0  0  0  0  0  1  0  0  0  0  0  0
  -26.9380  -30.3930   24.7050 C   0  0  0  0  0  1  0  0  0  0  0  0
  -27.5040  -32.5740   25.7390 C   0  0  0  0  0  1  0  0  0  0  0  0
  -25.5330  -33.9390   24.1210 N   0  0  0  0  0  0  0  0  0  0  0  0
  -25.8740  -35.0060   23.3830 C   0  0  0  0  0  0  0  0  0  0  0  0
  -26.5530  -34.9140   22.3580 O   0  0  0  0  0  0  0  0  0  0  0  0
  -24.9280  -34.0830   24.9160 H   0  0  0  0  0  0  0  0  0  0  0  0
  -24.1580  -36.8180   23.0380 C   0  0  0  0  0  1  0  0  0  0  0  0
  -25.3880  -36.3910   23.8560 C   0  0  0  0  0  3  0  0  0  0  0  0
  -27.5120  -37.2620   24.7310 C   0  0  0  0  0  1  0  0  0  0  0  0
  -26.4260  -37.4420   23.7700 N   0  0  0  0  0  0  0  0  0  0  0  0
  -26.0210  -38.3610   23.9220 H   0  0  0  0  0  0  0  0  0  0  0  0
  1 12  1  0
  2  7  1  0
  3  4  1  0
  3  2  1  0
  5  4  1  0
  5 16  1  0
  5  6  1  0
  7  1  1  0
  7  6  1  0
  8  1  2  0
  9 12  1  0
  9 11  1  0
 10 12  1  0
 10 11  1  0
 10 41  1  0
 11 46  1  0
 13 14  2  0
 14 33  1  0
 15 14  1  0
 15 18  1  0
 16 13  1  0
 16 17  1  0
 17 15  2  0
 18 19  1  0
 19 20  2  0
 21 24  1  0
 21 20  1  0
 22 21  2  0
 23 22  1  0
 23 18  2  0
 24 25  1  0
 25 26  1  0
 26 27  2  0
 28 27  1  0
 28 32  1  0
 29 28  2  0
 30 25  2  0
 30 29  1  0
 31 30  1  0
 33 34  1  0
 34 37  1  0
 34 36  1  0
 35 33  2  0
 38 39  1  0
 38 13  1  0
 40 38  1  0
 41 43  2  0
 42 41  1  0
 42 45  1  0
 44 42  1  0
 46 47  1  0
 48 49  1  0
 48 47  2  0
 50 61  2  0
 51 49  1  0
 51 56  1  0
 52 60  1  0
 52 62  1  0
 53 59  1  0
 53 55  1  0
 54 60  1  0
 55 56  2  0
 55 54  1  0
 57 51  2  0
 58 57  1  0
 58 53  2  0
 59 52  1  0
 60 50  1  0
 62 64  2  0
 63 62  1  0
 65 63  1  0
 66 75  2  0
 66 71  1  0
 67 63  1  0
 67 71  1  0
 68 67  1  0
 69 70  1  0
 69 68  1  0
 70 66  1  0
 71 72  2  0
 72 73  1  0
 74 73  2  0
 75 74  1  0
 76 50  1  0
 76 81  1  0
 76 77  1  0
 77 80  1  1
 77 78  1  0
 79 77  1  0
 81 84  1  0
 82 86  1  0
 82 81  1  0
 83 82  2  0
 86 85  1  0
 88 86  1  0
 88 89  1  0
 88 87  1  0
M  ISO  4   1 100  12 100  48 101  49 101
M  END
>  <TORSDO>  (89) 
F 19

>  <SCORE>  (89) 
-16.022

>  <name>  (89) 
89

>  <ligand_id>  (89) 
89

>  <original_smiles>  (89) 
[H]c1c([H])c([H])c2c(c1[H])C([H])([H])C([H])([H])C([H])([H])C2([H])N([H])C(=O)C1([H])N(C(=O)C([H])(N([H])C(=O)C([H])(N([H])C([H])([H])[H])C([H])([H])[H])C(C([H])([H])[H])(C([H])([H])[H])C([H])([H])[H])C([H])([H])c2c([H])c(OC([H])([H])C([H])([H])C([H])([H])C3([H])C([H])([H])N(C(=O)N4C([H])([H])C([H])([H])C([H])([H])C([H])(n5nc(-c6c([H])c([H])c(Oc7c([H])c([H])c(F)c([H])c7F)c([H])c6[H])c(C(=O)N([H])[H])c5N([H])[H])C4([H])[H])C3([H])C(=O)N([H])[H])c([H])c([H])c2C1([H])[H]

>  <smiles>  (89) 
[H]c1c([H])c([H])c2c(c1[H])C([H])([H])C([H])([H])C([H])([H])C2([H])N([H])C(=O)C1([H])N(C(=O)C([H])(N([H])C(=O)C([H])(N([H])C([H])([H])[H])C([H])([H])[H])C(C([H])([H])[H])(C([H])([H])[H])C([H])([H])[H])C([H])([H])c2c([H])c(OC([H])([H])C([H])([H])C([H])([H])C3([H])C([H])([H])N(C(=O)N4C([H])([H])C([H])([H])C([H])([H])C([H])(n5nc(-c6c([H])c([H])c(Oc7c([H])c([H])c(F)c([H])c7F)c([H])c6[H])c(C(=O)N([H])[H])c5N([H])[H])C4([H])[H])C3([H])C(=O)N([H])[H])c([H])c([H])c2C1([H])[H]

$$$$
90:0:0
     RDKit          3D

 93101  0  0  1  0  0  0  0  0999 V2000
  -31.4370  -22.9590   23.1420 C   0  0  0  0  0  2  0  0  0  0  0  0
  -31.9350  -22.2160   21.8960 C   0  0  0  0  0  2  0  0  0  0  0  0
  -30.3530  -23.9950   22.7730 C   0  0  0  0  0  2  0  0  0  0  0  0
  -30.7790  -21.4740   21.1720 C   0  0  0  0  0  3  0  0  0  0  0  0
  -29.6720  -23.7160   21.4070 C   0  0  0  0  0  3  0  0  0  0  0  0
  -29.5060  -22.2510   21.2120 N   0  0  0  0  0  4  0  0  0  0  0  0
  -28.9430  -21.8990   21.9700 H   0  0  0  0  0  0  0  0  0  0  0  0
  -29.0010  -22.0760   20.3570 H   0  0  0  0  0  0  0  0  0  0  0  0
  -30.5910  -20.0310   21.7160 C   0  0  0  0  0  2  0  0  0  0  0  0
  -30.0050  -19.0360   20.6950 C   0  0  0  0  0  2  0  0  0  0  0  0
  -30.0710  -17.5610   21.1530 C   0  0  0  0  0  2  0  0  0  0  0  0
  -29.7020  -16.5990   20.0080 C   0  0  0  0  0  2  0  0  0  0  0  0
  -30.3420  -14.2020   19.8030 C   0  0  0  0  0  0  0  0  0  0  0  0
  -29.9310  -12.1020   18.5950 C   0  0  0  0  0  2  0  0  0  0  0  0
  -28.8660  -12.3790   17.5140 C   0  0  0  0  0  2  0  0  0  0  0  0
  -27.4430  -12.2250   18.0890 C   0  0  0  0  0  2  0  0  0  0  0  0
  -27.2500  -12.9820   19.4300 C   0  0  0  0  0  3  0  0  0  0  0  0
  -28.4180  -12.6890   20.4030 C   0  0  0  0  0  2  0  0  0  0  0  0
  -29.6790  -13.0180   19.7150 N   0  0  0  0  0  0  0  0  0  0  0  0
  -31.3970  -14.4350   19.2050 O   0  0  0  0  0  0  0  0  0  0  0  0
  -29.6490  -15.1860   20.3980 N   0  0  0  0  0  0  0  0  0  0  0  0
  -28.8210  -14.8900   20.8930 H   0  0  0  0  0  0  0  0  0  0  0  0
  -24.9160  -13.5390   20.3690 C   0  0  0  0  0  0  0  0  0  0  0  0
  -23.9080  -12.7440   20.8450 C   0  0  0  0  0  0  0  0  0  0  0  0
  -24.3960  -11.4020   20.7700 C   0  0  0  0  0  0  0  0  0  0  0  0
  -25.9550  -12.6820   20.0370 N   0  0  0  0  0  0  0  0  0  0  0  0
  -25.6500  -11.3920   20.3330 N   0  0  0  0  0  0  0  0  0  0  0  0
  -23.7240  -10.1240   21.0340 C   0  0  0  0  0  0  0  0  0  0  0  0
  -24.2430   -9.1930   21.9600 C   0  0  0  0  0  3  0  0  0  0  0  0
  -23.5680   -7.9790   22.2100 C   0  0  0  0  0  3  0  0  0  0  0  0
  -22.3610   -7.6870   21.5330 C   0  0  0  0  0  0  0  0  0  0  0  0
  -21.8610   -8.6060   20.5940 C   0  0  0  0  0  3  0  0  0  0  0  0
  -22.5370   -9.8110   20.3420 C   0  0  0  0  0  3  0  0  0  0  0  0
  -21.6500   -6.5210   21.6920 O   0  0  0  0  0  0  0  0  0  0  0  0
  -21.6630   -5.8260   22.8750 C   0  0  0  0  0  0  0  0  0  0  0  0
  -21.2260   -6.4050   24.0860 C   0  0  0  0  0  3  0  0  0  0  0  0
  -21.1900   -5.6330   25.2630 C   0  0  0  0  0  3  0  0  0  0  0  0
  -21.5830   -4.2820   25.2340 C   0  0  0  0  0  0  0  0  0  0  0  0
  -22.0140   -3.7000   24.0270 C   0  0  0  0  0  3  0  0  0  0  0  0
  -22.0510   -4.4700   22.8510 C   0  0  0  0  0  0  0  0  0  0  0  0
  -22.4470   -3.9000   21.6880 F   0  0  0  0  0  0  0  0  0  0  0  0
  -21.5420   -3.5370   26.3620 F   0  0  0  0  0  0  0  0  0  0  0  0
  -22.5340  -13.1880   21.2560 C   0  0  0  0  0  0  0  0  0  0  0  0
  -21.9140  -12.4790   22.1940 N   0  0  0  0  0  0  0  0  0  0  0  0
  -22.0200  -14.1980   20.7780 O   0  0  0  0  0  0  0  0  0  0  0  0
  -22.3440  -11.6630   22.6040 H   0  0  0  0  0  0  0  0  0  0  0  0
  -20.9960  -12.7600   22.5080 H   0  0  0  0  0  0  0  0  0  0  0  0
  -25.0300  -14.9120   20.1730 N   0  0  0  0  0  0  0  0  0  0  0  0
  -24.2620  -15.5500   20.3560 H   0  0  0  0  0  0  0  0  0  0  0  0
  -25.8320  -15.3710   19.7590 H   0  0  0  0  0  0  0  0  0  0  0  0
  -28.3370  -24.4790   21.2430 C   0  0  0  0  0  2  0  0  0  0  0  0
  -28.4780  -26.0170   21.1360 C   0  0  0  0  0  2  0  0  0  0  0  0
  -27.8960  -26.4540   19.9080 O   0  0  0  0  0  0  0  0  0  0  0  0
  -24.4850  -31.7720   23.2180 C   0  0  0  0  0  0  0  0  0  0  0  0
  -26.7860  -27.2550   20.0110 C   0  0  0  0  0  0  0  0  0  0  0  0
  -23.1540  -30.4770   21.5790 C   0  0  0  0  0  3  0  0  0  0  0  0
  -24.4790  -28.8770   20.0990 C   0  0  0  0  0  0  0  0  0  0  0  0
  -25.6870  -30.6930   21.3230 C   0  0  0  0  0  2  0  0  0  0  0  0
  -25.6750  -29.3280   20.6730 C   0  0  0  0  0  0  0  0  0  0  0  0
  -26.8330  -28.5200   20.6340 C   0  0  0  0  0  3  0  0  0  0  0  0
  -25.5830  -26.8160   19.4240 C   0  0  0  0  0  3  0  0  0  0  0  0
  -24.4240  -27.6160   19.4760 C   0  0  0  0  0  3  0  0  0  0  0  0
  -23.2890  -29.8050   20.1850 C   0  0  0  0  0  2  0  0  0  0  0  0
  -24.4620  -30.9930   22.0990 N   0  0  0  0  0  0  0  0  0  0  0  0
  -23.4370  -32.1000   23.7900 O   0  0  0  0  0  0  0  0  0  0  0  0
  -22.4630  -29.4830   22.5390 C   0  0  0  0  0  0  0  0  0  0  0  0
  -21.1310  -29.3660   22.4200 N   0  0  0  0  0  0  0  0  0  0  0  0
  -23.1210  -28.8200   23.3450 O   0  0  0  0  0  0  0  0  0  0  0  0
  -20.6630  -29.9490   21.7400 H   0  0  0  0  0  0  0  0  0  0  0  0
  -17.7080  -28.3260   22.9230 C   0  0  0  0  0  0  0  0  0  0  0  0
  -20.2750  -28.4650   23.1910 C   0  0  0  0  0  3  0  0  0  0  0  0
  -20.3110  -27.0330   22.6110 C   0  0  0  0  0  2  0  0  0  0  0  0
  -19.1940  -26.7630   21.5980 C   0  0  0  0  0  2  0  0  0  0  0  0
  -17.8220  -26.9710   22.2450 C   0  0  0  0  0  2  0  0  0  0  0  0
  -18.8610  -29.0340   23.3530 C   0  0  0  0  0  0  0  0  0  0  0  0
  -18.7040  -30.3050   23.9470 C   0  0  0  0  0  3  0  0  0  0  0  0
  -17.4240  -30.8670   24.1150 C   0  0  0  0  0  3  0  0  0  0  0  0
  -16.2840  -30.1540   23.7030 C   0  0  0  0  0  3  0  0  0  0  0  0
  -16.4270  -28.8850   23.1120 C   0  0  0  0  0  3  0  0  0  0  0  0
  -25.8240  -32.3070   23.8140 C   0  0  0  0  0  3  0  0  0  0  0  0
  -25.6240  -33.7230   24.1470 N   0  0  0  0  0  0  0  0  0  0  0  0
  -26.0460  -34.7480   23.3930 C   0  0  0  0  0  0  0  0  0  0  0  0
  -26.7130  -34.5920   22.3660 O   0  0  0  0  0  0  0  0  0  0  0  0
  -25.0340  -33.9230   24.9400 H   0  0  0  0  0  0  0  0  0  0  0  0
  -24.4680  -36.6720   23.0240 C   0  0  0  0  0  1  0  0  0  0  0  0
  -25.6650  -36.1690   23.8470 C   0  0  0  0  0  3  0  0  0  0  0  0
  -27.8500  -36.8850   24.7090 C   0  0  0  0  0  1  0  0  0  0  0  0
  -26.7790  -37.1370   23.7480 N   0  0  0  0  0  0  0  0  0  0  0  0
  -26.4450  -38.0860   23.8880 H   0  0  0  0  0  0  0  0  0  0  0  0
  -26.3120  -31.4970   25.0780 C   0  0  1  0  0  0  0  0  0  0  0  0
  -25.2260  -31.3290   26.1660 C   0  0  0  0  0  1  0  0  0  0  0  0
  -26.7950  -30.0850   24.6690 C   0  0  0  0  0  1  0  0  0  0  0  0
  -27.5270  -32.2080   25.7200 C   0  0  0  0  0  1  0  0  0  0  0  0
  2  1  1  0
  3  1  1  0
  4  6  1  0
  4  9  1  0
  4  2  1  0
  5 51  1  0
  5  3  1  0
  6  5  1  0
  6  7  1  0
  8  6  1  0
 10 11  1  0
 10  9  1  0
 12 21  1  0
 12 11  1  0
 13 21  1  0
 14 19  1  0
 15 16  1  0
 15 14  1  0
 17 16  1  0
 17 26  1  0
 17 18  1  0
 19 13  1  0
 19 18  1  0
 20 13  2  0
 21 22  1  0
 23 24  2  0
 24 43  1  0
 25 24  1  0
 25 28  1  0
 26 27  1  0
 26 23  1  0
 27 25  2  0
 28 29  1  0
 29 30  2  0
 31 34  1  0
 31 30  1  0
 32 31  2  0
 33 32  1  0
 33 28  2  0
 34 35  1  0
 35 36  1  0
 36 37  2  0
 38 37  1  0
 38 42  1  0
 39 38  2  0
 40 35  2  0
 40 39  1  0
 41 40  1  0
 43 44  1  0
 44 47  1  0
 44 46  1  0
 45 43  2  0
 48 49  1  0
 48 23  1  0
 50 48  1  0
 52 51  1  0
 53 55  1  0
 53 52  1  0
 54 65  2  0
 55 60  1  0
 56 64  1  0
 56 66  1  0
 57 63  1  0
 57 59  1  0
 58 64  1  0
 59 58  1  0
 60 59  2  0
 61 62  1  0
 61 55  2  0
 62 57  2  0
 63 56  1  0
 64 54  1  0
 66 68  2  0
 67 66  1  0
 69 67  1  0
 70 79  2  0
 70 75  1  0
 71 67  1  0
 71 75  1  0
 72 71  1  0
 73 74  1  0
 73 72  1  0
 74 70  1  0
 75 76  2  0
 76 77  1  0
 78 77  2  0
 79 78  1  0
 80 54  1  0
 80 81  1  0
 80 90  1  0
 81 84  1  0
 82 86  1  0
 82 81  1  0
 83 82  2  0
 86 85  1  0
 88 86  1  0
 88 89  1  0
 88 87  1  0
 90 93  1  1
 90 91  1  0
 92 90  1  0
M  ISO  4  13 100  21 100  52 101  53 101
M  END
>  <TORSDO>  (90) 
F 22

>  <SCORE>  (90) 
-9.672

>  <name>  (90) 
90

>  <ligand_id>  (90) 
90

>  <original_smiles>  (90) 
[H]c1c([H])c([H])c2c(c1[H])C([H])([H])C([H])([H])C([H])([H])C2([H])N([H])C(=O)C1([H])N(C(=O)C([H])(N([H])C(=O)C([H])(N([H])C([H])([H])[H])C([H])([H])[H])C(C([H])([H])[H])(C([H])([H])[H])C([H])([H])[H])C([H])([H])c2c([H])c(OC([H])([H])C([H])([H])C3([H])C([H])([H])C([H])([H])C([H])([H])C([H])(C([H])([H])C([H])([H])C([H])([H])C([H])([H])N([H])C(=O)N4C([H])([H])C([H])([H])C([H])([H])C([H])(n5nc(-c6c([H])c([H])c(Oc7c([H])c([H])c(F)c([H])c7F)c([H])c6[H])c(C(=O)N([H])[H])c5N([H])[H])C4([H])[H])[N+]3([H])[H])c([H])c([H])c2C1([H])[H]

>  <smiles>  (90) 
[H]c1c([H])c([H])c2c(c1[H])C([H])([H])C([H])([H])C([H])([H])C2([H])N([H])C(=O)C1([H])N(C(=O)C([H])(N([H])C(=O)C([H])(N([H])C([H])([H])[H])C([H])([H])[H])C(C([H])([H])[H])(C([H])([H])[H])C([H])([H])[H])C([H])([H])c2c([H])c(OC([H])([H])C([H])([H])C3([H])C([H])([H])C([H])([H])C([H])([H])C([H])(C([H])([H])C([H])([H])C([H])([H])C([H])([H])N([H])C(=O)N4C([H])([H])C([H])([H])C([H])([H])C([H])(n5nc(-c6c([H])c([H])c(Oc7c([H])c([H])c(F)c([H])c7F)c([H])c6[H])c(C(=O)N([H])[H])c5N([H])[H])C4([H])[H])[N+]3([H])[H])c([H])c([H])c2C1([H])[H]

$$$$
91:0:0
     RDKit          3D

 91 99  0  0  1  0  0  0  0  0999 V2000
  -29.1730  -21.1310   20.7940 N   0  0  0  0  0  4  0  0  0  0  0  0
  -29.7180  -21.3450   21.6140 H   0  0  0  0  0  0  0  0  0  0  0  0
  -28.2390  -20.9400   21.1190 H   0  0  0  0  0  0  0  0  0  0  0  0
  -30.3300  -17.1330   20.5670 C   0  0  0  0  0  0  0  0  0  0  0  0
  -32.1330  -18.9310   20.1050 C   0  0  0  0  0  0  0  0  0  0  0  0
  -31.6870  -17.4790   19.9140 C   0  0  0  0  0  2  0  0  0  0  0  0
  -29.5370  -18.4510   21.0240 C   0  0  0  0  0  2  0  0  0  0  0  0
  -31.1690  -20.0270   19.6680 C   0  0  0  0  0  2  0  0  0  0  0  0
  -29.7170  -19.8260   20.1740 C   0  0  0  0  0  3  0  0  0  0  0  0
  -29.8960  -15.8910   20.7750 N   0  0  0  0  0  0  0  0  0  0  0  0
  -33.2500  -19.2090   20.5520 O   0  0  0  0  0  0  0  0  0  0  0  0
  -30.6260  -14.7030   20.4000 C   0  0  0  0  0  0  0  0  0  0  0  0
  -30.3530  -12.4350   19.3920 C   0  0  0  0  0  2  0  0  0  0  0  0
  -29.4430  -12.5490   18.1490 C   0  0  0  0  0  2  0  0  0  0  0  0
  -27.9660  -12.3920   18.5580 C   0  0  0  0  0  2  0  0  0  0  0  0
  -27.5890  -13.2770   19.7760 C   0  0  0  0  0  3  0  0  0  0  0  0
  -28.6350  -13.1880   20.9080 C   0  0  0  0  0  2  0  0  0  0  0  0
  -29.9510  -13.5040   20.3370 N   0  0  0  0  0  0  0  0  0  0  0  0
  -31.7920  -14.6990   20.0100 O   0  0  0  0  0  0  0  0  0  0  0  0
  -25.1890  -13.8650   20.4730 C   0  0  0  0  0  0  0  0  0  0  0  0
  -24.1210  -13.0920   20.8370 C   0  0  0  0  0  0  0  0  0  0  0  0
  -24.5880  -11.7420   20.8270 C   0  0  0  0  0  0  0  0  0  0  0  0
  -26.2400  -12.9880   20.2560 N   0  0  0  0  0  0  0  0  0  0  0  0
  -25.8820  -11.7050   20.5320 N   0  0  0  0  0  0  0  0  0  0  0  0
  -23.8600  -10.4800   21.0270 C   0  0  0  0  0  0  0  0  0  0  0  0
  -24.2960   -9.5160   21.9630 C   0  0  0  0  0  3  0  0  0  0  0  0
  -23.5710   -8.3190   22.1490 C   0  0  0  0  0  3  0  0  0  0  0  0
  -22.3960   -8.0780   21.3990 C   0  0  0  0  0  0  0  0  0  0  0  0
  -21.9800   -9.0300   20.4520 C   0  0  0  0  0  3  0  0  0  0  0  0
  -22.7060  -10.2180   20.2640 C   0  0  0  0  0  3  0  0  0  0  0  0
  -21.6420   -6.9330   21.4920 O   0  0  0  0  0  0  0  0  0  0  0  0
  -21.6070   -6.1870   22.6430 C   0  0  0  0  0  0  0  0  0  0  0  0
  -21.2090   -6.7410   23.8780 C   0  0  0  0  0  3  0  0  0  0  0  0
  -21.1180   -5.9190   25.0200 C   0  0  0  0  0  3  0  0  0  0  0  0
  -21.4180   -4.5480   24.9290 C   0  0  0  0  0  0  0  0  0  0  0  0
  -21.8120   -3.9940   23.6980 C   0  0  0  0  0  3  0  0  0  0  0  0
  -21.9040   -4.8110   22.5580 C   0  0  0  0  0  0  0  0  0  0  0  0
  -22.2610   -4.2670   21.3690 F   0  0  0  0  0  0  0  0  0  0  0  0
  -21.3260   -3.7580   26.0250 F   0  0  0  0  0  0  0  0  0  0  0  0
  -22.7190  -13.5700   21.0840 C   0  0  0  0  0  0  0  0  0  0  0  0
  -21.9780  -12.8870   21.9510 N   0  0  0  0  0  0  0  0  0  0  0  0
  -22.2850  -14.5890   20.5470 O   0  0  0  0  0  0  0  0  0  0  0  0
  -22.3400  -12.0680   22.4200 H   0  0  0  0  0  0  0  0  0  0  0  0
  -21.0400  -13.1950   22.1580 H   0  0  0  0  0  0  0  0  0  0  0  0
  -25.3520  -15.2350   20.2870 N   0  0  0  0  0  0  0  0  0  0  0  0
  -24.5880  -15.8930   20.4060 H   0  0  0  0  0  0  0  0  0  0  0  0
  -26.2200  -15.6730   20.0060 H   0  0  0  0  0  0  0  0  0  0  0  0
  -29.0910  -22.4050   19.9340 C   0  0  0  0  0  2  0  0  0  0  0  0
  -28.6880  -23.8130   20.6240 C   0  0  0  0  0  3  0  0  0  0  0  0
  -28.5190  -25.1190   19.6920 C   0  0  0  0  0  3  0  0  0  0  0  0
  -28.3910  -26.4910   20.2680 O   0  0  0  0  0  0  0  0  0  0  0  0
  -24.6120  -31.8790   23.2390 C   0  0  0  0  0  0  0  0  0  0  0  0
  -27.2400  -27.3050   20.1890 C   0  0  0  0  0  0  0  0  0  0  0  0
  -23.4140  -30.4810   21.5940 C   0  0  0  0  0  3  0  0  0  0  0  0
  -24.8680  -28.9270   20.1710 C   0  0  0  0  0  0  0  0  0  0  0  0
  -25.9520  -30.7940   21.4200 C   0  0  0  0  0  2  0  0  0  0  0  0
  -26.0350  -29.4150   20.7720 C   0  0  0  0  0  0  0  0  0  0  0  0
  -27.2180  -28.6170   20.7670 C   0  0  0  0  0  3  0  0  0  0  0  0
  -26.0420  -26.8660   19.5800 C   0  0  0  0  0  3  0  0  0  0  0  0
  -24.8750  -27.6590   19.5690 C   0  0  0  0  0  3  0  0  0  0  0  0
  -23.6320  -29.8050   20.2150 C   0  0  0  0  0  2  0  0  0  0  0  0
  -24.6780  -31.0710   22.1410 N   0  0  0  0  0  0  0  0  0  0  0  0
  -23.5270  -32.1570   23.7710 O   0  0  0  0  0  0  0  0  0  0  0  0
  -22.7450  -29.4670   22.5520 C   0  0  0  0  0  0  0  0  0  0  0  0
  -21.4200  -29.2870   22.4160 N   0  0  0  0  0  0  0  0  0  0  0  0
  -23.4180  -28.8450   23.3780 O   0  0  0  0  0  0  0  0  0  0  0  0
  -20.9360  -29.8440   21.7260 H   0  0  0  0  0  0  0  0  0  0  0  0
  -18.0450  -28.0670   22.8740 C   0  0  0  0  0  0  0  0  0  0  0  0
  -20.5970  -28.3480   23.1800 C   0  0  0  0  0  3  0  0  0  0  0  0
  -20.7170  -26.9120   22.6170 C   0  0  0  0  0  2  0  0  0  0  0  0
  -19.6340  -26.5740   21.5890 C   0  0  0  0  0  2  0  0  0  0  0  0
  -18.2420  -26.7140   22.2110 C   0  0  0  0  0  2  0  0  0  0  0  0
  -19.1510  -28.8410   23.3140 C   0  0  0  0  0  0  0  0  0  0  0  0
  -18.9140  -30.1070   23.8930 C   0  0  0  0  0  3  0  0  0  0  0  0
  -17.6030  -30.5990   24.0360 C   0  0  0  0  0  3  0  0  0  0  0  0
  -16.5100  -29.8220   23.6150 C   0  0  0  0  0  3  0  0  0  0  0  0
  -16.7330  -28.5580   23.0390 C   0  0  0  0  0  3  0  0  0  0  0  0
  -25.8930  -32.5110   23.8680 C   0  0  0  0  0  3  0  0  0  0  0  0
  -26.4030  -31.7410   25.1480 C   0  0  1  0  0  0  0  0  0  0  0  0
  -25.3070  -31.5110   26.2150 C   0  0  0  0  0  1  0  0  0  0  0  0
  -26.9810  -30.3600   24.7630 C   0  0  0  0  0  1  0  0  0  0  0  0
  -27.5510  -32.5340   25.8130 C   0  0  0  0  0  1  0  0  0  0  0  0
  -25.5830  -33.9100   24.1960 N   0  0  0  0  0  0  0  0  0  0  0  0
  -25.9180  -34.9640   23.4390 C   0  0  0  0  0  0  0  0  0  0  0  0
  -26.5890  -34.8610   22.4090 O   0  0  0  0  0  0  0  0  0  0  0  0
  -24.9880  -34.0640   24.9980 H   0  0  0  0  0  0  0  0  0  0  0  0
  -24.1910  -36.7610   23.0890 C   0  0  0  0  0  1  0  0  0  0  0  0
  -25.4320  -36.3540   23.8980 C   0  0  0  0  0  3  0  0  0  0  0  0
  -27.5700  -37.2360   24.7240 C   0  0  0  0  0  1  0  0  0  0  0  0
  -26.4660  -37.4060   23.7850 N   0  0  0  0  0  0  0  0  0  0  0  0
  -26.0610  -38.3250   23.9340 H   0  0  0  0  0  0  0  0  0  0  0  0
  1  3  1  0
  1  2  1  0
  4 10  2  0
  4  7  1  0
  5 11  2  0
  6  5  1  0
  6  4  1  0
  8  5  1  0
  8  9  1  0
  9  1  1  0
  9  7  1  0
 12 10  1  0
 13 18  1  0
 14 15  1  0
 14 13  1  0
 16 15  1  0
 16 23  1  0
 16 17  1  0
 18 12  1  0
 18 17  1  0
 19 12  2  0
 20 21  2  0
 21 40  1  0
 22 21  1  0
 22 25  1  0
 23 20  1  0
 23 24  1  0
 24 22  2  0
 25 26  1  0
 26 27  2  0
 28 31  1  0
 28 27  1  0
 29 28  2  0
 30 29  1  0
 30 25  2  0
 31 32  1  0
 32 33  1  0
 33 34  2  0
 35 34  1  0
 35 39  1  0
 36 35  2  0
 37 32  2  0
 37 36  1  0
 38 37  1  0
 40 41  1  0
 41 44  1  0
 41 43  1  0
 42 40  2  0
 45 46  1  0
 45 20  1  0
 47 45  1  0
 48 49  1  0
 48  1  1  0
 50 51  1  0
 50 49  2  0
 52 63  2  0
 53 51  1  0
 53 58  1  0
 54 62  1  0
 54 64  1  0
 55 61  1  0
 55 57  1  0
 56 62  1  0
 57 56  1  0
 58 57  2  0
 59 53  2  0
 60 59  1  0
 60 55  2  0
 61 54  1  0
 62 52  1  0
 64 66  2  0
 65 64  1  0
 67 65  1  0
 68 77  2  0
 68 73  1  0
 69 65  1  0
 69 73  1  0
 70 69  1  0
 71 72  1  0
 71 70  1  0
 72 68  1  0
 73 74  2  0
 74 75  1  0
 76 75  2  0
 77 76  1  0
 78 52  1  0
 78 83  1  0
 78 79  1  0
 79 82  1  1
 79 80  1  0
 81 79  1  0
 83 86  1  0
 84 88  1  0
 84 83  1  0
 85 84  2  0
 88 87  1  0
 90 88  1  0
 90 91  1  0
 90 89  1  0
M  ISO  4  10 100  12 100  50 101  51 101
M  END
>  <TORSDO>  (91) 
F 20

>  <SCORE>  (91) 
-13.743

>  <name>  (91) 
91

>  <ligand_id>  (91) 
91

>  <original_smiles>  (91) 
[H]c1c([H])c([H])c2c(c1[H])C([H])([H])C([H])([H])C([H])([H])C2([H])N([H])C(=O)C1([H])N(C(=O)C([H])(N([H])C(=O)C([H])(N([H])C([H])([H])[H])C([H])([H])[H])C(C([H])([H])[H])(C([H])([H])[H])C([H])([H])[H])C([H])([H])c2c([H])c(OC([H])([H])C([H])([H])C([H])([H])[N+]([H])([H])C3([H])C([H])([H])C(=O)C([H])([H])C(=NC(=O)N4C([H])([H])C([H])([H])C([H])([H])C([H])(n5nc(-c6c([H])c([H])c(Oc7c([H])c([H])c(F)c([H])c7F)c([H])c6[H])c(C(=O)N([H])[H])c5N([H])[H])C4([H])[H])C3([H])[H])c([H])c([H])c2C1([H])[H]

>  <smiles>  (91) 
[H]c1c([H])c([H])c2c(c1[H])C([H])([H])C([H])([H])C([H])([H])C2([H])N([H])C(=O)C1([H])N(C(=O)C([H])(N([H])C(=O)C([H])(N([H])C([H])([H])[H])C([H])([H])[H])C(C([H])([H])[H])(C([H])([H])[H])C([H])([H])[H])C([H])([H])c2c([H])c(OC([H])([H])C([H])([H])C([H])([H])[N+]([H])([H])C3([H])C([H])([H])C(=O)C([H])([H])C(=NC(=O)N4C([H])([H])C([H])([H])C([H])([H])C([H])(n5nc(-c6c([H])c([H])c(Oc7c([H])c([H])c(F)c([H])c7F)c([H])c6[H])c(C(=O)N([H])[H])c5N([H])[H])C4([H])[H])C3([H])[H])c([H])c([H])c2C1([H])[H]

$$$$
92:0:0
     RDKit          3D

102111  0  0  1  0  0  0  0  0999 V2000
  -31.6460  -19.5330   17.8320 C   0  0  0  0  0  0  0  0  0  0  0  0
  -29.1020  -19.1020   17.6260 C   0  0  0  0  0  2  0  0  0  0  0  0
  -30.9130  -17.1920   17.6570 C   0  0  0  0  0  2  0  0  0  0  0  0
  -30.2350  -20.1430   17.9000 C   0  0  0  0  0  3  0  0  0  0  0  0
  -31.7850  -18.2670   17.0010 C   0  0  0  0  0  3  0  0  0  0  0  0
  -29.4250  -17.5830   17.7720 C   0  0  0  0  0  3  0  0  0  0  0  0
  -32.6410  -19.9980   18.4590 N   0  0  0  0  0  0  0  0  0  0  0  0
  -32.3790  -20.8150   18.9950 H   0  0  0  0  0  0  0  0  0  0  0  0
  -32.4720  -19.3980   14.7770 C   0  0  0  0  0  1  0  0  0  0  0  0
  -31.5000  -18.4490   15.4890 C   0  0  0  0  0  2  0  0  0  0  0  0
  -29.9620  -20.9430   19.2080 C   0  0  0  0  0  2  0  0  0  0  0  0
  -30.6190  -22.8710   20.7440 C   0  0  0  0  0  2  0  0  0  0  0  0
  -29.8000  -23.3730   18.4170 C   0  0  0  0  0  2  0  0  0  0  0  0
  -31.2210  -24.2870   20.8200 C   0  0  0  0  0  2  0  0  0  0  0  0
  -30.3880  -24.7840   18.5480 C   0  0  0  0  0  2  0  0  0  0  0  0
  -30.5710  -22.3650   19.2880 C   0  0  0  0  0  3  0  0  0  0  0  0
  -30.4440  -25.2210   19.9660 N   0  0  2  0  0  4  0  0  0  0  0  0
  -29.4930  -25.1890   20.3050 H   0  0  0  0  0  0  0  0  0  0  0  0
  -30.8330  -26.6450   20.0940 C   0  0  0  0  0  2  0  0  0  0  0  0
  -29.6230  -27.4880   20.5170 C   0  0  0  0  0  2  0  0  0  0  0  0
  -28.4530  -26.9960   19.8540 O   0  0  0  0  0  0  0  0  0  0  0  0
  -24.6330  -31.9980   23.2180 C   0  0  0  0  0  0  0  0  0  0  0  0
  -27.2810  -27.7130   19.9790 C   0  0  0  0  0  0  0  0  0  0  0  0
  -23.3900  -30.5970   21.5940 C   0  0  0  0  0  3  0  0  0  0  0  0
  -24.8250  -29.1120   20.0970 C   0  0  0  0  0  0  0  0  0  0  0  0
  -25.8870  -31.0310   21.3030 C   0  0  0  0  0  2  0  0  0  0  0  0
  -25.9790  -29.6690   20.6570 C   0  0  0  0  0  0  0  0  0  0  0  0
  -27.2020  -28.9760   20.6100 C   0  0  0  0  0  3  0  0  0  0  0  0
  -26.1090  -27.1590   19.4200 C   0  0  0  0  0  3  0  0  0  0  0  0
  -24.8810  -27.8490   19.4800 C   0  0  0  0  0  3  0  0  0  0  0  0
  -23.5610  -29.9340   20.1990 C   0  0  0  0  0  2  0  0  0  0  0  0
  -24.6570  -31.2220   22.1000 N   0  0  0  0  0  0  0  0  0  0  0  0
  -23.5690  -32.2390   23.8040 O   0  0  0  0  0  0  0  0  0  0  0  0
  -22.7970  -29.5500   22.5610 C   0  0  0  0  0  0  0  0  0  0  0  0
  -21.4790  -29.3160   22.4470 N   0  0  0  0  0  0  0  0  0  0  0  0
  -23.5150  -28.9510   23.3670 O   0  0  0  0  0  0  0  0  0  0  0  0
  -20.9610  -29.8540   21.7670 H   0  0  0  0  0  0  0  0  0  0  0  0
  -18.1700  -27.9600   22.9310 C   0  0  0  0  0  0  0  0  0  0  0  0
  -20.7080  -28.3470   23.2220 C   0  0  0  0  0  3  0  0  0  0  0  0
  -20.8880  -26.9170   22.6610 C   0  0  0  0  0  2  0  0  0  0  0  0
  -19.8130  -26.5300   21.6410 C   0  0  0  0  0  2  0  0  0  0  0  0
  -18.4200  -26.6120   22.2730 C   0  0  0  0  0  2  0  0  0  0  0  0
  -19.2450  -28.7800   23.3620 C   0  0  0  0  0  0  0  0  0  0  0  0
  -18.9590  -30.0390   23.9350 C   0  0  0  0  0  3  0  0  0  0  0  0
  -17.6300  -30.4770   24.0820 C   0  0  0  0  0  3  0  0  0  0  0  0
  -16.5690  -29.6530   23.6690 C   0  0  0  0  0  3  0  0  0  0  0  0
  -16.8390  -28.3970   23.0970 C   0  0  0  0  0  3  0  0  0  0  0  0
  -25.9330  -32.6390   23.8040 C   0  0  0  0  0  3  0  0  0  0  0  0
  -25.6140  -34.0210   24.1780 N   0  0  0  0  0  0  0  0  0  0  0  0
  -25.9090  -35.0970   23.4360 C   0  0  0  0  0  0  0  0  0  0  0  0
  -26.5520  -35.0300   22.3850 O   0  0  0  0  0  0  0  0  0  0  0  0
  -25.0370  -34.1470   24.9970 H   0  0  0  0  0  0  0  0  0  0  0  0
  -24.1500  -36.8720   23.1620 C   0  0  0  0  0  1  0  0  0  0  0  0
  -25.4110  -36.4650   23.9400 C   0  0  0  0  0  3  0  0  0  0  0  0
  -27.5510  -37.3510   24.7520 C   0  0  0  0  0  1  0  0  0  0  0  0
  -26.4250  -37.5360   23.8420 N   0  0  0  0  0  0  0  0  0  0  0  0
  -26.0080  -38.4430   24.0360 H   0  0  0  0  0  0  0  0  0  0  0  0
  -26.5200  -31.8440   25.0330 C   0  0  1  0  0  0  0  0  0  0  0  0
  -25.4750  -31.5390   26.1320 C   0  0  0  0  0  1  0  0  0  0  0  0
  -27.1280  -30.5000   24.5700 C   0  0  0  0  0  1  0  0  0  0  0  0
  -27.6690  -32.6540   25.6810 C   0  0  0  0  0  1  0  0  0  0  0  0
  -28.7210  -16.8820   18.9510 C   0  0  0  0  0  2  0  0  0  0  0  0
  -28.8770  -17.5120   20.3600 C   0  0  0  0  0  2  0  0  0  0  0  0
  -30.0970  -17.0890   21.2190 C   0  0  0  0  0  2  0  0  0  0  0  0
  -30.7730  -14.7360   20.7950 C   0  0  0  0  0  0  0  0  0  0  0  0
  -30.5400  -12.6290   19.5330 C   0  0  0  0  0  2  0  0  0  0  0  0
  -29.6130  -12.8520   18.3190 C   0  0  0  0  0  2  0  0  0  0  0  0
  -28.1200  -12.7290   18.7020 C   0  0  0  0  0  2  0  0  0  0  0  0
  -27.7500  -13.4840   20.0020 C   0  0  0  0  0  3  0  0  0  0  0  0
  -28.7900  -13.2200   21.1170 C   0  0  0  0  0  2  0  0  0  0  0  0
  -30.1310  -13.5550   20.6010 N   0  0  0  0  0  0  0  0  0  0  0  0
  -31.8630  -15.0180   20.2900 O   0  0  0  0  0  0  0  0  0  0  0  0
  -30.0520  -15.6490   21.4490 N   0  0  0  0  0  0  0  0  0  0  0  0
  -29.2270  -15.3030   21.9210 H   0  0  0  0  0  0  0  0  0  0  0  0
  -25.2990  -14.0180   20.5950 C   0  0  0  0  0  0  0  0  0  0  0  0
  -24.2400  -13.2110   20.9290 C   0  0  0  0  0  0  0  0  0  0  0  0
  -24.7480  -11.8790   20.9250 C   0  0  0  0  0  0  0  0  0  0  0  0
  -26.3850  -13.1710   20.4290 N   0  0  0  0  0  0  0  0  0  0  0  0
  -26.0510  -11.8800   20.6720 N   0  0  0  0  0  0  0  0  0  0  0  0
  -24.0550  -10.5930   21.0950 C   0  0  0  0  0  0  0  0  0  0  0  0
  -24.4760   -9.6450   22.0550 C   0  0  0  0  0  3  0  0  0  0  0  0
  -23.7820   -8.4250   22.2060 C   0  0  0  0  0  3  0  0  0  0  0  0
  -22.6540   -8.1450   21.4000 C   0  0  0  0  0  0  0  0  0  0  0  0
  -22.2520   -9.0820   20.4330 C   0  0  0  0  0  3  0  0  0  0  0  0
  -22.9490  -10.2930   20.2770 C   0  0  0  0  0  3  0  0  0  0  0  0
  -21.9290   -6.9800   21.4650 O   0  0  0  0  0  0  0  0  0  0  0  0
  -21.8440   -6.2500   22.6220 C   0  0  0  0  0  0  0  0  0  0  0  0
  -21.3260   -6.8040   23.8160 C   0  0  0  0  0  3  0  0  0  0  0  0
  -21.1880   -5.9960   24.9610 C   0  0  0  0  0  3  0  0  0  0  0  0
  -21.5670   -4.6410   24.9190 C   0  0  0  0  0  0  0  0  0  0  0  0
  -22.0870   -4.0920   23.7360 C   0  0  0  0  0  3  0  0  0  0  0  0
  -22.2200   -4.8940   22.5890 C   0  0  0  0  0  0  0  0  0  0  0  0
  -22.7010   -4.3520   21.4430 F   0  0  0  0  0  0  0  0  0  0  0  0
  -21.4260   -3.8650   26.0200 F   0  0  0  0  0  0  0  0  0  0  0  0
  -22.8160  -13.6450   21.1400 C   0  0  0  0  0  0  0  0  0  0  0  0
  -22.0770  -12.9260   21.9780 N   0  0  0  0  0  0  0  0  0  0  0  0
  -22.3640  -14.6520   20.6000 O   0  0  0  0  0  0  0  0  0  0  0  0
  -22.4610  -12.1210   22.4490 H   0  0  0  0  0  0  0  0  0  0  0  0
  -21.1170  -13.1940   22.1550 H   0  0  0  0  0  0  0  0  0  0  0  0
  -25.4200  -15.3850   20.3820 N   0  0  0  0  0  0  0  0  0  0  0  0
  -24.5950  -15.9700   20.2940 H   0  0  0  0  0  0  0  0  0  0  0  0
  -26.2080  -15.7550   19.8660 H   0  0  0  0  0  0  0  0  0  0  0  0
  1  4  1  0
  1  7  2  0
  2  6  1  0
  2  4  1  0
  3  6  1  0
  4 11  1  0
  5 10  1  0
  5  3  1  0
  5  1  1  0
  6 62  1  0
  7  8  1  0
  9 10  1  0
 12 14  1  0
 13 15  1  0
 13 16  1  0
 15 17  1  0
 16 11  1  0
 16 12  1  0
 17 19  1  0
 17 18  1  1
 17 14  1  0
 19 20  1  0
 21 23  1  0
 21 20  1  0
 22 33  2  0
 23 28  1  0
 24 32  1  0
 24 34  1  0
 25 31  1  0
 25 27  1  0
 26 32  1  0
 27 26  1  0
 28 27  2  0
 29 30  1  0
 29 23  2  0
 30 25  2  0
 31 24  1  0
 32 22  1  0
 34 36  2  0
 35 34  1  0
 37 35  1  0
 38 47  2  0
 38 43  1  0
 39 35  1  0
 39 43  1  0
 40 39  1  0
 41 42  1  0
 41 40  1  0
 42 38  1  0
 43 44  2  0
 44 45  1  0
 46 45  2  0
 47 46  1  0
 48 22  1  0
 48 49  1  0
 48 58  1  0
 49 52  1  0
 50 54  1  0
 50 49  1  0
 51 50  2  0
 54 53  1  0
 56 54  1  0
 56 57  1  0
 56 55  1  0
 58 61  1  1
 58 59  1  0
 60 58  1  0
 62 63  1  0
 63 64  1  0
 64 73  1  0
 65 73  1  0
 66 71  1  0
 67 68  1  0
 67 66  1  0
 69 68  1  0
 69 78  1  0
 69 70  1  0
 71 65  1  0
 71 70  1  0
 72 65  2  0
 73 74  1  0
 75 76  2  0
 76 95  1  0
 77 76  1  0
 77 80  1  0
 78 75  1  0
 78 79  1  0
 79 77  2  0
 80 81  1  0
 81 82  2  0
 83 86  1  0
 83 82  1  0
 84 83  2  0
 85 84  1  0
 85 80  2  0
 86 87  1  0
 87 88  1  0
 88 89  2  0
 90 89  1  0
 90 94  1  0
 91 90  2  0
 92 87  2  0
 92 91  1  0
 93 92  1  0
 95 96  1  0
 96 99  1  0
 96 98  1  0
 97 95  2  0
100 75  1  0
101100  1  0
102100  1  0
M  ISO  4  20 101  21 101  65 100  73 100
M  END
>  <TORSDO>  (92) 
F 24

>  <SCORE>  (92) 
-12.338

>  <name>  (92) 
92

>  <ligand_id>  (92) 
92

>  <original_smiles>  (92) 
[H]N=C1C([H])(C([H])([H])C([H])([H])[H])C([H])([H])C([H])(C([H])([H])C([H])([H])C([H])([H])N([H])C(=O)N2C([H])([H])C([H])([H])C([H])([H])C([H])(n3nc(-c4c([H])c([H])c(Oc5c([H])c([H])c(F)c([H])c5F)c([H])c4[H])c(C(=O)N([H])[H])c3N([H])[H])C2([H])[H])C([H])([H])C1([H])C([H])([H])C1([H])C([H])([H])C([H])([H])[N+]([H])(C([H])([H])C([H])([H])Oc2c([H])c([H])c3c(c2[H])C([H])([H])N(C(=O)C([H])(N([H])C(=O)C([H])(N([H])C([H])([H])[H])C([H])([H])[H])C(C([H])([H])[H])(C([H])([H])[H])C([H])([H])[H])C([H])(C(=O)N([H])C2([H])c4c([H])c([H])c([H])c([H])c4C([H])([H])C([H])([H])C2([H])[H])C3([H])[H])C([H])([H])C1([H])[H]

>  <smiles>  (92) 
[H]N=C1C([H])(C([H])([H])C([H])([H])[H])C([H])([H])C([H])(C([H])([H])C([H])([H])C([H])([H])N([H])C(=O)N2C([H])([H])C([H])([H])C([H])([H])C([H])(n3nc(-c4c([H])c([H])c(Oc5c([H])c([H])c(F)c([H])c5F)c([H])c4[H])c(C(=O)N([H])[H])c3N([H])[H])C2([H])[H])C([H])([H])C1([H])C([H])([H])C1([H])C([H])([H])C([H])([H])[N+]([H])(C([H])([H])C([H])([H])Oc2c([H])c([H])c3c(c2[H])C([H])([H])N(C(=O)C([H])(N([H])C(=O)C([H])(N([H])C([H])([H])[H])C([H])([H])[H])C(C([H])([H])[H])(C([H])([H])[H])C([H])([H])[H])C([H])(C(=O)N([H])C2([H])c4c([H])c([H])c([H])c([H])c4C([H])([H])C([H])([H])C2([H])[H])C3([H])[H])C([H])([H])C1([H])[H]

$$$$
93:0:0
     RDKit          3D

 93101  0  0  1  0  0  0  0  0999 V2000
  -30.7660  -21.4720   22.6200 C   0  0  0  0  0  2  0  0  0  0  0  0
  -29.8090  -22.6000   23.0670 C   0  0  0  0  0  2  0  0  0  0  0  0
  -30.1880  -24.0200   22.5850 C   0  0  0  0  0  2  0  0  0  0  0  0
  -28.9820  -24.9830   22.6590 C   0  0  0  0  0  2  0  0  0  0  0  0
  -29.2740  -26.4870   22.4270 C   0  0  0  0  0  2  0  0  0  0  0  0
  -29.4910  -26.9190   20.9580 C   0  0  0  0  0  2  0  0  0  0  0  0
  -28.3560  -26.6690   20.1280 O   0  0  0  0  0  0  0  0  0  0  0  0
  -24.5600  -31.9090   23.2290 C   0  0  0  0  0  0  0  0  0  0  0  0
  -27.2330  -27.4690   20.1940 C   0  0  0  0  0  0  0  0  0  0  0  0
  -23.3520  -30.4870   21.6010 C   0  0  0  0  0  3  0  0  0  0  0  0
  -24.8120  -28.9430   20.1940 C   0  0  0  0  0  0  0  0  0  0  0  0
  -25.8690  -30.8650   21.3900 C   0  0  0  0  0  2  0  0  0  0  0  0
  -25.9680  -29.4860   20.7740 C   0  0  0  0  0  0  0  0  0  0  0  0
  -27.1770  -28.7570   20.7810 C   0  0  0  0  0  3  0  0  0  0  0  0
  -26.0630  -26.9430   19.6090 C   0  0  0  0  0  3  0  0  0  0  0  0
  -24.8540  -27.6650   19.6130 C   0  0  0  0  0  3  0  0  0  0  0  0
  -23.5600  -29.7930   20.2310 C   0  0  0  0  0  2  0  0  0  0  0  0
  -24.6110  -31.1000   22.1340 N   0  0  0  0  0  0  0  0  0  0  0  0
  -23.4800  -32.1860   23.7690 O   0  0  0  0  0  0  0  0  0  0  0  0
  -22.7040  -29.4720   22.5720 C   0  0  0  0  0  0  0  0  0  0  0  0
  -21.3810  -29.2780   22.4410 N   0  0  0  0  0  0  0  0  0  0  0  0
  -23.3870  -28.8600   23.3970 O   0  0  0  0  0  0  0  0  0  0  0  0
  -20.8900  -29.8280   21.7490 H   0  0  0  0  0  0  0  0  0  0  0  0
  -18.0110  -28.0640   22.9300 C   0  0  0  0  0  0  0  0  0  0  0  0
  -20.5650  -28.3450   23.2180 C   0  0  0  0  0  3  0  0  0  0  0  0
  -20.6820  -26.9060   22.6630 C   0  0  0  0  0  2  0  0  0  0  0  0
  -19.5900  -26.5610   21.6450 C   0  0  0  0  0  2  0  0  0  0  0  0
  -18.2020  -26.7060   22.2760 C   0  0  0  0  0  2  0  0  0  0  0  0
  -19.1210  -28.8400   23.3560 C   0  0  0  0  0  0  0  0  0  0  0  0
  -18.8880  -30.1130   23.9220 C   0  0  0  0  0  3  0  0  0  0  0  0
  -17.5790  -30.6070   24.0710 C   0  0  0  0  0  3  0  0  0  0  0  0
  -16.4830  -29.8250   23.6610 C   0  0  0  0  0  3  0  0  0  0  0  0
  -16.7020  -28.5570   23.0960 C   0  0  0  0  0  3  0  0  0  0  0  0
  -25.8490  -32.5440   23.8410 C   0  0  0  0  0  3  0  0  0  0  0  0
  -26.3860  -31.7690   25.1070 C   0  0  1  0  0  0  0  0  0  0  0  0
  -25.3080  -31.5120   26.1870 C   0  0  0  0  0  1  0  0  0  0  0  0
  -26.9720  -30.3970   24.6970 C   0  0  0  0  0  1  0  0  0  0  0  0
  -27.5370  -32.5670   25.7700 C   0  0  0  0  0  1  0  0  0  0  0  0
  -25.5390  -33.9430   24.1690 N   0  0  0  0  0  0  0  0  0  0  0  0
  -25.8690  -34.9940   23.4070 C   0  0  0  0  0  0  0  0  0  0  0  0
  -26.5410  -34.8910   22.3760 O   0  0  0  0  0  0  0  0  0  0  0  0
  -24.9440  -34.0980   24.9720 H   0  0  0  0  0  0  0  0  0  0  0  0
  -24.1420  -36.7840   23.0290 C   0  0  0  0  0  1  0  0  0  0  0  0
  -25.3750  -36.3820   23.8560 C   0  0  0  0  0  3  0  0  0  0  0  0
  -27.5030  -37.2630   24.7070 C   0  0  0  0  0  1  0  0  0  0  0  0
  -26.4100  -37.4350   23.7540 N   0  0  0  0  0  0  0  0  0  0  0  0
  -26.0040  -38.3540   23.9050 H   0  0  0  0  0  0  0  0  0  0  0  0
  -30.3910  -20.0950   23.2240 C   0  0  0  0  0  2  0  0  0  0  0  0
  -31.0570  -18.9510   22.5460 N   0  0  0  0  0  4  0  0  0  0  0  0
  -31.6890  -19.3150   21.8490 H   0  0  0  0  0  0  0  0  0  0  0  0
  -31.6240  -18.4870   23.2400 H   0  0  0  0  0  0  0  0  0  0  0  0
  -30.8760  -14.5170   20.3620 C   0  0  0  0  0  0  0  0  0  0  0  0
  -30.4980  -12.3280   19.2970 C   0  0  0  0  0  2  0  0  0  0  0  0
  -29.5760  -12.4930   18.0720 C   0  0  0  0  0  2  0  0  0  0  0  0
  -28.0980  -12.3800   18.4920 C   0  0  0  0  0  2  0  0  0  0  0  0
  -27.7480  -13.2480   19.7290 C   0  0  0  0  0  3  0  0  0  0  0  0
  -28.8100  -13.1260   20.8490 C   0  0  0  0  0  2  0  0  0  0  0  0
  -30.1350  -13.3780   20.2630 N   0  0  0  0  0  0  0  0  0  0  0  0
  -32.0520  -14.5710   19.9970 O   0  0  0  0  0  0  0  0  0  0  0  0
  -28.6100  -17.4120   19.9950 C   0  0  0  0  0  2  0  0  0  0  0  0
  -29.3390  -18.5140   20.7650 C   0  0  0  0  0  2  0  0  0  0  0  0
  -29.6250  -16.3610   19.5290 C   0  0  0  0  0  2  0  0  0  0  0  0
  -30.9960  -16.6780   21.4720 C   0  0  0  0  0  2  0  0  0  0  0  0
  -30.1690  -17.9240   21.9290 C   0  0  0  0  0  3  0  0  0  0  0  0
  -30.2340  -15.6770   20.6820 N   0  0  0  0  0  0  0  0  0  0  0  0
  -25.3570  -13.8750   20.4200 C   0  0  0  0  0  0  0  0  0  0  0  0
  -24.2830  -13.1110   20.7860 C   0  0  0  0  0  0  0  0  0  0  0  0
  -24.7390  -11.7570   20.7810 C   0  0  0  0  0  0  0  0  0  0  0  0
  -26.3990  -12.9830   20.2130 N   0  0  0  0  0  0  0  0  0  0  0  0
  -26.0330  -11.7060   20.4900 N   0  0  0  0  0  0  0  0  0  0  0  0
  -24.0070  -10.5010   20.9790 C   0  0  0  0  0  0  0  0  0  0  0  0
  -24.4310   -9.5430   21.9270 C   0  0  0  0  0  3  0  0  0  0  0  0
  -23.7000   -8.3510   22.1140 C   0  0  0  0  0  3  0  0  0  0  0  0
  -22.5300   -8.1110   21.3530 C   0  0  0  0  0  0  0  0  0  0  0  0
  -22.1270   -9.0560   20.3950 C   0  0  0  0  0  3  0  0  0  0  0  0
  -22.8580  -10.2400   20.2060 C   0  0  0  0  0  3  0  0  0  0  0  0
  -21.7710   -6.9690   21.4500 O   0  0  0  0  0  0  0  0  0  0  0  0
  -21.7130   -6.2380   22.6080 C   0  0  0  0  0  0  0  0  0  0  0  0
  -21.2860   -6.8070   23.8280 C   0  0  0  0  0  3  0  0  0  0  0  0
  -21.1750   -6.0030   24.9790 C   0  0  0  0  0  3  0  0  0  0  0  0
  -21.4790   -4.6310   24.9130 C   0  0  0  0  0  0  0  0  0  0  0  0
  -21.8990   -4.0610   23.6970 C   0  0  0  0  0  3  0  0  0  0  0  0
  -22.0130   -4.8630   22.5490 C   0  0  0  0  0  0  0  0  0  0  0  0
  -22.3970   -4.3040   21.3750 F   0  0  0  0  0  0  0  0  0  0  0  0
  -21.3670   -3.8560   26.0160 F   0  0  0  0  0  0  0  0  0  0  0  0
  -22.8860  -13.5990   21.0360 C   0  0  0  0  0  0  0  0  0  0  0  0
  -22.1490  -12.9170   21.9050 N   0  0  0  0  0  0  0  0  0  0  0  0
  -22.4570  -14.6180   20.4960 O   0  0  0  0  0  0  0  0  0  0  0  0
  -22.5110  -12.0890   22.3530 H   0  0  0  0  0  0  0  0  0  0  0  0
  -21.2130  -13.2260   22.1240 H   0  0  0  0  0  0  0  0  0  0  0  0
  -25.5280  -15.2400   20.2180 N   0  0  0  0  0  0  0  0  0  0  0  0
  -24.7590  -15.8970   20.2900 H   0  0  0  0  0  0  0  0  0  0  0  0
  -26.3770  -15.6600   19.8670 H   0  0  0  0  0  0  0  0  0  0  0  0
  1  2  1  0
  1 48  1  0
  3  4  1  0
  3  2  1  0
  5  4  1  0
  6  5  1  0
  7  9  1  0
  7  6  1  0
  8 19  2  0
  9 14  1  0
 10 18  1  0
 10 20  1  0
 11 17  1  0
 11 13  1  0
 12 18  1  0
 13 14  2  0
 13 12  1  0
 15 16  1  0
 15  9  2  0
 16 11  2  0
 17 10  1  0
 18  8  1  0
 20 22  2  0
 21 20  1  0
 23 21  1  0
 24 33  2  0
 24 29  1  0
 25 21  1  0
 25 29  1  0
 26 25  1  0
 27 28  1  0
 27 26  1  0
 28 24  1  0
 29 30  2  0
 30 31  1  0
 32 31  2  0
 33 32  1  0
 34  8  1  0
 34 39  1  0
 34 35  1  0
 35 38  1  1
 35 36  1  0
 37 35  1  0
 39 42  1  0
 40 44  1  0
 40 39  1  0
 41 40  2  0
 44 43  1  0
 46 44  1  0
 46 47  1  0
 46 45  1  0
 49 48  1  0
 49 51  1  0
 50 49  1  0
 52 65  1  0
 53 58  1  0
 54 55  1  0
 54 53  1  0
 56 55  1  0
 56 69  1  0
 56 57  1  0
 58 52  1  0
 58 57  1  0
 59 52  2  0
 60 61  1  0
 61 64  1  0
 62 60  1  0
 62 65  1  0
 63 64  1  0
 64 49  1  0
 65 63  1  0
 66 67  2  0
 67 86  1  0
 68 67  1  0
 68 71  1  0
 69 66  1  0
 69 70  1  0
 70 68  2  0
 71 72  1  0
 72 73  2  0
 74 77  1  0
 74 73  1  0
 75 74  2  0
 76 75  1  0
 76 71  2  0
 77 78  1  0
 78 79  1  0
 79 80  2  0
 81 80  1  0
 81 85  1  0
 82 81  2  0
 83 78  2  0
 83 82  1  0
 84 83  1  0
 86 87  1  0
 87 90  1  0
 87 89  1  0
 88 86  2  0
 91 92  1  0
 91 66  1  0
 93 91  1  0
M  ISO  4   6 101   7 101  52 100  65 100
M  END
>  <TORSDO>  (93) 
F 23

>  <SCORE>  (93) 
-12.554

>  <name>  (93) 
93

>  <ligand_id>  (93) 
93

>  <original_smiles>  (93) 
[H]c1c([H])c([H])c2c(c1[H])C([H])([H])C([H])([H])C([H])([H])C2([H])N([H])C(=O)C1([H])N(C(=O)C([H])(N([H])C(=O)C([H])(N([H])C([H])([H])[H])C([H])([H])[H])C(C([H])([H])[H])(C([H])([H])[H])C([H])([H])[H])C([H])([H])c2c([H])c(OC([H])([H])C([H])([H])C([H])([H])C([H])([H])C([H])([H])C([H])([H])C([H])([H])[N+]([H])([H])C3([H])C([H])([H])N(C(=O)N4C([H])([H])C([H])([H])C([H])([H])C([H])(n5nc(-c6c([H])c([H])c(Oc7c([H])c([H])c(F)c([H])c7F)c([H])c6[H])c(C(=O)N([H])[H])c5N([H])[H])C4([H])[H])C([H])([H])C([H])([H])C3([H])[H])c([H])c([H])c2C1([H])[H]

>  <smiles>  (93) 
[H]c1c([H])c([H])c2c(c1[H])C([H])([H])C([H])([H])C([H])([H])C2([H])N([H])C(=O)C1([H])N(C(=O)C([H])(N([H])C(=O)C([H])(N([H])C([H])([H])[H])C([H])([H])[H])C(C([H])([H])[H])(C([H])([H])[H])C([H])([H])[H])C([H])([H])c2c([H])c(OC([H])([H])C([H])([H])C([H])([H])C([H])([H])C([H])([H])C([H])([H])C([H])([H])[N+]([H])([H])C3([H])C([H])([H])N(C(=O)N4C([H])([H])C([H])([H])C([H])([H])C([H])(n5nc(-c6c([H])c([H])c(Oc7c([H])c([H])c(F)c([H])c7F)c([H])c6[H])c(C(=O)N([H])[H])c5N([H])[H])C4([H])[H])C([H])([H])C([H])([H])C3([H])[H])c([H])c([H])c2C1([H])[H]

$$$$
94:0:0
     RDKit          3D

 99108  0  0  1  0  0  0  0  0999 V2000
  -32.0720  -20.4950   22.9180 C   0  0  0  0  0  2  0  0  0  0  0  0
  -31.2560  -18.3490   21.9370 C   0  0  0  0  0  0  0  0  0  0  0  0
  -31.0790  -19.4410   22.6930 N   0  0  0  0  0  0  0  0  0  0  0  0
  -32.2750  -18.1660   21.2710 O   0  0  0  0  0  0  0  0  0  0  0  0
  -30.2260  -19.5030   23.2340 H   0  0  0  0  0  0  0  0  0  0  0  0
  -30.5290  -14.5840   20.0910 C   0  0  0  0  0  0  0  0  0  0  0  0
  -30.1900  -12.4680   18.8690 C   0  0  0  0  0  2  0  0  0  0  0  0
  -29.1590  -12.6630   17.7390 C   0  0  0  0  0  2  0  0  0  0  0  0
  -27.7260  -12.4630   18.2680 C   0  0  0  0  0  2  0  0  0  0  0  0
  -27.4490  -13.2680   19.5640 C   0  0  0  0  0  3  0  0  0  0  0  0
  -28.5810  -13.0610   20.5940 C   0  0  0  0  0  2  0  0  0  0  0  0
  -29.8600  -13.4110   19.9470 N   0  0  0  0  0  0  0  0  0  0  0  0
  -31.5500  -14.8630   19.4570 O   0  0  0  0  0  0  0  0  0  0  0  0
  -30.5580  -15.8670   22.1780 C   0  0  0  0  0  2  0  0  0  0  0  0
  -30.1150  -17.3120   21.9470 C   0  0  0  0  0  3  0  0  0  0  0  0
  -29.5560  -16.8840   20.5790 C   0  0  0  0  0  3  0  0  0  0  0  0
  -29.9380  -15.4860   20.9030 N   0  0  0  0  0  0  0  0  0  0  0  0
  -25.0860  -13.7770   20.4530 C   0  0  0  0  0  0  0  0  0  0  0  0
  -24.0710  -12.9600   20.8730 C   0  0  0  0  0  0  0  0  0  0  0  0
  -24.5720  -11.6260   20.7720 C   0  0  0  0  0  0  0  0  0  0  0  0
  -26.1400  -12.9380   20.1260 N   0  0  0  0  0  0  0  0  0  0  0  0
  -25.8370  -11.6380   20.3710 N   0  0  0  0  0  0  0  0  0  0  0  0
  -23.9030  -10.3350   20.9770 C   0  0  0  0  0  0  0  0  0  0  0  0
  -24.3660   -9.4070   21.9350 C   0  0  0  0  0  3  0  0  0  0  0  0
  -23.6950   -8.1800   22.1250 C   0  0  0  0  0  3  0  0  0  0  0  0
  -22.5460   -7.8730   21.3590 C   0  0  0  0  0  0  0  0  0  0  0  0
  -22.1030   -8.7900   20.3890 C   0  0  0  0  0  3  0  0  0  0  0  0
  -22.7750  -10.0080   20.1970 C   0  0  0  0  0  3  0  0  0  0  0  0
  -21.8460   -6.6950   21.4570 O   0  0  0  0  0  0  0  0  0  0  0  0
  -21.7510   -6.0120   22.6420 C   0  0  0  0  0  0  0  0  0  0  0  0
  -21.1960   -6.5990   23.8000 C   0  0  0  0  0  3  0  0  0  0  0  0
  -21.0540   -5.8350   24.9770 C   0  0  0  0  0  3  0  0  0  0  0  0
  -21.4590   -4.4870   24.9960 C   0  0  0  0  0  0  0  0  0  0  0  0
  -22.0050   -3.9000   23.8420 C   0  0  0  0  0  3  0  0  0  0  0  0
  -22.1490   -4.6600   22.6680 C   0  0  0  0  0  0  0  0  0  0  0  0
  -22.6570   -4.0820   21.5530 F   0  0  0  0  0  0  0  0  0  0  0  0
  -21.3160   -3.7540   26.1240 F   0  0  0  0  0  0  0  0  0  0  0  0
  -22.6820  -13.3830   21.2610 C   0  0  0  0  0  0  0  0  0  0  0  0
  -22.0430  -12.6360   22.1550 N   0  0  0  0  0  0  0  0  0  0  0  0
  -22.1760  -14.4080   20.8050 O   0  0  0  0  0  0  0  0  0  0  0  0
  -22.4650  -11.8060   22.5400 H   0  0  0  0  0  0  0  0  0  0  0  0
  -21.1150  -12.8990   22.4550 H   0  0  0  0  0  0  0  0  0  0  0  0
  -25.1950  -15.1560   20.3030 N   0  0  0  0  0  0  0  0  0  0  0  0
  -24.4170  -15.7840   20.4750 H   0  0  0  0  0  0  0  0  0  0  0  0
  -26.0120  -15.6280   19.9380 H   0  0  0  0  0  0  0  0  0  0  0  0
  -30.1040  -17.4190   19.2300 C   0  0  0  0  0  2  0  0  0  0  0  0
  -29.5790  -18.7580   18.9030 N   0  0  0  0  0  4  0  0  0  0  0  0
  -28.5780  -18.7410   18.8110 H   0  0  0  0  0  0  0  0  0  0  0  0
  -29.9590  -19.0620   18.0240 H   0  0  0  0  0  0  0  0  0  0  0  0
  -29.8320  -19.4350   19.5980 H   0  0  0  0  0  0  0  0  0  0  0  0
  -32.1880  -21.4880   21.7400 C   0  0  0  0  0  2  0  0  0  0  0  0
  -30.2230  -22.9750   22.4980 C   0  0  0  0  0  2  0  0  0  0  0  0
  -31.1780  -23.2290   20.1850 C   0  0  0  0  0  2  0  0  0  0  0  0
  -28.9450  -23.6970   22.0400 C   0  0  0  0  0  2  0  0  0  0  0  0
  -29.9120  -23.9820   19.7310 C   0  0  0  0  0  2  0  0  0  0  0  0
  -30.8940  -22.2280   21.3280 C   0  0  0  0  0  3  0  0  0  0  0  0
  -29.2100  -24.7030   20.9010 C   0  0  0  0  0  3  0  0  0  0  0  0
  -27.8890  -25.3660   20.4600 C   0  0  0  0  0  2  0  0  0  0  0  0
  -28.0760  -26.6200   19.7970 O   0  0  0  0  0  0  0  0  0  0  0  0
  -24.4860  -31.7620   23.1180 C   0  0  0  0  0  0  0  0  0  0  0  0
  -26.9350  -27.3880   19.8150 C   0  0  0  0  0  0  0  0  0  0  0  0
  -23.1880  -30.4120   21.5010 C   0  0  0  0  0  3  0  0  0  0  0  0
  -24.5580  -28.9010   19.9710 C   0  0  0  0  0  0  0  0  0  0  0  0
  -25.7040  -30.7580   21.1920 C   0  0  0  0  0  2  0  0  0  0  0  0
  -25.7470  -29.4050   20.5150 C   0  0  0  0  0  0  0  0  0  0  0  0
  -26.9420  -28.6570   20.4300 C   0  0  0  0  0  3  0  0  0  0  0  0
  -25.7320  -26.8960   19.2600 C   0  0  0  0  0  3  0  0  0  0  0  0
  -24.5450  -27.6460   19.3390 C   0  0  0  0  0  3  0  0  0  0  0  0
  -23.3250  -29.7650   20.0970 C   0  0  0  0  0  2  0  0  0  0  0  0
  -24.4800  -30.9890   21.9960 N   0  0  0  0  0  0  0  0  0  0  0  0
  -23.4350  -32.0330   23.7150 O   0  0  0  0  0  0  0  0  0  0  0  0
  -22.5710  -29.3760   22.4660 C   0  0  0  0  0  0  0  0  0  0  0  0
  -21.2460  -29.1770   22.3620 N   0  0  0  0  0  0  0  0  0  0  0  0
  -23.2770  -28.7540   23.2640 O   0  0  0  0  0  0  0  0  0  0  0  0
  -20.7360  -29.7320   21.6870 H   0  0  0  0  0  0  0  0  0  0  0  0
  -17.9000  -27.9200   22.8930 C   0  0  0  0  0  0  0  0  0  0  0  0
  -20.4560  -28.2230   23.1390 C   0  0  0  0  0  3  0  0  0  0  0  0
  -20.5790  -26.7960   22.5600 C   0  0  0  0  0  2  0  0  0  0  0  0
  -19.4730  -26.4520   21.5580 C   0  0  0  0  0  2  0  0  0  0  0  0
  -18.0950  -26.5730   22.2150 C   0  0  0  0  0  2  0  0  0  0  0  0
  -19.0100  -28.7010   23.3130 C   0  0  0  0  0  0  0  0  0  0  0  0
  -18.7750  -29.9620   23.9040 C   0  0  0  0  0  3  0  0  0  0  0  0
  -17.4640  -30.4400   24.0830 C   0  0  0  0  0  3  0  0  0  0  0  0
  -16.3680  -29.6550   23.6820 C   0  0  0  0  0  3  0  0  0  0  0  0
  -16.5880  -28.3970   23.0910 C   0  0  0  0  0  3  0  0  0  0  0  0
  -25.8080  -32.3630   23.6920 C   0  0  0  0  0  3  0  0  0  0  0  0
  -25.5350  -33.7580   24.0640 N   0  0  0  0  0  0  0  0  0  0  0  0
  -25.8730  -34.8210   23.3230 C   0  0  0  0  0  0  0  0  0  0  0  0
  -26.5200  -34.7300   22.2760 O   0  0  0  0  0  0  0  0  0  0  0  0
  -24.9630  -33.9050   24.8810 H   0  0  0  0  0  0  0  0  0  0  0  0
  -24.1990  -36.6710   23.0130 C   0  0  0  0  0  1  0  0  0  0  0  0
  -25.4210  -36.2070   23.8220 C   0  0  0  0  0  3  0  0  0  0  0  0
  -27.5680  -37.0030   24.7070 C   0  0  0  0  0  1  0  0  0  0  0  0
  -26.4840  -37.2320   23.7550 N   0  0  0  0  0  0  0  0  0  0  0  0
  -26.1020  -38.1590   23.9280 H   0  0  0  0  0  0  0  0  0  0  0  0
  -26.3730  -31.5560   24.9250 C   0  0  1  0  0  0  0  0  0  0  0  0
  -25.3270  -31.2990   26.0340 C   0  0  0  0  0  1  0  0  0  0  0  0
  -26.9250  -30.1830   24.4710 C   0  0  0  0  0  1  0  0  0  0  0  0
  -27.5600  -32.3230   25.5540 C   0  0  0  0  0  1  0  0  0  0  0  0
  2  3  1  0
  3  1  1  0
  3  5  1  0
  4  2  2  0
  6 17  1  0
  7 12  1  0
  8  9  1  0
  8  7  1  0
 10  9  1  0
 10 21  1  0
 10 11  1  0
 12  6  1  0
 12 11  1  0
 13  6  2  0
 15  2  1  0
 15 14  1  0
 16 46  1  0
 16 17  1  0
 16 15  1  0
 17 14  1  0
 18 19  2  0
 19 38  1  0
 20 19  1  0
 20 23  1  0
 21 22  1  0
 21 18  1  0
 22 20  2  0
 23 24  1  0
 24 25  2  0
 26 29  1  0
 26 25  1  0
 27 26  2  0
 28 27  1  0
 28 23  2  0
 29 30  1  0
 30 35  2  0
 30 31  1  0
 31 32  2  0
 32 33  1  0
 33 37  1  0
 34 33  2  0
 35 34  1  0
 36 35  1  0
 38 39  1  0
 39 42  1  0
 39 41  1  0
 40 38  2  0
 43 18  1  0
 43 44  1  0
 45 43  1  0
 47 46  1  0
 47 50  1  0
 48 47  1  0
 49 47  1  0
 51  1  1  0
 53 56  1  0
 54 52  1  0
 55 53  1  0
 55 57  1  0
 56 51  1  0
 56 52  1  0
 57 58  1  0
 57 54  1  0
 59 61  1  0
 59 58  1  0
 60 71  2  0
 61 66  1  0
 62 70  1  0
 62 72  1  0
 63 69  1  0
 63 65  1  0
 64 70  1  0
 65 64  1  0
 66 65  2  0
 67 68  1  0
 67 61  2  0
 68 63  2  0
 69 62  1  0
 70 60  1  0
 72 74  2  0
 73 72  1  0
 75 73  1  0
 76 85  2  0
 76 81  1  0
 77 73  1  0
 77 81  1  0
 78 77  1  0
 79 80  1  0
 79 78  1  0
 80 76  1  0
 81 82  2  0
 82 83  1  0
 84 83  2  0
 85 84  1  0
 86 60  1  0
 86 87  1  0
 86 96  1  0
 87 90  1  0
 88 92  1  0
 88 87  1  0
 89 88  2  0
 92 91  1  0
 94 92  1  0
 94 95  1  0
 94 93  1  0
 96 99  1  1
 96 97  1  0
 98 96  1  0
M  ISO  4   6 100  17 100  58 101  59 101
M  END
>  <TORSDO>  (94) 
F 22

>  <SCORE>  (94) 
-13.276

>  <name>  (94) 
94

>  <ligand_id>  (94) 
94

>  <original_smiles>  (94) 
[H]c1c([H])c([H])c2c(c1[H])C([H])([H])C([H])([H])C([H])([H])C2([H])N([H])C(=O)C1([H])N(C(=O)C([H])(N([H])C(=O)C([H])(N([H])C([H])([H])[H])C([H])([H])[H])C(C([H])([H])[H])(C([H])([H])[H])C([H])([H])[H])C([H])([H])c2c([H])c(OC([H])([H])C3([H])C([H])([H])C([H])([H])C([H])(C([H])([H])C([H])([H])N([H])C(=O)C4([H])C([H])([H])N(C(=O)N5C([H])([H])C([H])([H])C([H])([H])C([H])(n6nc(-c7c([H])c([H])c(Oc8c([H])c([H])c(F)c([H])c8F)c([H])c7[H])c(C(=O)N([H])[H])c6N([H])[H])C5([H])[H])C4([H])C([H])([H])[N+]([H])([H])[H])C([H])([H])C3([H])[H])c([H])c([H])c2C1([H])[H]

>  <smiles>  (94) 
[H]c1c([H])c([H])c2c(c1[H])C([H])([H])C([H])([H])C([H])([H])C2([H])N([H])C(=O)C1([H])N(C(=O)C([H])(N([H])C(=O)C([H])(N([H])C([H])([H])[H])C([H])([H])[H])C(C([H])([H])[H])(C([H])([H])[H])C([H])([H])[H])C([H])([H])c2c([H])c(OC([H])([H])C3([H])C([H])([H])C([H])([H])C([H])(C([H])([H])C([H])([H])N([H])C(=O)C4([H])C([H])([H])N(C(=O)N5C([H])([H])C([H])([H])C([H])([H])C([H])(n6nc(-c7c([H])c([H])c(Oc8c([H])c([H])c(F)c([H])c8F)c([H])c7[H])c(C(=O)N([H])[H])c6N([H])[H])C5([H])[H])C4([H])C([H])([H])[N+]([H])([H])[H])C([H])([H])C3([H])[H])c([H])c([H])c2C1([H])[H]

$$$$
95:0:0
     RDKit          3D

 94103  0  0  1  0  0  0  0  0999 V2000
  -28.3020  -20.7450   21.8500 C   0  0  0  0  0  2  0  0  0  0  0  0
  -29.8760  -19.7860   18.9100 C   0  0  0  0  0  2  0  0  0  0  0  0
  -27.8420  -21.6730   20.7010 C   0  0  0  0  0  2  0  0  0  0  0  0
  -29.3320  -21.2140   18.6250 C   0  0  0  0  0  2  0  0  0  0  0  0
  -30.7330  -21.1640   21.3280 C   0  0  0  0  0  2  0  0  0  0  0  0
  -29.6320  -20.0660   21.4740 C   0  0  0  0  0  3  0  0  0  0  0  0
  -29.3960  -19.1610   20.2300 C   0  0  0  0  0  3  0  0  0  0  0  0
  -29.0380  -22.1630   19.8310 C   0  0  0  0  0  3  0  0  0  0  0  0
  -30.2440  -22.4280   20.6760 N   0  0  1  0  0  4  0  0  0  0  0  0
  -30.9790  -22.7120   20.0480 H   0  0  0  0  0  0  0  0  0  0  0  0
  -29.7560  -17.6710   20.4320 C   0  0  0  0  0  2  0  0  0  0  0  0
  -31.2380  -17.2550   20.4160 C   0  0  0  0  0  2  0  0  0  0  0  0
  -31.8630  -14.8570   20.0910 C   0  0  0  0  0  0  0  0  0  0  0  0
  -31.4950  -12.6100   19.1260 C   0  0  0  0  0  2  0  0  0  0  0  0
  -30.5640  -12.7350   17.9030 C   0  0  0  0  0  2  0  0  0  0  0  0
  -29.0870  -12.7160   18.3400 C   0  0  0  0  0  2  0  0  0  0  0  0
  -28.7840  -13.6930   19.5090 C   0  0  0  0  0  3  0  0  0  0  0  0
  -29.8130  -13.4970   20.6420 C   0  0  0  0  0  2  0  0  0  0  0  0
  -31.1670  -13.6870   20.0780 N   0  0  0  0  0  0  0  0  0  0  0  0
  -32.9080  -15.0490   19.4530 O   0  0  0  0  0  0  0  0  0  0  0  0
  -31.2650  -15.8370   20.7800 N   0  0  0  0  0  0  0  0  0  0  0  0
  -30.5020  -15.5220   21.3660 H   0  0  0  0  0  0  0  0  0  0  0  0
  -26.4450  -14.5000   20.2520 C   0  0  0  0  0  0  0  0  0  0  0  0
  -25.3180  -13.8150   20.6270 C   0  0  0  0  0  0  0  0  0  0  0  0
  -25.6580  -12.4320   20.5600 C   0  0  0  0  0  0  0  0  0  0  0  0
  -27.4120  -13.5370   19.9950 N   0  0  0  0  0  0  0  0  0  0  0  0
  -26.9370  -12.2840   20.2290 N   0  0  0  0  0  0  0  0  0  0  0  0
  -24.8240  -11.2360   20.7450 C   0  0  0  0  0  0  0  0  0  0  0  0
  -25.1410  -10.2620   21.7140 C   0  0  0  0  0  3  0  0  0  0  0  0
  -24.3180   -9.1270   21.8830 C   0  0  0  0  0  3  0  0  0  0  0  0
  -23.1630   -8.9640   21.0820 C   0  0  0  0  0  0  0  0  0  0  0  0
  -22.8670   -9.9270   20.1020 C   0  0  0  0  0  3  0  0  0  0  0  0
  -23.6890  -11.0530   19.9300 C   0  0  0  0  0  3  0  0  0  0  0  0
  -22.3190   -7.8830   21.1560 O   0  0  0  0  0  0  0  0  0  0  0  0
  -22.0800   -7.2330   22.3410 C   0  0  0  0  0  0  0  0  0  0  0  0
  -21.5450   -7.9050   23.4610 C   0  0  0  0  0  3  0  0  0  0  0  0
  -21.2440   -7.1880   24.6350 C   0  0  0  0  0  3  0  0  0  0  0  0
  -21.4740   -5.8010   24.6950 C   0  0  0  0  0  0  0  0  0  0  0  0
  -22.0050   -5.1280   23.5780 C   0  0  0  0  0  3  0  0  0  0  0  0
  -22.3030   -5.8430   22.4040 C   0  0  0  0  0  0  0  0  0  0  0  0
  -22.7930   -5.1860   21.3270 F   0  0  0  0  0  0  0  0  0  0  0  0
  -21.1830   -5.1110   25.8220 F   0  0  0  0  0  0  0  0  0  0  0  0
  -23.9720  -14.4080   20.9360 C   0  0  0  0  0  0  0  0  0  0  0  0
  -23.2060  -13.7670   21.8140 N   0  0  0  0  0  0  0  0  0  0  0  0
  -23.6100  -15.4720   20.4380 O   0  0  0  0  0  0  0  0  0  0  0  0
  -23.5110  -12.9050   22.2430 H   0  0  0  0  0  0  0  0  0  0  0  0
  -22.3010  -14.1470   22.0520 H   0  0  0  0  0  0  0  0  0  0  0  0
  -26.7190  -15.8570   20.1000 N   0  0  0  0  0  0  0  0  0  0  0  0
  -26.0210  -16.5760   20.2610 H   0  0  0  0  0  0  0  0  0  0  0  0
  -27.6040  -16.2270   19.7870 H   0  0  0  0  0  0  0  0  0  0  0  0
  -30.0680  -23.5810   21.6290 C   0  0  0  0  0  2  0  0  0  0  0  0
  -30.2890  -25.0060   21.0430 C   0  0  0  0  0  2  0  0  0  0  0  0
  -29.0320  -25.7060   20.4780 C   0  0  0  0  0  2  0  0  0  0  0  0
  -29.1920  -27.1390   20.3250 O   0  0  0  0  0  0  0  0  0  0  0  0
  -24.7700  -31.8780   23.3100 C   0  0  0  0  0  0  0  0  0  0  0  0
  -28.0000  -27.8330   20.2260 C   0  0  0  0  0  0  0  0  0  0  0  0
  -23.8100  -30.4370   21.5440 C   0  0  0  0  0  3  0  0  0  0  0  0
  -25.4880  -29.1330   20.1410 C   0  0  0  0  0  0  0  0  0  0  0  0
  -26.2940  -31.0520   21.5140 C   0  0  0  0  0  2  0  0  0  0  0  0
  -26.5580  -29.7270   20.8210 C   0  0  0  0  0  0  0  0  0  0  0  0
  -27.8210  -29.0870   20.8600 C   0  0  0  0  0  3  0  0  0  0  0  0
  -26.9130  -27.2710   19.5160 C   0  0  0  0  0  3  0  0  0  0  0  0
  -25.6630  -27.9040   19.4820 C   0  0  0  0  0  3  0  0  0  0  0  0
  -24.1610  -29.8590   20.1500 C   0  0  0  0  0  2  0  0  0  0  0  0
  -24.9720  -31.1350   22.1820 N   0  0  0  0  0  0  0  0  0  0  0  0
  -23.6370  -32.0180   23.7930 O   0  0  0  0  0  0  0  0  0  0  0  0
  -23.2170  -29.3060   22.4150 C   0  0  0  0  0  0  0  0  0  0  0  0
  -21.9220  -29.0150   22.2130 N   0  0  0  0  0  0  0  0  0  0  0  0
  -23.9260  -28.7040   23.2280 O   0  0  0  0  0  0  0  0  0  0  0  0
  -21.4040  -29.5610   21.5400 H   0  0  0  0  0  0  0  0  0  0  0  0
  -18.6290  -27.5690   22.5680 C   0  0  0  0  0  0  0  0  0  0  0  0
  -21.1560  -27.9810   22.9070 C   0  0  0  0  0  3  0  0  0  0  0  0
  -21.3620  -26.5980   22.2530 C   0  0  0  0  0  2  0  0  0  0  0  0
  -20.3080  -26.2610   21.1970 C   0  0  0  0  0  2  0  0  0  0  0  0
  -18.9090  -26.2800   21.8120 C   0  0  0  0  0  2  0  0  0  0  0  0
  -19.6890  -28.3750   23.0690 C   0  0  0  0  0  0  0  0  0  0  0  0
  -19.3800  -29.5750   23.7440 C   0  0  0  0  0  3  0  0  0  0  0  0
  -18.0450  -29.9690   23.9280 C   0  0  0  0  0  3  0  0  0  0  0  0
  -17.0010  -29.1680   23.4360 C   0  0  0  0  0  3  0  0  0  0  0  0
  -17.2930  -27.9700   22.7610 C   0  0  0  0  0  3  0  0  0  0  0  0
  -25.9490  -32.6000   24.0280 C   0  0  0  0  0  3  0  0  0  0  0  0
  -25.5270  -33.9830   24.2820 N   0  0  0  0  0  0  0  0  0  0  0  0
  -25.8660  -35.0350   23.5250 C   0  0  0  0  0  0  0  0  0  0  0  0
  -26.6360  -34.9500   22.5640 O   0  0  0  0  0  0  0  0  0  0  0  0
  -24.8440  -34.1180   25.0130 H   0  0  0  0  0  0  0  0  0  0  0  0
  -24.0680  -36.6980   22.9460 C   0  0  0  0  0  1  0  0  0  0  0  0
  -25.2490  -36.3980   23.8840 C   0  0  0  0  0  3  0  0  0  0  0  0
  -27.2330  -37.4440   24.8880 C   0  0  0  0  0  1  0  0  0  0  0  0
  -26.2210  -37.5120   23.8360 N   0  0  0  0  0  0  0  0  0  0  0  0
  -25.7470  -38.4080   23.9150 H   0  0  0  0  0  0  0  0  0  0  0  0
  -26.3910  -31.8910   25.3690 C   0  0  1  0  0  0  0  0  0  0  0  0
  -25.2180  -31.5790   26.3250 C   0  0  0  0  0  1  0  0  0  0  0  0
  -27.1200  -30.5600   25.0680 C   0  0  0  0  0  1  0  0  0  0  0  0
  -27.4000  -32.7870   26.1260 C   0  0  0  0  0  1  0  0  0  0  0  0
  2  7  1  0
  3  1  1  0
  4  2  1  0
  6  5  1  0
  6  1  1  0
  7 11  1  0
  7  6  1  0
  8  4  1  0
  8  9  1  0
  8  3  1  0
  9  5  1  0
  9 51  1  0
  9 10  1  6
 12 11  1  0
 12 21  1  0
 13 21  1  0
 14 19  1  0
 15 16  1  0
 15 14  1  0
 17 16  1  0
 17 26  1  0
 17 18  1  0
 19 13  1  0
 19 18  1  0
 20 13  2  0
 21 22  1  0
 23 24  2  0
 24 43  1  0
 25 24  1  0
 25 28  1  0
 26 27  1  0
 26 23  1  0
 27 25  2  0
 28 29  1  0
 29 30  2  0
 31 34  1  0
 31 30  1  0
 32 31  2  0
 33 32  1  0
 33 28  2  0
 34 35  1  0
 35 40  2  0
 35 36  1  0
 36 37  2  0
 37 38  1  0
 38 42  1  0
 39 38  2  0
 40 39  1  0
 41 40  1  0
 43 44  1  0
 44 47  1  0
 44 46  1  0
 45 43  2  0
 48 23  1  0
 48 49  1  0
 50 48  1  0
 52 51  1  0
 53 52  1  0
 54 53  1  0
 55 66  2  0
 56 54  1  0
 56 61  1  0
 57 65  1  0
 57 67  1  0
 58 64  1  0
 58 60  1  0
 59 65  1  0
 60 61  2  0
 60 59  1  0
 62 56  2  0
 63 62  1  0
 63 58  2  0
 64 57  1  0
 65 55  1  0
 67 69  2  0
 68 67  1  0
 70 68  1  0
 71 80  2  0
 71 76  1  0
 72 68  1  0
 72 76  1  0
 73 72  1  0
 74 75  1  0
 74 73  1  0
 75 71  1  0
 76 77  2  0
 77 78  1  0
 79 78  2  0
 80 79  1  0
 81 55  1  0
 81 82  1  0
 81 91  1  0
 82 85  1  0
 83 87  1  0
 83 82  1  0
 84 83  2  0
 87 86  1  0
 89 87  1  0
 89 90  1  0
 89 88  1  0
 91 94  1  1
 91 92  1  0
 93 91  1  0
M  ISO  4  13 100  21 100  53 101  54 101
M  END
>  <TORSDO>  (95) 
F 21

>  <SCORE>  (95) 
-10.514

>  <name>  (95) 
95

>  <ligand_id>  (95) 
95

>  <original_smiles>  (95) 
[H]c1c([H])c([H])c2c(c1[H])C([H])([H])C([H])([H])C([H])([H])C2([H])N([H])C(=O)C1([H])N(C(=O)C([H])(N([H])C(=O)C([H])(N([H])C([H])([H])[H])C([H])([H])[H])C(C([H])([H])[H])(C([H])([H])[H])C([H])([H])[H])C([H])([H])c2c([H])c(OC([H])([H])C([H])([H])C([H])([H])[N+]3([H])C([H])([H])C4([H])C([H])([H])C([H])([H])C3([H])C([H])([H])C([H])([H])C4([H])C([H])([H])C([H])([H])N([H])C(=O)N3C([H])([H])C([H])([H])C([H])([H])C([H])(n4nc(-c5c([H])c([H])c(Oc6c([H])c([H])c(F)c([H])c6F)c([H])c5[H])c(C(=O)N([H])[H])c4N([H])[H])C3([H])[H])c([H])c([H])c2C1([H])[H]

>  <smiles>  (95) 
[H]c1c([H])c([H])c2c(c1[H])C([H])([H])C([H])([H])C([H])([H])C2([H])N([H])C(=O)C1([H])N(C(=O)C([H])(N([H])C(=O)C([H])(N([H])C([H])([H])[H])C([H])([H])[H])C(C([H])([H])[H])(C([H])([H])[H])C([H])([H])[H])C([H])([H])c2c([H])c(OC([H])([H])C([H])([H])C([H])([H])[N+]3([H])C([H])([H])C4([H])C([H])([H])C([H])([H])C3([H])C([H])([H])C([H])([H])C4([H])C([H])([H])C([H])([H])N([H])C(=O)N3C([H])([H])C([H])([H])C([H])([H])C([H])(n4nc(-c5c([H])c([H])c(Oc6c([H])c([H])c(F)c([H])c6F)c([H])c5[H])c(C(=O)N([H])[H])c4N([H])[H])C3([H])[H])c([H])c([H])c2C1([H])[H]

$$$$
