0:0:0
     RDKit          3D

 88 97  0  0  1  0  0  0  0  0999 V2000
  -27.5300  -22.0590   20.5490 C   0  0  0  0  0  3  0  0  0  0  0  0
  -29.7470  -22.3110   20.0320 C   0  0  0  0  0  3  0  0  0  0  0  0
  -27.3220  -23.5310   20.5250 C   0  0  0  0  0  3  0  0  0  0  0  0
  -29.5440  -23.7840   20.0070 C   0  0  0  0  0  3  0  0  0  0  0  0
  -28.7520  -21.2890   20.3130 C   0  0  0  0  0  0  0  0  0  0  0  0
  -28.3210  -24.5470   20.2480 C   0  0  0  0  0  0  0  0  0  0  0  0
  -28.9480  -18.7820   19.1190 C   0  0  0  0  0  2  0  0  0  0  0  0
  -28.8380  -19.5460   20.4120 C   0  0  0  0  0  3  0  0  0  0  0  0
  -29.8380  -18.1130   20.1480 C   0  0  0  0  0  3  0  0  0  0  0  0
  -30.4130  -15.2820   20.1570 C   0  0  0  0  0  0  0  0  0  0  0  0
  -30.3650  -12.8670   19.2470 C   0  0  0  0  0  2  0  0  0  0  0  0
  -29.4030  -12.7120   18.0430 C   0  0  0  0  0  2  0  0  0  0  0  0
  -27.9650  -12.4460   18.5230 C   0  0  0  0  0  2  0  0  0  0  0  0
  -27.5560  -13.3830   19.6870 C   0  0  0  0  0  3  0  0  0  0  0  0
  -28.6410  -13.4840   20.7810 C   0  0  0  0  0  2  0  0  0  0  0  0
  -29.8580  -13.9800   20.1220 N   0  0  0  0  0  0  0  0  0  0  0  0
  -31.6180  -15.3210   19.8720 O   0  0  0  0  0  0  0  0  0  0  0  0
  -29.6130  -16.5060   20.2990 N   0  0  0  0  0  0  0  0  0  0  0  0
  -28.6530  -16.2780   20.5140 H   0  0  0  0  0  0  0  0  0  0  0  0
  -25.2120  -13.9260   20.5340 C   0  0  0  0  0  0  0  0  0  0  0  0
  -24.1630  -13.1390   20.9210 C   0  0  0  0  0  0  0  0  0  0  0  0
  -24.6280  -11.7910   20.8380 C   0  0  0  0  0  0  0  0  0  0  0  0
  -26.2450  -13.0570   20.2320 N   0  0  0  0  0  0  0  0  0  0  0  0
  -25.9080  -11.7660   20.4820 N   0  0  0  0  0  0  0  0  0  0  0  0
  -23.9080  -10.5230   21.0200 C   0  0  0  0  0  0  0  0  0  0  0  0
  -24.3430   -9.5510   21.9460 C   0  0  0  0  0  3  0  0  0  0  0  0
  -23.6190   -8.3500   22.1160 C   0  0  0  0  0  3  0  0  0  0  0  0
  -22.4460   -8.1140   21.3600 C   0  0  0  0  0  0  0  0  0  0  0  0
  -22.0300   -9.0770   20.4230 C   0  0  0  0  0  3  0  0  0  0  0  0
  -22.7550  -10.2670   20.2500 C   0  0  0  0  0  3  0  0  0  0  0  0
  -21.6940   -6.9670   21.4410 O   0  0  0  0  0  0  0  0  0  0  0  0
  -21.6110   -6.2420   22.6020 C   0  0  0  0  0  0  0  0  0  0  0  0
  -21.1060   -6.8020   23.7960 C   0  0  0  0  0  3  0  0  0  0  0  0
  -20.9720   -6.0020   24.9470 C   0  0  0  0  0  3  0  0  0  0  0  0
  -21.3310   -4.6420   24.9060 C   0  0  0  0  0  0  0  0  0  0  0  0
  -21.8290   -4.0800   23.7170 C   0  0  0  0  0  3  0  0  0  0  0  0
  -21.9640   -4.8780   22.5670 C   0  0  0  0  0  0  0  0  0  0  0  0
  -22.4240   -4.3270   21.4180 F   0  0  0  0  0  0  0  0  0  0  0  0
  -21.1960   -3.8700   26.0110 F   0  0  0  0  0  0  0  0  0  0  0  0
  -22.7760  -13.6090   21.2470 C   0  0  0  0  0  0  0  0  0  0  0  0
  -22.0770  -12.8940   22.1210 N   0  0  0  0  0  0  0  0  0  0  0  0
  -22.3220  -14.6460   20.7630 O   0  0  0  0  0  0  0  0  0  0  0  0
  -22.4590  -12.0560   22.5340 H   0  0  0  0  0  0  0  0  0  0  0  0
  -21.1470  -13.1890   22.3830 H   0  0  0  0  0  0  0  0  0  0  0  0
  -25.3660  -15.3020   20.3840 N   0  0  0  0  0  0  0  0  0  0  0  0
  -24.5940  -15.9440   20.5300 H   0  0  0  0  0  0  0  0  0  0  0  0
  -26.1800  -15.7480   19.9850 H   0  0  0  0  0  0  0  0  0  0  0  0
  -28.2620  -26.0720   20.2560 O   0  0  0  0  0  0  0  0  0  0  0  0
  -24.6470  -31.9340   23.2470 C   0  0  0  0  0  0  0  0  0  0  0  0
  -27.1860  -27.0810   20.2450 C   0  0  0  0  0  0  0  0  0  0  0  0
  -23.4430  -30.5400   21.6110 C   0  0  0  0  0  3  0  0  0  0  0  0
  -24.8820  -28.9260   20.1940 C   0  0  0  0  0  0  0  0  0  0  0  0
  -26.0050  -30.7540   21.4570 C   0  0  0  0  0  2  0  0  0  0  0  0
  -26.0660  -29.3430   20.8110 C   0  0  0  0  0  0  0  0  0  0  0  0
  -27.2110  -28.4390   20.8140 C   0  0  0  0  0  3  0  0  0  0  0  0
  -25.9740  -26.7970   19.5790 C   0  0  0  0  0  3  0  0  0  0  0  0
  -24.8560  -27.6710   19.5600 C   0  0  0  0  0  3  0  0  0  0  0  0
  -23.6650  -29.8490   20.2360 C   0  0  0  0  0  2  0  0  0  0  0  0
  -24.7200  -31.1030   22.1580 N   0  0  0  0  0  0  0  0  0  0  0  0
  -23.5620  -32.2290   23.7710 O   0  0  0  0  0  0  0  0  0  0  0  0
  -22.7490  -29.5480   22.5790 C   0  0  0  0  0  0  0  0  0  0  0  0
  -21.4210  -29.3830   22.4490 N   0  0  0  0  0  0  0  0  0  0  0  0
  -23.4120  -28.9280   23.4130 O   0  0  0  0  0  0  0  0  0  0  0  0
  -20.9390  -29.9340   21.7520 H   0  0  0  0  0  0  0  0  0  0  0  0
  -18.0340  -28.1870   22.9550 C   0  0  0  0  0  0  0  0  0  0  0  0
  -20.5940  -28.4500   23.2230 C   0  0  0  0  0  3  0  0  0  0  0  0
  -20.6930  -27.0160   22.6530 C   0  0  0  0  0  2  0  0  0  0  0  0
  -19.5930  -26.6920   21.6370 C   0  0  0  0  0  2  0  0  0  0  0  0
  -18.2100  -26.8380   22.2800 C   0  0  0  0  0  2  0  0  0  0  0  0
  -19.1530  -28.9510   23.3840 C   0  0  0  0  0  0  0  0  0  0  0  0
  -18.9330  -30.2120   23.9780 C   0  0  0  0  0  3  0  0  0  0  0  0
  -17.6270  -30.7120   24.1470 C   0  0  0  0  0  3  0  0  0  0  0  0
  -16.5230  -29.9450   23.7330 C   0  0  0  0  0  3  0  0  0  0  0  0
  -16.7280  -28.6860   23.1430 C   0  0  0  0  0  3  0  0  0  0  0  0
  -25.9250  -32.5690   23.8760 C   0  0  0  0  0  3  0  0  0  0  0  0
  -25.6140  -33.9690   24.2140 N   0  0  0  0  0  0  0  0  0  0  0  0
  -25.9200  -35.0280   23.4530 C   0  0  0  0  0  0  0  0  0  0  0  0
  -26.5580  -34.9310   22.4020 O   0  0  0  0  0  0  0  0  0  0  0  0
  -25.0420  -34.1180   25.0330 H   0  0  0  0  0  0  0  0  0  0  0  0
  -24.1680  -36.8170   23.1810 C   0  0  0  0  0  1  0  0  0  0  0  0
  -25.4480  -36.4170   23.9330 C   0  0  0  0  0  3  0  0  0  0  0  0
  -27.6080  -37.3230   24.6690 C   0  0  0  0  0  1  0  0  0  0  0  0
  -26.4680  -37.4760   23.7710 N   0  0  0  0  0  0  0  0  0  0  0  0
  -26.0610  -38.3950   23.9290 H   0  0  0  0  0  0  0  0  0  0  0  0
  -26.4320  -31.8000   25.1590 C   0  0  1  0  0  0  0  0  0  0  0  0
  -25.3320  -31.5690   26.2220 C   0  0  0  0  0  1  0  0  0  0  0  0
  -27.0130  -30.4200   24.7810 C   0  0  0  0  0  1  0  0  0  0  0  0
  -27.5810  -32.5930   25.8250 C   0  0  0  0  0  1  0  0  0  0  0  0
  2  5  1  0
  3  1  1  0
  4  2  2  0
  4  6  1  0
  5  1  2  0
  6 48  1  0
  6  3  2  0
  7  9  1  0
  7  8  1  0
  8  5  1  0
  9 18  1  0
  9  8  1  0
 10 18  1  0
 11 16  1  0
 12 13  1  0
 12 11  1  0
 14 13  1  0
 14 23  1  0
 14 15  1  0
 16 10  1  0
 16 15  1  0
 17 10  2  0
 18 19  1  0
 20 21  2  0
 21 40  1  0
 22 21  1  0
 22 25  1  0
 23 24  1  0
 23 20  1  0
 24 22  2  0
 25 26  1  0
 26 27  2  0
 28 31  1  0
 28 27  1  0
 29 28  2  0
 30 29  1  0
 30 25  2  0
 31 32  1  0
 32 33  1  0
 33 34  2  0
 35 34  1  0
 35 39  1  0
 36 35  2  0
 37 32  2  0
 37 36  1  0
 38 37  1  0
 40 41  1  0
 41 44  1  0
 41 43  1  0
 42 40  2  0
 45 46  1  0
 45 20  1  0
 47 45  1  0
 49 60  2  0
 50 48  1  0
 50 55  1  0
 51 59  1  0
 51 61  1  0
 52 58  1  0
 52 54  1  0
 53 59  1  0
 54 55  2  0
 54 53  1  0
 56 50  2  0
 57 56  1  0
 57 52  2  0
 58 51  1  0
 59 49  1  0
 61 63  2  0
 62 61  1  0
 64 62  1  0
 65 74  2  0
 65 70  1  0
 66 62  1  0
 66 70  1  0
 67 66  1  0
 68 69  1  0
 68 67  1  0
 69 65  1  0
 70 71  2  0
 71 72  1  0
 73 72  2  0
 74 73  1  0
 75 49  1  0
 75 76  1  0
 75 85  1  0
 76 79  1  0
 77 81  1  0
 77 76  1  0
 78 77  2  0
 81 80  1  0
 83 84  1  0
 83 81  1  0
 83 82  1  0
 85 88  1  1
 85 86  1  0
 87 85  1  0
M  ISO  4   6 101  10 100  18 100  48 101
M  END
>  <TORSDO>  (1) 
F 17

>  <SCORE>  (1) 
-15.389

>  <name>  (1) 
0

>  <ligand_id>  (1) 
0

>  <original_smiles>  (1) 
[H]c1c([H])c([H])c2c(c1[H])C([H])([H])C([H])([H])C([H])([H])C2([H])N([H])C(=O)C1([H])N(C(=O)C([H])(N([H])C(=O)C([H])(N([H])C([H])([H])[H])C([H])([H])[H])C(C([H])([H])[H])(C([H])([H])[H])C([H])([H])[H])C([H])([H])c2c([H])c(Oc3c([H])c([H])c(C4([H])C([H])([H])C4([H])N([H])C(=O)N4C([H])([H])C([H])([H])C([H])([H])C([H])(n5nc(-c6c([H])c([H])c(Oc7c([H])c([H])c(F)c([H])c7F)c([H])c6[H])c(C(=O)N([H])[H])c5N([H])[H])C4([H])[H])c([H])c3[H])c([H])c([H])c2C1([H])[H]

>  <smiles>  (1) 
[H]c1c([H])c([H])c2c(c1[H])C([H])([H])C([H])([H])C([H])([H])C2([H])N([H])C(=O)C1([H])N(C(=O)C([H])(N([H])C(=O)C([H])(N([H])C([H])([H])[H])C([H])([H])[H])C(C([H])([H])[H])(C([H])([H])[H])C([H])([H])[H])C([H])([H])c2c([H])c(Oc3c([H])c([H])c(C4([H])C([H])([H])C4([H])N([H])C(=O)N4C([H])([H])C([H])([H])C([H])([H])C([H])(n5nc(-c6c([H])c([H])c(Oc7c([H])c([H])c(F)c([H])c7F)c([H])c6[H])c(C(=O)N([H])[H])c5N([H])[H])C4([H])[H])c([H])c3[H])c([H])c([H])c2C1([H])[H]

$$$$
1:0:0
     RDKit          3D

 92101  0  0  1  0  0  0  0  0999 V2000
  -29.9410  -20.6050   19.5760 C   0  0  0  0  0  3  0  0  0  0  0  0
  -29.5400  -19.3500   20.0380 C   0  0  0  0  0  0  0  0  0  0  0  0
  -28.0760  -19.5320   20.3920 C   0  0  0  0  0  2  0  0  0  0  0  0
  -26.7350  -21.5540   18.1410 C   0  0  0  0  0  2  0  0  0  0  0  0
  -26.4360  -21.4330   19.6370 C   0  0  0  0  0  2  0  0  0  0  0  0
  -28.2580  -21.6980   18.0000 C   0  0  0  0  0  2  0  0  0  0  0  0
  -27.7720  -21.0950   20.2990 C   0  0  0  0  0  3  0  0  0  0  0  0
  -28.8560  -21.7900   19.4220 C   0  0  1  0  0  0  0  0  0  0  0  0
  -29.1610  -23.4470   19.7390 C   0  0  0  0  0  3  0  0  0  0  0  0
  -28.1240  -24.7740   19.4710 C   0  0  0  0  0  3  0  0  0  0  0  0
  -28.3500  -26.3110   19.7130 O   0  0  0  0  0  0  0  0  0  0  0  0
  -24.5270  -31.7050   23.0330 C   0  0  0  0  0  0  0  0  0  0  0  0
  -27.2590  -27.2670   19.7130 C   0  0  0  0  0  0  0  0  0  0  0  0
  -23.3690  -30.3560   21.3290 C   0  0  0  0  0  3  0  0  0  0  0  0
  -24.8640  -28.9280   19.8020 C   0  0  0  0  0  0  0  0  0  0  0  0
  -25.9090  -30.7350   21.1540 C   0  0  0  0  0  2  0  0  0  0  0  0
  -26.0340  -29.3850   20.4220 C   0  0  0  0  0  0  0  0  0  0  0  0
  -27.2310  -28.5730   20.3580 C   0  0  0  0  0  3  0  0  0  0  0  0
  -26.0560  -26.9180   19.0630 C   0  0  0  0  0  3  0  0  0  0  0  0
  -24.8880  -27.7100   19.1080 C   0  0  0  0  0  3  0  0  0  0  0  0
  -23.6020  -29.7690   19.9120 C   0  0  0  0  0  2  0  0  0  0  0  0
  -24.6220  -30.9520   21.8940 N   0  0  0  0  0  0  0  0  0  0  0  0
  -23.4350  -31.9120   23.5850 O   0  0  0  0  0  0  0  0  0  0  0  0
  -22.7440  -29.2680   22.2370 C   0  0  0  0  0  0  0  0  0  0  0  0
  -21.4190  -29.0600   22.1250 N   0  0  0  0  0  0  0  0  0  0  0  0
  -23.4520  -28.6140   23.0070 O   0  0  0  0  0  0  0  0  0  0  0  0
  -20.9010  -29.6410   21.4800 H   0  0  0  0  0  0  0  0  0  0  0  0
  -18.0850  -27.7350   22.6380 C   0  0  0  0  0  0  0  0  0  0  0  0
  -20.6440  -28.0480   22.8510 C   0  0  0  0  0  3  0  0  0  0  0  0
  -20.7650  -26.6630   22.1750 C   0  0  0  0  0  2  0  0  0  0  0  0
  -19.6420  -26.3800   21.1730 C   0  0  0  0  0  2  0  0  0  0  0  0
  -18.2760  -26.4420   21.8640 C   0  0  0  0  0  2  0  0  0  0  0  0
  -19.1970  -28.4970   23.0890 C   0  0  0  0  0  0  0  0  0  0  0  0
  -18.9610  -29.7070   23.7760 C   0  0  0  0  0  3  0  0  0  0  0  0
  -17.6490  -30.1570   24.0170 C   0  0  0  0  0  3  0  0  0  0  0  0
  -16.5530  -29.3910   23.5810 C   0  0  0  0  0  3  0  0  0  0  0  0
  -16.7720  -28.1820   22.8980 C   0  0  0  0  0  3  0  0  0  0  0  0
  -25.7820  -32.3600   23.6830 C   0  0  0  0  0  3  0  0  0  0  0  0
  -26.3190  -31.5610   24.9340 C   0  0  1  0  0  0  0  0  0  0  0  0
  -25.2310  -31.2540   25.9900 C   0  0  0  0  0  1  0  0  0  0  0  0
  -26.9450  -30.2150   24.5000 C   0  0  0  0  0  1  0  0  0  0  0  0
  -27.4440  -32.3660   25.6260 C   0  0  0  0  0  1  0  0  0  0  0  0
  -25.4220  -33.7340   24.0720 N   0  0  0  0  0  0  0  0  0  0  0  0
  -25.7020  -34.8300   23.3560 C   0  0  0  0  0  0  0  0  0  0  0  0
  -26.3590  -34.7950   22.3110 O   0  0  0  0  0  0  0  0  0  0  0  0
  -24.8350  -33.8310   24.8880 H   0  0  0  0  0  0  0  0  0  0  0  0
  -23.8910  -36.5620   23.1220 C   0  0  0  0  0  1  0  0  0  0  0  0
  -25.1740  -36.1800   23.8800 C   0  0  0  0  0  3  0  0  0  0  0  0
  -27.2930  -37.1290   24.6790 C   0  0  0  0  0  1  0  0  0  0  0  0
  -26.1570  -37.2800   23.7740 N   0  0  0  0  0  0  0  0  0  0  0  0
  -25.7170  -38.1760   23.9670 H   0  0  0  0  0  0  0  0  0  0  0  0
  -30.4020  -17.9540   20.3490 C   0  0  0  0  0  3  0  0  0  0  0  0
  -30.6020  -15.2070   20.2350 C   0  0  0  0  0  0  0  0  0  0  0  0
  -30.4470  -12.8320   19.3460 C   0  0  0  0  0  2  0  0  0  0  0  0
  -29.5310  -12.7580   18.1040 C   0  0  0  0  0  2  0  0  0  0  0  0
  -28.0630  -12.5640   18.5280 C   0  0  0  0  0  2  0  0  0  0  0  0
  -27.6500  -13.5200   19.6770 C   0  0  0  0  0  3  0  0  0  0  0  0
  -28.6950  -13.5720   20.8120 C   0  0  0  0  0  2  0  0  0  0  0  0
  -29.9690  -13.9620   20.1990 N   0  0  0  0  0  0  0  0  0  0  0  0
  -31.8080  -15.2110   19.9680 O   0  0  0  0  0  0  0  0  0  0  0  0
  -29.8900  -16.4450   20.3680 N   0  0  0  0  0  0  0  0  0  0  0  0
  -28.8960  -16.3370   20.5100 H   0  0  0  0  0  0  0  0  0  0  0  0
  -25.2800  -14.1270   20.4190 C   0  0  0  0  0  0  0  0  0  0  0  0
  -24.2030  -13.3660   20.7760 C   0  0  0  0  0  0  0  0  0  0  0  0
  -24.6440  -12.0080   20.7320 C   0  0  0  0  0  0  0  0  0  0  0  0
  -26.3080  -13.2350   20.1720 N   0  0  0  0  0  0  0  0  0  0  0  0
  -25.9370  -11.9530   20.4280 N   0  0  0  0  0  0  0  0  0  0  0  0
  -23.8950  -10.7570   20.9040 C   0  0  0  0  0  0  0  0  0  0  0  0
  -24.3080   -9.7670   21.8240 C   0  0  0  0  0  3  0  0  0  0  0  0
  -23.5580   -8.5820   21.9850 C   0  0  0  0  0  3  0  0  0  0  0  0
  -22.3800   -8.3780   21.2280 C   0  0  0  0  0  0  0  0  0  0  0  0
  -21.9850   -9.3560   20.2980 C   0  0  0  0  0  3  0  0  0  0  0  0
  -22.7360  -10.5320   20.1340 C   0  0  0  0  0  3  0  0  0  0  0  0
  -21.6020   -7.2480   21.3010 O   0  0  0  0  0  0  0  0  0  0  0  0
  -21.5550   -6.4790   22.4360 C   0  0  0  0  0  0  0  0  0  0  0  0
  -21.1590   -7.0120   23.6820 C   0  0  0  0  0  3  0  0  0  0  0  0
  -21.0580   -6.1700   24.8070 C   0  0  0  0  0  3  0  0  0  0  0  0
  -21.3400   -4.7970   24.6890 C   0  0  0  0  0  0  0  0  0  0  0  0
  -21.7280   -4.2630   23.4470 C   0  0  0  0  0  3  0  0  0  0  0  0
  -21.8320   -5.1010   22.3230 C   0  0  0  0  0  0  0  0  0  0  0  0
  -22.1850   -4.5770   21.1250 F   0  0  0  0  0  0  0  0  0  0  0  0
  -21.2350   -3.9860   25.7680 F   0  0  0  0  0  0  0  0  0  0  0  0
  -22.8120  -13.8640   21.0410 C   0  0  0  0  0  0  0  0  0  0  0  0
  -22.0670  -13.1740   21.8980 N   0  0  0  0  0  0  0  0  0  0  0  0
  -22.3960  -14.9020   20.5270 O   0  0  0  0  0  0  0  0  0  0  0  0
  -22.4180  -12.3340   22.3360 H   0  0  0  0  0  0  0  0  0  0  0  0
  -21.1350  -13.4900   22.1200 H   0  0  0  0  0  0  0  0  0  0  0  0
  -25.4660  -15.4970   20.2540 N   0  0  0  0  0  0  0  0  0  0  0  0
  -24.7040  -16.1580   20.3630 H   0  0  0  0  0  0  0  0  0  0  0  0
  -26.3130  -15.9260   19.9050 H   0  0  0  0  0  0  0  0  0  0  0  0
  -32.0370  -19.4090   21.7680 C   0  0  0  0  0  1  0  0  0  0  0  0
  -31.1340  -18.1680   21.6990 C   0  0  0  0  0  2  0  0  0  0  0  0
  1  2  2  0
  2 52  1  0
  2  3  1  0
  4  5  1  0
  6  4  1  0
  6  8  1  0
  7  5  1  0
  7  3  1  0
  8  1  1  0
  8  9  1  1
  8  7  1  0
 10 11  1  0
 10  9  2  0
 11 13  1  0
 12 23  2  0
 13 18  1  0
 14 22  1  0
 14 24  1  0
 15 21  1  0
 15 17  1  0
 16 22  1  0
 17 16  1  0
 18 17  2  0
 19 20  1  0
 19 13  2  0
 20 15  2  0
 21 14  1  0
 22 12  1  0
 24 26  2  0
 25 24  1  0
 27 25  1  0
 28 37  2  0
 28 33  1  0
 29 25  1  0
 29 33  1  0
 30 29  1  0
 31 32  1  0
 31 30  1  0
 32 28  1  0
 33 34  2  0
 34 35  1  0
 36 35  2  0
 37 36  1  0
 38 12  1  0
 38 43  1  0
 38 39  1  0
 39 42  1  1
 39 40  1  0
 41 39  1  0
 43 46  1  0
 44 48  1  0
 44 43  1  0
 45 44  2  0
 48 47  1  0
 50 48  1  0
 50 51  1  0
 50 49  1  0
 52 61  1  0
 52 92  1  0
 53 61  1  0
 54 59  1  0
 55 56  1  0
 55 54  1  0
 57 56  1  0
 57 66  1  0
 57 58  1  0
 59 53  1  0
 59 58  1  0
 60 53  2  0
 61 62  1  0
 63 64  2  0
 64 83  1  0
 65 64  1  0
 65 68  1  0
 66 63  1  0
 66 67  1  0
 67 65  2  0
 68 69  1  0
 69 70  2  0
 71 74  1  0
 71 70  1  0
 72 71  2  0
 73 72  1  0
 73 68  2  0
 74 75  1  0
 75 76  1  0
 76 77  2  0
 78 77  1  0
 78 82  1  0
 79 78  2  0
 80 75  2  0
 80 79  1  0
 81 80  1  0
 83 84  1  0
 84 87  1  0
 84 86  1  0
 85 83  2  0
 88 89  1  0
 88 63  1  0
 90 88  1  0
 92 91  1  0
M  ISO  4  10 101  11 101  53 100  61 100
M  END
>  <TORSDO>  (2) 
F 20

>  <SCORE>  (2) 
-14.042

>  <name>  (2) 
1

>  <ligand_id>  (2) 
1

>  <original_smiles>  (2) 
[H]C1=C(C([H])(N([H])C(=O)N2C([H])([H])C([H])([H])C([H])([H])C([H])(n3nc(-c4c([H])c([H])c(Oc5c([H])c([H])c(F)c([H])c5F)c([H])c4[H])c(C(=O)N([H])[H])c3N([H])[H])C2([H])[H])C([H])([H])C([H])([H])[H])C([H])([H])C2([H])C([H])([H])C([H])([H])C([H])([H])C12C([H])([H])C([H])([H])Oc1c([H])c([H])c2c(c1[H])C([H])([H])N(C(=O)C([H])(N([H])C(=O)C([H])(N([H])C([H])([H])[H])C([H])([H])[H])C(C([H])([H])[H])(C([H])([H])[H])C([H])([H])[H])C([H])(C(=O)N([H])C1([H])c3c([H])c([H])c([H])c([H])c3C([H])([H])C([H])([H])C1([H])[H])C2([H])[H]

>  <smiles>  (2) 
[H]C1=C(C([H])(N([H])C(=O)N2C([H])([H])C([H])([H])C([H])([H])C([H])(n3nc(-c4c([H])c([H])c(Oc5c([H])c([H])c(F)c([H])c5F)c([H])c4[H])c(C(=O)N([H])[H])c3N([H])[H])C2([H])[H])C([H])([H])C([H])([H])[H])C([H])([H])C2([H])C([H])([H])C([H])([H])C([H])([H])C12C([H])([H])C([H])([H])Oc1c([H])c([H])c2c(c1[H])C([H])([H])N(C(=O)C([H])(N([H])C(=O)C([H])(N([H])C([H])([H])[H])C([H])([H])[H])C(C([H])([H])[H])(C([H])([H])[H])C([H])([H])[H])C([H])(C(=O)N([H])C1([H])c3c([H])c([H])c([H])c([H])c3C([H])([H])C([H])([H])C1([H])[H])C2([H])[H]

$$$$
2:0:0
     RDKit          3D

 92101  0  0  1  0  0  0  0  0999 V2000
  -28.4660  -21.7290   21.0650 C   0  0  0  0  0  3  0  0  0  0  0  0
  -30.3070  -22.1890   19.5810 C   0  0  0  0  0  3  0  0  0  0  0  0
  -28.1210  -23.1070   21.0570 C   0  0  0  0  0  3  0  0  0  0  0  0
  -29.9560  -23.5690   19.5630 C   0  0  0  0  0  3  0  0  0  0  0  0
  -29.6020  -21.2430   20.3670 C   0  0  0  0  0  0  0  0  0  0  0  0
  -28.8800  -24.0640   20.3400 C   0  0  0  0  0  0  0  0  0  0  0  0
  -30.7890  -16.7770   20.8220 C   0  0  0  0  0  0  0  0  0  0  0  0
  -30.1970  -17.6110   21.9740 C   0  0  0  0  0  0  0  0  0  0  0  0
  -31.0450  -17.5840   19.5200 C   0  0  0  0  0  2  0  0  0  0  0  0
  -29.5490  -18.9890   21.7190 C   0  0  0  0  0  2  0  0  0  0  0  0
  -30.1740  -18.8710   19.3140 C   0  0  0  0  0  2  0  0  0  0  0  0
  -30.1710  -19.7970   20.5580 C   0  0  0  0  0  3  0  0  0  0  0  0
  -31.0640  -15.5220   21.0350 N   0  0  0  0  0  0  0  0  0  0  0  0
  -30.1830  -17.1770   23.1330 O   0  0  0  0  0  0  0  0  0  0  0  0
  -31.6650  -14.6360   20.1290 C   0  0  0  0  0  0  0  0  0  0  0  0
  -31.1990  -12.5840   18.7810 C   0  0  0  0  0  2  0  0  0  0  0  0
  -30.1950  -12.9210   17.6570 C   0  0  0  0  0  2  0  0  0  0  0  0
  -28.7410  -12.8260   18.1610 C   0  0  0  0  0  2  0  0  0  0  0  0
  -28.5330  -13.5710   19.5050 C   0  0  0  0  0  3  0  0  0  0  0  0
  -29.6310  -13.1820   20.5200 C   0  0  0  0  0  2  0  0  0  0  0  0
  -30.9360  -13.4970   19.9080 N   0  0  0  0  0  0  0  0  0  0  0  0
  -32.7180  -14.8400   19.5200 O   0  0  0  0  0  0  0  0  0  0  0  0
  -26.2270  -14.2880   20.3890 C   0  0  0  0  0  0  0  0  0  0  0  0
  -25.1320  -13.5650   20.7840 C   0  0  0  0  0  0  0  0  0  0  0  0
  -25.4970  -12.1900   20.6420 C   0  0  0  0  0  0  0  0  0  0  0  0
  -27.1950  -13.3560   20.0470 N   0  0  0  0  0  0  0  0  0  0  0  0
  -26.7600  -12.0870   20.2540 N   0  0  0  0  0  0  0  0  0  0  0  0
  -24.6950  -10.9720   20.7980 C   0  0  0  0  0  0  0  0  0  0  0  0
  -25.0320   -9.9870   21.7540 C   0  0  0  0  0  3  0  0  0  0  0  0
  -24.2380   -8.8310   21.9020 C   0  0  0  0  0  3  0  0  0  0  0  0
  -23.0910   -8.6500   21.0930 C   0  0  0  0  0  0  0  0  0  0  0  0
  -22.7750   -9.6200   20.1240 C   0  0  0  0  0  3  0  0  0  0  0  0
  -23.5710  -10.7690   19.9740 C   0  0  0  0  0  3  0  0  0  0  0  0
  -22.2760   -7.5450   21.1460 O   0  0  0  0  0  0  0  0  0  0  0  0
  -22.0130   -6.8970   22.3260 C   0  0  0  0  0  0  0  0  0  0  0  0
  -21.4630   -7.5740   23.4380 C   0  0  0  0  0  3  0  0  0  0  0  0
  -21.1450   -6.8570   24.6100 C   0  0  0  0  0  3  0  0  0  0  0  0
  -21.3660   -5.4670   24.6680 C   0  0  0  0  0  0  0  0  0  0  0  0
  -21.9080   -4.7920   23.5600 C   0  0  0  0  0  3  0  0  0  0  0  0
  -22.2270   -5.5050   22.3910 C   0  0  0  0  0  0  0  0  0  0  0  0
  -22.7310   -4.8480   21.3180 F   0  0  0  0  0  0  0  0  0  0  0  0
  -21.0500   -4.7770   25.7890 F   0  0  0  0  0  0  0  0  0  0  0  0
  -23.7890  -14.1130   21.1670 C   0  0  0  0  0  0  0  0  0  0  0  0
  -23.0990  -13.4530   22.0920 N   0  0  0  0  0  0  0  0  0  0  0  0
  -23.3600  -15.1580   20.6750 O   0  0  0  0  0  0  0  0  0  0  0  0
  -23.4730  -12.6180   22.5180 H   0  0  0  0  0  0  0  0  0  0  0  0
  -22.1960  -13.7950   22.3880 H   0  0  0  0  0  0  0  0  0  0  0  0
  -26.4630  -15.6540   20.2620 N   0  0  0  0  0  0  0  0  0  0  0  0
  -25.7190  -16.3310   20.3890 H   0  0  0  0  0  0  0  0  0  0  0  0
  -27.2570  -16.0320   19.7570 H   0  0  0  0  0  0  0  0  0  0  0  0
  -28.6460  -25.5870   20.5750 C   0  0  0  0  0  2  0  0  0  0  0  0
  -28.2160  -26.4080   19.4660 O   0  0  0  0  0  0  0  0  0  0  0  0
  -24.4870  -31.5270   22.9490 C   0  0  0  0  0  0  0  0  0  0  0  0
  -27.0660  -27.1670   19.6360 C   0  0  0  0  0  0  0  0  0  0  0  0
  -23.2410  -30.1670   21.3050 C   0  0  0  0  0  3  0  0  0  0  0  0
  -24.6630  -28.6710   19.7960 C   0  0  0  0  0  0  0  0  0  0  0  0
  -25.7610  -30.5380   21.0350 C   0  0  0  0  0  2  0  0  0  0  0  0
  -25.8400  -29.1790   20.3600 C   0  0  0  0  0  0  0  0  0  0  0  0
  -27.0470  -28.4340   20.2830 C   0  0  0  0  0  3  0  0  0  0  0  0
  -25.8670  -26.6810   19.0740 C   0  0  0  0  0  3  0  0  0  0  0  0
  -24.6710  -27.4180   19.1580 C   0  0  0  0  0  3  0  0  0  0  0  0
  -23.4140  -29.5240   19.9030 C   0  0  0  0  0  2  0  0  0  0  0  0
  -24.5180  -30.7590   21.8220 N   0  0  0  0  0  0  0  0  0  0  0  0
  -23.4200  -31.7730   23.5310 O   0  0  0  0  0  0  0  0  0  0  0  0
  -22.6230  -29.1120   22.2530 C   0  0  0  0  0  0  0  0  0  0  0  0
  -21.2980  -28.9150   22.1530 N   0  0  0  0  0  0  0  0  0  0  0  0
  -23.3340  -28.4770   23.0370 O   0  0  0  0  0  0  0  0  0  0  0  0
  -20.7840  -29.4790   21.4890 H   0  0  0  0  0  0  0  0  0  0  0  0
  -17.9570  -27.6440   22.6880 C   0  0  0  0  0  0  0  0  0  0  0  0
  -20.5150  -27.9440   22.9170 C   0  0  0  0  0  3  0  0  0  0  0  0
  -20.6310  -26.5290   22.3050 C   0  0  0  0  0  2  0  0  0  0  0  0
  -19.5150  -26.2110   21.3030 C   0  0  0  0  0  2  0  0  0  0  0  0
  -18.1430  -26.3160   21.9740 C   0  0  0  0  0  2  0  0  0  0  0  0
  -19.0700  -28.4160   23.1160 C   0  0  0  0  0  0  0  0  0  0  0  0
  -18.8400  -29.6600   23.7440 C   0  0  0  0  0  3  0  0  0  0  0  0
  -17.5300  -30.1330   23.9490 C   0  0  0  0  0  3  0  0  0  0  0  0
  -16.4330  -29.3570   23.5360 C   0  0  0  0  0  3  0  0  0  0  0  0
  -16.6470  -28.1130   22.9150 C   0  0  0  0  0  3  0  0  0  0  0  0
  -25.7860  -32.1510   23.5470 C   0  0  0  0  0  3  0  0  0  0  0  0
  -25.4550  -33.5030   24.0140 N   0  0  0  0  0  0  0  0  0  0  0  0
  -25.7230  -34.6290   23.3390 C   0  0  0  0  0  0  0  0  0  0  0  0
  -26.3470  -34.6360   22.2740 O   0  0  0  0  0  0  0  0  0  0  0  0
  -24.8920  -33.5660   24.8490 H   0  0  0  0  0  0  0  0  0  0  0  0
  -23.9350  -36.3950   23.2140 C   0  0  0  0  0  1  0  0  0  0  0  0
  -25.2170  -35.9540   23.9380 C   0  0  0  0  0  3  0  0  0  0  0  0
  -27.3550  -36.8270   24.7720 C   0  0  0  0  0  1  0  0  0  0  0  0
  -26.2150  -37.0450   23.8850 N   0  0  0  0  0  0  0  0  0  0  0  0
  -25.7890  -37.9350   24.1280 H   0  0  0  0  0  0  0  0  0  0  0  0
  -26.4040  -31.2920   24.7180 C   0  0  1  0  0  0  0  0  0  0  0  0
  -25.3800  -30.9020   25.8080 C   0  0  0  0  0  1  0  0  0  0  0  0
  -27.0300  -29.9880   24.1730 C   0  0  0  0  0  1  0  0  0  0  0  0
  -27.5530  -32.0790   25.3940 C   0  0  0  0  0  1  0  0  0  0  0  0
  2  5  1  0
  3  1  1  0
  4  2  2  0
  4  6  1  0
  5  1  2  0
  6 51  1  0
  6  3  2  0
  7 13  2  0
  7  8  1  0
  8 14  2  0
  9  7  1  0
 10  8  1  0
 11  9  1  0
 11 12  1  0
 12  5  1  0
 12 10  1  0
 15 13  1  0
 16 21  1  0
 17 18  1  0
 17 16  1  0
 19 18  1  0
 19 26  1  0
 19 20  1  0
 21 15  1  0
 21 20  1  0
 22 15  2  0
 23 24  2  0
 24 43  1  0
 25 24  1  0
 25 28  1  0
 26 27  1  0
 26 23  1  0
 27 25  2  0
 28 29  1  0
 29 30  2  0
 31 34  1  0
 31 30  1  0
 32 31  2  0
 33 32  1  0
 33 28  2  0
 34 35  1  0
 35 40  2  0
 35 36  1  0
 36 37  2  0
 37 38  1  0
 38 42  1  0
 39 38  2  0
 40 39  1  0
 41 40  1  0
 43 44  1  0
 44 47  1  0
 44 46  1  0
 45 43  2  0
 48 23  1  0
 48 49  1  0
 50 48  1  0
 52 54  1  0
 52 51  1  0
 53 64  2  0
 54 59  1  0
 55 63  1  0
 55 65  1  0
 56 62  1  0
 56 58  1  0
 57 63  1  0
 58 57  1  0
 59 58  2  0
 60 61  1  0
 60 54  2  0
 61 56  2  0
 62 55  1  0
 63 53  1  0
 65 67  2  0
 66 65  1  0
 68 66  1  0
 69 78  2  0
 69 74  1  0
 70 66  1  0
 70 74  1  0
 71 70  1  0
 72 73  1  0
 72 71  1  0
 73 69  1  0
 74 75  2  0
 75 76  1  0
 77 76  2  0
 78 77  1  0
 79 53  1  0
 79 80  1  0
 79 89  1  0
 80 83  1  0
 81 85  1  0
 81 80  1  0
 82 81  2  0
 85 84  1  0
 87 85  1  0
 87 88  1  0
 87 86  1  0
 89 92  1  1
 89 90  1  0
 91 89  1  0
M  ISO  4  13 100  15 100  51 101  52 101
M  END
>  <TORSDO>  (3) 
F 18

>  <SCORE>  (3) 
-12.062

>  <name>  (3) 
2

>  <ligand_id>  (3) 
2

>  <original_smiles>  (3) 
[H]c1c([H])c([H])c2c(c1[H])C([H])([H])C([H])([H])C([H])([H])C2([H])N([H])C(=O)C1([H])N(C(=O)C([H])(N([H])C(=O)C([H])(N([H])C([H])([H])[H])C([H])([H])[H])C(C([H])([H])[H])(C([H])([H])[H])C([H])([H])[H])C([H])([H])c2c([H])c(OC([H])([H])c3c([H])c([H])c(C4([H])C([H])([H])C(=O)C(=NC(=O)N5C([H])([H])C([H])([H])C([H])([H])C([H])(n6nc(-c7c([H])c([H])c(Oc8c([H])c([H])c(F)c([H])c8F)c([H])c7[H])c(C(=O)N([H])[H])c6N([H])[H])C5([H])[H])C([H])([H])C4([H])[H])c([H])c3[H])c([H])c([H])c2C1([H])[H]

>  <smiles>  (3) 
[H]c1c([H])c([H])c2c(c1[H])C([H])([H])C([H])([H])C([H])([H])C2([H])N([H])C(=O)C1([H])N(C(=O)C([H])(N([H])C(=O)C([H])(N([H])C([H])([H])[H])C([H])([H])[H])C(C([H])([H])[H])(C([H])([H])[H])C([H])([H])[H])C([H])([H])c2c([H])c(OC([H])([H])c3c([H])c([H])c(C4([H])C([H])([H])C(=O)C(=NC(=O)N5C([H])([H])C([H])([H])C([H])([H])C([H])(n6nc(-c7c([H])c([H])c(Oc8c([H])c([H])c(F)c([H])c8F)c([H])c7[H])c(C(=O)N([H])[H])c6N([H])[H])C5([H])[H])C([H])([H])C4([H])[H])c([H])c3[H])c([H])c([H])c2C1([H])[H]

$$$$
3:0:0
     RDKit          3D

 94103  0  0  1  0  0  0  0  0999 V2000
  -31.7870  -18.6430   21.6840 C   0  0  0  0  0  3  0  0  0  0  0  0
  -31.4860  -17.4050   22.0750 C   0  0  0  0  0  0  0  0  0  0  0  0
  -30.3130  -17.3790   23.0140 C   0  0  0  0  0  3  0  0  0  0  0  0
  -30.0060  -18.8720   23.2590 C   0  0  0  0  0  3  0  0  0  0  0  0
  -30.0450  -20.3810   21.1500 C   0  0  0  0  0  2  0  0  0  0  0  0
  -31.7150  -20.7690   23.0330 C   0  0  0  0  0  2  0  0  0  0  0  0
  -30.2690  -21.9030   21.0310 C   0  0  0  0  0  2  0  0  0  0  0  0
  -30.8680  -21.9910   23.4540 C   0  0  0  0  0  2  0  0  0  0  0  0
  -30.8840  -19.7070   22.2760 C   0  0  2  0  0  0  0  0  0  0  0  0
  -30.0630  -22.5840   22.3410 N   0  0  1  0  0  4  0  0  0  0  0  0
  -29.1050  -22.3960   22.6000 H   0  0  0  0  0  0  0  0  0  0  0  0
  -32.2200  -16.1310   21.6920 C   0  0  0  0  0  2  0  0  0  0  0  0
  -31.4890  -14.3630   20.0950 C   0  0  0  0  0  0  0  0  0  0  0  0
  -30.9570  -12.2640   18.9210 C   0  0  0  0  0  2  0  0  0  0  0  0
  -29.9510  -12.4590   17.7760 C   0  0  0  0  0  2  0  0  0  0  0  0
  -28.5110  -12.3490   18.3040 C   0  0  0  0  0  2  0  0  0  0  0  0
  -28.2680  -13.2520   19.5400 C   0  0  0  0  0  3  0  0  0  0  0  0
  -29.3780  -13.0700   20.6010 C   0  0  0  0  0  2  0  0  0  0  0  0
  -30.6940  -13.2690   19.9610 N   0  0  0  0  0  0  0  0  0  0  0  0
  -32.4020  -14.6310   19.3090 O   0  0  0  0  0  0  0  0  0  0  0  0
  -31.3220  -15.0720   21.2190 N   0  0  0  0  0  0  0  0  0  0  0  0
  -30.5940  -14.7630   21.8460 H   0  0  0  0  0  0  0  0  0  0  0  0
  -25.9570  -13.9490   20.4440 C   0  0  0  0  0  0  0  0  0  0  0  0
  -24.8770  -13.2170   20.8570 C   0  0  0  0  0  0  0  0  0  0  0  0
  -25.2600  -11.8450   20.7370 C   0  0  0  0  0  0  0  0  0  0  0  0
  -26.9360  -13.0280   20.1030 N   0  0  0  0  0  0  0  0  0  0  0  0
  -26.5220  -11.7550   20.3330 N   0  0  0  0  0  0  0  0  0  0  0  0
  -24.4820  -10.6150   20.9280 C   0  0  0  0  0  0  0  0  0  0  0  0
  -24.8380   -9.6590   21.9050 C   0  0  0  0  0  3  0  0  0  0  0  0
  -24.0620   -8.4930   22.0820 C   0  0  0  0  0  3  0  0  0  0  0  0
  -22.9170   -8.2740   21.2800 C   0  0  0  0  0  0  0  0  0  0  0  0
  -22.5790   -9.2180   20.2940 C   0  0  0  0  0  3  0  0  0  0  0  0
  -23.3560  -10.3750   20.1160 C   0  0  0  0  0  3  0  0  0  0  0  0
  -22.1190   -7.1590   21.3640 O   0  0  0  0  0  0  0  0  0  0  0  0
  -21.8570   -6.5490   22.5650 C   0  0  0  0  0  0  0  0  0  0  0  0
  -21.2160   -7.2310   23.6230 C   0  0  0  0  0  3  0  0  0  0  0  0
  -20.9040   -6.5470   24.8140 C   0  0  0  0  0  3  0  0  0  0  0  0
  -21.2220   -5.1820   24.9480 C   0  0  0  0  0  0  0  0  0  0  0  0
  -21.8540   -4.4990   23.8930 C   0  0  0  0  0  3  0  0  0  0  0  0
  -22.1680   -5.1820   22.7040 C   0  0  0  0  0  0  0  0  0  0  0  0
  -22.7580   -4.5140   21.6840 F   0  0  0  0  0  0  0  0  0  0  0  0
  -20.9150   -4.5230   26.0890 F   0  0  0  0  0  0  0  0  0  0  0  0
  -23.5310  -13.7520   21.2540 C   0  0  0  0  0  0  0  0  0  0  0  0
  -22.8320  -13.0570   22.1430 N   0  0  0  0  0  0  0  0  0  0  0  0
  -23.1130  -14.8220   20.8120 O   0  0  0  0  0  0  0  0  0  0  0  0
  -23.1850  -12.1900   22.5210 H   0  0  0  0  0  0  0  0  0  0  0  0
  -21.9320  -13.3940   22.4510 H   0  0  0  0  0  0  0  0  0  0  0  0
  -26.1840  -15.3150   20.3110 N   0  0  0  0  0  0  0  0  0  0  0  0
  -25.4680  -16.0060   20.5090 H   0  0  0  0  0  0  0  0  0  0  0  0
  -27.0400  -15.7230   19.9550 H   0  0  0  0  0  0  0  0  0  0  0  0
  -30.1750  -24.0690   22.2820 C   0  0  0  0  0  2  0  0  0  0  0  0
  -29.1360  -24.7300   21.3510 C   0  0  0  0  0  2  0  0  0  0  0  0
  -29.2340  -26.2630   21.3280 C   0  0  0  0  0  2  0  0  0  0  0  0
  -28.6860  -26.7050   20.0910 O   0  0  0  0  0  0  0  0  0  0  0  0
  -24.7240  -31.6990   23.2970 C   0  0  0  0  0  0  0  0  0  0  0  0
  -27.5120  -27.4090   20.1650 C   0  0  0  0  0  0  0  0  0  0  0  0
  -23.5830  -30.3420   21.5700 C   0  0  0  0  0  3  0  0  0  0  0  0
  -25.0990  -28.8600   20.1510 C   0  0  0  0  0  0  0  0  0  0  0  0
  -26.1050  -30.7360   21.4630 C   0  0  0  0  0  2  0  0  0  0  0  0
  -26.2260  -29.3830   20.7980 C   0  0  0  0  0  0  0  0  0  0  0  0
  -27.4350  -28.6570   20.8160 C   0  0  0  0  0  3  0  0  0  0  0  0
  -26.3770  -26.8930   19.5100 C   0  0  0  0  0  3  0  0  0  0  0  0
  -25.1640  -27.6100   19.5130 C   0  0  0  0  0  3  0  0  0  0  0  0
  -23.8460  -29.7080   20.1780 C   0  0  0  0  0  2  0  0  0  0  0  0
  -24.8210  -30.9360   22.1720 N   0  0  0  0  0  0  0  0  0  0  0  0
  -23.6230  -31.9410   23.8110 O   0  0  0  0  0  0  0  0  0  0  0  0
  -22.9130  -29.2840   22.4740 C   0  0  0  0  0  0  0  0  0  0  0  0
  -21.5950  -29.0990   22.2990 N   0  0  0  0  0  0  0  0  0  0  0  0
  -23.5780  -28.6370   23.2870 O   0  0  0  0  0  0  0  0  0  0  0  0
  -21.1250  -29.6770   21.6160 H   0  0  0  0  0  0  0  0  0  0  0  0
  -18.2040  -27.9100   22.6690 C   0  0  0  0  0  0  0  0  0  0  0  0
  -20.7580  -28.1320   23.0070 C   0  0  0  0  0  3  0  0  0  0  0  0
  -20.8660  -26.7280   22.3650 C   0  0  0  0  0  2  0  0  0  0  0  0
  -19.7820  -26.4610   21.3170 C   0  0  0  0  0  2  0  0  0  0  0  0
  -18.3870  -26.5900   21.9380 C   0  0  0  0  0  2  0  0  0  0  0  0
  -19.3190  -28.6400   23.1590 C   0  0  0  0  0  0  0  0  0  0  0  0
  -19.1010  -29.8780   23.8000 C   0  0  0  0  0  3  0  0  0  0  0  0
  -17.7980  -30.3830   23.9630 C   0  0  0  0  0  3  0  0  0  0  0  0
  -16.6960  -29.6450   23.4970 C   0  0  0  0  0  3  0  0  0  0  0  0
  -16.8990  -28.4130   22.8520 C   0  0  0  0  0  3  0  0  0  0  0  0
  -25.9830  -32.3200   23.9750 C   0  0  0  0  0  3  0  0  0  0  0  0
  -26.4540  -31.5240   25.2530 C   0  0  1  0  0  0  0  0  0  0  0  0
  -25.3180  -31.2460   26.2640 C   0  0  0  0  0  1  0  0  0  0  0  0
  -27.0730  -30.1670   24.8460 C   0  0  0  0  0  1  0  0  0  0  0  0
  -27.5640  -32.3120   25.9860 C   0  0  0  0  0  1  0  0  0  0  0  0
  -25.6610  -33.7100   24.3210 N   0  0  0  0  0  0  0  0  0  0  0  0
  -26.0300  -34.7760   23.6000 C   0  0  0  0  0  0  0  0  0  0  0  0
  -26.7450  -34.6920   22.5980 O   0  0  0  0  0  0  0  0  0  0  0  0
  -25.0320  -33.8510   25.0980 H   0  0  0  0  0  0  0  0  0  0  0  0
  -24.3180  -36.5700   23.2030 C   0  0  0  0  0  1  0  0  0  0  0  0
  -25.5230  -36.1550   24.0610 C   0  0  0  0  0  3  0  0  0  0  0  0
  -27.6200  -37.0220   24.9950 C   0  0  0  0  0  1  0  0  0  0  0  0
  -26.5570  -37.2110   24.0100 N   0  0  0  0  0  0  0  0  0  0  0  0
  -26.1460  -38.1290   24.1580 H   0  0  0  0  0  0  0  0  0  0  0  0
  1  2  2  0
  1  9  1  0
  2  3  1  0
  3  4  2  0
  6  8  1  0
  7  5  1  0
  7 10  1  0
  9  5  1  6
  9  6  1  0
  9  4  1  0
 10 11  1  1
 10  8  1  0
 12  2  1  0
 13 21  1  0
 14 19  1  0
 15 16  1  0
 15 14  1  0
 17 16  1  0
 17 26  1  0
 17 18  1  0
 19 13  1  0
 19 18  1  0
 20 13  2  0
 21 12  1  0
 21 22  1  0
 23 24  2  0
 24 43  1  0
 25 24  1  0
 25 28  1  0
 26 27  1  0
 26 23  1  0
 27 25  2  0
 28 29  1  0
 29 30  2  0
 31 34  1  0
 31 30  1  0
 32 31  2  0
 33 32  1  0
 33 28  2  0
 34 35  1  0
 35 40  2  0
 35 36  1  0
 36 37  2  0
 37 38  1  0
 38 42  1  0
 39 38  2  0
 40 39  1  0
 41 40  1  0
 43 44  1  0
 44 47  1  0
 44 46  1  0
 45 43  2  0
 48 23  1  0
 48 49  1  0
 50 48  1  0
 51 10  1  0
 52 51  1  0
 53 52  1  0
 54 56  1  0
 54 53  1  0
 55 66  2  0
 56 61  1  0
 57 65  1  0
 57 67  1  0
 58 64  1  0
 58 60  1  0
 59 65  1  0
 60 61  2  0
 60 59  1  0
 62 63  1  0
 62 56  2  0
 63 58  2  0
 64 57  1  0
 65 55  1  0
 67 69  2  0
 68 67  1  0
 70 68  1  0
 71 80  2  0
 71 76  1  0
 72 68  1  0
 72 76  1  0
 73 72  1  0
 74 75  1  0
 74 73  1  0
 75 71  1  0
 76 77  2  0
 77 78  1  0
 79 78  2  0
 80 79  1  0
 81 55  1  0
 81 86  1  0
 81 82  1  0
 82 85  1  1
 82 83  1  0
 84 82  1  0
 86 89  1  0
 87 91  1  0
 87 86  1  0
 88 87  2  0
 91 90  1  0
 93 91  1  0
 93 94  1  0
 93 92  1  0
M  ISO  4  13 100  21 100  53 101  54 101
M  END
>  <TORSDO>  (4) 
F 20

>  <SCORE>  (4) 
-9.758

>  <name>  (4) 
3

>  <ligand_id>  (4) 
3

>  <original_smiles>  (4) 
[H]C1=C(C([H])([H])N([H])C(=O)N2C([H])([H])C([H])([H])C([H])([H])C([H])(n3nc(-c4c([H])c([H])c(Oc5c([H])c([H])c(F)c([H])c5F)c([H])c4[H])c(C(=O)N([H])[H])c3N([H])[H])C2([H])[H])C([H])([H])C([H])([H])C12C([H])([H])C([H])([H])[N+]([H])(C([H])([H])C([H])([H])C([H])([H])Oc1c([H])c([H])c3c(c1[H])C([H])([H])N(C(=O)C([H])(N([H])C(=O)C([H])(N([H])C([H])([H])[H])C([H])([H])[H])C(C([H])([H])[H])(C([H])([H])[H])C([H])([H])[H])C([H])(C(=O)N([H])C1([H])c4c([H])c([H])c([H])c([H])c4C([H])([H])C([H])([H])C1([H])[H])C3([H])[H])C([H])([H])C2([H])[H]

>  <smiles>  (4) 
[H]C1=C(C([H])([H])N([H])C(=O)N2C([H])([H])C([H])([H])C([H])([H])C([H])(n3nc(-c4c([H])c([H])c(Oc5c([H])c([H])c(F)c([H])c5F)c([H])c4[H])c(C(=O)N([H])[H])c3N([H])[H])C2([H])[H])C([H])([H])C([H])([H])C12C([H])([H])C([H])([H])[N+]([H])(C([H])([H])C([H])([H])C([H])([H])Oc1c([H])c([H])c3c(c1[H])C([H])([H])N(C(=O)C([H])(N([H])C(=O)C([H])(N([H])C([H])([H])[H])C([H])([H])[H])C(C([H])([H])[H])(C([H])([H])[H])C([H])([H])[H])C([H])(C(=O)N([H])C1([H])c4c([H])c([H])c([H])c([H])c4C([H])([H])C([H])([H])C1([H])[H])C3([H])[H])C([H])([H])C2([H])[H]

$$$$
4:0:0
     RDKit          3D

 90 99  0  0  1  0  0  0  0  0999 V2000
  -30.1820  -19.7020   20.6350 C   0  0  0  0  0  3  0  0  0  0  0  0
  -29.8920  -21.1390   20.6110 C   0  0  0  0  0  3  0  0  0  0  0  0
  -29.7380  -18.4220   19.7460 C   0  0  0  0  0  3  0  0  0  0  0  0
  -28.8290  -19.2970   18.7290 C   0  0  0  0  0  0  0  0  0  0  0  0
  -29.6750  -22.2700   18.2610 C   0  0  0  0  0  2  0  0  0  0  0  0
  -28.3920  -21.6840   17.6620 C   0  0  0  0  0  2  0  0  0  0  0  0
  -29.0080  -22.1720   19.6380 C   0  0  1  0  0  0  0  0  0  0  0  0
  -28.2180  -20.8620   18.9560 C   0  0  2  0  0  0  0  0  0  0  0  0
  -29.9230  -16.9550   19.6250 N   0  0  0  0  0  2  0  0  0  0  0  0
  -28.5750  -18.7110   17.6700 O   0  0  0  0  0  0  0  0  0  0  0  0
  -30.8020  -15.6560   19.9720 C   0  0  0  0  0  0  0  0  0  0  0  0
  -30.8950  -13.0360   19.5650 C   0  0  0  0  0  2  0  0  0  0  0  0
  -30.0540  -12.5210   18.3610 C   0  0  0  0  0  2  0  0  0  0  0  0
  -28.5810  -12.2970   18.7510 C   0  0  0  0  0  2  0  0  0  0  0  0
  -28.0520  -13.4420   19.6450 C   0  0  0  0  0  3  0  0  0  0  0  0
  -29.0270  -13.8540   20.7660 C   0  0  0  0  0  2  0  0  0  0  0  0
  -30.2790  -14.3110   20.1280 N   0  0  0  0  0  0  0  0  0  0  0  0
  -32.0420  -15.5910   19.9380 O   0  0  0  0  0  0  0  0  0  0  0  0
  -25.7240  -14.1570   20.3750 C   0  0  0  0  0  0  0  0  0  0  0  0
  -24.5980  -13.4620   20.7110 C   0  0  0  0  0  0  0  0  0  0  0  0
  -24.9600  -12.0790   20.6820 C   0  0  0  0  0  0  0  0  0  0  0  0
  -26.6990  -13.2080   20.1380 N   0  0  0  0  0  0  0  0  0  0  0  0
  -26.2530  -11.9490   20.3940 N   0  0  0  0  0  0  0  0  0  0  0  0
  -24.1310  -10.8770   20.8480 C   0  0  0  0  0  0  0  0  0  0  0  0
  -24.4790   -9.8530   21.7570 C   0  0  0  0  0  3  0  0  0  0  0  0
  -23.6510   -8.7210   21.9120 C   0  0  0  0  0  3  0  0  0  0  0  0
  -22.4580   -8.6030   21.1590 C   0  0  0  0  0  0  0  0  0  0  0  0
  -22.1280   -9.6150   20.2390 C   0  0  0  0  0  3  0  0  0  0  0  0
  -22.9570  -10.7390   20.0810 C   0  0  0  0  0  3  0  0  0  0  0  0
  -21.6050   -7.5290   21.2260 O   0  0  0  0  0  0  0  0  0  0  0  0
  -21.5200   -6.7460   22.3490 C   0  0  0  0  0  0  0  0  0  0  0  0
  -21.1860   -7.2860   23.6120 C   0  0  0  0  0  3  0  0  0  0  0  0
  -21.0400   -6.4350   24.7250 C   0  0  0  0  0  3  0  0  0  0  0  0
  -21.2180   -5.0460   24.5790 C   0  0  0  0  0  0  0  0  0  0  0  0
  -21.5440   -4.5060   23.3230 C   0  0  0  0  0  3  0  0  0  0  0  0
  -21.6910   -5.3530   22.2100 C   0  0  0  0  0  0  0  0  0  0  0  0
  -21.9850   -4.8250   20.9980 F   0  0  0  0  0  0  0  0  0  0  0  0
  -21.0690   -4.2280   25.6470 F   0  0  0  0  0  0  0  0  0  0  0  0
  -23.2360  -14.0460   20.9480 C   0  0  0  0  0  0  0  0  0  0  0  0
  -22.4400  -13.4250   21.8090 N   0  0  0  0  0  0  0  0  0  0  0  0
  -22.8880  -15.0930   20.4000 O   0  0  0  0  0  0  0  0  0  0  0  0
  -22.7320  -12.5820   22.2810 H   0  0  0  0  0  0  0  0  0  0  0  0
  -21.5240  -13.8030   22.0030 H   0  0  0  0  0  0  0  0  0  0  0  0
  -25.9980  -15.5130   20.2190 N   0  0  0  0  0  0  0  0  0  0  0  0
  -25.2900  -16.2290   20.3340 H   0  0  0  0  0  0  0  0  0  0  0  0
  -26.8950  -15.8850   19.9340 H   0  0  0  0  0  0  0  0  0  0  0  0
  -25.7470  -20.2850   18.3660 C   0  0  0  0  0  1  0  0  0  0  0  0
  -26.7750  -20.6370   19.4610 C   0  0  0  0  0  2  0  0  0  0  0  0
  -28.2160  -23.8880   20.0370 C   0  0  0  0  0  2  0  0  0  0  0  0
  -28.3070  -25.6080   19.7880 O   0  0  0  0  0  0  0  0  0  0  0  0
  -24.5500  -31.5980   22.9360 C   0  0  0  0  0  0  0  0  0  0  0  0
  -27.2700  -26.7460   19.8290 C   0  0  0  0  0  0  0  0  0  0  0  0
  -23.4150  -30.2030   21.2610 C   0  0  0  0  0  3  0  0  0  0  0  0
  -24.9240  -28.6610   19.8060 C   0  0  0  0  0  0  0  0  0  0  0  0
  -25.9830  -30.4650   21.1400 C   0  0  0  0  0  2  0  0  0  0  0  0
  -26.1030  -29.0580   20.4500 C   0  0  0  0  0  0  0  0  0  0  0  0
  -27.2660  -28.1320   20.4210 C   0  0  0  0  0  3  0  0  0  0  0  0
  -26.0480  -26.5440   19.1400 C   0  0  0  0  0  3  0  0  0  0  0  0
  -24.9320  -27.4320   19.1270 C   0  0  0  0  0  3  0  0  0  0  0  0
  -23.6800  -29.5570   19.8700 C   0  0  0  0  0  2  0  0  0  0  0  0
  -24.6710  -30.7850   21.8330 N   0  0  0  0  0  0  0  0  0  0  0  0
  -23.4470  -31.8400   23.4570 O   0  0  0  0  0  0  0  0  0  0  0  0
  -22.7400  -29.1680   22.2010 C   0  0  0  0  0  0  0  0  0  0  0  0
  -21.4100  -28.9930   22.0960 N   0  0  0  0  0  0  0  0  0  0  0  0
  -23.4250  -28.5190   22.9960 O   0  0  0  0  0  0  0  0  0  0  0  0
  -20.9040  -29.5660   21.4350 H   0  0  0  0  0  0  0  0  0  0  0  0
  -18.0460  -27.7410   22.6640 C   0  0  0  0  0  0  0  0  0  0  0  0
  -20.6150  -28.0100   22.8440 C   0  0  0  0  0  3  0  0  0  0  0  0
  -20.6980  -26.6120   22.1870 C   0  0  0  0  0  2  0  0  0  0  0  0
  -19.5610  -26.3410   21.1980 C   0  0  0  0  0  2  0  0  0  0  0  0
  -18.2050  -26.4360   21.9020 C   0  0  0  0  0  2  0  0  0  0  0  0
  -19.1770  -28.4880   23.0930 C   0  0  0  0  0  0  0  0  0  0  0  0
  -18.9720  -29.7090   23.7720 C   0  0  0  0  0  3  0  0  0  0  0  0
  -17.6710  -30.1820   24.0240 C   0  0  0  0  0  3  0  0  0  0  0  0
  -16.5560  -29.4320   23.6090 C   0  0  0  0  0  3  0  0  0  0  0  0
  -16.7460  -28.2140   22.9350 C   0  0  0  0  0  3  0  0  0  0  0  0
  -25.7900  -32.2740   23.5950 C   0  0  0  0  0  3  0  0  0  0  0  0
  -25.4100  -33.6430   23.9910 N   0  0  0  0  0  0  0  0  0  0  0  0
  -25.7010  -34.7550   23.3010 C   0  0  0  0  0  0  0  0  0  0  0  0
  -26.3780  -34.7380   22.2710 O   0  0  0  0  0  0  0  0  0  0  0  0
  -24.8060  -33.7240   24.7950 H   0  0  0  0  0  0  0  0  0  0  0  0
  -23.8940  -36.4940   23.0610 C   0  0  0  0  0  1  0  0  0  0  0  0
  -25.1600  -36.0960   23.8390 C   0  0  0  0  0  3  0  0  0  0  0  0
  -27.2600  -37.0360   24.7000 C   0  0  0  0  0  1  0  0  0  0  0  0
  -26.1440  -37.2000   23.7720 N   0  0  0  0  0  0  0  0  0  0  0  0
  -25.6970  -38.0920   23.9690 H   0  0  0  0  0  0  0  0  0  0  0  0
  -26.3330  -31.4830   24.8500 C   0  0  1  0  0  0  0  0  0  0  0  0
  -25.2500  -31.1740   25.9100 C   0  0  0  0  0  1  0  0  0  0  0  0
  -26.9680  -30.1380   24.4290 C   0  0  0  0  0  1  0  0  0  0  0  0
  -27.4550  -32.2960   25.5370 C   0  0  0  0  0  1  0  0  0  0  0  0
  2  1  2  0
  3  9  1  0
  3  1  1  0
  4  8  1  0
  4  3  1  0
  5  7  1  0
  6  5  1  0
  6  8  1  0
  7 49  1  1
  7  2  1  0
  8 48  1  1
  8  7  1  0
  9 11  1  0
 10  4  2  0
 11 17  1  0
 12 17  1  0
 13 14  1  0
 13 12  1  0
 15 14  1  0
 15 22  1  0
 15 16  1  0
 17 16  1  0
 18 11  2  0
 19 20  2  0
 20 39  1  0
 21 20  1  0
 21 24  1  0
 22 19  1  0
 22 23  1  0
 23 21  2  0
 24 25  1  0
 25 26  2  0
 27 30  1  0
 27 26  1  0
 28 27  2  0
 29 28  1  0
 29 24  2  0
 30 31  1  0
 31 32  1  0
 32 33  2  0
 34 33  1  0
 34 38  1  0
 35 34  2  0
 36 31  2  0
 36 35  1  0
 37 36  1  0
 39 40  1  0
 40 43  1  0
 40 42  1  0
 41 39  2  0
 44 45  1  0
 44 19  1  0
 46 44  1  0
 47 48  1  0
 50 52  1  0
 50 49  1  0
 51 62  2  0
 52 57  1  0
 53 61  1  0
 53 63  1  0
 54 60  1  0
 54 56  1  0
 55 61  1  0
 56 55  1  0
 57 56  2  0
 58 52  2  0
 59 58  1  0
 59 54  2  0
 60 53  1  0
 61 51  1  0
 63 65  2  0
 64 63  1  0
 66 64  1  0
 67 76  2  0
 67 72  1  0
 68 64  1  0
 68 72  1  0
 69 68  1  0
 70 71  1  0
 70 69  1  0
 71 67  1  0
 72 73  2  0
 73 74  1  0
 75 74  2  0
 76 75  1  0
 77 51  1  0
 77 78  1  0
 77 87  1  0
 78 81  1  0
 79 83  1  0
 79 78  1  0
 80 79  2  0
 83 82  1  0
 85 83  1  0
 85 86  1  0
 85 84  1  0
 87 90  1  1
 87 88  1  0
 89 87  1  0
M  ISO  4   9 100  11 100  49 101  50 101
M  END
>  <TORSDO>  (5) 
F 18

>  <SCORE>  (5) 
-14.286

>  <name>  (5) 
4

>  <ligand_id>  (5) 
4

>  <original_smiles>  (5) 
[H]C1=C([H])C2(C([H])([H])Oc3c([H])c([H])c4c(c3[H])C([H])([H])N(C(=O)C([H])(N([H])C(=O)C([H])(N([H])C([H])([H])[H])C([H])([H])[H])C(C([H])([H])[H])(C([H])([H])[H])C([H])([H])[H])C([H])(C(=O)N([H])C3([H])c5c([H])c([H])c([H])c([H])c5C([H])([H])C([H])([H])C3([H])[H])C4([H])[H])C([H])([H])C([H])([H])C2(C([H])([H])C([H])([H])[H])C(=O)C1=NC(=O)N1C([H])([H])C([H])([H])C([H])([H])C([H])(n2nc(-c3c([H])c([H])c(Oc4c([H])c([H])c(F)c([H])c4F)c([H])c3[H])c(C(=O)N([H])[H])c2N([H])[H])C1([H])[H]

>  <smiles>  (5) 
[H]C1=C([H])C2(C([H])([H])Oc3c([H])c([H])c4c(c3[H])C([H])([H])N(C(=O)C([H])(N([H])C(=O)C([H])(N([H])C([H])([H])[H])C([H])([H])[H])C(C([H])([H])[H])(C([H])([H])[H])C([H])([H])[H])C([H])(C(=O)N([H])C3([H])c5c([H])c([H])c([H])c([H])c5C([H])([H])C([H])([H])C3([H])[H])C4([H])[H])C([H])([H])C([H])([H])C2(C([H])([H])C([H])([H])[H])C(=O)C1=NC(=O)N1C([H])([H])C([H])([H])C([H])([H])C([H])(n2nc(-c3c([H])c([H])c(Oc4c([H])c([H])c(F)c([H])c4F)c([H])c3[H])c(C(=O)N([H])[H])c2N([H])[H])C1([H])[H]

$$$$
5:0:0
     RDKit          3D

 91100  0  0  1  0  0  0  0  0999 V2000
  -30.9590  -20.0550   19.2230 C   0  0  0  0  0  3  0  0  0  0  0  0
  -30.8680  -18.6340   19.5050 C   0  0  0  0  0  3  0  0  0  0  0  0
  -28.8370  -19.0600   20.6850 C   0  0  0  0  0  3  0  0  0  0  0  0
  -28.9400  -20.5300   20.4230 C   0  0  0  0  0  0  0  0  0  0  0  0
  -29.9960  -21.0170   19.6690 C   0  0  0  0  0  0  0  0  0  0  0  0
  -29.8050  -18.0130   20.2400 C   0  0  0  0  0  0  0  0  0  0  0  0
  -28.0990  -21.8220   20.7460 C   0  0  0  0  0  0  0  0  0  0  0  0
  -29.8950  -22.5820   19.4000 C   0  0  0  0  0  2  0  0  0  0  0  0
  -28.8110  -23.2710   20.3610 C   0  0  0  0  0  3  0  0  0  0  0  0
  -26.9750  -21.7660   21.2560 O   0  0  0  0  0  0  0  0  0  0  0  0
  -30.4860  -15.2480   20.2440 C   0  0  0  0  0  0  0  0  0  0  0  0
  -30.4090  -12.8380   19.3660 C   0  0  0  0  0  2  0  0  0  0  0  0
  -29.4770  -12.7210   18.1350 C   0  0  0  0  0  2  0  0  0  0  0  0
  -28.0180  -12.4980   18.5730 C   0  0  0  0  0  2  0  0  0  0  0  0
  -27.6020  -13.4500   19.7240 C   0  0  0  0  0  3  0  0  0  0  0  0
  -28.6580  -13.5150   20.8500 C   0  0  0  0  0  2  0  0  0  0  0  0
  -29.9150  -13.9600   20.2310 N   0  0  0  0  0  0  0  0  0  0  0  0
  -31.6840  -15.2910   19.9360 O   0  0  0  0  0  0  0  0  0  0  0  0
  -29.6950  -16.4500   20.4540 N   0  0  0  0  0  0  0  0  0  0  0  0
  -28.7810  -16.1860   20.7910 H   0  0  0  0  0  0  0  0  0  0  0  0
  -25.2450  -14.0470   20.5040 C   0  0  0  0  0  0  0  0  0  0  0  0
  -24.1700  -13.2830   20.8660 C   0  0  0  0  0  0  0  0  0  0  0  0
  -24.6090  -11.9250   20.7980 C   0  0  0  0  0  0  0  0  0  0  0  0
  -26.2670  -13.1560   20.2310 N   0  0  0  0  0  0  0  0  0  0  0  0
  -25.8970  -11.8720   20.4750 N   0  0  0  0  0  0  0  0  0  0  0  0
  -23.8590  -10.6720   20.9650 C   0  0  0  0  0  0  0  0  0  0  0  0
  -24.2790   -9.6730   21.8680 C   0  0  0  0  0  3  0  0  0  0  0  0
  -23.5270   -8.4880   22.0250 C   0  0  0  0  0  3  0  0  0  0  0  0
  -22.3420   -8.2940   21.2790 C   0  0  0  0  0  0  0  0  0  0  0  0
  -21.9400   -9.2830   20.3630 C   0  0  0  0  0  3  0  0  0  0  0  0
  -22.6920  -10.4580   20.2030 C   0  0  0  0  0  3  0  0  0  0  0  0
  -21.5620   -7.1640   21.3460 O   0  0  0  0  0  0  0  0  0  0  0  0
  -21.5210   -6.3860   22.4750 C   0  0  0  0  0  0  0  0  0  0  0  0
  -21.1050   -6.9020   23.7210 C   0  0  0  0  0  3  0  0  0  0  0  0
  -21.0100   -6.0500   24.8390 C   0  0  0  0  0  3  0  0  0  0  0  0
  -21.3200   -4.6840   24.7140 C   0  0  0  0  0  0  0  0  0  0  0  0
  -21.7300   -4.1660   23.4710 C   0  0  0  0  0  3  0  0  0  0  0  0
  -21.8260   -5.0150   22.3550 C   0  0  0  0  0  0  0  0  0  0  0  0
  -22.2010   -4.5070   21.1560 F   0  0  0  0  0  0  0  0  0  0  0  0
  -21.2220   -3.8630   25.7860 F   0  0  0  0  0  0  0  0  0  0  0  0
  -22.7850  -13.7810   21.1580 C   0  0  0  0  0  0  0  0  0  0  0  0
  -22.0510  -13.0830   22.0170 N   0  0  0  0  0  0  0  0  0  0  0  0
  -22.3620  -14.8230   20.6590 O   0  0  0  0  0  0  0  0  0  0  0  0
  -22.4060  -12.2390   22.4420 H   0  0  0  0  0  0  0  0  0  0  0  0
  -21.1210  -13.3980   22.2560 H   0  0  0  0  0  0  0  0  0  0  0  0
  -25.4310  -15.4180   20.3550 N   0  0  0  0  0  0  0  0  0  0  0  0
  -24.6700  -16.0780   20.4800 H   0  0  0  0  0  0  0  0  0  0  0  0
  -26.2660  -15.8470   19.9800 H   0  0  0  0  0  0  0  0  0  0  0  0
  -27.9230  -24.5830   19.8850 N   0  0  0  0  0  0  0  0  0  0  0  0
  -26.9890  -24.4980   20.2760 H   0  0  0  0  0  0  0  0  0  0  0  0
  -28.3450  -26.1480   20.1790 O   0  0  0  0  0  0  0  0  0  0  0  0
  -24.6660  -31.8740   23.2680 C   0  0  0  0  0  0  0  0  0  0  0  0
  -27.3030  -27.1820   20.1390 C   0  0  0  0  0  0  0  0  0  0  0  0
  -23.4960  -30.5120   21.5810 C   0  0  0  0  0  3  0  0  0  0  0  0
  -24.9720  -28.9770   20.1260 C   0  0  0  0  0  0  0  0  0  0  0  0
  -26.0540  -30.7750   21.4590 C   0  0  0  0  0  2  0  0  0  0  0  0
  -26.1430  -29.3920   20.7710 C   0  0  0  0  0  0  0  0  0  0  0  0
  -27.3030  -28.5090   20.7660 C   0  0  0  0  0  3  0  0  0  0  0  0
  -26.1080  -26.9050   19.4370 C   0  0  0  0  0  3  0  0  0  0  0  0
  -24.9730  -27.7500   19.4430 C   0  0  0  0  0  3  0  0  0  0  0  0
  -23.7390  -29.8720   20.1870 C   0  0  0  0  0  2  0  0  0  0  0  0
  -24.7580  -31.0780   22.1570 N   0  0  0  0  0  0  0  0  0  0  0  0
  -23.5710  -32.1380   23.7910 O   0  0  0  0  0  0  0  0  0  0  0  0
  -22.8110  -29.4790   22.5120 C   0  0  0  0  0  0  0  0  0  0  0  0
  -21.4830  -29.3100   22.3770 N   0  0  0  0  0  0  0  0  0  0  0  0
  -23.4790  -28.8310   23.3210 O   0  0  0  0  0  0  0  0  0  0  0  0
  -20.9970  -29.8840   21.7020 H   0  0  0  0  0  0  0  0  0  0  0  0
  -18.0990  -28.0980   22.8580 C   0  0  0  0  0  0  0  0  0  0  0  0
  -20.6610  -28.3470   23.1170 C   0  0  0  0  0  3  0  0  0  0  0  0
  -20.7550  -26.9370   22.4870 C   0  0  0  0  0  2  0  0  0  0  0  0
  -19.6460  -26.6560   21.4690 C   0  0  0  0  0  2  0  0  0  0  0  0
  -18.2690  -26.7780   22.1270 C   0  0  0  0  0  2  0  0  0  0  0  0
  -19.2220  -28.8430   23.3090 C   0  0  0  0  0  0  0  0  0  0  0  0
  -19.0080  -30.0790   23.9560 C   0  0  0  0  0  3  0  0  0  0  0  0
  -17.7050  -30.5730   24.1540 C   0  0  0  0  0  3  0  0  0  0  0  0
  -16.5960  -29.8260   23.7180 C   0  0  0  0  0  3  0  0  0  0  0  0
  -16.7950  -28.5910   23.0760 C   0  0  0  0  0  3  0  0  0  0  0  0
  -25.9290  -32.5080   23.9250 C   0  0  0  0  0  3  0  0  0  0  0  0
  -25.6170  -33.9120   24.2380 N   0  0  0  0  0  0  0  0  0  0  0  0
  -25.9560  -34.9610   23.4750 C   0  0  0  0  0  0  0  0  0  0  0  0
  -26.6270  -34.8460   22.4460 O   0  0  0  0  0  0  0  0  0  0  0  0
  -25.0210  -34.0750   25.0360 H   0  0  0  0  0  0  0  0  0  0  0  0
  -24.2240  -36.7550   23.1240 C   0  0  0  0  0  1  0  0  0  0  0  0
  -25.4760  -36.3570   23.9240 C   0  0  0  0  0  3  0  0  0  0  0  0
  -27.6160  -37.2590   24.7220 C   0  0  0  0  0  1  0  0  0  0  0  0
  -26.5070  -37.4080   23.7840 N   0  0  0  0  0  0  0  0  0  0  0  0
  -26.1020  -38.3310   23.9160 H   0  0  0  0  0  0  0  0  0  0  0  0
  -26.3940  -31.7490   25.2300 C   0  0  1  0  0  0  0  0  0  0  0  0
  -25.2640  -31.5350   26.2650 C   0  0  0  0  0  1  0  0  0  0  0  0
  -26.9780  -30.3600   24.8830 C   0  0  0  0  0  1  0  0  0  0  0  0
  -27.5300  -32.5410   25.9200 C   0  0  0  0  0  1  0  0  0  0  0  0
  1  2  2  0
  1  5  1  0
  2  6  1  0
  4  3  1  0
  4  7  1  0
  5  4  2  0
  6 19  1  0
  6  3  2  0
  7 10  2  0
  8  5  1  0
  8  9  1  0
  9 49  1  0
  9  7  1  0
 11 19  1  0
 12 17  1  0
 13 14  1  0
 13 12  1  0
 15 14  1  0
 15 24  1  0
 15 16  1  0
 17 11  1  0
 17 16  1  0
 18 11  2  0
 19 20  1  0
 21 22  2  0
 22 41  1  0
 23 22  1  0
 23 26  1  0
 24 25  1  0
 24 21  1  0
 25 23  2  0
 26 27  1  0
 27 28  2  0
 29 32  1  0
 29 28  1  0
 30 29  2  0
 31 30  1  0
 31 26  2  0
 32 33  1  0
 33 34  1  0
 34 35  2  0
 36 35  1  0
 36 40  1  0
 37 36  2  0
 38 33  2  0
 38 37  1  0
 39 38  1  0
 41 42  1  0
 42 45  1  0
 42 44  1  0
 43 41  2  0
 46 47  1  0
 46 21  1  0
 48 46  1  0
 49 51  1  0
 49 50  1  0
 52 63  2  0
 53 51  1  0
 53 58  1  0
 54 62  1  0
 54 64  1  0
 55 61  1  0
 55 57  1  0
 56 62  1  0
 57 56  1  0
 58 57  2  0
 59 60  1  0
 59 53  2  0
 60 55  2  0
 61 54  1  0
 62 52  1  0
 64 66  2  0
 65 64  1  0
 67 65  1  0
 68 77  2  0
 68 73  1  0
 69 65  1  0
 69 73  1  0
 70 69  1  0
 71 72  1  0
 71 70  1  0
 72 68  1  0
 73 74  2  0
 74 75  1  0
 76 75  2  0
 77 76  1  0
 78 52  1  0
 78 79  1  0
 78 88  1  0
 79 82  1  0
 80 84  1  0
 80 79  1  0
 81 80  2  0
 84 83  1  0
 86 87  1  0
 86 84  1  0
 86 85  1  0
 88 91  1  1
 88 89  1  0
 90 88  1  0
M  ISO  4  11 100  19 100  49 101  51 101
M  END
>  <TORSDO>  (6) 
F 17

>  <SCORE>  (6) 
-15.398

>  <name>  (6) 
5

>  <ligand_id>  (6) 
5

>  <original_smiles>  (6) 
[H]c1c([H])c([H])c2c(c1[H])C([H])([H])C([H])([H])C([H])([H])C2([H])N([H])C(=O)C1([H])N(C(=O)C([H])(N([H])C(=O)C([H])(N([H])C([H])([H])[H])C([H])([H])[H])C(C([H])([H])[H])(C([H])([H])[H])C([H])([H])[H])C([H])([H])c2c([H])c(ON([H])C3([H])C(=O)c4c([H])c(N([H])C(=O)N5C([H])([H])C([H])([H])C([H])([H])C([H])(n6nc(-c7c([H])c([H])c(Oc8c([H])c([H])c(F)c([H])c8F)c([H])c7[H])c(C(=O)N([H])[H])c6N([H])[H])C5([H])[H])c([H])c([H])c4C3([H])[H])c([H])c([H])c2C1([H])[H]

>  <smiles>  (6) 
[H]c1c([H])c([H])c2c(c1[H])C([H])([H])C([H])([H])C([H])([H])C2([H])N([H])C(=O)C1([H])N(C(=O)C([H])(N([H])C(=O)C([H])(N([H])C([H])([H])[H])C([H])([H])[H])C(C([H])([H])[H])(C([H])([H])[H])C([H])([H])[H])C([H])([H])c2c([H])c(ON([H])C3([H])C(=O)c4c([H])c(N([H])C(=O)N5C([H])([H])C([H])([H])C([H])([H])C([H])(n6nc(-c7c([H])c([H])c(Oc8c([H])c([H])c(F)c([H])c8F)c([H])c7[H])c(C(=O)N([H])[H])c6N([H])[H])C5([H])[H])c([H])c([H])c4C3([H])[H])c([H])c([H])c2C1([H])[H]

$$$$
6:0:0
     RDKit          3D

 90 99  0  0  1  0  0  0  0  0999 V2000
  -28.3330  -20.3500   20.7700 C   0  0  0  0  0  3  0  0  0  0  0  0
  -28.5110  -18.8840   20.7570 C   0  0  0  0  0  3  0  0  0  0  0  0
  -30.3990  -19.1050   19.4710 C   0  0  0  0  0  3  0  0  0  0  0  0
  -30.2240  -20.5920   19.4400 C   0  0  0  0  0  0  0  0  0  0  0  0
  -29.1600  -21.3580   20.1280 C   0  0  0  0  0  0  0  0  0  0  0  0
  -29.5720  -18.1100   20.1310 C   0  0  0  0  0  0  0  0  0  0  0  0
  -30.4530  -15.3300   19.8800 C   0  0  0  0  0  0  0  0  0  0  0  0
  -30.3870  -12.9210   18.9500 C   0  0  0  0  0  2  0  0  0  0  0  0
  -29.3810  -12.7890   17.7780 C   0  0  0  0  0  2  0  0  0  0  0  0
  -27.9560  -12.5280   18.2990 C   0  0  0  0  0  2  0  0  0  0  0  0
  -27.5970  -13.4500   19.4920 C   0  0  0  0  0  3  0  0  0  0  0  0
  -28.7180  -13.5150   20.5510 C   0  0  0  0  0  2  0  0  0  0  0  0
  -29.9200  -14.0180   19.8660 N   0  0  0  0  0  0  0  0  0  0  0  0
  -31.6320  -15.4030   19.5050 O   0  0  0  0  0  0  0  0  0  0  0  0
  -29.6290  -16.5070   20.1760 N   0  0  0  0  0  0  0  0  0  0  0  0
  -28.7590  -16.1490   20.5410 H   0  0  0  0  0  0  0  0  0  0  0  0
  -25.2760  -14.0000   20.4070 C   0  0  0  0  0  0  0  0  0  0  0  0
  -24.2390  -13.2170   20.8290 C   0  0  0  0  0  0  0  0  0  0  0  0
  -24.6990  -11.8670   20.7370 C   0  0  0  0  0  0  0  0  0  0  0  0
  -26.2990  -13.1290   20.0750 N   0  0  0  0  0  0  0  0  0  0  0  0
  -25.9670  -11.8380   20.3400 N   0  0  0  0  0  0  0  0  0  0  0  0
  -23.9830  -10.6010   20.9450 C   0  0  0  0  0  0  0  0  0  0  0  0
  -24.4430   -9.6340   21.8650 C   0  0  0  0  0  3  0  0  0  0  0  0
  -23.7240   -8.4340   22.0640 C   0  0  0  0  0  3  0  0  0  0  0  0
  -22.5300   -8.1950   21.3430 C   0  0  0  0  0  0  0  0  0  0  0  0
  -22.0880   -9.1510   20.4120 C   0  0  0  0  0  3  0  0  0  0  0  0
  -22.8080  -10.3410   20.2120 C   0  0  0  0  0  3  0  0  0  0  0  0
  -21.7810   -7.0470   21.4520 O   0  0  0  0  0  0  0  0  0  0  0  0
  -21.7340   -6.3260   22.6180 C   0  0  0  0  0  0  0  0  0  0  0  0
  -21.2420   -6.8830   23.8190 C   0  0  0  0  0  3  0  0  0  0  0  0
  -21.1460   -6.0860   24.9760 C   0  0  0  0  0  3  0  0  0  0  0  0
  -21.5320   -4.7320   24.9340 C   0  0  0  0  0  0  0  0  0  0  0  0
  -22.0160   -4.1760   23.7370 C   0  0  0  0  0  3  0  0  0  0  0  0
  -22.1150   -4.9700   22.5820 C   0  0  0  0  0  0  0  0  0  0  0  0
  -22.5610   -4.4230   21.4270 F   0  0  0  0  0  0  0  0  0  0  0  0
  -21.4320   -3.9630   26.0430 F   0  0  0  0  0  0  0  0  0  0  0  0
  -22.8630  -13.6880   21.1990 C   0  0  0  0  0  0  0  0  0  0  0  0
  -22.1940  -12.9800   22.1010 N   0  0  0  0  0  0  0  0  0  0  0  0
  -22.3920  -14.7220   20.7220 O   0  0  0  0  0  0  0  0  0  0  0  0
  -22.5900  -12.1450   22.5080 H   0  0  0  0  0  0  0  0  0  0  0  0
  -21.2730  -13.2760   22.3900 H   0  0  0  0  0  0  0  0  0  0  0  0
  -25.4280  -15.3750   20.2480 N   0  0  0  0  0  0  0  0  0  0  0  0
  -24.6630  -16.0190   20.4170 H   0  0  0  0  0  0  0  0  0  0  0  0
  -26.2280  -15.8170   19.8160 H   0  0  0  0  0  0  0  0  0  0  0  0
  -32.2220  -22.3290   19.1140 C   0  0  0  0  0  2  0  0  0  0  0  0
  -31.2210  -22.6570   18.0190 C   0  0  0  0  0  2  0  0  0  0  0  0
  -31.2930  -21.2610   18.5900 C   0  0  0  0  0  3  0  0  0  0  0  0
  -29.0530  -23.0710   20.4540 C   0  0  0  0  0  3  0  0  0  0  0  0
  -28.1400  -24.4810   19.8850 C   0  0  0  0  0  3  0  0  0  0  0  0
  -28.2690  -26.0660   20.2490 O   0  0  0  0  0  0  0  0  0  0  0  0
  -24.6490  -31.9050   23.2440 C   0  0  0  0  0  0  0  0  0  0  0  0
  -27.2340  -27.1210   20.1680 C   0  0  0  0  0  0  0  0  0  0  0  0
  -23.4570  -30.5180   21.5920 C   0  0  0  0  0  3  0  0  0  0  0  0
  -24.9120  -28.9460   20.1470 C   0  0  0  0  0  0  0  0  0  0  0  0
  -26.0170  -30.7640   21.4370 C   0  0  0  0  0  2  0  0  0  0  0  0
  -26.0960  -29.3670   20.7670 C   0  0  0  0  0  0  0  0  0  0  0  0
  -27.2510  -28.4720   20.7540 C   0  0  0  0  0  3  0  0  0  0  0  0
  -26.0230  -26.8390   19.4990 C   0  0  0  0  0  3  0  0  0  0  0  0
  -24.8980  -27.7030   19.4930 C   0  0  0  0  0  3  0  0  0  0  0  0
  -23.6840  -29.8520   20.2080 C   0  0  0  0  0  2  0  0  0  0  0  0
  -24.7290  -31.0890   22.1440 N   0  0  0  0  0  0  0  0  0  0  0  0
  -23.5590  -32.1800   23.7740 O   0  0  0  0  0  0  0  0  0  0  0  0
  -22.7760  -29.5060   22.5510 C   0  0  0  0  0  0  0  0  0  0  0  0
  -21.4500  -29.3230   22.4220 N   0  0  0  0  0  0  0  0  0  0  0  0
  -23.4490  -28.8840   23.3760 O   0  0  0  0  0  0  0  0  0  0  0  0
  -20.9580  -29.8770   21.7340 H   0  0  0  0  0  0  0  0  0  0  0  0
  -18.0790  -28.0830   22.9280 C   0  0  0  0  0  0  0  0  0  0  0  0
  -20.6370  -28.3720   23.1860 C   0  0  0  0  0  3  0  0  0  0  0  0
  -20.7490  -26.9450   22.5970 C   0  0  0  0  0  2  0  0  0  0  0  0
  -19.6480  -26.6230   21.5830 C   0  0  0  0  0  2  0  0  0  0  0  0
  -18.2670  -26.7450   22.2330 C   0  0  0  0  0  2  0  0  0  0  0  0
  -19.1910  -28.8540   23.3610 C   0  0  0  0  0  0  0  0  0  0  0  0
  -18.9580  -30.1040   23.9730 C   0  0  0  0  0  3  0  0  0  0  0  0
  -17.6480  -30.5860   24.1550 C   0  0  0  0  0  3  0  0  0  0  0  0
  -16.5510  -29.8130   23.7340 C   0  0  0  0  0  3  0  0  0  0  0  0
  -16.7670  -28.5640   23.1270 C   0  0  0  0  0  3  0  0  0  0  0  0
  -25.9190  -32.5480   23.8770 C   0  0  0  0  0  3  0  0  0  0  0  0
  -26.4120  -31.7970   25.1760 C   0  0  1  0  0  0  0  0  0  0  0  0
  -25.2980  -31.5750   26.2260 C   0  0  0  0  0  1  0  0  0  0  0  0
  -27.0030  -30.4130   24.8230 C   0  0  0  0  0  1  0  0  0  0  0  0
  -27.5500  -32.6020   25.8470 C   0  0  0  0  0  1  0  0  0  0  0  0
  -25.6070  -33.9530   24.1920 N   0  0  0  0  0  0  0  0  0  0  0  0
  -25.9230  -35.0010   23.4190 C   0  0  0  0  0  0  0  0  0  0  0  0
  -26.5710  -34.8870   22.3760 O   0  0  0  0  0  0  0  0  0  0  0  0
  -25.0280  -34.1140   25.0030 H   0  0  0  0  0  0  0  0  0  0  0  0
  -24.1790  -36.7890   23.1010 C   0  0  0  0  0  1  0  0  0  0  0  0
  -25.4470  -36.3970   23.8740 C   0  0  0  0  0  3  0  0  0  0  0  0
  -27.5960  -37.3120   24.6350 C   0  0  0  0  0  1  0  0  0  0  0  0
  -26.4720  -37.4510   23.7130 N   0  0  0  0  0  0  0  0  0  0  0  0
  -26.0660  -38.3730   23.8460 H   0  0  0  0  0  0  0  0  0  0  0  0
  2  1  1  0
  3  6  1  0
  4  3  2  0
  4  5  1  0
  5 48  1  0
  5  1  2  0
  6 15  1  0
  6  2  2  0
  7 15  1  0
  8 13  1  0
  9 10  1  0
  9  8  1  0
 11 10  1  0
 11 20  1  0
 11 12  1  0
 13  7  1  0
 13 12  1  0
 14  7  2  0
 15 16  1  0
 17 18  2  0
 18 37  1  0
 19 18  1  0
 19 22  1  0
 20 21  1  0
 20 17  1  0
 21 19  2  0
 22 23  1  0
 23 24  2  0
 25 28  1  0
 25 24  1  0
 26 25  2  0
 27 26  1  0
 27 22  2  0
 28 29  1  0
 29 30  1  0
 30 31  2  0
 32 31  1  0
 32 36  1  0
 33 32  2  0
 34 29  2  0
 34 33  1  0
 35 34  1  0
 37 38  1  0
 38 41  1  0
 38 40  1  0
 39 37  2  0
 42 17  1  0
 42 43  1  0
 44 42  1  0
 46 47  1  0
 46 45  1  0
 47 45  1  0
 47  4  1  0
 49 50  1  0
 49 48  2  0
 51 62  2  0
 52 50  1  0
 52 57  1  0
 53 61  1  0
 53 63  1  0
 54 60  1  0
 54 56  1  0
 55 61  1  0
 56 55  1  0
 57 56  2  0
 58 52  2  0
 59 58  1  0
 59 54  2  0
 60 53  1  0
 61 51  1  0
 63 65  2  0
 64 63  1  0
 66 64  1  0
 67 76  2  0
 67 72  1  0
 68 64  1  0
 68 72  1  0
 69 68  1  0
 70 71  1  0
 70 69  1  0
 71 67  1  0
 72 73  2  0
 73 74  1  0
 75 74  2  0
 76 75  1  0
 77 51  1  0
 77 82  1  0
 77 78  1  0
 78 81  1  1
 78 79  1  0
 80 78  1  0
 82 85  1  0
 83 87  1  0
 83 82  1  0
 84 83  2  0
 87 86  1  0
 89 90  1  0
 89 87  1  0
 89 88  1  0
M  ISO  4   7 100  15 100  49 101  50 101
M  END
>  <TORSDO>  (7) 
F 19

>  <SCORE>  (7) 
-14.888

>  <name>  (7) 
6

>  <ligand_id>  (7) 
6

>  <original_smiles>  (7) 
[H]c1c([H])c([H])c2c(c1[H])C([H])([H])C([H])([H])C([H])([H])C2([H])N([H])C(=O)C1([H])N(C(=O)C([H])(N([H])C(=O)C([H])(N([H])C([H])([H])[H])C([H])([H])[H])C(C([H])([H])[H])(C([H])([H])[H])C([H])([H])[H])C([H])([H])c2c([H])c(OC([H])([H])C([H])([H])c3c([H])c([H])c(N([H])C(=O)N4C([H])([H])C([H])([H])C([H])([H])C([H])(n5nc(-c6c([H])c([H])c(Oc7c([H])c([H])c(F)c([H])c7F)c([H])c6[H])c(C(=O)N([H])[H])c5N([H])[H])C4([H])[H])c([H])c3C3([H])C([H])([H])C3([H])[H])c([H])c([H])c2C1([H])[H]

>  <smiles>  (7) 
[H]c1c([H])c([H])c2c(c1[H])C([H])([H])C([H])([H])C([H])([H])C2([H])N([H])C(=O)C1([H])N(C(=O)C([H])(N([H])C(=O)C([H])(N([H])C([H])([H])[H])C([H])([H])[H])C(C([H])([H])[H])(C([H])([H])[H])C([H])([H])[H])C([H])([H])c2c([H])c(OC([H])([H])C([H])([H])c3c([H])c([H])c(N([H])C(=O)N4C([H])([H])C([H])([H])C([H])([H])C([H])(n5nc(-c6c([H])c([H])c(Oc7c([H])c([H])c(F)c([H])c7F)c([H])c6[H])c(C(=O)N([H])[H])c5N([H])[H])C4([H])[H])c([H])c3C3([H])C([H])([H])C3([H])[H])c([H])c([H])c2C1([H])[H]

$$$$
7:0:0
     RDKit          3D

 90 99  0  0  1  0  0  0  0  0999 V2000
  -29.2110  -22.6490   21.7120 C   0  0  0  0  0  3  0  0  0  0  0  0
  -29.7620  -21.4680   22.2870 C   0  0  0  0  0  3  0  0  0  0  0  0
  -28.9220  -21.3080   19.7400 C   0  0  0  0  0  3  0  0  0  0  0  0
  -29.5220  -19.9730   20.2900 C   0  0  0  0  0  0  0  0  0  0  0  0
  -28.7240  -22.7100   20.3890 C   0  0  0  0  0  0  0  0  0  0  0  0
  -29.9160  -20.2020   21.6370 C   0  0  0  0  0  0  0  0  0  0  0  0
  -30.5700  -19.0810   22.4280 C   0  0  0  0  0  1  0  0  0  0  0  0
  -29.5380  -18.4150   18.0560 C   0  0  0  0  0  2  0  0  0  0  0  0
  -30.9660  -18.6070   18.4540 C   0  0  0  0  0  2  0  0  0  0  0  0
  -29.9140  -18.3980   19.5310 C   0  0  1  0  0  0  0  0  0  0  0  0
  -30.6250  -15.5280   19.8460 C   0  0  0  0  0  0  0  0  0  0  0  0
  -30.5830  -13.0650   18.9710 C   0  0  0  0  0  2  0  0  0  0  0  0
  -29.6000  -12.8390   17.7900 C   0  0  0  0  0  2  0  0  0  0  0  0
  -28.1770  -12.5580   18.3040 C   0  0  0  0  0  2  0  0  0  0  0  0
  -27.7880  -13.4960   19.4730 C   0  0  0  0  0  3  0  0  0  0  0  0
  -28.8990  -13.6560   20.5330 C   0  0  0  0  0  2  0  0  0  0  0  0
  -30.0780  -14.2010   19.8400 N   0  0  0  0  0  0  0  0  0  0  0  0
  -31.8090  -15.5170   19.4740 O   0  0  0  0  0  0  0  0  0  0  0  0
  -29.8760  -16.8120   20.0700 N   0  0  0  0  0  0  0  0  0  0  0  0
  -28.9760  -16.6040   20.4770 H   0  0  0  0  0  0  0  0  0  0  0  0
  -25.4760  -14.0170   20.4110 C   0  0  0  0  0  0  0  0  0  0  0  0
  -24.4410  -13.2260   20.8220 C   0  0  0  0  0  0  0  0  0  0  0  0
  -24.9030  -11.8780   20.7050 C   0  0  0  0  0  0  0  0  0  0  0  0
  -26.4980  -13.1540   20.0600 N   0  0  0  0  0  0  0  0  0  0  0  0
  -26.1710  -11.8570   20.3040 N   0  0  0  0  0  0  0  0  0  0  0  0
  -24.1860  -10.6080   20.8930 C   0  0  0  0  0  0  0  0  0  0  0  0
  -24.5990   -9.6580   21.8530 C   0  0  0  0  0  3  0  0  0  0  0  0
  -23.8770   -8.4590   22.0330 C   0  0  0  0  0  3  0  0  0  0  0  0
  -22.7260   -8.2000   21.2520 C   0  0  0  0  0  0  0  0  0  0  0  0
  -22.3300   -9.1380   20.2820 C   0  0  0  0  0  3  0  0  0  0  0  0
  -23.0550  -10.3270   20.1000 C   0  0  0  0  0  3  0  0  0  0  0  0
  -21.9810   -7.0500   21.3350 O   0  0  0  0  0  0  0  0  0  0  0  0
  -21.8030   -6.3920   22.5240 C   0  0  0  0  0  0  0  0  0  0  0  0
  -21.1850   -7.0090   23.6320 C   0  0  0  0  0  3  0  0  0  0  0  0
  -20.9580   -6.2740   24.8130 C   0  0  0  0  0  3  0  0  0  0  0  0
  -21.3410   -4.9230   24.8860 C   0  0  0  0  0  0  0  0  0  0  0  0
  -21.9550   -4.3050   23.7830 C   0  0  0  0  0  3  0  0  0  0  0  0
  -22.1820   -5.0360   22.6030 C   0  0  0  0  0  0  0  0  0  0  0  0
  -22.7530   -4.4290   21.5360 F   0  0  0  0  0  0  0  0  0  0  0  0
  -21.1200   -4.2150   26.0190 F   0  0  0  0  0  0  0  0  0  0  0  0
  -23.0650  -13.6910   21.1970 C   0  0  0  0  0  0  0  0  0  0  0  0
  -22.3990  -12.9780   22.0970 N   0  0  0  0  0  0  0  0  0  0  0  0
  -22.5910  -14.7260   20.7300 O   0  0  0  0  0  0  0  0  0  0  0  0
  -22.7970  -12.1420   22.4990 H   0  0  0  0  0  0  0  0  0  0  0  0
  -21.4790  -13.2760   22.3910 H   0  0  0  0  0  0  0  0  0  0  0  0
  -25.6240  -15.3950   20.2760 N   0  0  0  0  0  0  0  0  0  0  0  0
  -24.8700  -16.0400   20.4850 H   0  0  0  0  0  0  0  0  0  0  0  0
  -26.4180  -15.8480   19.8420 H   0  0  0  0  0  0  0  0  0  0  0  0
  -27.9100  -24.2080   19.8930 C   0  0  0  0  0  2  0  0  0  0  0  0
  -28.0950  -25.8390   20.2210 O   0  0  0  0  0  0  0  0  0  0  0  0
  -24.6410  -31.9360   23.1220 C   0  0  0  0  0  0  0  0  0  0  0  0
  -27.1020  -26.9680   20.1130 C   0  0  0  0  0  0  0  0  0  0  0  0
  -23.3960  -30.5060   21.5540 C   0  0  0  0  0  3  0  0  0  0  0  0
  -24.8010  -28.8760   20.1050 C   0  0  0  0  0  0  0  0  0  0  0  0
  -25.9580  -30.7080   21.3190 C   0  0  0  0  0  2  0  0  0  0  0  0
  -26.0080  -29.2820   20.6830 C   0  0  0  0  0  0  0  0  0  0  0  0
  -27.1460  -28.3500   20.6670 C   0  0  0  0  0  3  0  0  0  0  0  0
  -25.8660  -26.7310   19.4660 C   0  0  0  0  0  3  0  0  0  0  0  0
  -24.7580  -27.6220   19.4710 C   0  0  0  0  0  3  0  0  0  0  0  0
  -23.5810  -29.7970   20.1820 C   0  0  0  0  0  2  0  0  0  0  0  0
  -24.6890  -31.0800   22.0490 N   0  0  0  0  0  0  0  0  0  0  0  0
  -23.5690  -32.2340   23.6750 O   0  0  0  0  0  0  0  0  0  0  0  0
  -22.7360  -29.5300   22.5620 C   0  0  0  0  0  0  0  0  0  0  0  0
  -21.4100  -29.3190   22.4540 N   0  0  0  0  0  0  0  0  0  0  0  0
  -23.4240  -28.9600   23.4120 O   0  0  0  0  0  0  0  0  0  0  0  0
  -20.9050  -29.8280   21.7430 H   0  0  0  0  0  0  0  0  0  0  0  0
  -18.0870  -27.9550   22.9770 C   0  0  0  0  0  0  0  0  0  0  0  0
  -20.6220  -28.3870   23.2680 C   0  0  0  0  0  3  0  0  0  0  0  0
  -20.8180  -26.9290   22.7890 C   0  0  0  0  0  2  0  0  0  0  0  0
  -19.7590  -26.4810   21.7770 C   0  0  0  0  0  2  0  0  0  0  0  0
  -18.3570  -26.5810   22.3850 C   0  0  0  0  0  2  0  0  0  0  0  0
  -19.1510  -28.8080   23.3760 C   0  0  0  0  0  0  0  0  0  0  0  0
  -18.8430  -30.0860   23.8930 C   0  0  0  0  0  3  0  0  0  0  0  0
  -17.5070  -30.5130   24.0100 C   0  0  0  0  0  3  0  0  0  0  0  0
  -16.4590  -29.6590   23.6230 C   0  0  0  0  0  3  0  0  0  0  0  0
  -16.7500  -28.3810   23.1130 C   0  0  0  0  0  3  0  0  0  0  0  0
  -25.9300  -32.5950   23.7000 C   0  0  0  0  0  3  0  0  0  0  0  0
  -25.6000  -33.9790   24.0870 N   0  0  0  0  0  0  0  0  0  0  0  0
  -25.8770  -35.0680   23.3580 C   0  0  0  0  0  0  0  0  0  0  0  0
  -26.5000  -35.0160   22.2940 O   0  0  0  0  0  0  0  0  0  0  0  0
  -25.0340  -34.0900   24.9150 H   0  0  0  0  0  0  0  0  0  0  0  0
  -24.1080  -36.8510   23.1540 C   0  0  0  0  0  1  0  0  0  0  0  0
  -25.3910  -36.4330   23.8910 C   0  0  0  0  0  3  0  0  0  0  0  0
  -27.5400  -37.3330   24.6690 C   0  0  0  0  0  1  0  0  0  0  0  0
  -26.4020  -37.5060   23.7700 N   0  0  0  0  0  0  0  0  0  0  0  0
  -25.9870  -38.4160   23.9550 H   0  0  0  0  0  0  0  0  0  0  0  0
  -26.5230  -31.8150   24.9380 C   0  0  1  0  0  0  0  0  0  0  0  0
  -25.4800  -31.5060   26.0380 C   0  0  0  0  0  1  0  0  0  0  0  0
  -27.1450  -30.4710   24.4990 C   0  0  0  0  0  1  0  0  0  0  0  0
  -27.6660  -32.6380   25.5770 C   0  0  0  0  0  1  0  0  0  0  0  0
  1  2  1  0
  3  4  2  0
  3  5  1  0
  4  6  1  0
  5  1  2  0
  6  2  2  0
  6  7  1  0
  8  9  1  0
  8 10  1  0
  9 10  1  0
 10 19  1  1
 10  4  1  0
 11 19  1  0
 12 17  1  0
 13 14  1  0
 13 12  1  0
 15 14  1  0
 15 24  1  0
 15 16  1  0
 17 11  1  0
 17 16  1  0
 18 11  2  0
 19 20  1  0
 21 22  2  0
 22 41  1  0
 23 22  1  0
 23 26  1  0
 24 25  1  0
 24 21  1  0
 25 23  2  0
 26 27  1  0
 27 28  2  0
 29 32  1  0
 29 28  1  0
 30 29  2  0
 31 30  1  0
 31 26  2  0
 32 33  1  0
 33 38  2  0
 33 34  1  0
 34 35  2  0
 35 36  1  0
 36 40  1  0
 37 36  2  0
 38 37  1  0
 39 38  1  0
 41 42  1  0
 42 45  1  0
 42 44  1  0
 43 41  2  0
 46 21  1  0
 46 47  1  0
 48 46  1  0
 49 50  1  0
 49  5  1  0
 51 62  2  0
 52 50  1  0
 52 57  1  0
 53 61  1  0
 53 63  1  0
 54 60  1  0
 54 56  1  0
 55 61  1  0
 56 55  1  0
 57 56  2  0
 58 59  1  0
 58 52  2  0
 59 54  2  0
 60 53  1  0
 61 51  1  0
 63 65  2  0
 64 63  1  0
 66 64  1  0
 67 76  2  0
 67 72  1  0
 68 64  1  0
 68 72  1  0
 69 68  1  0
 70 71  1  0
 70 69  1  0
 71 67  1  0
 72 73  2  0
 73 74  1  0
 75 74  2  0
 76 75  1  0
 77 51  1  0
 77 78  1  0
 77 87  1  0
 78 81  1  0
 79 83  1  0
 79 78  1  0
 80 79  2  0
 83 82  1  0
 85 83  1  0
 85 86  1  0
 85 84  1  0
 87 90  1  1
 87 88  1  0
 89 87  1  0
M  ISO  4  11 100  19 100  49 101  50 101
M  END
>  <TORSDO>  (8) 
F 18

>  <SCORE>  (8) 
-16.026

>  <name>  (8) 
7

>  <ligand_id>  (8) 
7

>  <original_smiles>  (8) 
[H]c1c([H])c([H])c2c(c1[H])C([H])([H])C([H])([H])C([H])([H])C2([H])N([H])C(=O)C1([H])N(C(=O)C([H])(N([H])C(=O)C([H])(N([H])C([H])([H])[H])C([H])([H])[H])C(C([H])([H])[H])(C([H])([H])[H])C([H])([H])[H])C([H])([H])c2c([H])c(OC([H])([H])c3c([H])c([H])c(C([H])([H])[H])c(C4(N([H])C(=O)N5C([H])([H])C([H])([H])C([H])([H])C([H])(n6nc(-c7c([H])c([H])c(Oc8c([H])c([H])c(F)c([H])c8F)c([H])c7[H])c(C(=O)N([H])[H])c6N([H])[H])C5([H])[H])C([H])([H])C4([H])[H])c3[H])c([H])c([H])c2C1([H])[H]

>  <smiles>  (8) 
[H]c1c([H])c([H])c2c(c1[H])C([H])([H])C([H])([H])C([H])([H])C2([H])N([H])C(=O)C1([H])N(C(=O)C([H])(N([H])C(=O)C([H])(N([H])C([H])([H])[H])C([H])([H])[H])C(C([H])([H])[H])(C([H])([H])[H])C([H])([H])[H])C([H])([H])c2c([H])c(OC([H])([H])c3c([H])c([H])c(C([H])([H])[H])c(C4(N([H])C(=O)N5C([H])([H])C([H])([H])C([H])([H])C([H])(n6nc(-c7c([H])c([H])c(Oc8c([H])c([H])c(F)c([H])c8F)c([H])c7[H])c(C(=O)N([H])[H])c6N([H])[H])C5([H])[H])C([H])([H])C4([H])[H])c3[H])c([H])c([H])c2C1([H])[H]

$$$$
8:0:0
     RDKit          3D

 91100  0  0  1  0  0  0  0  0999 V2000
  -30.2500  -17.1350   20.6440 C   0  0  0  0  0  0  0  0  0  0  0  0
  -32.0760  -18.9790   20.5200 C   0  0  0  0  0  0  0  0  0  0  0  0
  -31.6340  -17.5680   20.0920 C   0  0  0  0  0  2  0  0  0  0  0  0
  -29.3500  -18.4060   21.0140 C   0  0  0  0  0  2  0  0  0  0  0  0
  -30.9260  -21.2160   21.1080 C   0  0  0  0  0  2  0  0  0  0  0  0
  -31.1570  -20.0910   20.0910 C   0  0  0  0  0  3  0  0  0  0  0  0
  -29.6760  -19.7650   20.2230 C   0  0  0  0  0  3  0  0  0  0  0  0
  -29.8530  -15.8770   20.8180 N   0  0  0  0  0  0  0  0  0  0  0  0
  -29.4810  -21.1360   20.8800 N   0  0  2  0  0  4  0  0  0  0  0  0
  -33.1070  -19.1140   21.1850 O   0  0  0  0  0  0  0  0  0  0  0  0
  -28.9870  -21.0630   21.7590 H   0  0  0  0  0  0  0  0  0  0  0  0
  -30.6250  -14.7110   20.4660 C   0  0  0  0  0  0  0  0  0  0  0  0
  -30.3810  -12.4410   19.4510 C   0  0  0  0  0  2  0  0  0  0  0  0
  -29.4830  -12.5610   18.2010 C   0  0  0  0  0  2  0  0  0  0  0  0
  -27.9990  -12.4120   18.5900 C   0  0  0  0  0  2  0  0  0  0  0  0
  -27.6120  -13.2950   19.8070 C   0  0  0  0  0  3  0  0  0  0  0  0
  -28.6420  -13.1860   20.9510 C   0  0  0  0  0  2  0  0  0  0  0  0
  -29.9680  -13.5030   20.4010 N   0  0  0  0  0  0  0  0  0  0  0  0
  -31.7970  -14.7340   20.0900 O   0  0  0  0  0  0  0  0  0  0  0  0
  -25.2060  -13.9010   20.4700 C   0  0  0  0  0  0  0  0  0  0  0  0
  -24.1290  -13.1350   20.8240 C   0  0  0  0  0  0  0  0  0  0  0  0
  -24.5870  -11.7820   20.8240 C   0  0  0  0  0  0  0  0  0  0  0  0
  -26.2540  -13.0150   20.2700 N   0  0  0  0  0  0  0  0  0  0  0  0
  -25.8850  -11.7360   20.5450 N   0  0  0  0  0  0  0  0  0  0  0  0
  -23.8520  -10.5260   21.0190 C   0  0  0  0  0  0  0  0  0  0  0  0
  -24.2670   -9.5630   21.9660 C   0  0  0  0  0  3  0  0  0  0  0  0
  -23.5330   -8.3720   22.1460 C   0  0  0  0  0  3  0  0  0  0  0  0
  -22.3660   -8.1340   21.3800 C   0  0  0  0  0  0  0  0  0  0  0  0
  -21.9690   -9.0840   20.4240 C   0  0  0  0  0  3  0  0  0  0  0  0
  -22.7060  -10.2670   20.2400 C   0  0  0  0  0  3  0  0  0  0  0  0
  -21.6040   -6.9940   21.4690 O   0  0  0  0  0  0  0  0  0  0  0  0
  -21.5450   -6.2550   22.6240 C   0  0  0  0  0  0  0  0  0  0  0  0
  -21.1260   -6.8200   23.8480 C   0  0  0  0  0  3  0  0  0  0  0  0
  -21.0130   -6.0080   24.9940 C   0  0  0  0  0  3  0  0  0  0  0  0
  -21.3090   -4.6340   24.9180 C   0  0  0  0  0  0  0  0  0  0  0  0
  -21.7220   -4.0690   23.6980 C   0  0  0  0  0  3  0  0  0  0  0  0
  -21.8380   -4.8780   22.5540 C   0  0  0  0  0  0  0  0  0  0  0  0
  -22.2160   -4.3260   21.3760 F   0  0  0  0  0  0  0  0  0  0  0  0
  -21.1940   -3.8520   26.0170 F   0  0  0  0  0  0  0  0  0  0  0  0
  -22.7270  -13.6210   21.0560 C   0  0  0  0  0  0  0  0  0  0  0  0
  -21.9750  -12.9420   21.9160 N   0  0  0  0  0  0  0  0  0  0  0  0
  -22.3060  -14.6410   20.5120 O   0  0  0  0  0  0  0  0  0  0  0  0
  -22.3270  -12.1210   22.3860 H   0  0  0  0  0  0  0  0  0  0  0  0
  -21.0340  -13.2520   22.1120 H   0  0  0  0  0  0  0  0  0  0  0  0
  -25.3770  -15.2690   20.2800 N   0  0  0  0  0  0  0  0  0  0  0  0
  -24.6150  -15.9300   20.3820 H   0  0  0  0  0  0  0  0  0  0  0  0
  -26.2500  -15.7040   20.0090 H   0  0  0  0  0  0  0  0  0  0  0  0
  -28.9060  -22.3140   20.0760 C   0  0  0  0  0  2  0  0  0  0  0  0
  -29.0630  -23.8230   20.6390 C   0  0  0  0  0  3  0  0  0  0  0  0
  -28.1580  -24.9750   19.9800 C   0  0  0  0  0  3  0  0  0  0  0  0
  -28.3450  -26.4260   20.2940 O   0  0  0  0  0  0  0  0  0  0  0  0
  -24.6230  -31.8800   23.2420 C   0  0  0  0  0  0  0  0  0  0  0  0
  -27.2410  -27.3020   20.2000 C   0  0  0  0  0  0  0  0  0  0  0  0
  -23.4250  -30.4800   21.5980 C   0  0  0  0  0  3  0  0  0  0  0  0
  -24.8820  -28.9350   20.1720 C   0  0  0  0  0  0  0  0  0  0  0  0
  -25.9670  -30.7950   21.4260 C   0  0  0  0  0  2  0  0  0  0  0  0
  -26.0490  -29.4140   20.7800 C   0  0  0  0  0  0  0  0  0  0  0  0
  -27.2300  -28.6090   20.7860 C   0  0  0  0  0  3  0  0  0  0  0  0
  -26.0550  -26.8950   19.5440 C   0  0  0  0  0  3  0  0  0  0  0  0
  -24.8880  -27.6830   19.5430 C   0  0  0  0  0  3  0  0  0  0  0  0
  -23.6440  -29.8080   20.2180 C   0  0  0  0  0  2  0  0  0  0  0  0
  -24.6910  -31.0690   22.1450 N   0  0  0  0  0  0  0  0  0  0  0  0
  -23.5380  -32.1570   23.7720 O   0  0  0  0  0  0  0  0  0  0  0  0
  -22.7610  -29.4620   22.5570 C   0  0  0  0  0  0  0  0  0  0  0  0
  -21.4340  -29.2880   22.4310 N   0  0  0  0  0  0  0  0  0  0  0  0
  -23.4380  -28.8330   23.3740 O   0  0  0  0  0  0  0  0  0  0  0  0
  -20.9450  -29.8500   21.7480 H   0  0  0  0  0  0  0  0  0  0  0  0
  -18.0530  -28.1030   22.9310 C   0  0  0  0  0  0  0  0  0  0  0  0
  -20.6120  -28.3530   23.2010 C   0  0  0  0  0  3  0  0  0  0  0  0
  -20.7080  -26.9210   22.6230 C   0  0  0  0  0  2  0  0  0  0  0  0
  -19.6050  -26.6040   21.6080 C   0  0  0  0  0  2  0  0  0  0  0  0
  -18.2240  -26.7550   22.2530 C   0  0  0  0  0  2  0  0  0  0  0  0
  -19.1740  -28.8610   23.3620 C   0  0  0  0  0  0  0  0  0  0  0  0
  -18.9600  -30.1230   23.9570 C   0  0  0  0  0  3  0  0  0  0  0  0
  -17.6560  -30.6280   24.1230 C   0  0  0  0  0  3  0  0  0  0  0  0
  -16.5490  -29.8670   23.7080 C   0  0  0  0  0  3  0  0  0  0  0  0
  -16.7480  -28.6060   23.1180 C   0  0  0  0  0  3  0  0  0  0  0  0
  -25.9030  -32.5150   23.8670 C   0  0  0  0  0  3  0  0  0  0  0  0
  -26.4130  -31.7470   25.1490 C   0  0  1  0  0  0  0  0  0  0  0  0
  -25.3150  -31.5160   26.2140 C   0  0  0  0  0  1  0  0  0  0  0  0
  -26.9940  -30.3670   24.7650 C   0  0  0  0  0  1  0  0  0  0  0  0
  -27.5630  -32.5420   25.8130 C   0  0  0  0  0  1  0  0  0  0  0  0
  -25.5920  -33.9130   24.1910 N   0  0  0  0  0  0  0  0  0  0  0  0
  -25.9230  -34.9650   23.4300 C   0  0  0  0  0  0  0  0  0  0  0  0
  -26.5910  -34.8580   22.3980 O   0  0  0  0  0  0  0  0  0  0  0  0
  -24.9980  -34.0710   24.9930 H   0  0  0  0  0  0  0  0  0  0  0  0
  -24.1910  -36.7560   23.0770 C   0  0  0  0  0  1  0  0  0  0  0  0
  -25.4360  -36.3540   23.8840 C   0  0  0  0  0  3  0  0  0  0  0  0
  -27.5740  -37.2470   24.6990 C   0  0  0  0  0  1  0  0  0  0  0  0
  -26.4670  -37.4090   23.7610 N   0  0  0  0  0  0  0  0  0  0  0  0
  -26.0610  -38.3280   23.9060 H   0  0  0  0  0  0  0  0  0  0  0  0
  1  8  2  0
  1  4  1  0
  2 10  2  0
  3  2  1  0
  3  1  1  0
  6  7  1  0
  6  2  1  0
  6  5  1  0
  7  9  1  0
  7  4  1  0
  9  5  1  0
  9 11  1  1
 12  8  1  0
 13 18  1  0
 14 15  1  0
 14 13  1  0
 16 15  1  0
 16 23  1  0
 16 17  1  0
 18 12  1  0
 18 17  1  0
 19 12  2  0
 20 21  2  0
 21 22  1  0
 21 40  1  0
 22 25  1  0
 23 20  1  0
 23 24  1  0
 24 22  2  0
 25 26  1  0
 26 27  2  0
 28 31  1  0
 28 27  1  0
 29 28  2  0
 30 29  1  0
 30 25  2  0
 31 32  1  0
 32 33  1  0
 33 34  2  0
 35 34  1  0
 35 39  1  0
 36 35  2  0
 37 32  2  0
 37 36  1  0
 38 37  1  0
 40 41  1  0
 41 44  1  0
 41 43  1  0
 42 40  2  0
 45 46  1  0
 45 20  1  0
 47 45  1  0
 48 49  1  0
 48  9  1  0
 50 51  1  0
 50 49  2  0
 52 63  2  0
 53 51  1  0
 53 58  1  0
 54 62  1  0
 54 64  1  0
 55 61  1  0
 55 57  1  0
 56 62  1  0
 57 58  2  0
 57 56  1  0
 59 53  2  0
 60 59  1  0
 60 55  2  0
 61 54  1  0
 62 52  1  0
 64 66  2  0
 65 64  1  0
 67 65  1  0
 68 77  2  0
 68 73  1  0
 69 65  1  0
 69 73  1  0
 70 69  1  0
 71 72  1  0
 71 70  1  0
 72 68  1  0
 73 74  2  0
 74 75  1  0
 76 75  2  0
 77 76  1  0
 78 52  1  0
 78 83  1  0
 78 79  1  0
 79 82  1  1
 79 80  1  0
 81 79  1  0
 83 86  1  0
 84 88  1  0
 84 83  1  0
 85 84  2  0
 88 87  1  0
 90 88  1  0
 90 91  1  0
 90 89  1  0
M  ISO  4   8 100  12 100  50 101  51 101
M  END
>  <TORSDO>  (9) 
F 19

>  <SCORE>  (9) 
-14.236

>  <name>  (9) 
8

>  <ligand_id>  (9) 
8

>  <original_smiles>  (9) 
[H]c1c([H])c([H])c2c(c1[H])C([H])([H])C([H])([H])C([H])([H])C2([H])N([H])C(=O)C1([H])N(C(=O)C([H])(N([H])C(=O)C([H])(N([H])C([H])([H])[H])C([H])([H])[H])C(C([H])([H])[H])(C([H])([H])[H])C([H])([H])[H])C([H])([H])c2c([H])c(OC([H])([H])C([H])([H])C([H])([H])[N+]3([H])C([H])([H])C4([H])C(=O)C([H])([H])C(=NC(=O)N5C([H])([H])C([H])([H])C([H])([H])C([H])(n6nc(-c7c([H])c([H])c(Oc8c([H])c([H])c(F)c([H])c8F)c([H])c7[H])c(C(=O)N([H])[H])c6N([H])[H])C5([H])[H])C([H])([H])C43[H])c([H])c([H])c2C1([H])[H]

>  <smiles>  (9) 
[H]c1c([H])c([H])c2c(c1[H])C([H])([H])C([H])([H])C([H])([H])C2([H])N([H])C(=O)C1([H])N(C(=O)C([H])(N([H])C(=O)C([H])(N([H])C([H])([H])[H])C([H])([H])[H])C(C([H])([H])[H])(C([H])([H])[H])C([H])([H])[H])C([H])([H])c2c([H])c(OC([H])([H])C([H])([H])C([H])([H])[N+]3([H])C([H])([H])C4([H])C(=O)C([H])([H])C(=NC(=O)N5C([H])([H])C([H])([H])C([H])([H])C([H])(n6nc(-c7c([H])c([H])c(Oc8c([H])c([H])c(F)c([H])c8F)c([H])c7[H])c(C(=O)N([H])[H])c6N([H])[H])C5([H])[H])C([H])([H])C43[H])c([H])c([H])c2C1([H])[H]

$$$$
9:0:0
     RDKit          3D

 91100  0  0  1  0  0  0  0  0999 V2000
  -29.6210  -21.9190   22.3910 C   0  0  0  0  0  3  0  0  0  0  0  0
  -29.6580  -20.5520   21.9850 C   0  0  0  0  0  3  0  0  0  0  0  0
  -28.7270  -21.1820   19.8340 C   0  0  0  0  0  3  0  0  0  0  0  0
  -28.6780  -22.5680   20.2550 C   0  0  0  0  0  0  0  0  0  0  0  0
  -29.1180  -22.9200   21.5240 C   0  0  0  0  0  0  0  0  0  0  0  0
  -29.2120  -20.1220   20.7040 C   0  0  0  0  0  0  0  0  0  0  0  0
  -28.2040  -23.8550   19.5890 C   0  0  0  0  0  0  0  0  0  0  0  0
  -28.9660  -24.4300   21.8000 C   0  0  0  0  0  2  0  0  0  0  0  0
  -28.0660  -25.0120   20.6570 C   0  0  0  0  0  3  0  0  0  0  0  0
  -27.9150  -23.9950   18.3980 O   0  0  0  0  0  0  0  0  0  0  0  0
  -28.3040  -26.4460   20.2440 O   0  0  0  0  0  0  0  0  0  0  0  0
  -24.6050  -31.9310   23.2450 C   0  0  0  0  0  0  0  0  0  0  0  0
  -27.2050  -27.3330   20.2090 C   0  0  0  0  0  0  0  0  0  0  0  0
  -23.3960  -30.5240   21.6140 C   0  0  0  0  0  3  0  0  0  0  0  0
  -24.8450  -28.9670   20.1860 C   0  0  0  0  0  0  0  0  0  0  0  0
  -25.9360  -30.8430   21.4170 C   0  0  0  0  0  2  0  0  0  0  0  0
  -26.0190  -29.4580   20.7740 C   0  0  0  0  0  0  0  0  0  0  0  0
  -27.2050  -28.6550   20.7670 C   0  0  0  0  0  3  0  0  0  0  0  0
  -26.0100  -26.9060   19.5930 C   0  0  0  0  0  3  0  0  0  0  0  0
  -24.8450  -27.7010   19.5830 C   0  0  0  0  0  3  0  0  0  0  0  0
  -23.6060  -29.8430   20.2350 C   0  0  0  0  0  2  0  0  0  0  0  0
  -24.6650  -31.1180   22.1490 N   0  0  0  0  0  0  0  0  0  0  0  0
  -23.5220  -32.2080   23.7840 O   0  0  0  0  0  0  0  0  0  0  0  0
  -22.7400  -29.5100   22.5830 C   0  0  0  0  0  0  0  0  0  0  0  0
  -21.4160  -29.3170   22.4560 N   0  0  0  0  0  0  0  0  0  0  0  0
  -23.4240  -28.9010   23.4100 O   0  0  0  0  0  0  0  0  0  0  0  0
  -20.9230  -29.8610   21.7630 H   0  0  0  0  0  0  0  0  0  0  0  0
  -18.0540  -28.0780   22.9570 C   0  0  0  0  0  0  0  0  0  0  0  0
  -20.6070  -28.3760   23.2330 C   0  0  0  0  0  3  0  0  0  0  0  0
  -20.7300  -26.9390   22.6750 C   0  0  0  0  0  2  0  0  0  0  0  0
  -19.6370  -26.5920   21.6590 C   0  0  0  0  0  2  0  0  0  0  0  0
  -18.2500  -26.7250   22.2950 C   0  0  0  0  0  2  0  0  0  0  0  0
  -19.1600  -28.8610   23.3830 C   0  0  0  0  0  0  0  0  0  0  0  0
  -18.9200  -30.1270   23.9610 C   0  0  0  0  0  3  0  0  0  0  0  0
  -17.6080  -30.6100   24.1180 C   0  0  0  0  0  3  0  0  0  0  0  0
  -16.5160  -29.8260   23.7060 C   0  0  0  0  0  3  0  0  0  0  0  0
  -16.7400  -28.5620   23.1320 C   0  0  0  0  0  3  0  0  0  0  0  0
  -25.8870  -32.5730   23.8580 C   0  0  0  0  0  3  0  0  0  0  0  0
  -25.5740  -33.9720   24.1830 N   0  0  0  0  0  0  0  0  0  0  0  0
  -25.9020  -35.0250   23.4230 C   0  0  0  0  0  0  0  0  0  0  0  0
  -26.5710  -34.9200   22.3910 O   0  0  0  0  0  0  0  0  0  0  0  0
  -24.9840  -34.1270   24.9890 H   0  0  0  0  0  0  0  0  0  0  0  0
  -24.1780  -36.8190   23.0580 C   0  0  0  0  0  1  0  0  0  0  0  0
  -25.4120  -36.4130   23.8790 C   0  0  0  0  0  3  0  0  0  0  0  0
  -27.5410  -37.2970   24.7260 C   0  0  0  0  0  1  0  0  0  0  0  0
  -26.4460  -37.4660   23.7740 N   0  0  0  0  0  0  0  0  0  0  0  0
  -26.0390  -38.3850   23.9230 H   0  0  0  0  0  0  0  0  0  0  0  0
  -26.4120  -31.8110   25.1360 C   0  0  1  0  0  0  0  0  0  0  0  0
  -25.3250  -31.5730   26.2110 C   0  0  0  0  0  1  0  0  0  0  0  0
  -27.0020  -30.4340   24.7520 C   0  0  0  0  0  1  0  0  0  0  0  0
  -27.5610  -32.6160   25.7910 C   0  0  0  0  0  1  0  0  0  0  0  0
  -29.0940  -18.5580   20.3570 C   0  0  0  0  0  3  0  0  0  0  0  0
  -30.2250  -17.4480   20.7230 C   0  0  0  0  0  3  0  0  0  0  0  0
  -30.6520  -14.8380   20.3840 C   0  0  0  0  0  0  0  0  0  0  0  0
  -30.4870  -12.5500   19.3770 C   0  0  0  0  0  2  0  0  0  0  0  0
  -29.5580  -12.5830   18.1420 C   0  0  0  0  0  2  0  0  0  0  0  0
  -28.0830  -12.4190   18.5570 C   0  0  0  0  0  2  0  0  0  0  0  0
  -27.6910  -13.3230   19.7550 C   0  0  0  0  0  3  0  0  0  0  0  0
  -28.7380  -13.2480   20.8890 C   0  0  0  0  0  2  0  0  0  0  0  0
  -30.0360  -13.6080   20.3090 N   0  0  0  0  0  0  0  0  0  0  0  0
  -31.8380  -14.9530   20.0600 O   0  0  0  0  0  0  0  0  0  0  0  0
  -29.8680  -15.9550   20.6430 N   0  0  0  0  0  0  0  0  0  0  0  0
  -28.9060  -15.7370   20.8510 H   0  0  0  0  0  0  0  0  0  0  0  0
  -25.2920  -13.9180   20.4450 C   0  0  0  0  0  0  0  0  0  0  0  0
  -24.2230  -13.1460   20.8090 C   0  0  0  0  0  0  0  0  0  0  0  0
  -24.6880  -11.7950   20.7970 C   0  0  0  0  0  0  0  0  0  0  0  0
  -26.3410  -13.0390   20.2320 N   0  0  0  0  0  0  0  0  0  0  0  0
  -25.9830  -11.7570   20.5050 N   0  0  0  0  0  0  0  0  0  0  0  0
  -23.9600  -10.5330   20.9880 C   0  0  0  0  0  0  0  0  0  0  0  0
  -24.3750   -9.5780   21.9420 C   0  0  0  0  0  3  0  0  0  0  0  0
  -23.6460   -8.3830   22.1210 C   0  0  0  0  0  3  0  0  0  0  0  0
  -22.4910   -8.1320   21.3440 C   0  0  0  0  0  0  0  0  0  0  0  0
  -22.0960   -9.0750   20.3780 C   0  0  0  0  0  3  0  0  0  0  0  0
  -22.8250  -10.2610   20.1970 C   0  0  0  0  0  3  0  0  0  0  0  0
  -21.7360   -6.9870   21.4320 O   0  0  0  0  0  0  0  0  0  0  0  0
  -21.6520   -6.2690   22.5980 C   0  0  0  0  0  0  0  0  0  0  0  0
  -21.1750   -6.8440   23.7960 C   0  0  0  0  0  3  0  0  0  0  0  0
  -21.0380   -6.0510   24.9530 C   0  0  0  0  0  3  0  0  0  0  0  0
  -21.3710   -4.6830   24.9130 C   0  0  0  0  0  0  0  0  0  0  0  0
  -21.8420   -4.1070   23.7200 C   0  0  0  0  0  3  0  0  0  0  0  0
  -21.9780   -4.8980   22.5650 C   0  0  0  0  0  0  0  0  0  0  0  0
  -22.4120   -4.3330   21.4120 F   0  0  0  0  0  0  0  0  0  0  0  0
  -21.2320   -3.9190   26.0220 F   0  0  0  0  0  0  0  0  0  0  0  0
  -22.8190  -13.6230   21.0530 C   0  0  0  0  0  0  0  0  0  0  0  0
  -22.0780  -12.9350   21.9120 N   0  0  0  0  0  0  0  0  0  0  0  0
  -22.3880  -14.6450   20.5180 O   0  0  0  0  0  0  0  0  0  0  0  0
  -22.4360  -12.1100   22.3700 H   0  0  0  0  0  0  0  0  0  0  0  0
  -21.1380  -13.2380   22.1180 H   0  0  0  0  0  0  0  0  0  0  0  0
  -25.4530  -15.2900   20.2560 N   0  0  0  0  0  0  0  0  0  0  0  0
  -24.6870  -15.9450   20.3700 H   0  0  0  0  0  0  0  0  0  0  0  0
  -26.3010  -15.7320   19.9250 H   0  0  0  0  0  0  0  0  0  0  0  0
  2  1  1  0
  3  4  2  0
  3  6  1  0
  4  5  1  0
  5  8  1  0
  5  1  2  0
  6  2  2  0
  7  4  1  0
  7  9  1  0
  9 11  1  0
  9  8  1  0
 10  7  2  0
 12 23  2  0
 13 11  1  0
 13 18  1  0
 14 22  1  0
 14 24  1  0
 15 21  1  0
 15 17  1  0
 16 22  1  0
 17 16  1  0
 18 17  2  0
 19 13  2  0
 20 19  1  0
 20 15  2  0
 21 14  1  0
 22 12  1  0
 24 26  2  0
 25 24  1  0
 27 25  1  0
 28 37  2  0
 28 33  1  0
 29 25  1  0
 29 33  1  0
 30 29  1  0
 31 32  1  0
 31 30  1  0
 32 28  1  0
 33 34  2  0
 34 35  1  0
 36 35  2  0
 37 36  1  0
 38 12  1  0
 38 39  1  0
 38 48  1  0
 39 42  1  0
 40 44  1  0
 40 39  1  0
 41 40  2  0
 44 43  1  0
 46 44  1  0
 46 47  1  0
 46 45  1  0
 48 51  1  1
 48 49  1  0
 50 48  1  0
 52  6  1  0
 52 53  2  0
 54 62  1  0
 55 60  1  0
 56 57  1  0
 56 55  1  0
 58 57  1  0
 58 67  1  0
 58 59  1  0
 60 54  1  0
 60 59  1  0
 61 54  2  0
 62 53  1  0
 62 63  1  0
 64 65  2  0
 65 84  1  0
 66 65  1  0
 66 69  1  0
 67 64  1  0
 67 68  1  0
 68 66  2  0
 69 70  1  0
 70 71  2  0
 72 75  1  0
 72 71  1  0
 73 72  2  0
 74 73  1  0
 74 69  2  0
 75 76  1  0
 76 77  1  0
 77 78  2  0
 79 78  1  0
 79 83  1  0
 80 79  2  0
 81 76  2  0
 81 80  1  0
 82 81  1  0
 84 85  1  0
 85 88  1  0
 85 87  1  0
 86 84  2  0
 89 90  1  0
 89 64  1  0
 91 89  1  0
M  ISO  4   9 101  11 101  54 100  62 100
M  END
>  <TORSDO>  (10) 
F 18

>  <SCORE>  (10) 
-14.621

>  <name>  (10) 
9

>  <ligand_id>  (10) 
9

>  <original_smiles>  (10) 
[H]c1c([H])c([H])c2c(c1[H])C([H])([H])C([H])([H])C([H])([H])C2([H])N([H])C(=O)C1([H])N(C(=O)C([H])(N([H])C(=O)C([H])(N([H])C([H])([H])[H])C([H])([H])[H])C(C([H])([H])[H])(C([H])([H])[H])C([H])([H])[H])C([H])([H])c2c([H])c(OC3([H])C(=O)c4c([H])c(C([H])([H])C([H])([H])N([H])C(=O)N5C([H])([H])C([H])([H])C([H])([H])C([H])(n6nc(-c7c([H])c([H])c(Oc8c([H])c([H])c(F)c([H])c8F)c([H])c7[H])c(C(=O)N([H])[H])c6N([H])[H])C5([H])[H])c([H])c([H])c4C3([H])[H])c([H])c([H])c2C1([H])[H]

>  <smiles>  (10) 
[H]c1c([H])c([H])c2c(c1[H])C([H])([H])C([H])([H])C([H])([H])C2([H])N([H])C(=O)C1([H])N(C(=O)C([H])(N([H])C(=O)C([H])(N([H])C([H])([H])[H])C([H])([H])[H])C(C([H])([H])[H])(C([H])([H])[H])C([H])([H])[H])C([H])([H])c2c([H])c(OC3([H])C(=O)c4c([H])c(C([H])([H])C([H])([H])N([H])C(=O)N5C([H])([H])C([H])([H])C([H])([H])C([H])(n6nc(-c7c([H])c([H])c(Oc8c([H])c([H])c(F)c([H])c8F)c([H])c7[H])c(C(=O)N([H])[H])c6N([H])[H])C5([H])[H])c([H])c([H])c4C3([H])[H])c([H])c([H])c2C1([H])[H]

$$$$
10:0:0
     RDKit          3D

 92100  0  0  1  0  0  0  0  0999 V2000
  -30.0180  -21.9560   20.2440 C   0  0  0  0  0  2  0  0  0  0  0  0
  -29.6160  -23.2610   20.8250 N   0  0  0  0  0  4  0  0  0  0  0  0
  -30.3210  -23.5320   21.4940 H   0  0  0  0  0  0  0  0  0  0  0  0
  -28.7690  -23.0940   21.3460 H   0  0  0  0  0  0  0  0  0  0  0  0
  -29.3560  -24.3930   19.9010 C   0  0  0  0  0  2  0  0  0  0  0  0
  -28.5930  -25.5230   20.6320 C   0  0  0  0  0  2  0  0  0  0  0  0
  -28.5690  -26.7360   19.8740 O   0  0  0  0  0  0  0  0  0  0  0  0
  -24.5350  -31.6940   23.0260 C   0  0  0  0  0  0  0  0  0  0  0  0
  -27.3740  -27.4130   19.9070 C   0  0  0  0  0  0  0  0  0  0  0  0
  -23.3950  -30.2660   21.3520 C   0  0  0  0  0  3  0  0  0  0  0  0
  -24.9210  -28.8080   19.9180 C   0  0  0  0  0  0  0  0  0  0  0  0
  -25.9040  -30.7350   21.1740 C   0  0  0  0  0  2  0  0  0  0  0  0
  -26.0510  -29.3750   20.5200 C   0  0  0  0  0  0  0  0  0  0  0  0
  -27.2840  -28.6880   20.5060 C   0  0  0  0  0  3  0  0  0  0  0  0
  -26.2280  -26.8470   19.3100 C   0  0  0  0  0  3  0  0  0  0  0  0
  -25.0030  -27.5440   19.3060 C   0  0  0  0  0  3  0  0  0  0  0  0
  -23.6410  -29.6120   19.9650 C   0  0  0  0  0  2  0  0  0  0  0  0
  -24.6280  -30.9130   21.9090 N   0  0  0  0  0  0  0  0  0  0  0  0
  -23.4410  -31.9140   23.5640 O   0  0  0  0  0  0  0  0  0  0  0  0
  -22.7800  -29.2080   22.2950 C   0  0  0  0  0  0  0  0  0  0  0  0
  -21.4610  -28.9900   22.1730 N   0  0  0  0  0  0  0  0  0  0  0  0
  -23.4880  -28.5840   23.0920 O   0  0  0  0  0  0  0  0  0  0  0  0
  -20.9500  -29.5490   21.5030 H   0  0  0  0  0  0  0  0  0  0  0  0
  -18.1220  -27.7090   22.6800 C   0  0  0  0  0  0  0  0  0  0  0  0
  -20.6770  -28.0140   22.9280 C   0  0  0  0  0  3  0  0  0  0  0  0
  -20.8020  -26.6010   22.3120 C   0  0  0  0  0  2  0  0  0  0  0  0
  -19.6930  -26.2840   21.3030 C   0  0  0  0  0  2  0  0  0  0  0  0
  -18.3170  -26.3820   21.9680 C   0  0  0  0  0  2  0  0  0  0  0  0
  -19.2300  -28.4830   23.1190 C   0  0  0  0  0  0  0  0  0  0  0  0
  -18.9900  -29.7260   23.7430 C   0  0  0  0  0  3  0  0  0  0  0  0
  -17.6760  -30.1930   23.9390 C   0  0  0  0  0  3  0  0  0  0  0  0
  -16.5840  -29.4160   23.5170 C   0  0  0  0  0  3  0  0  0  0  0  0
  -16.8070  -28.1770   22.8910 C   0  0  0  0  0  3  0  0  0  0  0  0
  -25.7930  -32.3650   23.6620 C   0  0  0  0  0  3  0  0  0  0  0  0
  -25.4100  -33.7230   24.0740 N   0  0  0  0  0  0  0  0  0  0  0  0
  -25.6640  -34.8310   23.3660 C   0  0  0  0  0  0  0  0  0  0  0  0
  -26.3170  -34.8220   22.3180 O   0  0  0  0  0  0  0  0  0  0  0  0
  -24.8290  -33.7990   24.8960 H   0  0  0  0  0  0  0  0  0  0  0  0
  -23.8310  -36.5360   23.1300 C   0  0  0  0  0  1  0  0  0  0  0  0
  -25.1050  -36.1620   23.9040 C   0  0  0  0  0  3  0  0  0  0  0  0
  -27.1930  -37.1250   24.7670 C   0  0  0  0  0  1  0  0  0  0  0  0
  -26.0750  -37.2780   23.8400 N   0  0  0  0  0  0  0  0  0  0  0  0
  -25.6190  -38.1650   24.0380 H   0  0  0  0  0  0  0  0  0  0  0  0
  -26.3810  -31.5550   24.8820 C   0  0  1  0  0  0  0  0  0  0  0  0
  -25.3250  -31.1800   25.9500 C   0  0  0  0  0  1  0  0  0  0  0  0
  -27.0450  -30.2460   24.3970 C   0  0  0  0  0  1  0  0  0  0  0  0
  -27.4910  -32.3820   25.5740 C   0  0  0  0  0  1  0  0  0  0  0  0
  -29.4020  -20.8400   21.1180 C   0  0  0  0  0  2  0  0  0  0  0  0
  -31.0070  -18.9380   20.3540 C   0  0  0  0  0  3  0  0  0  0  0  0
  -28.8330  -18.4150   21.3160 C   0  0  0  0  0  3  0  0  0  0  0  0
  -31.2930  -17.5540   20.2650 C   0  0  0  0  0  3  0  0  0  0  0  0
  -29.1290  -17.0450   21.2580 C   0  0  0  0  0  3  0  0  0  0  0  0
  -29.7690  -19.3760   20.8840 C   0  0  0  0  0  0  0  0  0  0  0  0
  -30.3610  -16.5990   20.7410 C   0  0  0  0  0  0  0  0  0  0  0  0
  -30.9760  -14.4060   19.7680 C   0  0  0  0  0  0  0  0  0  0  0  0
  -30.4630  -12.3310   18.5250 C   0  0  0  0  0  2  0  0  0  0  0  0
  -29.4120  -12.6430   17.4410 C   0  0  0  0  0  2  0  0  0  0  0  0
  -27.9910  -12.5100   18.0260 C   0  0  0  0  0  2  0  0  0  0  0  0
  -27.8130  -13.2850   19.3620 C   0  0  0  0  0  3  0  0  0  0  0  0
  -28.9770  -12.9800   20.3320 C   0  0  0  0  0  2  0  0  0  0  0  0
  -30.2540  -13.2610   19.6450 N   0  0  0  0  0  0  0  0  0  0  0  0
  -31.9420  -14.6840   19.0540 O   0  0  0  0  0  0  0  0  0  0  0  0
  -30.5710  -15.1960   20.7710 N   0  0  0  0  0  0  0  0  0  0  0  0
  -29.9720  -14.7050   21.4170 H   0  0  0  0  0  0  0  0  0  0  0  0
  -25.5350  -13.8850   20.4110 C   0  0  0  0  0  0  0  0  0  0  0  0
  -24.4920  -13.1050   20.8420 C   0  0  0  0  0  0  0  0  0  0  0  0
  -24.9100  -11.7520   20.6500 C   0  0  0  0  0  0  0  0  0  0  0  0
  -26.5190  -13.0030   19.9830 N   0  0  0  0  0  0  0  0  0  0  0  0
  -26.1530  -11.7110   20.1850 N   0  0  0  0  0  0  0  0  0  0  0  0
  -24.1770  -10.4920   20.8290 C   0  0  0  0  0  0  0  0  0  0  0  0
  -24.5990   -9.5160   21.7580 C   0  0  0  0  0  3  0  0  0  0  0  0
  -23.8650   -8.3220   21.9250 C   0  0  0  0  0  3  0  0  0  0  0  0
  -22.6930   -8.0980   21.1650 C   0  0  0  0  0  0  0  0  0  0  0  0
  -22.2870   -9.0650   20.2290 C   0  0  0  0  0  3  0  0  0  0  0  0
  -23.0220  -10.2490   20.0590 C   0  0  0  0  0  3  0  0  0  0  0  0
  -21.9320   -6.9550   21.2390 O   0  0  0  0  0  0  0  0  0  0  0  0
  -21.7570   -6.2820   22.4220 C   0  0  0  0  0  0  0  0  0  0  0  0
  -21.1780   -6.9000   23.5520 C   0  0  0  0  0  3  0  0  0  0  0  0
  -20.9540   -6.1520   24.7250 C   0  0  0  0  0  3  0  0  0  0  0  0
  -21.2950   -4.7870   24.7670 C   0  0  0  0  0  0  0  0  0  0  0  0
  -21.8660   -4.1680   23.6410 C   0  0  0  0  0  3  0  0  0  0  0  0
  -22.0910   -4.9120   22.4700 C   0  0  0  0  0  0  0  0  0  0  0  0
  -22.6210   -4.3060   21.3810 F   0  0  0  0  0  0  0  0  0  0  0  0
  -21.0750   -4.0680   25.8920 F   0  0  0  0  0  0  0  0  0  0  0  0
  -23.1520  -13.5860   21.3190 C   0  0  0  0  0  0  0  0  0  0  0  0
  -22.5260  -12.8550   22.2350 N   0  0  0  0  0  0  0  0  0  0  0  0
  -22.6720  -14.6460   20.9170 O   0  0  0  0  0  0  0  0  0  0  0  0
  -22.9310  -12.0060   22.6040 H   0  0  0  0  0  0  0  0  0  0  0  0
  -21.6310  -13.1620   22.5890 H   0  0  0  0  0  0  0  0  0  0  0  0
  -25.7210  -15.2610   20.3350 N   0  0  0  0  0  0  0  0  0  0  0  0
  -25.0070  -15.9270   20.6100 H   0  0  0  0  0  0  0  0  0  0  0  0
  -26.5680  -15.7090   20.0070 H   0  0  0  0  0  0  0  0  0  0  0  0
  1  2  1  0
  1 48  1  0
  2  4  1  0
  2  3  1  0
  5  6  1  0
  5  2  1  0
  7  9  1  0
  7  6  1  0
  8 19  2  0
  9 14  1  0
 10 18  1  0
 10 20  1  0
 11 17  1  0
 11 13  1  0
 12 18  1  0
 13 12  1  0
 14 13  2  0
 15  9  2  0
 16 15  1  0
 16 11  2  0
 17 10  1  0
 18  8  1  0
 20 22  2  0
 21 20  1  0
 23 21  1  0
 24 33  2  0
 24 29  1  0
 25 21  1  0
 25 29  1  0
 26 25  1  0
 27 28  1  0
 27 26  1  0
 28 24  1  0
 29 30  2  0
 30 31  1  0
 32 31  2  0
 33 32  1  0
 34  8  1  0
 34 35  1  0
 34 44  1  0
 35 38  1  0
 36 40  1  0
 36 35  1  0
 37 36  2  0
 40 39  1  0
 42 40  1  0
 42 43  1  0
 42 41  1  0
 44 47  1  1
 44 45  1  0
 46 44  1  0
 49 53  1  0
 51 49  2  0
 51 54  1  0
 52 50  1  0
 53 48  1  0
 53 50  2  0
 54 63  1  0
 54 52  2  0
 55 63  1  0
 56 61  1  0
 57 58  1  0
 57 56  1  0
 59 58  1  0
 59 68  1  0
 59 60  1  0
 61 55  1  0
 61 60  1  0
 62 55  2  0
 63 64  1  0
 65 66  2  0
 66 85  1  0
 67 70  1  0
 67 66  1  0
 68 69  1  0
 68 65  1  0
 69 67  2  0
 70 71  1  0
 71 72  2  0
 73 76  1  0
 73 72  1  0
 74 73  2  0
 75 74  1  0
 75 70  2  0
 76 77  1  0
 77 82  2  0
 77 78  1  0
 78 79  2  0
 79 80  1  0
 80 84  1  0
 81 80  2  0
 82 81  1  0
 83 82  1  0
 85 86  1  0
 86 89  1  0
 86 88  1  0
 87 85  2  0
 90 65  1  0
 90 91  1  0
 92 90  1  0
M  ISO  4   6 101   7 101  55 100  63 100
M  END
>  <TORSDO>  (11) 
F 21

>  <SCORE>  (11) 
-11.583

>  <name>  (11) 
10

>  <ligand_id>  (11) 
10

>  <original_smiles>  (11) 
[H]c1c([H])c([H])c2c(c1[H])C([H])([H])C([H])([H])C([H])([H])C2([H])N([H])C(=O)C1([H])N(C(=O)C([H])(N([H])C(=O)C([H])(N([H])C([H])([H])[H])C([H])([H])[H])C(C([H])([H])[H])(C([H])([H])[H])C([H])([H])[H])C([H])([H])c2c([H])c(OC([H])([H])C([H])([H])[N+]([H])([H])C([H])([H])C([H])([H])c3c([H])c([H])c(N([H])C(=O)N4C([H])([H])C([H])([H])C([H])([H])C([H])(n5nc(-c6c([H])c([H])c(Oc7c([H])c([H])c(F)c([H])c7F)c([H])c6[H])c(C(=O)N([H])[H])c5N([H])[H])C4([H])[H])c([H])c3[H])c([H])c([H])c2C1([H])[H]

>  <smiles>  (11) 
[H]c1c([H])c([H])c2c(c1[H])C([H])([H])C([H])([H])C([H])([H])C2([H])N([H])C(=O)C1([H])N(C(=O)C([H])(N([H])C(=O)C([H])(N([H])C([H])([H])[H])C([H])([H])[H])C(C([H])([H])[H])(C([H])([H])[H])C([H])([H])[H])C([H])([H])c2c([H])c(OC([H])([H])C([H])([H])[N+]([H])([H])C([H])([H])C([H])([H])c3c([H])c([H])c(N([H])C(=O)N4C([H])([H])C([H])([H])C([H])([H])C([H])(n5nc(-c6c([H])c([H])c(Oc7c([H])c([H])c(F)c([H])c7F)c([H])c6[H])c(C(=O)N([H])[H])c5N([H])[H])C4([H])[H])c([H])c3[H])c([H])c([H])c2C1([H])[H]

$$$$
11:0:0
     RDKit          3D

 89 98  0  0  1  0  0  0  0  0999 V2000
  -30.5010  -23.0010   19.5850 C   0  0  0  0  0  3  0  0  0  0  0  0
  -28.9660  -21.4950   19.8290 C   0  0  0  0  0  3  0  0  0  0  0  0
  -29.0380  -22.9420   19.8370 C   0  0  0  0  0  0  0  0  0  0  0  0
  -27.9740  -20.3880   20.1630 C   0  0  0  0  0  0  0  0  0  0  0  0
  -29.6170  -17.9900   19.8030 C   0  0  0  0  0  0  0  0  0  0  0  0
  -28.2080  -18.7940   19.8260 C   0  0  0  0  0  2  0  0  0  0  0  0
  -30.6800  -19.2180   19.8360 C   0  0  0  0  0  2  0  0  0  0  0  0
  -30.2190  -20.7520   19.3220 C   0  0  0  0  0  3  0  0  0  0  0  0
  -31.1530  -21.8840   19.4180 N   0  0  0  0  0  2  0  0  0  0  0  0
  -29.6330  -16.5710   19.7680 N   0  0  0  0  0  0  0  0  0  0  0  0
  -26.9010  -20.6830   20.6990 O   0  0  0  0  0  0  0  0  0  0  0  0
  -30.6010  -15.3840   19.6330 C   0  0  0  0  0  0  0  0  0  0  0  0
  -30.6500  -12.8850   18.9320 C   0  0  0  0  0  2  0  0  0  0  0  0
  -29.6570  -12.6090   17.7720 C   0  0  0  0  0  2  0  0  0  0  0  0
  -28.2400  -12.3340   18.3060 C   0  0  0  0  0  2  0  0  0  0  0  0
  -27.8340  -13.3480   19.4040 C   0  0  0  0  0  3  0  0  0  0  0  0
  -28.9420  -13.5590   20.4530 C   0  0  0  0  0  2  0  0  0  0  0  0
  -30.1360  -14.0450   19.7440 N   0  0  0  0  0  0  0  0  0  0  0  0
  -31.7890  -15.4490   19.2970 O   0  0  0  0  0  0  0  0  0  0  0  0
  -25.5490  -13.9140   20.3900 C   0  0  0  0  0  0  0  0  0  0  0  0
  -24.5060  -13.1390   20.8160 C   0  0  0  0  0  0  0  0  0  0  0  0
  -24.9390  -11.7840   20.6840 C   0  0  0  0  0  0  0  0  0  0  0  0
  -26.5460  -13.0320   20.0120 N   0  0  0  0  0  0  0  0  0  0  0  0
  -26.1970  -11.7410   20.2570 N   0  0  0  0  0  0  0  0  0  0  0  0
  -24.2050  -10.5270   20.8830 C   0  0  0  0  0  0  0  0  0  0  0  0
  -24.6290   -9.5610   21.8230 C   0  0  0  0  0  3  0  0  0  0  0  0
  -23.8930   -8.3710   22.0090 C   0  0  0  0  0  3  0  0  0  0  0  0
  -22.7180   -8.1380   21.2570 C   0  0  0  0  0  0  0  0  0  0  0  0
  -22.3120   -9.0910   20.3050 C   0  0  0  0  0  3  0  0  0  0  0  0
  -23.0490  -10.2720   20.1180 C   0  0  0  0  0  3  0  0  0  0  0  0
  -21.9540   -7.0000   21.3510 O   0  0  0  0  0  0  0  0  0  0  0  0
  -21.8010   -6.3320   22.5400 C   0  0  0  0  0  0  0  0  0  0  0  0
  -21.2280   -6.9480   23.6730 C   0  0  0  0  0  3  0  0  0  0  0  0
  -21.0260   -6.2050   24.8530 C   0  0  0  0  0  3  0  0  0  0  0  0
  -21.3880   -4.8460   24.9000 C   0  0  0  0  0  0  0  0  0  0  0  0
  -21.9540   -4.2280   23.7710 C   0  0  0  0  0  3  0  0  0  0  0  0
  -22.1570   -4.9690   22.5930 C   0  0  0  0  0  0  0  0  0  0  0  0
  -22.6830   -4.3630   21.5020 F   0  0  0  0  0  0  0  0  0  0  0  0
  -21.1880   -4.1290   26.0310 F   0  0  0  0  0  0  0  0  0  0  0  0
  -23.1480  -13.6270   21.2270 C   0  0  0  0  0  0  0  0  0  0  0  0
  -22.4880  -12.9150   22.1330 N   0  0  0  0  0  0  0  0  0  0  0  0
  -22.6840  -14.6750   20.7800 O   0  0  0  0  0  0  0  0  0  0  0  0
  -22.8800  -12.0660   22.5160 H   0  0  0  0  0  0  0  0  0  0  0  0
  -21.5810  -13.2220   22.4510 H   0  0  0  0  0  0  0  0  0  0  0  0
  -25.7290  -15.2880   20.2650 N   0  0  0  0  0  0  0  0  0  0  0  0
  -25.0030  -15.9600   20.4900 H   0  0  0  0  0  0  0  0  0  0  0  0
  -26.5840  -15.7170   19.9320 H   0  0  0  0  0  0  0  0  0  0  0  0
  -28.0660  -24.3650   20.0760 C   0  0  0  0  0  2  0  0  0  0  0  0
  -28.3810  -25.9790   19.9950 O   0  0  0  0  0  0  0  0  0  0  0  0
  -24.7560  -31.8180   23.1470 C   0  0  0  0  0  0  0  0  0  0  0  0
  -27.3610  -27.0670   19.9910 C   0  0  0  0  0  0  0  0  0  0  0  0
  -23.5820  -30.4720   21.4540 C   0  0  0  0  0  3  0  0  0  0  0  0
  -25.0500  -28.9270   19.9910 C   0  0  0  0  0  0  0  0  0  0  0  0
  -26.1480  -30.7050   21.3320 C   0  0  0  0  0  2  0  0  0  0  0  0
  -26.2320  -29.3200   20.6320 C   0  0  0  0  0  0  0  0  0  0  0  0
  -27.3850  -28.4130   20.6050 C   0  0  0  0  0  3  0  0  0  0  0  0
  -26.1480  -26.8280   19.3070 C   0  0  0  0  0  3  0  0  0  0  0  0
  -25.0320  -27.7010   19.3090 C   0  0  0  0  0  3  0  0  0  0  0  0
  -23.8250  -29.8380   20.0570 C   0  0  0  0  0  2  0  0  0  0  0  0
  -24.8500  -31.0230   22.0320 N   0  0  0  0  0  0  0  0  0  0  0  0
  -23.6610  -32.0830   23.6700 O   0  0  0  0  0  0  0  0  0  0  0  0
  -22.8860  -29.4390   22.3790 C   0  0  0  0  0  0  0  0  0  0  0  0
  -21.5610  -29.2590   22.2260 N   0  0  0  0  0  0  0  0  0  0  0  0
  -23.5460  -28.8010   23.2030 O   0  0  0  0  0  0  0  0  0  0  0  0
  -21.0810  -29.8250   21.5410 H   0  0  0  0  0  0  0  0  0  0  0  0
  -18.1830  -28.0120   22.6670 C   0  0  0  0  0  0  0  0  0  0  0  0
  -20.7390  -28.2890   22.9580 C   0  0  0  0  0  3  0  0  0  0  0  0
  -20.8560  -26.8790   22.3350 C   0  0  0  0  0  2  0  0  0  0  0  0
  -19.7630  -26.5830   21.3020 C   0  0  0  0  0  2  0  0  0  0  0  0
  -18.3760  -26.6910   21.9410 C   0  0  0  0  0  2  0  0  0  0  0  0
  -19.2920  -28.7690   23.1310 C   0  0  0  0  0  0  0  0  0  0  0  0
  -19.0550  -30.0040   23.7720 C   0  0  0  0  0  3  0  0  0  0  0  0
  -17.7440  -30.4830   23.9530 C   0  0  0  0  0  3  0  0  0  0  0  0
  -16.6500  -29.7240   23.5030 C   0  0  0  0  0  3  0  0  0  0  0  0
  -16.8700  -28.4890   22.8670 C   0  0  0  0  0  3  0  0  0  0  0  0
  -26.0190  -32.4450   23.8100 C   0  0  0  0  0  3  0  0  0  0  0  0
  -25.7000  -33.8390   24.1650 N   0  0  0  0  0  0  0  0  0  0  0  0
  -26.0090  -34.9090   23.4210 C   0  0  0  0  0  0  0  0  0  0  0  0
  -26.6550  -34.8290   22.3750 O   0  0  0  0  0  0  0  0  0  0  0  0
  -25.1210  -33.9740   24.9800 H   0  0  0  0  0  0  0  0  0  0  0  0
  -24.2460  -36.6910   23.1680 C   0  0  0  0  0  1  0  0  0  0  0  0
  -25.5270  -36.2890   23.9170 C   0  0  0  0  0  3  0  0  0  0  0  0
  -27.6790  -37.2030   24.6710 C   0  0  0  0  0  1  0  0  0  0  0  0
  -26.5410  -37.3570   23.7680 N   0  0  0  0  0  0  0  0  0  0  0  0
  -26.1290  -38.2720   23.9310 H   0  0  0  0  0  0  0  0  0  0  0  0
  -26.5010  -31.6570   25.0910 C   0  0  1  0  0  0  0  0  0  0  0  0
  -25.3810  -31.4090   26.1300 C   0  0  0  0  0  1  0  0  0  0  0  0
  -27.0900  -30.2810   24.7040 C   0  0  0  0  0  1  0  0  0  0  0  0
  -27.6370  -32.4390   25.7910 C   0  0  0  0  0  1  0  0  0  0  0  0
  1  3  2  0
  2  3  1  0
  2  4  1  0
  3 48  1  0
  4 11  2  0
  5  6  1  0
  5  7  1  0
  6  4  1  0
  8  9  1  0
  8  2  1  0
  8  7  1  0
  9  1  1  0
 10  5  2  0
 12 18  1  0
 12 10  1  0
 13 18  1  0
 14 15  1  0
 14 13  1  0
 16 15  1  0
 16 23  1  0
 16 17  1  0
 18 17  1  0
 19 12  2  0
 20 21  2  0
 21 40  1  0
 22 21  1  0
 22 25  1  0
 23 24  1  0
 23 20  1  0
 24 22  2  0
 25 26  1  0
 26 27  2  0
 28 31  1  0
 28 27  1  0
 29 28  2  0
 30 29  1  0
 30 25  2  0
 31 32  1  0
 32 37  2  0
 32 33  1  0
 33 34  2  0
 34 35  1  0
 35 39  1  0
 36 35  2  0
 37 36  1  0
 38 37  1  0
 40 41  1  0
 41 44  1  0
 41 43  1  0
 42 40  2  0
 45 20  1  0
 45 46  1  0
 47 45  1  0
 49 48  1  0
 50 61  2  0
 51 49  1  0
 51 56  1  0
 52 60  1  0
 52 62  1  0
 53 59  1  0
 53 55  1  0
 54 60  1  0
 55 54  1  0
 56 55  2  0
 57 58  1  0
 57 51  2  0
 58 53  2  0
 59 52  1  0
 60 50  1  0
 62 64  2  0
 63 62  1  0
 65 63  1  0
 66 75  2  0
 66 71  1  0
 67 63  1  0
 67 71  1  0
 68 67  1  0
 69 70  1  0
 69 68  1  0
 70 66  1  0
 71 72  2  0
 72 73  1  0
 74 73  2  0
 75 74  1  0
 76 50  1  0
 76 77  1  0
 76 86  1  0
 77 80  1  0
 78 82  1  0
 78 77  1  0
 79 78  2  0
 82 81  1  0
 84 82  1  0
 84 85  1  0
 84 83  1  0
 86 89  1  1
 86 87  1  0
 88 86  1  0
M  ISO  4  10 100  12 100  48 101  49 101
M  END
>  <TORSDO>  (12) 
F 17

>  <SCORE>  (12) 
-14.224

>  <name>  (12) 
11

>  <ligand_id>  (12) 
11

>  <original_smiles>  (12) 
[H]C1=NC2([H])C(=C1C([H])([H])Oc1c([H])c([H])c3c(c1[H])C([H])([H])N(C(=O)C([H])(N([H])C(=O)C([H])(N([H])C([H])([H])[H])C([H])([H])[H])C(C([H])([H])[H])(C([H])([H])[H])C([H])([H])[H])C([H])(C(=O)N([H])C1([H])c4c([H])c([H])c([H])c([H])c4C([H])([H])C([H])([H])C1([H])[H])C3([H])[H])C(=O)C([H])([H])C(=NC(=O)N1C([H])([H])C([H])([H])C([H])([H])C([H])(n3nc(-c4c([H])c([H])c(Oc5c([H])c([H])c(F)c([H])c5F)c([H])c4[H])c(C(=O)N([H])[H])c3N([H])[H])C1([H])[H])C2([H])[H]

>  <smiles>  (12) 
[H]C1=NC2([H])C(=C1C([H])([H])Oc1c([H])c([H])c3c(c1[H])C([H])([H])N(C(=O)C([H])(N([H])C(=O)C([H])(N([H])C([H])([H])[H])C([H])([H])[H])C(C([H])([H])[H])(C([H])([H])[H])C([H])([H])[H])C([H])(C(=O)N([H])C1([H])c4c([H])c([H])c([H])c([H])c4C([H])([H])C([H])([H])C1([H])[H])C3([H])[H])C(=O)C([H])([H])C(=NC(=O)N1C([H])([H])C([H])([H])C([H])([H])C([H])(n3nc(-c4c([H])c([H])c(Oc5c([H])c([H])c(F)c([H])c5F)c([H])c4[H])c(C(=O)N([H])[H])c3N([H])[H])C1([H])[H])C2([H])[H]

$$$$
12:0:0
     RDKit          3D

 92101  0  0  1  0  0  0  0  0999 V2000
  -30.4550  -17.5420   18.9020 C   0  0  0  0  0  0  0  0  0  0  0  0
  -30.9440  -18.9300   18.4340 C   0  0  0  0  0  2  0  0  0  0  0  0
  -29.2530  -18.4780   20.9000 C   0  0  0  0  0  2  0  0  0  0  0  0
  -29.0610  -20.8140   18.8670 C   0  0  0  0  0  2  0  0  0  0  0  0
  -30.2500  -17.3160   20.4220 C   0  0  0  0  0  3  0  0  0  0  0  0
  -30.4000  -20.1470   19.2210 C   0  0  0  0  0  3  0  0  0  0  0  0
  -29.8010  -19.9530   20.6100 C   0  0  0  0  0  3  0  0  0  0  0  0
  -28.8450  -21.1030   20.2880 N   0  0  1  0  0  4  0  0  0  0  0  0
  -30.2310  -16.6720   18.0550 O   0  0  0  0  0  0  0  0  0  0  0  0
  -27.8980  -20.8840   20.5590 H   0  0  0  0  0  0  0  0  0  0  0  0
  -30.6290  -14.7280   20.4830 C   0  0  0  0  0  0  0  0  0  0  0  0
  -30.4250  -12.4640   19.4540 C   0  0  0  0  0  2  0  0  0  0  0  0
  -29.5160  -12.5540   18.2100 C   0  0  0  0  0  2  0  0  0  0  0  0
  -28.0350  -12.3970   18.6060 C   0  0  0  0  0  2  0  0  0  0  0  0
  -27.6430  -13.2770   19.8230 C   0  0  0  0  0  3  0  0  0  0  0  0
  -28.6760  -13.1710   20.9670 C   0  0  0  0  0  2  0  0  0  0  0  0
  -29.9890  -13.5120   20.4070 N   0  0  0  0  0  0  0  0  0  0  0  0
  -31.8110  -14.8270   20.1430 O   0  0  0  0  0  0  0  0  0  0  0  0
  -29.8770  -15.8610   20.7360 N   0  0  0  0  0  0  0  0  0  0  0  0
  -28.9330  -15.6960   21.0480 H   0  0  0  0  0  0  0  0  0  0  0  0
  -25.2300  -13.8770   20.4640 C   0  0  0  0  0  0  0  0  0  0  0  0
  -24.1560  -13.1110   20.8210 C   0  0  0  0  0  0  0  0  0  0  0  0
  -24.6210  -11.7590   20.8260 C   0  0  0  0  0  0  0  0  0  0  0  0
  -26.2840  -12.9980   20.2770 N   0  0  0  0  0  0  0  0  0  0  0  0
  -25.9220  -11.7190   20.5600 N   0  0  0  0  0  0  0  0  0  0  0  0
  -23.8920  -10.4990   21.0170 C   0  0  0  0  0  0  0  0  0  0  0  0
  -24.3070   -9.5430   21.9710 C   0  0  0  0  0  3  0  0  0  0  0  0
  -23.5770   -8.3480   22.1490 C   0  0  0  0  0  3  0  0  0  0  0  0
  -22.4180   -8.1000   21.3750 C   0  0  0  0  0  0  0  0  0  0  0  0
  -22.0230   -9.0450   20.4120 C   0  0  0  0  0  3  0  0  0  0  0  0
  -22.7540  -10.2320   20.2300 C   0  0  0  0  0  3  0  0  0  0  0  0
  -21.6650   -6.9550   21.4600 O   0  0  0  0  0  0  0  0  0  0  0  0
  -21.5960   -6.2210   22.6180 C   0  0  0  0  0  0  0  0  0  0  0  0
  -21.1510   -6.7860   23.8330 C   0  0  0  0  0  3  0  0  0  0  0  0
  -21.0290   -5.9810   24.9830 C   0  0  0  0  0  3  0  0  0  0  0  0
  -21.3440   -4.6100   24.9180 C   0  0  0  0  0  0  0  0  0  0  0  0
  -21.7790   -4.0440   23.7070 C   0  0  0  0  0  3  0  0  0  0  0  0
  -21.9020   -4.8460   22.5600 C   0  0  0  0  0  0  0  0  0  0  0  0
  -22.3040   -4.2910   21.3910 F   0  0  0  0  0  0  0  0  0  0  0  0
  -21.2190   -3.8330   26.0190 F   0  0  0  0  0  0  0  0  0  0  0  0
  -22.7500  -13.5910   21.0410 C   0  0  0  0  0  0  0  0  0  0  0  0
  -21.9930  -12.9140   21.8960 N   0  0  0  0  0  0  0  0  0  0  0  0
  -22.3300  -14.6050   20.4860 O   0  0  0  0  0  0  0  0  0  0  0  0
  -22.3410  -12.0960   22.3750 H   0  0  0  0  0  0  0  0  0  0  0  0
  -21.0490  -13.2240   22.0750 H   0  0  0  0  0  0  0  0  0  0  0  0
  -25.3960  -15.2460   20.2600 N   0  0  0  0  0  0  0  0  0  0  0  0
  -24.6150  -15.8900   20.3170 H   0  0  0  0  0  0  0  0  0  0  0  0
  -26.2370  -15.6710   19.8870 H   0  0  0  0  0  0  0  0  0  0  0  0
  -29.1740  -22.5320   20.7540 C   0  0  0  0  0  2  0  0  0  0  0  0
  -28.5150  -23.8130   20.0160 C   0  0  0  0  0  2  0  0  0  0  0  0
  -28.4240  -25.1940   20.8340 C   0  0  0  0  0  2  0  0  0  0  0  0
  -28.4200  -26.5310   20.1880 O   0  0  0  0  0  0  0  0  0  0  0  0
  -24.6100  -31.8890   23.2570 C   0  0  0  0  0  0  0  0  0  0  0  0
  -27.2740  -27.3370   20.2340 C   0  0  0  0  0  0  0  0  0  0  0  0
  -23.4250  -30.4740   21.6160 C   0  0  0  0  0  3  0  0  0  0  0  0
  -24.8940  -28.9180   20.2140 C   0  0  0  0  0  0  0  0  0  0  0  0
  -25.9620  -30.8110   21.4420 C   0  0  0  0  0  2  0  0  0  0  0  0
  -26.0560  -29.4270   20.8070 C   0  0  0  0  0  0  0  0  0  0  0  0
  -27.2530  -28.6500   20.7990 C   0  0  0  0  0  3  0  0  0  0  0  0
  -26.0880  -26.8660   19.6380 C   0  0  0  0  0  3  0  0  0  0  0  0
  -24.9100  -27.6420   19.6230 C   0  0  0  0  0  3  0  0  0  0  0  0
  -23.6530  -29.7870   20.2440 C   0  0  0  0  0  2  0  0  0  0  0  0
  -24.6850  -31.0750   22.1630 N   0  0  0  0  0  0  0  0  0  0  0  0
  -23.5220  -32.1620   23.7840 O   0  0  0  0  0  0  0  0  0  0  0  0
  -22.7640  -29.4590   22.5790 C   0  0  0  0  0  0  0  0  0  0  0  0
  -21.4380  -29.2830   22.4510 N   0  0  0  0  0  0  0  0  0  0  0  0
  -23.4410  -28.8340   23.3980 O   0  0  0  0  0  0  0  0  0  0  0  0
  -20.9500  -29.8430   21.7660 H   0  0  0  0  0  0  0  0  0  0  0  0
  -18.0590  -28.0900   22.9440 C   0  0  0  0  0  0  0  0  0  0  0  0
  -20.6170  -28.3440   23.2170 C   0  0  0  0  0  3  0  0  0  0  0  0
  -20.7180  -26.9140   22.6380 C   0  0  0  0  0  2  0  0  0  0  0  0
  -19.6160  -26.5940   21.6240 C   0  0  0  0  0  2  0  0  0  0  0  0
  -18.2330  -26.7410   22.2650 C   0  0  0  0  0  2  0  0  0  0  0  0
  -19.1780  -28.8490   23.3760 C   0  0  0  0  0  0  0  0  0  0  0  0
  -18.9610  -30.1110   23.9710 C   0  0  0  0  0  3  0  0  0  0  0  0
  -17.6570  -30.6140   24.1370 C   0  0  0  0  0  3  0  0  0  0  0  0
  -16.5520  -29.8510   23.7210 C   0  0  0  0  0  3  0  0  0  0  0  0
  -16.7540  -28.5910   23.1300 C   0  0  0  0  0  3  0  0  0  0  0  0
  -25.8850  -32.5310   23.8870 C   0  0  0  0  0  3  0  0  0  0  0  0
  -26.3910  -31.7730   25.1770 C   0  0  1  0  0  0  0  0  0  0  0  0
  -25.2890  -31.5460   26.2370 C   0  0  0  0  0  1  0  0  0  0  0  0
  -26.9760  -30.3910   24.8020 C   0  0  0  0  0  1  0  0  0  0  0  0
  -27.5340  -32.5760   25.8420 C   0  0  0  0  0  1  0  0  0  0  0  0
  -25.5680  -33.9310   24.2010 N   0  0  0  0  0  0  0  0  0  0  0  0
  -25.9070  -34.9790   23.4360 C   0  0  0  0  0  0  0  0  0  0  0  0
  -26.5860  -34.8670   22.4120 O   0  0  0  0  0  0  0  0  0  0  0  0
  -24.9660  -34.0910   24.9940 H   0  0  0  0  0  0  0  0  0  0  0  0
  -24.1820  -36.7690   23.0470 C   0  0  0  0  0  1  0  0  0  0  0  0
  -25.4130  -36.3710   23.8770 C   0  0  0  0  0  3  0  0  0  0  0  0
  -27.5370  -37.2620   24.7290 C   0  0  0  0  0  1  0  0  0  0  0  0
  -26.4460  -37.4240   23.7720 N   0  0  0  0  0  0  0  0  0  0  0  0
  -26.0360  -38.3430   23.9100 H   0  0  0  0  0  0  0  0  0  0  0  0
  1  5  1  0
  2  1  1  0
  4  6  1  0
  4  8  1  0
  5 19  1  0
  5  3  1  0
  6  2  1  0
  6  7  1  0
  7  3  1  0
  8 10  1  1
  8  7  1  0
  8 49  1  0
  9  1  2  0
 11 19  1  0
 12 17  1  0
 13 14  1  0
 13 12  1  0
 15 14  1  0
 15 24  1  0
 15 16  1  0
 17 11  1  0
 17 16  1  0
 18 11  2  0
 19 20  1  0
 21 22  2  0
 22 23  1  0
 22 41  1  0
 23 26  1  0
 24 21  1  0
 24 25  1  0
 25 23  2  0
 26 27  1  0
 27 28  2  0
 29 32  1  0
 29 28  1  0
 30 29  2  0
 31 30  1  0
 31 26  2  0
 32 33  1  0
 33 34  1  0
 34 35  2  0
 36 35  1  0
 36 40  1  0
 37 36  2  0
 38 33  2  0
 38 37  1  0
 39 38  1  0
 41 42  1  0
 42 45  1  0
 42 44  1  0
 43 41  2  0
 46 47  1  0
 46 21  1  0
 48 46  1  0
 50 49  1  0
 50 51  1  0
 52 54  1  0
 52 51  1  0
 53 64  2  0
 54 59  1  0
 55 63  1  0
 55 65  1  0
 56 62  1  0
 56 58  1  0
 57 63  1  0
 58 57  1  0
 59 58  2  0
 60 54  2  0
 61 60  1  0
 61 56  2  0
 62 55  1  0
 63 53  1  0
 65 67  2  0
 66 65  1  0
 68 66  1  0
 69 78  2  0
 69 74  1  0
 70 66  1  0
 70 74  1  0
 71 70  1  0
 72 73  1  0
 72 71  1  0
 73 69  1  0
 74 75  2  0
 75 76  1  0
 77 76  2  0
 78 77  1  0
 79 53  1  0
 79 84  1  0
 79 80  1  0
 80 83  1  1
 80 81  1  0
 82 80  1  0
 84 87  1  0
 85 89  1  0
 85 84  1  0
 86 85  2  0
 89 88  1  0
 91 89  1  0
 91 92  1  0
 91 90  1  0
M  ISO  4  11 100  19 100  51 101  52 101
M  END
>  <TORSDO>  (13) 
F 19

>  <SCORE>  (13) 
-13.850

>  <name>  (13) 
12

>  <ligand_id>  (13) 
12

>  <original_smiles>  (13) 
[H]c1c([H])c([H])c2c(c1[H])C([H])([H])C([H])([H])C([H])([H])C2([H])N([H])C(=O)C1([H])N(C(=O)C([H])(N([H])C(=O)C([H])(N([H])C([H])([H])[H])C([H])([H])[H])C(C([H])([H])[H])(C([H])([H])[H])C([H])([H])[H])C([H])([H])c2c([H])c(OC([H])([H])C([H])([H])C([H])([H])[N+]3([H])C([H])([H])C4([H])C([H])([H])C(=O)C([H])(N([H])C(=O)N5C([H])([H])C([H])([H])C([H])([H])C([H])(n6nc(-c7c([H])c([H])c(Oc8c([H])c([H])c(F)c([H])c8F)c([H])c7[H])c(C(=O)N([H])[H])c6N([H])[H])C5([H])[H])C([H])([H])C43[H])c([H])c([H])c2C1([H])[H]

>  <smiles>  (13) 
[H]c1c([H])c([H])c2c(c1[H])C([H])([H])C([H])([H])C([H])([H])C2([H])N([H])C(=O)C1([H])N(C(=O)C([H])(N([H])C(=O)C([H])(N([H])C([H])([H])[H])C([H])([H])[H])C(C([H])([H])[H])(C([H])([H])[H])C([H])([H])[H])C([H])([H])c2c([H])c(OC([H])([H])C([H])([H])C([H])([H])[N+]3([H])C([H])([H])C4([H])C([H])([H])C(=O)C([H])(N([H])C(=O)N5C([H])([H])C([H])([H])C([H])([H])C([H])(n6nc(-c7c([H])c([H])c(Oc8c([H])c([H])c(F)c([H])c8F)c([H])c7[H])c(C(=O)N([H])[H])c6N([H])[H])C5([H])[H])C([H])([H])C43[H])c([H])c([H])c2C1([H])[H]

$$$$
13:0:0
     RDKit          3D

 88 97  0  0  1  0  0  0  0  0999 V2000
  -28.1190  -20.2940   20.5690 C   0  0  0  0  0  3  0  0  0  0  0  0
  -30.2950  -20.5370   19.8870 C   0  0  0  0  0  3  0  0  0  0  0  0
  -28.3140  -18.8240   20.5820 C   0  0  0  0  0  3  0  0  0  0  0  0
  -30.5000  -19.0650   19.9010 C   0  0  0  0  0  3  0  0  0  0  0  0
  -29.0970  -21.3090   20.2200 C   0  0  0  0  0  0  0  0  0  0  0  0
  -29.5170  -18.0620   20.2590 C   0  0  0  0  0  0  0  0  0  0  0  0
  -30.4350  -15.2940   20.1020 C   0  0  0  0  0  0  0  0  0  0  0  0
  -30.4100  -12.8800   19.1850 C   0  0  0  0  0  2  0  0  0  0  0  0
  -29.4340  -12.7330   17.9900 C   0  0  0  0  0  2  0  0  0  0  0  0
  -27.9990  -12.4620   18.4800 C   0  0  0  0  0  2  0  0  0  0  0  0
  -27.6010  -13.3920   19.6530 C   0  0  0  0  0  3  0  0  0  0  0  0
  -28.6940  -13.4790   20.7390 C   0  0  0  0  0  2  0  0  0  0  0  0
  -29.9090  -13.9810   20.0780 N   0  0  0  0  0  0  0  0  0  0  0  0
  -31.6290  -15.3730   19.7820 O   0  0  0  0  0  0  0  0  0  0  0  0
  -29.5790  -16.4630   20.3160 N   0  0  0  0  0  0  0  0  0  0  0  0
  -28.6750  -16.0990   20.5760 H   0  0  0  0  0  0  0  0  0  0  0  0
  -25.2590  -13.9300   20.5180 C   0  0  0  0  0  0  0  0  0  0  0  0
  -24.2150  -13.1400   20.9120 C   0  0  0  0  0  0  0  0  0  0  0  0
  -24.6810  -11.7930   20.8210 C   0  0  0  0  0  0  0  0  0  0  0  0
  -26.2910  -13.0640   20.2040 N   0  0  0  0  0  0  0  0  0  0  0  0
  -25.9590  -11.7710   20.4530 N   0  0  0  0  0  0  0  0  0  0  0  0
  -23.9650  -10.5230   21.0030 C   0  0  0  0  0  0  0  0  0  0  0  0
  -24.4020   -9.5540   21.9330 C   0  0  0  0  0  3  0  0  0  0  0  0
  -23.6830   -8.3510   22.1050 C   0  0  0  0  0  3  0  0  0  0  0  0
  -22.5130   -8.1080   21.3470 C   0  0  0  0  0  0  0  0  0  0  0  0
  -22.0950   -9.0670   20.4070 C   0  0  0  0  0  3  0  0  0  0  0  0
  -22.8150  -10.2600   20.2330 C   0  0  0  0  0  3  0  0  0  0  0  0
  -21.7650   -6.9580   21.4290 O   0  0  0  0  0  0  0  0  0  0  0  0
  -21.6700   -6.2450   22.5970 C   0  0  0  0  0  0  0  0  0  0  0  0
  -21.1320   -6.8090   23.7740 C   0  0  0  0  0  3  0  0  0  0  0  0
  -20.9870   -6.0190   24.9310 C   0  0  0  0  0  3  0  0  0  0  0  0
  -21.3690   -4.6640   24.9120 C   0  0  0  0  0  0  0  0  0  0  0  0
  -21.9000   -4.0990   23.7390 C   0  0  0  0  0  3  0  0  0  0  0  0
  -22.0460   -4.8870   22.5840 C   0  0  0  0  0  0  0  0  0  0  0  0
  -22.5380   -4.3300   21.4510 F   0  0  0  0  0  0  0  0  0  0  0  0
  -21.2240   -3.9020   26.0220 F   0  0  0  0  0  0  0  0  0  0  0  0
  -22.8290  -13.6050   21.2520 C   0  0  0  0  0  0  0  0  0  0  0  0
  -22.1400  -12.8860   22.1310 N   0  0  0  0  0  0  0  0  0  0  0  0
  -22.3690  -14.6410   20.7750 O   0  0  0  0  0  0  0  0  0  0  0  0
  -22.5280  -12.0480   22.5380 H   0  0  0  0  0  0  0  0  0  0  0  0
  -21.2120  -13.1790   22.4010 H   0  0  0  0  0  0  0  0  0  0  0  0
  -25.4070  -15.3060   20.3700 N   0  0  0  0  0  0  0  0  0  0  0  0
  -24.6310  -15.9420   20.5150 H   0  0  0  0  0  0  0  0  0  0  0  0
  -26.2050  -15.7520   19.9380 H   0  0  0  0  0  0  0  0  0  0  0  0
  -28.6790  -23.8200   19.0070 C   0  0  0  0  0  2  0  0  0  0  0  0
  -29.0320  -23.0500   20.2700 C   0  0  0  0  0  3  0  0  0  0  0  0
  -27.9770  -24.4420   20.1940 C   0  0  0  0  0  3  0  0  0  0  0  0
  -28.2130  -26.0510   20.2660 O   0  0  0  0  0  0  0  0  0  0  0  0
  -24.6440  -31.9330   23.2480 C   0  0  0  0  0  0  0  0  0  0  0  0
  -27.1830  -27.1070   20.2090 C   0  0  0  0  0  0  0  0  0  0  0  0
  -23.4380  -30.5460   21.6080 C   0  0  0  0  0  3  0  0  0  0  0  0
  -24.8770  -28.9490   20.1760 C   0  0  0  0  0  0  0  0  0  0  0  0
  -26.0000  -30.7680   21.4480 C   0  0  0  0  0  2  0  0  0  0  0  0
  -26.0650  -29.3640   20.7890 C   0  0  0  0  0  0  0  0  0  0  0  0
  -27.2150  -28.4640   20.7810 C   0  0  0  0  0  3  0  0  0  0  0  0
  -25.9660  -26.8260   19.5510 C   0  0  0  0  0  3  0  0  0  0  0  0
  -24.8480  -27.6980   19.5370 C   0  0  0  0  0  3  0  0  0  0  0  0
  -23.6580  -29.8670   20.2290 C   0  0  0  0  0  2  0  0  0  0  0  0
  -24.7150  -31.1080   22.1550 N   0  0  0  0  0  0  0  0  0  0  0  0
  -23.5580  -32.2230   23.7760 O   0  0  0  0  0  0  0  0  0  0  0  0
  -22.7480  -29.5470   22.5730 C   0  0  0  0  0  0  0  0  0  0  0  0
  -21.4190  -29.3750   22.4420 N   0  0  0  0  0  0  0  0  0  0  0  0
  -23.4130  -28.9270   23.4060 O   0  0  0  0  0  0  0  0  0  0  0  0
  -20.9360  -29.9270   21.7450 H   0  0  0  0  0  0  0  0  0  0  0  0
  -18.0380  -28.1660   22.9440 C   0  0  0  0  0  0  0  0  0  0  0  0
  -20.5970  -28.4370   23.2110 C   0  0  0  0  0  3  0  0  0  0  0  0
  -20.7020  -27.0050   22.6360 C   0  0  0  0  0  2  0  0  0  0  0  0
  -19.6010  -26.6810   21.6210 C   0  0  0  0  0  2  0  0  0  0  0  0
  -18.2180  -26.8200   22.2650 C   0  0  0  0  0  2  0  0  0  0  0  0
  -19.1540  -28.9330   23.3750 C   0  0  0  0  0  0  0  0  0  0  0  0
  -18.9290  -30.1910   23.9740 C   0  0  0  0  0  3  0  0  0  0  0  0
  -17.6210  -30.6850   24.1440 C   0  0  0  0  0  3  0  0  0  0  0  0
  -16.5200  -29.9170   23.7280 C   0  0  0  0  0  3  0  0  0  0  0  0
  -16.7290  -28.6590   23.1340 C   0  0  0  0  0  3  0  0  0  0  0  0
  -25.9210  -32.5670   23.8770 C   0  0  0  0  0  3  0  0  0  0  0  0
  -25.6100  -33.9670   24.2170 N   0  0  0  0  0  0  0  0  0  0  0  0
  -25.9130  -35.0270   23.4560 C   0  0  0  0  0  0  0  0  0  0  0  0
  -26.5470  -34.9290   22.4020 O   0  0  0  0  0  0  0  0  0  0  0  0
  -25.0420  -34.1150   25.0390 H   0  0  0  0  0  0  0  0  0  0  0  0
  -24.1580  -36.8130   23.1910 C   0  0  0  0  0  1  0  0  0  0  0  0
  -25.4410  -36.4140   23.9380 C   0  0  0  0  0  3  0  0  0  0  0  0
  -27.6010  -37.3250   24.6720 C   0  0  0  0  0  1  0  0  0  0  0  0
  -26.4590  -37.4740   23.7730 N   0  0  0  0  0  0  0  0  0  0  0  0
  -26.0530  -38.3930   23.9270 H   0  0  0  0  0  0  0  0  0  0  0  0
  -26.4280  -31.7960   25.1590 C   0  0  1  0  0  0  0  0  0  0  0  0
  -25.3280  -31.5600   26.2210 C   0  0  0  0  0  1  0  0  0  0  0  0
  -27.0130  -30.4170   24.7780 C   0  0  0  0  0  1  0  0  0  0  0  0
  -27.5760  -32.5890   25.8280 C   0  0  0  0  0  1  0  0  0  0  0  0
  1  3  1  0
  2  4  2  0
  2  5  1  0
  4  6  1  0
  5  1  2  0
  6 15  1  0
  6  3  2  0
  7 15  1  0
  8 13  1  0
  9 10  1  0
  9  8  1  0
 11 10  1  0
 11 20  1  0
 11 12  1  0
 13  7  1  0
 13 12  1  0
 14  7  2  0
 15 16  1  0
 17 18  2  0
 18 37  1  0
 19 18  1  0
 19 22  1  0
 20 21  1  0
 20 17  1  0
 21 19  2  0
 22 23  1  0
 23 24  2  0
 25 28  1  0
 25 24  1  0
 26 25  2  0
 27 26  1  0
 27 22  2  0
 28 29  1  0
 29 30  1  0
 30 31  2  0
 32 31  1  0
 32 36  1  0
 33 32  2  0
 34 29  2  0
 34 33  1  0
 35 34  1  0
 37 38  1  0
 38 41  1  0
 38 40  1  0
 39 37  2  0
 42 43  1  0
 42 17  1  0
 44 42  1  0
 45 47  1  0
 45 46  1  0
 46  5  1  0
 47 48  1  0
 47 46  1  0
 49 60  2  0
 50 48  1  0
 50 55  1  0
 51 59  1  0
 51 61  1  0
 52 58  1  0
 52 54  1  0
 53 59  1  0
 54 53  1  0
 55 54  2  0
 56 50  2  0
 57 56  1  0
 57 52  2  0
 58 51  1  0
 59 49  1  0
 61 63  2  0
 62 61  1  0
 64 62  1  0
 65 74  2  0
 65 70  1  0
 66 62  1  0
 66 70  1  0
 67 66  1  0
 68 69  1  0
 68 67  1  0
 69 65  1  0
 70 71  2  0
 71 72  1  0
 73 72  2  0
 74 73  1  0
 75 49  1  0
 75 76  1  0
 75 85  1  0
 76 79  1  0
 77 81  1  0
 77 76  1  0
 78 77  2  0
 81 80  1  0
 83 84  1  0
 83 81  1  0
 83 82  1  0
 85 88  1  1
 85 86  1  0
 87 85  1  0
M  ISO  4   7 100  15 100  47 101  48 101
M  END
>  <TORSDO>  (14) 
F 17

>  <SCORE>  (14) 
-15.331

>  <name>  (14) 
13

>  <ligand_id>  (14) 
13

>  <original_smiles>  (14) 
[H]c1c([H])c([H])c2c(c1[H])C([H])([H])C([H])([H])C([H])([H])C2([H])N([H])C(=O)C1([H])N(C(=O)C([H])(N([H])C(=O)C([H])(N([H])C([H])([H])[H])C([H])([H])[H])C(C([H])([H])[H])(C([H])([H])[H])C([H])([H])[H])C([H])([H])c2c([H])c(OC3([H])C([H])([H])C3([H])c3c([H])c([H])c(N([H])C(=O)N4C([H])([H])C([H])([H])C([H])([H])C([H])(n5nc(-c6c([H])c([H])c(Oc7c([H])c([H])c(F)c([H])c7F)c([H])c6[H])c(C(=O)N([H])[H])c5N([H])[H])C4([H])[H])c([H])c3[H])c([H])c([H])c2C1([H])[H]

>  <smiles>  (14) 
[H]c1c([H])c([H])c2c(c1[H])C([H])([H])C([H])([H])C([H])([H])C2([H])N([H])C(=O)C1([H])N(C(=O)C([H])(N([H])C(=O)C([H])(N([H])C([H])([H])[H])C([H])([H])[H])C(C([H])([H])[H])(C([H])([H])[H])C([H])([H])[H])C([H])([H])c2c([H])c(OC3([H])C([H])([H])C3([H])c3c([H])c([H])c(N([H])C(=O)N4C([H])([H])C([H])([H])C([H])([H])C([H])(n5nc(-c6c([H])c([H])c(Oc7c([H])c([H])c(F)c([H])c7F)c([H])c6[H])c(C(=O)N([H])[H])c5N([H])[H])C4([H])[H])c([H])c3[H])c([H])c([H])c2C1([H])[H]

$$$$
14:0:0
     RDKit          3D

 90 98  0  0  1  0  0  0  0  0999 V2000
  -26.8510  -21.5720   19.1350 C   0  0  0  0  0  3  0  0  0  0  0  0
  -27.3090  -22.8410   19.1080 C   0  0  0  0  0  3  0  0  0  0  0  0
  -27.4780  -20.4010   19.7960 C   0  0  0  0  0  0  0  0  0  0  0  0
  -29.4490  -22.0330   20.2720 C   0  0  0  0  0  3  0  0  0  0  0  0
  -28.5720  -23.3650   19.7550 C   0  0  0  0  0  0  0  0  0  0  0  0
  -28.9380  -20.4390   20.2780 C   0  0  0  0  0  0  0  0  0  0  0  0
  -26.7870  -19.3530   19.9510 N   0  0  0  0  0  2  0  0  0  0  0  0
  -25.8450  -19.4630   19.5900 H   0  0  0  0  0  0  0  0  0  0  0  0
  -28.2310  -24.7610   20.6340 C   0  0  0  0  0  2  0  0  0  0  0  0
  -28.3580  -26.2520   20.2220 O   0  0  0  0  0  0  0  0  0  0  0  0
  -24.5720  -31.8440   23.2010 C   0  0  0  0  0  0  0  0  0  0  0  0
  -27.2660  -27.1830   20.2250 C   0  0  0  0  0  0  0  0  0  0  0  0
  -23.4260  -30.4530   21.5180 C   0  0  0  0  0  3  0  0  0  0  0  0
  -24.9230  -28.8900   20.1350 C   0  0  0  0  0  0  0  0  0  0  0  0
  -25.9820  -30.7420   21.4230 C   0  0  0  0  0  2  0  0  0  0  0  0
  -26.0830  -29.3540   20.7690 C   0  0  0  0  0  0  0  0  0  0  0  0
  -27.2590  -28.5180   20.7900 C   0  0  0  0  0  3  0  0  0  0  0  0
  -26.0770  -26.8030   19.5710 C   0  0  0  0  0  3  0  0  0  0  0  0
  -24.9320  -27.6280   19.5200 C   0  0  0  0  0  3  0  0  0  0  0  0
  -23.6910  -29.7810   20.1460 C   0  0  0  0  0  2  0  0  0  0  0  0
  -24.6790  -31.0340   22.1040 N   0  0  0  0  0  0  0  0  0  0  0  0
  -23.4710  -32.1180   23.7010 O   0  0  0  0  0  0  0  0  0  0  0  0
  -22.7290  -29.4360   22.4550 C   0  0  0  0  0  0  0  0  0  0  0  0
  -21.4020  -29.2770   22.3070 N   0  0  0  0  0  0  0  0  0  0  0  0
  -23.3850  -28.7910   23.2790 O   0  0  0  0  0  0  0  0  0  0  0  0
  -20.9310  -29.8500   21.6230 H   0  0  0  0  0  0  0  0  0  0  0  0
  -17.9990  -28.1240   22.7650 C   0  0  0  0  0  0  0  0  0  0  0  0
  -20.5600  -28.3360   23.0510 C   0  0  0  0  0  3  0  0  0  0  0  0
  -20.6410  -26.9160   22.4430 C   0  0  0  0  0  2  0  0  0  0  0  0
  -19.5390  -26.6360   21.4160 C   0  0  0  0  0  2  0  0  0  0  0  0
  -18.1570  -26.7900   22.0570 C   0  0  0  0  0  2  0  0  0  0  0  0
  -19.1280  -28.8580   23.2180 C   0  0  0  0  0  0  0  0  0  0  0  0
  -18.9270  -30.1070   23.8430 C   0  0  0  0  0  3  0  0  0  0  0  0
  -17.6300  -30.6230   24.0190 C   0  0  0  0  0  3  0  0  0  0  0  0
  -16.5140  -29.8850   23.5840 C   0  0  0  0  0  3  0  0  0  0  0  0
  -16.7010  -28.6390   22.9610 C   0  0  0  0  0  3  0  0  0  0  0  0
  -25.8310  -32.4840   23.8670 C   0  0  0  0  0  3  0  0  0  0  0  0
  -26.2940  -31.7250   25.1730 C   0  0  1  0  0  0  0  0  0  0  0  0
  -25.1590  -31.4970   26.1980 C   0  0  0  0  0  1  0  0  0  0  0  0
  -26.8920  -30.3450   24.8190 C   0  0  0  0  0  1  0  0  0  0  0  0
  -27.4180  -32.5260   25.8720 C   0  0  0  0  0  1  0  0  0  0  0  0
  -25.5100  -33.8870   24.1790 N   0  0  0  0  0  0  0  0  0  0  0  0
  -25.8710  -34.9380   23.4320 C   0  0  0  0  0  0  0  0  0  0  0  0
  -26.5780  -34.8300   22.4260 O   0  0  0  0  0  0  0  0  0  0  0  0
  -24.8890  -34.0450   24.9600 H   0  0  0  0  0  0  0  0  0  0  0  0
  -24.1740  -36.7450   23.0050 C   0  0  0  0  0  1  0  0  0  0  0  0
  -25.3750  -36.3300   23.8700 C   0  0  0  0  0  3  0  0  0  0  0  0
  -27.4700  -37.2060   24.8040 C   0  0  0  0  0  1  0  0  0  0  0  0
  -26.4170  -37.3790   23.8070 N   0  0  0  0  0  0  0  0  0  0  0  0
  -26.0060  -38.3000   23.9360 H   0  0  0  0  0  0  0  0  0  0  0  0
  -29.7730  -19.0810   19.6820 C   0  0  0  0  0  2  0  0  0  0  0  0
  -30.2690  -17.7080   20.5240 C   0  0  0  0  0  2  0  0  0  0  0  0
  -30.8390  -15.0340   19.9820 C   0  0  0  0  0  0  0  0  0  0  0  0
  -30.6660  -12.7030   18.9970 C   0  0  0  0  0  2  0  0  0  0  0  0
  -29.6670  -12.6820   17.8190 C   0  0  0  0  0  2  0  0  0  0  0  0
  -28.2220  -12.4900   18.3220 C   0  0  0  0  0  2  0  0  0  0  0  0
  -27.8890  -13.4070   19.5280 C   0  0  0  0  0  3  0  0  0  0  0  0
  -28.9990  -13.3760   20.5980 C   0  0  0  0  0  2  0  0  0  0  0  0
  -30.2380  -13.7820   19.9240 N   0  0  0  0  0  0  0  0  0  0  0  0
  -32.0450  -15.1050   19.7230 O   0  0  0  0  0  0  0  0  0  0  0  0
  -30.0340  -16.1940   20.1310 N   0  0  0  0  0  0  0  0  0  0  0  0
  -29.0560  -15.9450   20.1720 H   0  0  0  0  0  0  0  0  0  0  0  0
  -25.5620  -14.0170   20.4010 C   0  0  0  0  0  0  0  0  0  0  0  0
  -24.5020  -13.2530   20.8050 C   0  0  0  0  0  0  0  0  0  0  0  0
  -24.9370  -11.8950   20.7200 C   0  0  0  0  0  0  0  0  0  0  0  0
  -26.5730  -13.1240   20.0890 N   0  0  0  0  0  0  0  0  0  0  0  0
  -26.2110  -11.8420   20.3460 N   0  0  0  0  0  0  0  0  0  0  0  0
  -24.1960  -10.6430   20.9130 C   0  0  0  0  0  0  0  0  0  0  0  0
  -24.5980   -9.6860   21.8710 C   0  0  0  0  0  3  0  0  0  0  0  0
  -23.8560   -8.4980   22.0510 C   0  0  0  0  0  3  0  0  0  0  0  0
  -22.6990   -8.2600   21.2730 C   0  0  0  0  0  0  0  0  0  0  0  0
  -22.3170   -9.2040   20.3030 C   0  0  0  0  0  3  0  0  0  0  0  0
  -23.0600  -10.3830   20.1220 C   0  0  0  0  0  3  0  0  0  0  0  0
  -21.9300   -7.1250   21.3620 O   0  0  0  0  0  0  0  0  0  0  0  0
  -21.7790   -6.4480   22.5450 C   0  0  0  0  0  0  0  0  0  0  0  0
  -21.2000   -7.0550   23.6810 C   0  0  0  0  0  3  0  0  0  0  0  0
  -21.0010   -6.3030   24.8550 C   0  0  0  0  0  3  0  0  0  0  0  0
  -21.3710   -4.9440   24.8940 C   0  0  0  0  0  0  0  0  0  0  0  0
  -21.9430   -4.3390   23.7630 C   0  0  0  0  0  3  0  0  0  0  0  0
  -22.1440   -5.0880   22.5900 C   0  0  0  0  0  0  0  0  0  0  0  0
  -22.6760   -4.4930   21.4960 F   0  0  0  0  0  0  0  0  0  0  0  0
  -21.1720   -4.2200   26.0190 F   0  0  0  0  0  0  0  0  0  0  0  0
  -23.1280  -13.7500   21.1530 C   0  0  0  0  0  0  0  0  0  0  0  0
  -22.4310  -13.0480   22.0390 N   0  0  0  0  0  0  0  0  0  0  0  0
  -22.6860  -14.7940   20.6750 O   0  0  0  0  0  0  0  0  0  0  0  0
  -22.8030  -12.2020   22.4450 H   0  0  0  0  0  0  0  0  0  0  0  0
  -21.5110  -13.3620   22.3180 H   0  0  0  0  0  0  0  0  0  0  0  0
  -25.7420  -15.3880   20.2490 N   0  0  0  0  0  0  0  0  0  0  0  0
  -24.9950  -16.0530   20.4210 H   0  0  0  0  0  0  0  0  0  0  0  0
  -26.5740  -15.8290   19.8760 H   0  0  0  0  0  0  0  0  0  0  0  0
  1  3  1  0
  2  1  2  0
  2  5  1  0
  3  7  1  0
  3  6  2  0
  4  6  1  0
  5  4  2  0
  5  9  1  0
  8  7  1  0
 10 12  1  0
 10  9  1  0
 11 22  2  0
 12 17  1  0
 13 21  1  0
 13 23  1  0
 14 20  1  0
 14 16  1  0
 15 21  1  0
 16 17  2  0
 16 15  1  0
 18 12  2  0
 19 18  1  0
 19 14  2  0
 20 13  1  0
 21 11  1  0
 23 25  2  0
 24 23  1  0
 26 24  1  0
 27 36  2  0
 27 32  1  0
 28 24  1  0
 28 32  1  0
 29 28  1  0
 30 31  1  0
 30 29  1  0
 31 27  1  0
 32 33  2  0
 33 34  1  0
 35 34  2  0
 36 35  1  0
 37 11  1  0
 37 42  1  0
 37 38  1  0
 38 41  1  1
 38 39  1  0
 40 38  1  0
 42 45  1  0
 43 47  1  0
 43 42  1  0
 44 43  2  0
 47 46  1  0
 49 47  1  0
 49 50  1  0
 49 48  1  0
 51  6  1  0
 51 52  1  0
 53 61  1  0
 54 59  1  0
 55 56  1  0
 55 54  1  0
 57 56  1  0
 57 66  1  0
 57 58  1  0
 59 53  1  0
 59 58  1  0
 60 53  2  0
 61 62  1  0
 61 52  1  0
 63 64  2  0
 64 83  1  0
 65 64  1  0
 65 68  1  0
 66 67  1  0
 66 63  1  0
 67 65  2  0
 68 69  1  0
 69 70  2  0
 71 74  1  0
 71 70  1  0
 72 71  2  0
 73 72  1  0
 73 68  2  0
 74 75  1  0
 75 80  2  0
 75 76  1  0
 76 77  2  0
 77 78  1  0
 78 82  1  0
 79 78  2  0
 80 79  1  0
 81 80  1  0
 83 84  1  0
 84 87  1  0
 84 86  1  0
 85 83  2  0
 88 63  1  0
 88 89  1  0
 90 88  1  0
M  ISO  4   9 101  10 101  53 100  61 100
M  END
>  <TORSDO>  (15) 
F 19

>  <SCORE>  (15) 
-14.083

>  <name>  (15) 
14

>  <ligand_id>  (15) 
14

>  <original_smiles>  (15) 
[H]N=C1C([H])=C([H])C([H])(C([H])([H])Oc2c([H])c([H])c3c(c2[H])C([H])([H])N(C(=O)C([H])(N([H])C(=O)C([H])(N([H])C([H])([H])[H])C([H])([H])[H])C(C([H])([H])[H])(C([H])([H])[H])C([H])([H])[H])C([H])(C(=O)N([H])C2([H])c4c([H])c([H])c([H])c([H])c4C([H])([H])C([H])([H])C2([H])[H])C3([H])[H])C([H])([H])C1([H])C([H])([H])C([H])([H])N([H])C(=O)N1C([H])([H])C([H])([H])C([H])([H])C([H])(n2nc(-c3c([H])c([H])c(Oc4c([H])c([H])c(F)c([H])c4F)c([H])c3[H])c(C(=O)N([H])[H])c2N([H])[H])C1([H])[H]

>  <smiles>  (15) 
[H]N=C1C([H])=C([H])C([H])(C([H])([H])Oc2c([H])c([H])c3c(c2[H])C([H])([H])N(C(=O)C([H])(N([H])C(=O)C([H])(N([H])C([H])([H])[H])C([H])([H])[H])C(C([H])([H])[H])(C([H])([H])[H])C([H])([H])[H])C([H])(C(=O)N([H])C2([H])c4c([H])c([H])c([H])c([H])c4C([H])([H])C([H])([H])C2([H])[H])C3([H])[H])C([H])([H])C1([H])C([H])([H])C([H])([H])N([H])C(=O)N1C([H])([H])C([H])([H])C([H])([H])C([H])(n2nc(-c3c([H])c([H])c(Oc4c([H])c([H])c(F)c([H])c4F)c([H])c3[H])c(C(=O)N([H])[H])c2N([H])[H])C1([H])[H]

$$$$
15:0:0
     RDKit          3D

 96105  0  0  1  0  0  0  0  0999 V2000
  -32.2280  -23.9650   18.1610 C   0  0  0  0  0  2  0  0  0  0  0  0
  -32.4070  -22.6050   18.8290 C   0  0  0  0  0  2  0  0  0  0  0  0
  -31.7020  -24.8510   19.2770 C   0  0  0  0  0  2  0  0  0  0  0  0
  -31.4270  -22.5920   20.0220 C   0  0  0  0  0  3  0  0  0  0  0  0
  -30.8670  -23.9750   20.1290 N   0  0  1  0  0  4  0  0  0  0  0  0
  -29.9480  -23.9490   19.7120 H   0  0  0  0  0  0  0  0  0  0  0  0
  -30.3340  -21.5070   19.8380 C   0  0  0  0  0  2  0  0  0  0  0  0
  -30.9300  -20.0790   19.8910 C   0  0  0  0  0  2  0  0  0  0  0  0
  -29.9600  -19.0050   19.5770 N   0  0  0  0  0  4  0  0  0  0  0  0
  -29.0460  -19.2450   19.9310 H   0  0  0  0  0  0  0  0  0  0  0  0
  -29.8870  -18.9290   18.5730 H   0  0  0  0  0  0  0  0  0  0  0  0
  -30.7220  -14.3340   20.0830 C   0  0  0  0  0  0  0  0  0  0  0  0
  -30.3530  -12.2120   18.9120 C   0  0  0  0  0  2  0  0  0  0  0  0
  -29.3550  -12.4970   17.7710 C   0  0  0  0  0  2  0  0  0  0  0  0
  -27.8950  -12.3920   18.2650 C   0  0  0  0  0  2  0  0  0  0  0  0
  -27.6480  -13.1720   19.5870 C   0  0  0  0  0  3  0  0  0  0  0  0
  -28.7540  -12.8710   20.6220 C   0  0  0  0  0  2  0  0  0  0  0  0
  -30.0510  -13.1580   19.9920 N   0  0  0  0  0  0  0  0  0  0  0  0
  -31.8410  -14.5220   19.5900 O   0  0  0  0  0  0  0  0  0  0  0  0
  -29.9200  -17.4810   21.5790 C   0  0  0  0  0  2  0  0  0  0  0  0
  -29.9660  -15.9580   21.7460 C   0  0  0  0  0  2  0  0  0  0  0  0
  -29.7660  -16.4790   19.4280 C   0  0  0  0  0  2  0  0  0  0  0  0
  -30.3580  -17.6940   20.1360 C   0  0  0  0  0  3  0  0  0  0  0  0
  -29.9300  -15.3810   20.3930 N   0  0  0  0  0  0  0  0  0  0  0  0
  -25.2970  -13.8170   20.4130 C   0  0  0  0  0  0  0  0  0  0  0  0
  -24.2340  -13.0570   20.8330 C   0  0  0  0  0  0  0  0  0  0  0  0
  -24.6730  -11.7000   20.7710 C   0  0  0  0  0  0  0  0  0  0  0  0
  -26.3150  -12.9180   20.1280 N   0  0  0  0  0  0  0  0  0  0  0  0
  -25.9460  -11.6420   20.3950 N   0  0  0  0  0  0  0  0  0  0  0  0
  -23.9380  -10.4480   20.9930 C   0  0  0  0  0  0  0  0  0  0  0  0
  -24.3880   -9.4810   21.9180 C   0  0  0  0  0  3  0  0  0  0  0  0
  -23.6570   -8.2920   22.1260 C   0  0  0  0  0  3  0  0  0  0  0  0
  -22.4590   -8.0630   21.4070 C   0  0  0  0  0  0  0  0  0  0  0  0
  -22.0280   -9.0170   20.4660 C   0  0  0  0  0  3  0  0  0  0  0  0
  -22.7630  -10.1970   20.2570 C   0  0  0  0  0  3  0  0  0  0  0  0
  -21.6980   -6.9240   21.5230 O   0  0  0  0  0  0  0  0  0  0  0  0
  -21.6540   -6.2040   22.6890 C   0  0  0  0  0  0  0  0  0  0  0  0
  -21.2560   -6.7880   23.9110 C   0  0  0  0  0  3  0  0  0  0  0  0
  -21.1530   -5.9930   25.0700 C   0  0  0  0  0  3  0  0  0  0  0  0
  -21.4440   -4.6180   25.0120 C   0  0  0  0  0  0  0  0  0  0  0  0
  -21.8350   -4.0320   23.7930 C   0  0  0  0  0  3  0  0  0  0  0  0
  -21.9370   -4.8240   22.6350 C   0  0  0  0  0  0  0  0  0  0  0  0
  -22.2930   -4.2510   21.4600 F   0  0  0  0  0  0  0  0  0  0  0  0
  -21.3400   -3.8530   26.1230 F   0  0  0  0  0  0  0  0  0  0  0  0
  -22.8580  -13.5540   21.1730 C   0  0  0  0  0  0  0  0  0  0  0  0
  -22.1640  -12.8690   22.0780 N   0  0  0  0  0  0  0  0  0  0  0  0
  -22.4040  -14.5820   20.6710 O   0  0  0  0  0  0  0  0  0  0  0  0
  -22.5460  -12.0440   22.5140 H   0  0  0  0  0  0  0  0  0  0  0  0
  -21.2390  -13.1830   22.3370 H   0  0  0  0  0  0  0  0  0  0  0  0
  -25.4670  -15.1860   20.2370 N   0  0  0  0  0  0  0  0  0  0  0  0
  -24.7220  -15.8540   20.3920 H   0  0  0  0  0  0  0  0  0  0  0  0
  -26.3160  -15.6180   19.8980 H   0  0  0  0  0  0  0  0  0  0  0  0
  -30.7190  -24.4850   21.5210 C   0  0  0  0  0  2  0  0  0  0  0  0
  -30.0530  -25.8820   21.6080 C   0  0  0  0  0  2  0  0  0  0  0  0
  -28.5520  -25.9080   21.2700 C   0  0  0  0  0  2  0  0  0  0  0  0
  -28.3230  -26.6110   20.0500 O   0  0  0  0  0  0  0  0  0  0  0  0
  -24.5780  -31.7830   23.1690 C   0  0  0  0  0  0  0  0  0  0  0  0
  -27.1700  -27.3550   20.0630 C   0  0  0  0  0  0  0  0  0  0  0  0
  -23.3500  -30.4010   21.5220 C   0  0  0  0  0  3  0  0  0  0  0  0
  -24.7820  -28.8510   20.0930 C   0  0  0  0  0  0  0  0  0  0  0  0
  -25.8730  -30.7450   21.3110 C   0  0  0  0  0  2  0  0  0  0  0  0
  -25.9440  -29.3730   20.6750 C   0  0  0  0  0  0  0  0  0  0  0  0
  -27.1420  -28.6290   20.6650 C   0  0  0  0  0  3  0  0  0  0  0  0
  -25.9990  -26.8340   19.4750 C   0  0  0  0  0  3  0  0  0  0  0  0
  -24.8010  -27.5770   19.4950 C   0  0  0  0  0  3  0  0  0  0  0  0
  -23.5500  -29.7240   20.1390 C   0  0  0  0  0  2  0  0  0  0  0  0
  -24.6190  -30.9880   22.0620 N   0  0  0  0  0  0  0  0  0  0  0  0
  -23.5030  -32.0610   23.7180 O   0  0  0  0  0  0  0  0  0  0  0  0
  -22.6930  -29.3810   22.4820 C   0  0  0  0  0  0  0  0  0  0  0  0
  -21.3610  -29.2360   22.3820 N   0  0  0  0  0  0  0  0  0  0  0  0
  -23.3780  -28.7270   23.2730 O   0  0  0  0  0  0  0  0  0  0  0  0
  -20.8710  -29.8190   21.7180 H   0  0  0  0  0  0  0  0  0  0  0  0
  -17.9680  -28.1300   22.9260 C   0  0  0  0  0  0  0  0  0  0  0  0
  -20.5360  -28.3050   23.1510 C   0  0  0  0  0  3  0  0  0  0  0  0
  -20.5850  -26.8820   22.5500 C   0  0  0  0  0  2  0  0  0  0  0  0
  -19.4540  -26.6110   21.5540 C   0  0  0  0  0  2  0  0  0  0  0  0
  -18.0890  -26.7870   22.2260 C   0  0  0  0  0  2  0  0  0  0  0  0
  -19.1180  -28.8500   23.3470 C   0  0  0  0  0  0  0  0  0  0  0  0
  -18.9480  -30.1110   23.9610 C   0  0  0  0  0  3  0  0  0  0  0  0
  -17.6630  -30.6490   24.1580 C   0  0  0  0  0  3  0  0  0  0  0  0
  -16.5270  -29.9250   23.7520 C   0  0  0  0  0  3  0  0  0  0  0  0
  -16.6820  -28.6680   23.1410 C   0  0  0  0  0  3  0  0  0  0  0  0
  -25.8730  -32.3960   23.7860 C   0  0  0  0  0  3  0  0  0  0  0  0
  -25.5760  -33.7900   24.1360 N   0  0  0  0  0  0  0  0  0  0  0  0
  -25.9170  -34.8490   23.3930 C   0  0  0  0  0  0  0  0  0  0  0  0
  -26.5840  -34.7560   22.3590 O   0  0  0  0  0  0  0  0  0  0  0  0
  -24.9760  -33.9370   24.9350 H   0  0  0  0  0  0  0  0  0  0  0  0
  -24.1980  -36.6580   23.0790 C   0  0  0  0  0  1  0  0  0  0  0  0
  -25.4430  -36.2340   23.8740 C   0  0  0  0  0  3  0  0  0  0  0  0
  -27.5940  -37.0880   24.6970 C   0  0  0  0  0  1  0  0  0  0  0  0
  -26.4830  -37.2820   23.7680 N   0  0  0  0  0  0  0  0  0  0  0  0
  -26.0870  -38.2020   23.9390 H   0  0  0  0  0  0  0  0  0  0  0  0
  -26.3980  -31.6000   25.0410 C   0  0  1  0  0  0  0  0  0  0  0  0
  -25.3180  -31.3560   26.1210 C   0  0  0  0  0  1  0  0  0  0  0  0
  -26.9580  -30.2240   24.6120 C   0  0  0  0  0  1  0  0  0  0  0  0
  -27.5590  -32.3720   25.7070 C   0  0  0  0  0  1  0  0  0  0  0  0
  1  2  1  0
  1  3  1  0
  2  4  1  0
  3  5  1  0
  4  7  1  0
  4  5  1  0
  5 53  1  0
  5  6  1  6
  7  8  1  0
  9  8  1  0
  9 10  1  0
 11  9  1  0
 12 24  1  0
 13 18  1  0
 14 15  1  0
 14 13  1  0
 16 15  1  0
 16 28  1  0
 16 17  1  0
 18 12  1  0
 18 17  1  0
 19 12  2  0
 20 21  1  0
 22 23  1  0
 22 24  1  0
 23  9  1  0
 23 20  1  0
 24 21  1  0
 25 26  2  0
 26 45  1  0
 27 26  1  0
 27 30  1  0
 28 29  1  0
 28 25  1  0
 29 27  2  0
 30 31  1  0
 31 32  2  0
 33 36  1  0
 33 32  1  0
 34 33  2  0
 35 34  1  0
 35 30  2  0
 36 37  1  0
 37 38  1  0
 38 39  2  0
 40 39  1  0
 40 44  1  0
 41 40  2  0
 42 37  2  0
 42 41  1  0
 43 42  1  0
 45 46  1  0
 46 49  1  0
 46 48  1  0
 47 45  2  0
 50 51  1  0
 50 25  1  0
 52 50  1  0
 53 54  1  0
 55 54  1  0
 56 58  1  0
 56 55  1  0
 57 68  2  0
 58 63  1  0
 59 67  1  0
 59 69  1  0
 60 66  1  0
 60 62  1  0
 61 67  1  0
 62 61  1  0
 63 62  2  0
 64 65  1  0
 64 58  2  0
 65 60  2  0
 66 59  1  0
 67 57  1  0
 69 71  2  0
 70 69  1  0
 72 70  1  0
 73 82  2  0
 73 78  1  0
 74 70  1  0
 74 78  1  0
 75 74  1  0
 76 77  1  0
 76 75  1  0
 77 73  1  0
 78 79  2  0
 79 80  1  0
 81 80  2  0
 82 81  1  0
 83 57  1  0
 83 84  1  0
 83 93  1  0
 84 87  1  0
 85 89  1  0
 85 84  1  0
 86 85  2  0
 89 88  1  0
 91 89  1  0
 91 92  1  0
 91 90  1  0
 93 96  1  1
 93 94  1  0
 95 93  1  0
M  ISO  4  12 100  24 100  55 101  56 101
M  END
>  <TORSDO>  (16) 
F 22

>  <SCORE>  (16) 
-12.861

>  <name>  (16) 
15

>  <ligand_id>  (16) 
15

>  <original_smiles>  (16) 
[H]c1c([H])c([H])c2c(c1[H])C([H])([H])C([H])([H])C([H])([H])C2([H])N([H])C(=O)C1([H])N(C(=O)C([H])(N([H])C(=O)C([H])(N([H])C([H])([H])[H])C([H])([H])[H])C(C([H])([H])[H])(C([H])([H])[H])C([H])([H])[H])C([H])([H])c2c([H])c(OC([H])([H])C([H])([H])C([H])([H])[N+]3([H])C([H])([H])C([H])([H])C([H])([H])C3([H])C([H])([H])C([H])([H])[N+]([H])([H])C3([H])C([H])([H])N(C(=O)N4C([H])([H])C([H])([H])C([H])([H])C([H])(n5nc(-c6c([H])c([H])c(Oc7c([H])c([H])c(F)c([H])c7F)c([H])c6[H])c(C(=O)N([H])[H])c5N([H])[H])C4([H])[H])C([H])([H])C3([H])[H])c([H])c([H])c2C1([H])[H]

>  <smiles>  (16) 
[H]c1c([H])c([H])c2c(c1[H])C([H])([H])C([H])([H])C([H])([H])C2([H])N([H])C(=O)C1([H])N(C(=O)C([H])(N([H])C(=O)C([H])(N([H])C([H])([H])[H])C([H])([H])[H])C(C([H])([H])[H])(C([H])([H])[H])C([H])([H])[H])C([H])([H])c2c([H])c(OC([H])([H])C([H])([H])C([H])([H])[N+]3([H])C([H])([H])C([H])([H])C([H])([H])C3([H])C([H])([H])C([H])([H])[N+]([H])([H])C3([H])C([H])([H])N(C(=O)N4C([H])([H])C([H])([H])C([H])([H])C([H])(n5nc(-c6c([H])c([H])c(Oc7c([H])c([H])c(F)c([H])c7F)c([H])c6[H])c(C(=O)N([H])[H])c5N([H])[H])C4([H])[H])C([H])([H])C3([H])[H])c([H])c([H])c2C1([H])[H]

$$$$
16:0:0
     RDKit          3D

 91100  0  0  1  0  0  0  0  0999 V2000
  -30.2740  -18.3920   22.5890 C   0  0  0  0  0  3  0  0  0  0  0  0
  -30.2530  -17.2870   21.8160 C   0  0  0  0  0  3  0  0  0  0  0  0
  -29.9000  -18.7730   19.7810 C   0  0  0  0  0  2  0  0  0  0  0  0
  -30.6890  -20.8850   21.8110 C   0  0  0  0  0  2  0  0  0  0  0  0
  -29.7050  -19.7500   22.1800 C   0  0  0  0  0  3  0  0  0  0  0  0
  -29.7750  -17.2680   20.3700 C   0  0  0  0  0  3  0  0  0  0  0  0
  -29.2150  -19.8610   20.7330 C   0  0  0  0  0  3  0  0  0  0  0  0
  -29.6050  -21.3320   20.9410 N   0  0  2  0  0  4  0  0  0  0  0  0
  -28.8870  -21.6680   21.5650 H   0  0  0  0  0  0  0  0  0  0  0  0
  -31.0530  -14.9640   19.8830 C   0  0  0  0  0  0  0  0  0  0  0  0
  -30.7160  -12.6900   18.9340 C   0  0  0  0  0  2  0  0  0  0  0  0
  -29.7120  -12.7380   17.7630 C   0  0  0  0  0  2  0  0  0  0  0  0
  -28.2690  -12.6000   18.2840 C   0  0  0  0  0  2  0  0  0  0  0  0
  -27.9700  -13.5380   19.4850 C   0  0  0  0  0  3  0  0  0  0  0  0
  -29.0900  -13.4960   20.5470 C   0  0  0  0  0  2  0  0  0  0  0  0
  -30.3480  -13.7880   19.8550 N   0  0  0  0  0  0  0  0  0  0  0  0
  -32.2540  -14.9570   19.6140 O   0  0  0  0  0  0  0  0  0  0  0  0
  -30.3930  -16.1360   19.5700 N   0  0  0  0  0  0  0  0  0  0  0  0
  -30.8910  -16.5380   18.7890 H   0  0  0  0  0  0  0  0  0  0  0  0
  -25.6600  -14.1790   20.3890 C   0  0  0  0  0  0  0  0  0  0  0  0
  -24.5860  -13.4290   20.7830 C   0  0  0  0  0  0  0  0  0  0  0  0
  -24.9980  -12.0640   20.6750 C   0  0  0  0  0  0  0  0  0  0  0  0
  -26.6550  -13.2760   20.0570 N   0  0  0  0  0  0  0  0  0  0  0  0
  -26.2680  -11.9950   20.2960 N   0  0  0  0  0  0  0  0  0  0  0  0
  -24.2360  -10.8210   20.8500 C   0  0  0  0  0  0  0  0  0  0  0  0
  -24.6630   -9.8100   21.7410 C   0  0  0  0  0  3  0  0  0  0  0  0
  -23.9010   -8.6350   21.9080 C   0  0  0  0  0  3  0  0  0  0  0  0
  -22.6980   -8.4600   21.1850 C   0  0  0  0  0  0  0  0  0  0  0  0
  -22.2910   -9.4560   20.2800 C   0  0  0  0  0  3  0  0  0  0  0  0
  -23.0540  -10.6240   20.1110 C   0  0  0  0  0  3  0  0  0  0  0  0
  -21.9060   -7.3400   21.2630 O   0  0  0  0  0  0  0  0  0  0  0  0
  -21.8410   -6.5830   22.4050 C   0  0  0  0  0  0  0  0  0  0  0  0
  -21.4280   -7.1320   23.6380 C   0  0  0  0  0  3  0  0  0  0  0  0
  -21.3080   -6.3040   24.7730 C   0  0  0  0  0  3  0  0  0  0  0  0
  -21.5960   -4.9300   24.6740 C   0  0  0  0  0  0  0  0  0  0  0  0
  -22.0030   -4.3800   23.4460 C   0  0  0  0  0  3  0  0  0  0  0  0
  -22.1220   -5.2050   22.3140 C   0  0  0  0  0  0  0  0  0  0  0  0
  -22.4960   -4.6670   21.1280 F   0  0  0  0  0  0  0  0  0  0  0  0
  -21.4740   -4.1320   25.7620 F   0  0  0  0  0  0  0  0  0  0  0  0
  -23.2260  -13.9430   21.1470 C   0  0  0  0  0  0  0  0  0  0  0  0
  -22.5210  -13.2420   22.0280 N   0  0  0  0  0  0  0  0  0  0  0  0
  -22.7980  -15.0000   20.6860 O   0  0  0  0  0  0  0  0  0  0  0  0
  -22.8820  -12.3850   22.4210 H   0  0  0  0  0  0  0  0  0  0  0  0
  -21.6120  -13.5710   22.3170 H   0  0  0  0  0  0  0  0  0  0  0  0
  -25.8670  -15.5510   20.2600 N   0  0  0  0  0  0  0  0  0  0  0  0
  -25.1360  -16.2250   20.4540 H   0  0  0  0  0  0  0  0  0  0  0  0
  -26.7180  -15.9770   19.9150 H   0  0  0  0  0  0  0  0  0  0  0  0
  -29.7270  -22.4930   19.9530 C   0  0  0  0  0  2  0  0  0  0  0  0
  -29.6900  -24.0000   20.5710 C   0  0  0  0  0  3  0  0  0  0  0  0
  -28.8950  -25.1920   19.8220 C   0  0  0  0  0  3  0  0  0  0  0  0
  -28.9720  -26.6320   20.2540 O   0  0  0  0  0  0  0  0  0  0  0  0
  -24.8300  -31.7670   23.2600 C   0  0  0  0  0  0  0  0  0  0  0  0
  -27.8400  -27.4740   20.1430 C   0  0  0  0  0  0  0  0  0  0  0  0
  -23.7910  -30.3780   21.5050 C   0  0  0  0  0  3  0  0  0  0  0  0
  -25.3970  -28.9910   20.0750 C   0  0  0  0  0  0  0  0  0  0  0  0
  -26.3150  -30.8390   21.4670 C   0  0  0  0  0  2  0  0  0  0  0  0
  -26.5060  -29.4960   20.7630 C   0  0  0  0  0  0  0  0  0  0  0  0
  -27.7280  -28.7500   20.7930 C   0  0  0  0  0  3  0  0  0  0  0  0
  -26.7150  -27.0580   19.3940 C   0  0  0  0  0  3  0  0  0  0  0  0
  -25.5080  -27.7790   19.3790 C   0  0  0  0  0  3  0  0  0  0  0  0
  -24.1090  -29.7900   20.1070 C   0  0  0  0  0  2  0  0  0  0  0  0
  -24.9930  -31.0120   22.1350 N   0  0  0  0  0  0  0  0  0  0  0  0
  -23.7080  -31.9570   23.7500 O   0  0  0  0  0  0  0  0  0  0  0  0
  -23.1460  -29.2770   22.3850 C   0  0  0  0  0  0  0  0  0  0  0  0
  -21.8320  -29.0540   22.2110 N   0  0  0  0  0  0  0  0  0  0  0  0
  -23.8280  -28.6340   23.1870 O   0  0  0  0  0  0  0  0  0  0  0  0
  -21.3400  -29.6250   21.5350 H   0  0  0  0  0  0  0  0  0  0  0  0
  -18.4880  -27.7280   22.6030 C   0  0  0  0  0  0  0  0  0  0  0  0
  -21.0340  -28.0420   22.9060 C   0  0  0  0  0  3  0  0  0  0  0  0
  -21.1800  -26.6570   22.2360 C   0  0  0  0  0  2  0  0  0  0  0  0
  -20.0900  -26.3610   21.2020 C   0  0  0  0  0  2  0  0  0  0  0  0
  -18.7060  -26.4270   21.8510 C   0  0  0  0  0  2  0  0  0  0  0  0
  -19.5800  -28.4920   23.0900 C   0  0  0  0  0  0  0  0  0  0  0  0
  -19.3200  -29.7030   23.7650 C   0  0  0  0  0  3  0  0  0  0  0  0
  -17.9980  -30.1500   23.9550 C   0  0  0  0  0  3  0  0  0  0  0  0
  -16.9210  -29.3850   23.4780 C   0  0  0  0  0  3  0  0  0  0  0  0
  -17.1660  -28.1720   22.8110 C   0  0  0  0  0  3  0  0  0  0  0  0
  -26.0410  -32.4440   23.9700 C   0  0  0  0  0  3  0  0  0  0  0  0
  -26.5080  -31.6790   25.2700 C   0  0  1  0  0  0  0  0  0  0  0  0
  -25.3610  -31.3820   26.2620 C   0  0  0  0  0  1  0  0  0  0  0  0
  -27.1740  -30.3320   24.9040 C   0  0  0  0  0  1  0  0  0  0  0  0
  -27.5810  -32.5120   26.0100 C   0  0  0  0  0  1  0  0  0  0  0  0
  -25.6510  -33.8240   24.2970 N   0  0  0  0  0  0  0  0  0  0  0  0
  -25.9810  -34.9020   23.5740 C   0  0  0  0  0  0  0  0  0  0  0  0
  -26.7180  -34.8440   22.5850 O   0  0  0  0  0  0  0  0  0  0  0  0
  -25.0080  -33.9410   25.0680 H   0  0  0  0  0  0  0  0  0  0  0  0
  -24.1950  -36.6190   23.1430 C   0  0  0  0  0  1  0  0  0  0  0  0
  -25.4070  -36.2620   24.0180 C   0  0  0  0  0  3  0  0  0  0  0  0
  -27.4430  -37.2370   24.9830 C   0  0  0  0  0  1  0  0  0  0  0  0
  -26.3940  -37.3630   23.9740 N   0  0  0  0  0  0  0  0  0  0  0  0
  -25.9390  -38.2610   24.1010 H   0  0  0  0  0  0  0  0  0  0  0  0
  2  1  2  0
  3  6  1  0
  5  4  1  0
  5  1  1  0
  6 18  1  0
  6  2  1  0
  7  3  1  0
  7  8  1  0
  7  5  1  0
  8  9  1  1
  8  4  1  0
 11 16  1  0
 12 13  1  0
 12 11  1  0
 14 13  1  0
 14 23  1  0
 14 15  1  0
 16 10  1  0
 16 15  1  0
 17 10  2  0
 18 10  1  0
 19 18  1  0
 20 21  2  0
 21 40  1  0
 22 21  1  0
 22 25  1  0
 23 24  1  0
 23 20  1  0
 24 22  2  0
 25 26  1  0
 26 27  2  0
 28 31  1  0
 28 27  1  0
 29 28  2  0
 30 29  1  0
 30 25  2  0
 31 32  1  0
 32 33  1  0
 33 34  2  0
 35 34  1  0
 35 39  1  0
 36 35  2  0
 37 32  2  0
 37 36  1  0
 38 37  1  0
 40 41  1  0
 41 44  1  0
 41 43  1  0
 42 40  2  0
 45 20  1  0
 45 46  1  0
 47 45  1  0
 48 49  1  0
 48  8  1  0
 50 51  1  0
 50 49  2  0
 52 63  2  0
 53 51  1  0
 53 58  1  0
 54 62  1  0
 54 64  1  0
 55 61  1  0
 55 57  1  0
 56 62  1  0
 57 58  2  0
 57 56  1  0
 59 53  2  0
 60 59  1  0
 60 55  2  0
 61 54  1  0
 62 52  1  0
 64 66  2  0
 65 64  1  0
 67 65  1  0
 68 77  2  0
 68 73  1  0
 69 65  1  0
 69 73  1  0
 70 69  1  0
 71 72  1  0
 71 70  1  0
 72 68  1  0
 73 74  2  0
 74 75  1  0
 76 75  2  0
 77 76  1  0
 78 52  1  0
 78 83  1  0
 78 79  1  0
 79 82  1  1
 79 80  1  0
 81 79  1  0
 83 86  1  0
 84 88  1  0
 84 83  1  0
 85 84  2  0
 88 87  1  0
 90 88  1  0
 90 91  1  0
 90 89  1  0
M  ISO  4  10 100  18 100  50 101  51 101
M  END
>  <TORSDO>  (17) 
F 19

>  <SCORE>  (17) 
-12.093

>  <name>  (17) 
16

>  <ligand_id>  (17) 
16

>  <original_smiles>  (17) 
[H]C1=C([H])C2([H])C([H])([H])[N+]([H])(C([H])([H])C([H])([H])C([H])([H])Oc3c([H])c([H])c4c(c3[H])C([H])([H])N(C(=O)C([H])(N([H])C(=O)C([H])(N([H])C([H])([H])[H])C([H])([H])[H])C(C([H])([H])[H])(C([H])([H])[H])C([H])([H])[H])C([H])(C(=O)N([H])C3([H])c5c([H])c([H])c([H])c([H])c5C([H])([H])C([H])([H])C3([H])[H])C4([H])[H])C2([H])C([H])([H])C1([H])N([H])C(=O)N1C([H])([H])C([H])([H])C([H])([H])C([H])(n2nc(-c3c([H])c([H])c(Oc4c([H])c([H])c(F)c([H])c4F)c([H])c3[H])c(C(=O)N([H])[H])c2N([H])[H])C1([H])[H]

>  <smiles>  (17) 
[H]C1=C([H])C2([H])C([H])([H])[N+]([H])(C([H])([H])C([H])([H])C([H])([H])Oc3c([H])c([H])c4c(c3[H])C([H])([H])N(C(=O)C([H])(N([H])C(=O)C([H])(N([H])C([H])([H])[H])C([H])([H])[H])C(C([H])([H])[H])(C([H])([H])[H])C([H])([H])[H])C([H])(C(=O)N([H])C3([H])c5c([H])c([H])c([H])c([H])c5C([H])([H])C([H])([H])C3([H])[H])C4([H])[H])C2([H])C([H])([H])C1([H])N([H])C(=O)N1C([H])([H])C([H])([H])C([H])([H])C([H])(n2nc(-c3c([H])c([H])c(Oc4c([H])c([H])c(F)c([H])c4F)c([H])c3[H])c(C(=O)N([H])[H])c2N([H])[H])C1([H])[H]

$$$$
17:0:0
     RDKit          3D

 93102  0  0  1  0  0  0  0  0999 V2000
  -29.0390  -22.5500   19.6460 C   0  0  0  0  0  2  0  0  0  0  0  0
  -29.4330  -23.6380   21.7230 C   0  0  0  0  0  2  0  0  0  0  0  0
  -30.0370  -21.6630   20.4540 C   0  0  0  0  0  3  0  0  0  0  0  0
  -29.2380  -23.9950   20.2310 C   0  0  0  0  0  3  0  0  0  0  0  0
  -29.9950  -22.2580   21.8030 N   0  0  0  0  0  4  0  0  0  0  0  0
  -29.4090  -21.6980   22.4000 H   0  0  0  0  0  0  0  0  0  0  0  0
  -30.9200  -22.2670   22.1980 H   0  0  0  0  0  0  0  0  0  0  0  0
  -31.1370  -19.3000   20.3230 C   0  0  0  0  0  3  0  0  0  0  0  0
  -28.7510  -19.3600   20.6040 C   0  0  0  0  0  3  0  0  0  0  0  0
  -31.1250  -17.8750   20.3710 C   0  0  0  0  0  3  0  0  0  0  0  0
  -28.7390  -17.9340   20.6620 C   0  0  0  0  0  3  0  0  0  0  0  0
  -29.9560  -20.0880   20.4410 C   0  0  0  0  0  0  0  0  0  0  0  0
  -29.9190  -17.1490   20.5480 C   0  0  0  0  0  0  0  0  0  0  0  0
  -30.5920  -14.6600   20.2010 C   0  0  0  0  0  0  0  0  0  0  0  0
  -30.3330  -12.4550   19.0830 C   0  0  0  0  0  2  0  0  0  0  0  0
  -29.3480  -12.6240   17.9040 C   0  0  0  0  0  2  0  0  0  0  0  0
  -27.8890  -12.4630   18.3770 C   0  0  0  0  0  2  0  0  0  0  0  0
  -27.5790  -13.2920   19.6510 C   0  0  0  0  0  3  0  0  0  0  0  0
  -28.6730  -13.0950   20.7250 C   0  0  0  0  0  2  0  0  0  0  0  0
  -29.9670  -13.4440   20.1150 N   0  0  0  0  0  0  0  0  0  0  0  0
  -31.7350  -14.8270   19.7650 O   0  0  0  0  0  0  0  0  0  0  0  0
  -29.8070  -15.6940   20.6390 N   0  0  0  0  0  0  0  0  0  0  0  0
  -28.9110  -15.3690   20.9680 H   0  0  0  0  0  0  0  0  0  0  0  0
  -25.2080  -13.8870   20.4440 C   0  0  0  0  0  0  0  0  0  0  0  0
  -24.1510  -13.1100   20.8380 C   0  0  0  0  0  0  0  0  0  0  0  0
  -24.6100  -11.7590   20.7770 C   0  0  0  0  0  0  0  0  0  0  0  0
  -26.2440  -13.0080   20.1700 N   0  0  0  0  0  0  0  0  0  0  0  0
  -25.8910  -11.7220   20.4300 N   0  0  0  0  0  0  0  0  0  0  0  0
  -23.8890  -10.4950   20.9740 C   0  0  0  0  0  0  0  0  0  0  0  0
  -24.3270   -9.5340   21.9110 C   0  0  0  0  0  3  0  0  0  0  0  0
  -23.6060   -8.3340   22.0950 C   0  0  0  0  0  3  0  0  0  0  0  0
  -22.4320   -8.0880   21.3430 C   0  0  0  0  0  0  0  0  0  0  0  0
  -22.0140   -9.0390   20.3950 C   0  0  0  0  0  3  0  0  0  0  0  0
  -22.7360  -10.2300   20.2100 C   0  0  0  0  0  3  0  0  0  0  0  0
  -21.6830   -6.9410   21.4360 O   0  0  0  0  0  0  0  0  0  0  0  0
  -21.6090   -6.2220   22.6020 C   0  0  0  0  0  0  0  0  0  0  0  0
  -21.1270   -6.7930   23.8000 C   0  0  0  0  0  3  0  0  0  0  0  0
  -21.0030   -5.9990   24.9580 C   0  0  0  0  0  3  0  0  0  0  0  0
  -21.3500   -4.6360   24.9180 C   0  0  0  0  0  0  0  0  0  0  0  0
  -21.8250   -4.0650   23.7250 C   0  0  0  0  0  3  0  0  0  0  0  0
  -21.9510   -4.8550   22.5690 C   0  0  0  0  0  0  0  0  0  0  0  0
  -22.3890   -4.2940   21.4160 F   0  0  0  0  0  0  0  0  0  0  0  0
  -21.2240   -3.8710   26.0280 F   0  0  0  0  0  0  0  0  0  0  0  0
  -22.7630  -13.5860   21.1570 C   0  0  0  0  0  0  0  0  0  0  0  0
  -22.0620  -12.8820   22.0390 N   0  0  0  0  0  0  0  0  0  0  0  0
  -22.3090  -14.6150   20.6590 O   0  0  0  0  0  0  0  0  0  0  0  0
  -22.4420  -12.0480   22.4620 H   0  0  0  0  0  0  0  0  0  0  0  0
  -21.1320  -13.1820   22.2950 H   0  0  0  0  0  0  0  0  0  0  0  0
  -25.3660  -15.2590   20.2720 N   0  0  0  0  0  0  0  0  0  0  0  0
  -24.5920  -15.9040   20.3890 H   0  0  0  0  0  0  0  0  0  0  0  0
  -26.1830  -15.6920   19.8590 H   0  0  0  0  0  0  0  0  0  0  0  0
  -28.1250  -25.0830   19.9080 C   0  0  0  0  0  2  0  0  0  0  0  0
  -28.3320  -26.5160   20.2150 O   0  0  0  0  0  0  0  0  0  0  0  0
  -24.6260  -31.8910   23.2830 C   0  0  0  0  0  0  0  0  0  0  0  0
  -27.2100  -27.3610   20.1700 C   0  0  0  0  0  0  0  0  0  0  0  0
  -23.4090  -30.5120   21.6370 C   0  0  0  0  0  3  0  0  0  0  0  0
  -24.8460  -28.9750   20.1890 C   0  0  0  0  0  0  0  0  0  0  0  0
  -25.9470  -30.8270   21.4420 C   0  0  0  0  0  2  0  0  0  0  0  0
  -26.0200  -29.4550   20.7830 C   0  0  0  0  0  0  0  0  0  0  0  0
  -27.2040  -28.6600   20.7660 C   0  0  0  0  0  3  0  0  0  0  0  0
  -26.0100  -26.9370   19.5490 C   0  0  0  0  0  3  0  0  0  0  0  0
  -24.8430  -27.7200   19.5650 C   0  0  0  0  0  3  0  0  0  0  0  0
  -23.6130  -29.8500   20.2500 C   0  0  0  0  0  2  0  0  0  0  0  0
  -24.6790  -31.0920   22.1780 N   0  0  0  0  0  0  0  0  0  0  0  0
  -23.5490  -32.1680   23.8260 O   0  0  0  0  0  0  0  0  0  0  0  0
  -22.7490  -29.4870   22.5920 C   0  0  0  0  0  0  0  0  0  0  0  0
  -21.4250  -29.3040   22.4630 N   0  0  0  0  0  0  0  0  0  0  0  0
  -23.4300  -28.8580   23.4080 O   0  0  0  0  0  0  0  0  0  0  0  0
  -20.9350  -29.8670   21.7800 H   0  0  0  0  0  0  0  0  0  0  0  0
  -18.0500  -28.0980   22.9480 C   0  0  0  0  0  0  0  0  0  0  0  0
  -20.6070  -28.3630   23.2270 C   0  0  0  0  0  3  0  0  0  0  0  0
  -20.7130  -26.9320   22.6490 C   0  0  0  0  0  2  0  0  0  0  0  0
  -19.6160  -26.6090   21.6300 C   0  0  0  0  0  2  0  0  0  0  0  0
  -18.2320  -26.7500   22.2700 C   0  0  0  0  0  2  0  0  0  0  0  0
  -19.1650  -28.8620   23.3820 C   0  0  0  0  0  0  0  0  0  0  0  0
  -18.9410  -30.1230   23.9760 C   0  0  0  0  0  3  0  0  0  0  0  0
  -17.6340  -30.6200   24.1390 C   0  0  0  0  0  3  0  0  0  0  0  0
  -16.5340  -29.8530   23.7190 C   0  0  0  0  0  3  0  0  0  0  0  0
  -16.7410  -28.5940   23.1310 C   0  0  0  0  0  3  0  0  0  0  0  0
  -25.9160  -32.5140   23.9020 C   0  0  0  0  0  3  0  0  0  0  0  0
  -25.6170  -33.9140   24.2350 N   0  0  0  0  0  0  0  0  0  0  0  0
  -25.9290  -34.9640   23.4640 C   0  0  0  0  0  0  0  0  0  0  0  0
  -26.5700  -34.8560   22.4140 O   0  0  0  0  0  0  0  0  0  0  0  0
  -25.0470  -34.0710   25.0530 H   0  0  0  0  0  0  0  0  0  0  0  0
  -24.1840  -36.7490   23.1640 C   0  0  0  0  0  1  0  0  0  0  0  0
  -25.4570  -36.3540   23.9300 C   0  0  0  0  0  3  0  0  0  0  0  0
  -27.6160  -37.2550   24.6760 C   0  0  0  0  0  1  0  0  0  0  0  0
  -26.4810  -37.4080   23.7690 N   0  0  0  0  0  0  0  0  0  0  0  0
  -26.0770  -38.3290   23.9190 H   0  0  0  0  0  0  0  0  0  0  0  0
  -26.4300  -31.7380   25.1750 C   0  0  1  0  0  0  0  0  0  0  0  0
  -25.3380  -31.5030   26.2450 C   0  0  0  0  0  1  0  0  0  0  0  0
  -27.0070  -30.3580   24.7790 C   0  0  0  0  0  1  0  0  0  0  0  0
  -27.5850  -32.5250   25.8390 C   0  0  0  0  0  1  0  0  0  0  0  0
  1  4  1  0
  1  3  1  0
  2  5  1  0
  3 12  1  0
  3  5  1  0
  4 52  1  0
  4  2  1  0
  5  7  1  0
  5  6  1  0
  8 10  2  0
  8 12  1  0
  9 11  1  0
 10 13  1  0
 12  9  2  0
 13 22  1  0
 13 11  2  0
 14 22  1  0
 15 20  1  0
 16 17  1  0
 16 15  1  0
 18 17  1  0
 18 27  1  0
 18 19  1  0
 20 14  1  0
 20 19  1  0
 21 14  2  0
 22 23  1  0
 24 25  2  0
 25 44  1  0
 26 25  1  0
 26 29  1  0
 27 28  1  0
 27 24  1  0
 28 26  2  0
 29 30  1  0
 30 31  2  0
 32 35  1  0
 32 31  1  0
 33 32  2  0
 34 33  1  0
 34 29  2  0
 35 36  1  0
 36 37  1  0
 37 38  2  0
 39 38  1  0
 39 43  1  0
 40 39  2  0
 41 36  2  0
 41 40  1  0
 42 41  1  0
 44 45  1  0
 45 48  1  0
 45 47  1  0
 46 44  2  0
 49 50  1  0
 49 24  1  0
 51 49  1  0
 52 53  1  0
 54 65  2  0
 55 53  1  0
 55 60  1  0
 56 64  1  0
 56 66  1  0
 57 63  1  0
 57 59  1  0
 58 64  1  0
 59 58  1  0
 60 59  2  0
 61 62  1  0
 61 55  2  0
 62 57  2  0
 63 56  1  0
 64 54  1  0
 66 68  2  0
 67 66  1  0
 69 67  1  0
 70 79  2  0
 70 75  1  0
 71 67  1  0
 71 75  1  0
 72 71  1  0
 73 74  1  0
 73 72  1  0
 74 70  1  0
 75 76  2  0
 76 77  1  0
 78 77  2  0
 79 78  1  0
 80 54  1  0
 80 81  1  0
 80 90  1  0
 81 84  1  0
 82 86  1  0
 82 81  1  0
 83 82  2  0
 86 85  1  0
 88 89  1  0
 88 86  1  0
 88 87  1  0
 90 93  1  1
 90 91  1  0
 92 90  1  0
M  ISO  4  14 100  22 100  52 101  53 101
M  END
>  <TORSDO>  (18) 
F 18

>  <SCORE>  (18) 
-14.760

>  <name>  (18) 
17

>  <ligand_id>  (18) 
17

>  <original_smiles>  (18) 
[H]c1c([H])c([H])c2c(c1[H])C([H])([H])C([H])([H])C([H])([H])C2([H])N([H])C(=O)C1([H])N(C(=O)C([H])(N([H])C(=O)C([H])(N([H])C([H])([H])[H])C([H])([H])[H])C(C([H])([H])[H])(C([H])([H])[H])C([H])([H])[H])C([H])([H])c2c([H])c(OC([H])([H])C3([H])C([H])([H])C([H])(c4c([H])c([H])c(N([H])C(=O)N5C([H])([H])C([H])([H])C([H])([H])C([H])(n6nc(-c7c([H])c([H])c(Oc8c([H])c([H])c(F)c([H])c8F)c([H])c7[H])c(C(=O)N([H])[H])c6N([H])[H])C5([H])[H])c([H])c4[H])[N+]([H])([H])C3([H])[H])c([H])c([H])c2C1([H])[H]

>  <smiles>  (18) 
[H]c1c([H])c([H])c2c(c1[H])C([H])([H])C([H])([H])C([H])([H])C2([H])N([H])C(=O)C1([H])N(C(=O)C([H])(N([H])C(=O)C([H])(N([H])C([H])([H])[H])C([H])([H])[H])C(C([H])([H])[H])(C([H])([H])[H])C([H])([H])[H])C([H])([H])c2c([H])c(OC([H])([H])C3([H])C([H])([H])C([H])(c4c([H])c([H])c(N([H])C(=O)N5C([H])([H])C([H])([H])C([H])([H])C([H])(n6nc(-c7c([H])c([H])c(Oc8c([H])c([H])c(F)c([H])c8F)c([H])c7[H])c(C(=O)N([H])[H])c6N([H])[H])C5([H])[H])c([H])c4[H])[N+]([H])([H])C3([H])[H])c([H])c([H])c2C1([H])[H]

$$$$
18:0:0
     RDKit          3D

 90 99  0  0  1  0  0  0  0  0999 V2000
  -28.5310  -20.9290   20.2700 N   0  0  0  0  0  4  0  0  0  0  0  0
  -28.1550  -21.0250   21.1990 H   0  0  0  0  0  0  0  0  0  0  0  0
  -27.7490  -20.7230   19.6710 H   0  0  0  0  0  0  0  0  0  0  0  0
  -30.7220  -14.7460   19.8260 C   0  0  0  0  0  0  0  0  0  0  0  0
  -30.4050  -12.5120   18.7540 C   0  0  0  0  0  2  0  0  0  0  0  0
  -29.3650  -12.6240   17.6210 C   0  0  0  0  0  2  0  0  0  0  0  0
  -27.9450  -12.4280   18.1810 C   0  0  0  0  0  2  0  0  0  0  0  0
  -27.6810  -13.2840   19.4490 C   0  0  0  0  0  3  0  0  0  0  0  0
  -28.8320  -13.1720   20.4710 C   0  0  0  0  0  2  0  0  0  0  0  0
  -30.0680  -13.5360   19.7710 N   0  0  0  0  0  0  0  0  0  0  0  0
  -31.8560  -14.8430   19.3430 O   0  0  0  0  0  0  0  0  0  0  0  0
  -29.4640  -17.5420   22.0910 C   0  0  0  0  0  2  0  0  0  0  0  0
  -30.4790  -16.5290   21.4750 C   0  0  0  0  0  2  0  0  0  0  0  0
  -29.8890  -17.0740   19.2790 C   0  0  0  0  0  2  0  0  0  0  0  0
  -28.7930  -18.5490   21.1410 C   0  0  0  0  0  3  0  0  0  0  0  0
  -28.9790  -18.3070   19.6760 C   0  0  0  0  0  3  0  0  0  0  0  0
  -29.4430  -19.6800   20.3150 C   0  0  0  0  0  3  0  0  0  0  0  0
  -30.0330  -15.8980   20.2160 N   0  0  0  0  0  0  0  0  0  0  0  0
  -25.3660  -13.8420   20.3990 C   0  0  0  0  0  0  0  0  0  0  0  0
  -24.3390  -13.0520   20.8340 C   0  0  0  0  0  0  0  0  0  0  0  0
  -24.8020  -11.7040   20.7230 C   0  0  0  0  0  0  0  0  0  0  0  0
  -26.3880  -12.9750   20.0470 N   0  0  0  0  0  0  0  0  0  0  0  0
  -26.0610  -11.6820   20.3050 N   0  0  0  0  0  0  0  0  0  0  0  0
  -24.0980  -10.4320   20.9370 C   0  0  0  0  0  0  0  0  0  0  0  0
  -24.5730   -9.4700   21.8560 C   0  0  0  0  0  3  0  0  0  0  0  0
  -23.8680   -8.2630   22.0570 C   0  0  0  0  0  3  0  0  0  0  0  0
  -22.6740   -8.0110   21.3400 C   0  0  0  0  0  0  0  0  0  0  0  0
  -22.2180   -8.9630   20.4120 C   0  0  0  0  0  3  0  0  0  0  0  0
  -22.9230  -10.1600   20.2080 C   0  0  0  0  0  3  0  0  0  0  0  0
  -21.9370   -6.8570   21.4530 O   0  0  0  0  0  0  0  0  0  0  0  0
  -21.8820   -6.1490   22.6270 C   0  0  0  0  0  0  0  0  0  0  0  0
  -21.4390   -6.7370   23.8320 C   0  0  0  0  0  3  0  0  0  0  0  0
  -21.3320   -5.9560   24.9990 C   0  0  0  0  0  3  0  0  0  0  0  0
  -21.6590   -4.5860   24.9620 C   0  0  0  0  0  0  0  0  0  0  0  0
  -22.0950   -3.9980   23.7620 C   0  0  0  0  0  3  0  0  0  0  0  0
  -22.2030   -4.7770   22.5970 C   0  0  0  0  0  0  0  0  0  0  0  0
  -22.6040   -4.2000   21.4390 F   0  0  0  0  0  0  0  0  0  0  0  0
  -21.5490   -3.8340   26.0820 F   0  0  0  0  0  0  0  0  0  0  0  0
  -22.9680  -13.5120   21.2380 C   0  0  0  0  0  0  0  0  0  0  0  0
  -22.3290  -12.7980   22.1570 N   0  0  0  0  0  0  0  0  0  0  0  0
  -22.4780  -14.5410   20.7750 O   0  0  0  0  0  0  0  0  0  0  0  0
  -22.7400  -11.9650   22.5500 H   0  0  0  0  0  0  0  0  0  0  0  0
  -21.4140  -13.0880   22.4710 H   0  0  0  0  0  0  0  0  0  0  0  0
  -25.5150  -15.2180   20.2500 N   0  0  0  0  0  0  0  0  0  0  0  0
  -24.7690  -15.8720   20.4560 H   0  0  0  0  0  0  0  0  0  0  0  0
  -26.3530  -15.6680   19.9030 H   0  0  0  0  0  0  0  0  0  0  0  0
  -29.0540  -22.3220   19.8720 C   0  0  0  0  0  3  0  0  0  0  0  0
  -28.2450  -23.6610   20.3420 C   0  0  0  0  0  3  0  0  0  0  0  0
  -28.4960  -25.0820   19.5960 C   0  0  0  0  0  2  0  0  0  0  0  0
  -28.3900  -26.4320   20.2420 O   0  0  0  0  0  0  0  0  0  0  0  0
  -24.7400  -31.8970   23.2600 C   0  0  0  0  0  0  0  0  0  0  0  0
  -27.2740  -27.2910   20.1680 C   0  0  0  0  0  0  0  0  0  0  0  0
  -23.5150  -30.5250   21.6140 C   0  0  0  0  0  3  0  0  0  0  0  0
  -24.9380  -28.9610   20.1700 C   0  0  0  0  0  0  0  0  0  0  0  0
  -26.0600  -30.8020   21.4300 C   0  0  0  0  0  2  0  0  0  0  0  0
  -26.1150  -29.4250   20.7690 C   0  0  0  0  0  0  0  0  0  0  0  0
  -27.2840  -28.6010   20.7560 C   0  0  0  0  0  3  0  0  0  0  0  0
  -26.0710  -26.8820   19.5540 C   0  0  0  0  0  3  0  0  0  0  0  0
  -24.9200  -27.6980   19.5530 C   0  0  0  0  0  3  0  0  0  0  0  0
  -23.7160  -29.8570   20.2280 C   0  0  0  0  0  2  0  0  0  0  0  0
  -24.7910  -31.0950   22.1570 N   0  0  0  0  0  0  0  0  0  0  0  0
  -23.6610  -32.1850   23.7990 O   0  0  0  0  0  0  0  0  0  0  0  0
  -22.8420  -29.5130   22.5710 C   0  0  0  0  0  0  0  0  0  0  0  0
  -21.5130  -29.3540   22.4470 N   0  0  0  0  0  0  0  0  0  0  0  0
  -23.5130  -28.8740   23.3840 O   0  0  0  0  0  0  0  0  0  0  0  0
  -21.0330  -29.9240   21.7630 H   0  0  0  0  0  0  0  0  0  0  0  0
  -18.1220  -28.1910   22.9460 C   0  0  0  0  0  0  0  0  0  0  0  0
  -20.6830  -28.4240   23.2130 C   0  0  0  0  0  3  0  0  0  0  0  0
  -20.7680  -26.9930   22.6320 C   0  0  0  0  0  2  0  0  0  0  0  0
  -19.6620  -26.6870   21.6170 C   0  0  0  0  0  2  0  0  0  0  0  0
  -18.2830  -26.8430   22.2630 C   0  0  0  0  0  2  0  0  0  0  0  0
  -19.2490  -28.9400   23.3780 C   0  0  0  0  0  0  0  0  0  0  0  0
  -19.0430  -30.2010   23.9770 C   0  0  0  0  0  3  0  0  0  0  0  0
  -17.7440  -30.7140   24.1490 C   0  0  0  0  0  3  0  0  0  0  0  0
  -16.6310  -29.9640   23.7330 C   0  0  0  0  0  3  0  0  0  0  0  0
  -16.8210  -28.7030   23.1380 C   0  0  0  0  0  3  0  0  0  0  0  0
  -26.0310  -32.5120   23.8860 C   0  0  0  0  0  3  0  0  0  0  0  0
  -26.5480  -31.7200   25.1500 C   0  0  1  0  0  0  0  0  0  0  0  0
  -25.4590  -31.4770   26.2210 C   0  0  0  0  0  1  0  0  0  0  0  0
  -27.1190  -30.3430   24.7400 C   0  0  0  0  0  1  0  0  0  0  0  0
  -27.7110  -32.4960   25.8130 C   0  0  0  0  0  1  0  0  0  0  0  0
  -25.7350  -33.9070   24.2390 N   0  0  0  0  0  0  0  0  0  0  0  0
  -26.0730  -34.9710   23.4970 C   0  0  0  0  0  0  0  0  0  0  0  0
  -26.7380  -34.8790   22.4610 O   0  0  0  0  0  0  0  0  0  0  0  0
  -25.1470  -34.0540   25.0470 H   0  0  0  0  0  0  0  0  0  0  0  0
  -24.3610  -36.7870   23.1800 C   0  0  0  0  0  1  0  0  0  0  0  0
  -25.6020  -36.3570   23.9790 C   0  0  0  0  0  3  0  0  0  0  0  0
  -27.7500  -37.2060   24.8130 C   0  0  0  0  0  1  0  0  0  0  0  0
  -26.6450  -37.4020   23.8790 N   0  0  0  0  0  0  0  0  0  0  0  0
  -26.2500  -38.3240   24.0460 H   0  0  0  0  0  0  0  0  0  0  0  0
  1  2  1  0
  3  1  1  0
  4 18  1  0
  5 10  1  0
  6  7  1  0
  6  5  1  0
  8  7  1  0
  8 22  1  0
  8  9  1  0
 10  4  1  0
 10  9  1  0
 11  4  2  0
 13 12  1  0
 14 18  1  0
 15 12  1  0
 16 14  1  0
 16 17  1  0
 16 15  1  0
 17  1  1  0
 17 15  1  0
 18 13  1  0
 19 20  2  0
 20 39  1  0
 21 20  1  0
 21 24  1  0
 22 23  1  0
 22 19  1  0
 23 21  2  0
 24 25  1  0
 25 26  2  0
 27 30  1  0
 27 26  1  0
 28 27  2  0
 29 28  1  0
 29 24  2  0
 30 31  1  0
 31 32  1  0
 32 33  2  0
 34 33  1  0
 34 38  1  0
 35 34  2  0
 36 31  2  0
 36 35  1  0
 37 36  1  0
 39 40  1  0
 40 43  1  0
 40 42  1  0
 41 39  2  0
 44 19  1  0
 44 45  1  0
 46 44  1  0
 47  1  1  0
 47 48  2  0
 49 50  1  0
 49 48  1  0
 51 62  2  0
 52 50  1  0
 52 57  1  0
 53 61  1  0
 53 63  1  0
 54 60  1  0
 54 56  1  0
 55 61  1  0
 56 55  1  0
 57 56  2  0
 58 52  2  0
 59 58  1  0
 59 54  2  0
 60 53  1  0
 61 51  1  0
 63 65  2  0
 64 63  1  0
 66 64  1  0
 67 76  2  0
 67 72  1  0
 68 64  1  0
 68 72  1  0
 69 68  1  0
 70 71  1  0
 70 69  1  0
 71 67  1  0
 72 73  2  0
 73 74  1  0
 75 74  2  0
 76 75  1  0
 77 51  1  0
 77 82  1  0
 77 78  1  0
 78 81  1  1
 78 79  1  0
 80 78  1  0
 82 85  1  0
 83 87  1  0
 83 82  1  0
 84 83  2  0
 87 86  1  0
 89 87  1  0
 89 90  1  0
 89 88  1  0
M  ISO  4   4 100  18 100  49 101  50 101
M  END
>  <TORSDO>  (19) 
F 19

>  <SCORE>  (19) 
-12.495

>  <name>  (19) 
18

>  <ligand_id>  (19) 
18

>  <original_smiles>  (19) 
[H]c1c([H])c([H])c2c(c1[H])C([H])([H])C([H])([H])C([H])([H])C2([H])N([H])C(=O)C1([H])N(C(=O)C([H])(N([H])C(=O)C([H])(N([H])C([H])([H])[H])C([H])([H])[H])C(C([H])([H])[H])(C([H])([H])[H])C([H])([H])[H])C([H])([H])c2c([H])c(OC([H])([H])C([H])([H])C([H])([H])[N+]([H])([H])C3([H])C4([H])C([H])([H])N(C(=O)N5C([H])([H])C([H])([H])C([H])([H])C([H])(n6nc(-c7c([H])c([H])c(Oc8c([H])c([H])c(F)c([H])c8F)c([H])c7[H])c(C(=O)N([H])[H])c6N([H])[H])C5([H])[H])C([H])([H])C([H])([H])C43[H])c([H])c([H])c2C1([H])[H]

>  <smiles>  (19) 
[H]c1c([H])c([H])c2c(c1[H])C([H])([H])C([H])([H])C([H])([H])C2([H])N([H])C(=O)C1([H])N(C(=O)C([H])(N([H])C(=O)C([H])(N([H])C([H])([H])[H])C([H])([H])[H])C(C([H])([H])[H])(C([H])([H])[H])C([H])([H])[H])C([H])([H])c2c([H])c(OC([H])([H])C([H])([H])C([H])([H])[N+]([H])([H])C3([H])C4([H])C([H])([H])N(C(=O)N5C([H])([H])C([H])([H])C([H])([H])C([H])(n6nc(-c7c([H])c([H])c(Oc8c([H])c([H])c(F)c([H])c8F)c([H])c7[H])c(C(=O)N([H])[H])c6N([H])[H])C5([H])[H])C([H])([H])C([H])([H])C43[H])c([H])c([H])c2C1([H])[H]

$$$$
19:0:0
     RDKit          3D

 89 98  0  0  1  0  0  0  0  0999 V2000
  -29.7620  -18.5830   21.5640 C   0  0  0  0  0  2  0  0  0  0  0  0
  -28.5770  -21.0560   20.9860 C   0  0  0  0  0  2  0  0  0  0  0  0
  -29.9260  -20.6940   19.1480 C   0  0  0  0  0  2  0  0  0  0  0  0
  -28.7270  -19.4790   20.8030 C   0  0  0  0  0  3  0  0  0  0  0  0
  -29.4780  -19.1630   19.5260 C   0  0  0  0  0  3  0  0  0  0  0  0
  -30.3110  -17.9110   20.2670 C   0  0  0  0  0  3  0  0  0  0  0  0
  -28.9390  -21.7610   19.6990 N   0  0  2  0  0  4  0  0  0  0  0  0
  -28.1290  -21.6810   19.1010 H   0  0  0  0  0  0  0  0  0  0  0  0
  -30.7660  -15.1590   20.0460 C   0  0  0  0  0  0  0  0  0  0  0  0
  -30.6540  -12.7780   19.1440 C   0  0  0  0  0  2  0  0  0  0  0  0
  -29.6700  -12.6870   17.9520 C   0  0  0  0  0  2  0  0  0  0  0  0
  -28.2290  -12.4620   18.4480 C   0  0  0  0  0  2  0  0  0  0  0  0
  -27.8610  -13.4020   19.6220 C   0  0  0  0  0  3  0  0  0  0  0  0
  -28.9590  -13.4510   20.7050 C   0  0  0  0  0  2  0  0  0  0  0  0
  -30.1900  -13.8860   20.0310 N   0  0  0  0  0  0  0  0  0  0  0  0
  -31.9640  -15.2250   19.7410 O   0  0  0  0  0  0  0  0  0  0  0  0
  -29.9760  -16.3470   20.2020 N   0  0  0  0  0  0  0  0  0  0  0  0
  -29.0020  -16.1330   20.3600 H   0  0  0  0  0  0  0  0  0  0  0  0
  -25.5310  -13.9680   20.5040 C   0  0  0  0  0  0  0  0  0  0  0  0
  -24.4840  -13.1870   20.9080 C   0  0  0  0  0  0  0  0  0  0  0  0
  -24.9350  -11.8360   20.8050 C   0  0  0  0  0  0  0  0  0  0  0  0
  -26.5510  -13.0920   20.1810 N   0  0  0  0  0  0  0  0  0  0  0  0
  -26.2080  -11.8020   20.4270 N   0  0  0  0  0  0  0  0  0  0  0  0
  -24.2080  -10.5740   20.9880 C   0  0  0  0  0  0  0  0  0  0  0  0
  -24.6380   -9.5990   21.9150 C   0  0  0  0  0  3  0  0  0  0  0  0
  -23.9080   -8.4040   22.0870 C   0  0  0  0  0  3  0  0  0  0  0  0
  -22.7320   -8.1750   21.3330 C   0  0  0  0  0  0  0  0  0  0  0  0
  -22.3190   -9.1390   20.3980 C   0  0  0  0  0  3  0  0  0  0  0  0
  -23.0500  -10.3260   20.2240 C   0  0  0  0  0  3  0  0  0  0  0  0
  -21.9710   -7.0350   21.4190 O   0  0  0  0  0  0  0  0  0  0  0  0
  -21.8660   -6.3240   22.5880 C   0  0  0  0  0  0  0  0  0  0  0  0
  -21.3180   -6.8920   23.7590 C   0  0  0  0  0  3  0  0  0  0  0  0
  -21.1660   -6.1050   24.9180 C   0  0  0  0  0  3  0  0  0  0  0  0
  -21.5510   -4.7520   24.9070 C   0  0  0  0  0  0  0  0  0  0  0  0
  -22.0960   -4.1840   23.7410 C   0  0  0  0  0  3  0  0  0  0  0  0
  -22.2490   -4.9670   22.5840 C   0  0  0  0  0  0  0  0  0  0  0  0
  -22.7540   -4.4090   21.4580 F   0  0  0  0  0  0  0  0  0  0  0  0
  -21.3960   -3.9960   26.0180 F   0  0  0  0  0  0  0  0  0  0  0  0
  -23.1070  -13.6670   21.2630 C   0  0  0  0  0  0  0  0  0  0  0  0
  -22.4240  -12.9560   22.1510 N   0  0  0  0  0  0  0  0  0  0  0  0
  -22.6490  -14.7050   20.7880 O   0  0  0  0  0  0  0  0  0  0  0  0
  -22.8050  -12.1140   22.5520 H   0  0  0  0  0  0  0  0  0  0  0  0
  -21.5030  -13.2600   22.4350 H   0  0  0  0  0  0  0  0  0  0  0  0
  -25.6920  -15.3430   20.3550 N   0  0  0  0  0  0  0  0  0  0  0  0
  -24.9160  -15.9830   20.4880 H   0  0  0  0  0  0  0  0  0  0  0  0
  -26.4860  -15.7760   19.9030 H   0  0  0  0  0  0  0  0  0  0  0  0
  -29.2900  -23.3400   19.7460 C   0  0  0  0  0  3  0  0  0  0  0  0
  -28.2080  -24.6540   19.5330 C   0  0  0  0  0  3  0  0  0  0  0  0
  -28.4500  -26.2040   19.7690 O   0  0  0  0  0  0  0  0  0  0  0  0
  -24.6820  -31.6390   23.1210 C   0  0  0  0  0  0  0  0  0  0  0  0
  -27.3840  -27.1950   19.7630 C   0  0  0  0  0  0  0  0  0  0  0  0
  -23.5320  -30.3540   21.3610 C   0  0  0  0  0  3  0  0  0  0  0  0
  -25.0300  -28.9240   19.8310 C   0  0  0  0  0  0  0  0  0  0  0  0
  -26.0850  -30.6710   21.2550 C   0  0  0  0  0  2  0  0  0  0  0  0
  -26.1950  -29.3360   20.4910 C   0  0  0  0  0  0  0  0  0  0  0  0
  -27.3710  -28.4890   20.4370 C   0  0  0  0  0  3  0  0  0  0  0  0
  -26.1900  -26.9010   19.0680 C   0  0  0  0  0  3  0  0  0  0  0  0
  -25.0450  -27.7270   19.1020 C   0  0  0  0  0  3  0  0  0  0  0  0
  -23.7850  -29.7950   19.9340 C   0  0  0  0  0  2  0  0  0  0  0  0
  -24.7850  -30.9070   21.9690 N   0  0  0  0  0  0  0  0  0  0  0  0
  -23.5840  -31.8570   23.6550 O   0  0  0  0  0  0  0  0  0  0  0  0
  -22.8650  -29.2580   22.2330 C   0  0  0  0  0  0  0  0  0  0  0  0
  -21.5380  -29.0850   22.0970 N   0  0  0  0  0  0  0  0  0  0  0  0
  -23.5440  -28.5700   22.9990 O   0  0  0  0  0  0  0  0  0  0  0  0
  -21.0430  -29.6950   21.4620 H   0  0  0  0  0  0  0  0  0  0  0  0
  -18.1630  -27.8520   22.5560 C   0  0  0  0  0  0  0  0  0  0  0  0
  -20.7290  -28.0750   22.7860 C   0  0  0  0  0  3  0  0  0  0  0  0
  -20.8050  -26.7100   22.0620 C   0  0  0  0  0  2  0  0  0  0  0  0
  -19.6770  -26.5000   21.0480 C   0  0  0  0  0  2  0  0  0  0  0  0
  -18.3130  -26.5810   21.7370 C   0  0  0  0  0  2  0  0  0  0  0  0
  -19.2950  -28.5610   23.0360 C   0  0  0  0  0  0  0  0  0  0  0  0
  -19.0970  -29.7530   23.7660 C   0  0  0  0  0  3  0  0  0  0  0  0
  -17.7990  -30.2350   24.0200 C   0  0  0  0  0  3  0  0  0  0  0  0
  -16.6810  -29.5220   23.5540 C   0  0  0  0  0  3  0  0  0  0  0  0
  -16.8640  -28.3310   22.8290 C   0  0  0  0  0  3  0  0  0  0  0  0
  -25.9390  -32.2520   23.8110 C   0  0  0  0  0  3  0  0  0  0  0  0
  -25.6140  -33.6400   24.1770 N   0  0  0  0  0  0  0  0  0  0  0  0
  -25.9200  -34.7170   23.4420 C   0  0  0  0  0  0  0  0  0  0  0  0
  -26.5690  -34.6480   22.3950 O   0  0  0  0  0  0  0  0  0  0  0  0
  -25.0260  -33.7660   24.9870 H   0  0  0  0  0  0  0  0  0  0  0  0
  -24.1390  -36.4840   23.2120 C   0  0  0  0  0  1  0  0  0  0  0  0
  -25.4300  -36.0900   23.9460 C   0  0  0  0  0  3  0  0  0  0  0  0
  -27.5770  -37.0240   24.6920 C   0  0  0  0  0  1  0  0  0  0  0  0
  -26.4340  -37.1670   23.7950 N   0  0  0  0  0  0  0  0  0  0  0  0
  -26.0130  -38.0760   23.9610 H   0  0  0  0  0  0  0  0  0  0  0  0
  -26.4040  -31.4440   25.0840 C   0  0  1  0  0  0  0  0  0  0  0  0
  -25.2710  -31.1800   26.1030 C   0  0  0  0  0  1  0  0  0  0  0  0
  -26.9990  -30.0730   24.6860 C   0  0  0  0  0  1  0  0  0  0  0  0
  -27.5290  -32.2180   25.8120 C   0  0  0  0  0  1  0  0  0  0  0  0
  3  7  1  0
  4  2  1  0
  4  1  1  0
  5  3  1  0
  5  6  1  0
  5  4  1  0
  6 17  1  0
  6  1  1  0
  7 47  1  0
  7  2  1  0
  7  8  1  6
  9 17  1  0
 10 15  1  0
 11 12  1  0
 11 10  1  0
 13 12  1  0
 13 22  1  0
 13 14  1  0
 15  9  1  0
 15 14  1  0
 16  9  2  0
 17 18  1  0
 19 20  2  0
 20 39  1  0
 21 20  1  0
 21 24  1  0
 22 23  1  0
 22 19  1  0
 23 21  2  0
 24 25  1  0
 25 26  2  0
 27 30  1  0
 27 26  1  0
 28 27  2  0
 29 28  1  0
 29 24  2  0
 30 31  1  0
 31 32  1  0
 32 33  2  0
 34 33  1  0
 34 38  1  0
 35 34  2  0
 36 31  2  0
 36 35  1  0
 37 36  1  0
 39 40  1  0
 40 43  1  0
 40 42  1  0
 41 39  2  0
 44 45  1  0
 44 19  1  0
 46 44  1  0
 48 47  2  0
 48 49  1  0
 50 61  2  0
 51 49  1  0
 51 56  1  0
 52 60  1  0
 52 62  1  0
 53 59  1  0
 53 55  1  0
 54 60  1  0
 55 54  1  0
 56 55  2  0
 57 58  1  0
 57 51  2  0
 58 53  2  0
 59 52  1  0
 60 50  1  0
 62 64  2  0
 63 62  1  0
 65 63  1  0
 66 75  2  0
 66 71  1  0
 67 63  1  0
 67 71  1  0
 68 67  1  0
 69 70  1  0
 69 68  1  0
 70 66  1  0
 71 72  2  0
 72 73  1  0
 74 73  2  0
 75 74  1  0
 76 50  1  0
 76 77  1  0
 76 86  1  0
 77 80  1  0
 78 82  1  0
 78 77  1  0
 79 78  2  0
 82 81  1  0
 84 82  1  0
 84 85  1  0
 84 83  1  0
 86 89  1  1
 86 87  1  0
 88 86  1  0
M  ISO  4   9 100  17 100  48 101  49 101
M  END
>  <TORSDO>  (20) 
F 18

>  <SCORE>  (20) 
-14.272

>  <name>  (20) 
19

>  <ligand_id>  (20) 
19

>  <original_smiles>  (20) 
[H]c1c([H])c([H])c2c(c1[H])C([H])([H])C([H])([H])C([H])([H])C2([H])N([H])C(=O)C1([H])N(C(=O)C([H])(N([H])C(=O)C([H])(N([H])C([H])([H])[H])C([H])([H])[H])C(C([H])([H])[H])(C([H])([H])[H])C([H])([H])[H])C([H])([H])c2c([H])c(OC([H])([H])C([H])([H])[N+]3([H])C([H])([H])C4([H])C([H])([H])C([H])(N([H])C(=O)N5C([H])([H])C([H])([H])C([H])([H])C([H])(n6nc(-c7c([H])c([H])c(Oc8c([H])c([H])c(F)c([H])c8F)c([H])c7[H])c(C(=O)N([H])[H])c6N([H])[H])C5([H])[H])C4([H])C3([H])[H])c([H])c([H])c2C1([H])[H]

>  <smiles>  (20) 
[H]c1c([H])c([H])c2c(c1[H])C([H])([H])C([H])([H])C([H])([H])C2([H])N([H])C(=O)C1([H])N(C(=O)C([H])(N([H])C(=O)C([H])(N([H])C([H])([H])[H])C([H])([H])[H])C(C([H])([H])[H])(C([H])([H])[H])C([H])([H])[H])C([H])([H])c2c([H])c(OC([H])([H])C([H])([H])[N+]3([H])C([H])([H])C4([H])C([H])([H])C([H])(N([H])C(=O)N5C([H])([H])C([H])([H])C([H])([H])C([H])(n6nc(-c7c([H])c([H])c(Oc8c([H])c([H])c(F)c([H])c8F)c([H])c7[H])c(C(=O)N([H])[H])c6N([H])[H])C5([H])[H])C4([H])C3([H])[H])c([H])c([H])c2C1([H])[H]

$$$$
20:0:0
     RDKit          3D

 91100  0  0  1  0  0  0  0  0999 V2000
  -29.7440  -17.7060   20.3940 C   0  0  0  0  0  0  0  0  0  0  0  0
  -31.1010  -19.9740   19.9430 C   0  0  0  0  0  0  0  0  0  0  0  0
  -30.9870  -18.4040   19.7560 C   0  0  0  0  0  2  0  0  0  0  0  0
  -28.7060  -18.9200   20.8500 C   0  0  0  0  0  2  0  0  0  0  0  0
  -29.9720  -22.5000   19.5650 C   0  0  0  0  0  2  0  0  0  0  0  0
  -29.9390  -20.8910   19.4430 C   0  0  0  0  0  3  0  0  0  0  0  0
  -28.6440  -20.4240   20.0890 C   0  0  0  0  0  3  0  0  0  0  0  0
  -28.7810  -23.0670   20.4470 C   0  0  0  0  0  3  0  0  0  0  0  0
  -29.5650  -16.3490   20.5980 N   0  0  0  0  0  0  0  0  0  0  0  0
  -28.0280  -21.7210   20.7130 N   0  0  0  0  0  4  0  0  0  0  0  0
  -32.1140  -20.4690   20.4460 O   0  0  0  0  0  0  0  0  0  0  0  0
  -27.9550  -21.6010   21.7120 H   0  0  0  0  0  0  0  0  0  0  0  0
  -27.0810  -21.8010   20.3770 H   0  0  0  0  0  0  0  0  0  0  0  0
  -30.4370  -15.1570   20.3120 C   0  0  0  0  0  0  0  0  0  0  0  0
  -30.3930  -12.7560   19.4140 C   0  0  0  0  0  2  0  0  0  0  0  0
  -29.4620  -12.6650   18.1800 C   0  0  0  0  0  2  0  0  0  0  0  0
  -28.0020  -12.4270   18.6100 C   0  0  0  0  0  2  0  0  0  0  0  0
  -27.5780  -13.3590   19.7720 C   0  0  0  0  0  3  0  0  0  0  0  0
  -28.6300  -13.4120   20.8970 C   0  0  0  0  0  2  0  0  0  0  0  0
  -29.8960  -13.8590   20.2990 N   0  0  0  0  0  0  0  0  0  0  0  0
  -31.6230  -15.2180   19.9740 O   0  0  0  0  0  0  0  0  0  0  0  0
  -25.2040  -13.9200   20.5370 C   0  0  0  0  0  0  0  0  0  0  0  0
  -24.1420  -13.1400   20.9030 C   0  0  0  0  0  0  0  0  0  0  0  0
  -24.6080  -11.7900   20.8550 C   0  0  0  0  0  0  0  0  0  0  0  0
  -26.2450  -13.0470   20.2780 N   0  0  0  0  0  0  0  0  0  0  0  0
  -25.8980  -11.7580   20.5360 N   0  0  0  0  0  0  0  0  0  0  0  0
  -23.8830  -10.5250   21.0360 C   0  0  0  0  0  0  0  0  0  0  0  0
  -24.3100   -9.5530   21.9690 C   0  0  0  0  0  3  0  0  0  0  0  0
  -23.5820   -8.3550   22.1380 C   0  0  0  0  0  3  0  0  0  0  0  0
  -22.4130   -8.1210   21.3760 C   0  0  0  0  0  0  0  0  0  0  0  0
  -22.0040   -9.0810   20.4340 C   0  0  0  0  0  3  0  0  0  0  0  0
  -22.7330  -10.2700   20.2630 C   0  0  0  0  0  3  0  0  0  0  0  0
  -21.6580   -6.9750   21.4560 O   0  0  0  0  0  0  0  0  0  0  0  0
  -21.5860   -6.2390   22.6110 C   0  0  0  0  0  0  0  0  0  0  0  0
  -21.0910   -6.7860   23.8140 C   0  0  0  0  0  3  0  0  0  0  0  0
  -20.9690   -5.9740   24.9610 C   0  0  0  0  0  3  0  0  0  0  0  0
  -21.3320   -4.6160   24.9020 C   0  0  0  0  0  0  0  0  0  0  0  0
  -21.8210   -4.0670   23.7030 C   0  0  0  0  0  3  0  0  0  0  0  0
  -21.9440   -4.8770   22.5600 C   0  0  0  0  0  0  0  0  0  0  0  0
  -22.3950   -4.3370   21.4020 F   0  0  0  0  0  0  0  0  0  0  0  0
  -21.2090   -3.8330   26.0010 F   0  0  0  0  0  0  0  0  0  0  0  0
  -22.7460  -13.6140   21.1850 C   0  0  0  0  0  0  0  0  0  0  0  0
  -22.0240  -12.9110   22.0500 N   0  0  0  0  0  0  0  0  0  0  0  0
  -22.3060  -14.6430   20.6740 O   0  0  0  0  0  0  0  0  0  0  0  0
  -22.3940  -12.0780   22.4840 H   0  0  0  0  0  0  0  0  0  0  0  0
  -21.0870  -13.2110   22.2820 H   0  0  0  0  0  0  0  0  0  0  0  0
  -25.3690  -15.2930   20.3780 N   0  0  0  0  0  0  0  0  0  0  0  0
  -24.6150  -15.9560   20.5190 H   0  0  0  0  0  0  0  0  0  0  0  0
  -26.2410  -15.7300   20.1030 H   0  0  0  0  0  0  0  0  0  0  0  0
  -27.9240  -24.5440   20.0700 C   0  0  0  0  0  2  0  0  0  0  0  0
  -28.1990  -26.1010   20.3080 O   0  0  0  0  0  0  0  0  0  0  0  0
  -24.5910  -31.9060   23.2650 C   0  0  0  0  0  0  0  0  0  0  0  0
  -27.1670  -27.1370   20.2300 C   0  0  0  0  0  0  0  0  0  0  0  0
  -23.3980  -30.5170   21.6180 C   0  0  0  0  0  3  0  0  0  0  0  0
  -24.8510  -28.9380   20.1900 C   0  0  0  0  0  0  0  0  0  0  0  0
  -25.9580  -30.7610   21.4680 C   0  0  0  0  0  2  0  0  0  0  0  0
  -26.0320  -29.3650   20.8090 C   0  0  0  0  0  0  0  0  0  0  0  0
  -27.1880  -28.4820   20.8090 C   0  0  0  0  0  3  0  0  0  0  0  0
  -25.9570  -26.8360   19.5620 C   0  0  0  0  0  3  0  0  0  0  0  0
  -24.8320  -27.6910   19.5480 C   0  0  0  0  0  3  0  0  0  0  0  0
  -23.6260  -29.8440   20.2370 C   0  0  0  0  0  2  0  0  0  0  0  0
  -24.6690  -31.0850   22.1710 N   0  0  0  0  0  0  0  0  0  0  0  0
  -23.5020  -32.1900   23.7890 O   0  0  0  0  0  0  0  0  0  0  0  0
  -22.7100  -29.5110   22.5740 C   0  0  0  0  0  0  0  0  0  0  0  0
  -21.3830  -29.3360   22.4370 N   0  0  0  0  0  0  0  0  0  0  0  0
  -23.3740  -28.8890   23.4070 O   0  0  0  0  0  0  0  0  0  0  0  0
  -20.9020  -29.8890   21.7420 H   0  0  0  0  0  0  0  0  0  0  0  0
  -18.0020  -28.1180   22.9150 C   0  0  0  0  0  0  0  0  0  0  0  0
  -20.5580  -28.3950   23.2010 C   0  0  0  0  0  3  0  0  0  0  0  0
  -20.6700  -26.9630   22.6280 C   0  0  0  0  0  2  0  0  0  0  0  0
  -19.5790  -26.6350   21.6050 C   0  0  0  0  0  2  0  0  0  0  0  0
  -18.1910  -26.7710   22.2380 C   0  0  0  0  0  2  0  0  0  0  0  0
  -19.1130  -28.8870   23.3530 C   0  0  0  0  0  0  0  0  0  0  0  0
  -18.8810  -30.1460   23.9480 C   0  0  0  0  0  3  0  0  0  0  0  0
  -17.5720  -30.6370   24.1090 C   0  0  0  0  0  3  0  0  0  0  0  0
  -16.4750  -29.8660   23.6860 C   0  0  0  0  0  3  0  0  0  0  0  0
  -16.6920  -28.6090   23.0950 C   0  0  0  0  0  3  0  0  0  0  0  0
  -25.8650  -32.5410   23.9010 C   0  0  0  0  0  3  0  0  0  0  0  0
  -25.5590  -33.9470   24.2120 N   0  0  0  0  0  0  0  0  0  0  0  0
  -25.8930  -34.9910   23.4420 C   0  0  0  0  0  0  0  0  0  0  0  0
  -26.5550  -34.8730   22.4080 O   0  0  0  0  0  0  0  0  0  0  0  0
  -24.9710  -34.1130   25.0150 H   0  0  0  0  0  0  0  0  0  0  0  0
  -24.1710  -36.7950   23.0870 C   0  0  0  0  0  1  0  0  0  0  0  0
  -25.4200  -36.3900   23.8890 C   0  0  0  0  0  3  0  0  0  0  0  0
  -27.5620  -37.2820   24.6920 C   0  0  0  0  0  1  0  0  0  0  0  0
  -26.4560  -37.4360   23.7500 N   0  0  0  0  0  0  0  0  0  0  0  0
  -26.0550  -38.3610   23.8810 H   0  0  0  0  0  0  0  0  0  0  0  0
  -26.3500  -31.7870   25.2010 C   0  0  1  0  0  0  0  0  0  0  0  0
  -25.2350  -31.5780   26.2530 C   0  0  0  0  0  1  0  0  0  0  0  0
  -26.9290  -30.3980   24.8490 C   0  0  0  0  0  1  0  0  0  0  0  0
  -27.4950  -32.5830   25.8700 C   0  0  0  0  0  1  0  0  0  0  0  0
  1  9  2  0
  1  4  1  0
  2 11  2  0
  3  2  1  0
  3  1  1  0
  5  8  1  0
  6  5  1  0
  6  2  1  0
  6  7  1  0
  7 10  1  0
  7  4  1  0
  8 50  1  0
  8 10  1  0
 10 12  1  0
 13 10  1  0
 14  9  1  0
 15 20  1  0
 16 17  1  0
 16 15  1  0
 18 17  1  0
 18 25  1  0
 18 19  1  0
 20 14  1  0
 20 19  1  0
 21 14  2  0
 22 23  2  0
 23 42  1  0
 24 23  1  0
 24 27  1  0
 25 26  1  0
 25 22  1  0
 26 24  2  0
 27 28  1  0
 28 29  2  0
 30 33  1  0
 30 29  1  0
 31 30  2  0
 32 31  1  0
 32 27  2  0
 33 34  1  0
 34 35  1  0
 35 36  2  0
 37 36  1  0
 37 41  1  0
 38 37  2  0
 39 34  2  0
 39 38  1  0
 40 39  1  0
 42 43  1  0
 43 46  1  0
 43 45  1  0
 44 42  2  0
 47 48  1  0
 47 22  1  0
 49 47  1  0
 50 51  1  0
 52 63  2  0
 53 51  1  0
 53 58  1  0
 54 62  1  0
 54 64  1  0
 55 61  1  0
 55 57  1  0
 56 62  1  0
 57 58  2  0
 57 56  1  0
 59 53  2  0
 60 59  1  0
 60 55  2  0
 61 54  1  0
 62 52  1  0
 64 66  2  0
 65 64  1  0
 67 65  1  0
 68 77  2  0
 68 73  1  0
 69 65  1  0
 69 73  1  0
 70 69  1  0
 71 72  1  0
 71 70  1  0
 72 68  1  0
 73 74  2  0
 74 75  1  0
 76 75  2  0
 77 76  1  0
 78 52  1  0
 78 79  1  0
 78 88  1  0
 79 82  1  0
 80 84  1  0
 80 79  1  0
 81 80  2  0
 84 83  1  0
 86 87  1  0
 86 84  1  0
 86 85  1  0
 88 91  1  1
 88 89  1  0
 90 88  1  0
M  ISO  4   9 100  14 100  50 101  51 101
M  END
>  <TORSDO>  (21) 
F 17

>  <SCORE>  (21) 
-15.693

>  <name>  (21) 
20

>  <ligand_id>  (21) 
20

>  <original_smiles>  (21) 
[H]c1c([H])c([H])c2c(c1[H])C([H])([H])C([H])([H])C([H])([H])C2([H])N([H])C(=O)C1([H])N(C(=O)C([H])(N([H])C(=O)C([H])(N([H])C([H])([H])[H])C([H])([H])[H])C(C([H])([H])[H])(C([H])([H])[H])C([H])([H])[H])C([H])([H])c2c([H])c(OC([H])([H])C3([H])C([H])([H])C4([H])C(=O)C([H])([H])C(=NC(=O)N5C([H])([H])C([H])([H])C([H])([H])C([H])(n6nc(-c7c([H])c([H])c(Oc8c([H])c([H])c(F)c([H])c8F)c([H])c7[H])c(C(=O)N([H])[H])c6N([H])[H])C5([H])[H])C([H])([H])C4([H])[N+]3([H])[H])c([H])c([H])c2C1([H])[H]

>  <smiles>  (21) 
[H]c1c([H])c([H])c2c(c1[H])C([H])([H])C([H])([H])C([H])([H])C2([H])N([H])C(=O)C1([H])N(C(=O)C([H])(N([H])C(=O)C([H])(N([H])C([H])([H])[H])C([H])([H])[H])C(C([H])([H])[H])(C([H])([H])[H])C([H])([H])[H])C([H])([H])c2c([H])c(OC([H])([H])C3([H])C([H])([H])C4([H])C(=O)C([H])([H])C(=NC(=O)N5C([H])([H])C([H])([H])C([H])([H])C([H])(n6nc(-c7c([H])c([H])c(Oc8c([H])c([H])c(F)c([H])c8F)c([H])c7[H])c(C(=O)N([H])[H])c6N([H])[H])C5([H])[H])C([H])([H])C4([H])[N+]3([H])[H])c([H])c([H])c2C1([H])[H]

$$$$
21:0:0
     RDKit          3D

 87 95  0  0  1  0  0  0  0  0999 V2000
  -28.6710  -21.0470   19.8780 N   0  0  0  0  0  4  0  0  0  0  0  0
  -27.6710  -20.9150   19.8860 H   0  0  0  0  0  0  0  0  0  0  0  0
  -28.9060  -21.1140   18.9000 H   0  0  0  0  0  0  0  0  0  0  0  0
  -30.4410  -15.3740   19.7820 C   0  0  0  0  0  0  0  0  0  0  0  0
  -30.3740  -12.9270   18.8570 C   0  0  0  0  0  2  0  0  0  0  0  0
  -29.3570  -12.7160   17.7050 C   0  0  0  0  0  2  0  0  0  0  0  0
  -27.9560  -12.4260   18.2670 C   0  0  0  0  0  2  0  0  0  0  0  0
  -27.6050  -13.3640   19.4510 C   0  0  0  0  0  3  0  0  0  0  0  0
  -28.7440  -13.4900   20.4850 C   0  0  0  0  0  2  0  0  0  0  0  0
  -29.8930  -14.0520   19.7580 N   0  0  0  0  0  0  0  0  0  0  0  0
  -31.6030  -15.3780   19.3340 O   0  0  0  0  0  0  0  0  0  0  0  0
  -28.2690  -18.5660   21.0860 C   0  0  0  0  0  2  0  0  0  0  0  0
  -28.8290  -17.0520   21.1440 C   0  0  0  0  0  2  0  0  0  0  0  0
  -29.8200  -18.1980   19.4350 C   0  0  0  0  0  2  0  0  0  0  0  0
  -29.2580  -19.5410   20.3700 C   0  0  0  0  0  3  0  0  0  0  0  0
  -29.7150  -16.6810   20.0000 N   0  0  0  0  0  0  0  0  0  0  0  0
  -25.3280  -13.9050   20.4490 C   0  0  0  0  0  0  0  0  0  0  0  0
  -24.2990  -13.1210   20.8850 C   0  0  0  0  0  0  0  0  0  0  0  0
  -24.7420  -11.7700   20.7430 C   0  0  0  0  0  0  0  0  0  0  0  0
  -26.3310  -13.0340   20.0650 N   0  0  0  0  0  0  0  0  0  0  0  0
  -25.9960  -11.7390   20.3040 N   0  0  0  0  0  0  0  0  0  0  0  0
  -24.0210  -10.5080   20.9430 C   0  0  0  0  0  0  0  0  0  0  0  0
  -24.4890   -9.5200   21.8380 C   0  0  0  0  0  3  0  0  0  0  0  0
  -23.7620   -8.3260   22.0280 C   0  0  0  0  0  3  0  0  0  0  0  0
  -22.5530   -8.1090   21.3240 C   0  0  0  0  0  0  0  0  0  0  0  0
  -22.1030   -9.0880   20.4200 C   0  0  0  0  0  3  0  0  0  0  0  0
  -22.8290  -10.2730   20.2270 C   0  0  0  0  0  3  0  0  0  0  0  0
  -21.7930   -6.9700   21.4280 O   0  0  0  0  0  0  0  0  0  0  0  0
  -21.7360   -6.2480   22.5930 C   0  0  0  0  0  0  0  0  0  0  0  0
  -21.2950   -6.8220   23.8060 C   0  0  0  0  0  3  0  0  0  0  0  0
  -21.1810   -6.0250   24.9610 C   0  0  0  0  0  3  0  0  0  0  0  0
  -21.5010   -4.6540   24.9040 C   0  0  0  0  0  0  0  0  0  0  0  0
  -21.9380   -4.0810   23.6980 C   0  0  0  0  0  3  0  0  0  0  0  0
  -22.0520   -4.8740   22.5440 C   0  0  0  0  0  0  0  0  0  0  0  0
  -22.4490   -4.3130   21.3770 F   0  0  0  0  0  0  0  0  0  0  0  0
  -21.3870   -3.8880   26.0140 F   0  0  0  0  0  0  0  0  0  0  0  0
  -22.9430  -13.6000   21.3070 C   0  0  0  0  0  0  0  0  0  0  0  0
  -22.2960  -12.8820   22.2160 N   0  0  0  0  0  0  0  0  0  0  0  0
  -22.4710  -14.6500   20.8710 O   0  0  0  0  0  0  0  0  0  0  0  0
  -22.6980  -12.0400   22.6020 H   0  0  0  0  0  0  0  0  0  0  0  0
  -21.3920  -13.1910   22.5470 H   0  0  0  0  0  0  0  0  0  0  0  0
  -25.4770  -15.2790   20.3100 N   0  0  0  0  0  0  0  0  0  0  0  0
  -24.7020  -15.9030   20.4950 H   0  0  0  0  0  0  0  0  0  0  0  0
  -26.2400  -15.7310   19.8220 H   0  0  0  0  0  0  0  0  0  0  0  0
  -28.8430  -22.6160   20.4690 C   0  0  0  0  0  3  0  0  0  0  0  0
  -27.9680  -24.1680   20.0560 C   0  0  0  0  0  3  0  0  0  0  0  0
  -28.1700  -25.8030   20.3440 O   0  0  0  0  0  0  0  0  0  0  0  0
  -24.6210  -31.8290   23.1980 C   0  0  0  0  0  0  0  0  0  0  0  0
  -27.1840  -26.9270   20.2240 C   0  0  0  0  0  0  0  0  0  0  0  0
  -23.4430  -30.4390   21.5400 C   0  0  0  0  0  3  0  0  0  0  0  0
  -24.9060  -28.8400   20.1230 C   0  0  0  0  0  0  0  0  0  0  0  0
  -26.0090  -30.6460   21.4260 C   0  0  0  0  0  2  0  0  0  0  0  0
  -26.0850  -29.2330   20.7720 C   0  0  0  0  0  0  0  0  0  0  0  0
  -27.2170  -28.2970   20.7970 C   0  0  0  0  0  3  0  0  0  0  0  0
  -25.9840  -26.6980   19.5170 C   0  0  0  0  0  3  0  0  0  0  0  0
  -24.8860  -27.5970   19.4720 C   0  0  0  0  0  3  0  0  0  0  0  0
  -23.6890  -29.7680   20.1600 C   0  0  0  0  0  2  0  0  0  0  0  0
  -24.7110  -31.0000   22.1090 N   0  0  0  0  0  0  0  0  0  0  0  0
  -23.5280  -32.1150   23.7140 O   0  0  0  0  0  0  0  0  0  0  0  0
  -22.7400  -29.4370   22.4950 C   0  0  0  0  0  0  0  0  0  0  0  0
  -21.4120  -29.2680   22.3560 N   0  0  0  0  0  0  0  0  0  0  0  0
  -23.4000  -28.8130   23.3300 O   0  0  0  0  0  0  0  0  0  0  0  0
  -20.9290  -29.8250   21.6640 H   0  0  0  0  0  0  0  0  0  0  0  0
  -18.0330  -28.0390   22.8250 C   0  0  0  0  0  0  0  0  0  0  0  0
  -20.5870  -28.3280   23.1210 C   0  0  0  0  0  3  0  0  0  0  0  0
  -20.7080  -26.8950   22.5520 C   0  0  0  0  0  2  0  0  0  0  0  0
  -19.6220  -26.5600   21.5240 C   0  0  0  0  0  2  0  0  0  0  0  0
  -18.2320  -26.6920   22.1500 C   0  0  0  0  0  2  0  0  0  0  0  0
  -19.1390  -28.8150   23.2670 C   0  0  0  0  0  0  0  0  0  0  0  0
  -18.8980  -30.0720   23.8630 C   0  0  0  0  0  3  0  0  0  0  0  0
  -17.5850  -30.5560   24.0160 C   0  0  0  0  0  3  0  0  0  0  0  0
  -16.4940  -29.7790   23.5880 C   0  0  0  0  0  3  0  0  0  0  0  0
  -16.7200  -28.5220   22.9990 C   0  0  0  0  0  3  0  0  0  0  0  0
  -25.8870  -32.4720   23.8400 C   0  0  0  0  0  3  0  0  0  0  0  0
  -25.5770  -33.8800   24.1460 N   0  0  0  0  0  0  0  0  0  0  0  0
  -25.9040  -34.9240   23.3740 C   0  0  0  0  0  0  0  0  0  0  0  0
  -26.5600  -34.8050   22.3360 O   0  0  0  0  0  0  0  0  0  0  0  0
  -24.9930  -34.0450   24.9520 H   0  0  0  0  0  0  0  0  0  0  0  0
  -24.1650  -36.7200   23.0450 C   0  0  0  0  0  1  0  0  0  0  0  0
  -25.4300  -36.3220   23.8230 C   0  0  0  0  0  3  0  0  0  0  0  0
  -27.5810  -37.2370   24.5800 C   0  0  0  0  0  1  0  0  0  0  0  0
  -26.4560  -37.3750   23.6600 N   0  0  0  0  0  0  0  0  0  0  0  0
  -26.0490  -38.2960   23.7930 H   0  0  0  0  0  0  0  0  0  0  0  0
  -26.3670  -31.7260   25.1470 C   0  0  1  0  0  0  0  0  0  0  0  0
  -25.2470  -31.5240   26.1940 C   0  0  0  0  0  1  0  0  0  0  0  0
  -26.9460  -30.3330   24.8110 C   0  0  0  0  0  1  0  0  0  0  0  0
  -27.5050  -32.5290   25.8250 C   0  0  0  0  0  1  0  0  0  0  0  0
  1  2  1  0
  1 45  1  0
  3  1  1  0
  4 16  1  0
  5 10  1  0
  6  7  1  0
  6  5  1  0
  8  7  1  0
  8 20  1  0
  8  9  1  0
 10  4  1  0
 10  9  1  0
 11  4  2  0
 12 13  1  0
 14 16  1  0
 14 15  1  0
 15  1  1  0
 15 12  1  0
 16 13  1  0
 17 18  2  0
 18 37  1  0
 19 18  1  0
 19 22  1  0
 20 21  1  0
 20 17  1  0
 21 19  2  0
 22 23  1  0
 23 24  2  0
 25 28  1  0
 25 24  1  0
 26 25  2  0
 27 26  1  0
 27 22  2  0
 28 29  1  0
 29 30  1  0
 30 31  2  0
 32 31  1  0
 32 36  1  0
 33 32  2  0
 34 29  2  0
 34 33  1  0
 35 34  1  0
 37 38  1  0
 38 41  1  0
 38 40  1  0
 39 37  2  0
 42 17  1  0
 42 43  1  0
 44 42  1  0
 46 47  1  0
 46 45  2  0
 48 59  2  0
 49 47  1  0
 49 54  1  0
 50 58  1  0
 50 60  1  0
 51 57  1  0
 51 53  1  0
 52 58  1  0
 53 54  2  0
 53 52  1  0
 55 49  2  0
 56 55  1  0
 56 51  2  0
 57 50  1  0
 58 48  1  0
 60 62  2  0
 61 60  1  0
 63 61  1  0
 64 73  2  0
 64 69  1  0
 65 61  1  0
 65 69  1  0
 66 65  1  0
 67 68  1  0
 67 66  1  0
 68 64  1  0
 69 70  2  0
 70 71  1  0
 72 71  2  0
 73 72  1  0
 74 48  1  0
 74 75  1  0
 74 84  1  0
 75 78  1  0
 76 80  1  0
 76 75  1  0
 77 76  2  0
 80 79  1  0
 82 83  1  0
 82 80  1  0
 82 81  1  0
 84 87  1  1
 84 85  1  0
 86 84  1  0
M  ISO  4   4 100  16 100  46 101  47 101
M  END
>  <TORSDO>  (22) 
F 18

>  <SCORE>  (22) 
-15.235

>  <name>  (22) 
21

>  <ligand_id>  (22) 
21

>  <original_smiles>  (22) 
[H]c1c([H])c([H])c2c(c1[H])C([H])([H])C([H])([H])C([H])([H])C2([H])N([H])C(=O)C1([H])N(C(=O)C([H])(N([H])C(=O)C([H])(N([H])C([H])([H])[H])C([H])([H])[H])C(C([H])([H])[H])(C([H])([H])[H])C([H])([H])[H])C([H])([H])c2c([H])c(OC([H])([H])C([H])([H])[N+]([H])([H])C3([H])C([H])([H])N(C(=O)N4C([H])([H])C([H])([H])C([H])([H])C([H])(n5nc(-c6c([H])c([H])c(Oc7c([H])c([H])c(F)c([H])c7F)c([H])c6[H])c(C(=O)N([H])[H])c5N([H])[H])C4([H])[H])C([H])([H])C3([H])[H])c([H])c([H])c2C1([H])[H]

>  <smiles>  (22) 
[H]c1c([H])c([H])c2c(c1[H])C([H])([H])C([H])([H])C([H])([H])C2([H])N([H])C(=O)C1([H])N(C(=O)C([H])(N([H])C(=O)C([H])(N([H])C([H])([H])[H])C([H])([H])[H])C(C([H])([H])[H])(C([H])([H])[H])C([H])([H])[H])C([H])([H])c2c([H])c(OC([H])([H])C([H])([H])[N+]([H])([H])C3([H])C([H])([H])N(C(=O)N4C([H])([H])C([H])([H])C([H])([H])C([H])(n5nc(-c6c([H])c([H])c(Oc7c([H])c([H])c(F)c([H])c7F)c([H])c6[H])c(C(=O)N([H])[H])c5N([H])[H])C4([H])[H])C([H])([H])C3([H])[H])c([H])c([H])c2C1([H])[H]

$$$$
22:0:0
     RDKit          3D

 95104  0  0  1  0  0  0  0  0999 V2000
  -32.2300  -18.5040   21.6190 C   0  0  0  0  0  3  0  0  0  0  0  0
  -31.7630  -17.1840   21.5120 C   0  0  0  0  0  3  0  0  0  0  0  0
  -29.5760  -18.0160   20.8350 C   0  0  0  0  0  3  0  0  0  0  0  0
  -30.0420  -19.3590   20.9230 C   0  0  0  0  0  0  0  0  0  0  0  0
  -31.3850  -19.5910   21.3200 C   0  0  0  0  0  0  0  0  0  0  0  0
  -30.4410  -16.9180   21.0900 C   0  0  0  0  0  0  0  0  0  0  0  0
  -29.1320  -20.5200   20.6160 C   0  0  0  0  0  0  0  0  0  0  0  0
  -31.9640  -20.9950   21.4290 C   0  0  0  0  0  2  0  0  0  0  0  0
  -30.8870  -22.0750   21.5920 C   0  0  0  0  0  2  0  0  0  0  0  0
  -29.7900  -21.9300   20.5220 C   0  0  0  0  0  3  0  0  0  0  0  0
  -27.9200  -20.3710   20.4250 O   0  0  0  0  0  0  0  0  0  0  0  0
  -30.6360  -14.5580   20.3290 C   0  0  0  0  0  0  0  0  0  0  0  0
  -30.2960  -12.4400   19.1100 C   0  0  0  0  0  2  0  0  0  0  0  0
  -29.3350  -12.6810   17.9310 C   0  0  0  0  0  2  0  0  0  0  0  0
  -27.8700  -12.5220   18.3860 C   0  0  0  0  0  2  0  0  0  0  0  0
  -27.5560  -13.3220   19.6790 C   0  0  0  0  0  3  0  0  0  0  0  0
  -28.6330  -13.0800   20.7610 C   0  0  0  0  0  2  0  0  0  0  0  0
  -29.9430  -13.3960   20.1730 N   0  0  0  0  0  0  0  0  0  0  0  0
  -31.7480  -14.7270   19.8190 O   0  0  0  0  0  0  0  0  0  0  0  0
  -29.9780  -15.5700   20.9370 N   0  0  0  0  0  0  0  0  0  0  0  0
  -29.0200  -15.3810   21.1870 H   0  0  0  0  0  0  0  0  0  0  0  0
  -25.1570  -13.8970   20.4140 C   0  0  0  0  0  0  0  0  0  0  0  0
  -24.1050  -13.1100   20.7960 C   0  0  0  0  0  0  0  0  0  0  0  0
  -24.5840  -11.7650   20.7640 C   0  0  0  0  0  0  0  0  0  0  0  0
  -26.2120  -13.0300   20.1750 N   0  0  0  0  0  0  0  0  0  0  0  0
  -25.8720  -11.7430   20.4430 N   0  0  0  0  0  0  0  0  0  0  0  0
  -23.8780  -10.4930   20.9640 C   0  0  0  0  0  0  0  0  0  0  0  0
  -24.3210   -9.5430   21.9090 C   0  0  0  0  0  3  0  0  0  0  0  0
  -23.6140   -8.3360   22.0980 C   0  0  0  0  0  3  0  0  0  0  0  0
  -22.4490   -8.0700   21.3400 C   0  0  0  0  0  0  0  0  0  0  0  0
  -22.0250   -9.0100   20.3830 C   0  0  0  0  0  3  0  0  0  0  0  0
  -22.7330  -10.2080   20.1930 C   0  0  0  0  0  3  0  0  0  0  0  0
  -21.7140   -6.9140   21.4360 O   0  0  0  0  0  0  0  0  0  0  0  0
  -21.6620   -6.1870   22.5990 C   0  0  0  0  0  0  0  0  0  0  0  0
  -21.1950   -6.7500   23.8080 C   0  0  0  0  0  3  0  0  0  0  0  0
  -21.0920   -5.9510   24.9640 C   0  0  0  0  0  3  0  0  0  0  0  0
  -21.4440   -4.5880   24.9130 C   0  0  0  0  0  0  0  0  0  0  0  0
  -21.9030   -4.0260   23.7090 C   0  0  0  0  0  3  0  0  0  0  0  0
  -22.0080   -4.8220   22.5550 C   0  0  0  0  0  0  0  0  0  0  0  0
  -22.4300   -4.2680   21.3920 F   0  0  0  0  0  0  0  0  0  0  0  0
  -21.3380   -3.8180   26.0200 F   0  0  0  0  0  0  0  0  0  0  0  0
  -22.7040  -13.5680   21.0830 C   0  0  0  0  0  0  0  0  0  0  0  0
  -21.9930  -12.8580   21.9520 N   0  0  0  0  0  0  0  0  0  0  0  0
  -22.2490  -14.5900   20.5720 O   0  0  0  0  0  0  0  0  0  0  0  0
  -22.3730  -12.0300   22.3860 H   0  0  0  0  0  0  0  0  0  0  0  0
  -21.0540  -13.1490   22.1860 H   0  0  0  0  0  0  0  0  0  0  0  0
  -25.3020  -15.2690   20.2290 N   0  0  0  0  0  0  0  0  0  0  0  0
  -24.5270  -15.9160   20.3260 H   0  0  0  0  0  0  0  0  0  0  0  0
  -26.1460  -15.7160   19.8920 H   0  0  0  0  0  0  0  0  0  0  0  0
  -28.7370  -22.9720   20.6650 N   0  0  0  0  0  4  0  0  0  0  0  0
  -28.4620  -23.0010   21.6330 H   0  0  0  0  0  0  0  0  0  0  0  0
  -27.9370  -22.6250   20.1530 H   0  0  0  0  0  0  0  0  0  0  0  0
  -29.0900  -24.3450   20.1810 C   0  0  0  0  0  2  0  0  0  0  0  0
  -28.1600  -25.4380   20.7630 C   0  0  0  0  0  2  0  0  0  0  0  0
  -28.3310  -26.7320   20.1450 O   0  0  0  0  0  0  0  0  0  0  0  0
  -24.5760  -31.9370   23.2560 C   0  0  0  0  0  0  0  0  0  0  0  0
  -27.1880  -27.5060   20.1340 C   0  0  0  0  0  0  0  0  0  0  0  0
  -23.3580  -30.5430   21.6160 C   0  0  0  0  0  3  0  0  0  0  0  0
  -24.8010  -29.0220   20.1660 C   0  0  0  0  0  0  0  0  0  0  0  0
  -25.8840  -30.9070   21.4000 C   0  0  0  0  0  2  0  0  0  0  0  0
  -25.9660  -29.5390   20.7490 C   0  0  0  0  0  0  0  0  0  0  0  0
  -27.1660  -28.7900   20.7260 C   0  0  0  0  0  3  0  0  0  0  0  0
  -26.0120  -27.0170   19.5250 C   0  0  0  0  0  3  0  0  0  0  0  0
  -24.8190  -27.7610   19.5480 C   0  0  0  0  0  3  0  0  0  0  0  0
  -23.5580  -29.8780   20.2300 C   0  0  0  0  0  2  0  0  0  0  0  0
  -24.6240  -31.1440   22.1480 N   0  0  0  0  0  0  0  0  0  0  0  0
  -23.5000  -32.2040   23.8060 O   0  0  0  0  0  0  0  0  0  0  0  0
  -22.7180  -29.5130   22.5740 C   0  0  0  0  0  0  0  0  0  0  0  0
  -21.3940  -29.3240   22.4540 N   0  0  0  0  0  0  0  0  0  0  0  0
  -23.4100  -28.8870   23.3830 O   0  0  0  0  0  0  0  0  0  0  0  0
  -20.8980  -29.8770   21.7700 H   0  0  0  0  0  0  0  0  0  0  0  0
  -18.0230  -28.1350   22.9810 C   0  0  0  0  0  0  0  0  0  0  0  0
  -20.5850  -28.3810   23.2260 C   0  0  0  0  0  3  0  0  0  0  0  0
  -20.6750  -26.9550   22.6350 C   0  0  0  0  0  2  0  0  0  0  0  0
  -19.5610  -26.6480   21.6290 C   0  0  0  0  0  2  0  0  0  0  0  0
  -18.1870  -26.7930   22.2890 C   0  0  0  0  0  2  0  0  0  0  0  0
  -19.1500  -28.8890   23.4050 C   0  0  0  0  0  0  0  0  0  0  0  0
  -18.9440  -30.1480   24.0090 C   0  0  0  0  0  3  0  0  0  0  0  0
  -17.6420  -30.6530   24.1950 C   0  0  0  0  0  3  0  0  0  0  0  0
  -16.5300  -29.8950   23.7880 C   0  0  0  0  0  3  0  0  0  0  0  0
  -16.7220  -28.6400   23.1860 C   0  0  0  0  0  3  0  0  0  0  0  0
  -25.8680  -32.5650   23.8670 C   0  0  0  0  0  3  0  0  0  0  0  0
  -26.3860  -31.8000   25.1470 C   0  0  1  0  0  0  0  0  0  0  0  0
  -25.2950  -31.5710   26.2190 C   0  0  0  0  0  1  0  0  0  0  0  0
  -26.9680  -30.4210   24.7590 C   0  0  0  0  0  1  0  0  0  0  0  0
  -27.5400  -32.5960   25.8010 C   0  0  0  0  0  1  0  0  0  0  0  0
  -25.5670  -33.9660   24.1850 N   0  0  0  0  0  0  0  0  0  0  0  0
  -25.9110  -35.0110   23.4200 C   0  0  0  0  0  0  0  0  0  0  0  0
  -26.5880  -34.8960   22.3930 O   0  0  0  0  0  0  0  0  0  0  0  0
  -24.9680  -34.1310   24.9810 H   0  0  0  0  0  0  0  0  0  0  0  0
  -24.2020  -36.8120   23.0300 C   0  0  0  0  0  1  0  0  0  0  0  0
  -25.4260  -36.4040   23.8640 C   0  0  0  0  0  3  0  0  0  0  0  0
  -27.5580  -37.2680   24.7220 C   0  0  0  0  0  1  0  0  0  0  0  0
  -26.4680  -37.4500   23.7670 N   0  0  0  0  0  0  0  0  0  0  0  0
  -26.0660  -38.3710   23.9170 H   0  0  0  0  0  0  0  0  0  0  0  0
  2  1  1  0
  3  4  2  0
  3  6  1  0
  4  5  1  0
  5  8  1  0
  5  1  2  0
  6  2  2  0
  7  4  1  0
  8  9  1  0
 10  7  1  0
 10 50  1  0
 10  9  1  0
 11  7  2  0
 12 20  1  0
 13 18  1  0
 14 15  1  0
 14 13  1  0
 16 15  1  0
 16 25  1  0
 16 17  1  0
 18 12  1  0
 18 17  1  0
 19 12  2  0
 20  6  1  0
 20 21  1  0
 22 23  2  0
 23 42  1  0
 24 23  1  0
 24 27  1  0
 25 22  1  0
 25 26  1  0
 26 24  2  0
 27 28  1  0
 28 29  2  0
 30 33  1  0
 30 29  1  0
 31 30  2  0
 32 31  1  0
 32 27  2  0
 33 34  1  0
 34 35  1  0
 35 36  2  0
 37 36  1  0
 37 41  1  0
 38 37  2  0
 39 34  2  0
 39 38  1  0
 40 39  1  0
 42 43  1  0
 43 46  1  0
 43 45  1  0
 44 42  2  0
 47 48  1  0
 47 22  1  0
 49 47  1  0
 50 51  1  0
 52 50  1  0
 53 50  1  0
 53 54  1  0
 55 54  1  0
 56 67  2  0
 57 55  1  0
 57 62  1  0
 58 66  1  0
 58 68  1  0
 59 65  1  0
 59 61  1  0
 60 66  1  0
 61 60  1  0
 62 61  2  0
 63 64  1  0
 63 57  2  0
 64 59  2  0
 65 58  1  0
 66 56  1  0
 68 70  2  0
 69 68  1  0
 71 69  1  0
 72 81  2  0
 72 77  1  0
 73 69  1  0
 73 77  1  0
 74 73  1  0
 75 76  1  0
 75 74  1  0
 76 72  1  0
 77 78  2  0
 78 79  1  0
 80 79  2  0
 81 80  1  0
 82 56  1  0
 82 87  1  0
 82 83  1  0
 83 86  1  1
 83 84  1  0
 85 83  1  0
 87 90  1  0
 88 92  1  0
 88 87  1  0
 89 88  2  0
 92 91  1  0
 94 92  1  0
 94 95  1  0
 94 93  1  0
M  ISO  4  12 100  20 100  54 101  55 101
M  END
>  <TORSDO>  (23) 
F 19

>  <SCORE>  (23) 
-14.172

>  <name>  (23) 
22

>  <ligand_id>  (23) 
22

>  <original_smiles>  (23) 
[H]c1c([H])c([H])c2c(c1[H])C([H])([H])C([H])([H])C([H])([H])C2([H])N([H])C(=O)C1([H])N(C(=O)C([H])(N([H])C(=O)C([H])(N([H])C([H])([H])[H])C([H])([H])[H])C(C([H])([H])[H])(C([H])([H])[H])C([H])([H])[H])C([H])([H])c2c([H])c(OC([H])([H])C([H])([H])[N+]([H])([H])C3([H])C(=O)c4c([H])c(N([H])C(=O)N5C([H])([H])C([H])([H])C([H])([H])C([H])(n6nc(-c7c([H])c([H])c(Oc8c([H])c([H])c(F)c([H])c8F)c([H])c7[H])c(C(=O)N([H])[H])c6N([H])[H])C5([H])[H])c([H])c([H])c4C([H])([H])C3([H])[H])c([H])c([H])c2C1([H])[H]

>  <smiles>  (23) 
[H]c1c([H])c([H])c2c(c1[H])C([H])([H])C([H])([H])C([H])([H])C2([H])N([H])C(=O)C1([H])N(C(=O)C([H])(N([H])C(=O)C([H])(N([H])C([H])([H])[H])C([H])([H])[H])C(C([H])([H])[H])(C([H])([H])[H])C([H])([H])[H])C([H])([H])c2c([H])c(OC([H])([H])C([H])([H])[N+]([H])([H])C3([H])C(=O)c4c([H])c(N([H])C(=O)N5C([H])([H])C([H])([H])C([H])([H])C([H])(n6nc(-c7c([H])c([H])c(Oc8c([H])c([H])c(F)c([H])c8F)c([H])c7[H])c(C(=O)N([H])[H])c6N([H])[H])C5([H])[H])c([H])c([H])c4C([H])([H])C3([H])[H])c([H])c([H])c2C1([H])[H]

$$$$
23:0:0
     RDKit          3D

 94102  0  0  1  0  0  0  0  0999 V2000
  -29.4580  -21.5630   21.6950 C   0  0  0  0  0  0  0  0  0  0  0  0
  -29.5690  -21.3690   23.0080 N   0  0  0  0  0  4  0  0  0  0  0  0
  -29.2170  -22.8880   21.3880 N   0  0  0  0  0  0  0  0  0  0  0  0
  -29.5250  -22.0900   23.7100 H   0  0  0  0  0  0  0  0  0  0  0  0
  -29.6890  -20.4170   23.3240 H   0  0  0  0  0  0  0  0  0  0  0  0
  -29.2530  -23.4560   22.2210 H   0  0  0  0  0  0  0  0  0  0  0  0
  -28.5090  -19.3730   20.8260 C   0  0  0  0  0  3  0  0  0  0  0  0
  -28.6730  -17.9660   20.6380 C   0  0  0  0  0  3  0  0  0  0  0  0
  -30.8840  -19.6290   20.8210 C   0  0  0  0  0  3  0  0  0  0  0  0
  -29.6110  -20.2560   20.9420 C   0  0  0  0  0  0  0  0  0  0  0  0
  -31.0630  -18.2110   20.6400 C   0  0  0  0  0  0  0  0  0  0  0  0
  -29.9400  -17.3160   20.5660 C   0  0  0  0  0  0  0  0  0  0  0  0
  -32.4920  -17.7100   20.6190 C   0  0  0  0  0  1  0  0  0  0  0  0
  -30.6910  -14.7980   20.0610 C   0  0  0  0  0  0  0  0  0  0  0  0
  -30.4230  -12.5860   18.9280 C   0  0  0  0  0  2  0  0  0  0  0  0
  -29.4060  -12.7300   17.7720 C   0  0  0  0  0  2  0  0  0  0  0  0
  -27.9610  -12.5520   18.2810 C   0  0  0  0  0  2  0  0  0  0  0  0
  -27.6730  -13.3810   19.5610 C   0  0  0  0  0  3  0  0  0  0  0  0
  -28.7960  -13.1980   20.6080 C   0  0  0  0  0  2  0  0  0  0  0  0
  -30.0670  -13.5750   19.9710 N   0  0  0  0  0  0  0  0  0  0  0  0
  -31.8250  -14.9450   19.6040 O   0  0  0  0  0  0  0  0  0  0  0  0
  -29.9080  -15.8340   20.5270 N   0  0  0  0  0  0  0  0  0  0  0  0
  -29.0230  -15.4660   20.8320 H   0  0  0  0  0  0  0  0  0  0  0  0
  -25.3240  -13.9590   20.4260 C   0  0  0  0  0  0  0  0  0  0  0  0
  -24.2810  -13.1760   20.8400 C   0  0  0  0  0  0  0  0  0  0  0  0
  -24.7400  -11.8260   20.7500 C   0  0  0  0  0  0  0  0  0  0  0  0
  -26.3540  -13.0860   20.1130 N   0  0  0  0  0  0  0  0  0  0  0  0
  -26.0110  -11.7970   20.3680 N   0  0  0  0  0  0  0  0  0  0  0  0
  -24.0250  -10.5580   20.9460 C   0  0  0  0  0  0  0  0  0  0  0  0
  -24.4680   -9.5990   21.8840 C   0  0  0  0  0  3  0  0  0  0  0  0
  -23.7530   -8.3960   22.0700 C   0  0  0  0  0  3  0  0  0  0  0  0
  -22.5790   -8.1460   21.3190 C   0  0  0  0  0  0  0  0  0  0  0  0
  -22.1550   -9.0940   20.3710 C   0  0  0  0  0  3  0  0  0  0  0  0
  -22.8720  -10.2890   20.1830 C   0  0  0  0  0  3  0  0  0  0  0  0
  -21.8340   -6.9960   21.4160 O   0  0  0  0  0  0  0  0  0  0  0  0
  -21.7460   -6.2920   22.5900 C   0  0  0  0  0  0  0  0  0  0  0  0
  -21.2510   -6.8780   23.7750 C   0  0  0  0  0  3  0  0  0  0  0  0
  -21.1120   -6.0980   24.9410 C   0  0  0  0  0  3  0  0  0  0  0  0
  -21.4560   -4.7340   24.9210 C   0  0  0  0  0  0  0  0  0  0  0  0
  -21.9420   -4.1470   23.7390 C   0  0  0  0  0  3  0  0  0  0  0  0
  -22.0830   -4.9230   22.5770 C   0  0  0  0  0  0  0  0  0  0  0  0
  -22.5320   -4.3470   21.4350 F   0  0  0  0  0  0  0  0  0  0  0  0
  -21.3150   -3.9820   26.0390 F   0  0  0  0  0  0  0  0  0  0  0  0
  -22.8980  -13.6440   21.1960 C   0  0  0  0  0  0  0  0  0  0  0  0
  -22.2150  -12.9230   22.0770 N   0  0  0  0  0  0  0  0  0  0  0  0
  -22.4350  -14.6820   20.7270 O   0  0  0  0  0  0  0  0  0  0  0  0
  -22.6010  -12.0820   22.4800 H   0  0  0  0  0  0  0  0  0  0  0  0
  -21.2870  -13.2160   22.3510 H   0  0  0  0  0  0  0  0  0  0  0  0
  -25.4760  -15.3340   20.2670 N   0  0  0  0  0  0  0  0  0  0  0  0
  -24.7020  -15.9720   20.4210 H   0  0  0  0  0  0  0  0  0  0  0  0
  -26.2540  -15.7680   19.7880 H   0  0  0  0  0  0  0  0  0  0  0  0
  -29.0110  -23.8640   20.2450 C   0  0  0  0  0  2  0  0  0  0  0  0
  -28.1650  -25.1670   20.6860 C   0  0  0  0  0  2  0  0  0  0  0  0
  -28.3770  -26.5330   20.1280 O   0  0  0  0  0  0  0  0  0  0  0  0
  -24.5700  -31.8870   23.1780 C   0  0  0  0  0  0  0  0  0  0  0  0
  -27.2610  -27.3880   20.1020 C   0  0  0  0  0  0  0  0  0  0  0  0
  -23.3950  -30.4870   21.5170 C   0  0  0  0  0  3  0  0  0  0  0  0
  -24.8760  -28.9700   20.0860 C   0  0  0  0  0  0  0  0  0  0  0  0
  -25.9300  -30.8450   21.3510 C   0  0  0  0  0  2  0  0  0  0  0  0
  -26.0360  -29.4730   20.6910 C   0  0  0  0  0  0  0  0  0  0  0  0
  -27.2340  -28.6940   20.6850 C   0  0  0  0  0  3  0  0  0  0  0  0
  -26.0840  -26.9470   19.4620 C   0  0  0  0  0  3  0  0  0  0  0  0
  -24.9020  -27.7130   19.4600 C   0  0  0  0  0  3  0  0  0  0  0  0
  -23.6260  -29.8260   20.1330 C   0  0  0  0  0  2  0  0  0  0  0  0
  -24.6500  -31.0890   22.0730 N   0  0  0  0  0  0  0  0  0  0  0  0
  -23.4790  -32.1430   23.7100 O   0  0  0  0  0  0  0  0  0  0  0  0
  -22.7410  -29.4540   22.4640 C   0  0  0  0  0  0  0  0  0  0  0  0
  -21.4210  -29.2490   22.3180 N   0  0  0  0  0  0  0  0  0  0  0  0
  -23.4210  -28.8390   23.2900 O   0  0  0  0  0  0  0  0  0  0  0  0
  -20.9310  -29.7980   21.6260 H   0  0  0  0  0  0  0  0  0  0  0  0
  -18.0610  -27.9880   22.7700 C   0  0  0  0  0  0  0  0  0  0  0  0
  -20.6110  -28.2920   23.0730 C   0  0  0  0  0  3  0  0  0  0  0  0
  -20.7450  -26.8660   22.4910 C   0  0  0  0  0  2  0  0  0  0  0  0
  -19.6610  -26.5290   21.4610 C   0  0  0  0  0  2  0  0  0  0  0  0
  -18.2700  -26.6470   22.0890 C   0  0  0  0  0  2  0  0  0  0  0  0
  -19.1600  -28.7680   23.2170 C   0  0  0  0  0  0  0  0  0  0  0  0
  -18.9120  -30.0240   23.8140 C   0  0  0  0  0  3  0  0  0  0  0  0
  -17.5960  -30.4990   23.9690 C   0  0  0  0  0  3  0  0  0  0  0  0
  -16.5100  -29.7160   23.5390 C   0  0  0  0  0  3  0  0  0  0  0  0
  -16.7430  -28.4630   22.9440 C   0  0  0  0  0  3  0  0  0  0  0  0
  -25.8380  -32.5310   23.8140 C   0  0  0  0  0  3  0  0  0  0  0  0
  -26.3490  -31.7640   25.0960 C   0  0  1  0  0  0  0  0  0  0  0  0
  -25.2450  -31.5080   26.1490 C   0  0  0  0  0  1  0  0  0  0  0  0
  -26.9600  -30.3990   24.7090 C   0  0  0  0  0  1  0  0  0  0  0  0
  -27.4770  -32.5730   25.7750 C   0  0  0  0  0  1  0  0  0  0  0  0
  -25.5130  -33.9270   24.1420 N   0  0  0  0  0  0  0  0  0  0  0  0
  -25.8560  -34.9850   23.3960 C   0  0  0  0  0  0  0  0  0  0  0  0
  -26.5480  -34.8880   22.3780 O   0  0  0  0  0  0  0  0  0  0  0  0
  -24.9010  -34.0740   24.9320 H   0  0  0  0  0  0  0  0  0  0  0  0
  -24.1330  -36.7750   23.0050 C   0  0  0  0  0  1  0  0  0  0  0  0
  -25.3520  -36.3670   23.8480 C   0  0  0  0  0  3  0  0  0  0  0  0
  -27.4580  -37.2560   24.7460 C   0  0  0  0  0  1  0  0  0  0  0  0
  -26.3850  -37.4250   23.7710 N   0  0  0  0  0  0  0  0  0  0  0  0
  -25.9710  -38.3430   23.9130 H   0  0  0  0  0  0  0  0  0  0  0  0
  1  2  2  0
  2  5  1  0
  2  4  1  0
  3  1  1  0
  3  6  1  0
  7 10  1  0
  8  7  2  0
  9 10  2  0
 10  1  1  0
 11  9  1  0
 12  8  1  0
 12 11  2  0
 13 11  1  0
 14 22  1  0
 15 20  1  0
 16 17  1  0
 16 15  1  0
 18 17  1  0
 18 27  1  0
 18 19  1  0
 20 14  1  0
 20 19  1  0
 21 14  2  0
 22 12  1  0
 22 23  1  0
 24 25  2  0
 25 44  1  0
 26 25  1  0
 26 29  1  0
 27 28  1  0
 27 24  1  0
 28 26  2  0
 29 30  1  0
 30 31  2  0
 32 35  1  0
 32 31  1  0
 33 32  2  0
 34 33  1  0
 34 29  2  0
 35 36  1  0
 36 37  1  0
 37 38  2  0
 39 38  1  0
 39 43  1  0
 40 39  2  0
 41 36  2  0
 41 40  1  0
 42 41  1  0
 44 45  1  0
 45 48  1  0
 45 47  1  0
 46 44  2  0
 49 50  1  0
 49 24  1  0
 51 49  1  0
 52 53  1  0
 52  3  1  0
 54 53  1  0
 55 66  2  0
 56 54  1  0
 56 61  1  0
 57 65  1  0
 57 67  1  0
 58 64  1  0
 58 60  1  0
 59 65  1  0
 60 59  1  0
 61 60  2  0
 62 56  2  0
 63 62  1  0
 63 58  2  0
 64 57  1  0
 65 55  1  0
 67 69  2  0
 68 67  1  0
 70 68  1  0
 71 80  2  0
 71 76  1  0
 72 68  1  0
 72 76  1  0
 73 72  1  0
 74 75  1  0
 74 73  1  0
 75 71  1  0
 76 77  2  0
 77 78  1  0
 79 78  2  0
 80 79  1  0
 81 55  1  0
 81 86  1  0
 81 82  1  0
 82 85  1  1
 82 83  1  0
 84 82  1  0
 86 89  1  0
 87 91  1  0
 87 86  1  0
 88 87  2  0
 91 90  1  0
 93 91  1  0
 93 94  1  0
 93 92  1  0
M  ISO  4  14 100  22 100  53 101  54 101
M  END
>  <TORSDO>  (24) 
F 19

>  <SCORE>  (24) 
-14.335

>  <name>  (24) 
23

>  <ligand_id>  (24) 
23

>  <original_smiles>  (24) 
[H]c1c([H])c([H])c2c(c1[H])C([H])([H])C([H])([H])C([H])([H])C2([H])N([H])C(=O)C1([H])N(C(=O)C([H])(N([H])C(=O)C([H])(N([H])C([H])([H])[H])C([H])([H])[H])C(C([H])([H])[H])(C([H])([H])[H])C([H])([H])[H])C([H])([H])c2c([H])c(OC([H])([H])C([H])([H])[N+]([H])=C(c3c([H])c([H])c(N([H])C(=O)N4C([H])([H])C([H])([H])C([H])([H])C([H])(n5nc(-c6c([H])c([H])c(Oc7c([H])c([H])c(F)c([H])c7F)c([H])c6[H])c(C(=O)N([H])[H])c5N([H])[H])C4([H])[H])c(C([H])([H])[H])c3[H])N([H])[H])c([H])c([H])c2C1([H])[H]

>  <smiles>  (24) 
[H]c1c([H])c([H])c2c(c1[H])C([H])([H])C([H])([H])C([H])([H])C2([H])N([H])C(=O)C1([H])N(C(=O)C([H])(N([H])C(=O)C([H])(N([H])C([H])([H])[H])C([H])([H])[H])C(C([H])([H])[H])(C([H])([H])[H])C([H])([H])[H])C([H])([H])c2c([H])c(OC([H])([H])C([H])([H])[N+]([H])=C(c3c([H])c([H])c(N([H])C(=O)N4C([H])([H])C([H])([H])C([H])([H])C([H])(n5nc(-c6c([H])c([H])c(Oc7c([H])c([H])c(F)c([H])c7F)c([H])c6[H])c(C(=O)N([H])[H])c5N([H])[H])C4([H])[H])c(C([H])([H])[H])c3[H])N([H])[H])c([H])c([H])c2C1([H])[H]

$$$$
24:0:0
     RDKit          3D

 96105  0  0  1  0  0  0  0  0999 V2000
  -31.1200  -20.2780   19.6640 C   0  0  0  0  0  3  0  0  0  0  0  0
  -29.3610  -18.7830   20.4280 C   0  0  0  0  0  3  0  0  0  0  0  0
  -31.5240  -17.8600   19.8130 C   0  0  0  0  0  3  0  0  0  0  0  0
  -29.7890  -20.1690   20.1190 C   0  0  0  0  0  0  0  0  0  0  0  0
  -31.9700  -19.1650   19.5100 C   0  0  0  0  0  0  0  0  0  0  0  0
  -30.2150  -17.5740   20.2720 C   0  0  0  0  0  0  0  0  0  0  0  0
  -30.5580  -14.8920   20.3430 C   0  0  0  0  0  0  0  0  0  0  0  0
  -30.3430  -12.5780   19.3730 C   0  0  0  0  0  2  0  0  0  0  0  0
  -29.4010  -12.6040   18.1500 C   0  0  0  0  0  2  0  0  0  0  0  0
  -27.9400  -12.4100   18.5950 C   0  0  0  0  0  2  0  0  0  0  0  0
  -27.5640  -13.3080   19.8040 C   0  0  0  0  0  3  0  0  0  0  0  0
  -28.6350  -13.2830   20.9160 C   0  0  0  0  0  2  0  0  0  0  0  0
  -29.9080  -13.6650   20.2950 N   0  0  0  0  0  0  0  0  0  0  0  0
  -31.7580  -14.8820   20.0560 O   0  0  0  0  0  0  0  0  0  0  0  0
  -29.8450  -16.1080   20.5170 N   0  0  0  0  0  0  0  0  0  0  0  0
  -28.8870  -15.9620   20.7930 H   0  0  0  0  0  0  0  0  0  0  0  0
  -25.1880  -13.8740   20.5660 C   0  0  0  0  0  0  0  0  0  0  0  0
  -24.1280  -13.0950   20.9390 C   0  0  0  0  0  0  0  0  0  0  0  0
  -24.5960  -11.7440   20.8940 C   0  0  0  0  0  0  0  0  0  0  0  0
  -26.2310  -13.0010   20.3130 N   0  0  0  0  0  0  0  0  0  0  0  0
  -25.8850  -11.7140   20.5740 N   0  0  0  0  0  0  0  0  0  0  0  0
  -23.8720  -10.4780   21.0790 C   0  0  0  0  0  0  0  0  0  0  0  0
  -24.3140   -9.5010   21.9970 C   0  0  0  0  0  3  0  0  0  0  0  0
  -23.5890   -8.3030   22.1720 C   0  0  0  0  0  3  0  0  0  0  0  0
  -22.4070   -8.0730   21.4290 C   0  0  0  0  0  0  0  0  0  0  0  0
  -21.9810   -9.0410   20.5010 C   0  0  0  0  0  3  0  0  0  0  0  0
  -22.7080  -10.2310   20.3240 C   0  0  0  0  0  3  0  0  0  0  0  0
  -21.6500   -6.9290   21.5150 O   0  0  0  0  0  0  0  0  0  0  0  0
  -21.6180   -6.1720   22.6580 C   0  0  0  0  0  0  0  0  0  0  0  0
  -21.2000   -6.7090   23.8950 C   0  0  0  0  0  3  0  0  0  0  0  0
  -21.1160   -5.8790   25.0310 C   0  0  0  0  0  3  0  0  0  0  0  0
  -21.4370   -4.5130   24.9310 C   0  0  0  0  0  0  0  0  0  0  0  0
  -21.8480   -3.9750   23.6980 C   0  0  0  0  0  3  0  0  0  0  0  0
  -21.9350   -4.8020   22.5650 C   0  0  0  0  0  0  0  0  0  0  0  0
  -22.3110   -4.2740   21.3750 F   0  0  0  0  0  0  0  0  0  0  0  0
  -21.3480   -3.7130   26.0190 F   0  0  0  0  0  0  0  0  0  0  0  0
  -22.7340  -13.5670   21.2240 C   0  0  0  0  0  0  0  0  0  0  0  0
  -22.0150  -12.8670   22.0940 N   0  0  0  0  0  0  0  0  0  0  0  0
  -22.2910  -14.5940   20.7110 O   0  0  0  0  0  0  0  0  0  0  0  0
  -22.3890  -12.0350   22.5270 H   0  0  0  0  0  0  0  0  0  0  0  0
  -21.0810  -13.1670   22.3310 H   0  0  0  0  0  0  0  0  0  0  0  0
  -25.3480  -15.2460   20.3940 N   0  0  0  0  0  0  0  0  0  0  0  0
  -24.5730  -15.8940   20.4860 H   0  0  0  0  0  0  0  0  0  0  0  0
  -26.1810  -15.6800   20.0190 H   0  0  0  0  0  0  0  0  0  0  0  0
  -29.0880  -22.4340   19.0840 C   0  0  0  0  0  3  0  0  0  0  0  0
  -29.0720  -21.5910   20.1660 C   0  0  0  0  0  0  0  0  0  0  0  0
  -28.6940  -23.9680   18.9750 C   0  0  0  0  0  2  0  0  0  0  0  0
  -28.6060  -22.3390   21.4390 C   0  0  0  0  0  2  0  0  0  0  0  0
  -28.7560  -23.9410   21.4350 C   0  0  0  0  0  2  0  0  0  0  0  0
  -28.1200  -24.7410   20.2330 C   0  0  0  0  0  3  0  0  0  0  0  0
  -28.2840  -26.2800   20.2600 O   0  0  0  0  0  0  0  0  0  0  0  0
  -24.6380  -31.9090   23.2400 C   0  0  0  0  0  0  0  0  0  0  0  0
  -27.1970  -27.2110   20.2100 C   0  0  0  0  0  0  0  0  0  0  0  0
  -23.4280  -30.5140   21.6040 C   0  0  0  0  0  3  0  0  0  0  0  0
  -24.8680  -28.9310   20.1820 C   0  0  0  0  0  0  0  0  0  0  0  0
  -25.9790  -30.7790   21.4330 C   0  0  0  0  0  2  0  0  0  0  0  0
  -26.0460  -29.3870   20.7850 C   0  0  0  0  0  0  0  0  0  0  0  0
  -27.2120  -28.5420   20.7800 C   0  0  0  0  0  3  0  0  0  0  0  0
  -25.9960  -26.8460   19.5670 C   0  0  0  0  0  3  0  0  0  0  0  0
  -24.8510  -27.6720   19.5590 C   0  0  0  0  0  3  0  0  0  0  0  0
  -23.6420  -29.8290   20.2280 C   0  0  0  0  0  2  0  0  0  0  0  0
  -24.7020  -31.0880   22.1480 N   0  0  0  0  0  0  0  0  0  0  0  0
  -23.5550  -32.2020   23.7670 O   0  0  0  0  0  0  0  0  0  0  0  0
  -22.7450  -29.5140   22.5700 C   0  0  0  0  0  0  0  0  0  0  0  0
  -21.4150  -29.3560   22.4460 N   0  0  0  0  0  0  0  0  0  0  0  0
  -23.4130  -28.8820   23.3920 O   0  0  0  0  0  0  0  0  0  0  0  0
  -20.9350  -29.9240   21.7620 H   0  0  0  0  0  0  0  0  0  0  0  0
  -18.0220  -28.1950   22.9530 C   0  0  0  0  0  0  0  0  0  0  0  0
  -20.5840  -28.4270   23.2150 C   0  0  0  0  0  3  0  0  0  0  0  0
  -20.6670  -26.9960   22.6380 C   0  0  0  0  0  2  0  0  0  0  0  0
  -19.5590  -26.6850   21.6270 C   0  0  0  0  0  2  0  0  0  0  0  0
  -18.1800  -26.8450   22.2740 C   0  0  0  0  0  2  0  0  0  0  0  0
  -19.1510  -28.9460   23.3790 C   0  0  0  0  0  0  0  0  0  0  0  0
  -18.9480  -30.2090   23.9760 C   0  0  0  0  0  3  0  0  0  0  0  0
  -17.6500  -30.7240   24.1480 C   0  0  0  0  0  3  0  0  0  0  0  0
  -16.5350  -29.9730   23.7370 C   0  0  0  0  0  3  0  0  0  0  0  0
  -16.7220  -28.7090   23.1480 C   0  0  0  0  0  3  0  0  0  0  0  0
  -25.9200  -32.5390   23.8670 C   0  0  0  0  0  3  0  0  0  0  0  0
  -25.6130  -33.9350   24.2110 N   0  0  0  0  0  0  0  0  0  0  0  0
  -25.9240  -34.9950   23.4530 C   0  0  0  0  0  0  0  0  0  0  0  0
  -26.5660  -34.8990   22.4030 O   0  0  0  0  0  0  0  0  0  0  0  0
  -25.0460  -34.0850   25.0320 H   0  0  0  0  0  0  0  0  0  0  0  0
  -24.1710  -36.7780   23.1750 C   0  0  0  0  0  1  0  0  0  0  0  0
  -25.4480  -36.3800   23.9330 C   0  0  0  0  0  3  0  0  0  0  0  0
  -27.6090  -37.2760   24.6780 C   0  0  0  0  0  1  0  0  0  0  0  0
  -26.4680  -37.4400   23.7810 N   0  0  0  0  0  0  0  0  0  0  0  0
  -26.0630  -38.3580   23.9500 H   0  0  0  0  0  0  0  0  0  0  0  0
  -26.4340  -31.7600   25.1410 C   0  0  1  0  0  0  0  0  0  0  0  0
  -25.3420  -31.5180   26.2080 C   0  0  0  0  0  1  0  0  0  0  0  0
  -27.0150  -30.3840   24.7410 C   0  0  0  0  0  1  0  0  0  0  0  0
  -27.5890  -32.5480   25.8060 C   0  0  0  0  0  1  0  0  0  0  0  0
  -33.3800  -19.3880   19.0500 C   0  0  0  0  0  0  0  0  0  0  0  0
  -33.8540  -18.5150   18.1710 N   0  0  0  0  0  0  0  0  0  0  0  0
  -34.0380  -20.3540   19.4300 O   0  0  0  0  0  0  0  0  0  0  0  0
  -33.2690  -17.7560   17.8490 H   0  0  0  0  0  0  0  0  0  0  0  0
  -34.7850  -18.6200   17.7980 H   0  0  0  0  0  0  0  0  0  0  0  0
  1  4  1  0
  3  6  2  0
  4 46  1  0
  4  2  2  0
  5  1  2  0
  5  3  1  0
  6  2  1  0
  6 15  1  0
  7 15  1  0
  8 13  1  0
  9 10  1  0
  9  8  1  0
 11 10  1  0
 11 20  1  0
 11 12  1  0
 13  7  1  0
 13 12  1  0
 14  7  2  0
 15 16  1  0
 17 18  2  0
 18 37  1  0
 19 18  1  0
 19 22  1  0
 20 17  1  0
 20 21  1  0
 21 19  2  0
 22 23  1  0
 23 24  2  0
 25 28  1  0
 25 24  1  0
 26 25  2  0
 27 26  1  0
 27 22  2  0
 28 29  1  0
 29 30  1  0
 30 31  2  0
 32 31  1  0
 32 36  1  0
 33 32  2  0
 34 29  2  0
 34 33  1  0
 35 34  1  0
 37 38  1  0
 38 41  1  0
 38 40  1  0
 39 37  2  0
 42 43  1  0
 42 17  1  0
 44 42  1  0
 45 46  2  0
 46 48  1  0
 47 45  1  0
 47 50  1  0
 49 48  1  0
 50 51  1  0
 50 49  1  0
 52 63  2  0
 53 51  1  0
 53 58  1  0
 54 62  1  0
 54 64  1  0
 55 61  1  0
 55 57  1  0
 56 62  1  0
 57 56  1  0
 58 57  2  0
 59 53  2  0
 60 59  1  0
 60 55  2  0
 61 54  1  0
 62 52  1  0
 64 66  2  0
 65 64  1  0
 67 65  1  0
 68 77  2  0
 68 73  1  0
 69 65  1  0
 69 73  1  0
 70 69  1  0
 71 72  1  0
 71 70  1  0
 72 68  1  0
 73 74  2  0
 74 75  1  0
 76 75  2  0
 77 76  1  0
 78 52  1  0
 78 79  1  0
 78 88  1  0
 79 82  1  0
 80 84  1  0
 80 79  1  0
 81 80  2  0
 84 83  1  0
 86 84  1  0
 86 87  1  0
 86 85  1  0
 88 91  1  1
 88 89  1  0
 90 88  1  0
 92 94  2  0
 92  5  1  0
 93 92  1  0
 95 93  1  0
 96 93  1  0
M  ISO  4   7 100  15 100  50 101  51 101
M  END
>  <TORSDO>  (25) 
F 18

>  <SCORE>  (25) 
-14.847

>  <name>  (25) 
24

>  <ligand_id>  (25) 
24

>  <original_smiles>  (25) 
[H]C1=C(c2c([H])c(C(=O)N([H])[H])c([H])c(N([H])C(=O)N3C([H])([H])C([H])([H])C([H])([H])C([H])(n4nc(-c5c([H])c([H])c(Oc6c([H])c([H])c(F)c([H])c6F)c([H])c5[H])c(C(=O)N([H])[H])c4N([H])[H])C3([H])[H])c2[H])C([H])([H])C([H])([H])C([H])(Oc2c([H])c([H])c3c(c2[H])C([H])([H])N(C(=O)C([H])(N([H])C(=O)C([H])(N([H])C([H])([H])[H])C([H])([H])[H])C(C([H])([H])[H])(C([H])([H])[H])C([H])([H])[H])C([H])(C(=O)N([H])C2([H])c4c([H])c([H])c([H])c([H])c4C([H])([H])C([H])([H])C2([H])[H])C3([H])[H])C1([H])[H]

>  <smiles>  (25) 
[H]C1=C(c2c([H])c(C(=O)N([H])[H])c([H])c(N([H])C(=O)N3C([H])([H])C([H])([H])C([H])([H])C([H])(n4nc(-c5c([H])c([H])c(Oc6c([H])c([H])c(F)c([H])c6F)c([H])c5[H])c(C(=O)N([H])[H])c4N([H])[H])C3([H])[H])c2[H])C([H])([H])C([H])([H])C([H])(Oc2c([H])c([H])c3c(c2[H])C([H])([H])N(C(=O)C([H])(N([H])C(=O)C([H])(N([H])C([H])([H])[H])C([H])([H])[H])C(C([H])([H])[H])(C([H])([H])[H])C([H])([H])[H])C([H])(C(=O)N([H])C2([H])c4c([H])c([H])c([H])c([H])c4C([H])([H])C([H])([H])C2([H])[H])C3([H])[H])C1([H])[H]

$$$$
25:0:0
     RDKit          3D

 92101  0  0  1  0  0  0  0  0999 V2000
  -29.8430  -16.3690   20.1810 C   0  0  0  0  0  0  0  0  0  0  0  0
  -29.0460  -16.4480   19.0820 C   0  0  0  0  0  0  0  0  0  0  0  0
  -30.1060  -17.8200   20.8680 C   0  0  0  0  0  2  0  0  0  0  0  0
  -28.2870  -17.6920   18.6400 C   0  0  0  0  0  2  0  0  0  0  0  0
  -29.1120  -18.9670   18.8220 C   0  0  0  0  0  2  0  0  0  0  0  0
  -28.4010  -19.8560   21.2020 C   0  0  0  0  0  2  0  0  0  0  0  0
  -29.5040  -20.8000   20.7740 C   0  0  0  0  0  3  0  0  0  0  0  0
  -29.4210  -19.2140   20.2840 C   0  0  1  0  0  0  0  0  0  0  0  0
  -30.6260  -15.0470   20.4650 C   0  0  0  0  0  0  0  0  0  0  0  0
  -30.5200  -12.6660   19.6260 C   0  0  0  0  0  2  0  0  0  0  0  0
  -29.6370  -12.5430   18.3620 C   0  0  0  0  0  2  0  0  0  0  0  0
  -28.1400  -12.4150   18.7270 C   0  0  0  0  0  2  0  0  0  0  0  0
  -27.6840  -13.3310   19.8960 C   0  0  0  0  0  3  0  0  0  0  0  0
  -28.7150  -13.4160   21.0350 C   0  0  0  0  0  2  0  0  0  0  0  0
  -30.0040  -13.7980   20.4410 N   0  0  0  0  0  0  0  0  0  0  0  0
  -31.8580  -15.0380   20.4210 O   0  0  0  0  0  0  0  0  0  0  0  0
  -25.2850  -13.8990   20.5620 C   0  0  0  0  0  0  0  0  0  0  0  0
  -24.2150  -13.1180   20.8900 C   0  0  0  0  0  0  0  0  0  0  0  0
  -24.6940  -11.7700   20.8850 C   0  0  0  0  0  0  0  0  0  0  0  0
  -26.3430  -13.0250   20.3670 N   0  0  0  0  0  0  0  0  0  0  0  0
  -25.9970  -11.7420   20.6290 N   0  0  0  0  0  0  0  0  0  0  0  0
  -23.9740  -10.5030   21.0530 C   0  0  0  0  0  0  0  0  0  0  0  0
  -24.3720   -9.5560   22.0220 C   0  0  0  0  0  3  0  0  0  0  0  0
  -23.6550   -8.3510   22.1790 C   0  0  0  0  0  3  0  0  0  0  0  0
  -22.5260   -8.0870   21.3670 C   0  0  0  0  0  0  0  0  0  0  0  0
  -22.1490   -9.0230   20.3890 C   0  0  0  0  0  3  0  0  0  0  0  0
  -22.8650  -10.2210   20.2300 C   0  0  0  0  0  3  0  0  0  0  0  0
  -21.7790   -6.9370   21.4350 O   0  0  0  0  0  0  0  0  0  0  0  0
  -21.6670   -6.2190   22.5990 C   0  0  0  0  0  0  0  0  0  0  0  0
  -21.1410   -6.7890   23.7790 C   0  0  0  0  0  3  0  0  0  0  0  0
  -20.9820   -5.9970   24.9330 C   0  0  0  0  0  3  0  0  0  0  0  0
  -21.3330   -4.6340   24.9060 C   0  0  0  0  0  0  0  0  0  0  0  0
  -21.8500   -4.0630   23.7310 C   0  0  0  0  0  3  0  0  0  0  0  0
  -22.0150   -4.8530   22.5800 C   0  0  0  0  0  0  0  0  0  0  0  0
  -22.4940   -4.2940   21.4430 F   0  0  0  0  0  0  0  0  0  0  0  0
  -21.1710   -3.8700   26.0130 F   0  0  0  0  0  0  0  0  0  0  0  0
  -22.8030  -13.5810   21.0970 C   0  0  0  0  0  0  0  0  0  0  0  0
  -22.0440  -12.8830   21.9320 N   0  0  0  0  0  0  0  0  0  0  0  0
  -22.3820  -14.6020   20.5520 O   0  0  0  0  0  0  0  0  0  0  0  0
  -22.3960  -12.0600   22.3980 H   0  0  0  0  0  0  0  0  0  0  0  0
  -21.0930  -13.1740   22.1090 H   0  0  0  0  0  0  0  0  0  0  0  0
  -25.4430  -15.2720   20.3820 N   0  0  0  0  0  0  0  0  0  0  0  0
  -24.6670  -15.9210   20.4400 H   0  0  0  0  0  0  0  0  0  0  0  0
  -26.3070  -15.7100   20.0870 H   0  0  0  0  0  0  0  0  0  0  0  0
  -28.8900  -22.0510   20.0330 N   0  0  0  0  0  4  0  0  0  0  0  0
  -27.8980  -21.8880   19.9490 H   0  0  0  0  0  0  0  0  0  0  0  0
  -29.2450  -22.0260   19.0880 H   0  0  0  0  0  0  0  0  0  0  0  0
  -29.0830  -23.5350   20.5370 C   0  0  0  0  0  3  0  0  0  0  0  0
  -28.1460  -24.8030   19.9830 C   0  0  0  0  0  3  0  0  0  0  0  0
  -28.3410  -26.3110   20.2810 O   0  0  0  0  0  0  0  0  0  0  0  0
  -24.6040  -31.9080   23.2350 C   0  0  0  0  0  0  0  0  0  0  0  0
  -27.2620  -27.2580   20.1980 C   0  0  0  0  0  0  0  0  0  0  0  0
  -23.4310  -30.5070   21.5800 C   0  0  0  0  0  3  0  0  0  0  0  0
  -24.9070  -28.9570   20.1620 C   0  0  0  0  0  0  0  0  0  0  0  0
  -25.9820  -30.8050   21.4390 C   0  0  0  0  0  2  0  0  0  0  0  0
  -26.0740  -29.4180   20.7800 C   0  0  0  0  0  0  0  0  0  0  0  0
  -27.2490  -28.5820   20.7880 C   0  0  0  0  0  3  0  0  0  0  0  0
  -26.0660  -26.8920   19.5390 C   0  0  0  0  0  3  0  0  0  0  0  0
  -24.9120  -27.7040   19.5300 C   0  0  0  0  0  3  0  0  0  0  0  0
  -23.6680  -29.8370   20.2010 C   0  0  0  0  0  2  0  0  0  0  0  0
  -24.6910  -31.0940   22.1390 N   0  0  0  0  0  0  0  0  0  0  0  0
  -23.5130  -32.1790   23.7570 O   0  0  0  0  0  0  0  0  0  0  0  0
  -22.7540  -29.4890   22.5310 C   0  0  0  0  0  0  0  0  0  0  0  0
  -21.4250  -29.3210   22.4090 N   0  0  0  0  0  0  0  0  0  0  0  0
  -23.4280  -28.8490   23.3440 O   0  0  0  0  0  0  0  0  0  0  0  0
  -20.9310  -29.8920   21.7360 H   0  0  0  0  0  0  0  0  0  0  0  0
  -18.0400  -28.1420   22.9340 C   0  0  0  0  0  0  0  0  0  0  0  0
  -20.6050  -28.3760   23.1760 C   0  0  0  0  0  3  0  0  0  0  0  0
  -20.6840  -26.9520   22.5760 C   0  0  0  0  0  2  0  0  0  0  0  0
  -19.5660  -26.6590   21.5690 C   0  0  0  0  0  2  0  0  0  0  0  0
  -18.1940  -26.8040   22.2310 C   0  0  0  0  0  2  0  0  0  0  0  0
  -19.1710  -28.8870   23.3640 C   0  0  0  0  0  0  0  0  0  0  0  0
  -18.9680  -30.1400   23.9810 C   0  0  0  0  0  3  0  0  0  0  0  0
  -17.6680  -30.6500   24.1700 C   0  0  0  0  0  3  0  0  0  0  0  0
  -16.5540  -29.9000   23.7560 C   0  0  0  0  0  3  0  0  0  0  0  0
  -16.7400  -28.6480   23.1440 C   0  0  0  0  0  3  0  0  0  0  0  0
  -25.8740  -32.5520   23.8740 C   0  0  0  0  0  3  0  0  0  0  0  0
  -26.3690  -31.7930   25.1670 C   0  0  1  0  0  0  0  0  0  0  0  0
  -25.2590  -31.5700   26.2200 C   0  0  0  0  0  1  0  0  0  0  0  0
  -26.9580  -30.4100   24.8070 C   0  0  0  0  0  1  0  0  0  0  0  0
  -27.5090  -32.5950   25.8390 C   0  0  0  0  0  1  0  0  0  0  0  0
  -25.5540  -33.9530   24.1910 N   0  0  0  0  0  0  0  0  0  0  0  0
  -25.8990  -35.0050   23.4350 C   0  0  0  0  0  0  0  0  0  0  0  0
  -26.5870  -34.8960   22.4170 O   0  0  0  0  0  0  0  0  0  0  0  0
  -24.9450  -34.1080   24.9810 H   0  0  0  0  0  0  0  0  0  0  0  0
  -24.1880  -36.8040   23.0350 C   0  0  0  0  0  1  0  0  0  0  0  0
  -25.4070  -36.3970   23.8790 C   0  0  0  0  0  3  0  0  0  0  0  0
  -27.5190  -37.2810   24.7660 C   0  0  0  0  0  1  0  0  0  0  0  0
  -26.4470  -37.4460   23.7880 N   0  0  0  0  0  0  0  0  0  0  0  0
  -26.0410  -38.3700   23.9150 H   0  0  0  0  0  0  0  0  0  0  0  0
  -28.8770  -15.5210   18.1310 O   0  0  0  0  0  0  0  0  0  0  0  0
  -29.3710  -14.7480   18.3670 H   0  0  0  0  0  0  0  0  0  0  0  0
  1  9  1  0
  1  3  1  0
  2  1  2  0
  4  5  1  0
  4  2  1  0
  7 45  1  0
  7  6  1  0
  8  5  1  6
  8  7  1  0
  8  3  1  0
  8  6  1  0
 10 15  1  0
 11 12  1  0
 11 10  1  0
 13 12  1  0
 13 20  1  0
 13 14  1  0
 15  9  1  0
 15 14  1  0
 16  9  2  0
 17 18  2  0
 18 37  1  0
 19 18  1  0
 19 22  1  0
 20 17  1  0
 20 21  1  0
 21 19  2  0
 22 23  1  0
 23 24  2  0
 25 28  1  0
 25 24  1  0
 26 25  2  0
 27 26  1  0
 27 22  2  0
 28 29  1  0
 29 30  1  0
 30 31  2  0
 32 31  1  0
 32 36  1  0
 33 32  2  0
 34 29  2  0
 34 33  1  0
 35 34  1  0
 37 38  1  0
 38 41  1  0
 38 40  1  0
 39 37  2  0
 42 43  1  0
 42 17  1  0
 44 42  1  0
 45 48  1  0
 46 45  1  0
 47 45  1  0
 49 50  1  0
 49 48  2  0
 51 62  2  0
 52 50  1  0
 52 57  1  0
 53 61  1  0
 53 63  1  0
 54 60  1  0
 54 56  1  0
 55 61  1  0
 56 57  2  0
 56 55  1  0
 58 52  2  0
 59 58  1  0
 59 54  2  0
 60 53  1  0
 61 51  1  0
 63 65  2  0
 64 63  1  0
 66 64  1  0
 67 76  2  0
 67 72  1  0
 68 64  1  0
 68 72  1  0
 69 68  1  0
 70 71  1  0
 70 69  1  0
 71 67  1  0
 72 73  2  0
 73 74  1  0
 75 74  2  0
 76 75  1  0
 77 51  1  0
 77 82  1  0
 77 78  1  0
 78 81  1  1
 78 79  1  0
 80 78  1  0
 82 85  1  0
 83 87  1  0
 83 82  1  0
 84 83  2  0
 87 86  1  0
 89 87  1  0
 89 90  1  0
 89 88  1  0
 91 92  1  0
 91  2  1  0
M  ISO  4   1 100   9 100  49 101  50 101
M  END
>  <TORSDO>  (26) 
F 20

>  <SCORE>  (26) 
-12.961

>  <name>  (26) 
25

>  <ligand_id>  (26) 
25

>  <original_smiles>  (26) 
[H]OC1=C(C(=O)N2C([H])([H])C([H])([H])C([H])([H])C([H])(n3nc(-c4c([H])c([H])c(Oc5c([H])c([H])c(F)c([H])c5F)c([H])c4[H])c(C(=O)N([H])[H])c3N([H])[H])C2([H])[H])C([H])([H])C2(C([H])([H])C1([H])[H])C([H])([H])C2([H])[N+]([H])([H])C([H])([H])C([H])([H])Oc1c([H])c([H])c2c(c1[H])C([H])([H])N(C(=O)C([H])(N([H])C(=O)C([H])(N([H])C([H])([H])[H])C([H])([H])[H])C(C([H])([H])[H])(C([H])([H])[H])C([H])([H])[H])C([H])(C(=O)N([H])C1([H])c3c([H])c([H])c([H])c([H])c3C([H])([H])C([H])([H])C1([H])[H])C2([H])[H]

>  <smiles>  (26) 
[H]OC1=C(C(=O)N2C([H])([H])C([H])([H])C([H])([H])C([H])(n3nc(-c4c([H])c([H])c(Oc5c([H])c([H])c(F)c([H])c5F)c([H])c4[H])c(C(=O)N([H])[H])c3N([H])[H])C2([H])[H])C([H])([H])C2(C([H])([H])C1([H])[H])C([H])([H])C2([H])[N+]([H])([H])C([H])([H])C([H])([H])Oc1c([H])c([H])c2c(c1[H])C([H])([H])N(C(=O)C([H])(N([H])C(=O)C([H])(N([H])C([H])([H])[H])C([H])([H])[H])C(C([H])([H])[H])(C([H])([H])[H])C([H])([H])[H])C([H])(C(=O)N([H])C1([H])c3c([H])c([H])c([H])c([H])c3C([H])([H])C([H])([H])C1([H])[H])C2([H])[H]

$$$$
26:0:0
     RDKit          3D

 91100  0  0  1  0  0  0  0  0999 V2000
  -30.6720  -15.4920   19.6440 C   0  0  0  0  0  0  0  0  0  0  0  0
  -30.8550  -12.9040   19.1730 C   0  0  0  0  0  2  0  0  0  0  0  0
  -29.9150  -12.3840   18.0480 C   0  0  0  0  0  2  0  0  0  0  0  0
  -28.5000  -12.0850   18.5790 C   0  0  0  0  0  2  0  0  0  0  0  0
  -28.0180  -13.1880   19.5520 C   0  0  0  0  0  3  0  0  0  0  0  0
  -29.0980  -13.5360   20.5980 C   0  0  0  0  0  2  0  0  0  0  0  0
  -30.2390  -14.1210   19.8460 N   0  0  0  0  0  0  0  0  0  0  0  0
  -31.8500  -15.5130   19.2400 O   0  0  0  0  0  0  0  0  0  0  0  0
  -28.8550  -19.0130   20.3800 C   0  0  0  0  0  0  0  0  0  0  0  0
  -29.6020  -18.3410   19.3890 C   0  0  0  0  0  0  0  0  0  0  0  0
  -28.5730  -20.3580   20.0900 C   0  0  0  0  0  0  0  0  0  0  0  0
  -29.7190  -19.4700   18.4530 C   0  0  0  0  0  0  0  0  0  0  0  0
  -28.5670  -18.1080   21.5220 C   0  0  0  0  0  2  0  0  0  0  0  0
  -29.0050  -16.6900   21.0330 C   0  0  0  0  0  2  0  0  0  0  0  0
  -29.0610  -20.8110   18.8430 N   0  0  0  0  0  0  0  0  0  0  0  0
  -29.8330  -16.7560   19.8000 N   0  0  0  0  0  0  0  0  0  0  0  0
  -25.7530  -13.7860   20.5580 C   0  0  0  0  0  0  0  0  0  0  0  0
  -24.6890  -13.0310   20.9620 C   0  0  0  0  0  0  0  0  0  0  0  0
  -25.0780  -11.6690   20.7770 C   0  0  0  0  0  0  0  0  0  0  0  0
  -26.7230  -12.8880   20.1510 N   0  0  0  0  0  0  0  0  0  0  0  0
  -26.3330  -11.6010   20.3450 N   0  0  0  0  0  0  0  0  0  0  0  0
  -24.3020  -10.4300   20.9300 C   0  0  0  0  0  0  0  0  0  0  0  0
  -24.7270   -9.3910   21.7850 C   0  0  0  0  0  3  0  0  0  0  0  0
  -23.9510   -8.2210   21.9320 C   0  0  0  0  0  3  0  0  0  0  0  0
  -22.7330   -8.0830   21.2230 C   0  0  0  0  0  0  0  0  0  0  0  0
  -22.3260   -9.1110   20.3540 C   0  0  0  0  0  3  0  0  0  0  0  0
  -23.1030  -10.2720   20.2060 C   0  0  0  0  0  3  0  0  0  0  0  0
  -21.9290   -6.9720   21.2830 O   0  0  0  0  0  0  0  0  0  0  0  0
  -21.8090   -6.2300   22.4320 C   0  0  0  0  0  0  0  0  0  0  0  0
  -21.3160   -6.7880   23.6320 C   0  0  0  0  0  3  0  0  0  0  0  0
  -21.1440   -5.9740   24.7680 C   0  0  0  0  0  3  0  0  0  0  0  0
  -21.4560   -4.6030   24.7060 C   0  0  0  0  0  0  0  0  0  0  0  0
  -21.9410   -4.0440   23.5100 C   0  0  0  0  0  3  0  0  0  0  0  0
  -22.1140   -4.8560   22.3760 C   0  0  0  0  0  0  0  0  0  0  0  0
  -22.5630   -4.3070   21.2210 F   0  0  0  0  0  0  0  0  0  0  0  0
  -21.2830   -3.8180   25.7960 F   0  0  0  0  0  0  0  0  0  0  0  0
  -23.3500  -13.5500   21.3980 C   0  0  0  0  0  0  0  0  0  0  0  0
  -22.6800  -12.8370   22.2960 N   0  0  0  0  0  0  0  0  0  0  0  0
  -22.9130  -14.6190   20.9770 O   0  0  0  0  0  0  0  0  0  0  0  0
  -23.0510  -11.9700   22.6580 H   0  0  0  0  0  0  0  0  0  0  0  0
  -21.7840  -13.1640   22.6280 H   0  0  0  0  0  0  0  0  0  0  0  0
  -25.9650  -15.1590   20.4730 N   0  0  0  0  0  0  0  0  0  0  0  0
  -25.2400  -15.8290   20.7040 H   0  0  0  0  0  0  0  0  0  0  0  0
  -26.7910  -15.5900   20.0770 H   0  0  0  0  0  0  0  0  0  0  0  0
  -27.9120  -21.2310   20.8960 O   0  0  0  0  0  0  0  0  0  0  0  0
  -27.9270  -22.0880   20.4840 H   0  0  0  0  0  0  0  0  0  0  0  0
  -30.3630  -19.4170   17.2570 O   0  0  0  0  0  0  0  0  0  0  0  0
  -30.1500  -20.2090   16.7740 H   0  0  0  0  0  0  0  0  0  0  0  0
  -29.0240  -22.4260   18.2250 C   0  0  0  0  0  2  0  0  0  0  0  0
  -27.9760  -23.9480   18.3660 C   0  0  0  0  0  2  0  0  0  0  0  0
  -28.2040  -25.6250   18.2910 O   0  0  0  0  0  0  0  0  0  0  0  0
  -25.2180  -30.8740   22.9680 C   0  0  0  0  0  0  0  0  0  0  0  0
  -27.2760  -26.7740   18.6200 C   0  0  0  0  0  0  0  0  0  0  0  0
  -23.8650  -30.0540   21.0830 C   0  0  0  0  0  3  0  0  0  0  0  0
  -25.1350  -28.7850   19.2100 C   0  0  0  0  0  0  0  0  0  0  0  0
  -26.4380  -30.1050   20.8610 C   0  0  0  0  0  2  0  0  0  0  0  0
  -26.3740  -28.9180   19.8480 C   0  0  0  0  0  0  0  0  0  0  0  0
  -27.4380  -27.9450   19.5290 C   0  0  0  0  0  3  0  0  0  0  0  0
  -26.0120  -26.8170   17.9850 C   0  0  0  0  0  3  0  0  0  0  0  0
  -24.9850  -27.7600   18.2600 C   0  0  0  0  0  3  0  0  0  0  0  0
  -23.9970  -29.7460   19.5660 C   0  0  0  0  0  2  0  0  0  0  0  0
  -25.2000  -30.3570   21.6960 N   0  0  0  0  0  0  0  0  0  0  0  0
  -24.1720  -31.0860   23.6030 O   0  0  0  0  0  0  0  0  0  0  0  0
  -23.1230  -28.8890   21.7880 C   0  0  0  0  0  0  0  0  0  0  0  0
  -21.7790  -28.8690   21.7190 N   0  0  0  0  0  0  0  0  0  0  0  0
  -23.7630  -28.0070   22.3670 O   0  0  0  0  0  0  0  0  0  0  0  0
  -21.3170  -29.6300   21.2400 H   0  0  0  0  0  0  0  0  0  0  0  0
  -18.3220  -27.8470   22.1550 C   0  0  0  0  0  0  0  0  0  0  0  0
  -20.9090  -27.8180   22.2580 C   0  0  0  0  0  3  0  0  0  0  0  0
  -20.8260  -26.6140   21.2900 C   0  0  0  0  0  2  0  0  0  0  0  0
  -19.6380  -26.6940   20.3260 C   0  0  0  0  0  2  0  0  0  0  0  0
  -18.3200  -26.7500   21.1030 C   0  0  0  0  0  2  0  0  0  0  0  0
  -19.5370  -28.3600   22.6850 C   0  0  0  0  0  0  0  0  0  0  0  0
  -19.4810  -29.3990   23.6390 C   0  0  0  0  0  3  0  0  0  0  0  0
  -18.2440  -29.9240   24.0610 C   0  0  0  0  0  3  0  0  0  0  0  0
  -17.0460  -29.4040   23.5420 C   0  0  0  0  0  3  0  0  0  0  0  0
  -17.0860  -28.3650   22.5960 C   0  0  0  0  0  3  0  0  0  0  0  0
  -26.5540  -31.2370   23.6840 C   0  0  0  0  0  3  0  0  0  0  0  0
  -27.0050  -30.1520   24.7390 C   0  0  1  0  0  0  0  0  0  0  0  0
  -25.9060  -29.7820   25.7630 C   0  0  0  0  0  1  0  0  0  0  0  0
  -27.4470  -28.8470   24.0390 C   0  0  0  0  0  1  0  0  0  0  0  0
  -28.2350  -30.6670   25.5250 C   0  0  0  0  0  1  0  0  0  0  0  0
  -26.3750  -32.5410   24.3490 N   0  0  0  0  0  0  0  0  0  0  0  0
  -26.8600  -33.7070   23.9010 C   0  0  0  0  0  0  0  0  0  0  0  0
  -27.5660  -33.7900   22.8930 O   0  0  0  0  0  0  0  0  0  0  0  0
  -25.7590  -32.5560   25.1470 H   0  0  0  0  0  0  0  0  0  0  0  0
  -25.4120  -35.7680   23.9610 C   0  0  0  0  0  1  0  0  0  0  0  0
  -26.5110  -34.9840   24.6950 C   0  0  0  0  0  3  0  0  0  0  0  0
  -28.6450  -35.3090   25.8670 C   0  0  0  0  0  1  0  0  0  0  0  0
  -27.6740  -35.8680   24.9320 N   0  0  0  0  0  0  0  0  0  0  0  0
  -27.3730  -36.7720   25.2890 H   0  0  0  0  0  0  0  0  0  0  0  0
  1 16  1  0
  1  7  1  0
  2  7  1  0
  3  4  1  0
  3  2  1  0
  5  4  1  0
  5 20  1  0
  5  6  1  0
  7  6  1  0
  8  1  2  0
  9 13  1  0
 10 16  1  0
 10  9  1  0
 11  9  2  0
 11 45  1  0
 12 15  1  0
 12 10  2  0
 14 13  1  0
 15 11  1  0
 16 14  1  0
 17 18  2  0
 18 37  1  0
 19 22  1  0
 19 18  1  0
 20 21  1  0
 20 17  1  0
 21 19  2  0
 22 23  1  0
 23 24  2  0
 25 28  1  0
 25 24  1  0
 26 25  2  0
 27 26  1  0
 27 22  2  0
 28 29  1  0
 29 30  1  0
 30 31  2  0
 32 31  1  0
 32 36  1  0
 33 32  2  0
 34 29  2  0
 34 33  1  0
 35 34  1  0
 37 38  1  0
 38 41  1  0
 38 40  1  0
 39 37  2  0
 42 17  1  0
 42 43  1  0
 44 42  1  0
 46 45  1  0
 47 12  1  0
 48 47  1  0
 49 50  1  0
 49 15  1  0
 51 50  1  0
 51 53  1  0
 52 63  2  0
 53 58  1  0
 54 62  1  0
 54 64  1  0
 55 61  1  0
 55 57  1  0
 56 62  1  0
 57 56  1  0
 58 57  2  0
 59 60  1  0
 59 53  2  0
 60 55  2  0
 61 54  1  0
 62 52  1  0
 64 66  2  0
 65 64  1  0
 67 65  1  0
 68 77  2  0
 68 73  1  0
 69 65  1  0
 69 73  1  0
 70 69  1  0
 71 72  1  0
 71 70  1  0
 72 68  1  0
 73 74  2  0
 74 75  1  0
 76 75  2  0
 77 76  1  0
 78 52  1  0
 78 83  1  0
 78 79  1  0
 79 82  1  1
 79 80  1  0
 81 79  1  0
 83 86  1  0
 84 83  1  0
 84 88  1  0
 85 84  2  0
 88 87  1  0
 88 90  1  0
 90 91  1  0
 90 89  1  0
M  ISO  4   1 100  16 100  50 101  51 101
M  END
>  <TORSDO>  (27) 
F 19

>  <SCORE>  (27) 
-11.912

>  <name>  (27) 
26

>  <ligand_id>  (27) 
26

>  <original_smiles>  (27) 
[H]Oc1c2c(c(O[H])n1C([H])([H])C([H])([H])Oc1c([H])c([H])c3c(c1[H])C([H])([H])N(C(=O)C([H])(N([H])C(=O)C([H])(N([H])C([H])([H])[H])C([H])([H])[H])C(C([H])([H])[H])(C([H])([H])[H])C([H])([H])[H])C([H])(C(=O)N([H])C1([H])c4c([H])c([H])c([H])c([H])c4C([H])([H])C([H])([H])C1([H])[H])C3([H])[H])C([H])([H])C([H])([H])N2C(=O)N1C([H])([H])C([H])([H])C([H])([H])C([H])(n2nc(-c3c([H])c([H])c(Oc4c([H])c([H])c(F)c([H])c4F)c([H])c3[H])c(C(=O)N([H])[H])c2N([H])[H])C1([H])[H]

>  <smiles>  (27) 
[H]Oc1c2c(c(O[H])n1C([H])([H])C([H])([H])Oc1c([H])c([H])c3c(c1[H])C([H])([H])N(C(=O)C([H])(N([H])C(=O)C([H])(N([H])C([H])([H])[H])C([H])([H])[H])C(C([H])([H])[H])(C([H])([H])[H])C([H])([H])[H])C([H])(C(=O)N([H])C1([H])c4c([H])c([H])c([H])c([H])c4C([H])([H])C([H])([H])C1([H])[H])C3([H])[H])C([H])([H])C([H])([H])N2C(=O)N1C([H])([H])C([H])([H])C([H])([H])C([H])(n2nc(-c3c([H])c([H])c(Oc4c([H])c([H])c(F)c([H])c4F)c([H])c3[H])c(C(=O)N([H])[H])c2N([H])[H])C1([H])[H]

$$$$
27:0:0
     RDKit          3D

 88 97  0  0  1  0  0  0  0  0999 V2000
  -30.5380  -19.1030   19.5750 C   0  0  0  0  0  2  0  0  0  0  0  0
  -28.3530  -20.6480   21.1660 C   0  0  0  0  0  2  0  0  0  0  0  0
  -28.6010  -19.2630   20.3950 C   0  0  0  0  0  3  0  0  0  0  0  0
  -29.7940  -18.1050   20.5580 C   0  0  0  0  0  3  0  0  0  0  0  0
  -29.3780  -20.2140   19.4310 C   0  0  0  0  0  3  0  0  0  0  0  0
  -29.2030  -21.5280   20.2970 N   0  0  1  0  0  4  0  0  0  0  0  0
  -30.0730  -21.6910   20.7810 H   0  0  0  0  0  0  0  0  0  0  0  0
  -30.4040  -15.2570   20.1740 C   0  0  0  0  0  0  0  0  0  0  0  0
  -30.3390  -12.8510   19.2420 C   0  0  0  0  0  2  0  0  0  0  0  0
  -29.3960  -12.7020   18.0230 C   0  0  0  0  0  2  0  0  0  0  0  0
  -27.9450  -12.4560   18.4780 C   0  0  0  0  0  2  0  0  0  0  0  0
  -27.5250  -13.4020   19.6300 C   0  0  0  0  0  3  0  0  0  0  0  0
  -28.5910  -13.4920   20.7420 C   0  0  0  0  0  2  0  0  0  0  0  0
  -29.8230  -13.9700   20.0980 N   0  0  0  0  0  0  0  0  0  0  0  0
  -31.6280  -15.2750   19.9860 O   0  0  0  0  0  0  0  0  0  0  0  0
  -29.6160  -16.4910   20.2590 N   0  0  0  0  0  0  0  0  0  0  0  0
  -28.6390  -16.2450   20.2550 H   0  0  0  0  0  0  0  0  0  0  0  0
  -25.1570  -13.9730   20.3930 C   0  0  0  0  0  0  0  0  0  0  0  0
  -24.0980  -13.1990   20.7770 C   0  0  0  0  0  0  0  0  0  0  0  0
  -24.5660  -11.8490   20.7560 C   0  0  0  0  0  0  0  0  0  0  0  0
  -26.1990  -13.0960   20.1510 N   0  0  0  0  0  0  0  0  0  0  0  0
  -25.8560  -11.8130   20.4390 N   0  0  0  0  0  0  0  0  0  0  0  0
  -23.8410  -10.5880   20.9590 C   0  0  0  0  0  0  0  0  0  0  0  0
  -24.2710   -9.6310   21.9050 C   0  0  0  0  0  3  0  0  0  0  0  0
  -23.5420   -8.4370   22.0970 C   0  0  0  0  0  3  0  0  0  0  0  0
  -22.3720   -8.1900   21.3410 C   0  0  0  0  0  0  0  0  0  0  0  0
  -21.9620   -9.1350   20.3850 C   0  0  0  0  0  3  0  0  0  0  0  0
  -22.6900  -10.3200   20.1910 C   0  0  0  0  0  3  0  0  0  0  0  0
  -21.6160   -7.0470   21.4420 O   0  0  0  0  0  0  0  0  0  0  0  0
  -21.5610   -6.3200   22.6050 C   0  0  0  0  0  0  0  0  0  0  0  0
  -21.1230   -6.8890   23.8190 C   0  0  0  0  0  3  0  0  0  0  0  0
  -21.0150   -6.0880   24.9750 C   0  0  0  0  0  3  0  0  0  0  0  0
  -21.3390   -4.7190   24.9150 C   0  0  0  0  0  0  0  0  0  0  0  0
  -21.7710   -4.1500   23.7040 C   0  0  0  0  0  3  0  0  0  0  0  0
  -21.8790   -4.9480   22.5520 C   0  0  0  0  0  0  0  0  0  0  0  0
  -22.2760   -4.3890   21.3830 F   0  0  0  0  0  0  0  0  0  0  0  0
  -21.2280   -3.9480   26.0220 F   0  0  0  0  0  0  0  0  0  0  0  0
  -22.7000  -13.6770   21.0450 C   0  0  0  0  0  0  0  0  0  0  0  0
  -21.9740  -12.9890   21.9170 N   0  0  0  0  0  0  0  0  0  0  0  0
  -22.2630  -14.6980   20.5160 O   0  0  0  0  0  0  0  0  0  0  0  0
  -22.3410  -12.1630   22.3670 H   0  0  0  0  0  0  0  0  0  0  0  0
  -21.0360  -13.2910   22.1380 H   0  0  0  0  0  0  0  0  0  0  0  0
  -25.3130  -15.3430   20.1980 N   0  0  0  0  0  0  0  0  0  0  0  0
  -24.5360  -15.9870   20.2960 H   0  0  0  0  0  0  0  0  0  0  0  0
  -26.1370  -15.7770   19.8050 H   0  0  0  0  0  0  0  0  0  0  0  0
  -28.7080  -22.9860   19.6940 C   0  0  0  0  0  2  0  0  0  0  0  0
  -28.2830  -24.5050   20.4850 C   0  0  0  0  0  2  0  0  0  0  0  0
  -28.3540  -26.0800   20.0750 O   0  0  0  0  0  0  0  0  0  0  0  0
  -24.6780  -31.8780   23.1480 C   0  0  0  0  0  0  0  0  0  0  0  0
  -27.2900  -27.0980   20.1090 C   0  0  0  0  0  0  0  0  0  0  0  0
  -23.4990  -30.4880   21.4920 C   0  0  0  0  0  3  0  0  0  0  0  0
  -24.9630  -28.9100   20.0690 C   0  0  0  0  0  0  0  0  0  0  0  0
  -26.0590  -30.7390   21.3500 C   0  0  0  0  0  2  0  0  0  0  0  0
  -26.1450  -29.3390   20.6880 C   0  0  0  0  0  0  0  0  0  0  0  0
  -27.3070  -28.4560   20.6770 C   0  0  0  0  0  3  0  0  0  0  0  0
  -26.0750  -26.7970   19.4570 C   0  0  0  0  0  3  0  0  0  0  0  0
  -24.9490  -27.6570   19.4340 C   0  0  0  0  0  3  0  0  0  0  0  0
  -23.7370  -29.8160   20.1110 C   0  0  0  0  0  2  0  0  0  0  0  0
  -24.7660  -31.0600   22.0510 N   0  0  0  0  0  0  0  0  0  0  0  0
  -23.5840  -32.1520   23.6700 O   0  0  0  0  0  0  0  0  0  0  0  0
  -22.8120  -29.4760   22.4460 C   0  0  0  0  0  0  0  0  0  0  0  0
  -21.4830  -29.3080   22.3180 N   0  0  0  0  0  0  0  0  0  0  0  0
  -23.4820  -28.8410   23.2640 O   0  0  0  0  0  0  0  0  0  0  0  0
  -20.9970  -29.8710   21.6340 H   0  0  0  0  0  0  0  0  0  0  0  0
  -18.1020  -28.0950   22.8210 C   0  0  0  0  0  0  0  0  0  0  0  0
  -20.6630  -28.3600   23.0780 C   0  0  0  0  0  3  0  0  0  0  0  0
  -20.7640  -26.9350   22.4820 C   0  0  0  0  0  2  0  0  0  0  0  0
  -19.6570  -26.6270   21.4680 C   0  0  0  0  0  2  0  0  0  0  0  0
  -18.2780  -26.7590   22.1200 C   0  0  0  0  0  2  0  0  0  0  0  0
  -19.2220  -28.8540   23.2560 C   0  0  0  0  0  0  0  0  0  0  0  0
  -19.0020  -30.1030   23.8750 C   0  0  0  0  0  3  0  0  0  0  0  0
  -17.6960  -30.5970   24.0600 C   0  0  0  0  0  3  0  0  0  0  0  0
  -16.5920  -29.8350   23.6380 C   0  0  0  0  0  3  0  0  0  0  0  0
  -16.7960  -28.5860   23.0250 C   0  0  0  0  0  3  0  0  0  0  0  0
  -25.9430  -32.5220   23.7900 C   0  0  0  0  0  3  0  0  0  0  0  0
  -25.6130  -33.9150   24.1400 N   0  0  0  0  0  0  0  0  0  0  0  0
  -25.9460  -34.9890   23.4120 C   0  0  0  0  0  0  0  0  0  0  0  0
  -26.6270  -34.9110   22.3860 O   0  0  0  0  0  0  0  0  0  0  0  0
  -25.0080  -34.0470   24.9370 H   0  0  0  0  0  0  0  0  0  0  0  0
  -24.2170  -36.7890   23.0790 C   0  0  0  0  0  1  0  0  0  0  0  0
  -25.4480  -36.3660   23.8960 C   0  0  0  0  0  3  0  0  0  0  0  0
  -27.5650  -37.2430   24.7820 C   0  0  0  0  0  1  0  0  0  0  0  0
  -26.4780  -37.4250   23.8220 N   0  0  0  0  0  0  0  0  0  0  0  0
  -26.0670  -38.3410   23.9810 H   0  0  0  0  0  0  0  0  0  0  0  0
  -26.4520  -31.7460   25.0690 C   0  0  1  0  0  0  0  0  0  0  0  0
  -25.3500  -31.4970   26.1260 C   0  0  0  0  0  1  0  0  0  0  0  0
  -27.0460  -30.3740   24.6800 C   0  0  0  0  0  1  0  0  0  0  0  0
  -27.5920  -32.5430   25.7450 C   0  0  0  0  0  1  0  0  0  0  0  0
  1  4  1  0
  3  4  1  0
  3  2  1  0
  4 16  1  0
  5  1  1  0
  5  6  1  0
  5  3  1  0
  6  7  1  1
  6  2  1  0
  8 16  1  0
  9 14  1  0
 10 11  1  0
 10  9  1  0
 12 11  1  0
 12 21  1  0
 12 13  1  0
 14  8  1  0
 14 13  1  0
 15  8  2  0
 17 16  1  0
 18 19  2  0
 19 38  1  0
 20 19  1  0
 20 23  1  0
 21 18  1  0
 21 22  1  0
 22 20  2  0
 23 24  1  0
 24 25  2  0
 26 29  1  0
 26 25  1  0
 27 26  2  0
 28 27  1  0
 28 23  2  0
 29 30  1  0
 30 31  1  0
 31 32  2  0
 33 32  1  0
 33 37  1  0
 34 33  2  0
 35 30  2  0
 35 34  1  0
 36 35  1  0
 38 39  1  0
 39 42  1  0
 39 41  1  0
 40 38  2  0
 43 44  1  0
 43 18  1  0
 45 43  1  0
 46  6  1  0
 46 47  1  0
 48 50  1  0
 48 47  1  0
 49 60  2  0
 50 55  1  0
 51 59  1  0
 51 61  1  0
 52 58  1  0
 52 54  1  0
 53 59  1  0
 54 53  1  0
 55 54  2  0
 56 50  2  0
 57 56  1  0
 57 52  2  0
 58 51  1  0
 59 49  1  0
 61 63  2  0
 62 61  1  0
 64 62  1  0
 65 74  2  0
 65 70  1  0
 66 62  1  0
 66 70  1  0
 67 66  1  0
 68 69  1  0
 68 67  1  0
 69 65  1  0
 70 71  2  0
 71 72  1  0
 73 72  2  0
 74 73  1  0
 75 49  1  0
 75 76  1  0
 75 85  1  0
 76 79  1  0
 77 81  1  0
 77 76  1  0
 78 77  2  0
 81 80  1  0
 83 81  1  0
 83 84  1  0
 83 82  1  0
 85 88  1  1
 85 86  1  0
 87 85  1  0
M  ISO  4   8 100  16 100  47 101  48 101
M  END
>  <TORSDO>  (28) 
F 18

>  <SCORE>  (28) 
-15.115

>  <name>  (28) 
27

>  <ligand_id>  (28) 
27

>  <original_smiles>  (28) 
[H]c1c([H])c([H])c2c(c1[H])C([H])([H])C([H])([H])C([H])([H])C2([H])N([H])C(=O)C1([H])N(C(=O)C([H])(N([H])C(=O)C([H])(N([H])C([H])([H])[H])C([H])([H])[H])C(C([H])([H])[H])(C([H])([H])[H])C([H])([H])[H])C([H])([H])c2c([H])c(OC([H])([H])C([H])([H])[N+]3([H])C([H])([H])C4([H])C([H])(N([H])C(=O)N5C([H])([H])C([H])([H])C([H])([H])C([H])(n6nc(-c7c([H])c([H])c(Oc8c([H])c([H])c(F)c([H])c8F)c([H])c7[H])c(C(=O)N([H])[H])c6N([H])[H])C5([H])[H])C([H])([H])C43[H])c([H])c([H])c2C1([H])[H]

>  <smiles>  (28) 
[H]c1c([H])c([H])c2c(c1[H])C([H])([H])C([H])([H])C([H])([H])C2([H])N([H])C(=O)C1([H])N(C(=O)C([H])(N([H])C(=O)C([H])(N([H])C([H])([H])[H])C([H])([H])[H])C(C([H])([H])[H])(C([H])([H])[H])C([H])([H])[H])C([H])([H])c2c([H])c(OC([H])([H])C([H])([H])[N+]3([H])C([H])([H])C4([H])C([H])(N([H])C(=O)N5C([H])([H])C([H])([H])C([H])([H])C([H])(n6nc(-c7c([H])c([H])c(Oc8c([H])c([H])c(F)c([H])c8F)c([H])c7[H])c(C(=O)N([H])[H])c6N([H])[H])C5([H])[H])C([H])([H])C43[H])c([H])c([H])c2C1([H])[H]

$$$$
28:0:0
     RDKit          3D

 95104  0  0  1  0  0  0  0  0999 V2000
  -28.2550  -21.2130   21.0830 C   0  0  0  0  0  3  0  0  0  0  0  0
  -27.8940  -22.5320   21.1460 C   0  0  0  0  0  0  0  0  0  0  0  0
  -30.5570  -21.6940   20.4800 C   0  0  0  0  0  2  0  0  0  0  0  0
  -28.8690  -21.4030   18.7540 C   0  0  0  0  0  2  0  0  0  0  0  0
  -30.1610  -23.2540   20.5770 C   0  0  0  0  0  2  0  0  0  0  0  0
  -28.4960  -22.9540   18.8180 C   0  0  0  0  0  2  0  0  0  0  0  0
  -29.3490  -20.7590   20.1130 C   0  0  2  0  0  0  0  0  0  0  0  0
  -28.6500  -23.5740   20.2420 C   0  0  1  0  0  0  0  0  0  0  0  0
  -26.7740  -22.9750   22.0830 C   0  0  0  0  0  2  0  0  0  0  0  0
  -24.6280  -24.2120   22.1580 C   0  0  0  0  0  1  0  0  0  0  0  0
  -25.6160  -23.4960   21.3260 N   0  0  0  0  0  4  0  0  0  0  0  0
  -25.9300  -24.1220   20.6040 H   0  0  0  0  0  0  0  0  0  0  0  0
  -25.1510  -22.7250   20.8750 H   0  0  0  0  0  0  0  0  0  0  0  0
  -29.5290  -19.0880   19.9360 C   0  0  0  0  0  3  0  0  0  0  0  0
  -30.3760  -17.9550   20.8030 C   0  0  0  0  0  3  0  0  0  0  0  0
  -30.8710  -15.2610   20.6320 C   0  0  0  0  0  0  0  0  0  0  0  0
  -30.7960  -12.9030   19.7350 C   0  0  0  0  0  2  0  0  0  0  0  0
  -29.9320  -12.8490   18.4560 C   0  0  0  0  0  2  0  0  0  0  0  0
  -28.4430  -12.6610   18.8070 C   0  0  0  0  0  2  0  0  0  0  0  0
  -27.9750  -13.6090   19.9430 C   0  0  0  0  0  3  0  0  0  0  0  0
  -28.9660  -13.6280   21.1250 C   0  0  0  0  0  2  0  0  0  0  0  0
  -30.2750  -14.0090   20.5800 N   0  0  0  0  0  0  0  0  0  0  0  0
  -32.0870  -15.3390   20.4320 O   0  0  0  0  0  0  0  0  0  0  0  0
  -30.0680  -16.4190   20.7060 N   0  0  0  0  0  0  0  0  0  0  0  0
  -29.0870  -16.1990   20.7830 H   0  0  0  0  0  0  0  0  0  0  0  0
  -25.5650  -14.2070   20.5680 C   0  0  0  0  0  0  0  0  0  0  0  0
  -24.4760  -13.4390   20.8770 C   0  0  0  0  0  0  0  0  0  0  0  0
  -24.9290  -12.0840   20.8530 C   0  0  0  0  0  0  0  0  0  0  0  0
  -26.6110  -13.3220   20.3700 N   0  0  0  0  0  0  0  0  0  0  0  0
  -26.2330  -12.0380   20.6080 N   0  0  0  0  0  0  0  0  0  0  0  0
  -24.1810  -10.8270   20.9910 C   0  0  0  0  0  0  0  0  0  0  0  0
  -24.5620   -9.8390   21.9260 C   0  0  0  0  0  3  0  0  0  0  0  0
  -23.8140   -8.6480   22.0540 C   0  0  0  0  0  3  0  0  0  0  0  0
  -22.6720   -8.4370   21.2450 C   0  0  0  0  0  0  0  0  0  0  0  0
  -22.3110   -9.4140   20.3000 C   0  0  0  0  0  3  0  0  0  0  0  0
  -23.0590  -10.5960   20.1710 C   0  0  0  0  0  3  0  0  0  0  0  0
  -21.9000   -7.3010   21.2810 O   0  0  0  0  0  0  0  0  0  0  0  0
  -21.7920   -6.5410   22.4190 C   0  0  0  0  0  0  0  0  0  0  0  0
  -21.2980   -7.0760   23.6280 C   0  0  0  0  0  3  0  0  0  0  0  0
  -21.1380   -6.2440   24.7540 C   0  0  0  0  0  3  0  0  0  0  0  0
  -21.4620   -4.8760   24.6700 C   0  0  0  0  0  0  0  0  0  0  0  0
  -21.9470   -4.3400   23.4640 C   0  0  0  0  0  3  0  0  0  0  0  0
  -22.1090   -5.1700   22.3410 C   0  0  0  0  0  0  0  0  0  0  0  0
  -22.5580   -4.6440   21.1760 F   0  0  0  0  0  0  0  0  0  0  0  0
  -21.3000   -4.0720   25.7470 F   0  0  0  0  0  0  0  0  0  0  0  0
  -23.0710  -13.9280   21.0820 C   0  0  0  0  0  0  0  0  0  0  0  0
  -22.2970  -13.2360   21.9100 N   0  0  0  0  0  0  0  0  0  0  0  0
  -22.6680  -14.9570   20.5430 O   0  0  0  0  0  0  0  0  0  0  0  0
  -22.6350  -12.4040   22.3690 H   0  0  0  0  0  0  0  0  0  0  0  0
  -21.3520  -13.5460   22.0900 H   0  0  0  0  0  0  0  0  0  0  0  0
  -25.7470  -15.5790   20.4140 N   0  0  0  0  0  0  0  0  0  0  0  0
  -24.9750  -16.2320   20.4880 H   0  0  0  0  0  0  0  0  0  0  0  0
  -26.6000  -16.0130   20.0880 H   0  0  0  0  0  0  0  0  0  0  0  0
  -28.0890  -25.1630   20.4310 C   0  0  0  0  0  2  0  0  0  0  0  0
  -28.2220  -26.4830   19.6580 O   0  0  0  0  0  0  0  0  0  0  0  0
  -24.6810  -31.9160   23.1380 C   0  0  0  0  0  0  0  0  0  0  0  0
  -27.1650  -27.4450   19.7430 C   0  0  0  0  0  0  0  0  0  0  0  0
  -23.4260  -30.6200   21.4580 C   0  0  0  0  0  3  0  0  0  0  0  0
  -24.8270  -29.1420   19.8950 C   0  0  0  0  0  0  0  0  0  0  0  0
  -25.9690  -30.9160   21.2200 C   0  0  0  0  0  2  0  0  0  0  0  0
  -26.0250  -29.5680   20.4870 C   0  0  0  0  0  0  0  0  0  0  0  0
  -27.1990  -28.7360   20.3930 C   0  0  0  0  0  3  0  0  0  0  0  0
  -25.9440  -27.1090   19.1220 C   0  0  0  0  0  3  0  0  0  0  0  0
  -24.7960  -27.9230   19.1990 C   0  0  0  0  0  3  0  0  0  0  0  0
  -23.6000  -30.0270   20.0350 C   0  0  0  0  0  2  0  0  0  0  0  0
  -24.7140  -31.1670   21.9950 N   0  0  0  0  0  0  0  0  0  0  0  0
  -23.6140  -32.1640   23.7200 O   0  0  0  0  0  0  0  0  0  0  0  0
  -22.7830  -29.5530   22.3780 C   0  0  0  0  0  0  0  0  0  0  0  0
  -21.4550  -29.3730   22.2710 N   0  0  0  0  0  0  0  0  0  0  0  0
  -23.4810  -28.8900   23.1510 O   0  0  0  0  0  0  0  0  0  0  0  0
  -20.9480  -29.9610   21.6240 H   0  0  0  0  0  0  0  0  0  0  0  0
  -18.0940  -28.1280   22.7990 C   0  0  0  0  0  0  0  0  0  0  0  0
  -20.6590  -28.3880   23.0080 C   0  0  0  0  0  3  0  0  0  0  0  0
  -20.7490  -26.9920   22.3470 C   0  0  0  0  0  2  0  0  0  0  0  0
  -19.6190  -26.7240   21.3470 C   0  0  0  0  0  2  0  0  0  0  0  0
  -18.2560  -26.8230   22.0380 C   0  0  0  0  0  2  0  0  0  0  0  0
  -19.2220  -28.8710   23.2400 C   0  0  0  0  0  0  0  0  0  0  0  0
  -19.0140  -30.0940   23.9150 C   0  0  0  0  0  3  0  0  0  0  0  0
  -17.7130  -30.5750   24.1490 C   0  0  0  0  0  3  0  0  0  0  0  0
  -16.6000  -29.8290   23.7230 C   0  0  0  0  0  3  0  0  0  0  0  0
  -16.7920  -28.6080   23.0520 C   0  0  0  0  0  3  0  0  0  0  0  0
  -25.9810  -32.5140   23.7590 C   0  0  0  0  0  3  0  0  0  0  0  0
  -25.6760  -33.8830   24.2020 N   0  0  0  0  0  0  0  0  0  0  0  0
  -26.0000  -34.9950   23.5270 C   0  0  0  0  0  0  0  0  0  0  0  0
  -26.6540  -34.9730   22.4820 O   0  0  0  0  0  0  0  0  0  0  0  0
  -25.0930  -33.9730   25.0210 H   0  0  0  0  0  0  0  0  0  0  0  0
  -24.2820  -36.8230   23.3350 C   0  0  0  0  0  1  0  0  0  0  0  0
  -25.5240  -36.3430   24.1030 C   0  0  0  0  0  3  0  0  0  0  0  0
  -27.6650  -37.1470   25.0000 C   0  0  0  0  0  1  0  0  0  0  0  0
  -26.5640  -37.3960   24.0730 N   0  0  0  0  0  0  0  0  0  0  0  0
  -26.1630  -38.3040   24.2930 H   0  0  0  0  0  0  0  0  0  0  0  0
  -26.5430  -31.6590   24.9610 C   0  0  1  0  0  0  0  0  0  0  0  0
  -25.4920  -31.3500   26.0530 C   0  0  0  0  0  1  0  0  0  0  0  0
  -27.1080  -30.3110   24.4590 C   0  0  0  0  0  1  0  0  0  0  0  0
  -27.7200  -32.4070   25.6290 C   0  0  0  0  0  1  0  0  0  0  0  0
  1  2  2  0
  2  9  1  0
  3  5  1  0
  4  6  1  0
  4  7  1  0
  6  8  1  0
  7 14  1  6
  7  3  1  0
  7  1  1  0
  8 54  1  6
  8  5  1  0
  8  2  1  0
 11  9  1  0
 11 10  1  0
 12 11  1  0
 13 11  1  0
 14 15  2  0
 16 24  1  0
 17 22  1  0
 18 19  1  0
 18 17  1  0
 20 19  1  0
 20 29  1  0
 20 21  1  0
 22 16  1  0
 22 21  1  0
 23 16  2  0
 24 25  1  0
 24 15  1  0
 26 27  2  0
 27 46  1  0
 28 27  1  0
 28 31  1  0
 29 26  1  0
 29 30  1  0
 30 28  2  0
 31 32  1  0
 32 33  2  0
 34 37  1  0
 34 33  1  0
 35 34  2  0
 36 35  1  0
 36 31  2  0
 37 38  1  0
 38 39  1  0
 39 40  2  0
 41 40  1  0
 41 45  1  0
 42 41  2  0
 43 38  2  0
 43 42  1  0
 44 43  1  0
 46 47  1  0
 47 50  1  0
 47 49  1  0
 48 46  2  0
 51 52  1  0
 51 26  1  0
 53 51  1  0
 55 57  1  0
 55 54  1  0
 56 67  2  0
 57 62  1  0
 58 66  1  0
 58 68  1  0
 59 65  1  0
 59 61  1  0
 60 66  1  0
 61 60  1  0
 62 61  2  0
 63 64  1  0
 63 57  2  0
 64 59  2  0
 65 58  1  0
 66 56  1  0
 68 70  2  0
 69 68  1  0
 71 69  1  0
 72 81  2  0
 72 77  1  0
 73 69  1  0
 73 77  1  0
 74 73  1  0
 75 76  1  0
 75 74  1  0
 76 72  1  0
 77 78  2  0
 78 79  1  0
 80 79  2  0
 81 80  1  0
 82 56  1  0
 82 83  1  0
 82 92  1  0
 83 86  1  0
 84 88  1  0
 84 83  1  0
 85 84  2  0
 88 87  1  0
 90 88  1  0
 90 91  1  0
 90 89  1  0
 92 95  1  1
 92 93  1  0
 94 92  1  0
M  ISO  4  16 100  24 100  54 101  55 101
M  END
>  <TORSDO>  (29) 
F 21

>  <SCORE>  (29) 
-13.504

>  <name>  (29) 
28

>  <ligand_id>  (29) 
28

>  <original_smiles>  (29) 
[H]C1=C(C([H])([H])[N+]([H])([H])C([H])([H])[H])C2(C([H])([H])Oc3c([H])c([H])c4c(c3[H])C([H])([H])N(C(=O)C([H])(N([H])C(=O)C([H])(N([H])C([H])([H])[H])C([H])([H])[H])C(C([H])([H])[H])(C([H])([H])[H])C([H])([H])[H])C([H])(C(=O)N([H])C3([H])c5c([H])c([H])c([H])c([H])c5C([H])([H])C([H])([H])C3([H])[H])C4([H])[H])C([H])([H])C([H])([H])C1(C([H])([H])C([H])([H])N([H])C(=O)N1C([H])([H])C([H])([H])C([H])([H])C([H])(n3nc(-c4c([H])c([H])c(Oc5c([H])c([H])c(F)c([H])c5F)c([H])c4[H])c(C(=O)N([H])[H])c3N([H])[H])C1([H])[H])C([H])([H])C2([H])[H]

>  <smiles>  (29) 
[H]C1=C(C([H])([H])[N+]([H])([H])C([H])([H])[H])C2(C([H])([H])Oc3c([H])c([H])c4c(c3[H])C([H])([H])N(C(=O)C([H])(N([H])C(=O)C([H])(N([H])C([H])([H])[H])C([H])([H])[H])C(C([H])([H])[H])(C([H])([H])[H])C([H])([H])[H])C([H])(C(=O)N([H])C3([H])c5c([H])c([H])c([H])c([H])c5C([H])([H])C([H])([H])C3([H])[H])C4([H])[H])C([H])([H])C([H])([H])C1(C([H])([H])C([H])([H])N([H])C(=O)N1C([H])([H])C([H])([H])C([H])([H])C([H])(n3nc(-c4c([H])c([H])c(Oc5c([H])c([H])c(F)c([H])c5F)c([H])c4[H])c(C(=O)N([H])[H])c3N([H])[H])C1([H])[H])C([H])([H])C2([H])[H]

$$$$
29:0:0
     RDKit          3D

 92101  0  0  1  0  0  0  0  0999 V2000
  -28.9500  -22.9970   20.0560 C   0  0  0  0  0  0  0  0  0  0  0  0
  -28.4260  -21.4830   19.8790 C   0  0  0  0  0  2  0  0  0  0  0  0
  -30.6660  -21.4490   20.3950 C   0  0  0  0  0  2  0  0  0  0  0  0
  -29.6790  -20.4390   19.7010 C   0  0  0  0  0  3  0  0  0  0  0  0
  -30.2080  -22.8880   20.2760 N   0  0  0  0  0  2  0  0  0  0  0  0
  -29.0500  -18.6590   21.4290 C   0  0  0  0  0  2  0  0  0  0  0  0
  -29.6870  -17.9360   22.4550 C   0  0  0  0  0  3  0  0  0  0  0  0
  -31.5500  -17.4560   20.9510 C   0  0  0  0  0  2  0  0  0  0  0  0
  -29.7120  -18.8310   20.1930 C   0  0  0  0  0  3  0  0  0  0  0  0
  -30.6660  -17.6870   19.8740 C   0  0  0  0  0  3  0  0  0  0  0  0
  -30.9900  -17.4410   22.2460 C   0  0  0  0  0  0  0  0  0  0  0  0
  -31.6740  -16.8750   23.2690 F   0  0  0  0  0  0  0  0  0  0  0  0
  -31.0440  -14.9990   19.4150 C   0  0  0  0  0  0  0  0  0  0  0  0
  -30.7460  -12.6170   18.5580 C   0  0  0  0  0  2  0  0  0  0  0  0
  -29.7070  -12.5520   17.4130 C   0  0  0  0  0  2  0  0  0  0  0  0
  -28.2870  -12.4050   17.9900 C   0  0  0  0  0  2  0  0  0  0  0  0
  -28.0120  -13.4050   19.1410 C   0  0  0  0  0  3  0  0  0  0  0  0
  -29.1600  -13.4380   20.1690 C   0  0  0  0  0  2  0  0  0  0  0  0
  -30.3770  -13.7730   19.4210 N   0  0  0  0  0  0  0  0  0  0  0  0
  -32.2470  -14.9680   19.1360 O   0  0  0  0  0  0  0  0  0  0  0  0
  -30.3220  -16.2460   19.4280 N   0  0  0  0  0  0  0  0  0  0  0  0
  -29.3340  -16.1090   19.2770 H   0  0  0  0  0  0  0  0  0  0  0  0
  -25.7580  -14.1310   20.1090 C   0  0  0  0  0  0  0  0  0  0  0  0
  -24.6790  -13.4240   20.5620 C   0  0  0  0  0  0  0  0  0  0  0  0
  -25.0480  -12.0460   20.4810 C   0  0  0  0  0  0  0  0  0  0  0  0
  -26.7130  -13.1870   19.7640 N   0  0  0  0  0  0  0  0  0  0  0  0
  -26.3030  -11.9270   20.0590 N   0  0  0  0  0  0  0  0  0  0  0  0
  -24.2550  -10.8330   20.7230 C   0  0  0  0  0  0  0  0  0  0  0  0
  -24.6640   -9.8570   21.6570 C   0  0  0  0  0  3  0  0  0  0  0  0
  -23.8770   -8.7090   21.8870 C   0  0  0  0  0  3  0  0  0  0  0  0
  -22.6650   -8.5290   21.1800 C   0  0  0  0  0  0  0  0  0  0  0  0
  -22.2710   -9.4920   20.2330 C   0  0  0  0  0  3  0  0  0  0  0  0
  -23.0590  -10.6320   20.0030 C   0  0  0  0  0  3  0  0  0  0  0  0
  -21.8470   -7.4320   21.3160 O   0  0  0  0  0  0  0  0  0  0  0  0
  -21.7530   -6.7490   22.5010 C   0  0  0  0  0  0  0  0  0  0  0  0
  -21.3800   -7.3880   23.7040 C   0  0  0  0  0  3  0  0  0  0  0  0
  -21.2290   -6.6340   24.8850 C   0  0  0  0  0  3  0  0  0  0  0  0
  -21.4420   -5.2420   24.8660 C   0  0  0  0  0  0  0  0  0  0  0  0
  -21.8080   -4.6030   23.6670 C   0  0  0  0  0  3  0  0  0  0  0  0
  -21.9610   -5.3550   22.4890 C   0  0  0  0  0  0  0  0  0  0  0  0
  -22.2960   -4.7300   21.3350 F   0  0  0  0  0  0  0  0  0  0  0  0
  -21.2880   -4.5160   25.9990 F   0  0  0  0  0  0  0  0  0  0  0  0
  -23.3460  -13.9920   20.9570 C   0  0  0  0  0  0  0  0  0  0  0  0
  -22.6640  -13.3590   21.9030 N   0  0  0  0  0  0  0  0  0  0  0  0
  -22.9260  -15.0330   20.4560 O   0  0  0  0  0  0  0  0  0  0  0  0
  -23.0210  -12.5150   22.3280 H   0  0  0  0  0  0  0  0  0  0  0  0
  -21.7730  -13.7260   22.2060 H   0  0  0  0  0  0  0  0  0  0  0  0
  -25.9950  -15.4920   19.9400 N   0  0  0  0  0  0  0  0  0  0  0  0
  -25.2860  -16.1820   20.1580 H   0  0  0  0  0  0  0  0  0  0  0  0
  -26.8460  -15.9030   19.5790 H   0  0  0  0  0  0  0  0  0  0  0  0
  -27.9660  -24.3870   19.9550 C   0  0  0  0  0  3  0  0  0  0  0  0
  -28.2990  -25.9170   20.1820 O   0  0  0  0  0  0  0  0  0  0  0  0
  -24.5600  -31.6870   23.0150 C   0  0  0  0  0  0  0  0  0  0  0  0
  -27.2590  -26.9350   20.0780 C   0  0  0  0  0  0  0  0  0  0  0  0
  -23.4080  -30.2260   21.4040 C   0  0  0  0  0  3  0  0  0  0  0  0
  -24.9020  -28.6650   20.0070 C   0  0  0  0  0  0  0  0  0  0  0  0
  -25.9620  -30.5380   21.2520 C   0  0  0  0  0  2  0  0  0  0  0  0
  -26.0700  -29.1350   20.6200 C   0  0  0  0  0  0  0  0  0  0  0  0
  -27.2470  -28.2830   20.6390 C   0  0  0  0  0  3  0  0  0  0  0  0
  -26.0630  -26.5930   19.4060 C   0  0  0  0  0  3  0  0  0  0  0  0
  -24.9140  -27.4100   19.3820 C   0  0  0  0  0  3  0  0  0  0  0  0
  -23.6560  -29.5390   20.0350 C   0  0  0  0  0  2  0  0  0  0  0  0
  -24.6620  -30.8430   21.9430 N   0  0  0  0  0  0  0  0  0  0  0  0
  -23.4620  -31.9530   23.5310 O   0  0  0  0  0  0  0  0  0  0  0  0
  -22.7540  -29.2170   22.3810 C   0  0  0  0  0  0  0  0  0  0  0  0
  -21.4310  -29.0060   22.2560 N   0  0  0  0  0  0  0  0  0  0  0  0
  -23.4410  -28.6290   23.2200 O   0  0  0  0  0  0  0  0  0  0  0  0
  -20.9310  -29.5360   21.5550 H   0  0  0  0  0  0  0  0  0  0  0  0
  -18.0920  -27.6840   22.7590 C   0  0  0  0  0  0  0  0  0  0  0  0
  -20.6360  -28.0600   23.0460 C   0  0  0  0  0  3  0  0  0  0  0  0
  -20.8010  -26.6150   22.5190 C   0  0  0  0  0  2  0  0  0  0  0  0
  -19.7260  -26.2170   21.5020 C   0  0  0  0  0  2  0  0  0  0  0  0
  -18.3320  -26.3250   22.1240 C   0  0  0  0  0  2  0  0  0  0  0  0
  -19.1740  -28.5060   23.1780 C   0  0  0  0  0  0  0  0  0  0  0  0
  -18.8930  -29.7740   23.7310 C   0  0  0  0  0  3  0  0  0  0  0  0
  -17.5650  -30.2210   23.8700 C   0  0  0  0  0  3  0  0  0  0  0  0
  -16.4990  -29.4000   23.4640 C   0  0  0  0  0  3  0  0  0  0  0  0
  -16.7640  -28.1320   22.9160 C   0  0  0  0  0  3  0  0  0  0  0  0
  -25.8160  -32.3740   23.6340 C   0  0  0  0  0  3  0  0  0  0  0  0
  -25.4420  -33.7480   24.0060 N   0  0  0  0  0  0  0  0  0  0  0  0
  -25.7460  -34.8420   23.2940 C   0  0  0  0  0  0  0  0  0  0  0  0
  -26.4430  -34.8030   22.2750 O   0  0  0  0  0  0  0  0  0  0  0  0
  -24.8380  -33.8510   24.8080 H   0  0  0  0  0  0  0  0  0  0  0  0
  -23.9680  -36.5880   22.9580 C   0  0  0  0  0  1  0  0  0  0  0  0
  -25.1980  -36.1940   23.7910 C   0  0  0  0  0  3  0  0  0  0  0  0
  -27.2760  -37.1140   24.7220 C   0  0  0  0  0  1  0  0  0  0  0  0
  -26.1970  -37.2860   23.7520 N   0  0  0  0  0  0  0  0  0  0  0  0
  -25.7550  -38.1850   23.9270 H   0  0  0  0  0  0  0  0  0  0  0  0
  -26.3880  -31.6060   24.8880 C   0  0  1  0  0  0  0  0  0  0  0  0
  -25.3240  -31.2960   25.9700 C   0  0  0  0  0  1  0  0  0  0  0  0
  -27.0340  -30.2670   24.4690 C   0  0  0  0  0  1  0  0  0  0  0  0
  -27.5090  -32.4450   25.5450 C   0  0  0  0  0  1  0  0  0  0  0  0
  1  5  1  0
  2  1  1  0
  4  2  1  0
  4  9  1  0
  4  3  1  0
  5  3  1  0
  6  7  1  0
  8 11  1  0
  9  6  1  0
 10 21  1  0
 10  9  1  0
 10  8  1  0
 11  7  2  0
 11 12  1  0
 13 19  1  0
 13 21  1  0
 14 19  1  0
 15 16  1  0
 15 14  1  0
 17 16  1  0
 17 26  1  0
 17 18  1  0
 19 18  1  0
 20 13  2  0
 22 21  1  0
 23 24  2  0
 24 43  1  0
 25 24  1  0
 25 28  1  0
 26 27  1  0
 26 23  1  0
 27 25  2  0
 28 29  1  0
 29 30  2  0
 31 34  1  0
 31 30  1  0
 32 31  2  0
 33 32  1  0
 33 28  2  0
 34 35  1  0
 35 36  1  0
 36 37  2  0
 38 37  1  0
 38 42  1  0
 39 38  2  0
 40 35  2  0
 40 39  1  0
 41 40  1  0
 43 44  1  0
 44 47  1  0
 44 46  1  0
 45 43  2  0
 48 23  1  0
 48 49  1  0
 50 48  1  0
 51  1  2  0
 51 52  1  0
 53 64  2  0
 54 52  1  0
 54 59  1  0
 55 63  1  0
 55 65  1  0
 56 62  1  0
 56 58  1  0
 57 63  1  0
 58 59  2  0
 58 57  1  0
 60 54  2  0
 61 60  1  0
 61 56  2  0
 62 55  1  0
 63 53  1  0
 65 67  2  0
 66 65  1  0
 68 66  1  0
 69 78  2  0
 69 74  1  0
 70 66  1  0
 70 74  1  0
 71 70  1  0
 72 73  1  0
 72 71  1  0
 73 69  1  0
 74 75  2  0
 75 76  1  0
 77 76  2  0
 78 77  1  0
 79 53  1  0
 79 80  1  0
 79 89  1  0
 80 83  1  0
 81 85  1  0
 81 80  1  0
 82 81  2  0
 85 84  1  0
 87 85  1  0
 87 88  1  0
 87 86  1  0
 89 92  1  1
 89 90  1  0
 91 89  1  0
M  ISO  4  13 100  21 100  51 101  52 101
M  END
>  <TORSDO>  (30) 
F 18

>  <SCORE>  (30) 
-11.587

>  <name>  (30) 
29

>  <ligand_id>  (30) 
29

>  <original_smiles>  (30) 
[H]c1c([H])c([H])c2c(c1[H])C([H])([H])C([H])([H])C([H])([H])C2([H])N([H])C(=O)C1([H])N(C(=O)C([H])(N([H])C(=O)C([H])(N([H])C([H])([H])[H])C([H])([H])[H])C(C([H])([H])[H])(C([H])([H])[H])C([H])([H])[H])C([H])([H])c2c([H])c(OC([H])([H])C3=NC([H])([H])C([H])(c4c([H])c([H])c(F)c([H])c4N([H])C(=O)N4C([H])([H])C([H])([H])C([H])([H])C([H])(n5nc(-c6c([H])c([H])c(Oc7c([H])c([H])c(F)c([H])c7F)c([H])c6[H])c(C(=O)N([H])[H])c5N([H])[H])C4([H])[H])C3([H])[H])c([H])c([H])c2C1([H])[H]

>  <smiles>  (30) 
[H]c1c([H])c([H])c2c(c1[H])C([H])([H])C([H])([H])C([H])([H])C2([H])N([H])C(=O)C1([H])N(C(=O)C([H])(N([H])C(=O)C([H])(N([H])C([H])([H])[H])C([H])([H])[H])C(C([H])([H])[H])(C([H])([H])[H])C([H])([H])[H])C([H])([H])c2c([H])c(OC([H])([H])C3=NC([H])([H])C([H])(c4c([H])c([H])c(F)c([H])c4N([H])C(=O)N4C([H])([H])C([H])([H])C([H])([H])C([H])(n5nc(-c6c([H])c([H])c(Oc7c([H])c([H])c(F)c([H])c7F)c([H])c6[H])c(C(=O)N([H])[H])c5N([H])[H])C4([H])[H])C3([H])[H])c([H])c([H])c2C1([H])[H]

$$$$
30:0:0
     RDKit          3D

 91100  0  0  1  0  0  0  0  0999 V2000
  -29.0900  -21.5260   21.5810 C   0  0  0  0  0  3  0  0  0  0  0  0
  -28.9940  -21.9460   19.2150 C   0  0  0  0  0  3  0  0  0  0  0  0
  -28.7780  -22.8980   21.8150 C   0  0  0  0  0  3  0  0  0  0  0  0
  -28.6780  -23.3210   19.4520 C   0  0  0  0  0  3  0  0  0  0  0  0
  -29.2060  -21.0040   20.2680 C   0  0  0  0  0  0  0  0  0  0  0  0
  -28.5620  -23.8390   20.7660 C   0  0  0  0  0  0  0  0  0  0  0  0
  -29.7770  -18.4960   20.8220 C   0  0  0  0  0  3  0  0  0  0  0  0
  -29.5710  -19.5430   19.9740 C   0  0  0  0  0  0  0  0  0  0  0  0
  -29.8970  -19.0700   18.5700 C   0  0  0  0  0  2  0  0  0  0  0  0
  -30.2380  -17.5610   18.6740 C   0  0  0  0  0  2  0  0  0  0  0  0
  -30.4070  -17.2350   20.1720 C   0  0  0  0  0  3  0  0  0  0  0  0
  -30.6750  -14.6940   20.2800 C   0  0  0  0  0  0  0  0  0  0  0  0
  -30.3990  -12.4630   19.2340 C   0  0  0  0  0  2  0  0  0  0  0  0
  -29.4490  -12.5960   18.0260 C   0  0  0  0  0  2  0  0  0  0  0  0
  -27.9840  -12.4340   18.4770 C   0  0  0  0  0  2  0  0  0  0  0  0
  -27.6390  -13.2990   19.7200 C   0  0  0  0  0  3  0  0  0  0  0  0
  -28.7140  -13.1760   20.8240 C   0  0  0  0  0  2  0  0  0  0  0  0
  -30.0110  -13.4970   20.2170 N   0  0  0  0  0  0  0  0  0  0  0  0
  -31.8480  -14.7810   19.9100 O   0  0  0  0  0  0  0  0  0  0  0  0
  -29.9480  -15.8370   20.5210 N   0  0  0  0  0  0  0  0  0  0  0  0
  -28.9840  -15.7170   20.7910 H   0  0  0  0  0  0  0  0  0  0  0  0
  -25.2550  -13.8800   20.4750 C   0  0  0  0  0  0  0  0  0  0  0  0
  -24.1980  -13.1000   20.8550 C   0  0  0  0  0  0  0  0  0  0  0  0
  -24.6670  -11.7510   20.8170 C   0  0  0  0  0  0  0  0  0  0  0  0
  -26.3010  -13.0070   20.2240 N   0  0  0  0  0  0  0  0  0  0  0  0
  -25.9550  -11.7210   20.4940 N   0  0  0  0  0  0  0  0  0  0  0  0
  -23.9510  -10.4840   21.0120 C   0  0  0  0  0  0  0  0  0  0  0  0
  -24.3920   -9.5190   21.9440 C   0  0  0  0  0  3  0  0  0  0  0  0
  -23.6740   -8.3190   22.1270 C   0  0  0  0  0  3  0  0  0  0  0  0
  -22.5000   -8.0720   21.3750 C   0  0  0  0  0  0  0  0  0  0  0  0
  -22.0780   -9.0240   20.4300 C   0  0  0  0  0  3  0  0  0  0  0  0
  -22.7980  -10.2170   20.2460 C   0  0  0  0  0  3  0  0  0  0  0  0
  -21.7530   -6.9230   21.4670 O   0  0  0  0  0  0  0  0  0  0  0  0
  -21.7030   -6.1860   22.6230 C   0  0  0  0  0  0  0  0  0  0  0  0
  -21.2530   -6.7430   23.8400 C   0  0  0  0  0  3  0  0  0  0  0  0
  -21.1510   -5.9330   24.9900 C   0  0  0  0  0  3  0  0  0  0  0  0
  -21.4900   -4.5680   24.9220 C   0  0  0  0  0  0  0  0  0  0  0  0
  -21.9320   -4.0120   23.7090 C   0  0  0  0  0  3  0  0  0  0  0  0
  -22.0360   -4.8180   22.5630 C   0  0  0  0  0  0  0  0  0  0  0  0
  -22.4430   -4.2730   21.3920 F   0  0  0  0  0  0  0  0  0  0  0  0
  -21.3860   -3.7870   26.0230 F   0  0  0  0  0  0  0  0  0  0  0  0
  -22.8010  -13.5690   21.1420 C   0  0  0  0  0  0  0  0  0  0  0  0
  -22.0830  -12.8620   22.0080 N   0  0  0  0  0  0  0  0  0  0  0  0
  -22.3530  -14.5960   20.6340 O   0  0  0  0  0  0  0  0  0  0  0  0
  -22.4580  -12.0300   22.4400 H   0  0  0  0  0  0  0  0  0  0  0  0
  -21.1470  -13.1560   22.2450 H   0  0  0  0  0  0  0  0  0  0  0  0
  -25.4090  -15.2520   20.2950 N   0  0  0  0  0  0  0  0  0  0  0  0
  -24.6390  -15.9020   20.4150 H   0  0  0  0  0  0  0  0  0  0  0  0
  -26.2450  -15.6950   19.9360 H   0  0  0  0  0  0  0  0  0  0  0  0
  -28.0580  -25.2890   21.1250 C   0  0  0  0  0  2  0  0  0  0  0  0
  -28.3240  -26.4770   20.2870 O   0  0  0  0  0  0  0  0  0  0  0  0
  -24.5980  -31.9080   23.2450 C   0  0  0  0  0  0  0  0  0  0  0  0
  -27.2470  -27.3670   20.2250 C   0  0  0  0  0  0  0  0  0  0  0  0
  -23.4120  -30.5000   21.5980 C   0  0  0  0  0  3  0  0  0  0  0  0
  -24.8810  -28.9560   20.1830 C   0  0  0  0  0  0  0  0  0  0  0  0
  -25.9470  -30.8360   21.4290 C   0  0  0  0  0  2  0  0  0  0  0  0
  -26.0410  -29.4570   20.7900 C   0  0  0  0  0  0  0  0  0  0  0  0
  -27.2320  -28.6720   20.8040 C   0  0  0  0  0  3  0  0  0  0  0  0
  -26.0730  -26.9190   19.5880 C   0  0  0  0  0  3  0  0  0  0  0  0
  -24.8980  -27.6940   19.5720 C   0  0  0  0  0  3  0  0  0  0  0  0
  -23.6380  -29.8220   20.2210 C   0  0  0  0  0  2  0  0  0  0  0  0
  -24.6710  -31.0980   22.1490 N   0  0  0  0  0  0  0  0  0  0  0  0
  -23.5100  -32.1790   23.7740 O   0  0  0  0  0  0  0  0  0  0  0  0
  -22.7470  -29.4820   22.5560 C   0  0  0  0  0  0  0  0  0  0  0  0
  -21.4210  -29.3040   22.4250 N   0  0  0  0  0  0  0  0  0  0  0  0
  -23.4240  -28.8570   23.3760 O   0  0  0  0  0  0  0  0  0  0  0  0
  -20.9360  -29.8590   21.7350 H   0  0  0  0  0  0  0  0  0  0  0  0
  -18.0400  -28.1140   22.9200 C   0  0  0  0  0  0  0  0  0  0  0  0
  -20.5990  -28.3670   23.1940 C   0  0  0  0  0  3  0  0  0  0  0  0
  -20.6980  -26.9360   22.6160 C   0  0  0  0  0  2  0  0  0  0  0  0
  -19.5970  -26.6190   21.6000 C   0  0  0  0  0  2  0  0  0  0  0  0
  -18.2140  -26.7660   22.2410 C   0  0  0  0  0  2  0  0  0  0  0  0
  -19.1610  -28.8730   23.3530 C   0  0  0  0  0  0  0  0  0  0  0  0
  -18.9460  -30.1340   23.9490 C   0  0  0  0  0  3  0  0  0  0  0  0
  -17.6420  -30.6390   24.1130 C   0  0  0  0  0  3  0  0  0  0  0  0
  -16.5360  -29.8770   23.6980 C   0  0  0  0  0  3  0  0  0  0  0  0
  -16.7360  -28.6170   23.1080 C   0  0  0  0  0  3  0  0  0  0  0  0
  -25.8730  -32.5470   23.8740 C   0  0  0  0  0  3  0  0  0  0  0  0
  -25.5590  -33.9470   24.1910 N   0  0  0  0  0  0  0  0  0  0  0  0
  -25.8990  -34.9950   23.4280 C   0  0  0  0  0  0  0  0  0  0  0  0
  -26.5800  -34.8830   22.4040 O   0  0  0  0  0  0  0  0  0  0  0  0
  -24.9580  -34.1070   24.9850 H   0  0  0  0  0  0  0  0  0  0  0  0
  -24.1820  -36.7870   23.0290 C   0  0  0  0  0  1  0  0  0  0  0  0
  -25.4060  -36.3860   23.8680 C   0  0  0  0  0  3  0  0  0  0  0  0
  -27.5250  -37.2680   24.7360 C   0  0  0  0  0  1  0  0  0  0  0  0
  -26.4420  -37.4370   23.7720 N   0  0  0  0  0  0  0  0  0  0  0  0
  -26.0340  -38.3590   23.9090 H   0  0  0  0  0  0  0  0  0  0  0  0
  -26.3800  -31.7860   25.1600 C   0  0  1  0  0  0  0  0  0  0  0  0
  -25.2780  -31.5530   26.2200 C   0  0  0  0  0  1  0  0  0  0  0  0
  -26.9690  -30.4070   24.7850 C   0  0  0  0  0  1  0  0  0  0  0  0
  -27.5250  -32.5860   25.8260 C   0  0  0  0  0  1  0  0  0  0  0  0
  1  3  1  0
  2  4  2  0
  2  5  1  0
  4  6  1  0
  5  1  2  0
  6 50  1  0
  6  3  2  0
  8  5  1  0
  8  7  2  0
  9 10  1  0
  9  8  1  0
 10 11  1  0
 11 20  1  0
 11  7  1  0
 12 20  1  0
 13 18  1  0
 14 15  1  0
 14 13  1  0
 16 15  1  0
 16 25  1  0
 16 17  1  0
 18 12  1  0
 18 17  1  0
 19 12  2  0
 20 21  1  0
 22 23  2  0
 23 42  1  0
 24 23  1  0
 24 27  1  0
 25 22  1  0
 25 26  1  0
 26 24  2  0
 27 28  1  0
 28 29  2  0
 30 33  1  0
 30 29  1  0
 31 30  2  0
 32 31  1  0
 32 27  2  0
 33 34  1  0
 34 35  1  0
 35 36  2  0
 37 36  1  0
 37 41  1  0
 38 37  2  0
 39 34  2  0
 39 38  1  0
 40 39  1  0
 42 43  1  0
 43 46  1  0
 43 45  1  0
 44 42  2  0
 47 48  1  0
 47 22  1  0
 49 47  1  0
 51 50  1  0
 52 63  2  0
 53 51  1  0
 53 58  1  0
 54 62  1  0
 54 64  1  0
 55 61  1  0
 55 57  1  0
 56 62  1  0
 57 58  2  0
 57 56  1  0
 59 53  2  0
 60 59  1  0
 60 55  2  0
 61 54  1  0
 62 52  1  0
 64 66  2  0
 65 64  1  0
 67 65  1  0
 68 77  2  0
 68 73  1  0
 69 65  1  0
 69 73  1  0
 70 69  1  0
 71 72  1  0
 71 70  1  0
 72 68  1  0
 73 74  2  0
 74 75  1  0
 76 75  2  0
 77 76  1  0
 78 52  1  0
 78 79  1  0
 78 88  1  0
 79 82  1  0
 80 84  1  0
 80 79  1  0
 81 80  2  0
 84 83  1  0
 86 84  1  0
 86 87  1  0
 86 85  1  0
 88 91  1  1
 88 89  1  0
 90 88  1  0
M  ISO  4  12 100  20 100  50 101  51 101
M  END
>  <TORSDO>  (31) 
F 18

>  <SCORE>  (31) 
-14.871

>  <name>  (31) 
30

>  <ligand_id>  (31) 
30

>  <original_smiles>  (31) 
[H]C1=C(c2c([H])c([H])c(C([H])([H])Oc3c([H])c([H])c4c(c3[H])C([H])([H])N(C(=O)C([H])(N([H])C(=O)C([H])(N([H])C([H])([H])[H])C([H])([H])[H])C(C([H])([H])[H])(C([H])([H])[H])C([H])([H])[H])C([H])(C(=O)N([H])C3([H])c5c([H])c([H])c([H])c([H])c5C([H])([H])C([H])([H])C3([H])[H])C4([H])[H])c([H])c2[H])C([H])([H])C([H])([H])C1([H])N([H])C(=O)N1C([H])([H])C([H])([H])C([H])([H])C([H])(n2nc(-c3c([H])c([H])c(Oc4c([H])c([H])c(F)c([H])c4F)c([H])c3[H])c(C(=O)N([H])[H])c2N([H])[H])C1([H])[H]

>  <smiles>  (31) 
[H]C1=C(c2c([H])c([H])c(C([H])([H])Oc3c([H])c([H])c4c(c3[H])C([H])([H])N(C(=O)C([H])(N([H])C(=O)C([H])(N([H])C([H])([H])[H])C([H])([H])[H])C(C([H])([H])[H])(C([H])([H])[H])C([H])([H])[H])C([H])(C(=O)N([H])C3([H])c5c([H])c([H])c([H])c([H])c5C([H])([H])C([H])([H])C3([H])[H])C4([H])[H])c([H])c2[H])C([H])([H])C([H])([H])C1([H])N([H])C(=O)N1C([H])([H])C([H])([H])C([H])([H])C([H])(n2nc(-c3c([H])c([H])c(Oc4c([H])c([H])c(F)c([H])c4F)c([H])c3[H])c(C(=O)N([H])[H])c2N([H])[H])C1([H])[H]

$$$$
31:0:0
     RDKit          3D

 90 98  0  0  1  0  0  0  0  0999 V2000
  -28.7720  -19.1630   20.8930 C   0  0  0  0  0  3  0  0  0  0  0  0
  -31.0460  -19.5030   20.2150 C   0  0  0  0  0  3  0  0  0  0  0  0
  -28.5210  -20.5740   20.7480 C   0  0  0  0  0  3  0  0  0  0  0  0
  -30.8010  -20.8990   20.0870 C   0  0  0  0  0  3  0  0  0  0  0  0
  -30.0570  -18.5890   20.6610 C   0  0  0  0  0  0  0  0  0  0  0  0
  -29.5490  -21.4920   20.3820 C   0  0  0  0  0  0  0  0  0  0  0  0
  -29.4710  -22.9300   20.3590 N   0  0  0  0  0  0  0  0  0  0  0  0
  -30.3610  -23.3950   20.1990 H   0  0  0  0  0  0  0  0  0  0  0  0
  -28.3020  -23.8430   20.1570 C   0  0  0  0  0  2  0  0  0  0  0  0
  -28.3450  -25.2450   20.9380 C   0  0  0  0  0  2  0  0  0  0  0  0
  -28.4270  -26.5550   20.2540 O   0  0  0  0  0  0  0  0  0  0  0  0
  -24.6080  -31.9110   23.2580 C   0  0  0  0  0  0  0  0  0  0  0  0
  -27.2950  -27.3750   20.2540 C   0  0  0  0  0  0  0  0  0  0  0  0
  -23.4340  -30.4960   21.6080 C   0  0  0  0  0  3  0  0  0  0  0  0
  -24.9140  -28.9480   20.2100 C   0  0  0  0  0  0  0  0  0  0  0  0
  -25.9710  -30.8410   21.4480 C   0  0  0  0  0  2  0  0  0  0  0  0
  -26.0710  -29.4600   20.8120 C   0  0  0  0  0  0  0  0  0  0  0  0
  -27.2680  -28.6860   20.8190 C   0  0  0  0  0  3  0  0  0  0  0  0
  -26.1190  -26.9020   19.6410 C   0  0  0  0  0  3  0  0  0  0  0  0
  -24.9390  -27.6740   19.6150 C   0  0  0  0  0  3  0  0  0  0  0  0
  -23.6700  -29.8120   20.2350 C   0  0  0  0  0  2  0  0  0  0  0  0
  -24.6900  -31.1000   22.1620 N   0  0  0  0  0  0  0  0  0  0  0  0
  -23.5180  -32.1790   23.7820 O   0  0  0  0  0  0  0  0  0  0  0  0
  -22.7700  -29.4780   22.5660 C   0  0  0  0  0  0  0  0  0  0  0  0
  -21.4470  -29.2930   22.4270 N   0  0  0  0  0  0  0  0  0  0  0  0
  -23.4450  -28.8570   23.3920 O   0  0  0  0  0  0  0  0  0  0  0  0
  -20.9620  -29.8450   21.7340 H   0  0  0  0  0  0  0  0  0  0  0  0
  -18.0690  -28.0950   22.9120 C   0  0  0  0  0  0  0  0  0  0  0  0
  -20.6260  -28.3530   23.1920 C   0  0  0  0  0  3  0  0  0  0  0  0
  -20.7300  -26.9240   22.6110 C   0  0  0  0  0  2  0  0  0  0  0  0
  -19.6320  -26.6050   21.5930 C   0  0  0  0  0  2  0  0  0  0  0  0
  -18.2470  -26.7480   22.2320 C   0  0  0  0  0  2  0  0  0  0  0  0
  -19.1860  -28.8560   23.3490 C   0  0  0  0  0  0  0  0  0  0  0  0
  -18.9640  -30.1160   23.9440 C   0  0  0  0  0  3  0  0  0  0  0  0
  -17.6580  -30.6170   24.1070 C   0  0  0  0  0  3  0  0  0  0  0  0
  -16.5560  -29.8530   23.6870 C   0  0  0  0  0  3  0  0  0  0  0  0
  -16.7610  -28.5950   23.0940 C   0  0  0  0  0  3  0  0  0  0  0  0
  -25.8790  -32.5550   23.8940 C   0  0  0  0  0  3  0  0  0  0  0  0
  -26.3740  -31.8050   25.1910 C   0  0  1  0  0  0  0  0  0  0  0  0
  -25.2630  -31.5800   26.2420 C   0  0  0  0  0  1  0  0  0  0  0  0
  -26.9680  -30.4220   24.8290 C   0  0  0  0  0  1  0  0  0  0  0  0
  -27.5100  -32.6110   25.8620 C   0  0  0  0  0  1  0  0  0  0  0  0
  -25.5620  -33.9570   24.1980 N   0  0  0  0  0  0  0  0  0  0  0  0
  -25.9050  -35.0000   23.4300 C   0  0  0  0  0  0  0  0  0  0  0  0
  -26.5910  -34.8830   22.4110 O   0  0  0  0  0  0  0  0  0  0  0  0
  -24.9540  -34.1220   24.9870 H   0  0  0  0  0  0  0  0  0  0  0  0
  -24.1840  -36.7880   23.0170 C   0  0  0  0  0  1  0  0  0  0  0  0
  -25.4080  -36.3940   23.8590 C   0  0  0  0  0  3  0  0  0  0  0  0
  -27.5230  -37.2930   24.7250 C   0  0  0  0  0  1  0  0  0  0  0  0
  -26.4430  -37.4460   23.7540 N   0  0  0  0  0  0  0  0  0  0  0  0
  -26.0330  -38.3680   23.8770 H   0  0  0  0  0  0  0  0  0  0  0  0
  -30.5180  -17.1410   21.1060 C   0  0  0  0  0  2  0  0  0  0  0  0
  -30.6260  -14.7130   20.2850 C   0  0  0  0  0  0  0  0  0  0  0  0
  -30.3500  -12.5020   19.1750 C   0  0  0  0  0  2  0  0  0  0  0  0
  -29.3870  -12.6380   17.9780 C   0  0  0  0  0  2  0  0  0  0  0  0
  -27.9240  -12.4720   18.4360 C   0  0  0  0  0  2  0  0  0  0  0  0
  -27.5890  -13.3230   19.6910 C   0  0  0  0  0  3  0  0  0  0  0  0
  -28.6700  -13.1770   20.7830 C   0  0  0  0  0  2  0  0  0  0  0  0
  -29.9580  -13.5210   20.1700 N   0  0  0  0  0  0  0  0  0  0  0  0
  -31.8020  -14.8070   19.9250 O   0  0  0  0  0  0  0  0  0  0  0  0
  -29.9190  -15.8330   20.6560 N   0  0  0  0  0  0  0  0  0  0  0  0
  -28.9360  -15.7020   20.8390 H   0  0  0  0  0  0  0  0  0  0  0  0
  -25.2080  -13.9030   20.4540 C   0  0  0  0  0  0  0  0  0  0  0  0
  -24.1520  -13.1230   20.8390 C   0  0  0  0  0  0  0  0  0  0  0  0
  -24.6220  -11.7750   20.8000 C   0  0  0  0  0  0  0  0  0  0  0  0
  -26.2540  -13.0300   20.2020 N   0  0  0  0  0  0  0  0  0  0  0  0
  -25.9080  -11.7440   20.4720 N   0  0  0  0  0  0  0  0  0  0  0  0
  -23.9050  -10.5080   20.9970 C   0  0  0  0  0  0  0  0  0  0  0  0
  -24.3500   -9.5440   21.9290 C   0  0  0  0  0  3  0  0  0  0  0  0
  -23.6320   -8.3430   22.1140 C   0  0  0  0  0  3  0  0  0  0  0  0
  -22.4550   -8.0970   21.3670 C   0  0  0  0  0  0  0  0  0  0  0  0
  -22.0300   -9.0490   20.4250 C   0  0  0  0  0  3  0  0  0  0  0  0
  -22.7490  -10.2420   20.2380 C   0  0  0  0  0  3  0  0  0  0  0  0
  -21.7080   -6.9470   21.4630 O   0  0  0  0  0  0  0  0  0  0  0  0
  -21.6650   -6.2100   22.6190 C   0  0  0  0  0  0  0  0  0  0  0  0
  -21.2200   -6.7630   23.8390 C   0  0  0  0  0  3  0  0  0  0  0  0
  -21.1270   -5.9510   24.9870 C   0  0  0  0  0  3  0  0  0  0  0  0
  -21.4680   -4.5870   24.9150 C   0  0  0  0  0  0  0  0  0  0  0  0
  -21.9060   -4.0330   23.7000 C   0  0  0  0  0  3  0  0  0  0  0  0
  -22.0010   -4.8430   22.5540 C   0  0  0  0  0  0  0  0  0  0  0  0
  -22.4040   -4.2990   21.3800 F   0  0  0  0  0  0  0  0  0  0  0  0
  -21.3700   -3.8050   26.0160 F   0  0  0  0  0  0  0  0  0  0  0  0
  -22.7560  -13.5930   21.1310 C   0  0  0  0  0  0  0  0  0  0  0  0
  -22.0430  -12.8890   22.0040 N   0  0  0  0  0  0  0  0  0  0  0  0
  -22.3080  -14.6180   20.6210 O   0  0  0  0  0  0  0  0  0  0  0  0
  -22.4210  -12.0600   22.4380 H   0  0  0  0  0  0  0  0  0  0  0  0
  -21.1080  -13.1850   22.2430 H   0  0  0  0  0  0  0  0  0  0  0  0
  -25.3620  -15.2750   20.2740 N   0  0  0  0  0  0  0  0  0  0  0  0
  -24.5890  -15.9220   20.3890 H   0  0  0  0  0  0  0  0  0  0  0  0
  -26.1930  -15.7160   19.9020 H   0  0  0  0  0  0  0  0  0  0  0  0
  2  5  1  0
  3  1  1  0
  4  2  2  0
  4  6  1  0
  5  1  2  0
  5 52  1  0
  6  3  2  0
  7  6  1  0
  8  7  1  0
  9  7  1  0
  9 10  1  0
 11 13  1  0
 11 10  1  0
 12 23  2  0
 13 18  1  0
 14 22  1  0
 14 24  1  0
 15 21  1  0
 15 17  1  0
 16 22  1  0
 17 18  2  0
 17 16  1  0
 19 13  2  0
 20 19  1  0
 20 15  2  0
 21 14  1  0
 22 12  1  0
 24 26  2  0
 25 24  1  0
 27 25  1  0
 28 37  2  0
 28 33  1  0
 29 25  1  0
 29 33  1  0
 30 29  1  0
 31 32  1  0
 31 30  1  0
 32 28  1  0
 33 34  2  0
 34 35  1  0
 36 35  2  0
 37 36  1  0
 38 12  1  0
 38 43  1  0
 38 39  1  0
 39 42  1  1
 39 40  1  0
 41 39  1  0
 43 46  1  0
 44 48  1  0
 44 43  1  0
 45 44  2  0
 48 47  1  0
 50 48  1  0
 50 51  1  0
 50 49  1  0
 53 61  1  0
 54 59  1  0
 55 56  1  0
 55 54  1  0
 57 56  1  0
 57 66  1  0
 57 58  1  0
 59 53  1  0
 59 58  1  0
 60 53  2  0
 61 62  1  0
 61 52  1  0
 63 64  2  0
 64 83  1  0
 65 64  1  0
 65 68  1  0
 66 63  1  0
 66 67  1  0
 67 65  2  0
 68 69  1  0
 69 70  2  0
 71 74  1  0
 71 70  1  0
 72 71  2  0
 73 72  1  0
 73 68  2  0
 74 75  1  0
 75 76  1  0
 76 77  2  0
 78 77  1  0
 78 82  1  0
 79 78  2  0
 80 75  2  0
 80 79  1  0
 81 80  1  0
 83 84  1  0
 84 87  1  0
 84 86  1  0
 85 83  2  0
 88 89  1  0
 88 63  1  0
 90 88  1  0
M  ISO  4  10 101  11 101  53 100  61 100
M  END
>  <TORSDO>  (32) 
F 20

>  <SCORE>  (32) 
-13.714

>  <name>  (32) 
31

>  <ligand_id>  (32) 
31

>  <original_smiles>  (32) 
[H]c1c([H])c([H])c2c(c1[H])C([H])([H])C([H])([H])C([H])([H])C2([H])N([H])C(=O)C1([H])N(C(=O)C([H])(N([H])C(=O)C([H])(N([H])C([H])([H])[H])C([H])([H])[H])C(C([H])([H])[H])(C([H])([H])[H])C([H])([H])[H])C([H])([H])c2c([H])c(OC([H])([H])C([H])([H])N([H])c3c([H])c([H])c(C([H])([H])N([H])C(=O)N4C([H])([H])C([H])([H])C([H])([H])C([H])(n5nc(-c6c([H])c([H])c(Oc7c([H])c([H])c(F)c([H])c7F)c([H])c6[H])c(C(=O)N([H])[H])c5N([H])[H])C4([H])[H])c([H])c3[H])c([H])c([H])c2C1([H])[H]

>  <smiles>  (32) 
[H]c1c([H])c([H])c2c(c1[H])C([H])([H])C([H])([H])C([H])([H])C2([H])N([H])C(=O)C1([H])N(C(=O)C([H])(N([H])C(=O)C([H])(N([H])C([H])([H])[H])C([H])([H])[H])C(C([H])([H])[H])(C([H])([H])[H])C([H])([H])[H])C([H])([H])c2c([H])c(OC([H])([H])C([H])([H])N([H])c3c([H])c([H])c(C([H])([H])N([H])C(=O)N4C([H])([H])C([H])([H])C([H])([H])C([H])(n5nc(-c6c([H])c([H])c(Oc7c([H])c([H])c(F)c([H])c7F)c([H])c6[H])c(C(=O)N([H])[H])c5N([H])[H])C4([H])[H])c([H])c3[H])c([H])c([H])c2C1([H])[H]

$$$$
32:0:0
     RDKit          3D

 87 95  0  0  1  0  0  0  0  0999 V2000
  -28.2560  -23.5610   20.1760 C   0  0  0  0  0  3  0  0  0  0  0  0
  -28.5620  -22.5240   21.2210 C   0  0  0  0  0  0  0  0  0  0  0  0
  -28.5670  -22.4750   18.9900 C   0  0  0  0  0  0  0  0  0  0  0  0
  -28.8270  -20.7080   21.2230 C   0  0  0  0  0  2  0  0  0  0  0  0
  -28.6680  -20.7070   18.9870 C   0  0  0  0  0  2  0  0  0  0  0  0
  -29.4070  -19.5160   20.0450 C   0  0  0  0  0  3  0  0  0  0  0  0
  -28.6840  -22.8440   22.4260 O   0  0  0  0  0  0  0  0  0  0  0  0
  -28.7330  -22.9700   17.8740 O   0  0  0  0  0  0  0  0  0  0  0  0
  -30.1830  -16.1420   19.9490 C   0  0  0  0  0  0  0  0  0  0  0  0
  -30.3790  -13.5140   19.1400 C   0  0  0  0  0  2  0  0  0  0  0  0
  -29.4820  -12.9240   18.0000 C   0  0  0  0  0  2  0  0  0  0  0  0
  -28.1180  -12.4730   18.5360 C   0  0  0  0  0  2  0  0  0  0  0  0
  -27.5910  -13.4860   19.5720 C   0  0  0  0  0  3  0  0  0  0  0  0
  -28.6420  -13.9580   20.6140 C   0  0  0  0  0  2  0  0  0  0  0  0
  -29.7080  -14.7100   19.8820 N   0  0  0  0  0  0  0  0  0  0  0  0
  -31.4180  -16.0280   19.7620 O   0  0  0  0  0  0  0  0  0  0  0  0
  -29.4200  -17.5980   20.0430 N   0  0  0  0  0  0  0  0  0  0  0  0
  -28.4500  -17.3280   20.1420 H   0  0  0  0  0  0  0  0  0  0  0  0
  -25.2790  -13.9490   20.4890 C   0  0  0  0  0  0  0  0  0  0  0  0
  -24.2470  -13.1480   20.8850 C   0  0  0  0  0  0  0  0  0  0  0  0
  -24.7260  -11.8050   20.7840 C   0  0  0  0  0  0  0  0  0  0  0  0
  -26.3160  -13.0990   20.1620 N   0  0  0  0  0  0  0  0  0  0  0  0
  -26.0020  -11.7970   20.4020 N   0  0  0  0  0  0  0  0  0  0  0  0
  -24.0150  -10.5310   20.9710 C   0  0  0  0  0  0  0  0  0  0  0  0
  -24.4560   -9.5640   21.9020 C   0  0  0  0  0  3  0  0  0  0  0  0
  -23.7380   -8.3610   22.0810 C   0  0  0  0  0  3  0  0  0  0  0  0
  -22.5630   -8.1180   21.3320 C   0  0  0  0  0  0  0  0  0  0  0  0
  -22.1390   -9.0730   20.3910 C   0  0  0  0  0  3  0  0  0  0  0  0
  -22.8590  -10.2660   20.2100 C   0  0  0  0  0  3  0  0  0  0  0  0
  -21.8160   -6.9670   21.4200 O   0  0  0  0  0  0  0  0  0  0  0  0
  -21.7270   -6.2540   22.5900 C   0  0  0  0  0  0  0  0  0  0  0  0
  -21.2120   -6.8250   23.7730 C   0  0  0  0  0  3  0  0  0  0  0  0
  -21.0750   -6.0370   24.9330 C   0  0  0  0  0  3  0  0  0  0  0  0
  -21.4430   -4.6780   24.9100 C   0  0  0  0  0  0  0  0  0  0  0  0
  -21.9510   -4.1050   23.7300 C   0  0  0  0  0  3  0  0  0  0  0  0
  -22.0900   -4.8910   22.5730 C   0  0  0  0  0  0  0  0  0  0  0  0
  -22.5590   -4.3300   21.4330 F   0  0  0  0  0  0  0  0  0  0  0  0
  -21.3040   -3.9180   26.0220 F   0  0  0  0  0  0  0  0  0  0  0  0
  -22.8630  -13.6060   21.2350 C   0  0  0  0  0  0  0  0  0  0  0  0
  -22.1820  -12.8830   22.1150 N   0  0  0  0  0  0  0  0  0  0  0  0
  -22.3970  -14.6420   20.7630 O   0  0  0  0  0  0  0  0  0  0  0  0
  -22.5760  -12.0450   22.5180 H   0  0  0  0  0  0  0  0  0  0  0  0
  -21.2550  -13.1730   22.3930 H   0  0  0  0  0  0  0  0  0  0  0  0
  -25.4150  -15.3270   20.3430 N   0  0  0  0  0  0  0  0  0  0  0  0
  -24.6460  -15.9660   20.5100 H   0  0  0  0  0  0  0  0  0  0  0  0
  -26.2310  -15.7810   19.9540 H   0  0  0  0  0  0  0  0  0  0  0  0
  -28.1970  -25.2790   20.1880 O   0  0  0  0  0  0  0  0  0  0  0  0
  -24.7060  -31.8590   23.1780 C   0  0  0  0  0  0  0  0  0  0  0  0
  -27.2120  -26.5740   20.1980 C   0  0  0  0  0  0  0  0  0  0  0  0
  -23.5230  -30.4590   21.5450 C   0  0  0  0  0  3  0  0  0  0  0  0
  -24.9660  -28.7630   20.1410 C   0  0  0  0  0  0  0  0  0  0  0  0
  -26.1100  -30.5290   21.4450 C   0  0  0  0  0  2  0  0  0  0  0  0
  -26.1670  -29.0700   20.7900 C   0  0  0  0  0  0  0  0  0  0  0  0
  -27.2580  -28.0120   20.7790 C   0  0  0  0  0  3  0  0  0  0  0  0
  -25.9740  -26.5430   19.4850 C   0  0  0  0  0  3  0  0  0  0  0  0
  -24.9230  -27.5280   19.4650 C   0  0  0  0  0  3  0  0  0  0  0  0
  -23.7710  -29.7440   20.1800 C   0  0  0  0  0  2  0  0  0  0  0  0
  -24.8070  -30.9890   22.1070 N   0  0  0  0  0  0  0  0  0  0  0  0
  -23.6100  -32.1690   23.6780 O   0  0  0  0  0  0  0  0  0  0  0  0
  -22.7860  -29.5020   22.5220 C   0  0  0  0  0  0  0  0  0  0  0  0
  -21.4530  -29.3490   22.3920 N   0  0  0  0  0  0  0  0  0  0  0  0
  -23.4320  -28.8900   23.3770 O   0  0  0  0  0  0  0  0  0  0  0  0
  -20.9780  -29.8930   21.6840 H   0  0  0  0  0  0  0  0  0  0  0  0
  -18.0680  -28.1100   22.8970 C   0  0  0  0  0  0  0  0  0  0  0  0
  -20.6240  -28.4130   23.1660 C   0  0  0  0  0  3  0  0  0  0  0  0
  -20.7420  -26.9760   22.6040 C   0  0  0  0  0  2  0  0  0  0  0  0
  -19.6500  -26.6360   21.5850 C   0  0  0  0  0  2  0  0  0  0  0  0
  -18.2640  -26.7640   22.2220 C   0  0  0  0  0  2  0  0  0  0  0  0
  -19.1750  -28.8920   23.3250 C   0  0  0  0  0  0  0  0  0  0  0  0
  -18.9330  -30.1470   23.9250 C   0  0  0  0  0  3  0  0  0  0  0  0
  -17.6190  -30.6240   24.0950 C   0  0  0  0  0  3  0  0  0  0  0  0
  -16.5280  -29.8420   23.6780 C   0  0  0  0  0  3  0  0  0  0  0  0
  -16.7530  -28.5870   23.0850 C   0  0  0  0  0  3  0  0  0  0  0  0
  -25.9610  -32.5210   23.8270 C   0  0  0  0  0  3  0  0  0  0  0  0
  -25.6280  -33.9200   24.1730 N   0  0  0  0  0  0  0  0  0  0  0  0
  -25.9290  -34.9970   23.4330 C   0  0  0  0  0  0  0  0  0  0  0  0
  -26.5660  -34.9180   22.3810 O   0  0  0  0  0  0  0  0  0  0  0  0
  -25.0540  -34.0530   24.9920 H   0  0  0  0  0  0  0  0  0  0  0  0
  -24.1630  -36.7840   23.2050 C   0  0  0  0  0  1  0  0  0  0  0  0
  -25.4540  -36.3790   23.9360 C   0  0  0  0  0  3  0  0  0  0  0  0
  -27.6140  -37.3010   24.6610 C   0  0  0  0  0  1  0  0  0  0  0  0
  -26.4650  -37.4480   23.7730 N   0  0  0  0  0  0  0  0  0  0  0  0
  -26.0530  -38.3630   23.9380 H   0  0  0  0  0  0  0  0  0  0  0  0
  -26.4560  -31.7640   25.1220 C   0  0  1  0  0  0  0  0  0  0  0  0
  -25.3460  -31.5350   26.1760 C   0  0  0  0  0  1  0  0  0  0  0  0
  -27.0480  -30.3820   24.7690 C   0  0  0  0  0  1  0  0  0  0  0  0
  -27.5960  -32.5650   25.7960 C   0  0  0  0  0  1  0  0  0  0  0  0
  1 47  1  0
  1  2  1  0
  2  4  1  0
  2  7  2  0
  3  1  1  0
  5  3  1  0
  5  6  1  0
  6 17  1  0
  6  4  1  0
  8  3  2  0
  9 17  1  0
 10 15  1  0
 11 12  1  0
 11 10  1  0
 13 12  1  0
 13 22  1  0
 13 14  1  0
 15  9  1  0
 15 14  1  0
 16  9  2  0
 17 18  1  0
 19 20  2  0
 20 39  1  0
 21 20  1  0
 21 24  1  0
 22 23  1  0
 22 19  1  0
 23 21  2  0
 24 25  1  0
 25 26  2  0
 27 30  1  0
 27 26  1  0
 28 27  2  0
 29 28  1  0
 29 24  2  0
 30 31  1  0
 31 32  1  0
 32 33  2  0
 34 33  1  0
 34 38  1  0
 35 34  2  0
 36 31  2  0
 36 35  1  0
 37 36  1  0
 39 40  1  0
 40 43  1  0
 40 42  1  0
 41 39  2  0
 44 19  1  0
 44 45  1  0
 46 44  1  0
 47 49  1  0
 48 59  2  0
 49 54  1  0
 50 58  1  0
 50 60  1  0
 51 57  1  0
 51 53  1  0
 52 58  1  0
 53 52  1  0
 54 53  2  0
 55 49  2  0
 56 55  1  0
 56 51  2  0
 57 50  1  0
 58 48  1  0
 60 62  2  0
 61 60  1  0
 63 61  1  0
 64 73  2  0
 64 69  1  0
 65 61  1  0
 65 69  1  0
 66 65  1  0
 67 68  1  0
 67 66  1  0
 68 64  1  0
 69 70  2  0
 70 71  1  0
 72 71  2  0
 73 72  1  0
 74 48  1  0
 74 75  1  0
 74 84  1  0
 75 78  1  0
 76 80  1  0
 76 75  1  0
 77 76  2  0
 80 79  1  0
 82 80  1  0
 82 83  1  0
 82 81  1  0
 84 87  1  1
 84 85  1  0
 86 84  1  0
M  ISO  4   1 101   9 100  17 100  47 101
M  END
>  <TORSDO>  (33) 
F 16

>  <SCORE>  (33) 
-16.427

>  <name>  (33) 
32

>  <ligand_id>  (33) 
32

>  <original_smiles>  (33) 
[H]c1c([H])c([H])c2c(c1[H])C([H])([H])C([H])([H])C([H])([H])C2([H])N([H])C(=O)C1([H])N(C(=O)C([H])(N([H])C(=O)C([H])(N([H])C([H])([H])[H])C([H])([H])[H])C(C([H])([H])[H])(C([H])([H])[H])C([H])([H])[H])C([H])([H])c2c([H])c(OC3=C([O-])C([H])([H])C([H])(N([H])C(=O)N4C([H])([H])C([H])([H])C([H])([H])C([H])(n5nc(-c6c([H])c([H])c(Oc7c([H])c([H])c(F)c([H])c7F)c([H])c6[H])c(C(=O)N([H])[H])c5N([H])[H])C4([H])[H])C([H])([H])C3=O)c([H])c([H])c2C1([H])[H]

>  <smiles>  (33) 
[H]c1c([H])c([H])c2c(c1[H])C([H])([H])C([H])([H])C([H])([H])C2([H])N([H])C(=O)C1([H])N(C(=O)C([H])(N([H])C(=O)C([H])(N([H])C([H])([H])[H])C([H])([H])[H])C(C([H])([H])[H])(C([H])([H])[H])C([H])([H])[H])C([H])([H])c2c([H])c(OC3=C([O-])C([H])([H])C([H])(N([H])C(=O)N4C([H])([H])C([H])([H])C([H])([H])C([H])(n5nc(-c6c([H])c([H])c(Oc7c([H])c([H])c(F)c([H])c7F)c([H])c6[H])c(C(=O)N([H])[H])c5N([H])[H])C4([H])[H])C([H])([H])C3=O)c([H])c([H])c2C1([H])[H]

$$$$
33:0:0
     RDKit          3D

 89 97  0  0  1  0  0  0  0  0999 V2000
  -28.8950  -20.2860   20.4450 N   0  0  0  0  0  4  0  0  0  0  0  0
  -28.7920  -20.0600   21.4210 H   0  0  0  0  0  0  0  0  0  0  0  0
  -27.9600  -20.2570   20.0740 H   0  0  0  0  0  0  0  0  0  0  0  0
  -29.6110  -19.0280   19.7620 C   0  0  0  0  0  2  0  0  0  0  0  0
  -30.0320  -17.7520   22.1010 C   0  0  0  0  0  2  0  0  0  0  0  0
  -31.3750  -17.9120   21.4500 C   0  0  0  0  0  2  0  0  0  0  0  0
  -30.1470  -17.6680   20.5870 C   0  0  2  0  0  0  0  0  0  0  0  0
  -30.8090  -15.0270   19.9420 C   0  0  0  0  0  0  0  0  0  0  0  0
  -30.6640  -12.6780   18.9660 C   0  0  0  0  0  2  0  0  0  0  0  0
  -29.6800  -12.6270   17.7720 C   0  0  0  0  0  2  0  0  0  0  0  0
  -28.2310  -12.4220   18.2620 C   0  0  0  0  0  2  0  0  0  0  0  0
  -27.8730  -13.3550   19.4480 C   0  0  0  0  0  3  0  0  0  0  0  0
  -28.9680  -13.3550   20.5320 C   0  0  0  0  0  2  0  0  0  0  0  0
  -30.2120  -13.7690   19.8710 N   0  0  0  0  0  0  0  0  0  0  0  0
  -32.0240  -15.0870   19.7210 O   0  0  0  0  0  0  0  0  0  0  0  0
  -29.9930  -16.1950   20.0670 N   0  0  0  0  0  0  0  0  0  0  0  0
  -29.0190  -15.9360   20.0050 H   0  0  0  0  0  0  0  0  0  0  0  0
  -25.5310  -13.9650   20.2780 C   0  0  0  0  0  0  0  0  0  0  0  0
  -24.4700  -13.2050   20.6850 C   0  0  0  0  0  0  0  0  0  0  0  0
  -24.9150  -11.8480   20.6350 C   0  0  0  0  0  0  0  0  0  0  0  0
  -26.5520  -13.0730   19.9980 N   0  0  0  0  0  0  0  0  0  0  0  0
  -26.1930  -11.7950   20.2790 N   0  0  0  0  0  0  0  0  0  0  0  0
  -24.1770  -10.5950   20.8440 C   0  0  0  0  0  0  0  0  0  0  0  0
  -24.5830   -9.6520   21.8130 C   0  0  0  0  0  3  0  0  0  0  0  0
  -23.8450   -8.4650   22.0100 C   0  0  0  0  0  3  0  0  0  0  0  0
  -22.6870   -8.2130   21.2370 C   0  0  0  0  0  0  0  0  0  0  0  0
  -22.3000   -9.1450   20.2570 C   0  0  0  0  0  3  0  0  0  0  0  0
  -23.0380  -10.3240   20.0590 C   0  0  0  0  0  3  0  0  0  0  0  0
  -21.9240   -7.0750   21.3400 O   0  0  0  0  0  0  0  0  0  0  0  0
  -21.7900   -6.4030   22.5290 C   0  0  0  0  0  0  0  0  0  0  0  0
  -21.2710   -7.0280   23.6830 C   0  0  0  0  0  3  0  0  0  0  0  0
  -21.0870   -6.2840   24.8650 C   0  0  0  0  0  3  0  0  0  0  0  0
  -21.4100   -4.9140   24.8930 C   0  0  0  0  0  0  0  0  0  0  0  0
  -21.9210   -4.2880   23.7430 C   0  0  0  0  0  3  0  0  0  0  0  0
  -22.1080   -5.0300   22.5630 C   0  0  0  0  0  0  0  0  0  0  0  0
  -22.5820   -4.4170   21.4520 F   0  0  0  0  0  0  0  0  0  0  0  0
  -21.2260   -4.1970   26.0260 F   0  0  0  0  0  0  0  0  0  0  0  0
  -23.0890  -13.7020   21.0000 C   0  0  0  0  0  0  0  0  0  0  0  0
  -22.3820  -13.0200   21.8960 N   0  0  0  0  0  0  0  0  0  0  0  0
  -22.6480  -14.7290   20.4870 O   0  0  0  0  0  0  0  0  0  0  0  0
  -22.7520  -12.1880   22.3300 H   0  0  0  0  0  0  0  0  0  0  0  0
  -21.4570  -13.3360   22.1510 H   0  0  0  0  0  0  0  0  0  0  0  0
  -25.7040  -15.3340   20.0940 N   0  0  0  0  0  0  0  0  0  0  0  0
  -24.9370  -15.9860   20.2120 H   0  0  0  0  0  0  0  0  0  0  0  0
  -26.5130  -15.7550   19.6560 H   0  0  0  0  0  0  0  0  0  0  0  0
  -29.3200  -21.8230   20.3960 C   0  0  0  0  0  2  0  0  0  0  0  0
  -28.2820  -23.1500   20.0990 C   0  0  0  0  0  2  0  0  0  0  0  0
  -28.2940  -24.6940   20.8150 C   0  0  0  0  0  2  0  0  0  0  0  0
  -28.2880  -26.1480   20.2380 O   0  0  0  0  0  0  0  0  0  0  0  0
  -24.6140  -31.8500   23.2210 C   0  0  0  0  0  0  0  0  0  0  0  0
  -27.1920  -27.0830   20.2800 C   0  0  0  0  0  0  0  0  0  0  0  0
  -23.4080  -30.4160   21.6170 C   0  0  0  0  0  3  0  0  0  0  0  0
  -24.8510  -28.8080   20.2240 C   0  0  0  0  0  0  0  0  0  0  0  0
  -25.9570  -30.6910   21.4260 C   0  0  0  0  0  2  0  0  0  0  0  0
  -26.0340  -29.2810   20.8100 C   0  0  0  0  0  0  0  0  0  0  0  0
  -27.2060  -28.4360   20.8130 C   0  0  0  0  0  3  0  0  0  0  0  0
  -25.9820  -26.7010   19.6680 C   0  0  0  0  0  3  0  0  0  0  0  0
  -24.8370  -27.5310   19.6390 C   0  0  0  0  0  3  0  0  0  0  0  0
  -23.6210  -29.7040   20.2550 C   0  0  0  0  0  2  0  0  0  0  0  0
  -24.6800  -31.0090   22.1430 N   0  0  0  0  0  0  0  0  0  0  0  0
  -23.5300  -32.1390   23.7520 O   0  0  0  0  0  0  0  0  0  0  0  0
  -22.7400  -29.4280   22.6060 C   0  0  0  0  0  0  0  0  0  0  0  0
  -21.4140  -29.2390   22.4850 N   0  0  0  0  0  0  0  0  0  0  0  0
  -23.4190  -28.8310   23.4470 O   0  0  0  0  0  0  0  0  0  0  0  0
  -20.9210  -29.7750   21.7840 H   0  0  0  0  0  0  0  0  0  0  0  0
  -18.0510  -27.9950   23.0040 C   0  0  0  0  0  0  0  0  0  0  0  0
  -20.6030  -28.3120   23.2790 C   0  0  0  0  0  3  0  0  0  0  0  0
  -20.7330  -26.8660   22.7470 C   0  0  0  0  0  2  0  0  0  0  0  0
  -19.6450  -26.4950   21.7350 C   0  0  0  0  0  2  0  0  0  0  0  0
  -18.2570  -26.6320   22.3650 C   0  0  0  0  0  2  0  0  0  0  0  0
  -19.1530  -28.7910   23.4170 C   0  0  0  0  0  0  0  0  0  0  0  0
  -18.9070  -30.0650   23.9730 C   0  0  0  0  0  3  0  0  0  0  0  0
  -17.5910  -30.5460   24.1170 C   0  0  0  0  0  3  0  0  0  0  0  0
  -16.5040  -29.7490   23.7200 C   0  0  0  0  0  3  0  0  0  0  0  0
  -16.7340  -28.4750   23.1700 C   0  0  0  0  0  3  0  0  0  0  0  0
  -25.8940  -32.5030   23.8280 C   0  0  0  0  0  3  0  0  0  0  0  0
  -25.5760  -33.9040   24.1440 N   0  0  0  0  0  0  0  0  0  0  0  0
  -25.8980  -34.9540   23.3760 C   0  0  0  0  0  0  0  0  0  0  0  0
  -26.5610  -34.8440   22.3410 O   0  0  0  0  0  0  0  0  0  0  0  0
  -24.9850  -34.0610   24.9460 H   0  0  0  0  0  0  0  0  0  0  0  0
  -24.1610  -36.7420   23.0210 C   0  0  0  0  0  1  0  0  0  0  0  0
  -25.4100  -36.3450   23.8260 C   0  0  0  0  0  3  0  0  0  0  0  0
  -27.5450  -37.2470   24.6360 C   0  0  0  0  0  1  0  0  0  0  0  0
  -26.4370  -37.4010   23.6970 N   0  0  0  0  0  0  0  0  0  0  0  0
  -26.0290  -38.3210   23.8360 H   0  0  0  0  0  0  0  0  0  0  0  0
  -26.4200  -31.7570   25.1160 C   0  0  1  0  0  0  0  0  0  0  0  0
  -25.3340  -31.5310   26.1930 C   0  0  0  0  0  1  0  0  0  0  0  0
  -27.0120  -30.3760   24.7470 C   0  0  0  0  0  1  0  0  0  0  0  0
  -27.5700  -32.5680   25.7590 C   0  0  0  0  0  1  0  0  0  0  0  0
  1  2  1  0
  3  1  1  0
  4  1  1  0
  7  4  1  6
  6  5  1  0
  7  6  1  0
  7  5  1  0
  8 16  1  0
  9 14  1  0
 10 11  1  0
 10  9  1  0
 12 11  1  0
 12 21  1  0
 12 13  1  0
 14  8  1  0
 14 13  1  0
 15  8  2  0
 16  7  1  0
 17 16  1  0
 18 19  2  0
 19 38  1  0
 20 19  1  0
 20 23  1  0
 21 18  1  0
 21 22  1  0
 22 20  2  0
 23 24  1  0
 24 25  2  0
 26 29  1  0
 26 25  1  0
 27 26  2  0
 28 27  1  0
 28 23  2  0
 29 30  1  0
 30 35  2  0
 30 31  1  0
 31 32  2  0
 32 33  1  0
 33 37  1  0
 34 33  2  0
 35 34  1  0
 36 35  1  0
 38 39  1  0
 39 42  1  0
 39 41  1  0
 40 38  2  0
 43 44  1  0
 43 18  1  0
 45 43  1  0
 46  1  1  0
 47 46  1  0
 47 48  1  0
 49 51  1  0
 49 48  1  0
 50 61  2  0
 51 56  1  0
 52 60  1  0
 52 62  1  0
 53 59  1  0
 53 55  1  0
 54 60  1  0
 55 56  2  0
 55 54  1  0
 57 51  2  0
 58 57  1  0
 58 53  2  0
 59 52  1  0
 60 50  1  0
 62 64  2  0
 63 62  1  0
 65 63  1  0
 66 75  2  0
 66 71  1  0
 67 63  1  0
 67 71  1  0
 68 67  1  0
 69 70  1  0
 69 68  1  0
 70 66  1  0
 71 72  2  0
 72 73  1  0
 74 73  2  0
 75 74  1  0
 76 50  1  0
 76 77  1  0
 76 86  1  0
 77 80  1  0
 78 82  1  0
 78 77  1  0
 79 78  2  0
 82 81  1  0
 84 82  1  0
 84 85  1  0
 84 83  1  0
 86 89  1  1
 86 87  1  0
 88 86  1  0
M  ISO  4   8 100  16 100  48 101  49 101
M  END
>  <TORSDO>  (34) 
F 21

>  <SCORE>  (34) 
-13.913

>  <name>  (34) 
33

>  <ligand_id>  (34) 
33

>  <original_smiles>  (34) 
[H]c1c([H])c([H])c2c(c1[H])C([H])([H])C([H])([H])C([H])([H])C2([H])N([H])C(=O)C1([H])N(C(=O)C([H])(N([H])C(=O)C([H])(N([H])C([H])([H])[H])C([H])([H])[H])C(C([H])([H])[H])(C([H])([H])[H])C([H])([H])[H])C([H])([H])c2c([H])c(OC([H])([H])C([H])([H])C([H])([H])[N+]([H])([H])C([H])([H])C3(N([H])C(=O)N4C([H])([H])C([H])([H])C([H])([H])C([H])(n5nc(-c6c([H])c([H])c(Oc7c([H])c([H])c(F)c([H])c7F)c([H])c6[H])c(C(=O)N([H])[H])c5N([H])[H])C4([H])[H])C([H])([H])C3([H])[H])c([H])c([H])c2C1([H])[H]

>  <smiles>  (34) 
[H]c1c([H])c([H])c2c(c1[H])C([H])([H])C([H])([H])C([H])([H])C2([H])N([H])C(=O)C1([H])N(C(=O)C([H])(N([H])C(=O)C([H])(N([H])C([H])([H])[H])C([H])([H])[H])C(C([H])([H])[H])(C([H])([H])[H])C([H])([H])[H])C([H])([H])c2c([H])c(OC([H])([H])C([H])([H])C([H])([H])[N+]([H])([H])C([H])([H])C3(N([H])C(=O)N4C([H])([H])C([H])([H])C([H])([H])C([H])(n5nc(-c6c([H])c([H])c(Oc7c([H])c([H])c(F)c([H])c7F)c([H])c6[H])c(C(=O)N([H])[H])c5N([H])[H])C4([H])[H])C([H])([H])C3([H])[H])c([H])c([H])c2C1([H])[H]

$$$$
34:0:0
     RDKit          3D

 93101  0  0  1  0  0  0  0  0999 V2000
  -29.9770  -19.7760   19.9060 C   0  0  0  0  0  0  0  0  0  0  0  0
  -29.2010  -21.0420   19.7120 N   0  0  0  0  0  0  0  0  0  0  0  0
  -31.0660  -19.8860   20.4660 O   0  0  0  0  0  0  0  0  0  0  0  0
  -28.3800  -20.8820   19.1430 H   0  0  0  0  0  0  0  0  0  0  0  0
  -27.7550  -18.4380   18.4140 C   0  0  0  0  0  2  0  0  0  0  0  0
  -29.1800  -18.1340   18.0140 C   0  0  0  0  0  2  0  0  0  0  0  0
  -27.9680  -17.9270   19.8780 C   0  0  0  0  0  3  0  0  0  0  0  0
  -29.5130  -18.1070   19.5020 C   0  0  2  0  0  0  0  0  0  0  0  0
  -30.8290  -15.2680   19.5930 C   0  0  0  0  0  0  0  0  0  0  0  0
  -30.7690  -12.7380   18.9580 C   0  0  0  0  0  2  0  0  0  0  0  0
  -29.8050  -12.4500   17.7740 C   0  0  0  0  0  2  0  0  0  0  0  0
  -28.3650  -12.2420   18.2780 C   0  0  0  0  0  2  0  0  0  0  0  0
  -27.9730  -13.3020   19.3340 C   0  0  0  0  0  3  0  0  0  0  0  0
  -29.0590  -13.5210   20.4140 C   0  0  0  0  0  2  0  0  0  0  0  0
  -30.2840  -13.9510   19.7140 N   0  0  0  0  0  0  0  0  0  0  0  0
  -32.0070  -15.2670   19.2090 O   0  0  0  0  0  0  0  0  0  0  0  0
  -30.0060  -16.4940   19.7620 N   0  0  0  0  0  0  0  0  0  0  0  0
  -29.1950  -16.0930   20.2070 H   0  0  0  0  0  0  0  0  0  0  0  0
  -25.6860  -14.0000   20.2170 C   0  0  0  0  0  0  0  0  0  0  0  0
  -24.5970  -13.2930   20.6380 C   0  0  0  0  0  0  0  0  0  0  0  0
  -24.9700  -11.9160   20.5680 C   0  0  0  0  0  0  0  0  0  0  0  0
  -26.6540  -13.0640   19.9070 N   0  0  0  0  0  0  0  0  0  0  0  0
  -26.2380  -11.7990   20.1850 N   0  0  0  0  0  0  0  0  0  0  0  0
  -24.1700  -10.7030   20.7870 C   0  0  0  0  0  0  0  0  0  0  0  0
  -24.5700   -9.7120   21.7120 C   0  0  0  0  0  3  0  0  0  0  0  0
  -23.7720   -8.5650   21.9200 C   0  0  0  0  0  3  0  0  0  0  0  0
  -22.5610   -8.4010   21.2060 C   0  0  0  0  0  0  0  0  0  0  0  0
  -22.1800   -9.3810   20.2730 C   0  0  0  0  0  3  0  0  0  0  0  0
  -22.9760  -10.5190   20.0620 C   0  0  0  0  0  3  0  0  0  0  0  0
  -21.7380   -7.3080   21.3250 O   0  0  0  0  0  0  0  0  0  0  0  0
  -21.6620   -6.5860   22.4900 C   0  0  0  0  0  0  0  0  0  0  0  0
  -21.2610   -7.1780   23.7080 C   0  0  0  0  0  3  0  0  0  0  0  0
  -21.1300   -6.3860   24.8660 C   0  0  0  0  0  3  0  0  0  0  0  0
  -21.3880   -5.0020   24.8070 C   0  0  0  0  0  0  0  0  0  0  0  0
  -21.7800   -4.4120   23.5930 C   0  0  0  0  0  3  0  0  0  0  0  0
  -21.9130   -5.2020   22.4370 C   0  0  0  0  0  0  0  0  0  0  0  0
  -22.2720   -4.6220   21.2660 F   0  0  0  0  0  0  0  0  0  0  0  0
  -21.2550   -4.2400   25.9160 F   0  0  0  0  0  0  0  0  0  0  0  0
  -23.2520  -13.8600   20.9850 C   0  0  0  0  0  0  0  0  0  0  0  0
  -22.5390  -13.2240   21.9100 N   0  0  0  0  0  0  0  0  0  0  0  0
  -22.8460  -14.9000   20.4700 O   0  0  0  0  0  0  0  0  0  0  0  0
  -22.8830  -12.3810   22.3440 H   0  0  0  0  0  0  0  0  0  0  0  0
  -21.6390  -13.5870   22.1860 H   0  0  0  0  0  0  0  0  0  0  0  0
  -25.9280  -15.3580   20.0420 N   0  0  0  0  0  0  0  0  0  0  0  0
  -25.1840  -16.0380   20.1520 H   0  0  0  0  0  0  0  0  0  0  0  0
  -26.7290  -15.7230   19.5470 H   0  0  0  0  0  0  0  0  0  0  0  0
  -27.1470  -18.8820   20.6690 N   0  0  0  0  0  4  0  0  0  0  0  0
  -27.0850  -19.7980   20.2650 H   0  0  0  0  0  0  0  0  0  0  0  0
  -27.5160  -18.9770   21.6000 H   0  0  0  0  0  0  0  0  0  0  0  0
  -26.2110  -18.5310   20.7730 H   0  0  0  0  0  0  0  0  0  0  0  0
  -29.3150  -22.6820   20.0790 C   0  0  0  0  0  3  0  0  0  0  0  0
  -28.2310  -24.1230   19.8230 C   0  0  0  0  0  3  0  0  0  0  0  0
  -28.3580  -25.7650   20.0370 O   0  0  0  0  0  0  0  0  0  0  0  0
  -24.5450  -31.6240   22.9520 C   0  0  0  0  0  0  0  0  0  0  0  0
  -27.2940  -26.8170   19.9710 C   0  0  0  0  0  0  0  0  0  0  0  0
  -23.4080  -30.1790   21.3150 C   0  0  0  0  0  3  0  0  0  0  0  0
  -24.9220  -28.6170   19.9090 C   0  0  0  0  0  0  0  0  0  0  0  0
  -25.9680  -30.4770   21.1830 C   0  0  0  0  0  2  0  0  0  0  0  0
  -26.0930  -29.0660   20.5310 C   0  0  0  0  0  0  0  0  0  0  0  0
  -27.2690  -28.1890   20.5370 C   0  0  0  0  0  3  0  0  0  0  0  0
  -26.0850  -26.5190   19.3010 C   0  0  0  0  0  3  0  0  0  0  0  0
  -24.9420  -27.3630   19.2750 C   0  0  0  0  0  3  0  0  0  0  0  0
  -23.6730  -29.4980   19.9450 C   0  0  0  0  0  2  0  0  0  0  0  0
  -24.6590  -30.7870   21.8700 N   0  0  0  0  0  0  0  0  0  0  0  0
  -23.4440  -31.8780   23.4670 O   0  0  0  0  0  0  0  0  0  0  0  0
  -22.7390  -29.1670   22.2820 C   0  0  0  0  0  0  0  0  0  0  0  0
  -21.4120  -28.9780   22.1700 N   0  0  0  0  0  0  0  0  0  0  0  0
  -23.4240  -28.5520   23.1040 O   0  0  0  0  0  0  0  0  0  0  0  0
  -20.9130  -29.5210   21.4780 H   0  0  0  0  0  0  0  0  0  0  0  0
  -18.0580  -27.7180   22.7280 C   0  0  0  0  0  0  0  0  0  0  0  0
  -20.6170  -28.0230   22.9480 C   0  0  0  0  0  3  0  0  0  0  0  0
  -20.7280  -26.5970   22.3590 C   0  0  0  0  0  2  0  0  0  0  0  0
  -19.6160  -26.2760   21.3560 C   0  0  0  0  0  2  0  0  0  0  0  0
  -18.2450  -26.3840   22.0310 C   0  0  0  0  0  2  0  0  0  0  0  0
  -19.1710  -28.4950   23.1440 C   0  0  0  0  0  0  0  0  0  0  0  0
  -18.9410  -29.7440   23.7600 C   0  0  0  0  0  3  0  0  0  0  0  0
  -17.6320  -30.2180   23.9630 C   0  0  0  0  0  3  0  0  0  0  0  0
  -16.5340  -29.4380   23.5630 C   0  0  0  0  0  3  0  0  0  0  0  0
  -16.7460  -28.1890   22.9510 C   0  0  0  0  0  3  0  0  0  0  0  0
  -25.7900  -32.3120   23.5910 C   0  0  0  0  0  3  0  0  0  0  0  0
  -26.3610  -31.5300   24.8390 C   0  0  1  0  0  0  0  0  0  0  0  0
  -25.2920  -31.1900   25.9050 C   0  0  0  0  0  1  0  0  0  0  0  0
  -27.0230  -30.2030   24.4040 C   0  0  0  0  0  1  0  0  0  0  0  0
  -27.4670  -32.3680   25.5210 C   0  0  0  0  0  1  0  0  0  0  0  0
  -25.4020  -33.6790   23.9840 N   0  0  0  0  0  0  0  0  0  0  0  0
  -25.6820  -34.7870   23.2860 C   0  0  0  0  0  0  0  0  0  0  0  0
  -26.3580  -34.7720   22.2550 O   0  0  0  0  0  0  0  0  0  0  0  0
  -24.7980  -33.7600   24.7900 H   0  0  0  0  0  0  0  0  0  0  0  0
  -23.8680  -36.5140   23.0320 C   0  0  0  0  0  1  0  0  0  0  0  0
  -25.1300  -36.1270   23.8190 C   0  0  0  0  0  3  0  0  0  0  0  0
  -27.2150  -37.0840   24.7010 C   0  0  0  0  0  1  0  0  0  0  0  0
  -26.1100  -37.2360   23.7570 N   0  0  0  0  0  0  0  0  0  0  0  0
  -25.6560  -38.1270   23.9420 H   0  0  0  0  0  0  0  0  0  0  0  0
  1  3  2  0
  2  1  1  0
  2 51  1  0
  4  2  1  0
  5  7  1  0
  6  5  1  0
  6  8  1  0
  7 47  1  0
  8 17  1  6
  8  7  1  0
  8  1  1  0
  9 15  1  0
  9 17  1  0
 10 15  1  0
 11 12  1  0
 11 10  1  0
 13 12  1  0
 13 22  1  0
 13 14  1  0
 15 14  1  0
 16  9  2  0
 17 18  1  0
 19 20  2  0
 20 39  1  0
 21 20  1  0
 21 24  1  0
 22 23  1  0
 22 19  1  0
 23 21  2  0
 24 25  1  0
 25 26  2  0
 27 30  1  0
 27 26  1  0
 28 27  2  0
 29 28  1  0
 29 24  2  0
 30 31  1  0
 31 32  1  0
 32 33  2  0
 34 33  1  0
 34 38  1  0
 35 34  2  0
 36 31  2  0
 36 35  1  0
 37 36  1  0
 39 40  1  0
 40 43  1  0
 40 42  1  0
 41 39  2  0
 44 45  1  0
 44 19  1  0
 46 44  1  0
 47 50  1  0
 47 49  1  0
 48 47  1  0
 52 53  1  0
 52 51  2  0
 54 65  2  0
 55 53  1  0
 55 60  1  0
 56 64  1  0
 56 66  1  0
 57 63  1  0
 57 59  1  0
 58 64  1  0
 59 60  2  0
 59 58  1  0
 61 55  2  0
 62 61  1  0
 62 57  2  0
 63 56  1  0
 64 54  1  0
 66 68  2  0
 67 66  1  0
 69 67  1  0
 70 79  2  0
 70 75  1  0
 71 67  1  0
 71 75  1  0
 72 71  1  0
 73 74  1  0
 73 72  1  0
 74 70  1  0
 75 76  2  0
 76 77  1  0
 78 77  2  0
 79 78  1  0
 80 54  1  0
 80 85  1  0
 80 81  1  0
 81 84  1  1
 81 82  1  0
 83 81  1  0
 85 88  1  0
 86 90  1  0
 86 85  1  0
 87 86  2  0
 90 89  1  0
 92 90  1  0
 92 93  1  0
 92 91  1  0
M  ISO  4   9 100  17 100  52 101  53 101
M  END
>  <TORSDO>  (35) 
F 20

>  <SCORE>  (35) 
-15.750

>  <name>  (35) 
34

>  <ligand_id>  (35) 
34

>  <original_smiles>  (35) 
[H]c1c([H])c([H])c2c(c1[H])C([H])([H])C([H])([H])C([H])([H])C2([H])N([H])C(=O)C1([H])N(C(=O)C([H])(N([H])C(=O)C([H])(N([H])C([H])([H])[H])C([H])([H])[H])C(C([H])([H])[H])(C([H])([H])[H])C([H])([H])[H])C([H])([H])c2c([H])c(OC([H])([H])C([H])([H])N([H])C(=O)C3(N([H])C(=O)N4C([H])([H])C([H])([H])C([H])([H])C([H])(n5nc(-c6c([H])c([H])c(Oc7c([H])c([H])c(F)c([H])c7F)c([H])c6[H])c(C(=O)N([H])[H])c5N([H])[H])C4([H])[H])C([H])([H])C([H])([H])C3([H])[N+]([H])([H])[H])c([H])c([H])c2C1([H])[H]

>  <smiles>  (35) 
[H]c1c([H])c([H])c2c(c1[H])C([H])([H])C([H])([H])C([H])([H])C2([H])N([H])C(=O)C1([H])N(C(=O)C([H])(N([H])C(=O)C([H])(N([H])C([H])([H])[H])C([H])([H])[H])C(C([H])([H])[H])(C([H])([H])[H])C([H])([H])[H])C([H])([H])c2c([H])c(OC([H])([H])C([H])([H])N([H])C(=O)C3(N([H])C(=O)N4C([H])([H])C([H])([H])C([H])([H])C([H])(n5nc(-c6c([H])c([H])c(Oc7c([H])c([H])c(F)c([H])c7F)c([H])c6[H])c(C(=O)N([H])[H])c5N([H])[H])C4([H])[H])C([H])([H])C([H])([H])C3([H])[N+]([H])([H])[H])c([H])c([H])c2C1([H])[H]

$$$$
35:0:0
     RDKit          3D

 88 97  0  0  1  0  0  0  0  0999 V2000
  -31.5160  -19.9520   21.0940 C   0  0  0  0  0  3  0  0  0  0  0  0
  -30.6890  -21.0810   20.8580 C   0  0  0  0  0  3  0  0  0  0  0  0
  -31.1320  -18.6040   20.8830 C   0  0  0  0  0  3  0  0  0  0  0  0
  -28.9970  -19.5190   20.2000 C   0  0  0  0  0  3  0  0  0  0  0  0
  -29.3490  -21.0220   20.3950 C   0  0  0  0  0  0  0  0  0  0  0  0
  -29.8520  -18.2360   20.4230 C   0  0  0  0  0  0  0  0  0  0  0  0
  -30.3750  -15.3600   20.2630 C   0  0  0  0  0  0  0  0  0  0  0  0
  -30.3620  -12.9190   19.3550 C   0  0  0  0  0  2  0  0  0  0  0  0
  -29.4280  -12.6900   18.1400 C   0  0  0  0  0  2  0  0  0  0  0  0
  -27.9870  -12.4050   18.5990 C   0  0  0  0  0  2  0  0  0  0  0  0
  -27.5390  -13.3610   19.7320 C   0  0  0  0  0  3  0  0  0  0  0  0
  -28.6010  -13.5250   20.8400 C   0  0  0  0  0  2  0  0  0  0  0  0
  -29.8080  -14.0530   20.1830 N   0  0  0  0  0  0  0  0  0  0  0  0
  -31.6020  -15.3480   20.0860 O   0  0  0  0  0  0  0  0  0  0  0  0
  -29.5960  -16.6350   20.2920 N   0  0  0  0  0  0  0  0  0  0  0  0
  -28.6130  -16.4210   20.2220 H   0  0  0  0  0  0  0  0  0  0  0  0
  -25.1710  -13.8970   20.5040 C   0  0  0  0  0  0  0  0  0  0  0  0
  -24.1170  -13.1090   20.8770 C   0  0  0  0  0  0  0  0  0  0  0  0
  -24.5980  -11.7650   20.8460 C   0  0  0  0  0  0  0  0  0  0  0  0
  -26.2200  -13.0310   20.2550 N   0  0  0  0  0  0  0  0  0  0  0  0
  -25.8880  -11.7430   20.5300 N   0  0  0  0  0  0  0  0  0  0  0  0
  -23.8830  -10.4960   21.0400 C   0  0  0  0  0  0  0  0  0  0  0  0
  -24.3290   -9.5290   21.9670 C   0  0  0  0  0  3  0  0  0  0  0  0
  -23.6110   -8.3270   22.1510 C   0  0  0  0  0  3  0  0  0  0  0  0
  -22.4320   -8.0840   21.4060 C   0  0  0  0  0  0  0  0  0  0  0  0
  -22.0050   -9.0390   20.4660 C   0  0  0  0  0  3  0  0  0  0  0  0
  -22.7240  -10.2320   20.2820 C   0  0  0  0  0  3  0  0  0  0  0  0
  -21.6860   -6.9330   21.4970 O   0  0  0  0  0  0  0  0  0  0  0  0
  -21.6580   -6.1840   22.6470 C   0  0  0  0  0  0  0  0  0  0  0  0
  -21.2410   -6.7290   23.8810 C   0  0  0  0  0  3  0  0  0  0  0  0
  -21.1600   -5.9050   25.0210 C   0  0  0  0  0  3  0  0  0  0  0  0
  -21.4860   -4.5380   24.9290 C   0  0  0  0  0  0  0  0  0  0  0  0
  -21.8970   -3.9940   23.7000 C   0  0  0  0  0  3  0  0  0  0  0  0
  -21.9800   -4.8150   22.5610 C   0  0  0  0  0  0  0  0  0  0  0  0
  -22.3540   -4.2810   21.3740 F   0  0  0  0  0  0  0  0  0  0  0  0
  -21.4020   -3.7460   26.0220 F   0  0  0  0  0  0  0  0  0  0  0  0
  -22.7160  -13.5740   21.1480 C   0  0  0  0  0  0  0  0  0  0  0  0
  -21.9970  -12.8760   22.0190 N   0  0  0  0  0  0  0  0  0  0  0  0
  -22.2690  -14.5940   20.6250 O   0  0  0  0  0  0  0  0  0  0  0  0
  -22.3730  -12.0520   22.4650 H   0  0  0  0  0  0  0  0  0  0  0  0
  -21.0580  -13.1710   22.2460 H   0  0  0  0  0  0  0  0  0  0  0  0
  -25.3160  -15.2690   20.3270 N   0  0  0  0  0  0  0  0  0  0  0  0
  -24.5370  -15.9090   20.4370 H   0  0  0  0  0  0  0  0  0  0  0  0
  -26.1530  -15.7220   19.9890 H   0  0  0  0  0  0  0  0  0  0  0  0
  -29.2000  -23.6290   21.0270 C   0  0  0  0  0  2  0  0  0  0  0  0
  -28.5840  -22.6040   20.0590 C   0  0  0  0  0  3  0  0  0  0  0  0
  -27.9810  -24.2690   20.5570 C   0  0  0  0  0  3  0  0  0  0  0  0
  -28.2290  -25.8970   20.3640 O   0  0  0  0  0  0  0  0  0  0  0  0
  -24.6410  -31.9200   23.2640 C   0  0  0  0  0  0  0  0  0  0  0  0
  -27.2080  -26.9890   20.3380 C   0  0  0  0  0  0  0  0  0  0  0  0
  -23.4560  -30.5100   21.6290 C   0  0  0  0  0  3  0  0  0  0  0  0
  -24.9130  -28.8770   20.2470 C   0  0  0  0  0  0  0  0  0  0  0  0
  -26.0250  -30.7090   21.5020 C   0  0  0  0  0  2  0  0  0  0  0  0
  -26.0970  -29.2880   20.8710 C   0  0  0  0  0  0  0  0  0  0  0  0
  -27.2410  -28.3670   20.8850 C   0  0  0  0  0  3  0  0  0  0  0  0
  -25.9890  -26.7260   19.6750 C   0  0  0  0  0  3  0  0  0  0  0  0
  -24.8850  -27.6160   19.6270 C   0  0  0  0  0  3  0  0  0  0  0  0
  -23.6970  -29.8030   20.2660 C   0  0  0  0  0  2  0  0  0  0  0  0
  -24.7290  -31.0740   22.1860 N   0  0  0  0  0  0  0  0  0  0  0  0
  -23.5470  -32.2240   23.7690 O   0  0  0  0  0  0  0  0  0  0  0  0
  -22.7460  -29.5320   22.6010 C   0  0  0  0  0  0  0  0  0  0  0  0
  -21.4160  -29.3800   22.4690 N   0  0  0  0  0  0  0  0  0  0  0  0
  -23.4000  -28.9090   23.4410 O   0  0  0  0  0  0  0  0  0  0  0  0
  -20.9430  -29.9340   21.7690 H   0  0  0  0  0  0  0  0  0  0  0  0
  -18.0220  -28.1960   22.9630 C   0  0  0  0  0  0  0  0  0  0  0  0
  -20.5810  -28.4560   23.2440 C   0  0  0  0  0  3  0  0  0  0  0  0
  -20.6820  -27.0150   22.6880 C   0  0  0  0  0  2  0  0  0  0  0  0
  -19.5870  -26.6830   21.6710 C   0  0  0  0  0  2  0  0  0  0  0  0
  -18.2000  -26.8410   22.3000 C   0  0  0  0  0  2  0  0  0  0  0  0
  -19.1410  -28.9610   23.3910 C   0  0  0  0  0  0  0  0  0  0  0  0
  -18.9180  -30.2280   23.9750 C   0  0  0  0  0  3  0  0  0  0  0  0
  -17.6130  -30.7310   24.1310 C   0  0  0  0  0  3  0  0  0  0  0  0
  -16.5100  -29.9650   23.7150 C   0  0  0  0  0  3  0  0  0  0  0  0
  -16.7170  -28.6990   23.1380 C   0  0  0  0  0  3  0  0  0  0  0  0
  -25.9080  -32.5660   23.9020 C   0  0  0  0  0  3  0  0  0  0  0  0
  -25.5930  -33.9710   24.2180 N   0  0  0  0  0  0  0  0  0  0  0  0
  -25.9180  -35.0220   23.4540 C   0  0  0  0  0  0  0  0  0  0  0  0
  -26.5780  -34.9120   22.4170 O   0  0  0  0  0  0  0  0  0  0  0  0
  -25.0000  -34.1280   25.0210 H   0  0  0  0  0  0  0  0  0  0  0  0
  -24.1750  -36.8140   23.1270 C   0  0  0  0  0  1  0  0  0  0  0  0
  -25.4380  -36.4170   23.9080 C   0  0  0  0  0  3  0  0  0  0  0  0
  -27.5890  -37.3270   24.6720 C   0  0  0  0  0  1  0  0  0  0  0  0
  -26.4630  -37.4720   23.7550 N   0  0  0  0  0  0  0  0  0  0  0  0
  -26.0570  -38.3920   23.8970 H   0  0  0  0  0  0  0  0  0  0  0  0
  -26.3950  -31.8140   25.2030 C   0  0  1  0  0  0  0  0  0  0  0  0
  -25.2810  -31.6060   26.2560 C   0  0  0  0  0  1  0  0  0  0  0  0
  -26.9750  -30.4240   24.8540 C   0  0  0  0  0  1  0  0  0  0  0  0
  -27.5370  -32.6130   25.8740 C   0  0  0  0  0  1  0  0  0  0  0  0
  2  1  2  0
  3  1  1  0
  4  5  2  0
  4  6  1  0
  5  2  1  0
  6  3  2  0
  7 15  1  0
  8 13  1  0
  9 10  1  0
  9  8  1  0
 11 10  1  0
 11 20  1  0
 11 12  1  0
 13  7  1  0
 13 12  1  0
 14  7  2  0
 15  6  1  0
 16 15  1  0
 17 18  2  0
 18 37  1  0
 19 18  1  0
 19 22  1  0
 20 17  1  0
 20 21  1  0
 21 19  2  0
 22 23  1  0
 23 24  2  0
 25 28  1  0
 25 24  1  0
 26 25  2  0
 27 26  1  0
 27 22  2  0
 28 29  1  0
 29 30  1  0
 30 31  2  0
 32 31  1  0
 32 36  1  0
 33 32  2  0
 34 29  2  0
 34 33  1  0
 35 34  1  0
 37 38  1  0
 38 41  1  0
 38 40  1  0
 39 37  2  0
 42 43  1  0
 42 17  1  0
 44 42  1  0
 46  5  1  0
 46 47  1  0
 46 45  1  0
 47 48  1  0
 47 45  1  0
 49 60  2  0
 50 48  1  0
 50 55  1  0
 51 59  1  0
 51 61  1  0
 52 58  1  0
 52 54  1  0
 53 59  1  0
 54 55  2  0
 54 53  1  0
 56 50  2  0
 57 56  1  0
 57 52  2  0
 58 51  1  0
 59 49  1  0
 61 63  2  0
 62 61  1  0
 64 62  1  0
 65 74  2  0
 65 70  1  0
 66 62  1  0
 66 70  1  0
 67 66  1  0
 68 69  1  0
 68 67  1  0
 69 65  1  0
 70 71  2  0
 71 72  1  0
 73 72  2  0
 74 73  1  0
 75 49  1  0
 75 76  1  0
 75 85  1  0
 76 79  1  0
 77 81  1  0
 77 76  1  0
 78 77  2  0
 81 80  1  0
 83 84  1  0
 83 81  1  0
 83 82  1  0
 85 88  1  1
 85 86  1  0
 87 85  1  0
M  ISO  4   7 100  15 100  47 101  48 101
M  END
>  <TORSDO>  (36) 
F 17

>  <SCORE>  (36) 
-16.264

>  <name>  (36) 
35

>  <ligand_id>  (36) 
35

>  <original_smiles>  (36) 
[H]c1c([H])c([H])c2c(c1[H])C([H])([H])C([H])([H])C([H])([H])C2([H])N([H])C(=O)C1([H])N(C(=O)C([H])(N([H])C(=O)C([H])(N([H])C([H])([H])[H])C([H])([H])[H])C(C([H])([H])[H])(C([H])([H])[H])C([H])([H])[H])C([H])([H])c2c([H])c(OC3([H])C([H])([H])C3([H])c3c([H])c([H])c([H])c(N([H])C(=O)N4C([H])([H])C([H])([H])C([H])([H])C([H])(n5nc(-c6c([H])c([H])c(Oc7c([H])c([H])c(F)c([H])c7F)c([H])c6[H])c(C(=O)N([H])[H])c5N([H])[H])C4([H])[H])c3[H])c([H])c([H])c2C1([H])[H]

>  <smiles>  (36) 
[H]c1c([H])c([H])c2c(c1[H])C([H])([H])C([H])([H])C([H])([H])C2([H])N([H])C(=O)C1([H])N(C(=O)C([H])(N([H])C(=O)C([H])(N([H])C([H])([H])[H])C([H])([H])[H])C(C([H])([H])[H])(C([H])([H])[H])C([H])([H])[H])C([H])([H])c2c([H])c(OC3([H])C([H])([H])C3([H])c3c([H])c([H])c([H])c(N([H])C(=O)N4C([H])([H])C([H])([H])C([H])([H])C([H])(n5nc(-c6c([H])c([H])c(Oc7c([H])c([H])c(F)c([H])c7F)c([H])c6[H])c(C(=O)N([H])[H])c5N([H])[H])C4([H])[H])c3[H])c([H])c([H])c2C1([H])[H]

$$$$
36:0:0
     RDKit          3D

 86 94  0  0  1  0  0  0  0  0999 V2000
  -30.7450  -15.8510   19.9070 C   0  0  0  0  0  0  0  0  0  0  0  0
  -30.7490  -13.2780   19.1810 C   0  0  0  0  0  2  0  0  0  0  0  0
  -29.8500  -12.8490   17.9870 C   0  0  0  0  0  2  0  0  0  0  0  0
  -28.4260  -12.5360   18.4620 C   0  0  0  0  0  2  0  0  0  0  0  0
  -27.9410  -13.5880   19.4840 C   0  0  0  0  0  3  0  0  0  0  0  0
  -28.9770  -13.9360   20.5800 C   0  0  0  0  0  2  0  0  0  0  0  0
  -30.1610  -14.5060   19.8940 N   0  0  0  0  0  0  0  0  0  0  0  0
  -31.9660  -15.7090   19.6910 O   0  0  0  0  0  0  0  0  0  0  0  0
  -29.3470  -20.0980   22.5040 C   0  0  0  0  0  2  0  0  0  0  0  0
  -30.7770  -20.5660   22.4150 C   0  0  0  0  0  2  0  0  0  0  0  0
  -29.6270  -18.7110   19.3190 C   0  0  0  0  0  2  0  0  0  0  0  0
  -30.6670  -18.1970   21.1720 C   0  0  0  0  0  2  0  0  0  0  0  0
  -29.8690  -20.4220   19.9180 C   0  0  0  0  0  2  0  0  0  0  0  0
  -30.1850  -19.7380   21.2890 C   0  0  1  0  0  0  0  0  0  0  0  0
  -30.1300  -17.2880   20.1010 N   0  0  0  0  0  0  0  0  0  0  0  0
  -25.6050  -14.1870   20.2670 C   0  0  0  0  0  0  0  0  0  0  0  0
  -24.5280  -13.4380   20.6490 C   0  0  0  0  0  0  0  0  0  0  0  0
  -24.9630  -12.0770   20.6210 C   0  0  0  0  0  0  0  0  0  0  0  0
  -26.6220  -13.2880   20.0180 N   0  0  0  0  0  0  0  0  0  0  0  0
  -26.2510  -12.0090   20.3000 N   0  0  0  0  0  0  0  0  0  0  0  0
  -24.2010  -10.8350   20.8220 C   0  0  0  0  0  0  0  0  0  0  0  0
  -24.6070   -9.8630   21.7610 C   0  0  0  0  0  3  0  0  0  0  0  0
  -23.8440   -8.6910   21.9540 C   0  0  0  0  0  3  0  0  0  0  0  0
  -22.6590   -8.4830   21.2070 C   0  0  0  0  0  0  0  0  0  0  0  0
  -22.2720   -9.4430   20.2570 C   0  0  0  0  0  3  0  0  0  0  0  0
  -23.0350  -10.6060   20.0630 C   0  0  0  0  0  3  0  0  0  0  0  0
  -21.8700   -7.3620   21.3080 O   0  0  0  0  0  0  0  0  0  0  0  0
  -21.8180   -6.6190   22.4600 C   0  0  0  0  0  0  0  0  0  0  0  0
  -21.4060   -7.1790   23.6890 C   0  0  0  0  0  3  0  0  0  0  0  0
  -21.3000   -6.3640   24.8350 C   0  0  0  0  0  3  0  0  0  0  0  0
  -21.5970   -4.9900   24.7510 C   0  0  0  0  0  0  0  0  0  0  0  0
  -22.0030   -4.4300   23.5270 C   0  0  0  0  0  3  0  0  0  0  0  0
  -22.1100   -5.2430   22.3840 C   0  0  0  0  0  0  0  0  0  0  0  0
  -22.4800   -4.6940   21.2020 F   0  0  0  0  0  0  0  0  0  0  0  0
  -21.4900   -4.2040   25.8480 F   0  0  0  0  0  0  0  0  0  0  0  0
  -23.1480  -13.9550   20.9220 C   0  0  0  0  0  0  0  0  0  0  0  0
  -22.4140  -13.2950   21.8100 N   0  0  0  0  0  0  0  0  0  0  0  0
  -22.7340  -14.9820   20.3870 O   0  0  0  0  0  0  0  0  0  0  0  0
  -22.7660  -12.4640   22.2640 H   0  0  0  0  0  0  0  0  0  0  0  0
  -21.4880  -13.6260   22.0390 H   0  0  0  0  0  0  0  0  0  0  0  0
  -25.7980  -15.5530   20.0770 N   0  0  0  0  0  0  0  0  0  0  0  0
  -25.0450  -16.2230   20.1860 H   0  0  0  0  0  0  0  0  0  0  0  0
  -26.6540  -15.9700   19.7310 H   0  0  0  0  0  0  0  0  0  0  0  0
  -29.0600  -22.2190   20.0190 C   0  0  0  0  0  1  0  0  0  0  0  0
  -28.9550  -24.0340   19.3170 C   0  0  0  0  0  2  0  0  0  0  0  0
  -28.7620  -25.7440   19.7330 O   0  0  0  0  0  0  0  0  0  0  0  0
  -24.7810  -31.5860   22.8960 C   0  0  0  0  0  0  0  0  0  0  0  0
  -27.7040  -26.8830   19.6540 C   0  0  0  0  0  0  0  0  0  0  0  0
  -23.7140  -30.1980   21.1700 C   0  0  0  0  0  3  0  0  0  0  0  0
  -25.2900  -28.7410   19.6800 C   0  0  0  0  0  0  0  0  0  0  0  0
  -26.2740  -30.5340   21.0890 C   0  0  0  0  0  2  0  0  0  0  0  0
  -26.4480  -29.1490   20.3540 C   0  0  0  0  0  0  0  0  0  0  0  0
  -27.6320  -28.2440   20.3160 C   0  0  0  0  0  3  0  0  0  0  0  0
  -26.5050  -26.6910   18.9220 C   0  0  0  0  0  3  0  0  0  0  0  0
  -25.3570  -27.5440   18.9420 C   0  0  0  0  0  3  0  0  0  0  0  0
  -24.0140  -29.5960   19.7660 C   0  0  0  0  0  2  0  0  0  0  0  0
  -24.9440  -30.8060   21.7730 N   0  0  0  0  0  0  0  0  0  0  0  0
  -23.6650  -31.7780   23.4070 O   0  0  0  0  0  0  0  0  0  0  0  0
  -23.0610  -29.1220   22.0760 C   0  0  0  0  0  0  0  0  0  0  0  0
  -21.7310  -28.9320   21.9790 N   0  0  0  0  0  0  0  0  0  0  0  0
  -23.7620  -28.4540   22.8400 O   0  0  0  0  0  0  0  0  0  0  0  0
  -21.2090  -29.5230   21.3470 H   0  0  0  0  0  0  0  0  0  0  0  0
  -18.3930  -27.6180   22.5590 C   0  0  0  0  0  0  0  0  0  0  0  0
  -20.9610  -27.9060   22.6950 C   0  0  0  0  0  3  0  0  0  0  0  0
  -21.0440  -26.5430   21.9680 C   0  0  0  0  0  2  0  0  0  0  0  0
  -19.8870  -26.3090   20.9910 C   0  0  0  0  0  2  0  0  0  0  0  0
  -18.5440  -26.3570   21.7260 C   0  0  0  0  0  2  0  0  0  0  0  0
  -19.5260  -28.3540   23.0000 C   0  0  0  0  0  0  0  0  0  0  0  0
  -19.3250  -29.5340   23.7470 C   0  0  0  0  0  3  0  0  0  0  0  0
  -18.0250  -29.9830   24.0500 C   0  0  0  0  0  3  0  0  0  0  0  0
  -16.9080  -29.2460   23.6210 C   0  0  0  0  0  3  0  0  0  0  0  0
  -17.0930  -28.0630   22.8830 C   0  0  0  0  0  3  0  0  0  0  0  0
  -25.9880  -32.2900   23.5910 C   0  0  0  0  0  3  0  0  0  0  0  0
  -25.5720  -33.6560   23.9650 N   0  0  0  0  0  0  0  0  0  0  0  0
  -25.8790  -34.7700   23.2870 C   0  0  0  0  0  0  0  0  0  0  0  0
  -26.6000  -34.7600   22.2860 O   0  0  0  0  0  0  0  0  0  0  0  0
  -24.9340  -33.7320   24.7430 H   0  0  0  0  0  0  0  0  0  0  0  0
  -24.0570  -36.4850   22.9740 C   0  0  0  0  0  1  0  0  0  0  0  0
  -25.3000  -36.1090   23.7960 C   0  0  0  0  0  3  0  0  0  0  0  0
  -27.3520  -37.0880   24.7310 C   0  0  0  0  0  1  0  0  0  0  0  0
  -26.2710  -37.2250   23.7580 N   0  0  0  0  0  0  0  0  0  0  0  0
  -25.8050  -38.1140   23.9240 H   0  0  0  0  0  0  0  0  0  0  0  0
  -26.4980  -31.5200   24.8720 C   0  0  1  0  0  0  0  0  0  0  0  0
  -25.3830  -31.2100   25.8990 C   0  0  0  0  0  1  0  0  0  0  0  0
  -27.1610  -30.1780   24.4860 C   0  0  0  0  0  1  0  0  0  0  0  0
  -27.5850  -32.3550   25.5890 C   0  0  0  0  0  1  0  0  0  0  0  0
  1 15  1  0
  2  7  1  0
  3  4  1  0
  3  2  1  0
  5  4  1  0
  5 19  1  0
  5  6  1  0
  7  1  1  0
  7  6  1  0
  8  1  2  0
 10  9  1  0
 11 13  1  0
 11 15  1  0
 14 12  1  6
 13 14  1  0
 14 10  1  0
 14  9  1  0
 15 12  1  0
 16 17  2  0
 17 36  1  0
 18 17  1  0
 18 21  1  0
 19 16  1  0
 19 20  1  0
 20 18  2  0
 21 22  1  0
 22 23  2  0
 24 27  1  0
 24 23  1  0
 25 24  2  0
 26 25  1  0
 26 21  2  0
 27 28  1  0
 28 29  1  0
 29 30  2  0
 31 30  1  0
 31 35  1  0
 32 31  2  0
 33 28  2  0
 33 32  1  0
 34 33  1  0
 36 37  1  0
 37 40  1  0
 37 39  1  0
 38 36  2  0
 41 42  1  0
 41 16  1  0
 43 41  1  0
 45 46  1  0
 45 44  1  0
 47 58  2  0
 48 46  1  0
 48 53  1  0
 49 57  1  0
 49 59  1  0
 50 56  1  0
 50 52  1  0
 51 57  1  0
 52 51  1  0
 53 52  2  0
 54 55  1  0
 54 48  2  0
 55 50  2  0
 56 49  1  0
 57 47  1  0
 59 61  2  0
 60 59  1  0
 62 60  1  0
 63 72  2  0
 63 68  1  0
 64 60  1  0
 64 68  1  0
 65 64  1  0
 66 67  1  0
 66 65  1  0
 67 63  1  0
 68 69  2  0
 69 70  1  0
 71 70  2  0
 72 71  1  0
 73 47  1  0
 73 74  1  0
 73 83  1  0
 74 77  1  0
 75 79  1  0
 75 74  1  0
 76 75  2  0
 79 78  1  0
 81 79  1  0
 81 82  1  0
 81 80  1  0
 83 86  1  1
 83 84  1  0
 85 83  1  0
M  ISO  4   1 100  15 100  45 101  46 101
M  END
>  <TORSDO>  (37) 
F 17

>  <SCORE>  (37) 
-13.612

>  <name>  (37) 
36

>  <ligand_id>  (37) 
36

>  <original_smiles>  (37) 
[H]c1c([H])c([H])c2c(c1[H])C([H])([H])C([H])([H])C([H])([H])C2([H])N([H])C(=O)C1([H])N(C(=O)C([H])(N([H])C(=O)C([H])(N([H])C([H])([H])[H])C([H])([H])[H])C(C([H])([H])[H])(C([H])([H])[H])C([H])([H])[H])C([H])([H])c2c([H])c(OC([H])([H])C([H])([H])C3([H])C([H])([H])N(C(=O)N4C([H])([H])C([H])([H])C([H])([H])C([H])(n5nc(-c6c([H])c([H])c(Oc7c([H])c([H])c(F)c([H])c7F)c([H])c6[H])c(C(=O)N([H])[H])c5N([H])[H])C4([H])[H])C([H])([H])C34C([H])([H])C4([H])[H])c([H])c([H])c2C1([H])[H]

>  <smiles>  (37) 
[H]c1c([H])c([H])c2c(c1[H])C([H])([H])C([H])([H])C([H])([H])C2([H])N([H])C(=O)C1([H])N(C(=O)C([H])(N([H])C(=O)C([H])(N([H])C([H])([H])[H])C([H])([H])[H])C(C([H])([H])[H])(C([H])([H])[H])C([H])([H])[H])C([H])([H])c2c([H])c(OC([H])([H])C([H])([H])C3([H])C([H])([H])N(C(=O)N4C([H])([H])C([H])([H])C([H])([H])C([H])(n5nc(-c6c([H])c([H])c(Oc7c([H])c([H])c(F)c([H])c7F)c([H])c6[H])c(C(=O)N([H])[H])c5N([H])[H])C4([H])[H])C([H])([H])C34C([H])([H])C4([H])[H])c([H])c([H])c2C1([H])[H]

$$$$
37:0:0
     RDKit          3D

 94103  0  0  1  0  0  0  0  0999 V2000
  -31.1370  -18.8890   22.4360 C   0  0  0  0  0  3  0  0  0  0  0  0
  -30.9570  -17.5960   21.9050 C   0  0  0  0  0  3  0  0  0  0  0  0
  -29.4750  -18.5660   20.2530 C   0  0  0  0  0  3  0  0  0  0  0  0
  -29.6710  -19.9280   20.7510 C   0  0  0  0  0  0  0  0  0  0  0  0
  -30.5020  -20.0420   21.9110 C   0  0  0  0  0  0  0  0  0  0  0  0
  -30.0980  -17.3740   20.8130 C   0  0  0  0  0  0  0  0  0  0  0  0
  -30.6220  -14.8470   20.3150 C   0  0  0  0  0  0  0  0  0  0  0  0
  -30.4240  -12.5910   19.2480 C   0  0  0  0  0  2  0  0  0  0  0  0
  -29.4750  -12.6780   18.0340 C   0  0  0  0  0  2  0  0  0  0  0  0
  -28.0080  -12.4890   18.4770 C   0  0  0  0  0  2  0  0  0  0  0  0
  -27.6400  -13.3640   19.7060 C   0  0  0  0  0  3  0  0  0  0  0  0
  -28.7080  -13.2620   20.8150 C   0  0  0  0  0  2  0  0  0  0  0  0
  -29.9940  -13.6270   20.2100 N   0  0  0  0  0  0  0  0  0  0  0  0
  -31.8220  -14.9470   20.0510 O   0  0  0  0  0  0  0  0  0  0  0  0
  -29.8130  -15.9730   20.4100 N   0  0  0  0  0  0  0  0  0  0  0  0
  -28.8350  -15.7730   20.2720 H   0  0  0  0  0  0  0  0  0  0  0  0
  -25.2550  -13.9490   20.4450 C   0  0  0  0  0  0  0  0  0  0  0  0
  -24.1950  -13.1720   20.8260 C   0  0  0  0  0  0  0  0  0  0  0  0
  -24.6660  -11.8240   20.8030 C   0  0  0  0  0  0  0  0  0  0  0  0
  -26.3020  -13.0730   20.2080 N   0  0  0  0  0  0  0  0  0  0  0  0
  -25.9550  -11.7900   20.4890 N   0  0  0  0  0  0  0  0  0  0  0  0
  -23.9460  -10.5580   21.0030 C   0  0  0  0  0  0  0  0  0  0  0  0
  -24.3880   -9.6000   21.9400 C   0  0  0  0  0  3  0  0  0  0  0  0
  -23.6710   -8.3990   22.1290 C   0  0  0  0  0  3  0  0  0  0  0  0
  -22.4960   -8.1500   21.3800 C   0  0  0  0  0  0  0  0  0  0  0  0
  -22.0720   -9.0980   20.4320 C   0  0  0  0  0  3  0  0  0  0  0  0
  -22.7900  -10.2890   20.2410 C   0  0  0  0  0  3  0  0  0  0  0  0
  -21.7480   -7.0020   21.4790 O   0  0  0  0  0  0  0  0  0  0  0  0
  -21.7120   -6.2620   22.6330 C   0  0  0  0  0  0  0  0  0  0  0  0
  -21.2980   -6.8190   23.8630 C   0  0  0  0  0  3  0  0  0  0  0  0
  -21.2120   -6.0070   25.0110 C   0  0  0  0  0  3  0  0  0  0  0  0
  -21.5250   -4.6360   24.9290 C   0  0  0  0  0  0  0  0  0  0  0  0
  -21.9310   -4.0790   23.7040 C   0  0  0  0  0  3  0  0  0  0  0  0
  -22.0210   -4.8900   22.5600 C   0  0  0  0  0  0  0  0  0  0  0  0
  -22.3920   -4.3430   21.3770 F   0  0  0  0  0  0  0  0  0  0  0  0
  -21.4350   -3.8530   26.0290 F   0  0  0  0  0  0  0  0  0  0  0  0
  -22.7950  -13.6430   21.0940 C   0  0  0  0  0  0  0  0  0  0  0  0
  -22.0700  -12.9500   21.9640 N   0  0  0  0  0  0  0  0  0  0  0  0
  -22.3520  -14.6610   20.5640 O   0  0  0  0  0  0  0  0  0  0  0  0
  -22.4400  -12.1290   22.4200 H   0  0  0  0  0  0  0  0  0  0  0  0
  -21.1290  -13.2460   22.1800 H   0  0  0  0  0  0  0  0  0  0  0  0
  -25.4100  -15.3210   20.2600 N   0  0  0  0  0  0  0  0  0  0  0  0
  -24.6400  -15.9690   20.3830 H   0  0  0  0  0  0  0  0  0  0  0  0
  -26.2490  -15.7690   19.9160 H   0  0  0  0  0  0  0  0  0  0  0  0
  -29.1000  -21.1830   19.9970 C   0  0  0  0  0  0  0  0  0  0  0  0
  -29.0040  -22.4480   20.5580 N   0  0  0  0  0  0  0  0  0  0  0  0
  -28.7300  -21.0240   18.8330 O   0  0  0  0  0  0  0  0  0  0  0  0
  -29.2710  -22.4970   21.5310 H   0  0  0  0  0  0  0  0  0  0  0  0
  -28.7120  -23.7930   19.8770 C   0  0  0  0  0  2  0  0  0  0  0  0
  -28.3010  -25.0890   20.7610 C   0  0  0  0  0  2  0  0  0  0  0  0
  -28.4400  -26.5050   20.2660 O   0  0  0  0  0  0  0  0  0  0  0  0
  -24.6370  -31.9380   23.2530 C   0  0  0  0  0  0  0  0  0  0  0  0
  -27.3200  -27.3610   20.2540 C   0  0  0  0  0  0  0  0  0  0  0  0
  -23.4670  -30.5210   21.6050 C   0  0  0  0  0  3  0  0  0  0  0  0
  -24.9460  -28.9710   20.2060 C   0  0  0  0  0  0  0  0  0  0  0  0
  -26.0070  -30.8570   21.4490 C   0  0  0  0  0  2  0  0  0  0  0  0
  -26.1080  -29.4710   20.8100 C   0  0  0  0  0  0  0  0  0  0  0  0
  -27.3000  -28.6820   20.8160 C   0  0  0  0  0  3  0  0  0  0  0  0
  -26.1360  -26.9150   19.6310 C   0  0  0  0  0  3  0  0  0  0  0  0
  -24.9640  -27.7000   19.6070 C   0  0  0  0  0  3  0  0  0  0  0  0
  -23.7040  -29.8410   20.2320 C   0  0  0  0  0  2  0  0  0  0  0  0
  -24.7220  -31.1250   22.1590 N   0  0  0  0  0  0  0  0  0  0  0  0
  -23.5440  -32.2060   23.7750 O   0  0  0  0  0  0  0  0  0  0  0  0
  -22.8030  -29.5020   22.5630 C   0  0  0  0  0  0  0  0  0  0  0  0
  -21.4800  -29.3140   22.4270 N   0  0  0  0  0  0  0  0  0  0  0  0
  -23.4800  -28.8840   23.3890 O   0  0  0  0  0  0  0  0  0  0  0  0
  -20.9930  -29.8650   21.7330 H   0  0  0  0  0  0  0  0  0  0  0  0
  -18.1090  -28.0840   22.9020 C   0  0  0  0  0  0  0  0  0  0  0  0
  -20.6630  -28.3700   23.1910 C   0  0  0  0  0  3  0  0  0  0  0  0
  -20.7830  -26.9390   22.6200 C   0  0  0  0  0  2  0  0  0  0  0  0
  -19.6930  -26.6020   21.5970 C   0  0  0  0  0  2  0  0  0  0  0  0
  -18.3050  -26.7370   22.2290 C   0  0  0  0  0  2  0  0  0  0  0  0
  -19.2170  -28.8590   23.3390 C   0  0  0  0  0  0  0  0  0  0  0  0
  -18.9820  -30.1200   23.9280 C   0  0  0  0  0  3  0  0  0  0  0  0
  -17.6700  -30.6080   24.0840 C   0  0  0  0  0  3  0  0  0  0  0  0
  -16.5770  -29.8330   23.6620 C   0  0  0  0  0  3  0  0  0  0  0  0
  -16.7970  -28.5720   23.0770 C   0  0  0  0  0  3  0  0  0  0  0  0
  -25.9040  -32.5890   23.8890 C   0  0  0  0  0  3  0  0  0  0  0  0
  -26.4080  -31.8350   25.1830 C   0  0  1  0  0  0  0  0  0  0  0  0
  -25.3000  -31.6040   26.2370 C   0  0  0  0  0  1  0  0  0  0  0  0
  -27.0070  -30.4580   24.8180 C   0  0  0  0  0  1  0  0  0  0  0  0
  -27.5420  -32.6480   25.8530 C   0  0  0  0  0  1  0  0  0  0  0  0
  -25.5790  -33.9880   24.2010 N   0  0  0  0  0  0  0  0  0  0  0  0
  -25.9150  -35.0370   23.4380 C   0  0  0  0  0  0  0  0  0  0  0  0
  -26.6010  -34.9290   22.4180 O   0  0  0  0  0  0  0  0  0  0  0  0
  -24.9730  -34.1470   24.9930 H   0  0  0  0  0  0  0  0  0  0  0  0
  -24.1820  -36.8180   23.0410 C   0  0  0  0  0  1  0  0  0  0  0  0
  -25.4120  -36.4260   23.8760 C   0  0  0  0  0  3  0  0  0  0  0  0
  -27.5280  -37.3300   24.7330 C   0  0  0  0  0  1  0  0  0  0  0  0
  -26.4410  -37.4850   23.7720 N   0  0  0  0  0  0  0  0  0  0  0  0
  -26.0270  -38.4040   23.9040 H   0  0  0  0  0  0  0  0  0  0  0  0
  -30.9320  -21.3780   24.1430 C   0  0  0  0  0  2  0  0  0  0  0  0
  -29.7330  -22.0160   23.4950 C   0  0  0  0  0  2  0  0  0  0  0  0
  -30.7800  -21.3390   22.6320 C   0  0  0  0  0  3  0  0  0  0  0  0
  2  1  2  0
  3  4  1  0
  3  6  2  0
  4  5  2  0
  5  1  1  0
  5 94  1  0
  6  2  1  0
  7 15  1  0
  8 13  1  0
  9 10  1  0
  9  8  1  0
 11 10  1  0
 11 20  1  0
 11 12  1  0
 13  7  1  0
 13 12  1  0
 14  7  2  0
 15  6  1  0
 16 15  1  0
 17 18  2  0
 18 37  1  0
 19 18  1  0
 19 22  1  0
 20 17  1  0
 20 21  1  0
 21 19  2  0
 22 23  1  0
 23 24  2  0
 25 28  1  0
 25 24  1  0
 26 25  2  0
 27 26  1  0
 27 22  2  0
 28 29  1  0
 29 30  1  0
 30 31  2  0
 32 31  1  0
 32 36  1  0
 33 32  2  0
 34 29  2  0
 34 33  1  0
 35 34  1  0
 37 38  1  0
 38 41  1  0
 38 40  1  0
 39 37  2  0
 42 43  1  0
 42 17  1  0
 44 42  1  0
 45 46  1  0
 45  4  1  0
 46 48  1  0
 47 45  2  0
 49 46  1  0
 49 50  1  0
 51 50  1  0
 52 63  2  0
 53 51  1  0
 53 58  1  0
 54 62  1  0
 54 64  1  0
 55 61  1  0
 55 57  1  0
 56 62  1  0
 57 58  2  0
 57 56  1  0
 59 53  2  0
 60 59  1  0
 60 55  2  0
 61 54  1  0
 62 52  1  0
 64 66  2  0
 65 64  1  0
 67 65  1  0
 68 77  2  0
 68 73  1  0
 69 65  1  0
 69 73  1  0
 70 69  1  0
 71 72  1  0
 71 70  1  0
 72 68  1  0
 73 74  2  0
 74 75  1  0
 76 75  2  0
 77 76  1  0
 78 52  1  0
 78 83  1  0
 78 79  1  0
 79 82  1  1
 79 80  1  0
 81 79  1  0
 83 86  1  0
 84 88  1  0
 84 83  1  0
 85 84  2  0
 88 87  1  0
 90 88  1  0
 90 91  1  0
 90 89  1  0
 93 92  1  0
 94 93  1  0
 94 92  1  0
M  ISO  4   7 100  15 100  50 101  51 101
M  END
>  <TORSDO>  (38) 
F 20

>  <SCORE>  (38) 
-14.473

>  <name>  (38) 
37

>  <ligand_id>  (38) 
37

>  <original_smiles>  (38) 
[H]c1c([H])c([H])c2c(c1[H])C([H])([H])C([H])([H])C([H])([H])C2([H])N([H])C(=O)C1([H])N(C(=O)C([H])(N([H])C(=O)C([H])(N([H])C([H])([H])[H])C([H])([H])[H])C(C([H])([H])[H])(C([H])([H])[H])C([H])([H])[H])C([H])([H])c2c([H])c(OC([H])([H])C([H])([H])N([H])C(=O)c3c([H])c(N([H])C(=O)N4C([H])([H])C([H])([H])C([H])([H])C([H])(n5nc(-c6c([H])c([H])c(Oc7c([H])c([H])c(F)c([H])c7F)c([H])c6[H])c(C(=O)N([H])[H])c5N([H])[H])C4([H])[H])c([H])c([H])c3C3([H])C([H])([H])C3([H])[H])c([H])c([H])c2C1([H])[H]

>  <smiles>  (38) 
[H]c1c([H])c([H])c2c(c1[H])C([H])([H])C([H])([H])C([H])([H])C2([H])N([H])C(=O)C1([H])N(C(=O)C([H])(N([H])C(=O)C([H])(N([H])C([H])([H])[H])C([H])([H])[H])C(C([H])([H])[H])(C([H])([H])[H])C([H])([H])[H])C([H])([H])c2c([H])c(OC([H])([H])C([H])([H])N([H])C(=O)c3c([H])c(N([H])C(=O)N4C([H])([H])C([H])([H])C([H])([H])C([H])(n5nc(-c6c([H])c([H])c(Oc7c([H])c([H])c(F)c([H])c7F)c([H])c6[H])c(C(=O)N([H])[H])c5N([H])[H])C4([H])[H])c([H])c([H])c3C3([H])C([H])([H])C3([H])[H])c([H])c([H])c2C1([H])[H]

$$$$
39:0:0
     RDKit          3D

 91100  0  0  1  0  0  0  0  0999 V2000
  -28.8860  -23.6450   19.4140 C   0  0  0  0  0  3  0  0  0  0  0  0
  -28.9050  -22.6420   20.6180 C   0  0  0  0  0  2  0  0  0  0  0  0
  -29.5770  -21.6250   18.5750 C   0  0  0  0  0  2  0  0  0  0  0  0
  -28.9940  -21.1890   19.9330 C   0  0  0  0  0  3  0  0  0  0  0  0
  -29.2780  -23.0420   18.3600 N   0  0  0  0  0  2  0  0  0  0  0  0
  -31.8180  -19.0270   21.5520 C   0  0  0  0  0  3  0  0  0  0  0  0
  -31.0110  -20.1140   21.1580 C   0  0  0  0  0  3  0  0  0  0  0  0
  -31.4320  -17.6890   21.3170 C   0  0  0  0  0  3  0  0  0  0  0  0
  -29.3950  -18.5150   20.2900 C   0  0  0  0  0  3  0  0  0  0  0  0
  -29.7790  -19.9110   20.5030 C   0  0  0  0  0  0  0  0  0  0  0  0
  -30.2090  -17.3690   20.6840 C   0  0  0  0  0  0  0  0  0  0  0  0
  -30.5950  -14.7850   20.3720 C   0  0  0  0  0  0  0  0  0  0  0  0
  -30.3800  -12.5100   19.3540 C   0  0  0  0  0  2  0  0  0  0  0  0
  -29.4410  -12.5760   18.1310 C   0  0  0  0  0  2  0  0  0  0  0  0
  -27.9740  -12.3940   18.5690 C   0  0  0  0  0  2  0  0  0  0  0  0
  -27.5990  -13.2770   19.7890 C   0  0  0  0  0  3  0  0  0  0  0  0
  -28.6640  -13.2170   20.9060 C   0  0  0  0  0  2  0  0  0  0  0  0
  -29.9520  -13.5690   20.2960 N   0  0  0  0  0  0  0  0  0  0  0  0
  -31.7870  -14.8560   20.0650 O   0  0  0  0  0  0  0  0  0  0  0  0
  -29.8250  -15.9370   20.5290 N   0  0  0  0  0  0  0  0  0  0  0  0
  -28.8360  -15.7550   20.5490 H   0  0  0  0  0  0  0  0  0  0  0  0
  -25.2080  -13.8460   20.5240 C   0  0  0  0  0  0  0  0  0  0  0  0
  -24.1510  -13.0630   20.8990 C   0  0  0  0  0  0  0  0  0  0  0  0
  -24.6270  -11.7160   20.8680 C   0  0  0  0  0  0  0  0  0  0  0  0
  -26.2600  -12.9770   20.2870 N   0  0  0  0  0  0  0  0  0  0  0  0
  -25.9180  -11.6900   20.5590 N   0  0  0  0  0  0  0  0  0  0  0  0
  -23.9090  -10.4490   21.0580 C   0  0  0  0  0  0  0  0  0  0  0  0
  -24.3560   -9.4800   21.9820 C   0  0  0  0  0  3  0  0  0  0  0  0
  -23.6380   -8.2770   22.1630 C   0  0  0  0  0  3  0  0  0  0  0  0
  -22.4600   -8.0340   21.4180 C   0  0  0  0  0  0  0  0  0  0  0  0
  -22.0310   -8.9930   20.4810 C   0  0  0  0  0  3  0  0  0  0  0  0
  -22.7500  -10.1880   20.2980 C   0  0  0  0  0  3  0  0  0  0  0  0
  -21.7140   -6.8850   21.5070 O   0  0  0  0  0  0  0  0  0  0  0  0
  -21.6870   -6.1290   22.6530 C   0  0  0  0  0  0  0  0  0  0  0  0
  -21.2740   -6.6690   23.8900 C   0  0  0  0  0  3  0  0  0  0  0  0
  -21.1920   -5.8420   25.0270 C   0  0  0  0  0  3  0  0  0  0  0  0
  -21.5150   -4.4750   24.9290 C   0  0  0  0  0  0  0  0  0  0  0  0
  -21.9190   -3.9340   23.6960 C   0  0  0  0  0  3  0  0  0  0  0  0
  -22.0020   -4.7590   22.5610 C   0  0  0  0  0  0  0  0  0  0  0  0
  -22.3710   -4.2280   21.3710 F   0  0  0  0  0  0  0  0  0  0  0  0
  -21.4310   -3.6760   26.0200 F   0  0  0  0  0  0  0  0  0  0  0  0
  -22.7510  -13.5300   21.1750 C   0  0  0  0  0  0  0  0  0  0  0  0
  -22.0320  -12.8260   22.0420 N   0  0  0  0  0  0  0  0  0  0  0  0
  -22.3030  -14.5520   20.6580 O   0  0  0  0  0  0  0  0  0  0  0  0
  -22.4070  -12.0010   22.4850 H   0  0  0  0  0  0  0  0  0  0  0  0
  -21.0950  -13.1210   22.2740 H   0  0  0  0  0  0  0  0  0  0  0  0
  -25.3520  -15.2180   20.3400 N   0  0  0  0  0  0  0  0  0  0  0  0
  -24.5620  -15.8460   20.4270 H   0  0  0  0  0  0  0  0  0  0  0  0
  -26.1750  -15.6720   19.9620 H   0  0  0  0  0  0  0  0  0  0  0  0
  -28.2940  -25.1460   19.2220 C   0  0  0  0  0  2  0  0  0  0  0  0
  -28.2620  -26.3270   20.1650 O   0  0  0  0  0  0  0  0  0  0  0  0
  -24.6170  -31.8820   23.2280 C   0  0  0  0  0  0  0  0  0  0  0  0
  -27.1760  -27.2550   20.1210 C   0  0  0  0  0  0  0  0  0  0  0  0
  -23.4020  -30.4960   21.5960 C   0  0  0  0  0  3  0  0  0  0  0  0
  -24.8330  -28.9540   20.1520 C   0  0  0  0  0  0  0  0  0  0  0  0
  -25.9520  -30.7810   21.4070 C   0  0  0  0  0  2  0  0  0  0  0  0
  -26.0200  -29.4040   20.7430 C   0  0  0  0  0  0  0  0  0  0  0  0
  -27.1910  -28.5690   20.7170 C   0  0  0  0  0  3  0  0  0  0  0  0
  -25.9370  -26.8820   19.5360 C   0  0  0  0  0  3  0  0  0  0  0  0
  -24.8010  -27.7010   19.5400 C   0  0  0  0  0  3  0  0  0  0  0  0
  -23.6080  -29.8430   20.2080 C   0  0  0  0  0  2  0  0  0  0  0  0
  -24.6760  -31.0730   22.1300 N   0  0  0  0  0  0  0  0  0  0  0  0
  -23.5350  -32.1620   23.7670 O   0  0  0  0  0  0  0  0  0  0  0  0
  -22.7410  -29.4720   22.5520 C   0  0  0  0  0  0  0  0  0  0  0  0
  -21.4140  -29.2900   22.4280 N   0  0  0  0  0  0  0  0  0  0  0  0
  -23.4200  -28.8480   23.3700 O   0  0  0  0  0  0  0  0  0  0  0  0
  -20.9240  -29.8460   21.7390 H   0  0  0  0  0  0  0  0  0  0  0  0
  -18.0410  -28.0730   22.9380 C   0  0  0  0  0  0  0  0  0  0  0  0
  -20.5980  -28.3510   23.2030 C   0  0  0  0  0  3  0  0  0  0  0  0
  -20.7080  -26.9170   22.6370 C   0  0  0  0  0  2  0  0  0  0  0  0
  -19.6070  -26.5820   21.6260 C   0  0  0  0  0  2  0  0  0  0  0  0
  -18.2250  -26.7210   22.2680 C   0  0  0  0  0  2  0  0  0  0  0  0
  -19.1540  -28.8450   23.3630 C   0  0  0  0  0  0  0  0  0  0  0  0
  -18.9260  -30.1090   23.9500 C   0  0  0  0  0  3  0  0  0  0  0  0
  -17.6170  -30.6010   24.1140 C   0  0  0  0  0  3  0  0  0  0  0  0
  -16.5180  -29.8270   23.7020 C   0  0  0  0  0  3  0  0  0  0  0  0
  -16.7310  -28.5640   23.1200 C   0  0  0  0  0  3  0  0  0  0  0  0
  -25.9010  -32.5130   23.8420 C   0  0  0  0  0  3  0  0  0  0  0  0
  -25.5930  -33.9120   24.1750 N   0  0  0  0  0  0  0  0  0  0  0  0
  -25.9090  -34.9660   23.4100 C   0  0  0  0  0  0  0  0  0  0  0  0
  -26.5670  -34.8630   22.3720 O   0  0  0  0  0  0  0  0  0  0  0  0
  -25.0130  -34.0670   24.9870 H   0  0  0  0  0  0  0  0  0  0  0  0
  -24.1760  -36.7570   23.0760 C   0  0  0  0  0  1  0  0  0  0  0  0
  -25.4260  -36.3540   23.8740 C   0  0  0  0  0  3  0  0  0  0  0  0
  -27.5670  -37.2430   24.6830 C   0  0  0  0  0  1  0  0  0  0  0  0
  -26.4560  -37.4090   23.7480 N   0  0  0  0  0  0  0  0  0  0  0  0
  -26.0500  -38.3280   23.8970 H   0  0  0  0  0  0  0  0  0  0  0  0
  -26.4200  -31.7450   25.1200 C   0  0  1  0  0  0  0  0  0  0  0  0
  -25.3300  -31.5120   26.1920 C   0  0  0  0  0  1  0  0  0  0  0  0
  -27.0000  -30.3650   24.7350 C   0  0  0  0  0  1  0  0  0  0  0  0
  -27.5750  -32.5390   25.7740 C   0  0  0  0  0  1  0  0  0  0  0  0
  1 50  1  0
  1  2  1  0
  3  4  1  0
  4 10  1  0
  4  2  1  0
  5  3  1  0
  5  1  1  0
  7  6  2  0
  8  6  1  0
  9 10  2  0
  9 11  1  0
 10  7  1  0
 11  8  2  0
 12 20  1  0
 13 18  1  0
 14 15  1  0
 14 13  1  0
 16 15  1  0
 16 25  1  0
 16 17  1  0
 18 12  1  0
 18 17  1  0
 19 12  2  0
 20 21  1  0
 20 11  1  0
 22 23  2  0
 23 42  1  0
 24 23  1  0
 24 27  1  0
 25 22  1  0
 25 26  1  0
 26 24  2  0
 27 28  1  0
 28 29  2  0
 30 33  1  0
 30 29  1  0
 31 30  2  0
 32 31  1  0
 32 27  2  0
 33 34  1  0
 34 35  1  0
 35 36  2  0
 37 36  1  0
 37 41  1  0
 38 37  2  0
 39 34  2  0
 39 38  1  0
 40 39  1  0
 42 43  1  0
 43 46  1  0
 43 45  1  0
 44 42  2  0
 47 48  1  0
 47 22  1  0
 49 47  1  0
 50 51  1  0
 52 63  2  0
 53 51  1  0
 53 58  1  0
 54 62  1  0
 54 64  1  0
 55 61  1  0
 55 57  1  0
 56 62  1  0
 57 56  1  0
 58 57  2  0
 59 60  1  0
 59 53  2  0
 60 55  2  0
 61 54  1  0
 62 52  1  0
 64 66  2  0
 65 64  1  0
 67 65  1  0
 68 77  2  0
 68 73  1  0
 69 65  1  0
 69 73  1  0
 70 69  1  0
 71 72  1  0
 71 70  1  0
 72 68  1  0
 73 74  2  0
 74 75  1  0
 76 75  2  0
 77 76  1  0
 78 52  1  0
 78 79  1  0
 78 88  1  0
 79 82  1  0
 80 84  1  0
 80 79  1  0
 81 80  2  0
 84 83  1  0
 86 84  1  0
 86 87  1  0
 86 85  1  0
 88 91  1  1
 88 89  1  0
 90 88  1  0
M  ISO  4  12 100  20 100  50 101  51 101
M  END
>  <TORSDO>  (39) 
F 18

>  <SCORE>  (39) 
-14.820

>  <name>  (39) 
39

>  <ligand_id>  (39) 
39

>  <original_smiles>  (39) 
[H]c1c([H])c([H])c2c(c1[H])C([H])([H])C([H])([H])C([H])([H])C2([H])N([H])C(=O)C1([H])N(C(=O)C([H])(N([H])C(=O)C([H])(N([H])C([H])([H])[H])C([H])([H])[H])C(C([H])([H])[H])(C([H])([H])[H])C([H])([H])[H])C([H])([H])c2c([H])c(OC([H])([H])C3=NC([H])([H])C([H])(c4c([H])c([H])c([H])c(N([H])C(=O)N5C([H])([H])C([H])([H])C([H])([H])C([H])(n6nc(-c7c([H])c([H])c(Oc8c([H])c([H])c(F)c([H])c8F)c([H])c7[H])c(C(=O)N([H])[H])c6N([H])[H])C5([H])[H])c4[H])C3([H])[H])c([H])c([H])c2C1([H])[H]

>  <smiles>  (39) 
[H]c1c([H])c([H])c2c(c1[H])C([H])([H])C([H])([H])C([H])([H])C2([H])N([H])C(=O)C1([H])N(C(=O)C([H])(N([H])C(=O)C([H])(N([H])C([H])([H])[H])C([H])([H])[H])C(C([H])([H])[H])(C([H])([H])[H])C([H])([H])[H])C([H])([H])c2c([H])c(OC([H])([H])C3=NC([H])([H])C([H])(c4c([H])c([H])c([H])c(N([H])C(=O)N5C([H])([H])C([H])([H])C([H])([H])C([H])(n6nc(-c7c([H])c([H])c(Oc8c([H])c([H])c(F)c([H])c8F)c([H])c7[H])c(C(=O)N([H])[H])c6N([H])[H])C5([H])[H])c4[H])C3([H])[H])c([H])c([H])c2C1([H])[H]

$$$$
40:0:0
     RDKit          3D

 90 99  0  0  1  0  0  0  0  0999 V2000
  -27.6360  -21.7610   21.7580 C   0  0  0  0  0  3  0  0  0  0  0  0
  -28.2010  -23.0140   21.2860 C   0  0  0  0  0  2  0  0  0  0  0  0
  -27.6230  -20.6330   21.0140 C   0  0  0  0  0  3  0  0  0  0  0  0
  -29.0520  -23.0740   20.2480 C   0  0  0  0  0  3  0  0  0  0  0  0
  -30.4800  -20.1770   20.3360 C   0  0  0  0  0  2  0  0  0  0  0  0
  -28.6920  -19.0700   19.3350 C   0  0  0  0  0  2  0  0  0  0  0  0
  -29.5100  -21.4560   19.6860 C   0  0  0  0  0  3  0  0  0  0  0  0
  -30.1780  -18.6170   19.6690 C   0  0  0  0  0  3  0  0  0  0  0  0
  -28.3300  -20.5310   19.6900 N   0  0  2  0  0  4  0  0  0  0  0  0
  -27.6920  -20.8520   18.9760 H   0  0  0  0  0  0  0  0  0  0  0  0
  -31.0540  -15.7060   19.8610 C   0  0  0  0  0  0  0  0  0  0  0  0
  -30.9530  -13.2490   18.9970 C   0  0  0  0  0  2  0  0  0  0  0  0
  -29.9920  -13.0790   17.7910 C   0  0  0  0  0  2  0  0  0  0  0  0
  -28.5510  -12.8400   18.2740 C   0  0  0  0  0  2  0  0  0  0  0  0
  -28.1650  -13.8020   19.4240 C   0  0  0  0  0  3  0  0  0  0  0  0
  -29.2500  -13.9110   20.5180 C   0  0  0  0  0  2  0  0  0  0  0  0
  -30.4780  -14.3970   19.8630 N   0  0  0  0  0  0  0  0  0  0  0  0
  -32.2340  -15.6950   19.4800 O   0  0  0  0  0  0  0  0  0  0  0  0
  -30.3160  -16.9790   20.1150 N   0  0  0  0  0  0  0  0  0  0  0  0
  -29.4580  -16.7060   20.5700 H   0  0  0  0  0  0  0  0  0  0  0  0
  -25.8430  -14.4190   20.2740 C   0  0  0  0  0  0  0  0  0  0  0  0
  -24.7690  -13.6700   20.6650 C   0  0  0  0  0  0  0  0  0  0  0  0
  -25.1870  -12.3060   20.5840 C   0  0  0  0  0  0  0  0  0  0  0  0
  -26.8440  -13.5150   19.9700 N   0  0  0  0  0  0  0  0  0  0  0  0
  -26.4640  -12.2360   20.2230 N   0  0  0  0  0  0  0  0  0  0  0  0
  -24.4230  -11.0640   20.7700 C   0  0  0  0  0  0  0  0  0  0  0  0
  -24.8100  -10.0910   21.7150 C   0  0  0  0  0  3  0  0  0  0  0  0
  -24.0440   -8.9180   21.8910 C   0  0  0  0  0  3  0  0  0  0  0  0
  -22.8770   -8.7090   21.1180 C   0  0  0  0  0  0  0  0  0  0  0  0
  -22.5080   -9.6710   20.1630 C   0  0  0  0  0  3  0  0  0  0  0  0
  -23.2740  -10.8360   19.9850 C   0  0  0  0  0  3  0  0  0  0  0  0
  -22.0860   -7.5880   21.2020 O   0  0  0  0  0  0  0  0  0  0  0  0
  -21.9130   -6.9170   22.3860 C   0  0  0  0  0  0  0  0  0  0  0  0
  -21.3640   -7.5440   23.5260 C   0  0  0  0  0  3  0  0  0  0  0  0
  -21.1390   -6.7980   24.7000 C   0  0  0  0  0  3  0  0  0  0  0  0
  -21.4520   -5.4260   24.7340 C   0  0  0  0  0  0  0  0  0  0  0  0
  -21.9930   -4.7990   23.5980 C   0  0  0  0  0  3  0  0  0  0  0  0
  -22.2190   -5.5420   22.4270 C   0  0  0  0  0  0  0  0  0  0  0  0
  -22.7210   -4.9270   21.3280 F   0  0  0  0  0  0  0  0  0  0  0  0
  -21.2290   -4.7070   25.8590 F   0  0  0  0  0  0  0  0  0  0  0  0
  -23.4000  -14.1880   20.9950 C   0  0  0  0  0  0  0  0  0  0  0  0
  -22.6900  -13.5140   21.8920 N   0  0  0  0  0  0  0  0  0  0  0  0
  -22.9750  -15.2270   20.4920 O   0  0  0  0  0  0  0  0  0  0  0  0
  -23.0480  -12.6740   22.3180 H   0  0  0  0  0  0  0  0  0  0  0  0
  -21.7720  -13.8450   22.1550 H   0  0  0  0  0  0  0  0  0  0  0  0
  -26.0450  -15.7870   20.1180 N   0  0  0  0  0  0  0  0  0  0  0  0
  -25.2870  -16.4510   20.2370 H   0  0  0  0  0  0  0  0  0  0  0  0
  -26.8580  -16.1850   19.6700 H   0  0  0  0  0  0  0  0  0  0  0  0
  -29.0190  -24.6640   19.5020 C   0  0  0  0  0  2  0  0  0  0  0  0
  -28.8280  -26.2070   20.0980 O   0  0  0  0  0  0  0  0  0  0  0  0
  -24.8000  -31.8300   23.1230 C   0  0  0  0  0  0  0  0  0  0  0  0
  -27.7490  -27.2430   19.9780 C   0  0  0  0  0  0  0  0  0  0  0  0
  -23.7380  -30.4210   21.4060 C   0  0  0  0  0  3  0  0  0  0  0  0
  -25.3230  -28.9740   19.9490 C   0  0  0  0  0  0  0  0  0  0  0  0
  -26.2860  -30.8060   21.3280 C   0  0  0  0  0  2  0  0  0  0  0  0
  -26.4660  -29.4290   20.6190 C   0  0  0  0  0  0  0  0  0  0  0  0
  -27.6650  -28.5820   20.6140 C   0  0  0  0  0  3  0  0  0  0  0  0
  -26.5730  -26.9490   19.2520 C   0  0  0  0  0  3  0  0  0  0  0  0
  -25.4020  -27.7580   19.2470 C   0  0  0  0  0  3  0  0  0  0  0  0
  -24.0420  -29.8070   20.0090 C   0  0  0  0  0  2  0  0  0  0  0  0
  -24.9600  -31.0470   22.0070 N   0  0  0  0  0  0  0  0  0  0  0  0
  -23.6840  -32.0250   23.6320 O   0  0  0  0  0  0  0  0  0  0  0  0
  -23.0950  -29.3460   22.3200 C   0  0  0  0  0  0  0  0  0  0  0  0
  -21.7750  -29.1160   22.1800 N   0  0  0  0  0  0  0  0  0  0  0  0
  -23.7890  -28.7190   23.1230 O   0  0  0  0  0  0  0  0  0  0  0  0
  -21.2640  -29.6770   21.5120 H   0  0  0  0  0  0  0  0  0  0  0  0
  -18.4520  -27.7350   22.6500 C   0  0  0  0  0  0  0  0  0  0  0  0
  -21.0020  -28.0980   22.9010 C   0  0  0  0  0  3  0  0  0  0  0  0
  -21.1580  -26.7100   22.2380 C   0  0  0  0  0  2  0  0  0  0  0  0
  -20.0570  -26.4020   21.2170 C   0  0  0  0  0  2  0  0  0  0  0  0
  -18.6790  -26.4420   21.8840 C   0  0  0  0  0  2  0  0  0  0  0  0
  -19.5420  -28.5200   23.1130 C   0  0  0  0  0  0  0  0  0  0  0  0
  -19.2730  -29.7280   23.7930 C   0  0  0  0  0  3  0  0  0  0  0  0
  -17.9490  -30.1530   24.0110 C   0  0  0  0  0  3  0  0  0  0  0  0
  -16.8750  -29.3640   23.5610 C   0  0  0  0  0  3  0  0  0  0  0  0
  -17.1280  -28.1580   22.8870 C   0  0  0  0  0  3  0  0  0  0  0  0
  -26.0110  -32.5350   23.8080 C   0  0  0  0  0  3  0  0  0  0  0  0
  -25.6070  -33.9120   24.1420 N   0  0  0  0  0  0  0  0  0  0  0  0
  -25.9130  -35.0000   23.4220 C   0  0  0  0  0  0  0  0  0  0  0  0
  -26.6270  -34.9510   22.4160 O   0  0  0  0  0  0  0  0  0  0  0  0
  -24.9730  -34.0180   24.9210 H   0  0  0  0  0  0  0  0  0  0  0  0
  -24.1090  -36.7170   23.0400 C   0  0  0  0  0  1  0  0  0  0  0  0
  -25.3400  -36.3550   23.8870 C   0  0  0  0  0  3  0  0  0  0  0  0
  -27.3930  -37.3380   24.8150 C   0  0  0  0  0  1  0  0  0  0  0  0
  -26.3220  -37.4620   23.8290 N   0  0  0  0  0  0  0  0  0  0  0  0
  -25.8630  -38.3570   23.9710 H   0  0  0  0  0  0  0  0  0  0  0  0
  -26.5070  -31.7870   25.1090 C   0  0  1  0  0  0  0  0  0  0  0  0
  -25.3760  -31.4780   26.1200 C   0  0  0  0  0  1  0  0  0  0  0  0
  -27.1910  -30.4480   24.7510 C   0  0  0  0  0  1  0  0  0  0  0  0
  -27.5730  -32.6440   25.8310 C   0  0  0  0  0  1  0  0  0  0  0  0
  2  1  1  0
  3  1  2  0
  4 49  1  0
  4  2  1  0
  6  8  1  0
  6  9  1  0
  7  9  1  0
  7  4  1  0
  7  5  1  0
  8 19  1  0
  8  5  1  0
  9  3  1  0
  9 10  1  6
 11 17  1  0
 11 19  1  0
 12 17  1  0
 13 14  1  0
 13 12  1  0
 15 14  1  0
 15 24  1  0
 15 16  1  0
 17 16  1  0
 18 11  2  0
 19 20  1  0
 21 22  2  0
 22 41  1  0
 23 22  1  0
 23 26  1  0
 24 25  1  0
 24 21  1  0
 25 23  2  0
 26 27  1  0
 27 28  2  0
 29 32  1  0
 29 28  1  0
 30 29  2  0
 31 30  1  0
 31 26  2  0
 32 33  1  0
 33 38  2  0
 33 34  1  0
 34 35  2  0
 35 36  1  0
 36 40  1  0
 37 36  2  0
 38 37  1  0
 39 38  1  0
 41 42  1  0
 42 45  1  0
 42 44  1  0
 43 41  2  0
 46 47  1  0
 46 21  1  0
 48 46  1  0
 49 50  1  0
 51 62  2  0
 52 50  1  0
 52 57  1  0
 53 61  1  0
 53 63  1  0
 54 60  1  0
 54 56  1  0
 55 61  1  0
 56 55  1  0
 57 56  2  0
 58 52  2  0
 59 58  1  0
 59 54  2  0
 60 53  1  0
 61 51  1  0
 63 65  2  0
 64 63  1  0
 66 64  1  0
 67 76  2  0
 67 72  1  0
 68 64  1  0
 68 72  1  0
 69 68  1  0
 70 71  1  0
 70 69  1  0
 71 67  1  0
 72 73  2  0
 73 74  1  0
 75 74  2  0
 76 75  1  0
 77 51  1  0
 77 78  1  0
 77 87  1  0
 78 81  1  0
 79 83  1  0
 79 78  1  0
 80 79  2  0
 83 82  1  0
 85 83  1  0
 85 86  1  0
 85 84  1  0
 87 90  1  1
 87 88  1  0
 89 87  1  0
M  ISO  4  11 100  19 100  49 101  50 101
M  END
>  <TORSDO>  (40) 
F 17

>  <SCORE>  (40) 
-14.026

>  <name>  (40) 
40

>  <ligand_id>  (40) 
40

>  <original_smiles>  (40) 
[H]C1=C(C([H])([H])Oc2c([H])c([H])c3c(c2[H])C([H])([H])N(C(=O)C([H])(N([H])C(=O)C([H])(N([H])C([H])([H])[H])C([H])([H])[H])C(C([H])([H])[H])(C([H])([H])[H])C([H])([H])[H])C([H])(C(=O)N([H])C2([H])c4c([H])c([H])c([H])c([H])c4C([H])([H])C([H])([H])C2([H])[H])C3([H])[H])C2([H])C([H])([H])C([H])(N([H])C(=O)N3C([H])([H])C([H])([H])C([H])([H])C([H])(n4nc(-c5c([H])c([H])c(Oc6c([H])c([H])c(F)c([H])c6F)c([H])c5[H])c(C(=O)N([H])[H])c4N([H])[H])C3([H])[H])C([H])([H])[N+]2([H])C([H])=C1[H]

>  <smiles>  (40) 
[H]C1=C(C([H])([H])Oc2c([H])c([H])c3c(c2[H])C([H])([H])N(C(=O)C([H])(N([H])C(=O)C([H])(N([H])C([H])([H])[H])C([H])([H])[H])C(C([H])([H])[H])(C([H])([H])[H])C([H])([H])[H])C([H])(C(=O)N([H])C2([H])c4c([H])c([H])c([H])c([H])c4C([H])([H])C([H])([H])C2([H])[H])C3([H])[H])C2([H])C([H])([H])C([H])(N([H])C(=O)N3C([H])([H])C([H])([H])C([H])([H])C([H])(n4nc(-c5c([H])c([H])c(Oc6c([H])c([H])c(F)c([H])c6F)c([H])c5[H])c(C(=O)N([H])[H])c4N([H])[H])C3([H])[H])C([H])([H])[N+]2([H])C([H])=C1[H]

$$$$
41:0:0
     RDKit          3D

 97106  0  0  1  0  0  0  0  0999 V2000
  -28.6900  -20.5370   20.2290 C   0  0  0  0  0  2  0  0  0  0  0  0
  -30.1620  -20.9970   22.1400 C   0  0  0  0  0  2  0  0  0  0  0  0
  -28.2160  -22.0200   20.4970 C   0  0  0  0  0  2  0  0  0  0  0  0
  -30.2910  -22.5120   21.7420 C   0  0  0  0  0  2  0  0  0  0  0  0
  -30.0440  -20.0950   20.8910 C   0  0  0  0  0  3  0  0  0  0  0  0
  -29.3260  -23.0010   20.6900 N   0  0  2  0  0  4  0  0  0  0  0  0
  -29.8480  -22.9720   19.8240 H   0  0  0  0  0  0  0  0  0  0  0  0
  -30.2750  -18.5280   21.1030 C   0  0  0  0  0  0  0  0  0  0  0  0
  -29.8340  -17.9830   22.1180 O   0  0  0  0  0  0  0  0  0  0  0  0
  -31.4280  -15.1140   20.2320 C   0  0  0  0  0  0  0  0  0  0  0  0
  -31.1570  -12.8440   19.2580 C   0  0  0  0  0  2  0  0  0  0  0  0
  -30.2070  -12.8290   18.0360 C   0  0  0  0  0  2  0  0  0  0  0  0
  -28.7280  -12.7910   18.4640 C   0  0  0  0  0  2  0  0  0  0  0  0
  -28.3790  -13.7110   19.6670 C   0  0  0  0  0  3  0  0  0  0  0  0
  -29.4430  -13.6350   20.7800 C   0  0  0  0  0  2  0  0  0  0  0  0
  -30.7380  -13.9310   20.1630 N   0  0  0  0  0  0  0  0  0  0  0  0
  -32.6570  -15.1340   20.2040 O   0  0  0  0  0  0  0  0  0  0  0  0
  -30.7390  -18.4290   18.7060 C   0  0  0  0  0  2  0  0  0  0  0  0
  -30.6940  -16.1360   18.2570 C   0  0  0  0  0  2  0  0  0  0  0  0
  -31.1060  -17.7080   20.0200 C   0  0  0  0  0  3  0  0  0  0  0  0
  -31.1300  -17.4590   17.6470 C   0  0  0  0  0  3  0  0  0  0  0  0
  -30.7790  -16.2340   19.7410 N   0  0  0  0  0  0  0  0  0  0  0  0
  -26.0100  -14.3450   20.4210 C   0  0  0  0  0  0  0  0  0  0  0  0
  -24.9240  -13.5840   20.7620 C   0  0  0  0  0  0  0  0  0  0  0  0
  -25.3560  -12.2260   20.6930 C   0  0  0  0  0  0  0  0  0  0  0  0
  -27.0330  -13.4480   20.1640 N   0  0  0  0  0  0  0  0  0  0  0  0
  -26.6460  -12.1670   20.3940 N   0  0  0  0  0  0  0  0  0  0  0  0
  -24.6020  -10.9720   20.8340 C   0  0  0  0  0  0  0  0  0  0  0  0
  -24.9830   -9.9820   21.7640 C   0  0  0  0  0  3  0  0  0  0  0  0
  -24.2280   -8.7960   21.8960 C   0  0  0  0  0  3  0  0  0  0  0  0
  -23.0790   -8.5930   21.0960 C   0  0  0  0  0  0  0  0  0  0  0  0
  -22.7190   -9.5720   20.1530 C   0  0  0  0  0  3  0  0  0  0  0  0
  -23.4750  -10.7490   20.0190 C   0  0  0  0  0  3  0  0  0  0  0  0
  -22.3010   -7.4620   21.1370 O   0  0  0  0  0  0  0  0  0  0  0  0
  -22.1110   -6.7610   22.3020 C   0  0  0  0  0  0  0  0  0  0  0  0
  -21.5520   -7.3630   23.4510 C   0  0  0  0  0  3  0  0  0  0  0  0
  -21.3110   -6.5900   24.6040 C   0  0  0  0  0  3  0  0  0  0  0  0
  -21.6180   -5.2160   24.6080 C   0  0  0  0  0  0  0  0  0  0  0  0
  -22.1680   -4.6140   23.4630 C   0  0  0  0  0  3  0  0  0  0  0  0
  -22.4120   -5.3860   22.3130 C   0  0  0  0  0  0  0  0  0  0  0  0
  -22.9220   -4.7950   21.2060 F   0  0  0  0  0  0  0  0  0  0  0  0
  -21.3800   -4.4710   25.7130 F   0  0  0  0  0  0  0  0  0  0  0  0
  -23.5370  -14.0830   21.0470 C   0  0  0  0  0  0  0  0  0  0  0  0
  -22.8050  -13.3900   21.9110 N   0  0  0  0  0  0  0  0  0  0  0  0
  -23.1120  -15.1230   20.5440 O   0  0  0  0  0  0  0  0  0  0  0  0
  -23.1670  -12.5490   22.3380 H   0  0  0  0  0  0  0  0  0  0  0  0
  -21.8740  -13.7020   22.1520 H   0  0  0  0  0  0  0  0  0  0  0  0
  -26.2110  -15.7150   20.2890 N   0  0  0  0  0  0  0  0  0  0  0  0
  -25.4680  -16.3920   20.4250 H   0  0  0  0  0  0  0  0  0  0  0  0
  -27.0970  -16.1400   20.0410 H   0  0  0  0  0  0  0  0  0  0  0  0
  -30.5800  -17.7240   16.3040 N   0  0  0  0  0  4  0  0  0  0  0  0
  -29.5760  -17.7100   16.2980 H   0  0  0  0  0  0  0  0  0  0  0  0
  -30.9080  -17.0360   15.6490 H   0  0  0  0  0  0  0  0  0  0  0  0
  -30.8850  -18.6240   15.9750 H   0  0  0  0  0  0  0  0  0  0  0  0
  -28.9310  -24.4680   20.8740 C   0  0  0  0  0  3  0  0  0  0  0  0
  -28.2720  -25.2340   19.6540 C   0  0  0  0  0  3  0  0  0  0  0  0
  -28.2830  -26.7140   19.6970 O   0  0  0  0  0  0  0  0  0  0  0  0
  -24.5190  -31.7910   23.0780 C   0  0  0  0  0  0  0  0  0  0  0  0
  -27.1100  -27.4810   19.7000 C   0  0  0  0  0  0  0  0  0  0  0  0
  -23.2790  -30.4550   21.4080 C   0  0  0  0  0  3  0  0  0  0  0  0
  -24.7080  -29.0200   19.8460 C   0  0  0  0  0  0  0  0  0  0  0  0
  -25.7980  -30.8480   21.1490 C   0  0  0  0  0  2  0  0  0  0  0  0
  -25.8820  -29.5090   20.4290 C   0  0  0  0  0  0  0  0  0  0  0  0
  -27.0830  -28.7500   20.3510 C   0  0  0  0  0  3  0  0  0  0  0  0
  -25.9150  -27.0480   19.0770 C   0  0  0  0  0  3  0  0  0  0  0  0
  -24.7250  -27.7950   19.1630 C   0  0  0  0  0  3  0  0  0  0  0  0
  -23.4540  -29.8590   19.9860 C   0  0  0  0  0  2  0  0  0  0  0  0
  -24.5520  -31.0450   21.9370 N   0  0  0  0  0  0  0  0  0  0  0  0
  -23.4530  -32.0170   23.6690 O   0  0  0  0  0  0  0  0  0  0  0  0
  -22.6780  -29.3720   22.3370 C   0  0  0  0  0  0  0  0  0  0  0  0
  -21.3570  -29.1480   22.2290 N   0  0  0  0  0  0  0  0  0  0  0  0
  -23.3960  -28.7380   23.1130 O   0  0  0  0  0  0  0  0  0  0  0  0
  -20.8320  -29.7200   21.5830 H   0  0  0  0  0  0  0  0  0  0  0  0
  -18.0540  -27.7490   22.6880 C   0  0  0  0  0  0  0  0  0  0  0  0
  -20.5930  -28.1460   22.9750 C   0  0  0  0  0  3  0  0  0  0  0  0
  -20.7780  -26.7370   22.3670 C   0  0  0  0  0  2  0  0  0  0  0  0
  -19.7020  -26.3740   21.3400 C   0  0  0  0  0  2  0  0  0  0  0  0
  -18.3100  -26.4280   21.9810 C   0  0  0  0  0  2  0  0  0  0  0  0
  -19.1270  -28.5620   23.1400 C   0  0  0  0  0  0  0  0  0  0  0  0
  -18.8370  -29.7960   23.7610 C   0  0  0  0  0  3  0  0  0  0  0  0
  -17.5070  -30.2220   23.9310 C   0  0  0  0  0  3  0  0  0  0  0  0
  -16.4470  -29.4070   23.4970 C   0  0  0  0  0  3  0  0  0  0  0  0
  -16.7220  -28.1730   22.8820 C   0  0  0  0  0  3  0  0  0  0  0  0
  -25.8140  -32.4170   23.6840 C   0  0  0  0  0  3  0  0  0  0  0  0
  -26.3660  -31.6240   24.9300 C   0  0  1  0  0  0  0  0  0  0  0  0
  -25.3010  -31.3670   26.0230 C   0  0  0  0  0  1  0  0  0  0  0  0
  -26.9380  -30.2530   24.5010 C   0  0  0  0  0  1  0  0  0  0  0  0
  -27.5380  -32.4050   25.5730 C   0  0  0  0  0  1  0  0  0  0  0  0
  -25.5080  -33.8070   24.0490 N   0  0  0  0  0  0  0  0  0  0  0  0
  -25.8610  -34.8790   23.3280 C   0  0  0  0  0  0  0  0  0  0  0  0
  -26.5490  -34.8040   22.3060 O   0  0  0  0  0  0  0  0  0  0  0  0
  -24.8980  -33.9410   24.8420 H   0  0  0  0  0  0  0  0  0  0  0  0
  -24.1650  -36.7050   22.9830 C   0  0  0  0  0  1  0  0  0  0  0  0
  -25.3740  -36.2570   23.8180 C   0  0  0  0  0  3  0  0  0  0  0  0
  -27.4880  -37.0880   24.7520 C   0  0  0  0  0  1  0  0  0  0  0  0
  -26.4220  -37.3000   23.7770 N   0  0  0  0  0  0  0  0  0  0  0  0
  -26.0220  -38.2200   23.9430 H   0  0  0  0  0  0  0  0  0  0  0  0
  1  3  1  0
  1  5  1  0
  3  6  1  0
  4  2  1  0
  5  8  1  0
  5  2  1  0
  6 55  1  0
  6  4  1  0
  6  7  1  6
  8  9  2  0
 11 16  1  0
 12 13  1  0
 12 11  1  0
 14 13  1  0
 14 26  1  0
 14 15  1  0
 16 10  1  0
 16 15  1  0
 17 10  2  0
 18 20  1  0
 19 22  1  0
 20  8  1  0
 21 51  1  0
 21 19  1  0
 21 18  1  0
 22 20  1  0
 22 10  1  0
 23 24  2  0
 24 43  1  0
 25 24  1  0
 25 28  1  0
 26 27  1  0
 26 23  1  0
 27 25  2  0
 28 29  1  0
 29 30  2  0
 31 34  1  0
 31 30  1  0
 32 31  2  0
 33 32  1  0
 33 28  2  0
 34 35  1  0
 35 40  2  0
 35 36  1  0
 36 37  2  0
 37 38  1  0
 38 42  1  0
 39 38  2  0
 40 39  1  0
 41 40  1  0
 43 44  1  0
 44 47  1  0
 44 46  1  0
 45 43  2  0
 48 23  1  0
 48 49  1  0
 50 48  1  0
 52 51  1  0
 53 51  1  0
 54 51  1  0
 56 57  1  0
 56 55  2  0
 57 59  1  0
 58 69  2  0
 59 64  1  0
 60 68  1  0
 60 70  1  0
 61 67  1  0
 61 63  1  0
 62 68  1  0
 63 62  1  0
 64 63  2  0
 65 66  1  0
 65 59  2  0
 66 61  2  0
 67 60  1  0
 68 58  1  0
 70 72  2  0
 71 70  1  0
 73 71  1  0
 74 83  2  0
 74 79  1  0
 75 71  1  0
 75 79  1  0
 76 75  1  0
 77 78  1  0
 77 76  1  0
 78 74  1  0
 79 80  2  0
 80 81  1  0
 82 81  2  0
 83 82  1  0
 84 58  1  0
 84 89  1  0
 84 85  1  0
 85 88  1  1
 85 86  1  0
 87 85  1  0
 89 92  1  0
 90 94  1  0
 90 89  1  0
 91 90  2  0
 94 93  1  0
 96 94  1  0
 96 97  1  0
 96 95  1  0
M  ISO  4  10 100  22 100  56 101  57 101
M  END
>  <TORSDO>  (41) 
F 20

>  <SCORE>  (41) 
-12.586

>  <name>  (41) 
41

>  <ligand_id>  (41) 
41

>  <original_smiles>  (41) 
[H]c1c([H])c([H])c2c(c1[H])C([H])([H])C([H])([H])C([H])([H])C2([H])N([H])C(=O)C1([H])N(C(=O)C([H])(N([H])C(=O)C([H])(N([H])C([H])([H])[H])C([H])([H])[H])C(C([H])([H])[H])(C([H])([H])[H])C([H])([H])[H])C([H])([H])c2c([H])c(OC([H])([H])C([H])([H])[N+]3([H])C([H])([H])C([H])([H])C([H])(C(=O)C4([H])N(C(=O)N5C([H])([H])C([H])([H])C([H])([H])C([H])(n6nc(-c7c([H])c([H])c(Oc8c([H])c([H])c(F)c([H])c8F)c([H])c7[H])c(C(=O)N([H])[H])c6N([H])[H])C5([H])[H])C([H])([H])C([H])([N+]([H])([H])[H])C4([H])[H])C([H])([H])C3([H])[H])c([H])c([H])c2C1([H])[H]

>  <smiles>  (41) 
[H]c1c([H])c([H])c2c(c1[H])C([H])([H])C([H])([H])C([H])([H])C2([H])N([H])C(=O)C1([H])N(C(=O)C([H])(N([H])C(=O)C([H])(N([H])C([H])([H])[H])C([H])([H])[H])C(C([H])([H])[H])(C([H])([H])[H])C([H])([H])[H])C([H])([H])c2c([H])c(OC([H])([H])C([H])([H])[N+]3([H])C([H])([H])C([H])([H])C([H])(C(=O)C4([H])N(C(=O)N5C([H])([H])C([H])([H])C([H])([H])C([H])(n6nc(-c7c([H])c([H])c(Oc8c([H])c([H])c(F)c([H])c8F)c([H])c7[H])c(C(=O)N([H])[H])c6N([H])[H])C5([H])[H])C([H])([H])C([H])([N+]([H])([H])[H])C4([H])[H])C([H])([H])C3([H])[H])c([H])c([H])c2C1([H])[H]

$$$$
42:0:0
     RDKit          3D

 87 96  0  0  1  0  0  0  0  0999 V2000
  -28.6210  -21.2400   21.6610 C   0  0  0  0  0  2  0  0  0  0  0  0
  -29.1530  -21.2900   20.4290 C   0  0  0  0  0  0  0  0  0  0  0  0
  -29.6720  -19.7660   19.7280 C   0  0  0  0  0  2  0  0  0  0  0  0
  -30.7470  -15.3910   19.8030 C   0  0  0  0  0  0  0  0  0  0  0  0
  -30.6580  -12.9960   18.7810 C   0  0  0  0  0  2  0  0  0  0  0  0
  -29.6190  -12.8370   17.6380 C   0  0  0  0  0  2  0  0  0  0  0  0
  -28.2030  -12.5710   18.1880 C   0  0  0  0  0  2  0  0  0  0  0  0
  -27.8760  -13.4760   19.4010 C   0  0  0  0  0  3  0  0  0  0  0  0
  -29.0250  -13.4870   20.4230 C   0  0  0  0  0  2  0  0  0  0  0  0
  -30.1900  -14.0770   19.7260 N   0  0  0  0  0  0  0  0  0  0  0  0
  -31.9240  -15.4330   19.4090 O   0  0  0  0  0  0  0  0  0  0  0  0
  -30.8560  -18.4740   21.8010 C   0  0  0  0  0  2  0  0  0  0  0  0
  -29.1780  -16.5130   21.3560 C   0  0  0  0  0  2  0  0  0  0  0  0
  -29.4450  -17.9310   21.7560 C   0  0  0  0  0  3  0  0  0  0  0  0
  -30.1630  -18.2320   20.4810 C   0  0  2  0  0  0  0  0  0  0  0  0
  -29.9750  -16.6250   20.1280 N   0  0  0  0  0  0  0  0  0  0  0  0
  -25.5870  -14.0390   20.3860 C   0  0  0  0  0  0  0  0  0  0  0  0
  -24.5500  -13.2610   20.8200 C   0  0  0  0  0  0  0  0  0  0  0  0
  -24.9880  -11.9080   20.6830 C   0  0  0  0  0  0  0  0  0  0  0  0
  -26.5890  -13.1610   20.0090 N   0  0  0  0  0  0  0  0  0  0  0  0
  -26.2450  -11.8690   20.2530 N   0  0  0  0  0  0  0  0  0  0  0  0
  -24.2570  -10.6490   20.8780 C   0  0  0  0  0  0  0  0  0  0  0  0
  -24.6850   -9.6840   21.8170 C   0  0  0  0  0  3  0  0  0  0  0  0
  -23.9530   -8.4910   22.0020 C   0  0  0  0  0  3  0  0  0  0  0  0
  -22.7790   -8.2550   21.2470 C   0  0  0  0  0  0  0  0  0  0  0  0
  -22.3700   -9.2080   20.2970 C   0  0  0  0  0  3  0  0  0  0  0  0
  -23.1040  -10.3920   20.1100 C   0  0  0  0  0  3  0  0  0  0  0  0
  -22.0200   -7.1130   21.3380 O   0  0  0  0  0  0  0  0  0  0  0  0
  -21.8620   -6.4470   22.5280 C   0  0  0  0  0  0  0  0  0  0  0  0
  -21.3310   -7.0820   23.6710 C   0  0  0  0  0  3  0  0  0  0  0  0
  -21.1200   -6.3420   24.8530 C   0  0  0  0  0  3  0  0  0  0  0  0
  -21.4320   -4.9700   24.8910 C   0  0  0  0  0  0  0  0  0  0  0  0
  -21.9570   -4.3360   23.7510 C   0  0  0  0  0  3  0  0  0  0  0  0
  -22.1690   -5.0720   22.5720 C   0  0  0  0  0  0  0  0  0  0  0  0
  -22.6550   -4.4520   21.4700 F   0  0  0  0  0  0  0  0  0  0  0  0
  -21.2240   -4.2580   26.0220 F   0  0  0  0  0  0  0  0  0  0  0  0
  -23.1930  -13.7450   21.2370 C   0  0  0  0  0  0  0  0  0  0  0  0
  -22.5400  -13.0320   22.1480 N   0  0  0  0  0  0  0  0  0  0  0  0
  -22.7230  -14.7910   20.7920 O   0  0  0  0  0  0  0  0  0  0  0  0
  -22.9370  -12.1880   22.5330 H   0  0  0  0  0  0  0  0  0  0  0  0
  -21.6340  -13.3390   22.4700 H   0  0  0  0  0  0  0  0  0  0  0  0
  -25.7510  -15.4140   20.2510 N   0  0  0  0  0  0  0  0  0  0  0  0
  -24.9990  -16.0650   20.4460 H   0  0  0  0  0  0  0  0  0  0  0  0
  -26.5520  -15.8530   19.8170 H   0  0  0  0  0  0  0  0  0  0  0  0
  -29.1930  -22.9240   19.8500 C   0  0  0  0  0  3  0  0  0  0  0  0
  -28.3100  -24.3950   20.3920 C   0  0  0  0  0  3  0  0  0  0  0  0
  -28.4910  -26.0200   20.2440 O   0  0  0  0  0  0  0  0  0  0  0  0
  -24.6900  -31.8710   23.1440 C   0  0  0  0  0  0  0  0  0  0  0  0
  -27.4280  -27.0560   20.2220 C   0  0  0  0  0  0  0  0  0  0  0  0
  -23.5590  -30.4250   21.5060 C   0  0  0  0  0  3  0  0  0  0  0  0
  -25.0700  -28.8470   20.1270 C   0  0  0  0  0  0  0  0  0  0  0  0
  -26.1190  -30.7130   21.3910 C   0  0  0  0  0  2  0  0  0  0  0  0
  -26.2370  -29.3000   20.7550 C   0  0  0  0  0  0  0  0  0  0  0  0
  -27.4130  -28.4260   20.7770 C   0  0  0  0  0  3  0  0  0  0  0  0
  -26.2260  -26.7450   19.5510 C   0  0  0  0  0  3  0  0  0  0  0  0
  -25.0870  -27.5890   19.5050 C   0  0  0  0  0  3  0  0  0  0  0  0
  -23.8260  -29.7330   20.1420 C   0  0  0  0  0  2  0  0  0  0  0  0
  -24.8090  -31.0300   22.0680 N   0  0  0  0  0  0  0  0  0  0  0  0
  -23.5860  -32.1360   23.6480 O   0  0  0  0  0  0  0  0  0  0  0  0
  -22.8800  -29.4190   22.4730 C   0  0  0  0  0  0  0  0  0  0  0  0
  -21.5580  -29.2140   22.3290 N   0  0  0  0  0  0  0  0  0  0  0  0
  -23.5490  -28.8240   23.3210 O   0  0  0  0  0  0  0  0  0  0  0  0
  -21.0690  -29.7440   21.6200 H   0  0  0  0  0  0  0  0  0  0  0  0
  -18.2040  -27.9180   22.7980 C   0  0  0  0  0  0  0  0  0  0  0  0
  -20.7510  -28.2620   23.0980 C   0  0  0  0  0  3  0  0  0  0  0  0
  -20.9030  -26.8270   22.5420 C   0  0  0  0  0  2  0  0  0  0  0  0
  -19.8270  -26.4600   21.5150 C   0  0  0  0  0  2  0  0  0  0  0  0
  -18.4320  -26.5690   22.1370 C   0  0  0  0  0  2  0  0  0  0  0  0
  -19.2930  -28.7200   23.2350 C   0  0  0  0  0  0  0  0  0  0  0  0
  -19.0240  -29.9780   23.8160 C   0  0  0  0  0  3  0  0  0  0  0  0
  -17.7020  -30.4380   23.9630 C   0  0  0  0  0  3  0  0  0  0  0  0
  -16.6290  -29.6340   23.5420 C   0  0  0  0  0  3  0  0  0  0  0  0
  -16.8800  -28.3770   22.9650 C   0  0  0  0  0  3  0  0  0  0  0  0
  -25.9340  -32.5550   23.7890 C   0  0  0  0  0  3  0  0  0  0  0  0
  -26.4470  -31.8140   25.0860 C   0  0  1  0  0  0  0  0  0  0  0  0
  -25.3370  -31.5400   26.1280 C   0  0  0  0  0  1  0  0  0  0  0  0
  -27.0960  -30.4570   24.7270 C   0  0  0  0  0  1  0  0  0  0  0  0
  -27.5460  -32.6580   25.7720 C   0  0  0  0  0  1  0  0  0  0  0  0
  -25.5700  -33.9460   24.1110 N   0  0  0  0  0  0  0  0  0  0  0  0
  -25.8900  -35.0160   23.3710 C   0  0  0  0  0  0  0  0  0  0  0  0
  -26.5870  -34.9370   22.3550 O   0  0  0  0  0  0  0  0  0  0  0  0
  -24.9510  -34.0780   24.8980 H   0  0  0  0  0  0  0  0  0  0  0  0
  -24.1280  -36.7750   22.9870 C   0  0  0  0  0  1  0  0  0  0  0  0
  -25.3560  -36.3900   23.8270 C   0  0  0  0  0  3  0  0  0  0  0  0
  -27.4440  -37.3230   24.7240 C   0  0  0  0  0  1  0  0  0  0  0  0
  -26.3650  -37.4690   23.7510 N   0  0  0  0  0  0  0  0  0  0  0  0
  -25.9310  -38.3780   23.8930 H   0  0  0  0  0  0  0  0  0  0  0  0
  2  1  2  0
  3  2  1  0
  4 16  1  0
  5 10  1  0
  6  7  1  0
  6  5  1  0
  8  7  1  0
  8 20  1  0
  8  9  1  0
 10  4  1  0
 10  9  1  0
 11  4  2  0
 14 13  1  0
 14 12  1  0
 15  3  1  6
 15 14  1  0
 15 12  1  0
 16 15  1  0
 16 13  1  0
 17 18  2  0
 18 37  1  0
 19 18  1  0
 19 22  1  0
 20 21  1  0
 20 17  1  0
 21 19  2  0
 22 23  1  0
 23 24  2  0
 25 28  1  0
 25 24  1  0
 26 25  2  0
 27 26  1  0
 27 22  2  0
 28 29  1  0
 29 34  2  0
 29 30  1  0
 30 31  2  0
 31 32  1  0
 32 36  1  0
 33 32  2  0
 34 33  1  0
 35 34  1  0
 37 38  1  0
 38 41  1  0
 38 40  1  0
 39 37  2  0
 42 17  1  0
 42 43  1  0
 44 42  1  0
 45 46  2  0
 45  2  1  0
 47 46  1  0
 48 59  2  0
 49 47  1  0
 49 54  1  0
 50 58  1  0
 50 60  1  0
 51 57  1  0
 51 53  1  0
 52 58  1  0
 53 54  2  0
 53 52  1  0
 55 49  2  0
 56 55  1  0
 56 51  2  0
 57 50  1  0
 58 48  1  0
 60 62  2  0
 61 60  1  0
 63 61  1  0
 64 73  2  0
 64 69  1  0
 65 61  1  0
 65 69  1  0
 66 65  1  0
 67 68  1  0
 67 66  1  0
 68 64  1  0
 69 70  2  0
 70 71  1  0
 72 71  2  0
 73 72  1  0
 74 48  1  0
 74 79  1  0
 74 75  1  0
 75 78  1  1
 75 76  1  0
 77 75  1  0
 79 82  1  0
 80 84  1  0
 80 79  1  0
 81 80  2  0
 84 83  1  0
 86 84  1  0
 86 87  1  0
 86 85  1  0
M  ISO  4   4 100  16 100  46 101  47 101
M  END
>  <TORSDO>  (42) 
F 19

>  <SCORE>  (42) 
-14.658

>  <name>  (42) 
42

>  <ligand_id>  (42) 
42

>  <original_smiles>  (42) 
[H]C([H])=C(C([H])([H])C([H])([H])Oc1c([H])c([H])c2c(c1[H])C([H])([H])N(C(=O)C([H])(N([H])C(=O)C([H])(N([H])C([H])([H])[H])C([H])([H])[H])C(C([H])([H])[H])(C([H])([H])[H])C([H])([H])[H])C([H])(C(=O)N([H])C1([H])c3c([H])c([H])c([H])c([H])c3C([H])([H])C([H])([H])C1([H])[H])C2([H])[H])C([H])([H])C12N(C(=O)N3C([H])([H])C([H])([H])C([H])([H])C([H])(n4nc(-c5c([H])c([H])c(Oc6c([H])c([H])c(F)c([H])c6F)c([H])c5[H])c(C(=O)N([H])[H])c4N([H])[H])C3([H])[H])C([H])([H])C1([H])C2([H])[H]

>  <smiles>  (42) 
[H]C([H])=C(C([H])([H])C([H])([H])Oc1c([H])c([H])c2c(c1[H])C([H])([H])N(C(=O)C([H])(N([H])C(=O)C([H])(N([H])C([H])([H])[H])C([H])([H])[H])C(C([H])([H])[H])(C([H])([H])[H])C([H])([H])[H])C([H])(C(=O)N([H])C1([H])c3c([H])c([H])c([H])c([H])c3C([H])([H])C([H])([H])C1([H])[H])C2([H])[H])C([H])([H])C12N(C(=O)N3C([H])([H])C([H])([H])C([H])([H])C([H])(n4nc(-c5c([H])c([H])c(Oc6c([H])c([H])c(F)c([H])c6F)c([H])c5[H])c(C(=O)N([H])[H])c4N([H])[H])C3([H])[H])C([H])([H])C1([H])C2([H])[H]

$$$$
43:0:0
     RDKit          3D

 89 98  0  0  1  0  0  0  0  0999 V2000
  -29.7770  -18.0620   20.3320 C   0  0  0  0  0  3  0  0  0  0  0  0
  -31.1360  -18.5880   20.8200 C   0  0  0  0  0  2  0  0  0  0  0  0
  -29.7150  -19.7360   18.4530 C   0  0  0  0  0  2  0  0  0  0  0  0
  -31.1930  -20.1230   18.7990 C   0  0  0  0  0  2  0  0  0  0  0  0
  -30.4670  -21.1250   21.0450 C   0  0  0  0  0  2  0  0  0  0  0  0
  -28.9560  -19.5640   19.7900 C   0  0  0  0  0  3  0  0  0  0  0  0
  -31.4070  -20.0630   20.3490 C   0  0  0  0  0  3  0  0  0  0  0  0
  -29.4930  -16.6660   20.2400 N   0  0  0  0  0  2  0  0  0  0  0  0
  -29.1630  -21.1230   20.3390 N   0  0  1  0  0  4  0  0  0  0  0  0
  -29.6700  -21.1940   19.4670 H   0  0  0  0  0  0  0  0  0  0  0  0
  -30.3590  -15.3640   20.2910 C   0  0  0  0  0  0  0  0  0  0  0  0
  -30.3930  -12.8910   19.4760 C   0  0  0  0  0  2  0  0  0  0  0  0
  -29.4980  -12.6610   18.2310 C   0  0  0  0  0  2  0  0  0  0  0  0
  -28.0420  -12.3790   18.6410 C   0  0  0  0  0  2  0  0  0  0  0  0
  -27.5570  -13.3530   19.7420 C   0  0  0  0  0  3  0  0  0  0  0  0
  -28.5800  -13.5310   20.8790 C   0  0  0  0  0  2  0  0  0  0  0  0
  -29.8250  -14.0380   20.2810 N   0  0  0  0  0  0  0  0  0  0  0  0
  -31.5880  -15.3410   20.1570 O   0  0  0  0  0  0  0  0  0  0  0  0
  -25.1770  -13.9000   20.4670 C   0  0  0  0  0  0  0  0  0  0  0  0
  -24.1130  -13.1200   20.8250 C   0  0  0  0  0  0  0  0  0  0  0  0
  -24.5890  -11.7730   20.8160 C   0  0  0  0  0  0  0  0  0  0  0  0
  -26.2270  -13.0290   20.2400 N   0  0  0  0  0  0  0  0  0  0  0  0
  -25.8850  -11.7430   20.5230 N   0  0  0  0  0  0  0  0  0  0  0  0
  -23.8630  -10.5080   21.0060 C   0  0  0  0  0  0  0  0  0  0  0  0
  -24.2810   -9.5500   21.9580 C   0  0  0  0  0  3  0  0  0  0  0  0
  -23.5510   -8.3550   22.1360 C   0  0  0  0  0  3  0  0  0  0  0  0
  -22.3920   -8.1080   21.3630 C   0  0  0  0  0  0  0  0  0  0  0  0
  -21.9930   -9.0550   20.4020 C   0  0  0  0  0  3  0  0  0  0  0  0
  -22.7240  -10.2420   20.2230 C   0  0  0  0  0  3  0  0  0  0  0  0
  -21.6380   -6.9630   21.4490 O   0  0  0  0  0  0  0  0  0  0  0  0
  -21.5690   -6.2290   22.6070 C   0  0  0  0  0  0  0  0  0  0  0  0
  -21.1210   -6.7940   23.8200 C   0  0  0  0  0  3  0  0  0  0  0  0
  -21.0000   -5.9880   24.9700 C   0  0  0  0  0  3  0  0  0  0  0  0
  -21.3200   -4.6180   24.9070 C   0  0  0  0  0  0  0  0  0  0  0  0
  -21.7610   -4.0530   23.6980 C   0  0  0  0  0  3  0  0  0  0  0  0
  -21.8830   -4.8550   22.5510 C   0  0  0  0  0  0  0  0  0  0  0  0
  -22.2890   -4.3010   21.3840 F   0  0  0  0  0  0  0  0  0  0  0  0
  -21.1960   -3.8420   26.0090 F   0  0  0  0  0  0  0  0  0  0  0  0
  -22.7080  -13.5940   21.0600 C   0  0  0  0  0  0  0  0  0  0  0  0
  -21.9650  -12.9080   21.9190 N   0  0  0  0  0  0  0  0  0  0  0  0
  -22.2800  -14.6110   20.5180 O   0  0  0  0  0  0  0  0  0  0  0  0
  -22.3210  -12.0850   22.3820 H   0  0  0  0  0  0  0  0  0  0  0  0
  -21.0220  -13.2130   22.1190 H   0  0  0  0  0  0  0  0  0  0  0  0
  -25.3360  -15.2700   20.2840 N   0  0  0  0  0  0  0  0  0  0  0  0
  -24.5710  -15.9280   20.3960 H   0  0  0  0  0  0  0  0  0  0  0  0
  -26.2050  -15.7120   20.0120 H   0  0  0  0  0  0  0  0  0  0  0  0
  -28.5590  -22.6310   19.8370 C   0  0  0  0  0  2  0  0  0  0  0  0
  -28.1860  -24.2270   20.6290 C   0  0  0  0  0  2  0  0  0  0  0  0
  -28.2610  -25.8580   20.2630 O   0  0  0  0  0  0  0  0  0  0  0  0
  -24.6250  -31.8610   23.2230 C   0  0  0  0  0  0  0  0  0  0  0  0
  -27.2210  -26.9370   20.2820 C   0  0  0  0  0  0  0  0  0  0  0  0
  -23.4550  -30.4470   21.5880 C   0  0  0  0  0  3  0  0  0  0  0  0
  -24.9200  -28.8250   20.2010 C   0  0  0  0  0  0  0  0  0  0  0  0
  -26.0250  -30.6550   21.4670 C   0  0  0  0  0  2  0  0  0  0  0  0
  -26.1050  -29.2370   20.8240 C   0  0  0  0  0  0  0  0  0  0  0  0
  -27.2530  -28.3180   20.8310 C   0  0  0  0  0  3  0  0  0  0  0  0
  -26.0000  -26.6770   19.6230 C   0  0  0  0  0  3  0  0  0  0  0  0
  -24.8940  -27.5670   19.5800 C   0  0  0  0  0  3  0  0  0  0  0  0
  -23.7020  -29.7480   20.2230 C   0  0  0  0  0  2  0  0  0  0  0  0
  -24.7240  -31.0170   22.1450 N   0  0  0  0  0  0  0  0  0  0  0  0
  -23.5290  -32.1520   23.7280 O   0  0  0  0  0  0  0  0  0  0  0  0
  -22.7530  -29.4590   22.5560 C   0  0  0  0  0  0  0  0  0  0  0  0
  -21.4240  -29.2960   22.4240 N   0  0  0  0  0  0  0  0  0  0  0  0
  -23.4110  -28.8380   23.3940 O   0  0  0  0  0  0  0  0  0  0  0  0
  -20.9490  -29.8450   21.7200 H   0  0  0  0  0  0  0  0  0  0  0  0
  -18.0340  -28.1000   22.9220 C   0  0  0  0  0  0  0  0  0  0  0  0
  -20.5940  -28.3650   23.1950 C   0  0  0  0  0  3  0  0  0  0  0  0
  -20.6970  -26.9300   22.6260 C   0  0  0  0  0  2  0  0  0  0  0  0
  -19.5990  -26.6040   21.6090 C   0  0  0  0  0  2  0  0  0  0  0  0
  -18.2150  -26.7490   22.2470 C   0  0  0  0  0  2  0  0  0  0  0  0
  -19.1510  -28.8650   23.3520 C   0  0  0  0  0  0  0  0  0  0  0  0
  -18.9290  -30.1240   23.9470 C   0  0  0  0  0  3  0  0  0  0  0  0
  -17.6240  -30.6230   24.1140 C   0  0  0  0  0  3  0  0  0  0  0  0
  -16.5210  -29.8560   23.6990 C   0  0  0  0  0  3  0  0  0  0  0  0
  -16.7260  -28.5960   23.1100 C   0  0  0  0  0  3  0  0  0  0  0  0
  -25.8860  -32.5160   23.8660 C   0  0  0  0  0  3  0  0  0  0  0  0
  -25.5590  -33.9190   24.1780 N   0  0  0  0  0  0  0  0  0  0  0  0
  -25.9050  -34.9740   23.4300 C   0  0  0  0  0  0  0  0  0  0  0  0
  -26.5950  -34.8690   22.4130 O   0  0  0  0  0  0  0  0  0  0  0  0
  -24.9440  -34.0740   24.9630 H   0  0  0  0  0  0  0  0  0  0  0  0
  -24.1850  -36.7780   23.0480 C   0  0  0  0  0  1  0  0  0  0  0  0
  -25.4120  -36.3680   23.8780 C   0  0  0  0  0  3  0  0  0  0  0  0
  -27.5330  -37.2570   24.7420 C   0  0  0  0  0  1  0  0  0  0  0  0
  -26.4470  -37.4210   23.7780 N   0  0  0  0  0  0  0  0  0  0  0  0
  -26.0400  -38.3420   23.9160 H   0  0  0  0  0  0  0  0  0  0  0  0
  -26.3720  -31.7710   25.1710 C   0  0  1  0  0  0  0  0  0  0  0  0
  -25.2570  -31.5570   26.2220 C   0  0  0  0  0  1  0  0  0  0  0  0
  -26.9610  -30.3840   24.8300 C   0  0  0  0  0  1  0  0  0  0  0  0
  -27.5100  -32.5790   25.8400 C   0  0  0  0  0  1  0  0  0  0  0  0
  1  8  1  0
  1  2  1  0
  3  4  1  0
  6  3  1  0
  6  1  1  0
  6  9  1  0
  7  4  1  0
  7  2  1  0
  7  5  1  0
  8 11  1  0
  9  5  1  0
  9 10  1  6
 12 17  1  0
 13 14  1  0
 13 12  1  0
 15 14  1  0
 15 22  1  0
 15 16  1  0
 17 11  1  0
 17 16  1  0
 18 11  2  0
 19 20  2  0
 20 39  1  0
 21 20  1  0
 21 24  1  0
 22 19  1  0
 22 23  1  0
 23 21  2  0
 24 25  1  0
 25 26  2  0
 27 30  1  0
 27 26  1  0
 28 27  2  0
 29 28  1  0
 29 24  2  0
 30 31  1  0
 31 32  1  0
 32 33  2  0
 34 33  1  0
 34 38  1  0
 35 34  2  0
 36 31  2  0
 36 35  1  0
 37 36  1  0
 39 40  1  0
 40 43  1  0
 40 42  1  0
 41 39  2  0
 44 45  1  0
 44 19  1  0
 46 44  1  0
 47  9  1  0
 47 48  1  0
 49 51  1  0
 49 48  1  0
 50 61  2  0
 51 56  1  0
 52 60  1  0
 52 62  1  0
 53 59  1  0
 53 55  1  0
 54 60  1  0
 55 56  2  0
 55 54  1  0
 57 51  2  0
 58 57  1  0
 58 53  2  0
 59 52  1  0
 60 50  1  0
 62 64  2  0
 63 62  1  0
 65 63  1  0
 66 75  2  0
 66 71  1  0
 67 63  1  0
 67 71  1  0
 68 67  1  0
 69 70  1  0
 69 68  1  0
 70 66  1  0
 71 72  2  0
 72 73  1  0
 74 73  2  0
 75 74  1  0
 76 50  1  0
 76 77  1  0
 76 86  1  0
 77 80  1  0
 78 82  1  0
 78 77  1  0
 79 78  2  0
 82 81  1  0
 84 82  1  0
 84 85  1  0
 84 83  1  0
 86 89  1  1
 86 87  1  0
 88 86  1  0
M  ISO  4   8 100  11 100  48 101  49 101
M  END
>  <TORSDO>  (43) 
F 18

>  <SCORE>  (43) 
-16.210

>  <name>  (43) 
43

>  <ligand_id>  (43) 
43

>  <original_smiles>  (43) 
[H]c1c([H])c([H])c2c(c1[H])C([H])([H])C([H])([H])C([H])([H])C2([H])N([H])C(=O)C1([H])N(C(=O)C([H])(N([H])C(=O)C([H])(N([H])C([H])([H])[H])C([H])([H])[H])C(C([H])([H])[H])(C([H])([H])[H])C([H])([H])[H])C([H])([H])c2c([H])c(OC([H])([H])C([H])([H])[N+]3([H])C([H])([H])C4([H])C([H])([H])C(=NC(=O)N5C([H])([H])C([H])([H])C([H])([H])C([H])(n6nc(-c7c([H])c([H])c(Oc8c([H])c([H])c(F)c([H])c8F)c([H])c7[H])c(C(=O)N([H])[H])c6N([H])[H])C5([H])[H])C3([H])C([H])([H])C4([H])[H])c([H])c([H])c2C1([H])[H]

>  <smiles>  (43) 
[H]c1c([H])c([H])c2c(c1[H])C([H])([H])C([H])([H])C([H])([H])C2([H])N([H])C(=O)C1([H])N(C(=O)C([H])(N([H])C(=O)C([H])(N([H])C([H])([H])[H])C([H])([H])[H])C(C([H])([H])[H])(C([H])([H])[H])C([H])([H])[H])C([H])([H])c2c([H])c(OC([H])([H])C([H])([H])[N+]3([H])C([H])([H])C4([H])C([H])([H])C(=NC(=O)N5C([H])([H])C([H])([H])C([H])([H])C([H])(n6nc(-c7c([H])c([H])c(Oc8c([H])c([H])c(F)c([H])c8F)c([H])c7[H])c(C(=O)N([H])[H])c6N([H])[H])C5([H])[H])C3([H])C([H])([H])C4([H])[H])c([H])c([H])c2C1([H])[H]

$$$$
44:0:0
     RDKit          3D

 89 97  0  0  1  0  0  0  0  0999 V2000
  -29.2530  -20.8830   19.9720 C   0  0  0  0  0  0  0  0  0  0  0  0
  -29.2260  -18.2730   19.0930 C   0  0  0  0  0  0  0  0  0  0  0  0
  -29.2430  -19.8330   18.8030 C   0  0  0  0  0  2  0  0  0  0  0  0
  -29.8330  -20.2010   21.2540 C   0  0  0  0  0  2  0  0  0  0  0  0
  -29.7000  -18.5940   21.4140 C   0  0  0  0  0  2  0  0  0  0  0  0
  -30.1170  -17.6380   20.2140 C   0  0  0  0  0  3  0  0  0  0  0  0
  -28.8860  -22.1600   19.7240 N   0  0  0  0  0  0  0  0  0  0  0  0
  -28.4940  -17.5570   18.4000 O   0  0  0  0  0  0  0  0  0  0  0  0
  -30.6280  -14.9600   20.0960 C   0  0  0  0  0  0  0  0  0  0  0  0
  -30.4340  -12.6550   19.0920 C   0  0  0  0  0  2  0  0  0  0  0  0
  -29.4480  -12.7070   17.9000 C   0  0  0  0  0  2  0  0  0  0  0  0
  -27.9970  -12.5080   18.3800 C   0  0  0  0  0  2  0  0  0  0  0  0
  -27.6650  -13.3730   19.6260 C   0  0  0  0  0  3  0  0  0  0  0  0
  -28.7690  -13.3050   20.7020 C   0  0  0  0  0  2  0  0  0  0  0  0
  -30.0260  -13.7100   20.0600 N   0  0  0  0  0  0  0  0  0  0  0  0
  -31.7870  -15.0650   19.6800 O   0  0  0  0  0  0  0  0  0  0  0  0
  -29.8770  -16.1010   20.4310 N   0  0  0  0  0  0  0  0  0  0  0  0
  -28.9440  -15.8830   20.7380 H   0  0  0  0  0  0  0  0  0  0  0  0
  -25.3220  -13.9370   20.4930 C   0  0  0  0  0  0  0  0  0  0  0  0
  -24.2730  -13.1560   20.8930 C   0  0  0  0  0  0  0  0  0  0  0  0
  -24.7270  -11.8040   20.7940 C   0  0  0  0  0  0  0  0  0  0  0  0
  -26.3480  -13.0640   20.1740 N   0  0  0  0  0  0  0  0  0  0  0  0
  -26.0000  -11.7720   20.4150 N   0  0  0  0  0  0  0  0  0  0  0  0
  -24.0020  -10.5390   20.9770 C   0  0  0  0  0  0  0  0  0  0  0  0
  -24.4470   -9.5580   21.8890 C   0  0  0  0  0  3  0  0  0  0  0  0
  -23.7210   -8.3590   22.0640 C   0  0  0  0  0  3  0  0  0  0  0  0
  -22.5350   -8.1340   21.3240 C   0  0  0  0  0  0  0  0  0  0  0  0
  -22.1090   -9.1030   20.4000 C   0  0  0  0  0  3  0  0  0  0  0  0
  -22.8360  -10.2930   20.2230 C   0  0  0  0  0  3  0  0  0  0  0  0
  -21.7790   -6.9890   21.4090 O   0  0  0  0  0  0  0  0  0  0  0  0
  -21.7140   -6.2540   22.5650 C   0  0  0  0  0  0  0  0  0  0  0  0
  -21.2140   -6.7960   23.7680 C   0  0  0  0  0  3  0  0  0  0  0  0
  -21.1000   -5.9840   24.9140 C   0  0  0  0  0  3  0  0  0  0  0  0
  -21.4760   -4.6290   24.8570 C   0  0  0  0  0  0  0  0  0  0  0  0
  -21.9680   -4.0850   23.6590 C   0  0  0  0  0  3  0  0  0  0  0  0
  -22.0840   -4.8940   22.5160 C   0  0  0  0  0  0  0  0  0  0  0  0
  -22.5400   -4.3600   21.3570 F   0  0  0  0  0  0  0  0  0  0  0  0
  -21.3610   -3.8460   25.9560 F   0  0  0  0  0  0  0  0  0  0  0  0
  -22.8950  -13.6310   21.2480 C   0  0  0  0  0  0  0  0  0  0  0  0
  -22.2040  -12.9110   22.1250 N   0  0  0  0  0  0  0  0  0  0  0  0
  -22.4390  -14.6730   20.7810 O   0  0  0  0  0  0  0  0  0  0  0  0
  -22.5850  -12.0690   22.5300 H   0  0  0  0  0  0  0  0  0  0  0  0
  -21.2770  -13.2070   22.3960 H   0  0  0  0  0  0  0  0  0  0  0  0
  -25.4850  -15.3120   20.3470 N   0  0  0  0  0  0  0  0  0  0  0  0
  -24.7190  -15.9620   20.4870 H   0  0  0  0  0  0  0  0  0  0  0  0
  -26.2960  -15.7450   19.9260 H   0  0  0  0  0  0  0  0  0  0  0  0
  -29.0200  -23.4950   20.5080 C   0  0  0  0  0  2  0  0  0  0  0  0
  -28.0720  -24.7980   20.0610 C   0  0  0  0  0  2  0  0  0  0  0  0
  -28.2970  -26.3000   20.3490 O   0  0  0  0  0  0  0  0  0  0  0  0
  -24.6370  -31.9370   23.2570 C   0  0  0  0  0  0  0  0  0  0  0  0
  -27.2310  -27.2560   20.2460 C   0  0  0  0  0  0  0  0  0  0  0  0
  -23.4370  -30.5340   21.6240 C   0  0  0  0  0  3  0  0  0  0  0  0
  -24.8880  -28.9660   20.2020 C   0  0  0  0  0  0  0  0  0  0  0  0
  -25.9870  -30.8220   21.4460 C   0  0  0  0  0  2  0  0  0  0  0  0
  -26.0650  -29.4320   20.7990 C   0  0  0  0  0  0  0  0  0  0  0  0
  -27.2380  -28.5940   20.8040 C   0  0  0  0  0  3  0  0  0  0  0  0
  -26.0300  -26.8890   19.5980 C   0  0  0  0  0  3  0  0  0  0  0  0
  -24.8800  -27.7050   19.5880 C   0  0  0  0  0  3  0  0  0  0  0  0
  -23.6530  -29.8510   20.2480 C   0  0  0  0  0  2  0  0  0  0  0  0
  -24.7060  -31.1190   22.1630 N   0  0  0  0  0  0  0  0  0  0  0  0
  -23.5520  -32.2170   23.7880 O   0  0  0  0  0  0  0  0  0  0  0  0
  -22.7660  -29.5260   22.5900 C   0  0  0  0  0  0  0  0  0  0  0  0
  -21.4450  -29.3250   22.4410 N   0  0  0  0  0  0  0  0  0  0  0  0
  -23.4370  -28.9260   23.4330 O   0  0  0  0  0  0  0  0  0  0  0  0
  -20.9600  -29.8600   21.7340 H   0  0  0  0  0  0  0  0  0  0  0  0
  -18.0790  -28.0690   22.9040 C   0  0  0  0  0  0  0  0  0  0  0  0
  -20.6280  -28.3830   23.2110 C   0  0  0  0  0  3  0  0  0  0  0  0
  -20.7660  -26.9450   22.6610 C   0  0  0  0  0  2  0  0  0  0  0  0
  -19.6890  -26.5870   21.6320 C   0  0  0  0  0  2  0  0  0  0  0  0
  -18.2940  -26.7150   22.2490 C   0  0  0  0  0  2  0  0  0  0  0  0
  -19.1760  -28.8590   23.3410 C   0  0  0  0  0  0  0  0  0  0  0  0
  -18.9220  -30.1250   23.9110 C   0  0  0  0  0  3  0  0  0  0  0  0
  -17.6050  -30.6030   24.0490 C   0  0  0  0  0  3  0  0  0  0  0  0
  -16.5230  -29.8090   23.6300 C   0  0  0  0  0  3  0  0  0  0  0  0
  -16.7610  -28.5450   23.0620 C   0  0  0  0  0  3  0  0  0  0  0  0
  -25.9160  -32.5760   23.8790 C   0  0  0  0  0  3  0  0  0  0  0  0
  -25.6050  -33.9790   24.1950 N   0  0  0  0  0  0  0  0  0  0  0  0
  -25.9140  -35.0220   23.4130 C   0  0  0  0  0  0  0  0  0  0  0  0
  -26.5560  -34.9060   22.3670 O   0  0  0  0  0  0  0  0  0  0  0  0
  -25.0290  -34.1420   25.0070 H   0  0  0  0  0  0  0  0  0  0  0  0
  -24.1630  -36.8010   23.0910 C   0  0  0  0  0  1  0  0  0  0  0  0
  -25.4360  -36.4180   23.8630 C   0  0  0  0  0  3  0  0  0  0  0  0
  -27.5870  -37.3400   24.6090 C   0  0  0  0  0  1  0  0  0  0  0  0
  -26.4580  -37.4740   23.6920 N   0  0  0  0  0  0  0  0  0  0  0  0
  -26.0490  -38.3960   23.8230 H   0  0  0  0  0  0  0  0  0  0  0  0
  -26.4180  -31.8200   25.1720 C   0  0  1  0  0  0  0  0  0  0  0  0
  -25.3130  -31.5910   26.2300 C   0  0  0  0  0  1  0  0  0  0  0  0
  -27.0070  -30.4380   24.8050 C   0  0  0  0  0  1  0  0  0  0  0  0
  -27.5610  -32.6230   25.8360 C   0  0  0  0  0  1  0  0  0  0  0  0
  1  4  1  0
  2  6  1  0
  3  2  1  0
  3  1  1  0
  4  5  1  0
  6 17  1  0
  6  5  1  0
  7  1  2  0
  7 47  1  0
  8  2  2  0
  9 17  1  0
 10 15  1  0
 11 12  1  0
 11 10  1  0
 13 12  1  0
 13 22  1  0
 13 14  1  0
 15  9  1  0
 15 14  1  0
 16  9  2  0
 17 18  1  0
 19 20  2  0
 20 39  1  0
 21 20  1  0
 21 24  1  0
 22 23  1  0
 22 19  1  0
 23 21  2  0
 24 25  1  0
 25 26  2  0
 27 30  1  0
 27 26  1  0
 28 27  2  0
 29 28  1  0
 29 24  2  0
 30 31  1  0
 31 32  1  0
 32 33  2  0
 34 33  1  0
 34 38  1  0
 35 34  2  0
 36 31  2  0
 36 35  1  0
 37 36  1  0
 39 40  1  0
 40 43  1  0
 40 42  1  0
 41 39  2  0
 44 45  1  0
 44 19  1  0
 46 44  1  0
 48 49  1  0
 48 47  1  0
 50 61  2  0
 51 49  1  0
 51 56  1  0
 52 60  1  0
 52 62  1  0
 53 59  1  0
 53 55  1  0
 54 60  1  0
 55 56  2  0
 55 54  1  0
 57 51  2  0
 58 57  1  0
 58 53  2  0
 59 52  1  0
 60 50  1  0
 62 64  2  0
 63 62  1  0
 65 63  1  0
 66 75  2  0
 66 71  1  0
 67 63  1  0
 67 71  1  0
 68 67  1  0
 69 70  1  0
 69 68  1  0
 70 66  1  0
 71 72  2  0
 72 73  1  0
 74 73  2  0
 75 74  1  0
 76 50  1  0
 76 77  1  0
 76 86  1  0
 77 80  1  0
 78 82  1  0
 78 77  1  0
 79 78  2  0
 82 81  1  0
 84 85  1  0
 84 82  1  0
 84 83  1  0
 86 89  1  1
 86 87  1  0
 88 86  1  0
M  ISO  4   9 100  17 100  48 101  49 101
M  END
>  <TORSDO>  (44) 
F 18

>  <SCORE>  (44) 
-14.242

>  <name>  (44) 
44

>  <ligand_id>  (44) 
44

>  <original_smiles>  (44) 
[H]c1c([H])c([H])c2c(c1[H])C([H])([H])C([H])([H])C([H])([H])C2([H])N([H])C(=O)C1([H])N(C(=O)C([H])(N([H])C(=O)C([H])(N([H])C([H])([H])[H])C([H])([H])[H])C(C([H])([H])[H])(C([H])([H])[H])C([H])([H])[H])C([H])([H])c2c([H])c(OC([H])([H])C([H])([H])N=C3C([H])([H])C(=O)C([H])(N([H])C(=O)N4C([H])([H])C([H])([H])C([H])([H])C([H])(n5nc(-c6c([H])c([H])c(Oc7c([H])c([H])c(F)c([H])c7F)c([H])c6[H])c(C(=O)N([H])[H])c5N([H])[H])C4([H])[H])C([H])([H])C3([H])[H])c([H])c([H])c2C1([H])[H]

>  <smiles>  (44) 
[H]c1c([H])c([H])c2c(c1[H])C([H])([H])C([H])([H])C([H])([H])C2([H])N([H])C(=O)C1([H])N(C(=O)C([H])(N([H])C(=O)C([H])(N([H])C([H])([H])[H])C([H])([H])[H])C(C([H])([H])[H])(C([H])([H])[H])C([H])([H])[H])C([H])([H])c2c([H])c(OC([H])([H])C([H])([H])N=C3C([H])([H])C(=O)C([H])(N([H])C(=O)N4C([H])([H])C([H])([H])C([H])([H])C([H])(n5nc(-c6c([H])c([H])c(Oc7c([H])c([H])c(F)c([H])c7F)c([H])c6[H])c(C(=O)N([H])[H])c5N([H])[H])C4([H])[H])C([H])([H])C3([H])[H])c([H])c([H])c2C1([H])[H]

$$$$
45:0:0
     RDKit          3D

 91100  0  0  1  0  0  0  0  0999 V2000
  -28.0640  -22.3370   18.7970 C   0  0  0  0  0  3  0  0  0  0  0  0
  -28.4590  -23.1770   19.7830 C   0  0  0  0  0  0  0  0  0  0  0  0
  -30.1710  -17.9130   18.5940 C   0  0  0  0  0  0  0  0  0  0  0  0
  -29.1720  -22.1540   20.7900 C   0  0  0  0  0  2  0  0  0  0  0  0
  -29.3740  -18.7820   17.6070 C   0  0  0  0  0  2  0  0  0  0  0  0
  -29.3780  -20.3120   17.8870 C   0  0  0  0  0  2  0  0  0  0  0  0
  -29.5900  -19.1280   20.7940 C   0  0  0  0  0  2  0  0  0  0  0  0
  -28.3420  -20.8120   18.9260 C   0  0  0  0  0  3  0  0  0  0  0  0
  -29.5230  -17.6570   19.9630 C   0  0  0  0  0  3  0  0  0  0  0  0
  -28.7940  -20.5800   20.3850 C   0  0  0  0  0  3  0  0  0  0  0  0
  -31.2870  -17.5030   18.2750 O   0  0  0  0  0  0  0  0  0  0  0  0
  -30.5100  -15.0040   20.2470 C   0  0  0  0  0  0  0  0  0  0  0  0
  -30.3890  -12.6310   19.3440 C   0  0  0  0  0  2  0  0  0  0  0  0
  -29.4550  -12.5870   18.1110 C   0  0  0  0  0  2  0  0  0  0  0  0
  -27.9950  -12.3700   18.5480 C   0  0  0  0  0  2  0  0  0  0  0  0
  -27.5950  -13.2920   19.7290 C   0  0  0  0  0  3  0  0  0  0  0  0
  -28.6550  -13.3130   20.8540 C   0  0  0  0  0  2  0  0  0  0  0  0
  -29.9260  -13.7310   20.2480 N   0  0  0  0  0  0  0  0  0  0  0  0
  -31.6760  -15.0590   19.8420 O   0  0  0  0  0  0  0  0  0  0  0  0
  -29.7790  -16.1930   20.5830 N   0  0  0  0  0  0  0  0  0  0  0  0
  -28.9730  -15.9200   21.1250 H   0  0  0  0  0  0  0  0  0  0  0  0
  -25.2170  -13.8610   20.4800 C   0  0  0  0  0  0  0  0  0  0  0  0
  -24.1570  -13.0830   20.8570 C   0  0  0  0  0  0  0  0  0  0  0  0
  -24.6260  -11.7340   20.8270 C   0  0  0  0  0  0  0  0  0  0  0  0
  -26.2610  -12.9860   20.2340 N   0  0  0  0  0  0  0  0  0  0  0  0
  -25.9150  -11.7010   20.5100 N   0  0  0  0  0  0  0  0  0  0  0  0
  -23.9030  -10.4710   21.0240 C   0  0  0  0  0  0  0  0  0  0  0  0
  -24.3460   -9.5010   21.9500 C   0  0  0  0  0  3  0  0  0  0  0  0
  -23.6200   -8.3040   22.1370 C   0  0  0  0  0  3  0  0  0  0  0  0
  -22.4370   -8.0680   21.3970 C   0  0  0  0  0  0  0  0  0  0  0  0
  -22.0120   -9.0260   20.4610 C   0  0  0  0  0  3  0  0  0  0  0  0
  -22.7390  -10.2150   20.2720 C   0  0  0  0  0  3  0  0  0  0  0  0
  -21.6830   -6.9240   21.4940 O   0  0  0  0  0  0  0  0  0  0  0  0
  -21.6540   -6.1750   22.6430 C   0  0  0  0  0  0  0  0  0  0  0  0
  -21.2550   -6.7250   23.8810 C   0  0  0  0  0  3  0  0  0  0  0  0
  -21.1730   -5.9030   25.0220 C   0  0  0  0  0  3  0  0  0  0  0  0
  -21.4780   -4.5330   24.9280 C   0  0  0  0  0  0  0  0  0  0  0  0
  -21.8700   -3.9820   23.6950 C   0  0  0  0  0  3  0  0  0  0  0  0
  -21.9540   -4.8010   22.5550 C   0  0  0  0  0  0  0  0  0  0  0  0
  -22.3110   -4.2610   21.3660 F   0  0  0  0  0  0  0  0  0  0  0  0
  -21.3930   -3.7420   26.0230 F   0  0  0  0  0  0  0  0  0  0  0  0
  -22.7610  -13.5590   21.1340 C   0  0  0  0  0  0  0  0  0  0  0  0
  -22.0400  -12.8650   22.0070 N   0  0  0  0  0  0  0  0  0  0  0  0
  -22.3190  -14.5810   20.6110 O   0  0  0  0  0  0  0  0  0  0  0  0
  -22.4100  -12.0390   22.4510 H   0  0  0  0  0  0  0  0  0  0  0  0
  -21.1020  -13.1660   22.2350 H   0  0  0  0  0  0  0  0  0  0  0  0
  -25.3750  -15.2310   20.2960 N   0  0  0  0  0  0  0  0  0  0  0  0
  -24.6040  -15.8810   20.4080 H   0  0  0  0  0  0  0  0  0  0  0  0
  -26.2130  -15.6710   19.9390 H   0  0  0  0  0  0  0  0  0  0  0  0
  -28.5030  -24.8340   19.4930 C   0  0  0  0  0  2  0  0  0  0  0  0
  -28.2480  -26.1110   20.3490 O   0  0  0  0  0  0  0  0  0  0  0  0
  -24.6390  -31.8490   23.2240 C   0  0  0  0  0  0  0  0  0  0  0  0
  -27.2120  -27.1120   20.1840 C   0  0  0  0  0  0  0  0  0  0  0  0
  -23.4350  -30.4490   21.5900 C   0  0  0  0  0  3  0  0  0  0  0  0
  -24.8810  -28.8710   20.1520 C   0  0  0  0  0  0  0  0  0  0  0  0
  -25.9880  -30.7080   21.4210 C   0  0  0  0  0  2  0  0  0  0  0  0
  -26.0590  -29.3130   20.7670 C   0  0  0  0  0  0  0  0  0  0  0  0
  -27.2160  -28.4450   20.7750 C   0  0  0  0  0  3  0  0  0  0  0  0
  -26.0120  -26.7790   19.5200 C   0  0  0  0  0  3  0  0  0  0  0  0
  -24.8720  -27.6190   19.5140 C   0  0  0  0  0  3  0  0  0  0  0  0
  -23.6520  -29.7680   20.2100 C   0  0  0  0  0  2  0  0  0  0  0  0
  -24.7080  -31.0250   22.1330 N   0  0  0  0  0  0  0  0  0  0  0  0
  -23.5550  -32.1350   23.7550 O   0  0  0  0  0  0  0  0  0  0  0  0
  -22.7580  -29.4460   22.5580 C   0  0  0  0  0  0  0  0  0  0  0  0
  -21.4280  -29.2800   22.4400 N   0  0  0  0  0  0  0  0  0  0  0  0
  -23.4320  -28.8200   23.3800 O   0  0  0  0  0  0  0  0  0  0  0  0
  -20.9400  -29.8370   21.7520 H   0  0  0  0  0  0  0  0  0  0  0  0
  -18.0490  -28.0800   22.9580 C   0  0  0  0  0  0  0  0  0  0  0  0
  -20.6090  -28.3450   23.2170 C   0  0  0  0  0  3  0  0  0  0  0  0
  -20.7100  -26.9110   22.6470 C   0  0  0  0  0  2  0  0  0  0  0  0
  -19.6050  -26.5850   21.6360 C   0  0  0  0  0  2  0  0  0  0  0  0
  -18.2250  -26.7300   22.2830 C   0  0  0  0  0  2  0  0  0  0  0  0
  -19.1680  -28.8450   23.3810 C   0  0  0  0  0  0  0  0  0  0  0  0
  -18.9470  -30.1080   23.9740 C   0  0  0  0  0  3  0  0  0  0  0  0
  -17.6420  -30.6040   24.1460 C   0  0  0  0  0  3  0  0  0  0  0  0
  -16.5380  -29.8370   23.7360 C   0  0  0  0  0  3  0  0  0  0  0  0
  -16.7420  -28.5750   23.1480 C   0  0  0  0  0  3  0  0  0  0  0  0
  -25.9180  -32.4870   23.8480 C   0  0  0  0  0  3  0  0  0  0  0  0
  -25.6040  -33.8840   24.1850 N   0  0  0  0  0  0  0  0  0  0  0  0
  -25.9240  -34.9450   23.4320 C   0  0  0  0  0  0  0  0  0  0  0  0
  -26.5800  -34.8500   22.3910 O   0  0  0  0  0  0  0  0  0  0  0  0
  -25.0180  -34.0320   24.9950 H   0  0  0  0  0  0  0  0  0  0  0  0
  -24.1810  -36.7350   23.1250 C   0  0  0  0  0  1  0  0  0  0  0  0
  -25.4420  -36.3320   23.9060 C   0  0  0  0  0  3  0  0  0  0  0  0
  -27.5900  -37.2240   24.6930 C   0  0  0  0  0  1  0  0  0  0  0  0
  -26.4660  -37.3890   23.7740 N   0  0  0  0  0  0  0  0  0  0  0  0
  -26.0600  -38.3080   23.9330 H   0  0  0  0  0  0  0  0  0  0  0  0
  -26.4360  -31.7180   25.1250 C   0  0  1  0  0  0  0  0  0  0  0  0
  -25.3440  -31.4850   26.1970 C   0  0  0  0  0  1  0  0  0  0  0  0
  -27.0170  -30.3380   24.7410 C   0  0  0  0  0  1  0  0  0  0  0  0
  -27.5890  -32.5120   25.7840 C   0  0  0  0  0  1  0  0  0  0  0  0
  1  8  1  0
  1  2  2  0
  2  4  1  0
  3  9  1  0
  5  6  1  0
  5  3  1  0
  8  6  1  0
  8 10  1  0
  9 20  1  0
  9  7  1  0
 10  4  1  0
 10  7  1  0
 11  3  2  0
 12 18  1  0
 12 20  1  0
 13 18  1  0
 14 15  1  0
 14 13  1  0
 16 15  1  0
 16 25  1  0
 16 17  1  0
 18 17  1  0
 19 12  2  0
 20 21  1  0
 22 23  2  0
 23 42  1  0
 24 23  1  0
 24 27  1  0
 25 22  1  0
 25 26  1  0
 26 24  2  0
 27 28  1  0
 28 29  2  0
 30 33  1  0
 30 29  1  0
 31 30  2  0
 32 31  1  0
 32 27  2  0
 33 34  1  0
 34 35  1  0
 35 36  2  0
 37 36  1  0
 37 41  1  0
 38 37  2  0
 39 34  2  0
 39 38  1  0
 40 39  1  0
 42 43  1  0
 43 46  1  0
 43 45  1  0
 44 42  2  0
 47 48  1  0
 47 22  1  0
 49 47  1  0
 50  2  1  0
 50 51  1  0
 52 63  2  0
 53 51  1  0
 53 58  1  0
 54 62  1  0
 54 64  1  0
 55 61  1  0
 55 57  1  0
 56 62  1  0
 57 58  2  0
 57 56  1  0
 59 53  2  0
 60 59  1  0
 60 55  2  0
 61 54  1  0
 62 52  1  0
 64 66  2  0
 65 64  1  0
 67 65  1  0
 68 77  2  0
 68 73  1  0
 69 65  1  0
 69 73  1  0
 70 69  1  0
 71 72  1  0
 71 70  1  0
 72 68  1  0
 73 74  2  0
 74 75  1  0
 76 75  2  0
 77 76  1  0
 78 52  1  0
 78 79  1  0
 78 88  1  0
 79 82  1  0
 80 84  1  0
 80 79  1  0
 81 80  2  0
 84 83  1  0
 86 84  1  0
 86 87  1  0
 86 85  1  0
 88 91  1  1
 88 89  1  0
 90 88  1  0
M  ISO  4  12 100  20 100  50 101  51 101
M  END
>  <TORSDO>  (45) 
F 17

>  <SCORE>  (45) 
-15.188

>  <name>  (45) 
45

>  <ligand_id>  (45) 
45

>  <original_smiles>  (45) 
[H]C1=C(C([H])([H])Oc2c([H])c([H])c3c(c2[H])C([H])([H])N(C(=O)C([H])(N([H])C(=O)C([H])(N([H])C([H])([H])[H])C([H])([H])[H])C(C([H])([H])[H])(C([H])([H])[H])C([H])([H])[H])C([H])(C(=O)N([H])C2([H])c4c([H])c([H])c([H])c([H])c4C([H])([H])C([H])([H])C2([H])[H])C3([H])[H])C([H])([H])C2([H])C([H])([H])C([H])(N([H])C(=O)N3C([H])([H])C([H])([H])C([H])([H])C([H])(n4nc(-c5c([H])c([H])c(Oc6c([H])c([H])c(F)c([H])c6F)c([H])c5[H])c(C(=O)N([H])[H])c4N([H])[H])C3([H])[H])C(=O)C([H])([H])C([H])([H])C12[H]

>  <smiles>  (45) 
[H]C1=C(C([H])([H])Oc2c([H])c([H])c3c(c2[H])C([H])([H])N(C(=O)C([H])(N([H])C(=O)C([H])(N([H])C([H])([H])[H])C([H])([H])[H])C(C([H])([H])[H])(C([H])([H])[H])C([H])([H])[H])C([H])(C(=O)N([H])C2([H])c4c([H])c([H])c([H])c([H])c4C([H])([H])C([H])([H])C2([H])[H])C3([H])[H])C([H])([H])C2([H])C([H])([H])C([H])(N([H])C(=O)N3C([H])([H])C([H])([H])C([H])([H])C([H])(n4nc(-c5c([H])c([H])c(Oc6c([H])c([H])c(F)c([H])c6F)c([H])c5[H])c(C(=O)N([H])[H])c4N([H])[H])C3([H])[H])C(=O)C([H])([H])C([H])([H])C12[H]

$$$$
46:0:0
     RDKit          3D

 88 96  0  0  1  0  0  0  0  0999 V2000
  -28.6120  -21.6890   20.3880 C   0  0  0  0  0  2  0  0  0  0  0  0
  -29.6490  -20.4830   20.2940 N   0  0  0  0  0  4  0  0  0  0  0  0
  -30.0660  -20.5330   19.3780 H   0  0  0  0  0  0  0  0  0  0  0  0
  -30.3850  -20.7200   20.9400 H   0  0  0  0  0  0  0  0  0  0  0  0
  -30.5480  -15.0480   20.2710 C   0  0  0  0  0  0  0  0  0  0  0  0
  -30.3740  -12.6970   19.3220 C   0  0  0  0  0  2  0  0  0  0  0  0
  -29.4260  -12.6140   18.1060 C   0  0  0  0  0  2  0  0  0  0  0  0
  -27.9800  -12.3640   18.5710 C   0  0  0  0  0  2  0  0  0  0  0  0
  -27.5680  -13.2980   19.7340 C   0  0  0  0  0  3  0  0  0  0  0  0
  -28.6440  -13.3870   20.8400 C   0  0  0  0  0  2  0  0  0  0  0  0
  -29.8940  -13.8120   20.1920 N   0  0  0  0  0  0  0  0  0  0  0  0
  -31.7700  -15.0210   20.0870 O   0  0  0  0  0  0  0  0  0  0  0  0
  -28.3490  -18.2100   19.6660 C   0  0  0  0  0  2  0  0  0  0  0  0
  -28.5190  -16.6590   19.9180 C   0  0  0  0  0  2  0  0  0  0  0  0
  -30.4650  -17.7520   20.5440 C   0  0  0  0  0  2  0  0  0  0  0  0
  -29.3330  -18.9440   20.5810 C   0  0  0  0  0  3  0  0  0  0  0  0
  -29.8820  -16.3230   20.3800 N   0  0  0  0  0  0  0  0  0  0  0  0
  -25.2000  -13.8710   20.5110 C   0  0  0  0  0  0  0  0  0  0  0  0
  -24.1450  -13.0920   20.8870 C   0  0  0  0  0  0  0  0  0  0  0  0
  -24.6130  -11.7430   20.8420 C   0  0  0  0  0  0  0  0  0  0  0  0
  -26.2440  -12.9960   20.2570 N   0  0  0  0  0  0  0  0  0  0  0  0
  -25.9020  -11.7120   20.5230 N   0  0  0  0  0  0  0  0  0  0  0  0
  -23.8940  -10.4790   21.0250 C   0  0  0  0  0  0  0  0  0  0  0  0
  -24.3200   -9.5160   21.9660 C   0  0  0  0  0  3  0  0  0  0  0  0
  -23.5980   -8.3160   22.1370 C   0  0  0  0  0  3  0  0  0  0  0  0
  -22.4370   -8.0700   21.3670 C   0  0  0  0  0  0  0  0  0  0  0  0
  -22.0310   -9.0210   20.4150 C   0  0  0  0  0  3  0  0  0  0  0  0
  -22.7530  -10.2130   20.2410 C   0  0  0  0  0  3  0  0  0  0  0  0
  -21.6890   -6.9210   21.4470 O   0  0  0  0  0  0  0  0  0  0  0  0
  -21.6050   -6.1990   22.6110 C   0  0  0  0  0  0  0  0  0  0  0  0
  -21.1140   -6.7670   23.8070 C   0  0  0  0  0  3  0  0  0  0  0  0
  -20.9790   -5.9700   24.9610 C   0  0  0  0  0  3  0  0  0  0  0  0
  -21.3240   -4.6060   24.9200 C   0  0  0  0  0  0  0  0  0  0  0  0
  -21.8090   -4.0380   23.7290 C   0  0  0  0  0  3  0  0  0  0  0  0
  -21.9460   -4.8310   22.5760 C   0  0  0  0  0  0  0  0  0  0  0  0
  -22.3930   -4.2740   21.4250 F   0  0  0  0  0  0  0  0  0  0  0  0
  -21.1870   -3.8370   26.0250 F   0  0  0  0  0  0  0  0  0  0  0  0
  -22.7490  -13.5640   21.1700 C   0  0  0  0  0  0  0  0  0  0  0  0
  -22.0300  -12.8600   22.0370 N   0  0  0  0  0  0  0  0  0  0  0  0
  -22.3060  -14.5920   20.6590 O   0  0  0  0  0  0  0  0  0  0  0  0
  -22.4020  -12.0290   22.4710 H   0  0  0  0  0  0  0  0  0  0  0  0
  -21.0930  -13.1590   22.2710 H   0  0  0  0  0  0  0  0  0  0  0  0
  -25.3470  -15.2430   20.3310 N   0  0  0  0  0  0  0  0  0  0  0  0
  -24.5640  -15.8790   20.4380 H   0  0  0  0  0  0  0  0  0  0  0  0
  -26.1700  -15.6850   19.9470 H   0  0  0  0  0  0  0  0  0  0  0  0
  -29.0320  -23.3370   20.2920 C   0  0  0  0  0  3  0  0  0  0  0  0
  -27.9540  -24.6450   20.2310 C   0  0  0  0  0  3  0  0  0  0  0  0
  -28.2370  -26.1870   20.2540 O   0  0  0  0  0  0  0  0  0  0  0  0
  -24.6210  -31.8990   23.2420 C   0  0  0  0  0  0  0  0  0  0  0  0
  -27.1770  -27.1720   20.2040 C   0  0  0  0  0  0  0  0  0  0  0  0
  -23.4110  -30.5070   21.6090 C   0  0  0  0  0  3  0  0  0  0  0  0
  -24.8500  -28.9270   20.1800 C   0  0  0  0  0  0  0  0  0  0  0  0
  -25.9650  -30.7640   21.4330 C   0  0  0  0  0  2  0  0  0  0  0  0
  -26.0340  -29.3710   20.7810 C   0  0  0  0  0  0  0  0  0  0  0  0
  -27.1990  -28.5120   20.7720 C   0  0  0  0  0  3  0  0  0  0  0  0
  -25.9620  -26.8320   19.5670 C   0  0  0  0  0  3  0  0  0  0  0  0
  -24.8280  -27.6710   19.5570 C   0  0  0  0  0  3  0  0  0  0  0  0
  -23.6250  -29.8270   20.2300 C   0  0  0  0  0  2  0  0  0  0  0  0
  -24.6860  -31.0780   22.1500 N   0  0  0  0  0  0  0  0  0  0  0  0
  -23.5370  -32.1860   23.7740 O   0  0  0  0  0  0  0  0  0  0  0  0
  -22.7320  -29.5010   22.5730 C   0  0  0  0  0  0  0  0  0  0  0  0
  -21.4030  -29.3330   22.4480 N   0  0  0  0  0  0  0  0  0  0  0  0
  -23.4030  -28.8750   23.3970 O   0  0  0  0  0  0  0  0  0  0  0  0
  -20.9180  -29.8870   21.7570 H   0  0  0  0  0  0  0  0  0  0  0  0
  -18.0200  -28.1410   22.9630 C   0  0  0  0  0  0  0  0  0  0  0  0
  -20.5800  -28.3980   23.2220 C   0  0  0  0  0  3  0  0  0  0  0  0
  -20.6770  -26.9650   22.6490 C   0  0  0  0  0  2  0  0  0  0  0  0
  -19.5720  -26.6430   21.6390 C   0  0  0  0  0  2  0  0  0  0  0  0
  -18.1940  -26.7900   22.2890 C   0  0  0  0  0  2  0  0  0  0  0  0
  -19.1410  -28.9020   23.3870 C   0  0  0  0  0  0  0  0  0  0  0  0
  -18.9240  -30.1650   23.9800 C   0  0  0  0  0  3  0  0  0  0  0  0
  -17.6210  -30.6650   24.1530 C   0  0  0  0  0  3  0  0  0  0  0  0
  -16.5140  -29.9020   23.7440 C   0  0  0  0  0  3  0  0  0  0  0  0
  -16.7150  -28.6400   23.1550 C   0  0  0  0  0  3  0  0  0  0  0  0
  -25.9020  -32.5320   23.8640 C   0  0  0  0  0  3  0  0  0  0  0  0
  -26.4180  -31.7590   25.1400 C   0  0  1  0  0  0  0  0  0  0  0  0
  -25.3250  -31.5230   26.2100 C   0  0  0  0  0  1  0  0  0  0  0  0
  -26.9990  -30.3810   24.7510 C   0  0  0  0  0  1  0  0  0  0  0  0
  -27.5700  -32.5510   25.8010 C   0  0  0  0  0  1  0  0  0  0  0  0
  -25.5920  -33.9290   24.2040 N   0  0  0  0  0  0  0  0  0  0  0  0
  -25.9030  -34.9880   23.4440 C   0  0  0  0  0  0  0  0  0  0  0  0
  -26.5460  -34.8900   22.3950 O   0  0  0  0  0  0  0  0  0  0  0  0
  -25.0180  -34.0790   25.0200 H   0  0  0  0  0  0  0  0  0  0  0  0
  -24.1540  -36.7750   23.1540 C   0  0  0  0  0  1  0  0  0  0  0  0
  -25.4260  -36.3740   23.9200 C   0  0  0  0  0  3  0  0  0  0  0  0
  -27.5810  -37.2750   24.6780 C   0  0  0  0  0  1  0  0  0  0  0  0
  -26.4480  -37.4340   23.7700 N   0  0  0  0  0  0  0  0  0  0  0  0
  -26.0420  -38.3520   23.9290 H   0  0  0  0  0  0  0  0  0  0  0  0
  2  1  1  0
  2  4  1  0
  3  2  1  0
  5 17  1  0
  6 11  1  0
  7  8  1  0
  7  6  1  0
  9  8  1  0
  9 21  1  0
  9 10  1  0
 11  5  1  0
 11 10  1  0
 12  5  2  0
 13 14  1  0
 13 16  1  0
 14 17  1  0
 15 16  1  0
 16  2  1  0
 17 15  1  0
 18 19  2  0
 19 38  1  0
 20 19  1  0
 20 23  1  0
 21 18  1  0
 21 22  1  0
 22 20  2  0
 23 24  1  0
 24 25  2  0
 26 29  1  0
 26 25  1  0
 27 26  2  0
 28 27  1  0
 28 23  2  0
 29 30  1  0
 30 31  1  0
 31 32  2  0
 33 32  1  0
 33 37  1  0
 34 33  2  0
 35 30  2  0
 35 34  1  0
 36 35  1  0
 38 39  1  0
 39 42  1  0
 39 41  1  0
 40 38  2  0
 43 44  1  0
 43 18  1  0
 45 43  1  0
 46  1  1  0
 47 48  1  0
 47 46  2  0
 49 60  2  0
 50 48  1  0
 50 55  1  0
 51 59  1  0
 51 61  1  0
 52 58  1  0
 52 54  1  0
 53 59  1  0
 54 53  1  0
 55 54  2  0
 56 50  2  0
 57 56  1  0
 57 52  2  0
 58 51  1  0
 59 49  1  0
 61 63  2  0
 62 61  1  0
 64 62  1  0
 65 74  2  0
 65 70  1  0
 66 62  1  0
 66 70  1  0
 67 66  1  0
 68 69  1  0
 68 67  1  0
 69 65  1  0
 70 71  2  0
 71 72  1  0
 73 72  2  0
 74 73  1  0
 75 49  1  0
 75 80  1  0
 75 76  1  0
 76 79  1  1
 76 77  1  0
 78 76  1  0
 80 83  1  0
 81 85  1  0
 81 80  1  0
 82 81  2  0
 85 84  1  0
 87 85  1  0
 87 88  1  0
 87 86  1  0
M  ISO  4   5 100  17 100  47 101  48 101
M  END
>  <TORSDO>  (46) 
F 19

>  <SCORE>  (46) 
-15.412

>  <name>  (46) 
46

>  <ligand_id>  (46) 
46

>  <original_smiles>  (46) 
[H]c1c([H])c([H])c2c(c1[H])C([H])([H])C([H])([H])C([H])([H])C2([H])N([H])C(=O)C1([H])N(C(=O)C([H])(N([H])C(=O)C([H])(N([H])C([H])([H])[H])C([H])([H])[H])C(C([H])([H])[H])(C([H])([H])[H])C([H])([H])[H])C([H])([H])c2c([H])c(OC([H])([H])C([H])([H])C([H])([H])[N+]([H])([H])C3([H])C([H])([H])N(C(=O)N4C([H])([H])C([H])([H])C([H])([H])C([H])(n5nc(-c6c([H])c([H])c(Oc7c([H])c([H])c(F)c([H])c7F)c([H])c6[H])c(C(=O)N([H])[H])c5N([H])[H])C4([H])[H])C([H])([H])C3([H])[H])c([H])c([H])c2C1([H])[H]

>  <smiles>  (46) 
[H]c1c([H])c([H])c2c(c1[H])C([H])([H])C([H])([H])C([H])([H])C2([H])N([H])C(=O)C1([H])N(C(=O)C([H])(N([H])C(=O)C([H])(N([H])C([H])([H])[H])C([H])([H])[H])C(C([H])([H])[H])(C([H])([H])[H])C([H])([H])[H])C([H])([H])c2c([H])c(OC([H])([H])C([H])([H])C([H])([H])[N+]([H])([H])C3([H])C([H])([H])N(C(=O)N4C([H])([H])C([H])([H])C([H])([H])C([H])(n5nc(-c6c([H])c([H])c(Oc7c([H])c([H])c(F)c([H])c7F)c([H])c6[H])c(C(=O)N([H])[H])c5N([H])[H])C4([H])[H])C([H])([H])C3([H])[H])c([H])c([H])c2C1([H])[H]

$$$$
47:0:0
     RDKit          3D

 83 88  0  0  1  0  0  0  0  0999 V2000
  -29.4470  -22.5970   20.4720 C   0  0  0  0  0  2  0  0  0  0  0  0
  -28.7060  -21.3470   19.9680 C   0  0  0  0  0  1  0  0  0  0  0  0
  -28.0850  -23.2840   20.4340 C   0  0  0  0  0  1  0  0  0  0  0  0
  -28.1640  -25.1780   20.3050 O   0  0  0  0  0  1  0  0  0  0  0  0
  -24.6890  -31.8320   23.1990 C   0  0  0  0  0  0  0  0  0  0  0  0
  -27.2070  -26.5000   20.3040 C   0  0  0  0  0  0  0  0  0  0  0  0
  -23.5140  -30.4110   21.5790 C   0  0  0  0  0  3  0  0  0  0  0  0
  -24.9640  -28.6960   20.2090 C   0  0  0  0  0  0  0  0  0  0  0  0
  -26.1050  -30.4790   21.4910 C   0  0  0  0  0  2  0  0  0  0  0  0
  -26.1670  -29.0100   20.8530 C   0  0  0  0  0  0  0  0  0  0  0  0
  -27.2610  -27.9520   20.8560 C   0  0  0  0  0  3  0  0  0  0  0  0
  -25.9630  -26.4610   19.6020 C   0  0  0  0  0  3  0  0  0  0  0  0
  -24.9170  -27.4490   19.5570 C   0  0  0  0  0  3  0  0  0  0  0  0
  -23.7700  -29.6800   20.2270 C   0  0  0  0  0  2  0  0  0  0  0  0
  -24.7960  -30.9480   22.1410 N   0  0  0  0  0  0  0  0  0  0  0  0
  -23.5900  -32.1480   23.6900 O   0  0  0  0  0  0  0  0  0  0  0  0
  -22.7710  -29.4680   22.5660 C   0  0  0  0  0  0  0  0  0  0  0  0
  -21.4360  -29.3290   22.4420 N   0  0  0  0  0  0  0  0  0  0  0  0
  -23.4130  -28.8530   23.4190 O   0  0  0  0  0  0  0  0  0  0  0  0
  -20.9620  -29.8740   21.7350 H   0  0  0  0  0  0  0  0  0  0  0  0
  -18.0380  -28.1290   22.9700 C   0  0  0  0  0  0  0  0  0  0  0  0
  -20.6000  -28.4050   23.2240 C   0  0  0  0  0  3  0  0  0  0  0  0
  -20.7000  -26.9640   22.6700 C   0  0  0  0  0  2  0  0  0  0  0  0
  -19.5990  -26.6300   21.6580 C   0  0  0  0  0  2  0  0  0  0  0  0
  -18.2170  -26.7770   22.3010 C   0  0  0  0  0  2  0  0  0  0  0  0
  -19.1560  -28.9010   23.3890 C   0  0  0  0  0  0  0  0  0  0  0  0
  -18.9300  -30.1620   23.9830 C   0  0  0  0  0  3  0  0  0  0  0  0
  -17.6220  -30.6530   24.1560 C   0  0  0  0  0  3  0  0  0  0  0  0
  -16.5200  -29.8810   23.7490 C   0  0  0  0  0  3  0  0  0  0  0  0
  -16.7290  -28.6200   23.1620 C   0  0  0  0  0  3  0  0  0  0  0  0
  -25.9390  -32.5030   23.8470 C   0  0  0  0  0  3  0  0  0  0  0  0
  -25.6020  -33.9050   24.1790 N   0  0  0  0  0  0  0  0  0  0  0  0
  -25.9180  -34.9760   23.4400 C   0  0  0  0  0  0  0  0  0  0  0  0
  -26.5740  -34.8900   22.4000 O   0  0  0  0  0  0  0  0  0  0  0  0
  -25.0130  -34.0420   24.9870 H   0  0  0  0  0  0  0  0  0  0  0  0
  -24.1650  -36.7690   23.1640 C   0  0  0  0  0  1  0  0  0  0  0  0
  -25.4370  -36.3630   23.9250 C   0  0  0  0  0  3  0  0  0  0  0  0
  -27.5860  -37.2740   24.6910 C   0  0  0  0  0  1  0  0  0  0  0  0
  -26.4540  -37.4280   23.7820 N   0  0  0  0  0  0  0  0  0  0  0  0
  -26.0430  -38.3430   23.9410 H   0  0  0  0  0  0  0  0  0  0  0  0
  -26.4300  -31.7580   25.1520 C   0  0  1  0  0  0  0  0  0  0  0  0
  -25.3170  -31.5410   26.2060 C   0  0  0  0  0  1  0  0  0  0  0  0
  -27.0220  -30.3720   24.8150 C   0  0  0  0  0  1  0  0  0  0  0  0
  -27.5670  -32.5670   25.8200 C   0  0  0  0  0  1  0  0  0  0  0  0
  -29.4370  -19.4520   20.4150 C   0  0  0  0  0  1  0  0  0  0  0  0
  -30.1200  -16.0810   20.1210 C   0  0  0  0  0  0  0  0  0  0  0  0
  -30.3120  -13.4550   19.2940 C   0  0  0  0  0  2  0  0  0  0  0  0
  -29.4400  -12.8540   18.1420 C   0  0  0  0  0  2  0  0  0  0  0  0
  -28.0610  -12.4130   18.6470 C   0  0  0  0  0  2  0  0  0  0  0  0
  -27.5140  -13.4340   19.6630 C   0  0  0  0  0  3  0  0  0  0  0  0
  -28.5440  -13.9080   20.7250 C   0  0  0  0  0  2  0  0  0  0  0  0
  -29.6260  -14.6590   20.0090 N   0  0  0  0  0  0  0  0  0  0  0  0
  -31.3640  -15.9410   20.0300 O   0  0  0  0  0  0  0  0  0  0  0  0
  -29.3810  -17.5560   20.1540 N   0  0  0  0  0  0  0  0  0  0  0  0
  -28.4010  -17.3250   20.0660 H   0  0  0  0  0  0  0  0  0  0  0  0
  -25.1740  -13.9180   20.4950 C   0  0  0  0  0  0  0  0  0  0  0  0
  -24.1300  -13.1260   20.8760 C   0  0  0  0  0  0  0  0  0  0  0  0
  -24.6110  -11.7810   20.8250 C   0  0  0  0  0  0  0  0  0  0  0  0
  -26.2220  -13.0620   20.2230 N   0  0  0  0  0  0  0  0  0  0  0  0
  -25.9010  -11.7660   20.4860 N   0  0  0  0  0  0  0  0  0  0  0  0
  -23.8940  -10.5130   21.0190 C   0  0  0  0  0  0  0  0  0  0  0  0
  -24.3410   -9.5420   21.9420 C   0  0  0  0  0  3  0  0  0  0  0  0
  -23.6170   -8.3440   22.1300 C   0  0  0  0  0  3  0  0  0  0  0  0
  -22.4290   -8.1090   21.3960 C   0  0  0  0  0  0  0  0  0  0  0  0
  -22.0000   -9.0680   20.4620 C   0  0  0  0  0  3  0  0  0  0  0  0
  -22.7260  -10.2570   20.2730 C   0  0  0  0  0  3  0  0  0  0  0  0
  -21.6760   -6.9630   21.4920 O   0  0  0  0  0  0  0  0  0  0  0  0
  -21.6500   -6.2140   22.6420 C   0  0  0  0  0  0  0  0  0  0  0  0
  -21.2430   -6.7600   23.8780 C   0  0  0  0  0  3  0  0  0  0  0  0
  -21.1640   -5.9380   25.0200 C   0  0  0  0  0  3  0  0  0  0  0  0
  -21.4810   -4.5690   24.9260 C   0  0  0  0  0  0  0  0  0  0  0  0
  -21.8820   -4.0210   23.6950 C   0  0  0  0  0  3  0  0  0  0  0  0
  -21.9620   -4.8410   22.5550 C   0  0  0  0  0  0  0  0  0  0  0  0
  -22.3280   -4.3040   21.3670 F   0  0  0  0  0  0  0  0  0  0  0  0
  -21.3990   -3.7770   26.0200 F   0  0  0  0  0  0  0  0  0  0  0  0
  -22.7340  -13.5930   21.1660 C   0  0  0  0  0  0  0  0  0  0  0  0
  -22.0250  -12.8920   22.0430 N   0  0  0  0  0  0  0  0  0  0  0  0
  -22.2840  -14.6150   20.6520 O   0  0  0  0  0  0  0  0  0  0  0  0
  -22.4040  -12.0660   22.4820 H   0  0  0  0  0  0  0  0  0  0  0  0
  -21.0880  -13.1880   22.2820 H   0  0  0  0  0  0  0  0  0  0  0  0
  -25.3160  -15.2920   20.3200 N   0  0  0  0  0  0  0  0  0  0  0  0
  -24.5410  -15.9350   20.4470 H   0  0  0  0  0  0  0  0  0  0  0  0
  -26.1480  -15.7390   19.9620 H   0  0  0  0  0  0  0  0  0  0  0  0
  2  1  1  0
  3  1  1  0
  5 16  2  0
  6  4  1  0
  6 11  1  0
  7 15  1  0
  7 17  1  0
  8 14  1  0
  8 10  1  0
  9 15  1  0
 10 11  2  0
 10  9  1  0
 12  6  2  0
 13 12  1  0
 13  8  2  0
 14  7  1  0
 15  5  1  0
 17 19  2  0
 18 17  1  0
 20 18  1  0
 21 30  2  0
 21 26  1  0
 22 18  1  0
 22 26  1  0
 23 22  1  0
 24 25  1  0
 24 23  1  0
 25 21  1  0
 26 27  2  0
 27 28  1  0
 29 28  2  0
 30 29  1  0
 31  5  1  0
 31 32  1  0
 31 41  1  0
 32 35  1  0
 33 37  1  0
 33 32  1  0
 34 33  2  0
 37 36  1  0
 39 37  1  0
 39 40  1  0
 39 38  1  0
 41 44  1  1
 41 42  1  0
 43 41  1  0
 46 54  1  0
 47 52  1  0
 48 49  1  0
 48 47  1  0
 50 49  1  0
 50 59  1  0
 50 51  1  0
 52 46  1  0
 52 51  1  0
 53 46  2  0
 54 45  1  0
 55 54  1  0
 56 57  2  0
 57 76  1  0
 58 57  1  0
 58 61  1  0
 59 60  1  0
 59 56  1  0
 60 58  2  0
 61 62  1  0
 62 63  2  0
 64 67  1  0
 64 63  1  0
 65 64  2  0
 66 65  1  0
 66 61  2  0
 67 68  1  0
 68 69  1  0
 69 70  2  0
 71 70  1  0
 71 75  1  0
 72 71  2  0
 73 68  2  0
 73 72  1  0
 74 73  1  0
 76 77  1  0
 77 80  1  0
 77 79  1  0
 78 76  2  0
 81 82  1  0
 81 56  1  0
 83 81  1  0
M  ISO  4   3 101   4 101  46 100  54 100
M  END
>  <TORSDO>  (47) 
F 17

>  <SCORE>  (47) 
-16.141

>  <name>  (47) 
47

>  <ligand_id>  (47) 
47

>  <original_smiles>  (47) 
[H]c1c([H])c([H])c2c(c1[H])C([H])([H])C([H])([H])C([H])([H])C2([H])N([H])C(=O)C1([H])N(C(=O)C([H])(N([H])C(=O)C([H])(N([H])C([H])([H])[H])C([H])([H])[H])C(C([H])([H])[H])(C([H])([H])[H])C([H])([H])[H])C([H])([H])c2c([H])c(OC3([H])C([H])([H])C3([H])C([H])([H])N([H])C(=O)N3C([H])([H])C([H])([H])C([H])([H])C([H])(n4nc(-c5c([H])c([H])c(Oc6c([H])c([H])c(F)c([H])c6F)c([H])c5[H])c(C(=O)N([H])[H])c4N([H])[H])C3([H])[H])c([H])c([H])c2C1([H])[H]

>  <smiles>  (47) 
[H]c1c([H])c([H])c2c(c1[H])C([H])([H])C([H])([H])C([H])([H])C2([H])N([H])C(=O)C1([H])N(C(=O)C([H])(N([H])C(=O)C([H])(N([H])C([H])([H])[H])C([H])([H])[H])C(C([H])([H])[H])(C([H])([H])[H])C([H])([H])[H])C([H])([H])c2c([H])c(OC3([H])C([H])([H])C3([H])C([H])([H])N([H])C(=O)N3C([H])([H])C([H])([H])C([H])([H])C([H])(n4nc(-c5c([H])c([H])c(Oc6c([H])c([H])c(F)c([H])c6F)c([H])c5[H])c(C(=O)N([H])[H])c4N([H])[H])C3([H])[H])c([H])c([H])c2C1([H])[H]

$$$$
48:0:0
     RDKit          3D

100110  0  0  1  0  0  0  0  0999 V2000
  -30.7470  -20.6630   21.7140 C   0  0  0  0  0  3  0  0  0  0  0  0
  -30.4620  -20.4130   20.4130 C   0  0  0  0  0  0  0  0  0  0  0  0
  -31.3700  -21.9670   22.2070 C   0  0  0  0  0  2  0  0  0  0  0  0
  -32.1220  -22.2460   19.8740 C   0  0  0  0  0  2  0  0  0  0  0  0
  -29.9330  -22.7070   19.3250 C   0  0  0  0  0  2  0  0  0  0  0  0
  -30.8830  -21.4850   19.3750 C   0  0  0  0  0  3  0  0  0  0  0  0
  -31.5030  -23.0020   21.0660 C   0  0  0  0  0  3  0  0  0  0  0  0
  -30.1510  -23.4320   20.5920 N   0  0  1  0  0  4  0  0  0  0  0  0
  -29.4960  -23.0580   21.2640 H   0  0  0  0  0  0  0  0  0  0  0  0
  -27.8470  -17.8430   19.4340 C   0  0  0  0  0  3  0  0  0  0  0  0
  -28.3430  -16.7170   20.0960 C   0  0  0  0  0  3  0  0  0  0  0  0
  -30.3890  -17.8830   20.6290 C   0  0  0  0  0  3  0  0  0  0  0  0
  -29.8450  -19.0890   20.0790 C   0  0  0  0  0  0  0  0  0  0  0  0
  -28.6020  -19.0250   19.3750 C   0  0  0  0  0  0  0  0  0  0  0  0
  -29.6480  -16.6710   20.5980 C   0  0  0  0  0  0  0  0  0  0  0  0
  -30.6880  -14.4700   20.4030 C   0  0  0  0  0  0  0  0  0  0  0  0
  -30.3860  -12.3060   19.2360 C   0  0  0  0  0  2  0  0  0  0  0  0
  -29.4340  -12.4930   18.0340 C   0  0  0  0  0  2  0  0  0  0  0  0
  -27.9560  -12.3470   18.4570 C   0  0  0  0  0  2  0  0  0  0  0  0
  -27.6250  -13.1900   19.7110 C   0  0  0  0  0  3  0  0  0  0  0  0
  -28.6830  -12.9820   20.8240 C   0  0  0  0  0  2  0  0  0  0  0  0
  -30.0150  -13.2880   20.2710 N   0  0  0  0  0  0  0  0  0  0  0  0
  -31.7690  -14.6910   19.8480 O   0  0  0  0  0  0  0  0  0  0  0  0
  -30.0710  -15.4170   21.1400 N   0  0  0  0  0  0  0  0  0  0  0  0
  -29.3480  -14.9770   21.6910 H   0  0  0  0  0  0  0  0  0  0  0  0
  -25.2230  -13.8440   20.4270 C   0  0  0  0  0  0  0  0  0  0  0  0
  -24.1570  -13.0920   20.8310 C   0  0  0  0  0  0  0  0  0  0  0  0
  -24.6060  -11.7360   20.8010 C   0  0  0  0  0  0  0  0  0  0  0  0
  -26.2660  -12.9540   20.1970 N   0  0  0  0  0  0  0  0  0  0  0  0
  -25.8930  -11.6790   20.4780 N   0  0  0  0  0  0  0  0  0  0  0  0
  -23.8660  -10.4870   20.9950 C   0  0  0  0  0  0  0  0  0  0  0  0
  -24.2900   -9.5220   21.9340 C   0  0  0  0  0  3  0  0  0  0  0  0
  -23.5540   -8.3320   22.1150 C   0  0  0  0  0  3  0  0  0  0  0  0
  -22.3810   -8.1020   21.3600 C   0  0  0  0  0  0  0  0  0  0  0  0
  -21.9740   -9.0590   20.4110 C   0  0  0  0  0  3  0  0  0  0  0  0
  -22.7110  -10.2400   20.2270 C   0  0  0  0  0  3  0  0  0  0  0  0
  -21.6140   -6.9670   21.4530 O   0  0  0  0  0  0  0  0  0  0  0  0
  -21.5500   -6.2370   22.6120 C   0  0  0  0  0  0  0  0  0  0  0  0
  -21.0990   -6.8040   23.8260 C   0  0  0  0  0  3  0  0  0  0  0  0
  -20.9840   -5.9990   24.9770 C   0  0  0  0  0  3  0  0  0  0  0  0
  -21.3050   -4.6290   24.9150 C   0  0  0  0  0  0  0  0  0  0  0  0
  -21.7480   -4.0630   23.7060 C   0  0  0  0  0  3  0  0  0  0  0  0
  -21.8670   -4.8650   22.5570 C   0  0  0  0  0  0  0  0  0  0  0  0
  -22.2740   -4.3100   21.3900 F   0  0  0  0  0  0  0  0  0  0  0  0
  -21.1870   -3.8560   26.0180 F   0  0  0  0  0  0  0  0  0  0  0  0
  -22.7680  -13.5910   21.1120 C   0  0  0  0  0  0  0  0  0  0  0  0
  -22.0290  -12.9090   21.9770 N   0  0  0  0  0  0  0  0  0  0  0  0
  -22.3460  -14.6270   20.5990 O   0  0  0  0  0  0  0  0  0  0  0  0
  -22.3780  -12.0720   22.4200 H   0  0  0  0  0  0  0  0  0  0  0  0
  -21.0980  -13.2330   22.2010 H   0  0  0  0  0  0  0  0  0  0  0  0
  -25.3520  -15.2100   20.2140 N   0  0  0  0  0  0  0  0  0  0  0  0
  -24.5280  -15.7980   20.2780 H   0  0  0  0  0  0  0  0  0  0  0  0
  -26.0780  -15.6140   19.6400 H   0  0  0  0  0  0  0  0  0  0  0  0
  -27.9720  -20.1380   18.6460 C   0  0  0  0  0  0  0  0  0  0  0  0
  -28.2510  -20.4510   17.4570 N   0  0  0  0  0  0  0  0  0  0  0  0
  -27.0540  -20.8850   19.2830 F   0  0  0  0  0  0  0  0  0  0  0  0
  -28.9540  -19.8260   17.0790 H   0  0  0  0  0  0  0  0  0  0  0  0
  -29.9250  -24.9090   20.5280 C   0  0  0  0  0  2  0  0  0  0  0  0
  -28.5410  -25.3650   19.9710 C   0  0  0  0  0  2  0  0  0  0  0  0
  -28.4580  -26.7870   20.1040 O   0  0  0  0  0  0  0  0  0  0  0  0
  -24.5530  -31.8550   23.1720 C   0  0  0  0  0  0  0  0  0  0  0  0
  -27.2350  -27.4310   20.0950 C   0  0  0  0  0  0  0  0  0  0  0  0
  -23.3530  -30.4520   21.5230 C   0  0  0  0  0  3  0  0  0  0  0  0
  -24.8160  -28.9080   20.1100 C   0  0  0  0  0  0  0  0  0  0  0  0
  -25.8760  -30.8220   21.3270 C   0  0  0  0  0  2  0  0  0  0  0  0
  -25.9680  -29.4480   20.6910 C   0  0  0  0  0  0  0  0  0  0  0  0
  -27.1760  -28.7200   20.6720 C   0  0  0  0  0  3  0  0  0  0  0  0
  -26.0570  -26.8870   19.5260 C   0  0  0  0  0  3  0  0  0  0  0  0
  -24.8530  -27.6270   19.5280 C   0  0  0  0  0  3  0  0  0  0  0  0
  -23.5750  -29.7730   20.1450 C   0  0  0  0  0  2  0  0  0  0  0  0
  -24.6130  -31.0560   22.0690 N   0  0  0  0  0  0  0  0  0  0  0  0
  -23.4720  -32.1230   23.7110 O   0  0  0  0  0  0  0  0  0  0  0  0
  -22.6960  -29.4330   22.4810 C   0  0  0  0  0  0  0  0  0  0  0  0
  -21.3710  -29.2570   22.3560 N   0  0  0  0  0  0  0  0  0  0  0  0
  -23.3780  -28.8010   23.2920 O   0  0  0  0  0  0  0  0  0  0  0  0
  -20.8800  -29.8200   21.6740 H   0  0  0  0  0  0  0  0  0  0  0  0
  -17.9890  -28.0970   22.8710 C   0  0  0  0  0  0  0  0  0  0  0  0
  -20.5520  -28.3220   23.1250 C   0  0  0  0  0  3  0  0  0  0  0  0
  -20.6340  -26.8960   22.5330 C   0  0  0  0  0  2  0  0  0  0  0  0
  -19.5210  -26.5970   21.5240 C   0  0  0  0  0  2  0  0  0  0  0  0
  -18.1450  -26.7530   22.1790 C   0  0  0  0  0  2  0  0  0  0  0  0
  -19.1200  -28.8410   23.3010 C   0  0  0  0  0  0  0  0  0  0  0  0
  -18.9210  -30.1010   23.9070 C   0  0  0  0  0  3  0  0  0  0  0  0
  -17.6230  -30.6150   24.0880 C   0  0  0  0  0  3  0  0  0  0  0  0
  -16.5070  -29.8670   23.6740 C   0  0  0  0  0  3  0  0  0  0  0  0
  -16.6910  -28.6110   23.0720 C   0  0  0  0  0  3  0  0  0  0  0  0
  -25.8390  -32.4870   23.7950 C   0  0  0  0  0  3  0  0  0  0  0  0
  -26.3670  -31.7040   25.0600 C   0  0  1  0  0  0  0  0  0  0  0  0
  -25.2810  -31.4460   26.1300 C   0  0  0  0  0  1  0  0  0  0  0  0
  -26.9560  -30.3360   24.6440 C   0  0  0  0  0  1  0  0  0  0  0  0
  -27.5130  -32.5000   25.7280 C   0  0  0  0  0  1  0  0  0  0  0  0
  -25.5260  -33.8810   24.1370 N   0  0  0  0  0  0  0  0  0  0  0  0
  -25.8620  -34.9400   23.3890 C   0  0  0  0  0  0  0  0  0  0  0  0
  -26.5390  -34.8470   22.3600 O   0  0  0  0  0  0  0  0  0  0  0  0
  -24.9290  -34.0300   24.9380 H   0  0  0  0  0  0  0  0  0  0  0  0
  -24.1480  -36.7440   23.0270 C   0  0  0  0  0  1  0  0  0  0  0  0
  -25.3710  -36.3210   23.8570 C   0  0  0  0  0  3  0  0  0  0  0  0
  -27.4850  -37.1940   24.7480 C   0  0  0  0  0  1  0  0  0  0  0  0
  -26.4080  -37.3730   23.7790 N   0  0  0  0  0  0  0  0  0  0  0  0
  -25.9990  -38.2920   23.9250 H   0  0  0  0  0  0  0  0  0  0  0  0
  1  3  1  0
  2  1  2  0
  5  8  1  0
  6  5  1  0
  6  4  1  0
  6  2  1  0
  7  4  1  0
  7  3  1  0
  8  7  1  0
  8  9  1  1
 10 11  1  0
 11 15  2  0
 13  2  1  0
 13 12  2  0
 14 10  2  0
 14 13  1  0
 15 12  1  0
 15 24  1  0
 16 24  1  0
 17 22  1  0
 18 19  1  0
 18 17  1  0
 20 19  1  0
 20 29  1  0
 20 21  1  0
 22 16  1  0
 22 21  1  0
 23 16  2  0
 24 25  1  0
 26 27  2  0
 27 46  1  0
 28 27  1  0
 28 31  1  0
 29 26  1  0
 29 30  1  0
 30 28  2  0
 31 32  1  0
 32 33  2  0
 34 37  1  0
 34 33  1  0
 35 34  2  0
 36 35  1  0
 36 31  2  0
 37 38  1  0
 38 39  1  0
 39 40  2  0
 41 40  1  0
 41 45  1  0
 42 41  2  0
 43 38  2  0
 43 42  1  0
 44 43  1  0
 46 47  1  0
 47 50  1  0
 47 49  1  0
 48 46  2  0
 51 52  1  0
 51 26  1  0
 53 51  1  0
 54 56  1  0
 54 14  1  0
 55 54  2  0
 57 55  1  0
 58  8  1  0
 59 60  1  0
 59 58  1  0
 61 72  2  0
 62 60  1  0
 62 67  1  0
 63 71  1  0
 63 73  1  0
 64 70  1  0
 64 66  1  0
 65 71  1  0
 66 65  1  0
 67 66  2  0
 68 69  1  0
 68 62  2  0
 69 64  2  0
 70 63  1  0
 71 61  1  0
 73 75  2  0
 74 73  1  0
 76 74  1  0
 77 86  2  0
 77 82  1  0
 78 74  1  0
 78 82  1  0
 79 78  1  0
 80 81  1  0
 80 79  1  0
 81 77  1  0
 82 83  2  0
 83 84  1  0
 85 84  2  0
 86 85  1  0
 87 61  1  0
 87 92  1  0
 87 88  1  0
 88 91  1  1
 88 89  1  0
 90 88  1  0
 92 95  1  0
 93 97  1  0
 93 92  1  0
 94 93  2  0
 97 96  1  0
 99 97  1  0
 99100  1  0
 99 98  1  0
M  ISO  4  16 100  24 100  59 101  60 101
M  END
>  <TORSDO>  (48) 
F 20

>  <SCORE>  (48) 
-14.390

>  <name>  (48) 
48

>  <ligand_id>  (48) 
48

>  <original_smiles>  (48) 
[H]N=C(F)c1c([H])c([H])c(N([H])C(=O)N2C([H])([H])C([H])([H])C([H])([H])C([H])(n3nc(-c4c([H])c([H])c(Oc5c([H])c([H])c(F)c([H])c5F)c([H])c4[H])c(C(=O)N([H])[H])c3N([H])[H])C2([H])[H])c([H])c1C1=C([H])C([H])([H])C2([H])C([H])([H])C1([H])C([H])([H])[N+]2([H])C([H])([H])C([H])([H])Oc1c([H])c([H])c2c(c1[H])C([H])([H])N(C(=O)C([H])(N([H])C(=O)C([H])(N([H])C([H])([H])[H])C([H])([H])[H])C(C([H])([H])[H])(C([H])([H])[H])C([H])([H])[H])C([H])(C(=O)N([H])C1([H])c3c([H])c([H])c([H])c([H])c3C([H])([H])C([H])([H])C1([H])[H])C2([H])[H]

>  <smiles>  (48) 
[H]N=C(F)c1c([H])c([H])c(N([H])C(=O)N2C([H])([H])C([H])([H])C([H])([H])C([H])(n3nc(-c4c([H])c([H])c(Oc5c([H])c([H])c(F)c([H])c5F)c([H])c4[H])c(C(=O)N([H])[H])c3N([H])[H])C2([H])[H])c([H])c1C1=C([H])C([H])([H])C2([H])C([H])([H])C1([H])C([H])([H])[N+]2([H])C([H])([H])C([H])([H])Oc1c([H])c([H])c2c(c1[H])C([H])([H])N(C(=O)C([H])(N([H])C(=O)C([H])(N([H])C([H])([H])[H])C([H])([H])[H])C(C([H])([H])[H])(C([H])([H])[H])C([H])([H])[H])C([H])(C(=O)N([H])C1([H])c3c([H])c([H])c([H])c([H])c3C([H])([H])C([H])([H])C1([H])[H])C2([H])[H]

$$$$
49:0:0
     RDKit          3D

 91100  0  0  1  0  0  0  0  0999 V2000
  -29.8880  -17.5430   20.2750 C   0  0  0  0  0  0  0  0  0  0  0  0
  -31.2120  -19.2600   18.9060 C   0  0  0  0  0  0  0  0  0  0  0  0
  -30.6400  -17.8320   18.9700 C   0  0  0  0  0  2  0  0  0  0  0  0
  -29.3190  -19.0050   20.9070 C   0  0  0  0  0  2  0  0  0  0  0  0
  -30.8880  -21.8320   18.9150 C   0  0  0  0  0  2  0  0  0  0  0  0
  -30.6420  -22.3300   20.3360 C   0  0  0  0  0  2  0  0  0  0  0  0
  -30.2080  -20.4400   18.8570 C   0  0  0  0  0  3  0  0  0  0  0  0
  -29.1590  -20.4490   20.0110 C   0  0  0  0  0  3  0  0  0  0  0  0
  -29.7620  -16.2700   20.7760 N   0  0  0  0  0  0  0  0  0  0  0  0
  -29.2580  -21.9290   20.6390 N   0  0  2  0  0  4  0  0  0  0  0  0
  -32.4310  -19.4350   18.8540 O   0  0  0  0  0  0  0  0  0  0  0  0
  -29.2400  -21.7780   21.6370 H   0  0  0  0  0  0  0  0  0  0  0  0
  -30.5120  -15.0390   20.3750 C   0  0  0  0  0  0  0  0  0  0  0  0
  -30.3890  -12.6690   19.4390 C   0  0  0  0  0  2  0  0  0  0  0  0
  -29.4870  -12.6270   18.1810 C   0  0  0  0  0  2  0  0  0  0  0  0
  -28.0140  -12.4250   18.5820 C   0  0  0  0  0  2  0  0  0  0  0  0
  -27.5890  -13.3440   19.7570 C   0  0  0  0  0  3  0  0  0  0  0  0
  -28.6240  -13.3640   20.9010 C   0  0  0  0  0  2  0  0  0  0  0  0
  -29.9100  -13.7730   20.3280 N   0  0  0  0  0  0  0  0  0  0  0  0
  -31.6850  -15.0560   19.9970 O   0  0  0  0  0  0  0  0  0  0  0  0
  -25.1970  -13.9110   20.4600 C   0  0  0  0  0  0  0  0  0  0  0  0
  -24.1310  -13.1340   20.8180 C   0  0  0  0  0  0  0  0  0  0  0  0
  -24.6020  -11.7840   20.8060 C   0  0  0  0  0  0  0  0  0  0  0  0
  -26.2470  -13.0370   20.2380 N   0  0  0  0  0  0  0  0  0  0  0  0
  -25.8970  -11.7530   20.5130 N   0  0  0  0  0  0  0  0  0  0  0  0
  -23.8780  -10.5200   20.9990 C   0  0  0  0  0  0  0  0  0  0  0  0
  -24.2990   -9.5630   21.9470 C   0  0  0  0  0  3  0  0  0  0  0  0
  -23.5730   -8.3650   22.1300 C   0  0  0  0  0  3  0  0  0  0  0  0
  -22.4090   -8.1190   21.3620 C   0  0  0  0  0  0  0  0  0  0  0  0
  -22.0050   -9.0670   20.4040 C   0  0  0  0  0  3  0  0  0  0  0  0
  -22.7330  -10.2540   20.2210 C   0  0  0  0  0  3  0  0  0  0  0  0
  -21.6560   -6.9730   21.4500 O   0  0  0  0  0  0  0  0  0  0  0  0
  -21.5920   -6.2410   22.6080 C   0  0  0  0  0  0  0  0  0  0  0  0
  -21.1500   -6.8080   23.8230 C   0  0  0  0  0  3  0  0  0  0  0  0
  -21.0300   -6.0040   24.9730 C   0  0  0  0  0  3  0  0  0  0  0  0
  -21.3450   -4.6320   24.9100 C   0  0  0  0  0  0  0  0  0  0  0  0
  -21.7830   -4.0660   23.7000 C   0  0  0  0  0  3  0  0  0  0  0  0
  -21.9040   -4.8690   22.5520 C   0  0  0  0  0  0  0  0  0  0  0  0
  -22.3040   -4.3130   21.3830 F   0  0  0  0  0  0  0  0  0  0  0  0
  -21.2280   -3.8580   26.0140 F   0  0  0  0  0  0  0  0  0  0  0  0
  -22.7280  -13.6090   21.0610 C   0  0  0  0  0  0  0  0  0  0  0  0
  -21.9890  -12.9240   21.9250 N   0  0  0  0  0  0  0  0  0  0  0  0
  -22.2940  -14.6280   20.5250 O   0  0  0  0  0  0  0  0  0  0  0  0
  -22.3520  -12.1030   22.3870 H   0  0  0  0  0  0  0  0  0  0  0  0
  -21.0500  -13.2310   22.1340 H   0  0  0  0  0  0  0  0  0  0  0  0
  -25.3540  -15.2820   20.2790 N   0  0  0  0  0  0  0  0  0  0  0  0
  -24.5880  -15.9350   20.4010 H   0  0  0  0  0  0  0  0  0  0  0  0
  -26.2200  -15.7300   20.0060 H   0  0  0  0  0  0  0  0  0  0  0  0
  -28.2130  -23.1470   20.4740 C   0  0  0  0  0  2  0  0  0  0  0  0
  -28.4680  -24.7230   19.8380 C   0  0  0  0  0  2  0  0  0  0  0  0
  -28.3010  -26.1820   20.4070 O   0  0  0  0  0  0  0  0  0  0  0  0
  -24.5950  -31.8750   23.2450 C   0  0  0  0  0  0  0  0  0  0  0  0
  -27.2220  -27.1390   20.2590 C   0  0  0  0  0  0  0  0  0  0  0  0
  -23.4130  -30.4610   21.6040 C   0  0  0  0  0  3  0  0  0  0  0  0
  -24.8800  -28.8820   20.1920 C   0  0  0  0  0  0  0  0  0  0  0  0
  -25.9650  -30.7360   21.4570 C   0  0  0  0  0  2  0  0  0  0  0  0
  -26.0490  -29.3380   20.8110 C   0  0  0  0  0  0  0  0  0  0  0  0
  -27.2120  -28.4800   20.8290 C   0  0  0  0  0  3  0  0  0  0  0  0
  -26.0260  -26.7850   19.5970 C   0  0  0  0  0  3  0  0  0  0  0  0
  -24.8840  -27.6220   19.5690 C   0  0  0  0  0  3  0  0  0  0  0  0
  -23.6480  -29.7760   20.2290 C   0  0  0  0  0  2  0  0  0  0  0  0
  -24.6760  -31.0490   22.1560 N   0  0  0  0  0  0  0  0  0  0  0  0
  -23.5050  -32.1550   23.7690 O   0  0  0  0  0  0  0  0  0  0  0  0
  -22.7350  -29.4580   22.5720 C   0  0  0  0  0  0  0  0  0  0  0  0
  -21.4070  -29.2850   22.4480 N   0  0  0  0  0  0  0  0  0  0  0  0
  -23.4080  -28.8380   23.4000 O   0  0  0  0  0  0  0  0  0  0  0  0
  -20.9220  -29.8340   21.7530 H   0  0  0  0  0  0  0  0  0  0  0  0
  -18.0290  -28.0790   22.9550 C   0  0  0  0  0  0  0  0  0  0  0  0
  -20.5870  -28.3500   23.2240 C   0  0  0  0  0  3  0  0  0  0  0  0
  -20.6930  -26.9150   22.6560 C   0  0  0  0  0  2  0  0  0  0  0  0
  -19.5940  -26.5860   21.6410 C   0  0  0  0  0  2  0  0  0  0  0  0
  -18.2110  -26.7280   22.2810 C   0  0  0  0  0  2  0  0  0  0  0  0
  -19.1440  -28.8460   23.3830 C   0  0  0  0  0  0  0  0  0  0  0  0
  -18.9190  -30.1080   23.9760 C   0  0  0  0  0  3  0  0  0  0  0  0
  -17.6120  -30.6030   24.1410 C   0  0  0  0  0  3  0  0  0  0  0  0
  -16.5110  -29.8320   23.7270 C   0  0  0  0  0  3  0  0  0  0  0  0
  -16.7200  -28.5710   23.1410 C   0  0  0  0  0  3  0  0  0  0  0  0
  -25.8650  -32.5240   23.8750 C   0  0  0  0  0  3  0  0  0  0  0  0
  -25.5430  -33.9230   24.1960 N   0  0  0  0  0  0  0  0  0  0  0  0
  -25.8740  -34.9780   23.4390 C   0  0  0  0  0  0  0  0  0  0  0  0
  -26.5460  -34.8750   22.4100 O   0  0  0  0  0  0  0  0  0  0  0  0
  -24.9420  -34.0730   24.9940 H   0  0  0  0  0  0  0  0  0  0  0  0
  -24.1370  -36.7650   23.0840 C   0  0  0  0  0  1  0  0  0  0  0  0
  -25.3810  -36.3660   23.8930 C   0  0  0  0  0  3  0  0  0  0  0  0
  -27.5130  -37.2660   24.7180 C   0  0  0  0  0  1  0  0  0  0  0  0
  -26.4080  -37.4260   23.7770 N   0  0  0  0  0  0  0  0  0  0  0  0
  -25.9970  -38.3430   23.9240 H   0  0  0  0  0  0  0  0  0  0  0  0
  -26.3700  -31.7690   25.1670 C   0  0  1  0  0  0  0  0  0  0  0  0
  -25.2660  -31.5450   26.2290 C   0  0  0  0  0  1  0  0  0  0  0  0
  -26.9580  -30.3850   24.8040 C   0  0  0  0  0  1  0  0  0  0  0  0
  -27.5120  -32.5740   25.8310 C   0  0  0  0  0  1  0  0  0  0  0  0
  1  9  2  0
  1  4  1  0
  2  3  1  0
  3  1  1  0
  5  6  1  0
  6 10  1  0
  7  2  1  0
  7  5  1  0
  7  8  1  0
  8 10  1  0
  8  4  1  0
 10 12  1  1
 11  2  2  0
 13  9  1  0
 14 19  1  0
 15 16  1  0
 15 14  1  0
 17 16  1  0
 17 24  1  0
 17 18  1  0
 19 13  1  0
 19 18  1  0
 20 13  2  0
 21 22  2  0
 22 41  1  0
 23 22  1  0
 23 26  1  0
 24 21  1  0
 24 25  1  0
 25 23  2  0
 26 27  1  0
 27 28  2  0
 29 32  1  0
 29 28  1  0
 30 29  2  0
 31 30  1  0
 31 26  2  0
 32 33  1  0
 33 34  1  0
 34 35  2  0
 36 35  1  0
 36 40  1  0
 37 36  2  0
 38 33  2  0
 38 37  1  0
 39 38  1  0
 41 42  1  0
 42 45  1  0
 42 44  1  0
 43 41  2  0
 46 47  1  0
 46 21  1  0
 48 46  1  0
 49 10  1  0
 50 51  1  0
 50 49  1  0
 52 63  2  0
 53 51  1  0
 53 58  1  0
 54 62  1  0
 54 64  1  0
 55 61  1  0
 55 57  1  0
 56 62  1  0
 57 58  2  0
 57 56  1  0
 59 53  2  0
 60 59  1  0
 60 55  2  0
 61 54  1  0
 62 52  1  0
 64 66  2  0
 65 64  1  0
 67 65  1  0
 68 77  2  0
 68 73  1  0
 69 65  1  0
 69 73  1  0
 70 69  1  0
 71 72  1  0
 71 70  1  0
 72 68  1  0
 73 74  2  0
 74 75  1  0
 76 75  2  0
 77 76  1  0
 78 52  1  0
 78 79  1  0
 78 88  1  0
 79 82  1  0
 80 84  1  0
 80 79  1  0
 81 80  2  0
 84 83  1  0
 86 84  1  0
 86 87  1  0
 86 85  1  0
 88 91  1  1
 88 89  1  0
 90 88  1  0
M  ISO  4   9 100  13 100  50 101  51 101
M  END
>  <TORSDO>  (49) 
F 18

>  <SCORE>  (49) 
-15.415

>  <name>  (49) 
49

>  <ligand_id>  (49) 
49

>  <original_smiles>  (49) 
[H]c1c([H])c([H])c2c(c1[H])C([H])([H])C([H])([H])C([H])([H])C2([H])N([H])C(=O)C1([H])N(C(=O)C([H])(N([H])C(=O)C([H])(N([H])C([H])([H])[H])C([H])([H])[H])C(C([H])([H])[H])(C([H])([H])[H])C([H])([H])[H])C([H])([H])c2c([H])c(OC([H])([H])C([H])([H])[N+]3([H])C([H])([H])C([H])([H])C4([H])C(=O)C([H])([H])C(=NC(=O)N5C([H])([H])C([H])([H])C([H])([H])C([H])(n6nc(-c7c([H])c([H])c(Oc8c([H])c([H])c(F)c([H])c8F)c([H])c7[H])c(C(=O)N([H])[H])c6N([H])[H])C5([H])[H])C([H])([H])C43[H])c([H])c([H])c2C1([H])[H]

>  <smiles>  (49) 
[H]c1c([H])c([H])c2c(c1[H])C([H])([H])C([H])([H])C([H])([H])C2([H])N([H])C(=O)C1([H])N(C(=O)C([H])(N([H])C(=O)C([H])(N([H])C([H])([H])[H])C([H])([H])[H])C(C([H])([H])[H])(C([H])([H])[H])C([H])([H])[H])C([H])([H])c2c([H])c(OC([H])([H])C([H])([H])[N+]3([H])C([H])([H])C([H])([H])C4([H])C(=O)C([H])([H])C(=NC(=O)N5C([H])([H])C([H])([H])C([H])([H])C([H])(n6nc(-c7c([H])c([H])c(Oc8c([H])c([H])c(F)c([H])c8F)c([H])c7[H])c(C(=O)N([H])[H])c6N([H])[H])C5([H])[H])C([H])([H])C43[H])c([H])c([H])c2C1([H])[H]

$$$$
50:0:0
     RDKit          3D

 89 97  0  0  1  0  0  0  0  0999 V2000
  -28.4580  -19.0440   17.9790 C   0  0  0  0  0  2  0  0  0  0  0  0
  -29.8680  -18.7140   18.4380 C   0  0  0  0  0  2  0  0  0  0  0  0
  -28.1310  -20.3410   18.7260 C   0  0  0  0  0  2  0  0  0  0  0  0
  -29.8320  -19.0540   19.9310 C   0  0  0  0  0  3  0  0  0  0  0  0
  -28.8560  -20.3260   20.0260 N   0  0  1  0  0  4  0  0  0  0  0  0
  -28.1540  -20.0510   20.6980 H   0  0  0  0  0  0  0  0  0  0  0  0
  -29.6300  -17.6270   20.8220 C   0  0  0  0  0  2  0  0  0  0  0  0
  -30.4840  -14.9520   20.3390 C   0  0  0  0  0  0  0  0  0  0  0  0
  -30.3810  -12.6040   19.3710 C   0  0  0  0  0  2  0  0  0  0  0  0
  -29.4400  -12.5750   18.1450 C   0  0  0  0  0  2  0  0  0  0  0  0
  -27.9730  -12.3640   18.5770 C   0  0  0  0  0  2  0  0  0  0  0  0
  -27.5710  -13.2760   19.7680 C   0  0  0  0  0  3  0  0  0  0  0  0
  -28.6350  -13.2680   20.8840 C   0  0  0  0  0  2  0  0  0  0  0  0
  -29.8980  -13.6900   20.2640 N   0  0  0  0  0  0  0  0  0  0  0  0
  -31.7050  -15.0330   20.1770 O   0  0  0  0  0  0  0  0  0  0  0  0
  -29.6450  -16.1000   20.3610 N   0  0  0  0  0  0  0  0  0  0  0  0
  -28.6960  -15.7870   20.2230 H   0  0  0  0  0  0  0  0  0  0  0  0
  -25.1950  -13.8640   20.5170 C   0  0  0  0  0  0  0  0  0  0  0  0
  -24.1270  -13.0920   20.8880 C   0  0  0  0  0  0  0  0  0  0  0  0
  -24.5880  -11.7410   20.8580 C   0  0  0  0  0  0  0  0  0  0  0  0
  -26.2340  -12.9820   20.2720 N   0  0  0  0  0  0  0  0  0  0  0  0
  -25.8790  -11.7000   20.5460 N   0  0  0  0  0  0  0  0  0  0  0  0
  -23.8560  -10.4820   21.0510 C   0  0  0  0  0  0  0  0  0  0  0  0
  -24.2900   -9.5110   21.9800 C   0  0  0  0  0  3  0  0  0  0  0  0
  -23.5590   -8.3170   22.1600 C   0  0  0  0  0  3  0  0  0  0  0  0
  -22.3800   -8.0860   21.4110 C   0  0  0  0  0  0  0  0  0  0  0  0
  -21.9670   -9.0450   20.4690 C   0  0  0  0  0  3  0  0  0  0  0  0
  -22.6990  -10.2300   20.2880 C   0  0  0  0  0  3  0  0  0  0  0  0
  -21.6220   -6.9430   21.4990 O   0  0  0  0  0  0  0  0  0  0  0  0
  -21.5790   -6.1940   22.6480 C   0  0  0  0  0  0  0  0  0  0  0  0
  -21.1720   -6.7440   23.8820 C   0  0  0  0  0  3  0  0  0  0  0  0
  -21.0780   -5.9220   25.0240 C   0  0  0  0  0  3  0  0  0  0  0  0
  -21.3770   -4.5500   24.9280 C   0  0  0  0  0  0  0  0  0  0  0  0
  -21.7740   -3.9980   23.6980 C   0  0  0  0  0  3  0  0  0  0  0  0
  -21.8720   -4.8180   22.5600 C   0  0  0  0  0  0  0  0  0  0  0  0
  -22.2370   -4.2770   21.3730 F   0  0  0  0  0  0  0  0  0  0  0  0
  -21.2770   -3.7570   26.0210 F   0  0  0  0  0  0  0  0  0  0  0  0
  -22.7300  -13.5750   21.1520 C   0  0  0  0  0  0  0  0  0  0  0  0
  -21.9960  -12.8820   22.0180 N   0  0  0  0  0  0  0  0  0  0  0  0
  -22.2970  -14.5990   20.6270 O   0  0  0  0  0  0  0  0  0  0  0  0
  -22.3570  -12.0560   22.4700 H   0  0  0  0  0  0  0  0  0  0  0  0
  -21.0540  -13.1830   22.2260 H   0  0  0  0  0  0  0  0  0  0  0  0
  -25.3600  -15.2340   20.3360 N   0  0  0  0  0  0  0  0  0  0  0  0
  -24.5890  -15.8820   20.4520 H   0  0  0  0  0  0  0  0  0  0  0  0
  -26.1910  -15.6700   19.9610 H   0  0  0  0  0  0  0  0  0  0  0  0
  -29.2390  -21.8140   20.4720 C   0  0  0  0  0  2  0  0  0  0  0  0
  -28.5490  -23.2520   19.8510 C   0  0  0  0  0  2  0  0  0  0  0  0
  -28.2680  -24.7160   20.6620 C   0  0  0  0  0  2  0  0  0  0  0  0
  -28.3140  -26.1970   20.1720 O   0  0  0  0  0  0  0  0  0  0  0  0
  -24.6150  -31.8540   23.2150 C   0  0  0  0  0  0  0  0  0  0  0  0
  -27.2150  -27.1290   20.2170 C   0  0  0  0  0  0  0  0  0  0  0  0
  -23.4190  -30.4480   21.5830 C   0  0  0  0  0  3  0  0  0  0  0  0
  -24.8700  -28.8520   20.1810 C   0  0  0  0  0  0  0  0  0  0  0  0
  -25.9710  -30.7160   21.4170 C   0  0  0  0  0  2  0  0  0  0  0  0
  -26.0490  -29.3170   20.7770 C   0  0  0  0  0  0  0  0  0  0  0  0
  -27.2230  -28.4740   20.7690 C   0  0  0  0  0  3  0  0  0  0  0  0
  -26.0030  -26.7510   19.6060 C   0  0  0  0  0  3  0  0  0  0  0  0
  -24.8570  -27.5800   19.5830 C   0  0  0  0  0  3  0  0  0  0  0  0
  -23.6430  -29.7520   20.2130 C   0  0  0  0  0  2  0  0  0  0  0  0
  -24.6890  -31.0280   22.1270 N   0  0  0  0  0  0  0  0  0  0  0  0
  -23.5280  -32.1430   23.7390 O   0  0  0  0  0  0  0  0  0  0  0  0
  -22.7370  -29.4490   22.5510 C   0  0  0  0  0  0  0  0  0  0  0  0
  -21.4100  -29.2830   22.4270 N   0  0  0  0  0  0  0  0  0  0  0  0
  -23.4090  -28.8210   23.3750 O   0  0  0  0  0  0  0  0  0  0  0  0
  -20.9240  -29.8410   21.7390 H   0  0  0  0  0  0  0  0  0  0  0  0
  -18.0230  -28.1020   22.9440 C   0  0  0  0  0  0  0  0  0  0  0  0
  -20.5850  -28.3510   23.2010 C   0  0  0  0  0  3  0  0  0  0  0  0
  -20.6760  -26.9180   22.6290 C   0  0  0  0  0  2  0  0  0  0  0  0
  -19.5690  -26.5990   21.6190 C   0  0  0  0  0  2  0  0  0  0  0  0
  -18.1900  -26.7510   22.2670 C   0  0  0  0  0  2  0  0  0  0  0  0
  -19.1480  -28.8600   23.3680 C   0  0  0  0  0  0  0  0  0  0  0  0
  -18.9360  -30.1230   23.9620 C   0  0  0  0  0  3  0  0  0  0  0  0
  -17.6340  -30.6290   24.1370 C   0  0  0  0  0  3  0  0  0  0  0  0
  -16.5250  -29.8680   23.7280 C   0  0  0  0  0  3  0  0  0  0  0  0
  -16.7200  -28.6070   23.1370 C   0  0  0  0  0  3  0  0  0  0  0  0
  -25.8920  -32.4940   23.8430 C   0  0  0  0  0  3  0  0  0  0  0  0
  -26.4010  -31.7280   25.1260 C   0  0  1  0  0  0  0  0  0  0  0  0
  -25.3020  -31.4980   26.1900 C   0  0  0  0  0  1  0  0  0  0  0  0
  -26.9840  -30.3470   24.7480 C   0  0  0  0  0  1  0  0  0  0  0  0
  -27.5510  -32.5220   25.7900 C   0  0  0  0  0  1  0  0  0  0  0  0
  -25.5790  -33.8930   24.1750 N   0  0  0  0  0  0  0  0  0  0  0  0
  -25.9090  -34.9500   23.4210 C   0  0  0  0  0  0  0  0  0  0  0  0
  -26.5790  -34.8490   22.3890 O   0  0  0  0  0  0  0  0  0  0  0  0
  -24.9890  -34.0460   24.9800 H   0  0  0  0  0  0  0  0  0  0  0  0
  -24.1820  -36.7460   23.0720 C   0  0  0  0  0  1  0  0  0  0  0  0
  -25.4230  -36.3390   23.8820 C   0  0  0  0  0  3  0  0  0  0  0  0
  -27.5570  -37.2230   24.7150 C   0  0  0  0  0  1  0  0  0  0  0  0
  -26.4560  -37.3910   23.7710 N   0  0  0  0  0  0  0  0  0  0  0  0
  -26.0500  -38.3120   23.9190 H   0  0  0  0  0  0  0  0  0  0  0  0
  1  2  1  0
  1  3  1  0
  2  4  1  0
  3  5  1  0
  4  5  1  0
  4  7  1  0
  5 46  1  0
  5  6  1  1
  8 16  1  0
  9 14  1  0
 10 11  1  0
 10  9  1  0
 12 11  1  0
 12 21  1  0
 12 13  1  0
 14  8  1  0
 14 13  1  0
 15  8  2  0
 16  7  1  0
 17 16  1  0
 18 19  2  0
 19 38  1  0
 20 19  1  0
 20 23  1  0
 21 18  1  0
 21 22  1  0
 22 20  2  0
 23 24  1  0
 24 25  2  0
 26 29  1  0
 26 25  1  0
 27 26  2  0
 28 27  1  0
 28 23  2  0
 29 30  1  0
 30 31  1  0
 31 32  2  0
 33 32  1  0
 33 37  1  0
 34 33  2  0
 35 30  2  0
 35 34  1  0
 36 35  1  0
 38 39  1  0
 39 42  1  0
 39 41  1  0
 40 38  2  0
 43 44  1  0
 43 18  1  0
 45 43  1  0
 47 46  1  0
 47 48  1  0
 49 51  1  0
 49 48  1  0
 50 61  2  0
 51 56  1  0
 52 60  1  0
 52 62  1  0
 53 59  1  0
 53 55  1  0
 54 60  1  0
 55 54  1  0
 56 55  2  0
 57 51  2  0
 58 57  1  0
 58 53  2  0
 59 52  1  0
 60 50  1  0
 62 64  2  0
 63 62  1  0
 65 63  1  0
 66 75  2  0
 66 71  1  0
 67 63  1  0
 67 71  1  0
 68 67  1  0
 69 70  1  0
 69 68  1  0
 70 66  1  0
 71 72  2  0
 72 73  1  0
 74 73  2  0
 75 74  1  0
 76 50  1  0
 76 81  1  0
 76 77  1  0
 77 80  1  1
 77 78  1  0
 79 77  1  0
 81 84  1  0
 82 86  1  0
 82 81  1  0
 83 82  2  0
 86 85  1  0
 88 86  1  0
 88 89  1  0
 88 87  1  0
M  ISO  4   8 100  16 100  48 101  49 101
M  END
>  <TORSDO>  (50) 
F 20

>  <SCORE>  (50) 
-15.695

>  <name>  (50) 
50

>  <ligand_id>  (50) 
50

>  <original_smiles>  (50) 
[H]c1c([H])c([H])c2c(c1[H])C([H])([H])C([H])([H])C([H])([H])C2([H])N([H])C(=O)C1([H])N(C(=O)C([H])(N([H])C(=O)C([H])(N([H])C([H])([H])[H])C([H])([H])[H])C(C([H])([H])[H])(C([H])([H])[H])C([H])([H])[H])C([H])([H])c2c([H])c(OC([H])([H])C([H])([H])C([H])([H])[N+]3([H])C([H])([H])C([H])([H])C([H])([H])C3([H])C([H])([H])N([H])C(=O)N3C([H])([H])C([H])([H])C([H])([H])C([H])(n4nc(-c5c([H])c([H])c(Oc6c([H])c([H])c(F)c([H])c6F)c([H])c5[H])c(C(=O)N([H])[H])c4N([H])[H])C3([H])[H])c([H])c([H])c2C1([H])[H]

>  <smiles>  (50) 
[H]c1c([H])c([H])c2c(c1[H])C([H])([H])C([H])([H])C([H])([H])C2([H])N([H])C(=O)C1([H])N(C(=O)C([H])(N([H])C(=O)C([H])(N([H])C([H])([H])[H])C([H])([H])[H])C(C([H])([H])[H])(C([H])([H])[H])C([H])([H])[H])C([H])([H])c2c([H])c(OC([H])([H])C([H])([H])C([H])([H])[N+]3([H])C([H])([H])C([H])([H])C([H])([H])C3([H])C([H])([H])N([H])C(=O)N3C([H])([H])C([H])([H])C([H])([H])C([H])(n4nc(-c5c([H])c([H])c(Oc6c([H])c([H])c(F)c([H])c6F)c([H])c5[H])c(C(=O)N([H])[H])c4N([H])[H])C3([H])[H])c([H])c([H])c2C1([H])[H]

$$$$
51:0:0
     RDKit          3D

 88 96  0  0  1  0  0  0  0  0999 V2000
  -28.2130  -19.7000   20.7700 C   0  0  0  0  0  2  0  0  0  0  0  0
  -27.8170  -21.2260   20.5390 C   0  0  0  0  0  2  0  0  0  0  0  0
  -30.0510  -20.8760   19.9590 C   0  0  0  0  0  2  0  0  0  0  0  0
  -29.4630  -19.3390   19.9250 C   0  0  0  0  0  3  0  0  0  0  0  0
  -28.9390  -21.9630   19.8830 N   0  0  2  0  0  4  0  0  0  0  0  0
  -28.7010  -21.9840   18.9020 H   0  0  0  0  0  0  0  0  0  0  0  0
  -30.3850  -17.9460   20.2930 C   0  0  0  0  0  2  0  0  0  0  0  0
  -30.7290  -15.2120   20.0480 C   0  0  0  0  0  0  0  0  0  0  0  0
  -30.5660  -12.8590   19.1050 C   0  0  0  0  0  2  0  0  0  0  0  0
  -29.6000  -12.8370   17.8990 C   0  0  0  0  0  2  0  0  0  0  0  0
  -28.1540  -12.6120   18.3800 C   0  0  0  0  0  2  0  0  0  0  0  0
  -27.7850  -13.5230   19.5820 C   0  0  0  0  0  3  0  0  0  0  0  0
  -28.8780  -13.5400   20.6720 C   0  0  0  0  0  2  0  0  0  0  0  0
  -30.1240  -13.9550   20.0150 N   0  0  0  0  0  0  0  0  0  0  0  0
  -31.9210  -15.2660   19.7260 O   0  0  0  0  0  0  0  0  0  0  0  0
  -29.9720  -16.4100   20.2450 N   0  0  0  0  0  0  0  0  0  0  0  0
  -29.0000  -16.2370   20.4510 H   0  0  0  0  0  0  0  0  0  0  0  0
  -25.4490  -14.0950   20.4460 C   0  0  0  0  0  0  0  0  0  0  0  0
  -24.3970  -13.3170   20.8440 C   0  0  0  0  0  0  0  0  0  0  0  0
  -24.8490  -11.9630   20.7530 C   0  0  0  0  0  0  0  0  0  0  0  0
  -26.4710  -13.2170   20.1300 N   0  0  0  0  0  0  0  0  0  0  0  0
  -26.1240  -11.9270   20.3800 N   0  0  0  0  0  0  0  0  0  0  0  0
  -24.1220  -10.7010   20.9430 C   0  0  0  0  0  0  0  0  0  0  0  0
  -24.5390   -9.7410   21.8910 C   0  0  0  0  0  3  0  0  0  0  0  0
  -23.8090   -8.5450   22.0670 C   0  0  0  0  0  3  0  0  0  0  0  0
  -22.6500   -8.3010   21.2950 C   0  0  0  0  0  0  0  0  0  0  0  0
  -22.2510   -9.2490   20.3360 C   0  0  0  0  0  3  0  0  0  0  0  0
  -22.9810  -10.4360   20.1590 C   0  0  0  0  0  3  0  0  0  0  0  0
  -21.8930   -7.1560   21.3780 O   0  0  0  0  0  0  0  0  0  0  0  0
  -21.7640   -6.4630   22.5570 C   0  0  0  0  0  0  0  0  0  0  0  0
  -21.1560   -7.0350   23.6950 C   0  0  0  0  0  3  0  0  0  0  0  0
  -20.9830   -6.2660   24.8620 C   0  0  0  0  0  3  0  0  0  0  0  0
  -21.4050   -4.9230   24.8900 C   0  0  0  0  0  0  0  0  0  0  0  0
  -22.0070   -4.3510   23.7550 C   0  0  0  0  0  3  0  0  0  0  0  0
  -22.1820   -5.1190   22.5900 C   0  0  0  0  0  0  0  0  0  0  0  0
  -22.7430   -4.5550   21.4930 F   0  0  0  0  0  0  0  0  0  0  0  0
  -21.2320   -4.1800   26.0080 F   0  0  0  0  0  0  0  0  0  0  0  0
  -23.0170  -13.7980   21.1870 C   0  0  0  0  0  0  0  0  0  0  0  0
  -22.3230  -13.0890   22.0710 N   0  0  0  0  0  0  0  0  0  0  0  0
  -22.5650  -14.8350   20.7060 O   0  0  0  0  0  0  0  0  0  0  0  0
  -22.7010  -12.2480   22.4790 H   0  0  0  0  0  0  0  0  0  0  0  0
  -21.4000  -13.3950   22.3430 H   0  0  0  0  0  0  0  0  0  0  0  0
  -25.6140  -15.4690   20.3000 N   0  0  0  0  0  0  0  0  0  0  0  0
  -24.8520  -16.1190   20.4620 H   0  0  0  0  0  0  0  0  0  0  0  0
  -26.4300  -15.9110   19.9000 H   0  0  0  0  0  0  0  0  0  0  0  0
  -29.1910  -23.5000   20.2770 C   0  0  0  0  0  3  0  0  0  0  0  0
  -28.1710  -24.8130   19.9140 C   0  0  0  0  0  3  0  0  0  0  0  0
  -28.3950  -26.3390   20.2190 O   0  0  0  0  0  0  0  0  0  0  0  0
  -24.6690  -31.9400   23.2650 C   0  0  0  0  0  0  0  0  0  0  0  0
  -27.3350  -27.3230   20.1510 C   0  0  0  0  0  0  0  0  0  0  0  0
  -23.5040  -30.5620   21.5880 C   0  0  0  0  0  3  0  0  0  0  0  0
  -24.9870  -29.0460   20.1340 C   0  0  0  0  0  0  0  0  0  0  0  0
  -26.0530  -30.8710   21.4450 C   0  0  0  0  0  2  0  0  0  0  0  0
  -26.1550  -29.4940   20.7620 C   0  0  0  0  0  0  0  0  0  0  0  0
  -27.3310  -28.6480   20.7550 C   0  0  0  0  0  3  0  0  0  0  0  0
  -26.1400  -26.9860   19.4770 C   0  0  0  0  0  3  0  0  0  0  0  0
  -24.9940  -27.8090   19.4730 C   0  0  0  0  0  3  0  0  0  0  0  0
  -23.7450  -29.9200   20.1960 C   0  0  0  0  0  2  0  0  0  0  0  0
  -24.7620  -31.1440   22.1550 N   0  0  0  0  0  0  0  0  0  0  0  0
  -23.5760  -32.1960   23.7940 O   0  0  0  0  0  0  0  0  0  0  0  0
  -22.8360  -29.5230   22.5250 C   0  0  0  0  0  0  0  0  0  0  0  0
  -21.5120  -29.3330   22.3830 N   0  0  0  0  0  0  0  0  0  0  0  0
  -23.5110  -28.8920   23.3410 O   0  0  0  0  0  0  0  0  0  0  0  0
  -21.0230  -29.8940   21.6990 H   0  0  0  0  0  0  0  0  0  0  0  0
  -18.1400  -28.0990   22.8720 C   0  0  0  0  0  0  0  0  0  0  0  0
  -20.6990  -28.3680   23.1260 C   0  0  0  0  0  3  0  0  0  0  0  0
  -20.8030  -26.9580   22.5010 C   0  0  0  0  0  2  0  0  0  0  0  0
  -19.6950  -26.6710   21.4820 C   0  0  0  0  0  2  0  0  0  0  0  0
  -18.3210  -26.7750   22.1500 C   0  0  0  0  0  2  0  0  0  0  0  0
  -19.2580  -28.8560   23.3150 C   0  0  0  0  0  0  0  0  0  0  0  0
  -19.0340  -30.0970   23.9510 C   0  0  0  0  0  3  0  0  0  0  0  0
  -17.7270  -30.5810   24.1450 C   0  0  0  0  0  3  0  0  0  0  0  0
  -16.6240  -29.8210   23.7190 C   0  0  0  0  0  3  0  0  0  0  0  0
  -16.8330  -28.5810   23.0870 C   0  0  0  0  0  3  0  0  0  0  0  0
  -25.9330  -32.5820   23.9160 C   0  0  0  0  0  3  0  0  0  0  0  0
  -26.4130  -31.8240   25.2140 C   0  0  1  0  0  0  0  0  0  0  0  0
  -25.2870  -31.5810   26.2470 C   0  0  0  0  0  1  0  0  0  0  0  0
  -27.0230  -30.4500   24.8540 C   0  0  0  0  0  1  0  0  0  0  0  0
  -27.5340  -32.6320   25.9080 C   0  0  0  0  0  1  0  0  0  0  0  0
  -25.6140  -33.9830   24.2300 N   0  0  0  0  0  0  0  0  0  0  0  0
  -25.9300  -35.0310   23.4580 C   0  0  0  0  0  0  0  0  0  0  0  0
  -26.5890  -34.9180   22.4210 O   0  0  0  0  0  0  0  0  0  0  0  0
  -25.0250  -34.1430   25.0350 H   0  0  0  0  0  0  0  0  0  0  0  0
  -24.1830  -36.8080   23.1110 C   0  0  0  0  0  1  0  0  0  0  0  0
  -25.4410  -36.4220   23.9050 C   0  0  0  0  0  3  0  0  0  0  0  0
  -27.5680  -37.3530   24.7070 C   0  0  0  0  0  1  0  0  0  0  0  0
  -26.4640  -37.4820   23.7590 N   0  0  0  0  0  0  0  0  0  0  0  0
  -26.0500  -38.4030   23.8810 H   0  0  0  0  0  0  0  0  0  0  0  0
  2  1  1  0
  4  3  1  0
  4  7  1  0
  4  1  1  0
  5  3  1  0
  5 46  1  0
  5  2  1  0
  5  6  1  6
  8 16  1  0
  9 14  1  0
 10 11  1  0
 10  9  1  0
 12 11  1  0
 12 21  1  0
 12 13  1  0
 14  8  1  0
 14 13  1  0
 15  8  2  0
 16  7  1  0
 16 17  1  0
 18 19  2  0
 19 38  1  0
 20 19  1  0
 20 23  1  0
 21 22  1  0
 21 18  1  0
 22 20  2  0
 23 24  1  0
 24 25  2  0
 26 29  1  0
 26 25  1  0
 27 26  2  0
 28 27  1  0
 28 23  2  0
 29 30  1  0
 30 35  2  0
 30 31  1  0
 31 32  2  0
 32 33  1  0
 33 37  1  0
 34 33  2  0
 35 34  1  0
 36 35  1  0
 38 39  1  0
 39 42  1  0
 39 41  1  0
 40 38  2  0
 43 18  1  0
 43 44  1  0
 45 43  1  0
 47 48  1  0
 47 46  2  0
 49 60  2  0
 50 48  1  0
 50 55  1  0
 51 59  1  0
 51 61  1  0
 52 58  1  0
 52 54  1  0
 53 59  1  0
 54 53  1  0
 55 54  2  0
 56 50  2  0
 57 56  1  0
 57 52  2  0
 58 51  1  0
 59 49  1  0
 61 63  2  0
 62 61  1  0
 64 62  1  0
 65 74  2  0
 65 70  1  0
 66 62  1  0
 66 70  1  0
 67 66  1  0
 68 69  1  0
 68 67  1  0
 69 65  1  0
 70 71  2  0
 71 72  1  0
 73 72  2  0
 74 73  1  0
 75 49  1  0
 75 80  1  0
 75 76  1  0
 76 79  1  1
 76 77  1  0
 78 76  1  0
 80 83  1  0
 81 85  1  0
 81 80  1  0
 82 81  2  0
 85 84  1  0
 87 88  1  0
 87 85  1  0
 87 86  1  0
M  ISO  4   8 100  16 100  47 101  48 101
M  END
>  <TORSDO>  (51) 
F 19

>  <SCORE>  (51) 
-15.047

>  <name>  (51) 
51

>  <ligand_id>  (51) 
51

>  <original_smiles>  (51) 
[H]c1c([H])c([H])c2c(c1[H])C([H])([H])C([H])([H])C([H])([H])C2([H])N([H])C(=O)C1([H])N(C(=O)C([H])(N([H])C(=O)C([H])(N([H])C([H])([H])[H])C([H])([H])[H])C(C([H])([H])[H])(C([H])([H])[H])C([H])([H])[H])C([H])([H])c2c([H])c(OC([H])([H])C([H])([H])[N+]3([H])C([H])([H])C([H])([H])C([H])(C([H])([H])N([H])C(=O)N4C([H])([H])C([H])([H])C([H])([H])C([H])(n5nc(-c6c([H])c([H])c(Oc7c([H])c([H])c(F)c([H])c7F)c([H])c6[H])c(C(=O)N([H])[H])c5N([H])[H])C4([H])[H])C3([H])[H])c([H])c([H])c2C1([H])[H]

>  <smiles>  (51) 
[H]c1c([H])c([H])c2c(c1[H])C([H])([H])C([H])([H])C([H])([H])C2([H])N([H])C(=O)C1([H])N(C(=O)C([H])(N([H])C(=O)C([H])(N([H])C([H])([H])[H])C([H])([H])[H])C(C([H])([H])[H])(C([H])([H])[H])C([H])([H])[H])C([H])([H])c2c([H])c(OC([H])([H])C([H])([H])[N+]3([H])C([H])([H])C([H])([H])C([H])(C([H])([H])N([H])C(=O)N4C([H])([H])C([H])([H])C([H])([H])C([H])(n5nc(-c6c([H])c([H])c(Oc7c([H])c([H])c(F)c([H])c7F)c([H])c6[H])c(C(=O)N([H])[H])c5N([H])[H])C4([H])[H])C3([H])[H])c([H])c([H])c2C1([H])[H]

$$$$
52:0:0
     RDKit          3D

 91100  0  0  1  0  0  0  0  0999 V2000
  -29.9500  -18.0360   21.3500 C   0  0  0  0  0  0  0  0  0  0  0  0
  -30.0720  -18.4250   18.9330 C   0  0  0  0  0  2  0  0  0  0  0  0
  -30.2050  -20.6640   21.0950 C   0  0  0  0  0  2  0  0  0  0  0  0
  -29.3200  -19.4000   21.0780 C   0  0  0  0  0  3  0  0  0  0  0  0
  -30.5260  -17.3990   20.0620 C   0  0  0  0  0  3  0  0  0  0  0  0
  -29.2290  -19.5970   19.5810 C   0  0  0  0  0  3  0  0  0  0  0  0
  -29.7900  -21.0110   19.7240 N   0  0  1  0  0  4  0  0  0  0  0  0
  -29.9620  -17.4390   22.4280 O   0  0  0  0  0  0  0  0  0  0  0  0
  -30.5900  -21.1520   19.1240 H   0  0  0  0  0  0  0  0  0  0  0  0
  -30.9480  -14.7920   19.7350 C   0  0  0  0  0  0  0  0  0  0  0  0
  -30.6970  -12.4790   18.8290 C   0  0  0  0  0  2  0  0  0  0  0  0
  -29.6740  -12.4870   17.6720 C   0  0  0  0  0  2  0  0  0  0  0  0
  -28.2380  -12.3300   18.2120 C   0  0  0  0  0  2  0  0  0  0  0  0
  -27.9390  -13.2790   19.4030 C   0  0  0  0  0  3  0  0  0  0  0  0
  -29.0720  -13.2400   20.4520 C   0  0  0  0  0  2  0  0  0  0  0  0
  -30.3230  -13.5680   19.7560 N   0  0  0  0  0  0  0  0  0  0  0  0
  -32.1190  -14.8890   19.3600 O   0  0  0  0  0  0  0  0  0  0  0  0
  -30.1680  -15.9160   19.9350 N   0  0  0  0  0  0  0  0  0  0  0  0
  -29.2120  -15.7070   20.1720 H   0  0  0  0  0  0  0  0  0  0  0  0
  -25.6400  -13.9180   20.3510 C   0  0  0  0  0  0  0  0  0  0  0  0
  -24.5830  -13.1650   20.7830 C   0  0  0  0  0  0  0  0  0  0  0  0
  -24.9960  -11.8020   20.6650 C   0  0  0  0  0  0  0  0  0  0  0  0
  -26.6300  -13.0170   19.9970 N   0  0  0  0  0  0  0  0  0  0  0  0
  -26.2550  -11.7360   20.2490 N   0  0  0  0  0  0  0  0  0  0  0  0
  -24.2450  -10.5570   20.8710 C   0  0  0  0  0  0  0  0  0  0  0  0
  -24.6670   -9.5850   21.8050 C   0  0  0  0  0  3  0  0  0  0  0  0
  -23.9180   -8.4050   21.9970 C   0  0  0  0  0  3  0  0  0  0  0  0
  -22.7320   -8.1860   21.2550 C   0  0  0  0  0  0  0  0  0  0  0  0
  -22.3300   -9.1470   20.3110 C   0  0  0  0  0  3  0  0  0  0  0  0
  -23.0780  -10.3190   20.1170 C   0  0  0  0  0  3  0  0  0  0  0  0
  -21.9570   -7.0580   21.3580 O   0  0  0  0  0  0  0  0  0  0  0  0
  -21.8320   -6.3740   22.5400 C   0  0  0  0  0  0  0  0  0  0  0  0
  -21.2850   -6.9740   23.6950 C   0  0  0  0  0  3  0  0  0  0  0  0
  -21.1130   -6.2140   24.8700 C   0  0  0  0  0  3  0  0  0  0  0  0
  -21.4760   -4.8550   24.8880 C   0  0  0  0  0  0  0  0  0  0  0  0
  -22.0150   -4.2530   23.7370 C   0  0  0  0  0  3  0  0  0  0  0  0
  -22.1890   -5.0100   22.5660 C   0  0  0  0  0  0  0  0  0  0  0  0
  -22.6890   -4.4200   21.4540 F   0  0  0  0  0  0  0  0  0  0  0  0
  -21.3010   -4.1210   26.0130 F   0  0  0  0  0  0  0  0  0  0  0  0
  -23.2290  -13.6740   21.1810 C   0  0  0  0  0  0  0  0  0  0  0  0
  -22.5470  -12.9710   22.0790 N   0  0  0  0  0  0  0  0  0  0  0  0
  -22.7860  -14.7310   20.7330 O   0  0  0  0  0  0  0  0  0  0  0  0
  -22.9210  -12.1170   22.4660 H   0  0  0  0  0  0  0  0  0  0  0  0
  -21.6390  -13.2930   22.3840 H   0  0  0  0  0  0  0  0  0  0  0  0
  -25.8350  -15.2890   20.2060 N   0  0  0  0  0  0  0  0  0  0  0  0
  -25.0910  -15.9530   20.3900 H   0  0  0  0  0  0  0  0  0  0  0  0
  -26.6400  -15.7120   19.7620 H   0  0  0  0  0  0  0  0  0  0  0  0
  -28.8250  -22.2100   19.5770 C   0  0  0  0  0  2  0  0  0  0  0  0
  -29.2990  -23.7340   19.8940 C   0  0  0  0  0  3  0  0  0  0  0  0
  -28.2340  -24.9290   19.6400 C   0  0  0  0  0  3  0  0  0  0  0  0
  -28.4530  -26.3740   20.0070 O   0  0  0  0  0  0  0  0  0  0  0  0
  -24.6400  -31.6360   23.2620 C   0  0  0  0  0  0  0  0  0  0  0  0
  -27.3450  -27.2590   19.9760 C   0  0  0  0  0  0  0  0  0  0  0  0
  -23.4760  -30.3160   21.5350 C   0  0  0  0  0  3  0  0  0  0  0  0
  -24.9620  -28.8720   20.0330 C   0  0  0  0  0  0  0  0  0  0  0  0
  -26.0150  -30.6700   21.3970 C   0  0  0  0  0  2  0  0  0  0  0  0
  -26.1220  -29.3290   20.6720 C   0  0  0  0  0  0  0  0  0  0  0  0
  -27.3150  -28.5380   20.6300 C   0  0  0  0  0  3  0  0  0  0  0  0
  -26.1580  -26.8770   19.3080 C   0  0  0  0  0  3  0  0  0  0  0  0
  -24.9870  -27.6540   19.3390 C   0  0  0  0  0  3  0  0  0  0  0  0
  -23.7120  -29.7260   20.1210 C   0  0  0  0  0  2  0  0  0  0  0  0
  -24.7290  -30.8890   22.1230 N   0  0  0  0  0  0  0  0  0  0  0  0
  -23.5470  -31.8670   23.8000 O   0  0  0  0  0  0  0  0  0  0  0  0
  -22.8180  -29.2360   22.4280 C   0  0  0  0  0  0  0  0  0  0  0  0
  -21.5010  -29.0280   22.2560 N   0  0  0  0  0  0  0  0  0  0  0  0
  -23.4920  -28.5920   23.2360 O   0  0  0  0  0  0  0  0  0  0  0  0
  -21.0180  -29.5950   21.5740 H   0  0  0  0  0  0  0  0  0  0  0  0
  -18.1380  -27.7370   22.6480 C   0  0  0  0  0  0  0  0  0  0  0  0
  -20.6880  -28.0360   22.9640 C   0  0  0  0  0  3  0  0  0  0  0  0
  -20.8270  -26.6360   22.3210 C   0  0  0  0  0  2  0  0  0  0  0  0
  -19.7420  -26.3380   21.2820 C   0  0  0  0  0  2  0  0  0  0  0  0
  -18.3510  -26.4270   21.9130 C   0  0  0  0  0  2  0  0  0  0  0  0
  -19.2360  -28.5000   23.1290 C   0  0  0  0  0  0  0  0  0  0  0  0
  -18.9820  -29.7260   23.7820 C   0  0  0  0  0  3  0  0  0  0  0  0
  -17.6640  -30.1870   23.9600 C   0  0  0  0  0  3  0  0  0  0  0  0
  -16.5820  -29.4220   23.4930 C   0  0  0  0  0  3  0  0  0  0  0  0
  -16.8200  -28.1980   22.8410 C   0  0  0  0  0  3  0  0  0  0  0  0
  -25.9040  -32.2550   23.9320 C   0  0  0  0  0  3  0  0  0  0  0  0
  -26.3590  -31.4820   25.2320 C   0  0  1  0  0  0  0  0  0  0  0  0
  -25.2210  -31.2640   26.2580 C   0  0  0  0  0  1  0  0  0  0  0  0
  -26.9380  -30.0960   24.8680 C   0  0  0  0  0  1  0  0  0  0  0  0
  -27.4920  -32.2650   25.9370 C   0  0  0  0  0  1  0  0  0  0  0  0
  -25.6020  -33.6590   24.2470 N   0  0  0  0  0  0  0  0  0  0  0  0
  -25.9410  -34.7040   23.4810 C   0  0  0  0  0  0  0  0  0  0  0  0
  -26.6120  -34.5880   22.4510 O   0  0  0  0  0  0  0  0  0  0  0  0
  -25.0040  -33.8240   25.0450 H   0  0  0  0  0  0  0  0  0  0  0  0
  -24.2100  -36.4960   23.1270 C   0  0  0  0  0  1  0  0  0  0  0  0
  -25.4610  -36.0990   23.9260 C   0  0  0  0  0  3  0  0  0  0  0  0
  -27.5970  -37.0070   24.7320 C   0  0  0  0  0  1  0  0  0  0  0  0
  -26.4940  -37.1500   23.7860 N   0  0  0  0  0  0  0  0  0  0  0  0
  -26.0860  -38.0740   23.9100 H   0  0  0  0  0  0  0  0  0  0  0  0
  1  8  2  0
  2  5  1  0
  4  3  1  0
  4  1  1  0
  5 18  1  0
  5  1  1  0
  6  2  1  0
  6  7  1  0
  6  4  1  0
  7  3  1  0
  7  9  1  6
 10 16  1  0
 10 18  1  0
 11 16  1  0
 12 13  1  0
 12 11  1  0
 14 13  1  0
 14 23  1  0
 14 15  1  0
 16 15  1  0
 17 10  2  0
 18 19  1  0
 20 21  2  0
 21 40  1  0
 22 21  1  0
 22 25  1  0
 23 24  1  0
 23 20  1  0
 24 22  2  0
 25 26  1  0
 26 27  2  0
 28 31  1  0
 28 27  1  0
 29 28  2  0
 30 29  1  0
 30 25  2  0
 31 32  1  0
 32 37  2  0
 32 33  1  0
 33 34  2  0
 34 35  1  0
 35 39  1  0
 36 35  2  0
 37 36  1  0
 38 37  1  0
 40 41  1  0
 41 44  1  0
 41 43  1  0
 42 40  2  0
 45 20  1  0
 45 46  1  0
 47 45  1  0
 48  7  1  0
 48 49  1  0
 50 49  2  0
 50 51  1  0
 52 63  2  0
 53 51  1  0
 53 58  1  0
 54 62  1  0
 54 64  1  0
 55 61  1  0
 55 57  1  0
 56 62  1  0
 57 56  1  0
 58 57  2  0
 59 60  1  0
 59 53  2  0
 60 55  2  0
 61 54  1  0
 62 52  1  0
 64 66  2  0
 65 64  1  0
 67 65  1  0
 68 77  2  0
 68 73  1  0
 69 65  1  0
 69 73  1  0
 70 69  1  0
 71 72  1  0
 71 70  1  0
 72 68  1  0
 73 74  2  0
 74 75  1  0
 76 75  2  0
 77 76  1  0
 78 52  1  0
 78 83  1  0
 78 79  1  0
 79 82  1  1
 79 80  1  0
 81 79  1  0
 83 86  1  0
 84 88  1  0
 84 83  1  0
 85 84  2  0
 88 87  1  0
 90 91  1  0
 90 88  1  0
 90 89  1  0
M  ISO  4  10 100  18 100  50 101  51 101
M  END
>  <TORSDO>  (52) 
F 19

>  <SCORE>  (52) 
-13.215

>  <name>  (52) 
52

>  <ligand_id>  (52) 
52

>  <original_smiles>  (52) 
[H]c1c([H])c([H])c2c(c1[H])C([H])([H])C([H])([H])C([H])([H])C2([H])N([H])C(=O)C1([H])N(C(=O)C([H])(N([H])C(=O)C([H])(N([H])C([H])([H])[H])C([H])([H])[H])C(C([H])([H])[H])(C([H])([H])[H])C([H])([H])[H])C([H])([H])c2c([H])c(OC([H])([H])C([H])([H])C([H])([H])[N+]3([H])C([H])([H])C4([H])C(=O)C([H])(N([H])C(=O)N5C([H])([H])C([H])([H])C([H])([H])C([H])(n6nc(-c7c([H])c([H])c(Oc8c([H])c([H])c(F)c([H])c8F)c([H])c7[H])c(C(=O)N([H])[H])c6N([H])[H])C5([H])[H])C([H])([H])C43[H])c([H])c([H])c2C1([H])[H]

>  <smiles>  (52) 
[H]c1c([H])c([H])c2c(c1[H])C([H])([H])C([H])([H])C([H])([H])C2([H])N([H])C(=O)C1([H])N(C(=O)C([H])(N([H])C(=O)C([H])(N([H])C([H])([H])[H])C([H])([H])[H])C(C([H])([H])[H])(C([H])([H])[H])C([H])([H])[H])C([H])([H])c2c([H])c(OC([H])([H])C([H])([H])C([H])([H])[N+]3([H])C([H])([H])C4([H])C(=O)C([H])(N([H])C(=O)N5C([H])([H])C([H])([H])C([H])([H])C([H])(n6nc(-c7c([H])c([H])c(Oc8c([H])c([H])c(F)c([H])c8F)c([H])c7[H])c(C(=O)N([H])[H])c6N([H])[H])C5([H])[H])C([H])([H])C43[H])c([H])c([H])c2C1([H])[H]

$$$$
53:0:0
     RDKit          3D

 88 96  0  0  1  0  0  0  0  0999 V2000
  -31.7560  -19.5650   20.6690 C   0  0  0  0  0  3  0  0  0  0  0  0
  -30.8470  -20.6440   20.5630 C   0  0  0  0  0  3  0  0  0  0  0  0
  -31.3640  -18.2060   20.6120 C   0  0  0  0  0  3  0  0  0  0  0  0
  -29.0920  -18.9930   20.3450 C   0  0  0  0  0  3  0  0  0  0  0  0
  -29.4590  -20.4540   20.3920 C   0  0  0  0  0  0  0  0  0  0  0  0
  -30.0190  -17.8080   20.4470 C   0  0  0  0  0  0  0  0  0  0  0  0
  -30.4920  -15.0700   20.3250 C   0  0  0  0  0  0  0  0  0  0  0  0
  -30.3970  -12.7020   19.3830 C   0  0  0  0  0  2  0  0  0  0  0  0
  -29.4690  -12.6170   18.1490 C   0  0  0  0  0  2  0  0  0  0  0  0
  -28.0100  -12.3810   18.5840 C   0  0  0  0  0  2  0  0  0  0  0  0
  -27.5850  -13.3110   19.7490 C   0  0  0  0  0  3  0  0  0  0  0  0
  -28.6380  -13.3650   20.8770 C   0  0  0  0  0  2  0  0  0  0  0  0
  -29.8970  -13.8040   20.2610 N   0  0  0  0  0  0  0  0  0  0  0  0
  -31.7040  -15.1000   20.0810 O   0  0  0  0  0  0  0  0  0  0  0  0
  -29.7110  -16.2790   20.4300 N   0  0  0  0  0  0  0  0  0  0  0  0
  -28.7260  -16.0710   20.4970 H   0  0  0  0  0  0  0  0  0  0  0  0
  -25.1970  -13.8590   20.4800 C   0  0  0  0  0  0  0  0  0  0  0  0
  -24.1420  -13.0730   20.8500 C   0  0  0  0  0  0  0  0  0  0  0  0
  -24.6250  -11.7280   20.8310 C   0  0  0  0  0  0  0  0  0  0  0  0
  -26.2530  -12.9940   20.2490 N   0  0  0  0  0  0  0  0  0  0  0  0
  -25.9180  -11.7070   20.5300 N   0  0  0  0  0  0  0  0  0  0  0  0
  -23.9130  -10.4580   21.0240 C   0  0  0  0  0  0  0  0  0  0  0  0
  -24.3550   -9.4970   21.9600 C   0  0  0  0  0  3  0  0  0  0  0  0
  -23.6410   -8.2940   22.1420 C   0  0  0  0  0  3  0  0  0  0  0  0
  -22.4700   -8.0420   21.3880 C   0  0  0  0  0  0  0  0  0  0  0  0
  -22.0470   -8.9920   20.4410 C   0  0  0  0  0  3  0  0  0  0  0  0
  -22.7630  -10.1870   20.2570 C   0  0  0  0  0  3  0  0  0  0  0  0
  -21.7250   -6.8900   21.4790 O   0  0  0  0  0  0  0  0  0  0  0  0
  -21.6890   -6.1450   22.6310 C   0  0  0  0  0  0  0  0  0  0  0  0
  -21.2560   -6.6930   23.8590 C   0  0  0  0  0  3  0  0  0  0  0  0
  -21.1700   -5.8740   25.0010 C   0  0  0  0  0  3  0  0  0  0  0  0
  -21.5040   -4.5090   24.9190 C   0  0  0  0  0  0  0  0  0  0  0  0
  -21.9310   -3.9620   23.6960 C   0  0  0  0  0  3  0  0  0  0  0  0
  -22.0190   -4.7770   22.5540 C   0  0  0  0  0  0  0  0  0  0  0  0
  -22.4100   -4.2400   21.3730 F   0  0  0  0  0  0  0  0  0  0  0  0
  -21.4140   -3.7200   26.0150 F   0  0  0  0  0  0  0  0  0  0  0  0
  -22.7370  -13.5330   21.1050 C   0  0  0  0  0  0  0  0  0  0  0  0
  -22.0130  -12.8410   21.9760 N   0  0  0  0  0  0  0  0  0  0  0  0
  -22.2900  -14.5460   20.5660 O   0  0  0  0  0  0  0  0  0  0  0  0
  -22.3870  -12.0230   22.4330 H   0  0  0  0  0  0  0  0  0  0  0  0
  -21.0700  -13.1340   22.1890 H   0  0  0  0  0  0  0  0  0  0  0  0
  -25.3420  -15.2300   20.2920 N   0  0  0  0  0  0  0  0  0  0  0  0
  -24.5630  -15.8710   20.3900 H   0  0  0  0  0  0  0  0  0  0  0  0
  -26.1730  -15.6770   19.9260 H   0  0  0  0  0  0  0  0  0  0  0  0
  -28.5710  -21.8120   20.2750 C   0  0  0  0  0  3  0  0  0  0  0  0
  -28.8300  -23.2270   20.3090 C   0  0  0  0  0  3  0  0  0  0  0  0
  -27.8390  -24.5590   20.1200 C   0  0  0  0  0  2  0  0  0  0  0  0
  -28.1900  -26.0880   20.3220 O   0  0  0  0  0  0  0  0  0  0  0  0
  -24.6350  -31.9030   23.2780 C   0  0  0  0  0  0  0  0  0  0  0  0
  -27.1680  -27.1250   20.2510 C   0  0  0  0  0  0  0  0  0  0  0  0
  -23.4270  -30.5150   21.6420 C   0  0  0  0  0  3  0  0  0  0  0  0
  -24.8630  -28.9260   20.2160 C   0  0  0  0  0  0  0  0  0  0  0  0
  -25.9880  -30.7480   21.4820 C   0  0  0  0  0  2  0  0  0  0  0  0
  -26.0500  -29.3520   20.8280 C   0  0  0  0  0  0  0  0  0  0  0  0
  -27.2030  -28.4690   20.8260 C   0  0  0  0  0  3  0  0  0  0  0  0
  -25.9530  -26.8200   19.5960 C   0  0  0  0  0  3  0  0  0  0  0  0
  -24.8310  -27.6760   19.5840 C   0  0  0  0  0  3  0  0  0  0  0  0
  -23.6460  -29.8380   20.2630 C   0  0  0  0  0  2  0  0  0  0  0  0
  -24.7040  -31.0790   22.1880 N   0  0  0  0  0  0  0  0  0  0  0  0
  -23.5500  -32.1960   23.8040 O   0  0  0  0  0  0  0  0  0  0  0  0
  -22.7390  -29.5150   22.6040 C   0  0  0  0  0  0  0  0  0  0  0  0
  -21.4090  -29.3500   22.4740 N   0  0  0  0  0  0  0  0  0  0  0  0
  -23.4040  -28.8900   23.4330 O   0  0  0  0  0  0  0  0  0  0  0  0
  -20.9300  -29.9080   21.7810 H   0  0  0  0  0  0  0  0  0  0  0  0
  -18.0230  -28.1510   22.9590 C   0  0  0  0  0  0  0  0  0  0  0  0
  -20.5800  -28.4190   23.2450 C   0  0  0  0  0  3  0  0  0  0  0  0
  -20.6880  -26.9820   22.6840 C   0  0  0  0  0  2  0  0  0  0  0  0
  -19.5940  -26.6490   21.6630 C   0  0  0  0  0  2  0  0  0  0  0  0
  -18.2080  -26.7970   22.2940 C   0  0  0  0  0  2  0  0  0  0  0  0
  -19.1370  -28.9190   23.3910 C   0  0  0  0  0  0  0  0  0  0  0  0
  -18.9090  -30.1840   23.9760 C   0  0  0  0  0  3  0  0  0  0  0  0
  -17.6020  -30.6820   24.1300 C   0  0  0  0  0  3  0  0  0  0  0  0
  -16.5030  -29.9110   23.7120 C   0  0  0  0  0  3  0  0  0  0  0  0
  -16.7140  -28.6480   23.1330 C   0  0  0  0  0  3  0  0  0  0  0  0
  -25.9160  -32.5340   23.9060 C   0  0  0  0  0  3  0  0  0  0  0  0
  -25.6120  -33.9340   24.2390 N   0  0  0  0  0  0  0  0  0  0  0  0
  -25.9230  -34.9880   23.4720 C   0  0  0  0  0  0  0  0  0  0  0  0
  -26.5640  -34.8840   22.4230 O   0  0  0  0  0  0  0  0  0  0  0  0
  -25.0430  -34.0900   25.0580 H   0  0  0  0  0  0  0  0  0  0  0  0
  -24.1730  -36.7740   23.1860 C   0  0  0  0  0  1  0  0  0  0  0  0
  -25.4510  -36.3790   23.9450 C   0  0  0  0  0  3  0  0  0  0  0  0
  -27.6180  -37.2760   24.6720 C   0  0  0  0  0  1  0  0  0  0  0  0
  -26.4710  -37.4390   23.7830 N   0  0  0  0  0  0  0  0  0  0  0  0
  -26.0650  -38.3550   23.9550 H   0  0  0  0  0  0  0  0  0  0  0  0
  -26.4180  -31.7630   25.1890 C   0  0  1  0  0  0  0  0  0  0  0  0
  -25.3190  -31.5400   26.2530 C   0  0  0  0  0  1  0  0  0  0  0  0
  -26.9920  -30.3780   24.8120 C   0  0  0  0  0  1  0  0  0  0  0  0
  -27.5740  -32.5510   25.8510 C   0  0  0  0  0  1  0  0  0  0  0  0
  2  1  2  0
  3  1  1  0
  4  5  2  0
  4  6  1  0
  5  2  1  0
  6  3  2  0
  7 15  1  0
  8 13  1  0
  9 10  1  0
  9  8  1  0
 11 10  1  0
 11 20  1  0
 11 12  1  0
 13  7  1  0
 13 12  1  0
 14  7  2  0
 15  6  1  0
 15 16  1  0
 17 18  2  0
 18 37  1  0
 19 18  1  0
 19 22  1  0
 20 17  1  0
 20 21  1  0
 21 19  2  0
 22 23  1  0
 23 24  2  0
 25 28  1  0
 25 24  1  0
 26 25  2  0
 27 26  1  0
 27 22  2  0
 28 29  1  0
 29 30  1  0
 30 31  2  0
 32 31  1  0
 32 36  1  0
 33 32  2  0
 34 29  2  0
 34 33  1  0
 35 34  1  0
 37 38  1  0
 38 41  1  0
 38 40  1  0
 39 37  2  0
 42 43  1  0
 42 17  1  0
 44 42  1  0
 45 46  2  0
 45  5  1  0
 47 46  1  0
 47 48  1  0
 49 60  2  0
 50 48  1  0
 50 55  1  0
 51 59  1  0
 51 61  1  0
 52 58  1  0
 52 54  1  0
 53 59  1  0
 54 53  1  0
 55 54  2  0
 56 50  2  0
 57 56  1  0
 57 52  2  0
 58 51  1  0
 59 49  1  0
 61 63  2  0
 62 61  1  0
 64 62  1  0
 65 74  2  0
 65 70  1  0
 66 62  1  0
 66 70  1  0
 67 66  1  0
 68 69  1  0
 68 67  1  0
 69 65  1  0
 70 71  2  0
 71 72  1  0
 73 72  2  0
 74 73  1  0
 75 49  1  0
 75 76  1  0
 75 85  1  0
 76 79  1  0
 77 81  1  0
 77 76  1  0
 78 77  2  0
 81 80  1  0
 83 81  1  0
 83 84  1  0
 83 82  1  0
 85 88  1  1
 85 86  1  0
 87 85  1  0
M  ISO  4   7 100  15 100  47 101  48 101
M  END
>  <TORSDO>  (53) 
F 18

>  <SCORE>  (53) 
-14.593

>  <name>  (53) 
53

>  <ligand_id>  (53) 
53

>  <original_smiles>  (53) 
[H]C(=C([H])C([H])([H])Oc1c([H])c([H])c2c(c1[H])C([H])([H])N(C(=O)C([H])(N([H])C(=O)C([H])(N([H])C([H])([H])[H])C([H])([H])[H])C(C([H])([H])[H])(C([H])([H])[H])C([H])([H])[H])C([H])(C(=O)N([H])C1([H])c3c([H])c([H])c([H])c([H])c3C([H])([H])C([H])([H])C1([H])[H])C2([H])[H])c1c([H])c([H])c([H])c(N([H])C(=O)N2C([H])([H])C([H])([H])C([H])([H])C([H])(n3nc(-c4c([H])c([H])c(Oc5c([H])c([H])c(F)c([H])c5F)c([H])c4[H])c(C(=O)N([H])[H])c3N([H])[H])C2([H])[H])c1[H]

>  <smiles>  (53) 
[H]C(=C([H])C([H])([H])Oc1c([H])c([H])c2c(c1[H])C([H])([H])N(C(=O)C([H])(N([H])C(=O)C([H])(N([H])C([H])([H])[H])C([H])([H])[H])C(C([H])([H])[H])(C([H])([H])[H])C([H])([H])[H])C([H])(C(=O)N([H])C1([H])c3c([H])c([H])c([H])c([H])c3C([H])([H])C([H])([H])C1([H])[H])C2([H])[H])c1c([H])c([H])c([H])c(N([H])C(=O)N2C([H])([H])C([H])([H])C([H])([H])C([H])(n3nc(-c4c([H])c([H])c(Oc5c([H])c([H])c(F)c([H])c5F)c([H])c4[H])c(C(=O)N([H])[H])c3N([H])[H])C2([H])[H])c1[H]

$$$$
54:0:0
     RDKit          3D

 89 98  0  0  1  0  0  0  0  0999 V2000
  -29.0760  -23.2010   20.4950 C   0  0  0  0  0  3  0  0  0  0  0  0
  -28.6340  -21.8570   20.3540 C   0  0  0  0  0  0  0  0  0  0  0  0
  -27.1320  -22.0770   20.1650 C   0  0  0  0  0  2  0  0  0  0  0  0
  -26.8790  -23.6160   19.8470 C   0  0  0  0  0  2  0  0  0  0  0  0
  -27.9910  -24.4480   20.5400 C   0  0  0  0  0  3  0  0  0  0  0  0
  -28.8060  -19.0500   20.4060 C   0  0  0  0  0  3  0  0  0  0  0  0
  -29.3020  -20.3790   20.3410 C   0  0  0  0  0  0  0  0  0  0  0  0
  -29.7700  -17.7700   20.3260 C   0  0  0  0  0  0  0  0  0  0  0  0
  -30.7480  -20.0450   20.1850 C   0  0  0  0  0  0  0  0  0  0  0  0
  -31.0900  -18.5100   20.1440 C   0  0  0  0  0  2  0  0  0  0  0  0
  -29.5300  -16.4030   20.4000 N   0  0  0  0  0  0  0  0  0  0  0  0
  -31.6440  -20.8890   20.0730 O   0  0  0  0  0  0  0  0  0  0  0  0
  -30.4330  -15.1970   20.2240 C   0  0  0  0  0  0  0  0  0  0  0  0
  -30.4100  -12.7780   19.3450 C   0  0  0  0  0  2  0  0  0  0  0  0
  -29.4730  -12.6530   18.1180 C   0  0  0  0  0  2  0  0  0  0  0  0
  -28.0200  -12.4000   18.5600 C   0  0  0  0  0  2  0  0  0  0  0  0
  -27.5920  -13.3440   19.7120 C   0  0  0  0  0  3  0  0  0  0  0  0
  -28.6480  -13.4310   20.8290 C   0  0  0  0  0  2  0  0  0  0  0  0
  -29.9040  -13.8890   20.2180 N   0  0  0  0  0  0  0  0  0  0  0  0
  -31.6340  -15.2480   19.9390 O   0  0  0  0  0  0  0  0  0  0  0  0
  -25.2280  -13.8950   20.5010 C   0  0  0  0  0  0  0  0  0  0  0  0
  -24.1720  -13.1120   20.8770 C   0  0  0  0  0  0  0  0  0  0  0  0
  -24.6430  -11.7630   20.8270 C   0  0  0  0  0  0  0  0  0  0  0  0
  -26.2680  -13.0250   20.2320 N   0  0  0  0  0  0  0  0  0  0  0  0
  -25.9280  -11.7350   20.4960 N   0  0  0  0  0  0  0  0  0  0  0  0
  -23.9220  -10.4970   21.0130 C   0  0  0  0  0  0  0  0  0  0  0  0
  -24.3510   -9.5330   21.9520 C   0  0  0  0  0  3  0  0  0  0  0  0
  -23.6290   -8.3330   22.1280 C   0  0  0  0  0  3  0  0  0  0  0  0
  -22.4630   -8.0870   21.3640 C   0  0  0  0  0  0  0  0  0  0  0  0
  -22.0530   -9.0400   20.4160 C   0  0  0  0  0  3  0  0  0  0  0  0
  -22.7750  -10.2320   20.2390 C   0  0  0  0  0  3  0  0  0  0  0  0
  -21.7140   -6.9370   21.4480 O   0  0  0  0  0  0  0  0  0  0  0  0
  -21.6370   -6.2120   22.6090 C   0  0  0  0  0  0  0  0  0  0  0  0
  -21.1570   -6.7770   23.8110 C   0  0  0  0  0  3  0  0  0  0  0  0
  -21.0280   -5.9760   24.9630 C   0  0  0  0  0  3  0  0  0  0  0  0
  -21.3700   -4.6110   24.9150 C   0  0  0  0  0  0  0  0  0  0  0  0
  -21.8460   -4.0460   23.7190 C   0  0  0  0  0  3  0  0  0  0  0  0
  -21.9760   -4.8440   22.5690 C   0  0  0  0  0  0  0  0  0  0  0  0
  -22.4130   -4.2890   21.4120 F   0  0  0  0  0  0  0  0  0  0  0  0
  -21.2420   -3.8400   26.0210 F   0  0  0  0  0  0  0  0  0  0  0  0
  -22.7780  -13.5830   21.1700 C   0  0  0  0  0  0  0  0  0  0  0  0
  -22.0620  -12.8760   22.0380 N   0  0  0  0  0  0  0  0  0  0  0  0
  -22.3310  -14.6110   20.6630 O   0  0  0  0  0  0  0  0  0  0  0  0
  -22.4350  -12.0420   22.4660 H   0  0  0  0  0  0  0  0  0  0  0  0
  -21.1280  -13.1760   22.2790 H   0  0  0  0  0  0  0  0  0  0  0  0
  -25.3920  -15.2700   20.3420 N   0  0  0  0  0  0  0  0  0  0  0  0
  -24.6440  -15.9380   20.4850 H   0  0  0  0  0  0  0  0  0  0  0  0
  -26.2660  -15.7010   20.0650 H   0  0  0  0  0  0  0  0  0  0  0  0
  -28.2280  -26.0210   20.2420 O   0  0  0  0  0  0  0  0  0  0  0  0
  -24.6630  -31.9120   23.2460 C   0  0  0  0  0  0  0  0  0  0  0  0
  -27.2000  -27.0750   20.2370 C   0  0  0  0  0  0  0  0  0  0  0  0
  -23.4600  -30.5170   21.6120 C   0  0  0  0  0  3  0  0  0  0  0  0
  -24.9010  -28.9170   20.1930 C   0  0  0  0  0  0  0  0  0  0  0  0
  -26.0240  -30.7330   21.4600 C   0  0  0  0  0  2  0  0  0  0  0  0
  -26.0890  -29.3290   20.8110 C   0  0  0  0  0  0  0  0  0  0  0  0
  -27.2370  -28.4290   20.8090 C   0  0  0  0  0  3  0  0  0  0  0  0
  -25.9890  -26.8040   19.5630 C   0  0  0  0  0  3  0  0  0  0  0  0
  -24.8720  -27.6730   19.5470 C   0  0  0  0  0  3  0  0  0  0  0  0
  -23.6840  -29.8350   20.2360 C   0  0  0  0  0  2  0  0  0  0  0  0
  -24.7370  -31.0800   22.1600 N   0  0  0  0  0  0  0  0  0  0  0  0
  -23.5770  -32.2050   23.7710 O   0  0  0  0  0  0  0  0  0  0  0  0
  -22.7710  -29.5200   22.5800 C   0  0  0  0  0  0  0  0  0  0  0  0
  -21.4420  -29.3520   22.4540 N   0  0  0  0  0  0  0  0  0  0  0  0
  -23.4370  -28.8980   23.4110 O   0  0  0  0  0  0  0  0  0  0  0  0
  -20.9570  -29.9000   21.7580 H   0  0  0  0  0  0  0  0  0  0  0  0
  -18.0600  -28.1470   22.9640 C   0  0  0  0  0  0  0  0  0  0  0  0
  -20.6200  -28.4190   23.2310 C   0  0  0  0  0  3  0  0  0  0  0  0
  -20.7260  -26.9830   22.6650 C   0  0  0  0  0  2  0  0  0  0  0  0
  -19.6260  -26.6520   21.6520 C   0  0  0  0  0  2  0  0  0  0  0  0
  -18.2430  -26.7970   22.2920 C   0  0  0  0  0  2  0  0  0  0  0  0
  -19.1760  -28.9160   23.3910 C   0  0  0  0  0  0  0  0  0  0  0  0
  -18.9490  -30.1780   23.9790 C   0  0  0  0  0  3  0  0  0  0  0  0
  -17.6420  -30.6720   24.1460 C   0  0  0  0  0  3  0  0  0  0  0  0
  -16.5410  -29.9010   23.7350 C   0  0  0  0  0  3  0  0  0  0  0  0
  -16.7510  -28.6410   23.1480 C   0  0  0  0  0  3  0  0  0  0  0  0
  -25.9410  -32.5490   23.8710 C   0  0  0  0  0  3  0  0  0  0  0  0
  -25.6280  -33.9480   24.2120 N   0  0  0  0  0  0  0  0  0  0  0  0
  -25.9330  -35.0080   23.4520 C   0  0  0  0  0  0  0  0  0  0  0  0
  -26.5710  -34.9120   22.4000 O   0  0  0  0  0  0  0  0  0  0  0  0
  -25.0590  -34.0950   25.0330 H   0  0  0  0  0  0  0  0  0  0  0  0
  -24.1770  -36.7920   23.1790 C   0  0  0  0  0  1  0  0  0  0  0  0
  -25.4560  -36.3940   23.9320 C   0  0  0  0  0  3  0  0  0  0  0  0
  -27.6160  -37.3000   24.6730 C   0  0  0  0  0  1  0  0  0  0  0  0
  -26.4750  -37.4550   23.7750 N   0  0  0  0  0  0  0  0  0  0  0  0
  -26.0680  -38.3710   23.9400 H   0  0  0  0  0  0  0  0  0  0  0  0
  -26.4560  -31.7770   25.1490 C   0  0  1  0  0  0  0  0  0  0  0  0
  -25.3610  -31.5390   26.2160 C   0  0  0  0  0  1  0  0  0  0  0  0
  -27.0390  -30.3980   24.7680 C   0  0  0  0  0  1  0  0  0  0  0  0
  -27.6090  -32.5720   25.8070 C   0  0  0  0  0  1  0  0  0  0  0  0
  1  5  1  0
  2  1  2  0
  3  2  1  0
  4  3  1  0
  4  5  1  0
  5 49  1  0
  7  2  1  0
  7  6  2  0
  8 11  2  0
  8  6  1  0
  9  7  1  0
 10  9  1  0
 10  8  1  0
 12  9  2  0
 13 11  1  0
 14 19  1  0
 15 16  1  0
 15 14  1  0
 17 16  1  0
 17 24  1  0
 17 18  1  0
 19 13  1  0
 19 18  1  0
 20 13  2  0
 21 22  2  0
 22 41  1  0
 23 22  1  0
 23 26  1  0
 24 25  1  0
 24 21  1  0
 25 23  2  0
 26 27  1  0
 27 28  2  0
 29 32  1  0
 29 28  1  0
 30 29  2  0
 31 30  1  0
 31 26  2  0
 32 33  1  0
 33 34  1  0
 34 35  2  0
 36 35  1  0
 36 40  1  0
 37 36  2  0
 38 33  2  0
 38 37  1  0
 39 38  1  0
 41 42  1  0
 42 45  1  0
 42 44  1  0
 43 41  2  0
 46 47  1  0
 46 21  1  0
 48 46  1  0
 50 61  2  0
 51 49  1  0
 51 56  1  0
 52 60  1  0
 52 62  1  0
 53 59  1  0
 53 55  1  0
 54 60  1  0
 55 54  1  0
 56 55  2  0
 57 51  2  0
 58 57  1  0
 58 53  2  0
 59 52  1  0
 60 50  1  0
 62 64  2  0
 63 62  1  0
 65 63  1  0
 66 75  2  0
 66 71  1  0
 67 63  1  0
 67 71  1  0
 68 67  1  0
 69 70  1  0
 69 68  1  0
 70 66  1  0
 71 72  2  0
 72 73  1  0
 74 73  2  0
 75 74  1  0
 76 50  1  0
 76 77  1  0
 76 86  1  0
 77 80  1  0
 78 82  1  0
 78 77  1  0
 79 78  2  0
 82 81  1  0
 84 82  1  0
 84 85  1  0
 84 83  1  0
 86 89  1  1
 86 87  1  0
 88 86  1  0
M  ISO  4   5 101  11 100  13 100  49 101
M  END
>  <TORSDO>  (54) 
F 17

>  <SCORE>  (54) 
-15.058

>  <name>  (54) 
54

>  <ligand_id>  (54) 
54

>  <original_smiles>  (54) 
[H]C1=C(C2=C([H])C([H])(Oc3c([H])c([H])c4c(c3[H])C([H])([H])N(C(=O)C([H])(N([H])C(=O)C([H])(N([H])C([H])([H])[H])C([H])([H])[H])C(C([H])([H])[H])(C([H])([H])[H])C([H])([H])[H])C([H])(C(=O)N([H])C3([H])c5c([H])c([H])c([H])c([H])c5C([H])([H])C([H])([H])C3([H])[H])C4([H])[H])C([H])([H])C2([H])[H])C(=O)C([H])([H])C1=NC(=O)N1C([H])([H])C([H])([H])C([H])([H])C([H])(n2nc(-c3c([H])c([H])c(Oc4c([H])c([H])c(F)c([H])c4F)c([H])c3[H])c(C(=O)N([H])[H])c2N([H])[H])C1([H])[H]

>  <smiles>  (54) 
[H]C1=C(C2=C([H])C([H])(Oc3c([H])c([H])c4c(c3[H])C([H])([H])N(C(=O)C([H])(N([H])C(=O)C([H])(N([H])C([H])([H])[H])C([H])([H])[H])C(C([H])([H])[H])(C([H])([H])[H])C([H])([H])[H])C([H])(C(=O)N([H])C3([H])c5c([H])c([H])c([H])c([H])c5C([H])([H])C([H])([H])C3([H])[H])C4([H])[H])C([H])([H])C2([H])[H])C(=O)C([H])([H])C1=NC(=O)N1C([H])([H])C([H])([H])C([H])([H])C([H])(n2nc(-c3c([H])c([H])c(Oc4c([H])c([H])c(F)c([H])c4F)c([H])c3[H])c(C(=O)N([H])[H])c2N([H])[H])C1([H])[H]

$$$$
55:0:0
     RDKit          3D

 86 94  0  0  1  0  0  0  0  0999 V2000
  -28.7630  -22.3750   20.1360 C   0  0  0  0  0  0  0  0  0  0  0  0
  -28.4360  -20.6870   20.4600 C   0  0  0  0  0  0  0  0  0  0  0  0
  -28.0880  -23.7990   20.3480 C   0  0  0  0  0  2  0  0  0  0  0  0
  -30.1150  -21.8990   19.4710 C   0  0  0  0  0  3  0  0  0  0  0  0
  -30.3230  -20.2570   19.1740 C   0  0  0  0  0  2  0  0  0  0  0  0
  -29.6120  -19.2560   20.1940 C   0  0  0  0  0  3  0  0  0  0  0  0
  -27.3240  -20.3990   20.9090 O   0  0  0  0  0  0  0  0  0  0  0  0
  -30.3160  -16.0010   19.9360 C   0  0  0  0  0  0  0  0  0  0  0  0
  -30.4500  -13.4300   19.0640 C   0  0  0  0  0  2  0  0  0  0  0  0
  -29.5180  -12.9280   17.9190 C   0  0  0  0  0  2  0  0  0  0  0  0
  -28.1450  -12.5070   18.4600 C   0  0  0  0  0  2  0  0  0  0  0  0
  -27.6540  -13.4980   19.5360 C   0  0  0  0  0  3  0  0  0  0  0  0
  -28.7320  -13.8910   20.5780 C   0  0  0  0  0  2  0  0  0  0  0  0
  -29.8150  -14.6030   19.8450 N   0  0  0  0  0  0  0  0  0  0  0  0
  -31.5510  -15.9110   19.7620 O   0  0  0  0  0  0  0  0  0  0  0  0
  -29.5530  -17.4110   20.0210 N   0  0  0  0  0  0  0  0  0  0  0  0
  -28.5720  -17.1680   20.0390 H   0  0  0  0  0  0  0  0  0  0  0  0
  -25.3480  -13.9650   20.4740 C   0  0  0  0  0  0  0  0  0  0  0  0
  -24.3200  -13.1610   20.8760 C   0  0  0  0  0  0  0  0  0  0  0  0
  -24.8000  -11.8190   20.7660 C   0  0  0  0  0  0  0  0  0  0  0  0
  -26.3820  -13.1170   20.1340 N   0  0  0  0  0  0  0  0  0  0  0  0
  -26.0720  -11.8150   20.3730 N   0  0  0  0  0  0  0  0  0  0  0  0
  -24.0940  -10.5430   20.9520 C   0  0  0  0  0  0  0  0  0  0  0  0
  -24.5350   -9.5810   21.8880 C   0  0  0  0  0  3  0  0  0  0  0  0
  -23.8230   -8.3750   22.0650 C   0  0  0  0  0  3  0  0  0  0  0  0
  -22.6550   -8.1210   21.3070 C   0  0  0  0  0  0  0  0  0  0  0  0
  -22.2320   -9.0720   20.3610 C   0  0  0  0  0  3  0  0  0  0  0  0
  -22.9450  -10.2690   20.1830 C   0  0  0  0  0  3  0  0  0  0  0  0
  -21.9140   -6.9670   21.3940 O   0  0  0  0  0  0  0  0  0  0  0  0
  -21.7980   -6.2720   22.5720 C   0  0  0  0  0  0  0  0  0  0  0  0
  -21.2160   -6.8480   23.7220 C   0  0  0  0  0  3  0  0  0  0  0  0
  -21.0530   -6.0770   24.8900 C   0  0  0  0  0  3  0  0  0  0  0  0
  -21.4620   -4.7310   24.9080 C   0  0  0  0  0  0  0  0  0  0  0  0
  -22.0380   -4.1540   23.7620 C   0  0  0  0  0  3  0  0  0  0  0  0
  -22.2010   -4.9220   22.5970 C   0  0  0  0  0  0  0  0  0  0  0  0
  -22.7370   -4.3550   21.4890 F   0  0  0  0  0  0  0  0  0  0  0  0
  -21.3000   -3.9870   26.0270 F   0  0  0  0  0  0  0  0  0  0  0  0
  -22.9370  -13.6140   21.2400 C   0  0  0  0  0  0  0  0  0  0  0  0
  -22.2700  -12.8900   22.1310 N   0  0  0  0  0  0  0  0  0  0  0  0
  -22.4610  -14.6460   20.7700 O   0  0  0  0  0  0  0  0  0  0  0  0
  -22.6720  -12.0550   22.5320 H   0  0  0  0  0  0  0  0  0  0  0  0
  -21.3440  -13.1750   22.4180 H   0  0  0  0  0  0  0  0  0  0  0  0
  -25.4810  -15.3440   20.3360 N   0  0  0  0  0  0  0  0  0  0  0  0
  -24.7110  -15.9810   20.5140 H   0  0  0  0  0  0  0  0  0  0  0  0
  -26.2930  -15.8030   19.9470 H   0  0  0  0  0  0  0  0  0  0  0  0
  -28.2490  -25.4500   20.2080 O   0  0  0  0  0  0  0  0  0  0  0  0
  -24.7400  -31.8900   23.2290 C   0  0  0  0  0  0  0  0  0  0  0  0
  -27.2800  -26.7170   20.2380 C   0  0  0  0  0  0  0  0  0  0  0  0
  -23.5660  -30.4960   21.5820 C   0  0  0  0  0  3  0  0  0  0  0  0
  -25.0220  -28.8320   20.1780 C   0  0  0  0  0  0  0  0  0  0  0  0
  -26.1510  -30.6040   21.4870 C   0  0  0  0  0  2  0  0  0  0  0  0
  -26.2170  -29.1600   20.8290 C   0  0  0  0  0  0  0  0  0  0  0  0
  -27.3250  -28.1350   20.8230 C   0  0  0  0  0  3  0  0  0  0  0  0
  -26.0490  -26.6370   19.5300 C   0  0  0  0  0  3  0  0  0  0  0  0
  -24.9840  -27.5970   19.5050 C   0  0  0  0  0  3  0  0  0  0  0  0
  -23.8200  -29.7970   20.2140 C   0  0  0  0  0  2  0  0  0  0  0  0
  -24.8440  -31.0340   22.1510 N   0  0  0  0  0  0  0  0  0  0  0  0
  -23.6420  -32.1920   23.7290 O   0  0  0  0  0  0  0  0  0  0  0  0
  -22.8350  -29.5230   22.5480 C   0  0  0  0  0  0  0  0  0  0  0  0
  -21.5030  -29.3680   22.4120 N   0  0  0  0  0  0  0  0  0  0  0  0
  -23.4820  -28.9030   23.3960 O   0  0  0  0  0  0  0  0  0  0  0  0
  -21.0290  -29.9170   21.7100 H   0  0  0  0  0  0  0  0  0  0  0  0
  -18.1110  -28.1600   22.9270 C   0  0  0  0  0  0  0  0  0  0  0  0
  -20.6740  -28.4270   23.1780 C   0  0  0  0  0  3  0  0  0  0  0  0
  -20.7700  -26.9980   22.5910 C   0  0  0  0  0  2  0  0  0  0  0  0
  -19.6630  -26.6890   21.5760 C   0  0  0  0  0  2  0  0  0  0  0  0
  -18.2850  -26.8220   22.2280 C   0  0  0  0  0  2  0  0  0  0  0  0
  -19.2320  -28.9210   23.3580 C   0  0  0  0  0  0  0  0  0  0  0  0
  -19.0100  -30.1690   23.9790 C   0  0  0  0  0  3  0  0  0  0  0  0
  -17.7040  -30.6600   24.1680 C   0  0  0  0  0  3  0  0  0  0  0  0
  -16.6000  -29.8980   23.7470 C   0  0  0  0  0  3  0  0  0  0  0  0
  -16.8040  -28.6490   23.1340 C   0  0  0  0  0  3  0  0  0  0  0  0
  -25.9930  -32.5460   23.8820 C   0  0  0  0  0  3  0  0  0  0  0  0
  -25.6610  -33.9440   24.2280 N   0  0  0  0  0  0  0  0  0  0  0  0
  -25.9640  -35.0190   23.4880 C   0  0  0  0  0  0  0  0  0  0  0  0
  -26.6070  -34.9410   22.4390 O   0  0  0  0  0  0  0  0  0  0  0  0
  -25.0820  -34.0770   25.0440 H   0  0  0  0  0  0  0  0  0  0  0  0
  -24.2050  -36.8090   23.2350 C   0  0  0  0  0  1  0  0  0  0  0  0
  -25.4820  -36.4010   23.9860 C   0  0  0  0  0  3  0  0  0  0  0  0
  -27.6300  -37.3170   24.7530 C   0  0  0  0  0  1  0  0  0  0  0  0
  -26.4980  -37.4680   23.8440 N   0  0  0  0  0  0  0  0  0  0  0  0
  -26.0830  -38.3830   24.0020 H   0  0  0  0  0  0  0  0  0  0  0  0
  -26.4840  -31.7840   25.1760 C   0  0  1  0  0  0  0  0  0  0  0  0
  -25.3690  -31.5440   26.2210 C   0  0  0  0  0  1  0  0  0  0  0  0
  -27.0850  -30.4070   24.8180 C   0  0  0  0  0  1  0  0  0  0  0  0
  -27.6150  -32.5880   25.8620 C   0  0  0  0  0  1  0  0  0  0  0  0
  1  3  1  0
  1  2  1  0
  2  7  2  0
  4  1  2  0
  5  4  1  0
  5  6  1  0
  6 16  1  0
  6  2  1  0
  8 16  1  0
  9 14  1  0
 10 11  1  0
 10  9  1  0
 12 11  1  0
 12 21  1  0
 12 13  1  0
 14  8  1  0
 14 13  1  0
 15  8  2  0
 16 17  1  0
 18 19  2  0
 19 38  1  0
 20 19  1  0
 20 23  1  0
 21 22  1  0
 21 18  1  0
 22 20  2  0
 23 24  1  0
 24 25  2  0
 26 29  1  0
 26 25  1  0
 27 26  2  0
 28 27  1  0
 28 23  2  0
 29 30  1  0
 30 35  2  0
 30 31  1  0
 31 32  2  0
 32 33  1  0
 33 37  1  0
 34 33  2  0
 35 34  1  0
 36 35  1  0
 38 39  1  0
 39 42  1  0
 39 41  1  0
 40 38  2  0
 43 18  1  0
 43 44  1  0
 45 43  1  0
 46 48  1  0
 46  3  1  0
 47 58  2  0
 48 53  1  0
 49 57  1  0
 49 59  1  0
 50 56  1  0
 50 52  1  0
 51 57  1  0
 52 51  1  0
 53 52  2  0
 54 48  2  0
 55 54  1  0
 55 50  2  0
 56 49  1  0
 57 47  1  0
 59 61  2  0
 60 59  1  0
 62 60  1  0
 63 72  2  0
 63 68  1  0
 64 60  1  0
 64 68  1  0
 65 64  1  0
 66 67  1  0
 66 65  1  0
 67 63  1  0
 68 69  2  0
 69 70  1  0
 71 70  2  0
 72 71  1  0
 73 47  1  0
 73 74  1  0
 73 83  1  0
 74 77  1  0
 75 79  1  0
 75 74  1  0
 76 75  2  0
 79 78  1  0
 81 79  1  0
 81 82  1  0
 81 80  1  0
 83 86  1  1
 83 84  1  0
 85 83  1  0
M  ISO  4   3 101   8 100  16 100  46 101
M  END
>  <TORSDO>  (55) 
F 16

>  <SCORE>  (55) 
-15.681

>  <name>  (55) 
55

>  <ligand_id>  (55) 
55

>  <original_smiles>  (55) 
[H]C(Oc1c([H])c([H])c2c(c1[H])C([H])([H])N(C(=O)C([H])(N([H])C(=O)C([H])(N([H])C([H])([H])[H])C([H])([H])[H])C(C([H])([H])[H])(C([H])([H])[H])C([H])([H])[H])C([H])(C(=O)N([H])C1([H])c3c([H])c([H])c([H])c([H])c3C([H])([H])C([H])([H])C1([H])[H])C2([H])[H])=C1C(=O)C([H])(N([H])C(=O)N2C([H])([H])C([H])([H])C([H])([H])C([H])(n3nc(-c4c([H])c([H])c(Oc5c([H])c([H])c(F)c([H])c5F)c([H])c4[H])c(C(=O)N([H])[H])c3N([H])[H])C2([H])[H])C([H])([H])C1([H])[H]

>  <smiles>  (55) 
[H]C(Oc1c([H])c([H])c2c(c1[H])C([H])([H])N(C(=O)C([H])(N([H])C(=O)C([H])(N([H])C([H])([H])[H])C([H])([H])[H])C(C([H])([H])[H])(C([H])([H])[H])C([H])([H])[H])C([H])(C(=O)N([H])C1([H])c3c([H])c([H])c([H])c([H])c3C([H])([H])C([H])([H])C1([H])[H])C2([H])[H])=C1C(=O)C([H])(N([H])C(=O)N2C([H])([H])C([H])([H])C([H])([H])C([H])(n3nc(-c4c([H])c([H])c(Oc5c([H])c([H])c(F)c([H])c5F)c([H])c4[H])c(C(=O)N([H])[H])c3N([H])[H])C2([H])[H])C([H])([H])C1([H])[H]

$$$$
56:0:0
     RDKit          3D

 85 94  0  0  1  0  0  0  0  0999 V2000
  -30.2000  -15.6600   20.3220 C   0  0  0  0  0  0  0  0  0  0  0  0
  -30.4210  -13.0970   19.5850 C   0  0  0  0  0  2  0  0  0  0  0  0
  -29.6070  -12.6920   18.3270 C   0  0  0  0  0  2  0  0  0  0  0  0
  -28.1640  -12.3220   18.7200 C   0  0  0  0  0  2  0  0  0  0  0  0
  -27.5940  -13.3160   19.7590 C   0  0  0  0  0  3  0  0  0  0  0  0
  -28.5610  -13.6380   20.9110 C   0  0  0  0  0  2  0  0  0  0  0  0
  -29.7310  -14.2760   20.2840 N   0  0  0  0  0  0  0  0  0  0  0  0
  -31.4430  -15.6100   20.1870 O   0  0  0  0  0  0  0  0  0  0  0  0
  -27.5920  -18.9800   20.6820 C   0  0  0  0  0  2  0  0  0  0  0  0
  -28.5180  -20.9840   19.0690 C   0  0  0  0  0  2  0  0  0  0  0  0
  -27.9560  -17.4250   20.2810 C   0  0  0  0  0  2  0  0  0  0  0  0
  -29.8220  -18.6760   20.2930 C   0  0  0  0  0  2  0  0  0  0  0  0
  -28.6670  -21.9650   20.2790 C   0  0  0  0  0  3  0  0  0  0  0  0
  -28.6700  -20.0400   20.2520 C   0  0  2  0  0  0  0  0  0  0  0  0
  -29.4380  -17.0410   20.3370 N   0  0  0  0  0  0  0  0  0  0  0  0
  -25.2130  -13.8300   20.4480 C   0  0  0  0  0  0  0  0  0  0  0  0
  -24.1510  -13.0420   20.8120 C   0  0  0  0  0  0  0  0  0  0  0  0
  -24.6430  -11.7070   20.8180 C   0  0  0  0  0  0  0  0  0  0  0  0
  -26.2670  -12.9680   20.2390 N   0  0  0  0  0  0  0  0  0  0  0  0
  -25.9430  -11.6820   20.5340 N   0  0  0  0  0  0  0  0  0  0  0  0
  -23.9270  -10.4370   21.0120 C   0  0  0  0  0  0  0  0  0  0  0  0
  -24.3500   -9.4890   21.9700 C   0  0  0  0  0  3  0  0  0  0  0  0
  -23.6300   -8.2890   22.1510 C   0  0  0  0  0  3  0  0  0  0  0  0
  -22.4720   -8.0310   21.3750 C   0  0  0  0  0  0  0  0  0  0  0  0
  -22.0700   -8.9690   20.4090 C   0  0  0  0  0  3  0  0  0  0  0  0
  -22.7950  -10.1610   20.2270 C   0  0  0  0  0  3  0  0  0  0  0  0
  -21.7220   -6.8830   21.4680 O   0  0  0  0  0  0  0  0  0  0  0  0
  -21.6560   -6.1570   22.6320 C   0  0  0  0  0  0  0  0  0  0  0  0
  -21.2170   -6.7270   23.8440 C   0  0  0  0  0  3  0  0  0  0  0  0
  -21.1000   -5.9260   24.9970 C   0  0  0  0  0  3  0  0  0  0  0  0
  -21.4140   -4.5540   24.9370 C   0  0  0  0  0  0  0  0  0  0  0  0
  -21.8460   -3.9830   23.7250 C   0  0  0  0  0  3  0  0  0  0  0  0
  -21.9650   -4.7810   22.5760 C   0  0  0  0  0  0  0  0  0  0  0  0
  -22.3620   -4.2220   21.4080 F   0  0  0  0  0  0  0  0  0  0  0  0
  -21.2940   -3.7850   26.0400 F   0  0  0  0  0  0  0  0  0  0  0  0
  -22.7440  -13.5180   21.0260 C   0  0  0  0  0  0  0  0  0  0  0  0
  -21.9920  -12.8480   21.8920 N   0  0  0  0  0  0  0  0  0  0  0  0
  -22.3180  -14.5200   20.4600 O   0  0  0  0  0  0  0  0  0  0  0  0
  -22.3410  -12.0450   22.3890 H   0  0  0  0  0  0  0  0  0  0  0  0
  -21.0460  -13.1610   22.0640 H   0  0  0  0  0  0  0  0  0  0  0  0
  -25.3460  -15.1960   20.2500 N   0  0  0  0  0  0  0  0  0  0  0  0
  -24.5630  -15.8330   20.3510 H   0  0  0  0  0  0  0  0  0  0  0  0
  -26.1850  -15.6510   19.9050 H   0  0  0  0  0  0  0  0  0  0  0  0
  -27.7970  -23.6940   20.1680 C   0  0  0  0  0  2  0  0  0  0  0  0
  -28.0610  -25.4470   20.1060 O   0  0  0  0  0  0  0  0  0  0  0  0
  -24.6740  -31.7910   23.0610 C   0  0  0  0  0  0  0  0  0  0  0  0
  -27.1200  -26.6860   20.0540 C   0  0  0  0  0  0  0  0  0  0  0  0
  -23.4670  -30.4050   21.4350 C   0  0  0  0  0  3  0  0  0  0  0  0
  -24.8870  -28.7600   19.9950 C   0  0  0  0  0  0  0  0  0  0  0  0
  -26.0440  -30.5300   21.2870 C   0  0  0  0  0  2  0  0  0  0  0  0
  -26.0930  -29.0980   20.6250 C   0  0  0  0  0  0  0  0  0  0  0  0
  -27.1960  -28.0950   20.6120 C   0  0  0  0  0  3  0  0  0  0  0  0
  -25.8930  -26.5690   19.3510 C   0  0  0  0  0  3  0  0  0  0  0  0
  -24.8300  -27.5230   19.3310 C   0  0  0  0  0  3  0  0  0  0  0  0
  -23.6890  -29.7220   20.0560 C   0  0  0  0  0  2  0  0  0  0  0  0
  -24.7550  -30.9440   21.9800 N   0  0  0  0  0  0  0  0  0  0  0  0
  -23.5870  -32.0940   23.5790 O   0  0  0  0  0  0  0  0  0  0  0  0
  -22.7620  -29.4220   22.4060 C   0  0  0  0  0  0  0  0  0  0  0  0
  -21.4250  -29.2850   22.3080 N   0  0  0  0  0  0  0  0  0  0  0  0
  -23.4250  -28.7780   23.2210 O   0  0  0  0  0  0  0  0  0  0  0  0
  -20.9370  -29.8550   21.6310 H   0  0  0  0  0  0  0  0  0  0  0  0
  -18.0280  -28.1320   22.8890 C   0  0  0  0  0  0  0  0  0  0  0  0
  -20.5980  -28.3510   23.0880 C   0  0  0  0  0  3  0  0  0  0  0  0
  -20.6610  -26.9260   22.4890 C   0  0  0  0  0  2  0  0  0  0  0  0
  -19.5300  -26.6390   21.4980 C   0  0  0  0  0  2  0  0  0  0  0  0
  -18.1680  -26.7940   22.1820 C   0  0  0  0  0  2  0  0  0  0  0  0
  -19.1690  -28.8700   23.2980 C   0  0  0  0  0  0  0  0  0  0  0  0
  -18.9880  -30.1210   23.9240 C   0  0  0  0  0  3  0  0  0  0  0  0
  -17.6960  -30.6330   24.1480 C   0  0  0  0  0  3  0  0  0  0  0  0
  -16.5680  -29.8950   23.7500 C   0  0  0  0  0  3  0  0  0  0  0  0
  -16.7340  -28.6460   23.1260 C   0  0  0  0  0  3  0  0  0  0  0  0
  -25.9440  -32.4330   23.7020 C   0  0  0  0  0  3  0  0  0  0  0  0
  -25.6170  -33.8210   24.0870 N   0  0  0  0  0  0  0  0  0  0  0  0
  -25.9200  -34.9160   23.3750 C   0  0  0  0  0  0  0  0  0  0  0  0
  -26.5690  -34.8620   22.3280 O   0  0  0  0  0  0  0  0  0  0  0  0
  -25.0370  -33.9310   24.9060 H   0  0  0  0  0  0  0  0  0  0  0  0
  -24.1700  -36.7180   23.1420 C   0  0  0  0  0  1  0  0  0  0  0  0
  -25.4350  -36.2840   23.9030 C   0  0  0  0  0  3  0  0  0  0  0  0
  -27.5850  -37.1630   24.7120 C   0  0  0  0  0  1  0  0  0  0  0  0
  -26.4580  -37.3470   23.8000 N   0  0  0  0  0  0  0  0  0  0  0  0
  -26.0530  -38.2650   23.9670 H   0  0  0  0  0  0  0  0  0  0  0  0
  -26.4670  -31.6420   24.9650 C   0  0  1  0  0  0  0  0  0  0  0  0
  -25.3750  -31.3930   26.0330 C   0  0  0  0  0  1  0  0  0  0  0  0
  -27.0520  -30.2710   24.5570 C   0  0  0  0  0  1  0  0  0  0  0  0
  -27.6210  -32.4220   25.6380 C   0  0  0  0  0  1  0  0  0  0  0  0
  1 15  1  0
  2  7  1  0
  3  4  1  0
  3  2  1  0
  5  4  1  0
  5 19  1  0
  5  6  1  0
  7  1  1  0
  7  6  1  0
  8  1  2  0
 10 13  1  0
 11 15  1  0
 11  9  1  0
 12 15  1  0
 13 44  1  0
 14 10  1  6
 14 13  1  0
 14 12  1  0
 14  9  1  0
 16 17  2  0
 17 18  1  0
 17 36  1  0
 18 21  1  0
 19 16  1  0
 19 20  1  0
 20 18  2  0
 21 22  1  0
 22 23  2  0
 24 27  1  0
 24 23  1  0
 25 24  2  0
 26 25  1  0
 26 21  2  0
 27 28  1  0
 28 29  1  0
 29 30  2  0
 31 30  1  0
 31 35  1  0
 32 31  2  0
 33 28  2  0
 33 32  1  0
 34 33  1  0
 36 37  1  0
 37 40  1  0
 37 39  1  0
 38 36  2  0
 41 42  1  0
 41 16  1  0
 43 41  1  0
 45 44  1  0
 46 57  2  0
 47 45  1  0
 47 52  1  0
 48 56  1  0
 48 58  1  0
 49 55  1  0
 49 51  1  0
 50 56  1  0
 51 50  1  0
 52 51  2  0
 53 47  2  0
 54 53  1  0
 54 49  2  0
 55 48  1  0
 56 46  1  0
 58 60  2  0
 59 58  1  0
 61 59  1  0
 62 71  2  0
 62 67  1  0
 63 59  1  0
 63 67  1  0
 64 63  1  0
 65 66  1  0
 65 64  1  0
 66 62  1  0
 67 68  2  0
 68 69  1  0
 70 69  2  0
 71 70  1  0
 72 46  1  0
 72 73  1  0
 72 82  1  0
 73 76  1  0
 74 78  1  0
 74 73  1  0
 75 74  2  0
 78 77  1  0
 80 78  1  0
 80 81  1  0
 80 79  1  0
 82 85  1  1
 82 83  1  0
 84 82  1  0
M  ISO  4   1 100  15 100  44 101  45 101
M  END
>  <TORSDO>  (56) 
F 16

>  <SCORE>  (56) 
-15.883

>  <name>  (56) 
56

>  <ligand_id>  (56) 
56

>  <original_smiles>  (56) 
[H]c1c([H])c([H])c2c(c1[H])C([H])([H])C([H])([H])C([H])([H])C2([H])N([H])C(=O)C1([H])N(C(=O)C([H])(N([H])C(=O)C([H])(N([H])C([H])([H])[H])C([H])([H])[H])C(C([H])([H])[H])(C([H])([H])[H])C([H])([H])[H])C([H])([H])c2c([H])c(OC([H])([H])C3([H])C([H])([H])C34C([H])([H])N(C(=O)N3C([H])([H])C([H])([H])C([H])([H])C([H])(n5nc(-c6c([H])c([H])c(Oc7c([H])c([H])c(F)c([H])c7F)c([H])c6[H])c(C(=O)N([H])[H])c5N([H])[H])C3([H])[H])C([H])([H])C4([H])[H])c([H])c([H])c2C1([H])[H]

>  <smiles>  (56) 
[H]c1c([H])c([H])c2c(c1[H])C([H])([H])C([H])([H])C([H])([H])C2([H])N([H])C(=O)C1([H])N(C(=O)C([H])(N([H])C(=O)C([H])(N([H])C([H])([H])[H])C([H])([H])[H])C(C([H])([H])[H])(C([H])([H])[H])C([H])([H])[H])C([H])([H])c2c([H])c(OC([H])([H])C3([H])C([H])([H])C34C([H])([H])N(C(=O)N3C([H])([H])C([H])([H])C([H])([H])C([H])(n5nc(-c6c([H])c([H])c(Oc7c([H])c([H])c(F)c([H])c7F)c([H])c6[H])c(C(=O)N([H])[H])c5N([H])[H])C3([H])[H])C([H])([H])C4([H])[H])c([H])c([H])c2C1([H])[H]

$$$$
57:0:0
     RDKit          3D

 91 99  0  0  1  0  0  0  0  0999 V2000
  -30.1560  -21.5010   19.9870 N   0  0  0  0  0  0  0  0  0  0  0  0
  -31.0440  -21.8630   19.6490 H   0  0  0  0  0  0  0  0  0  0  0  0
  -31.2560  -19.2910   20.0020 C   0  0  0  0  0  3  0  0  0  0  0  0
  -31.2530  -17.8700   20.1270 C   0  0  0  0  0  3  0  0  0  0  0  0
  -28.8840  -19.3520   20.3510 C   0  0  0  0  0  3  0  0  0  0  0  0
  -28.8720  -17.9300   20.5050 C   0  0  0  0  0  0  0  0  0  0  0  0
  -30.0760  -20.0740   20.1010 C   0  0  0  0  0  0  0  0  0  0  0  0
  -30.0590  -17.1430   20.3800 C   0  0  0  0  0  0  0  0  0  0  0  0
  -27.5400  -17.2690   20.8130 C   0  0  0  0  0  1  0  0  0  0  0  0
  -30.7230  -14.6580   19.9560 C   0  0  0  0  0  0  0  0  0  0  0  0
  -30.4290  -12.4590   18.8320 C   0  0  0  0  0  2  0  0  0  0  0  0
  -29.3960  -12.6280   17.6950 C   0  0  0  0  0  2  0  0  0  0  0  0
  -27.9600  -12.4510   18.2250 C   0  0  0  0  0  2  0  0  0  0  0  0
  -27.6940  -13.2700   19.5160 C   0  0  0  0  0  3  0  0  0  0  0  0
  -28.8320  -13.0760   20.5440 C   0  0  0  0  0  2  0  0  0  0  0  0
  -30.0980  -13.4390   19.8870 N   0  0  0  0  0  0  0  0  0  0  0  0
  -31.8400  -14.8300   19.4600 O   0  0  0  0  0  0  0  0  0  0  0  0
  -29.9770  -15.6820   20.4770 N   0  0  0  0  0  0  0  0  0  0  0  0
  -29.1330  -15.3490   20.9160 H   0  0  0  0  0  0  0  0  0  0  0  0
  -25.3470  -13.8340   20.3980 C   0  0  0  0  0  0  0  0  0  0  0  0
  -24.3170  -13.0470   20.8360 C   0  0  0  0  0  0  0  0  0  0  0  0
  -24.7880  -11.7020   20.7560 C   0  0  0  0  0  0  0  0  0  0  0  0
  -26.3830  -12.9690   20.0870 N   0  0  0  0  0  0  0  0  0  0  0  0
  -26.0560  -11.6800   20.3590 N   0  0  0  0  0  0  0  0  0  0  0  0
  -24.0880  -10.4310   20.9770 C   0  0  0  0  0  0  0  0  0  0  0  0
  -24.5180   -9.5110   21.9580 C   0  0  0  0  0  3  0  0  0  0  0  0
  -23.8150   -8.3040   22.1650 C   0  0  0  0  0  3  0  0  0  0  0  0
  -22.6690   -8.0090   21.3900 C   0  0  0  0  0  0  0  0  0  0  0  0
  -22.2590   -8.9170   20.3980 C   0  0  0  0  0  3  0  0  0  0  0  0
  -22.9620  -10.1150   20.1890 C   0  0  0  0  0  3  0  0  0  0  0  0
  -21.9390   -6.8500   21.5030 O   0  0  0  0  0  0  0  0  0  0  0  0
  -21.7780   -6.2170   22.7100 C   0  0  0  0  0  0  0  0  0  0  0  0
  -21.1840   -6.8630   23.8150 C   0  0  0  0  0  3  0  0  0  0  0  0
  -20.9730   -6.1540   25.0160 C   0  0  0  0  0  3  0  0  0  0  0  0
  -21.3450   -4.7990   25.1080 C   0  0  0  0  0  0  0  0  0  0  0  0
  -21.9330   -4.1540   24.0060 C   0  0  0  0  0  3  0  0  0  0  0  0
  -22.1450   -4.8600   22.8090 C   0  0  0  0  0  0  0  0  0  0  0  0
  -22.6910   -4.2270   21.7430 F   0  0  0  0  0  0  0  0  0  0  0  0
  -21.1370   -4.1150   26.2570 F   0  0  0  0  0  0  0  0  0  0  0  0
  -22.9380  -13.5090   21.2110 C   0  0  0  0  0  0  0  0  0  0  0  0
  -22.2900  -12.8120   22.1390 N   0  0  0  0  0  0  0  0  0  0  0  0
  -22.4460  -14.5220   20.7170 O   0  0  0  0  0  0  0  0  0  0  0  0
  -22.7020  -11.9940   22.5600 H   0  0  0  0  0  0  0  0  0  0  0  0
  -21.3680  -13.1040   22.4330 H   0  0  0  0  0  0  0  0  0  0  0  0
  -25.4770  -15.2060   20.2120 N   0  0  0  0  0  0  0  0  0  0  0  0
  -24.6960  -15.8380   20.3500 H   0  0  0  0  0  0  0  0  0  0  0  0
  -26.2650  -15.6440   19.7540 H   0  0  0  0  0  0  0  0  0  0  0  0
  -29.0080  -22.4500   19.8800 C   0  0  0  0  0  2  0  0  0  0  0  0
  -29.3790  -24.0030   19.8930 C   0  0  0  0  0  3  0  0  0  0  0  0
  -28.2000  -25.0230   19.5980 C   0  0  0  0  0  3  0  0  0  0  0  0
  -28.3960  -26.4780   19.7800 O   0  0  0  0  0  0  0  0  0  0  0  0
  -24.5590  -31.6350   23.0590 C   0  0  0  0  0  0  0  0  0  0  0  0
  -27.2490  -27.2890   19.7800 C   0  0  0  0  0  0  0  0  0  0  0  0
  -23.3700  -30.2800   21.3720 C   0  0  0  0  0  3  0  0  0  0  0  0
  -24.8410  -28.8330   19.8660 C   0  0  0  0  0  0  0  0  0  0  0  0
  -25.8980  -30.6720   21.1750 C   0  0  0  0  0  2  0  0  0  0  0  0
  -26.0040  -29.3270   20.4690 C   0  0  0  0  0  0  0  0  0  0  0  0
  -27.2110  -28.5690   20.4160 C   0  0  0  0  0  3  0  0  0  0  0  0
  -26.0550  -26.8470   19.1600 C   0  0  0  0  0  3  0  0  0  0  0  0
  -24.8670  -27.5980   19.2040 C   0  0  0  0  0  3  0  0  0  0  0  0
  -23.5840  -29.6720   19.9620 C   0  0  0  0  0  2  0  0  0  0  0  0
  -24.6280  -30.8770   21.9260 N   0  0  0  0  0  0  0  0  0  0  0  0
  -23.4750  -31.8640   23.6150 O   0  0  0  0  0  0  0  0  0  0  0  0
  -22.7430  -29.2060   22.2920 C   0  0  0  0  0  0  0  0  0  0  0  0
  -21.4200  -29.0040   22.1700 N   0  0  0  0  0  0  0  0  0  0  0  0
  -23.4440  -28.5610   23.0760 O   0  0  0  0  0  0  0  0  0  0  0  0
  -20.9120  -29.5790   21.5120 H   0  0  0  0  0  0  0  0  0  0  0  0
  -18.0660  -27.7520   22.6920 C   0  0  0  0  0  0  0  0  0  0  0  0
  -20.6290  -28.0170   22.9060 C   0  0  0  0  0  3  0  0  0  0  0  0
  -20.7250  -26.6210   22.2470 C   0  0  0  0  0  2  0  0  0  0  0  0
  -19.5970  -26.3480   21.2460 C   0  0  0  0  0  2  0  0  0  0  0  0
  -18.2330  -26.4440   21.9350 C   0  0  0  0  0  2  0  0  0  0  0  0
  -19.1920  -28.4970   23.1340 C   0  0  0  0  0  0  0  0  0  0  0  0
  -18.9810  -29.7220   23.8040 C   0  0  0  0  0  3  0  0  0  0  0  0
  -17.6780  -30.2030   24.0340 C   0  0  0  0  0  3  0  0  0  0  0  0
  -16.5670  -29.4540   23.6070 C   0  0  0  0  0  3  0  0  0  0  0  0
  -16.7630  -28.2300   22.9420 C   0  0  0  0  0  3  0  0  0  0  0  0
  -25.8340  -32.2700   23.6950 C   0  0  0  0  0  3  0  0  0  0  0  0
  -26.3580  -31.4780   24.9560 C   0  0  1  0  0  0  0  0  0  0  0  0
  -25.2650  -31.2000   26.0150 C   0  0  0  0  0  1  0  0  0  0  0  0
  -26.9620  -30.1180   24.5340 C   0  0  0  0  0  1  0  0  0  0  0  0
  -27.4950  -32.2740   25.6380 C   0  0  0  0  0  1  0  0  0  0  0  0
  -25.5070  -33.6570   24.0540 N   0  0  0  0  0  0  0  0  0  0  0  0
  -25.7950  -34.7270   23.3020 C   0  0  0  0  0  0  0  0  0  0  0  0
  -26.4360  -34.6510   22.2490 O   0  0  0  0  0  0  0  0  0  0  0  0
  -24.9330  -33.7870   24.8750 H   0  0  0  0  0  0  0  0  0  0  0  0
  -24.0100  -36.4800   23.0400 C   0  0  0  0  0  1  0  0  0  0  0  0
  -25.2950  -36.0980   23.7940 C   0  0  0  0  0  3  0  0  0  0  0  0
  -27.4350  -37.0340   24.5500 C   0  0  0  0  0  1  0  0  0  0  0  0
  -26.2960  -37.1770   23.6470 N   0  0  0  0  0  0  0  0  0  0  0  0
  -25.8730  -38.0870   23.8130 H   0  0  0  0  0  0  0  0  0  0  0  0
  1  7  1  0
  2  1  1  0
  3  7  2  0
  3  4  1  0
  4  8  2  0
  5  6  2  0
  6  9  1  0
  7  5  1  0
  8 18  1  0
  8  6  1  0
 10 18  1  0
 11 16  1  0
 12 13  1  0
 12 11  1  0
 14 13  1  0
 14 23  1  0
 14 15  1  0
 16 10  1  0
 16 15  1  0
 17 10  2  0
 18 19  1  0
 20 21  2  0
 21 40  1  0
 22 21  1  0
 22 25  1  0
 23 24  1  0
 23 20  1  0
 24 22  2  0
 25 26  1  0
 26 27  2  0
 28 31  1  0
 28 27  1  0
 29 28  2  0
 30 29  1  0
 30 25  2  0
 31 32  1  0
 32 37  2  0
 32 33  1  0
 33 34  2  0
 34 35  1  0
 35 39  1  0
 36 35  2  0
 37 36  1  0
 38 37  1  0
 40 41  1  0
 41 44  1  0
 41 43  1  0
 42 40  2  0
 45 46  1  0
 45 20  1  0
 47 45  1  0
 48 49  1  0
 48  1  1  0
 50 51  1  0
 50 49  2  0
 51 53  1  0
 52 63  2  0
 53 58  1  0
 54 62  1  0
 54 64  1  0
 55 61  1  0
 55 57  1  0
 56 62  1  0
 57 56  1  0
 58 57  2  0
 59 60  1  0
 59 53  2  0
 60 55  2  0
 61 54  1  0
 62 52  1  0
 64 66  2  0
 65 64  1  0
 67 65  1  0
 68 77  2  0
 68 73  1  0
 69 65  1  0
 69 73  1  0
 70 69  1  0
 71 72  1  0
 71 70  1  0
 72 68  1  0
 73 74  2  0
 74 75  1  0
 76 75  2  0
 77 76  1  0
 78 52  1  0
 78 83  1  0
 78 79  1  0
 79 82  1  1
 79 80  1  0
 81 79  1  0
 83 86  1  0
 84 88  1  0
 84 83  1  0
 85 84  2  0
 88 87  1  0
 90 88  1  0
 90 91  1  0
 90 89  1  0
M  ISO  4  10 100  18 100  50 101  51 101
M  END
>  <TORSDO>  (57) 
F 20

>  <SCORE>  (57) 
-12.629

>  <name>  (57) 
57

>  <ligand_id>  (57) 
57

>  <original_smiles>  (57) 
[H]c1c([H])c([H])c2c(c1[H])C([H])([H])C([H])([H])C([H])([H])C2([H])N([H])C(=O)C1([H])N(C(=O)C([H])(N([H])C(=O)C([H])(N([H])C([H])([H])[H])C([H])([H])[H])C(C([H])([H])[H])(C([H])([H])[H])C([H])([H])[H])C([H])([H])c2c([H])c(OC([H])([H])C([H])([H])C([H])([H])N([H])c3c([H])c([H])c(N([H])C(=O)N4C([H])([H])C([H])([H])C([H])([H])C([H])(n5nc(-c6c([H])c([H])c(Oc7c([H])c([H])c(F)c([H])c7F)c([H])c6[H])c(C(=O)N([H])[H])c5N([H])[H])C4([H])[H])c(C([H])([H])[H])c3[H])c([H])c([H])c2C1([H])[H]

>  <smiles>  (57) 
[H]c1c([H])c([H])c2c(c1[H])C([H])([H])C([H])([H])C([H])([H])C2([H])N([H])C(=O)C1([H])N(C(=O)C([H])(N([H])C(=O)C([H])(N([H])C([H])([H])[H])C([H])([H])[H])C(C([H])([H])[H])(C([H])([H])[H])C([H])([H])[H])C([H])([H])c2c([H])c(OC([H])([H])C([H])([H])C([H])([H])N([H])c3c([H])c([H])c(N([H])C(=O)N4C([H])([H])C([H])([H])C([H])([H])C([H])(n5nc(-c6c([H])c([H])c(Oc7c([H])c([H])c(F)c([H])c7F)c([H])c6[H])c(C(=O)N([H])[H])c5N([H])[H])C4([H])[H])c(C([H])([H])[H])c3[H])c([H])c([H])c2C1([H])[H]

$$$$
58:0:0
     RDKit          3D

 89 98  0  0  1  0  0  0  0  0999 V2000
  -30.2060  -19.2520   21.3910 C   0  0  0  0  0  2  0  0  0  0  0  0
  -28.9070  -21.8350   21.5510 C   0  0  0  0  0  2  0  0  0  0  0  0
  -28.9530  -20.2250   21.3340 C   0  0  0  0  0  3  0  0  0  0  0  0
  -29.9220  -18.4780   20.0460 C   0  0  0  0  0  3  0  0  0  0  0  0
  -28.7910  -19.8280   19.8830 C   0  0  0  0  0  3  0  0  0  0  0  0
  -28.9450  -22.6490   20.1850 C   0  0  0  0  0  3  0  0  0  0  0  0
  -28.9520  -21.3220   19.2650 N   0  0  0  0  0  4  0  0  0  0  0  0
  -28.2180  -21.4310   18.5820 H   0  0  0  0  0  0  0  0  0  0  0  0
  -29.8020  -21.3390   18.7270 H   0  0  0  0  0  0  0  0  0  0  0  0
  -30.4350  -15.5040   20.0980 C   0  0  0  0  0  0  0  0  0  0  0  0
  -30.4170  -13.0380   19.2280 C   0  0  0  0  0  2  0  0  0  0  0  0
  -29.4840  -12.7980   18.0140 C   0  0  0  0  0  2  0  0  0  0  0  0
  -28.0460  -12.5110   18.4780 C   0  0  0  0  0  2  0  0  0  0  0  0
  -27.6030  -13.4760   19.6050 C   0  0  0  0  0  3  0  0  0  0  0  0
  -28.6660  -13.6530   20.7110 C   0  0  0  0  0  2  0  0  0  0  0  0
  -29.8740  -14.1850   20.0560 N   0  0  0  0  0  0  0  0  0  0  0  0
  -31.6500  -15.4860   19.8440 O   0  0  0  0  0  0  0  0  0  0  0  0
  -29.6820  -16.8010   20.2240 N   0  0  0  0  0  0  0  0  0  0  0  0
  -28.7100  -16.6000   20.4150 H   0  0  0  0  0  0  0  0  0  0  0  0
  -25.2460  -14.0220   20.3990 C   0  0  0  0  0  0  0  0  0  0  0  0
  -24.1920  -13.2420   20.7820 C   0  0  0  0  0  0  0  0  0  0  0  0
  -24.6620  -11.8930   20.7420 C   0  0  0  0  0  0  0  0  0  0  0  0
  -26.2860  -13.1500   20.1360 N   0  0  0  0  0  0  0  0  0  0  0  0
  -25.9500  -11.8630   20.4110 N   0  0  0  0  0  0  0  0  0  0  0  0
  -23.9400  -10.6280   20.9390 C   0  0  0  0  0  0  0  0  0  0  0  0
  -24.3630   -9.6750   21.8920 C   0  0  0  0  0  3  0  0  0  0  0  0
  -23.6370   -8.4790   22.0780 C   0  0  0  0  0  3  0  0  0  0  0  0
  -22.4740   -8.2270   21.3120 C   0  0  0  0  0  0  0  0  0  0  0  0
  -22.0700   -9.1690   20.3500 C   0  0  0  0  0  3  0  0  0  0  0  0
  -22.7960  -10.3560   20.1610 C   0  0  0  0  0  3  0  0  0  0  0  0
  -21.7210   -7.0810   21.4070 O   0  0  0  0  0  0  0  0  0  0  0  0
  -21.6340   -6.3720   22.5790 C   0  0  0  0  0  0  0  0  0  0  0  0
  -21.1240   -6.9480   23.7620 C   0  0  0  0  0  3  0  0  0  0  0  0
  -20.9870   -6.1630   24.9250 C   0  0  0  0  0  3  0  0  0  0  0  0
  -21.3500   -4.8030   24.9040 C   0  0  0  0  0  0  0  0  0  0  0  0
  -21.8510   -4.2260   23.7240 C   0  0  0  0  0  3  0  0  0  0  0  0
  -21.9890   -5.0080   22.5640 C   0  0  0  0  0  0  0  0  0  0  0  0
  -22.4540   -4.4420   21.4240 F   0  0  0  0  0  0  0  0  0  0  0  0
  -21.2110   -4.0470   26.0180 F   0  0  0  0  0  0  0  0  0  0  0  0
  -22.7980  -13.7160   21.0680 C   0  0  0  0  0  0  0  0  0  0  0  0
  -22.0840  -13.0250   21.9490 N   0  0  0  0  0  0  0  0  0  0  0  0
  -22.3510  -14.7360   20.5430 O   0  0  0  0  0  0  0  0  0  0  0  0
  -22.4600  -12.2020   22.3950 H   0  0  0  0  0  0  0  0  0  0  0  0
  -21.1490  -13.3260   22.1840 H   0  0  0  0  0  0  0  0  0  0  0  0
  -25.4000  -15.3930   20.2180 N   0  0  0  0  0  0  0  0  0  0  0  0
  -24.6270  -16.0400   20.3340 H   0  0  0  0  0  0  0  0  0  0  0  0
  -26.2260  -15.8310   19.8320 H   0  0  0  0  0  0  0  0  0  0  0  0
  -28.0750  -24.2540   19.8820 C   0  0  0  0  0  2  0  0  0  0  0  0
  -28.2680  -25.9000   20.1780 O   0  0  0  0  0  0  0  0  0  0  0  0
  -24.6700  -31.8710   23.2120 C   0  0  0  0  0  0  0  0  0  0  0  0
  -27.2620  -27.0230   20.1150 C   0  0  0  0  0  0  0  0  0  0  0  0
  -23.4950  -30.5040   21.5370 C   0  0  0  0  0  3  0  0  0  0  0  0
  -24.9610  -28.9290   20.0900 C   0  0  0  0  0  0  0  0  0  0  0  0
  -26.0640  -30.7160   21.4170 C   0  0  0  0  0  2  0  0  0  0  0  0
  -26.1440  -29.3160   20.7300 C   0  0  0  0  0  0  0  0  0  0  0  0
  -27.2870  -28.3860   20.7170 C   0  0  0  0  0  3  0  0  0  0  0  0
  -26.0490  -26.8050   19.4230 C   0  0  0  0  0  3  0  0  0  0  0  0
  -24.9420  -27.6970   19.4150 C   0  0  0  0  0  3  0  0  0  0  0  0
  -23.7390  -29.8490   20.1480 C   0  0  0  0  0  2  0  0  0  0  0  0
  -24.7650  -31.0580   22.1090 N   0  0  0  0  0  0  0  0  0  0  0  0
  -23.5750  -32.1480   23.7300 O   0  0  0  0  0  0  0  0  0  0  0  0
  -22.7940  -29.4900   22.4790 C   0  0  0  0  0  0  0  0  0  0  0  0
  -21.4650  -29.3260   22.3460 N   0  0  0  0  0  0  0  0  0  0  0  0
  -23.4560  -28.8490   23.2990 O   0  0  0  0  0  0  0  0  0  0  0  0
  -20.9830  -29.8960   21.6630 H   0  0  0  0  0  0  0  0  0  0  0  0
  -18.0800  -28.1100   22.8310 C   0  0  0  0  0  0  0  0  0  0  0  0
  -20.6400  -28.3690   23.0920 C   0  0  0  0  0  3  0  0  0  0  0  0
  -20.7390  -26.9530   22.4780 C   0  0  0  0  0  2  0  0  0  0  0  0
  -19.6330  -26.6590   21.4580 C   0  0  0  0  0  2  0  0  0  0  0  0
  -18.2550  -26.7830   22.1120 C   0  0  0  0  0  2  0  0  0  0  0  0
  -19.1990  -28.8620   23.2770 C   0  0  0  0  0  0  0  0  0  0  0  0
  -18.9790  -30.1030   23.9140 C   0  0  0  0  0  3  0  0  0  0  0  0
  -17.6730  -30.5920   24.1060 C   0  0  0  0  0  3  0  0  0  0  0  0
  -16.5690  -29.8380   23.6730 C   0  0  0  0  0  3  0  0  0  0  0  0
  -16.7730  -28.5990   23.0420 C   0  0  0  0  0  3  0  0  0  0  0  0
  -25.9310  -32.5100   23.8690 C   0  0  0  0  0  3  0  0  0  0  0  0
  -25.6140  -33.9100   24.1990 N   0  0  0  0  0  0  0  0  0  0  0  0
  -25.9340  -34.9710   23.4450 C   0  0  0  0  0  0  0  0  0  0  0  0
  -26.5890  -34.8720   22.4050 O   0  0  0  0  0  0  0  0  0  0  0  0
  -25.0280  -34.0600   25.0080 H   0  0  0  0  0  0  0  0  0  0  0  0
  -24.1840  -36.7590   23.1530 C   0  0  0  0  0  1  0  0  0  0  0  0
  -25.4560  -36.3600   23.9170 C   0  0  0  0  0  3  0  0  0  0  0  0
  -27.6070  -37.2720   24.6740 C   0  0  0  0  0  1  0  0  0  0  0  0
  -26.4770  -37.4200   23.7620 N   0  0  0  0  0  0  0  0  0  0  0  0
  -26.0670  -38.3390   23.9110 H   0  0  0  0  0  0  0  0  0  0  0  0
  -26.4080  -31.7430   25.1650 C   0  0  1  0  0  0  0  0  0  0  0  0
  -25.2850  -31.5190   26.2060 C   0  0  0  0  0  1  0  0  0  0  0  0
  -26.9930  -30.3590   24.8070 C   0  0  0  0  0  1  0  0  0  0  0  0
  -27.5460  -32.5340   25.8530 C   0  0  0  0  0  1  0  0  0  0  0  0
  3  1  1  0
  3  2  1  0
  4 18  1  0
  4  1  1  0
  5  7  1  0
  5  4  1  0
  5  3  1  0
  6 48  1  0
  6  2  1  0
  7  6  1  0
  8  7  1  0
  9  7  1  0
 10 18  1  0
 11 16  1  0
 12 13  1  0
 12 11  1  0
 14 13  1  0
 14 23  1  0
 14 15  1  0
 16 10  1  0
 16 15  1  0
 17 10  2  0
 18 19  1  0
 20 21  2  0
 21 40  1  0
 22 21  1  0
 22 25  1  0
 23 20  1  0
 23 24  1  0
 24 22  2  0
 25 26  1  0
 26 27  2  0
 28 31  1  0
 28 27  1  0
 29 28  2  0
 30 29  1  0
 30 25  2  0
 31 32  1  0
 32 33  1  0
 33 34  2  0
 35 34  1  0
 35 39  1  0
 36 35  2  0
 37 32  2  0
 37 36  1  0
 38 37  1  0
 40 41  1  0
 41 44  1  0
 41 43  1  0
 42 40  2  0
 45 46  1  0
 45 20  1  0
 47 45  1  0
 48 49  1  0
 50 61  2  0
 51 49  1  0
 51 56  1  0
 52 60  1  0
 52 62  1  0
 53 59  1  0
 53 55  1  0
 54 60  1  0
 55 54  1  0
 56 55  2  0
 57 51  2  0
 58 57  1  0
 58 53  2  0
 59 52  1  0
 60 50  1  0
 62 64  2  0
 63 62  1  0
 65 63  1  0
 66 75  2  0
 66 71  1  0
 67 63  1  0
 67 71  1  0
 68 67  1  0
 69 70  1  0
 69 68  1  0
 70 66  1  0
 71 72  2  0
 72 73  1  0
 74 73  2  0
 75 74  1  0
 76 50  1  0
 76 77  1  0
 76 86  1  0
 77 80  1  0
 78 82  1  0
 78 77  1  0
 79 78  2  0
 82 81  1  0
 84 85  1  0
 84 82  1  0
 84 83  1  0
 86 89  1  1
 86 87  1  0
 88 86  1  0
M  ISO  4  10 100  18 100  48 101  49 101
M  END
>  <TORSDO>  (58) 
F 17

>  <SCORE>  (58) 
-16.325

>  <name>  (58) 
58

>  <ligand_id>  (58) 
58

>  <original_smiles>  (58) 
[H]c1c([H])c([H])c2c(c1[H])C([H])([H])C([H])([H])C([H])([H])C2([H])N([H])C(=O)C1([H])N(C(=O)C([H])(N([H])C(=O)C([H])(N([H])C([H])([H])[H])C([H])([H])[H])C(C([H])([H])[H])(C([H])([H])[H])C([H])([H])[H])C([H])([H])c2c([H])c(OC([H])([H])C3([H])C([H])([H])C4([H])C([H])([H])C([H])(N([H])C(=O)N5C([H])([H])C([H])([H])C([H])([H])C([H])(n6nc(-c7c([H])c([H])c(Oc8c([H])c([H])c(F)c([H])c8F)c([H])c7[H])c(C(=O)N([H])[H])c6N([H])[H])C5([H])[H])C4([H])[N+]3([H])[H])c([H])c([H])c2C1([H])[H]

>  <smiles>  (58) 
[H]c1c([H])c([H])c2c(c1[H])C([H])([H])C([H])([H])C([H])([H])C2([H])N([H])C(=O)C1([H])N(C(=O)C([H])(N([H])C(=O)C([H])(N([H])C([H])([H])[H])C([H])([H])[H])C(C([H])([H])[H])(C([H])([H])[H])C([H])([H])[H])C([H])([H])c2c([H])c(OC([H])([H])C3([H])C([H])([H])C4([H])C([H])([H])C([H])(N([H])C(=O)N5C([H])([H])C([H])([H])C([H])([H])C([H])(n6nc(-c7c([H])c([H])c(Oc8c([H])c([H])c(F)c([H])c8F)c([H])c7[H])c(C(=O)N([H])[H])c6N([H])[H])C5([H])[H])C4([H])[N+]3([H])[H])c([H])c([H])c2C1([H])[H]

$$$$
59:0:0
     RDKit          3D

 89 98  0  0  1  0  0  0  0  0999 V2000
  -30.4680  -20.6440   21.6300 C   0  0  0  0  0  3  0  0  0  0  0  0
  -30.4430  -19.2130   21.2990 C   0  0  0  0  0  3  0  0  0  0  0  0
  -28.6680  -19.7050   19.8350 C   0  0  0  0  0  3  0  0  0  0  0  0
  -28.6900  -21.2300   20.1490 C   0  0  0  0  0  0  0  0  0  0  0  0
  -29.6020  -21.6690   21.0900 C   0  0  0  0  0  0  0  0  0  0  0  0
  -29.5410  -18.5480   20.3900 C   0  0  0  0  0  0  0  0  0  0  0  0
  -27.9880  -22.6790   19.7190 C   0  0  0  0  0  0  0  0  0  0  0  0
  -29.5370  -23.2680   21.3570 C   0  0  0  0  0  2  0  0  0  0  0  0
  -28.2600  -24.0510   20.6820 C   0  0  0  0  0  3  0  0  0  0  0  0
  -27.2490  -22.7730   18.7340 O   0  0  0  0  0  0  0  0  0  0  0  0
  -30.2920  -15.5680   20.2210 C   0  0  0  0  0  0  0  0  0  0  0  0
  -30.3410  -13.0750   19.3320 C   0  0  0  0  0  2  0  0  0  0  0  0
  -29.4050  -12.7360   18.1400 C   0  0  0  0  0  2  0  0  0  0  0  0
  -27.9840  -12.4070   18.6260 C   0  0  0  0  0  2  0  0  0  0  0  0
  -27.5180  -13.3910   19.7260 C   0  0  0  0  0  3  0  0  0  0  0  0
  -28.5840  -13.6370   20.8150 C   0  0  0  0  0  2  0  0  0  0  0  0
  -29.7530  -14.2280   20.1290 N   0  0  0  0  0  0  0  0  0  0  0  0
  -31.5270  -15.5350   20.0720 O   0  0  0  0  0  0  0  0  0  0  0  0
  -29.4930  -16.8740   20.1990 N   0  0  0  0  0  0  0  0  0  0  0  0
  -28.5410  -16.5960   20.0150 H   0  0  0  0  0  0  0  0  0  0  0  0
  -25.1690  -13.9170   20.5500 C   0  0  0  0  0  0  0  0  0  0  0  0
  -24.1200  -13.1310   20.9310 C   0  0  0  0  0  0  0  0  0  0  0  0
  -24.5950  -11.7840   20.8790 C   0  0  0  0  0  0  0  0  0  0  0  0
  -26.2110  -13.0530   20.2740 N   0  0  0  0  0  0  0  0  0  0  0  0
  -25.8810  -11.7620   20.5410 N   0  0  0  0  0  0  0  0  0  0  0  0
  -23.8780  -10.5160   21.0710 C   0  0  0  0  0  0  0  0  0  0  0  0
  -24.3310   -9.5410   21.9870 C   0  0  0  0  0  3  0  0  0  0  0  0
  -23.6090   -8.3420   22.1720 C   0  0  0  0  0  3  0  0  0  0  0  0
  -22.4210   -8.1090   21.4390 C   0  0  0  0  0  0  0  0  0  0  0  0
  -21.9870   -9.0720   20.5110 C   0  0  0  0  0  3  0  0  0  0  0  0
  -22.7100  -10.2630   20.3250 C   0  0  0  0  0  3  0  0  0  0  0  0
  -21.6700   -6.9620   21.5320 O   0  0  0  0  0  0  0  0  0  0  0  0
  -21.6470   -6.2070   22.6780 C   0  0  0  0  0  0  0  0  0  0  0  0
  -21.2390   -6.7470   23.9170 C   0  0  0  0  0  3  0  0  0  0  0  0
  -21.1640   -5.9210   25.0560 C   0  0  0  0  0  3  0  0  0  0  0  0
  -21.4860   -4.5530   24.9550 C   0  0  0  0  0  0  0  0  0  0  0  0
  -21.8860   -4.0120   23.7200 C   0  0  0  0  0  3  0  0  0  0  0  0
  -21.9630   -4.8370   22.5850 C   0  0  0  0  0  0  0  0  0  0  0  0
  -22.3290   -4.3060   21.3920 F   0  0  0  0  0  0  0  0  0  0  0  0
  -21.4070   -3.7560   26.0460 F   0  0  0  0  0  0  0  0  0  0  0  0
  -22.7260  -13.5970   21.2270 C   0  0  0  0  0  0  0  0  0  0  0  0
  -22.0160  -12.8940   22.1000 N   0  0  0  0  0  0  0  0  0  0  0  0
  -22.2760  -14.6230   20.7170 O   0  0  0  0  0  0  0  0  0  0  0  0
  -22.3950  -12.0650   22.5330 H   0  0  0  0  0  0  0  0  0  0  0  0
  -21.0810  -13.1890   22.3420 H   0  0  0  0  0  0  0  0  0  0  0  0
  -25.3170  -15.2920   20.3830 N   0  0  0  0  0  0  0  0  0  0  0  0
  -24.5500  -15.9390   20.5260 H   0  0  0  0  0  0  0  0  0  0  0  0
  -26.1580  -15.7460   20.0520 H   0  0  0  0  0  0  0  0  0  0  0  0
  -28.2550  -25.7450   20.3320 O   0  0  0  0  0  0  0  0  0  0  0  0
  -24.6520  -31.9040   23.2470 C   0  0  0  0  0  0  0  0  0  0  0  0
  -27.2230  -26.8710   20.3460 C   0  0  0  0  0  0  0  0  0  0  0  0
  -23.4750  -30.4870   21.6150 C   0  0  0  0  0  3  0  0  0  0  0  0
  -24.9360  -28.8350   20.2410 C   0  0  0  0  0  0  0  0  0  0  0  0
  -26.0500  -30.6610   21.5020 C   0  0  0  0  0  2  0  0  0  0  0  0
  -26.1240  -29.2260   20.8700 C   0  0  0  0  0  0  0  0  0  0  0  0
  -27.2590  -28.2730   20.8840 C   0  0  0  0  0  3  0  0  0  0  0  0
  -25.9960  -26.6590   19.6710 C   0  0  0  0  0  3  0  0  0  0  0  0
  -24.9040  -27.5740   19.6200 C   0  0  0  0  0  3  0  0  0  0  0  0
  -23.7240  -29.7760   20.2550 C   0  0  0  0  0  2  0  0  0  0  0  0
  -24.7480  -31.0480   22.1750 N   0  0  0  0  0  0  0  0  0  0  0  0
  -23.5560  -32.2040   23.7490 O   0  0  0  0  0  0  0  0  0  0  0  0
  -22.7600  -29.5160   22.5920 C   0  0  0  0  0  0  0  0  0  0  0  0
  -21.4280  -29.3570   22.4590 N   0  0  0  0  0  0  0  0  0  0  0  0
  -23.4120  -28.9000   23.4380 O   0  0  0  0  0  0  0  0  0  0  0  0
  -20.9540  -29.9040   21.7540 H   0  0  0  0  0  0  0  0  0  0  0  0
  -18.0380  -28.1570   22.9590 C   0  0  0  0  0  0  0  0  0  0  0  0
  -20.5960  -28.4300   23.2340 C   0  0  0  0  0  3  0  0  0  0  0  0
  -20.7020  -26.9910   22.6790 C   0  0  0  0  0  2  0  0  0  0  0  0
  -19.6080  -26.6560   21.6600 C   0  0  0  0  0  2  0  0  0  0  0  0
  -18.2210  -26.8030   22.2940 C   0  0  0  0  0  2  0  0  0  0  0  0
  -19.1520  -28.9280   23.3870 C   0  0  0  0  0  0  0  0  0  0  0  0
  -18.9230  -30.1920   23.9740 C   0  0  0  0  0  3  0  0  0  0  0  0
  -17.6150  -30.6850   24.1340 C   0  0  0  0  0  3  0  0  0  0  0  0
  -16.5160  -29.9140   23.7180 C   0  0  0  0  0  3  0  0  0  0  0  0
  -16.7280  -28.6520   23.1370 C   0  0  0  0  0  3  0  0  0  0  0  0
  -25.9110  -32.5590   23.8890 C   0  0  0  0  0  3  0  0  0  0  0  0
  -25.5840  -33.9620   24.2100 N   0  0  0  0  0  0  0  0  0  0  0  0
  -25.9140  -35.0200   23.4570 C   0  0  0  0  0  0  0  0  0  0  0  0
  -26.5820  -34.9170   22.4260 O   0  0  0  0  0  0  0  0  0  0  0  0
  -24.9840  -34.1120   25.0080 H   0  0  0  0  0  0  0  0  0  0  0  0
  -24.1750  -36.8150   23.1330 C   0  0  0  0  0  1  0  0  0  0  0  0
  -25.4330  -36.4120   23.9200 C   0  0  0  0  0  3  0  0  0  0  0  0
  -27.5690  -37.3280   24.7180 C   0  0  0  0  0  1  0  0  0  0  0  0
  -26.4640  -37.4660   23.7740 N   0  0  0  0  0  0  0  0  0  0  0  0
  -26.0590  -38.3910   23.8840 H   0  0  0  0  0  0  0  0  0  0  0  0
  -26.4020  -31.8100   25.1910 C   0  0  1  0  0  0  0  0  0  0  0  0
  -25.2890  -31.5930   26.2420 C   0  0  0  0  0  1  0  0  0  0  0  0
  -26.9910  -30.4250   24.8440 C   0  0  0  0  0  1  0  0  0  0  0  0
  -27.5400  -32.6150   25.8610 C   0  0  0  0  0  1  0  0  0  0  0  0
  2  1  1  0
  3  4  2  0
  3  6  1  0
  4  5  1  0
  5  8  1  0
  5  1  2  0
  6  2  2  0
  7  4  1  0
  7  9  1  0
  9 49  1  0
  9  8  1  0
 10  7  2  0
 12 17  1  0
 13 14  1  0
 13 12  1  0
 15 14  1  0
 15 24  1  0
 15 16  1  0
 17 11  1  0
 17 16  1  0
 18 11  2  0
 19 11  1  0
 19  6  1  0
 20 19  1  0
 21 22  2  0
 22 41  1  0
 23 22  1  0
 23 26  1  0
 24 25  1  0
 24 21  1  0
 25 23  2  0
 26 27  1  0
 27 28  2  0
 29 32  1  0
 29 28  1  0
 30 29  2  0
 31 30  1  0
 31 26  2  0
 32 33  1  0
 33 34  1  0
 34 35  2  0
 36 35  1  0
 36 40  1  0
 37 36  2  0
 38 33  2  0
 38 37  1  0
 39 38  1  0
 41 42  1  0
 42 45  1  0
 42 44  1  0
 43 41  2  0
 46 47  1  0
 46 21  1  0
 48 46  1  0
 49 51  1  0
 50 61  2  0
 51 56  1  0
 52 60  1  0
 52 62  1  0
 53 59  1  0
 53 55  1  0
 54 60  1  0
 55 56  2  0
 55 54  1  0
 57 51  2  0
 58 57  1  0
 58 53  2  0
 59 52  1  0
 60 50  1  0
 62 64  2  0
 63 62  1  0
 65 63  1  0
 66 75  2  0
 66 71  1  0
 67 63  1  0
 67 71  1  0
 68 67  1  0
 69 70  1  0
 69 68  1  0
 70 66  1  0
 71 72  2  0
 72 73  1  0
 74 73  2  0
 75 74  1  0
 76 50  1  0
 76 77  1  0
 76 86  1  0
 77 80  1  0
 78 82  1  0
 78 77  1  0
 79 78  2  0
 82 81  1  0
 84 85  1  0
 84 82  1  0
 84 83  1  0
 86 89  1  1
 86 87  1  0
 88 86  1  0
M  ISO  4   9 101  11 100  19 100  49 101
M  END
>  <TORSDO>  (59) 
F 16

>  <SCORE>  (59) 
-16.851

>  <name>  (59) 
59

>  <ligand_id>  (59) 
59

>  <original_smiles>  (59) 
[H]c1c([H])c([H])c2c(c1[H])C([H])([H])C([H])([H])C([H])([H])C2([H])N([H])C(=O)C1([H])N(C(=O)C([H])(N([H])C(=O)C([H])(N([H])C([H])([H])[H])C([H])([H])[H])C(C([H])([H])[H])(C([H])([H])[H])C([H])([H])[H])C([H])([H])c2c([H])c(OC3([H])C(=O)c4c([H])c(N([H])C(=O)N5C([H])([H])C([H])([H])C([H])([H])C([H])(n6nc(-c7c([H])c([H])c(Oc8c([H])c([H])c(F)c([H])c8F)c([H])c7[H])c(C(=O)N([H])[H])c6N([H])[H])C5([H])[H])c([H])c([H])c4C3([H])[H])c([H])c([H])c2C1([H])[H]

>  <smiles>  (59) 
[H]c1c([H])c([H])c2c(c1[H])C([H])([H])C([H])([H])C([H])([H])C2([H])N([H])C(=O)C1([H])N(C(=O)C([H])(N([H])C(=O)C([H])(N([H])C([H])([H])[H])C([H])([H])[H])C(C([H])([H])[H])(C([H])([H])[H])C([H])([H])[H])C([H])([H])c2c([H])c(OC3([H])C(=O)c4c([H])c(N([H])C(=O)N5C([H])([H])C([H])([H])C([H])([H])C([H])(n6nc(-c7c([H])c([H])c(Oc8c([H])c([H])c(F)c([H])c8F)c([H])c7[H])c(C(=O)N([H])[H])c6N([H])[H])C5([H])[H])c([H])c([H])c4C3([H])[H])c([H])c([H])c2C1([H])[H]

$$$$
60:0:0
     RDKit          3D

 87 95  0  0  1  0  0  0  0  0999 V2000
  -28.3290  -20.3360   20.8140 C   0  0  0  0  0  3  0  0  0  0  0  0
  -30.1800  -20.9160   19.5780 C   0  0  0  0  0  3  0  0  0  0  0  0
  -27.9080  -21.7650   20.7870 C   0  0  0  0  0  3  0  0  0  0  0  0
  -29.7590  -22.3390   19.5490 C   0  0  0  0  0  3  0  0  0  0  0  0
  -29.5140  -19.7700   20.1930 C   0  0  0  0  0  0  0  0  0  0  0  0
  -28.5760  -22.9090   20.1640 C   0  0  0  0  0  0  0  0  0  0  0  0
  -30.2220  -18.1830   20.2250 C   0  0  0  0  0  2  0  0  0  0  0  0
  -30.4960  -15.3360   20.2000 C   0  0  0  0  0  0  0  0  0  0  0  0
  -30.4160  -12.9170   19.3040 C   0  0  0  0  0  2  0  0  0  0  0  0
  -29.4690  -12.7510   18.0900 C   0  0  0  0  0  2  0  0  0  0  0  0
  -28.0270  -12.4900   18.5610 C   0  0  0  0  0  2  0  0  0  0  0  0
  -27.6080  -13.4420   19.7100 C   0  0  0  0  0  3  0  0  0  0  0  0
  -28.6820  -13.5650   20.8110 C   0  0  0  0  0  2  0  0  0  0  0  0
  -29.9050  -14.0480   20.1550 N   0  0  0  0  0  0  0  0  0  0  0  0
  -31.7070  -15.3330   19.9420 O   0  0  0  0  0  0  0  0  0  0  0  0
  -29.7670  -16.6070   20.3250 N   0  0  0  0  0  0  0  0  0  0  0  0
  -28.7790  -16.4810   20.4870 H   0  0  0  0  0  0  0  0  0  0  0  0
  -25.2560  -13.9910   20.5300 C   0  0  0  0  0  0  0  0  0  0  0  0
  -24.2020  -13.2090   20.9090 C   0  0  0  0  0  0  0  0  0  0  0  0
  -24.6670  -11.8580   20.8420 C   0  0  0  0  0  0  0  0  0  0  0  0
  -26.2920  -13.1200   20.2450 N   0  0  0  0  0  0  0  0  0  0  0  0
  -25.9500  -11.8300   20.5010 N   0  0  0  0  0  0  0  0  0  0  0  0
  -23.9420  -10.5930   21.0240 C   0  0  0  0  0  0  0  0  0  0  0  0
  -24.3710   -9.6230   21.9560 C   0  0  0  0  0  3  0  0  0  0  0  0
  -23.6430   -8.4240   22.1270 C   0  0  0  0  0  3  0  0  0  0  0  0
  -22.4730   -8.1890   21.3670 C   0  0  0  0  0  0  0  0  0  0  0  0
  -22.0640   -9.1490   20.4260 C   0  0  0  0  0  3  0  0  0  0  0  0
  -22.7910  -10.3380   20.2510 C   0  0  0  0  0  3  0  0  0  0  0  0
  -21.7190   -7.0440   21.4490 O   0  0  0  0  0  0  0  0  0  0  0  0
  -21.6320   -6.3200   22.6110 C   0  0  0  0  0  0  0  0  0  0  0  0
  -21.1120   -6.8770   23.7990 C   0  0  0  0  0  3  0  0  0  0  0  0
  -20.9760   -6.0770   24.9510 C   0  0  0  0  0  3  0  0  0  0  0  0
  -21.3500   -4.7210   24.9150 C   0  0  0  0  0  0  0  0  0  0  0  0
  -21.8630   -4.1630   23.7310 C   0  0  0  0  0  3  0  0  0  0  0  0
  -21.9990   -4.9600   22.5810 C   0  0  0  0  0  0  0  0  0  0  0  0
  -22.4740   -4.4110   21.4370 F   0  0  0  0  0  0  0  0  0  0  0  0
  -21.2130   -3.9500   26.0200 F   0  0  0  0  0  0  0  0  0  0  0  0
  -22.8110  -13.6820   21.2170 C   0  0  0  0  0  0  0  0  0  0  0  0
  -22.1040  -12.9770   22.0920 N   0  0  0  0  0  0  0  0  0  0  0  0
  -22.3630  -14.7130   20.7170 O   0  0  0  0  0  0  0  0  0  0  0  0
  -22.4820  -12.1430   22.5180 H   0  0  0  0  0  0  0  0  0  0  0  0
  -21.1730  -13.2760   22.3420 H   0  0  0  0  0  0  0  0  0  0  0  0
  -25.4140  -15.3660   20.3720 N   0  0  0  0  0  0  0  0  0  0  0  0
  -24.6450  -16.0140   20.5090 H   0  0  0  0  0  0  0  0  0  0  0  0
  -26.2420  -15.8090   19.9960 H   0  0  0  0  0  0  0  0  0  0  0  0
  -27.8470  -24.4710   19.9470 C   0  0  0  0  0  2  0  0  0  0  0  0
  -28.2220  -26.0240   20.2400 O   0  0  0  0  0  0  0  0  0  0  0  0
  -24.6760  -31.9160   23.2810 C   0  0  0  0  0  0  0  0  0  0  0  0
  -27.2250  -27.1220   20.1800 C   0  0  0  0  0  0  0  0  0  0  0  0
  -23.4750  -30.5440   21.6290 C   0  0  0  0  0  3  0  0  0  0  0  0
  -24.9200  -28.9750   20.1740 C   0  0  0  0  0  0  0  0  0  0  0  0
  -26.0390  -30.7720   21.4730 C   0  0  0  0  0  2  0  0  0  0  0  0
  -26.1090  -29.3770   20.7950 C   0  0  0  0  0  0  0  0  0  0  0  0
  -27.2580  -28.4700   20.7780 C   0  0  0  0  0  3  0  0  0  0  0  0
  -26.0080  -26.8690   19.5070 C   0  0  0  0  0  3  0  0  0  0  0  0
  -24.8920  -27.7410   19.5100 C   0  0  0  0  0  3  0  0  0  0  0  0
  -23.6980  -29.8860   20.2410 C   0  0  0  0  0  2  0  0  0  0  0  0
  -24.7520  -31.1020   22.1820 N   0  0  0  0  0  0  0  0  0  0  0  0
  -23.5890  -32.1960   23.8130 O   0  0  0  0  0  0  0  0  0  0  0  0
  -22.7910  -29.5290   22.5820 C   0  0  0  0  0  0  0  0  0  0  0  0
  -21.4630  -29.3470   22.4460 N   0  0  0  0  0  0  0  0  0  0  0  0
  -23.4590  -28.9060   23.4100 O   0  0  0  0  0  0  0  0  0  0  0  0
  -20.9770  -29.9010   21.7550 H   0  0  0  0  0  0  0  0  0  0  0  0
  -18.0920  -28.0990   22.9260 C   0  0  0  0  0  0  0  0  0  0  0  0
  -20.6470  -28.3950   23.2060 C   0  0  0  0  0  3  0  0  0  0  0  0
  -20.7690  -26.9670   22.6220 C   0  0  0  0  0  2  0  0  0  0  0  0
  -19.6760  -26.6380   21.6000 C   0  0  0  0  0  2  0  0  0  0  0  0
  -18.2890  -26.7580   22.2380 C   0  0  0  0  0  2  0  0  0  0  0  0
  -19.1980  -28.8740   23.3660 C   0  0  0  0  0  0  0  0  0  0  0  0
  -18.9570  -30.1260   23.9730 C   0  0  0  0  0  3  0  0  0  0  0  0
  -17.6440  -30.6040   24.1420 C   0  0  0  0  0  3  0  0  0  0  0  0
  -16.5530  -29.8280   23.7150 C   0  0  0  0  0  3  0  0  0  0  0  0
  -16.7770  -28.5770   23.1140 C   0  0  0  0  0  3  0  0  0  0  0  0
  -25.9500  -32.5510   23.9170 C   0  0  0  0  0  3  0  0  0  0  0  0
  -25.6400  -33.9520   24.2490 N   0  0  0  0  0  0  0  0  0  0  0  0
  -25.9380  -35.0080   23.4790 C   0  0  0  0  0  0  0  0  0  0  0  0
  -26.5680  -34.9040   22.4230 O   0  0  0  0  0  0  0  0  0  0  0  0
  -25.0750  -34.1050   25.0720 H   0  0  0  0  0  0  0  0  0  0  0  0
  -24.1770  -36.7880   23.2170 C   0  0  0  0  0  1  0  0  0  0  0  0
  -25.4670  -36.3970   23.9540 C   0  0  0  0  0  3  0  0  0  0  0  0
  -27.6320  -37.3190   24.6610 C   0  0  0  0  0  1  0  0  0  0  0  0
  -26.4820  -37.4580   23.7720 N   0  0  0  0  0  0  0  0  0  0  0  0
  -26.0740  -38.3770   23.9230 H   0  0  0  0  0  0  0  0  0  0  0  0
  -26.4460  -31.7830   25.2050 C   0  0  1  0  0  0  0  0  0  0  0  0
  -25.3390  -31.5550   26.2600 C   0  0  0  0  0  1  0  0  0  0  0  0
  -27.0290  -30.4010   24.8350 C   0  0  0  0  0  1  0  0  0  0  0  0
  -27.5910  -32.5780   25.8770 C   0  0  0  0  0  1  0  0  0  0  0  0
  2  5  1  0
  3  1  1  0
  4  2  2  0
  4  6  1  0
  5  7  1  0
  5  1  2  0
  6  3  2  0
  7 16  1  0
  8 16  1  0
  9 14  1  0
 10 11  1  0
 10  9  1  0
 12 11  1  0
 12 21  1  0
 12 13  1  0
 14  8  1  0
 14 13  1  0
 15  8  2  0
 16 17  1  0
 18 19  2  0
 19 38  1  0
 20 19  1  0
 20 23  1  0
 21 22  1  0
 21 18  1  0
 22 20  2  0
 23 24  1  0
 24 25  2  0
 26 29  1  0
 26 25  1  0
 27 26  2  0
 28 27  1  0
 28 23  2  0
 29 30  1  0
 30 31  1  0
 31 32  2  0
 33 32  1  0
 33 37  1  0
 34 33  2  0
 35 30  2  0
 35 34  1  0
 36 35  1  0
 38 39  1  0
 39 42  1  0
 39 41  1  0
 40 38  2  0
 43 44  1  0
 43 18  1  0
 45 43  1  0
 46  6  1  0
 46 47  1  0
 48 59  2  0
 49 47  1  0
 49 54  1  0
 50 58  1  0
 50 60  1  0
 51 57  1  0
 51 53  1  0
 52 58  1  0
 53 52  1  0
 54 53  2  0
 55 56  1  0
 55 49  2  0
 56 51  2  0
 57 50  1  0
 58 48  1  0
 60 62  2  0
 61 60  1  0
 63 61  1  0
 64 73  2  0
 64 69  1  0
 65 61  1  0
 65 69  1  0
 66 65  1  0
 67 68  1  0
 67 66  1  0
 68 64  1  0
 69 70  2  0
 70 71  1  0
 72 71  2  0
 73 72  1  0
 74 48  1  0
 74 75  1  0
 74 84  1  0
 75 78  1  0
 76 80  1  0
 76 75  1  0
 77 76  2  0
 80 79  1  0
 82 83  1  0
 82 80  1  0
 82 81  1  0
 84 87  1  1
 84 85  1  0
 86 84  1  0
M  ISO  4   8 100  16 100  46 101  47 101
M  END
>  <TORSDO>  (60) 
F 18

>  <SCORE>  (60) 
-15.743

>  <name>  (60) 
60

>  <ligand_id>  (60) 
60

>  <original_smiles>  (60) 
[H]c1c([H])c([H])c2c(c1[H])C([H])([H])C([H])([H])C([H])([H])C2([H])N([H])C(=O)C1([H])N(C(=O)C([H])(N([H])C(=O)C([H])(N([H])C([H])([H])[H])C([H])([H])[H])C(C([H])([H])[H])(C([H])([H])[H])C([H])([H])[H])C([H])([H])c2c([H])c(OC([H])([H])c3c([H])c([H])c(C([H])([H])N([H])C(=O)N4C([H])([H])C([H])([H])C([H])([H])C([H])(n5nc(-c6c([H])c([H])c(Oc7c([H])c([H])c(F)c([H])c7F)c([H])c6[H])c(C(=O)N([H])[H])c5N([H])[H])C4([H])[H])c([H])c3[H])c([H])c([H])c2C1([H])[H]

>  <smiles>  (60) 
[H]c1c([H])c([H])c2c(c1[H])C([H])([H])C([H])([H])C([H])([H])C2([H])N([H])C(=O)C1([H])N(C(=O)C([H])(N([H])C(=O)C([H])(N([H])C([H])([H])[H])C([H])([H])[H])C(C([H])([H])[H])(C([H])([H])[H])C([H])([H])[H])C([H])([H])c2c([H])c(OC([H])([H])c3c([H])c([H])c(C([H])([H])N([H])C(=O)N4C([H])([H])C([H])([H])C([H])([H])C([H])(n5nc(-c6c([H])c([H])c(Oc7c([H])c([H])c(F)c([H])c7F)c([H])c6[H])c(C(=O)N([H])[H])c5N([H])[H])C4([H])[H])c([H])c3[H])c([H])c([H])c2C1([H])[H]

$$$$
61:0:0
     RDKit          3D

 92101  0  0  1  0  0  0  0  0999 V2000
  -30.1380  -24.3430   21.9190 C   0  0  0  0  0  3  0  0  0  0  0  0
  -29.0620  -23.5930   21.7180 C   0  0  0  0  0  3  0  0  0  0  0  0
  -30.8370  -25.0030   20.7980 C   0  0  0  0  0  0  0  0  0  0  0  0
  -30.6930  -23.4450   23.0110 C   0  0  0  0  0  2  0  0  0  0  0  0
  -29.3850  -22.6050   22.8220 C   0  0  0  0  0  2  0  0  0  0  0  0
  -30.0760  -25.0670   19.4530 C   0  0  0  0  0  2  0  0  0  0  0  0
  -28.3720  -23.3930   20.3870 C   0  0  0  0  0  3  0  0  0  0  0  0
  -28.5420  -24.9080   19.6470 C   0  0  0  0  0  3  0  0  0  0  0  0
  -31.9750  -25.4700   20.8900 O   0  0  0  0  0  0  0  0  0  0  0  0
  -28.2880  -26.3150   20.2480 O   0  0  0  0  0  0  0  0  0  0  0  0
  -24.6390  -31.8760   23.2440 C   0  0  0  0  0  0  0  0  0  0  0  0
  -27.1870  -27.2220   20.1290 C   0  0  0  0  0  0  0  0  0  0  0  0
  -23.4190  -30.4990   21.6000 C   0  0  0  0  0  3  0  0  0  0  0  0
  -24.8490  -28.9350   20.1380 C   0  0  0  0  0  0  0  0  0  0  0  0
  -25.9650  -30.7720   21.4080 C   0  0  0  0  0  2  0  0  0  0  0  0
  -26.0280  -29.3900   20.7410 C   0  0  0  0  0  0  0  0  0  0  0  0
  -27.1910  -28.5440   20.7230 C   0  0  0  0  0  3  0  0  0  0  0  0
  -25.9870  -26.8510   19.4900 C   0  0  0  0  0  3  0  0  0  0  0  0
  -24.8390  -27.6800   19.5000 C   0  0  0  0  0  3  0  0  0  0  0  0
  -23.6210  -29.8300   20.2110 C   0  0  0  0  0  2  0  0  0  0  0  0
  -24.6950  -31.0710   22.1400 N   0  0  0  0  0  0  0  0  0  0  0  0
  -23.5610  -32.1570   23.7890 O   0  0  0  0  0  0  0  0  0  0  0  0
  -22.7490  -29.4870   22.5610 C   0  0  0  0  0  0  0  0  0  0  0  0
  -21.4240  -29.3070   22.4330 N   0  0  0  0  0  0  0  0  0  0  0  0
  -23.4260  -28.8640   23.3830 O   0  0  0  0  0  0  0  0  0  0  0  0
  -20.9330  -29.8610   21.7440 H   0  0  0  0  0  0  0  0  0  0  0  0
  -18.0560  -28.0590   22.9080 C   0  0  0  0  0  0  0  0  0  0  0  0
  -20.6080  -28.3610   23.2000 C   0  0  0  0  0  3  0  0  0  0  0  0
  -20.7370  -26.9270   22.6340 C   0  0  0  0  0  2  0  0  0  0  0  0
  -19.6510  -26.5840   21.6090 C   0  0  0  0  0  2  0  0  0  0  0  0
  -18.2590  -26.7110   22.2380 C   0  0  0  0  0  2  0  0  0  0  0  0
  -19.1590  -28.8410   23.3450 C   0  0  0  0  0  0  0  0  0  0  0  0
  -18.9140  -30.1020   23.9330 C   0  0  0  0  0  3  0  0  0  0  0  0
  -17.5990  -30.5810   24.0850 C   0  0  0  0  0  3  0  0  0  0  0  0
  -16.5110  -29.7970   23.6630 C   0  0  0  0  0  3  0  0  0  0  0  0
  -16.7400  -28.5380   23.0810 C   0  0  0  0  0  3  0  0  0  0  0  0
  -25.9270  -32.5020   23.8660 C   0  0  0  0  0  3  0  0  0  0  0  0
  -26.4400  -31.7270   25.1440 C   0  0  1  0  0  0  0  0  0  0  0  0
  -25.3490  -31.5030   26.2160 C   0  0  0  0  0  1  0  0  0  0  0  0
  -27.0100  -30.3430   24.7560 C   0  0  0  0  0  1  0  0  0  0  0  0
  -27.6000  -32.5130   25.8020 C   0  0  0  0  0  1  0  0  0  0  0  0
  -25.6260  -33.9020   24.2050 N   0  0  0  0  0  0  0  0  0  0  0  0
  -25.9550  -34.9600   23.4480 C   0  0  0  0  0  0  0  0  0  0  0  0
  -26.6080  -34.8570   22.4070 O   0  0  0  0  0  0  0  0  0  0  0  0
  -25.0440  -34.0560   25.0150 H   0  0  0  0  0  0  0  0  0  0  0  0
  -24.2240  -36.7630   23.1460 C   0  0  0  0  0  1  0  0  0  0  0  0
  -25.4850  -36.3500   23.9210 C   0  0  0  0  0  3  0  0  0  0  0  0
  -27.6440  -37.2290   24.6970 C   0  0  0  0  0  1  0  0  0  0  0  0
  -26.5180  -37.4000   23.7820 N   0  0  0  0  0  0  0  0  0  0  0  0
  -26.1180  -38.3210   23.9390 H   0  0  0  0  0  0  0  0  0  0  0  0
  -29.0310  -21.9660   19.7560 C   0  0  0  0  0  2  0  0  0  0  0  0
  -28.5950  -20.3770   20.1010 C   0  0  0  0  0  2  0  0  0  0  0  0
  -29.5370  -19.0330   20.5020 C   0  0  0  0  0  2  0  0  0  0  0  0
  -29.6880  -17.5840   19.6670 C   0  0  0  0  0  2  0  0  0  0  0  0
  -30.4870  -14.9690   20.0210 C   0  0  0  0  0  0  0  0  0  0  0  0
  -30.3270  -12.6250   19.0890 C   0  0  0  0  0  2  0  0  0  0  0  0
  -29.3550  -12.6290   17.8840 C   0  0  0  0  0  2  0  0  0  0  0  0
  -27.9010  -12.4350   18.3590 C   0  0  0  0  0  2  0  0  0  0  0  0
  -27.5500  -13.3400   19.5700 C   0  0  0  0  0  3  0  0  0  0  0  0
  -28.6410  -13.3110   20.6630 C   0  0  0  0  0  2  0  0  0  0  0  0
  -29.9040  -13.7040   20.0260 N   0  0  0  0  0  0  0  0  0  0  0  0
  -31.6480  -15.0610   19.6080 O   0  0  0  0  0  0  0  0  0  0  0  0
  -29.7050  -16.1240   20.2710 N   0  0  0  0  0  0  0  0  0  0  0  0
  -28.8290  -15.8820   20.7110 H   0  0  0  0  0  0  0  0  0  0  0  0
  -25.1950  -13.9240   20.3850 C   0  0  0  0  0  0  0  0  0  0  0  0
  -24.1420  -13.1500   20.7910 C   0  0  0  0  0  0  0  0  0  0  0  0
  -24.6010  -11.7980   20.7390 C   0  0  0  0  0  0  0  0  0  0  0  0
  -26.2270  -13.0430   20.1080 N   0  0  0  0  0  0  0  0  0  0  0  0
  -25.8810  -11.7590   20.3850 N   0  0  0  0  0  0  0  0  0  0  0  0
  -23.8770  -10.5380   20.9500 C   0  0  0  0  0  0  0  0  0  0  0  0
  -24.3270   -9.5740   21.8790 C   0  0  0  0  0  3  0  0  0  0  0  0
  -23.6010   -8.3790   22.0780 C   0  0  0  0  0  3  0  0  0  0  0  0
  -22.4120   -8.1410   21.3490 C   0  0  0  0  0  0  0  0  0  0  0  0
  -21.9820   -9.0940   20.4100 C   0  0  0  0  0  3  0  0  0  0  0  0
  -22.7090  -10.2800   20.2090 C   0  0  0  0  0  3  0  0  0  0  0  0
  -21.6550   -6.9990   21.4580 O   0  0  0  0  0  0  0  0  0  0  0  0
  -21.6210   -6.2670   22.6190 C   0  0  0  0  0  0  0  0  0  0  0  0
  -21.2140   -6.8340   23.8470 C   0  0  0  0  0  3  0  0  0  0  0  0
  -21.1260   -6.0280   25.0000 C   0  0  0  0  0  3  0  0  0  0  0  0
  -21.4340   -4.6570   24.9260 C   0  0  0  0  0  0  0  0  0  0  0  0
  -21.8340   -4.0900   23.7030 C   0  0  0  0  0  3  0  0  0  0  0  0
  -21.9250   -4.8920   22.5520 C   0  0  0  0  0  0  0  0  0  0  0  0
  -22.2880   -4.3360   21.3710 F   0  0  0  0  0  0  0  0  0  0  0  0
  -21.3440   -3.8800   26.0310 F   0  0  0  0  0  0  0  0  0  0  0  0
  -22.7580  -13.6320   21.1100 C   0  0  0  0  0  0  0  0  0  0  0  0
  -22.0530  -12.9370   21.9950 N   0  0  0  0  0  0  0  0  0  0  0  0
  -22.3090  -14.6630   20.6080 O   0  0  0  0  0  0  0  0  0  0  0  0
  -22.4300  -12.1040   22.4250 H   0  0  0  0  0  0  0  0  0  0  0  0
  -21.1240  -13.2440   22.2470 H   0  0  0  0  0  0  0  0  0  0  0  0
  -25.3540  -15.2950   20.2020 N   0  0  0  0  0  0  0  0  0  0  0  0
  -24.5820  -15.9420   20.3250 H   0  0  0  0  0  0  0  0  0  0  0  0
  -26.1770  -15.7330   19.8100 H   0  0  0  0  0  0  0  0  0  0  0  0
  1  4  1  0
  2  1  1  0
  2  5  1  0
  3  9  2  0
  3  1  1  0
  5  4  1  0
  6  8  1  0
  6  3  1  0
  7 51  1  0
  7  2  1  0
  8 10  1  0
  8  7  1  0
 11 22  2  0
 12 10  1  0
 12 17  1  0
 13 21  1  0
 13 23  1  0
 14 20  1  0
 14 16  1  0
 15 21  1  0
 16 15  1  0
 17 16  2  0
 18 19  1  0
 18 12  2  0
 19 14  2  0
 20 13  1  0
 21 11  1  0
 23 25  2  0
 24 23  1  0
 26 24  1  0
 27 36  2  0
 27 32  1  0
 28 24  1  0
 28 32  1  0
 29 28  1  0
 30 31  1  0
 30 29  1  0
 31 27  1  0
 32 33  2  0
 33 34  1  0
 35 34  2  0
 36 35  1  0
 37 11  1  0
 37 42  1  0
 37 38  1  0
 38 41  1  1
 38 39  1  0
 40 38  1  0
 42 45  1  0
 43 47  1  0
 43 42  1  0
 44 43  2  0
 47 46  1  0
 49 47  1  0
 49 50  1  0
 49 48  1  0
 51 52  1  0
 52 53  1  0
 54 63  1  0
 54 53  1  0
 55 61  1  0
 55 63  1  0
 56 61  1  0
 57 58  1  0
 57 56  1  0
 59 58  1  0
 59 68  1  0
 59 60  1  0
 61 60  1  0
 62 55  2  0
 63 64  1  0
 65 66  2  0
 66 85  1  0
 67 66  1  0
 67 70  1  0
 68 65  1  0
 68 69  1  0
 69 67  2  0
 70 71  1  0
 71 72  2  0
 73 76  1  0
 73 72  1  0
 74 73  2  0
 75 74  1  0
 75 70  2  0
 76 77  1  0
 77 78  1  0
 78 79  2  0
 80 79  1  0
 80 84  1  0
 81 80  2  0
 82 77  2  0
 82 81  1  0
 83 82  1  0
 85 86  1  0
 86 89  1  0
 86 88  1  0
 87 85  2  0
 90 91  1  0
 90 65  1  0
 92 90  1  0
M  ISO  4   8 101  10 101  55 100  63 100
M  END
>  <TORSDO>  (61) 
F 20

>  <SCORE>  (61) 
-13.224

>  <name>  (61) 
61

>  <ligand_id>  (61) 
61

>  <original_smiles>  (61) 
[H]c1c([H])c([H])c2c(c1[H])C([H])([H])C([H])([H])C([H])([H])C2([H])N([H])C(=O)C1([H])N(C(=O)C([H])(N([H])C(=O)C([H])(N([H])C([H])([H])[H])C([H])([H])[H])C(C([H])([H])[H])(C([H])([H])[H])C([H])([H])[H])C([H])([H])c2c([H])c(OC3([H])C([H])([H])C(=O)C4=C(C([H])([H])C4([H])[H])C3([H])C([H])([H])C([H])([H])C([H])([H])C([H])([H])N([H])C(=O)N3C([H])([H])C([H])([H])C([H])([H])C([H])(n4nc(-c5c([H])c([H])c(Oc6c([H])c([H])c(F)c([H])c6F)c([H])c5[H])c(C(=O)N([H])[H])c4N([H])[H])C3([H])[H])c([H])c([H])c2C1([H])[H]

>  <smiles>  (61) 
[H]c1c([H])c([H])c2c(c1[H])C([H])([H])C([H])([H])C([H])([H])C2([H])N([H])C(=O)C1([H])N(C(=O)C([H])(N([H])C(=O)C([H])(N([H])C([H])([H])[H])C([H])([H])[H])C(C([H])([H])[H])(C([H])([H])[H])C([H])([H])[H])C([H])([H])c2c([H])c(OC3([H])C([H])([H])C(=O)C4=C(C([H])([H])C4([H])[H])C3([H])C([H])([H])C([H])([H])C([H])([H])C([H])([H])N([H])C(=O)N3C([H])([H])C([H])([H])C([H])([H])C([H])(n4nc(-c5c([H])c([H])c(Oc6c([H])c([H])c(F)c([H])c6F)c([H])c5[H])c(C(=O)N([H])[H])c4N([H])[H])C3([H])[H])c([H])c([H])c2C1([H])[H]

$$$$
62:0:0
     RDKit          3D

 95104  0  0  1  0  0  0  0  0999 V2000
  -28.7910  -21.3760   19.6790 C   0  0  0  0  0  3  0  0  0  0  0  0
  -29.6120  -20.9510   20.6600 C   0  0  0  0  0  0  0  0  0  0  0  0
  -28.3170  -22.7870   19.3880 C   0  0  0  0  0  2  0  0  0  0  0  0
  -30.1710  -21.8720   21.7380 C   0  0  0  0  0  2  0  0  0  0  0  0
  -29.4120  -23.8610   19.3840 C   0  0  0  0  0  2  0  0  0  0  0  0
  -30.8420  -23.1830   21.2760 C   0  0  0  0  0  2  0  0  0  0  0  0
  -29.8960  -24.2040   20.7470 N   0  0  1  0  0  4  0  0  0  0  0  0
  -29.0950  -24.1970   21.3600 H   0  0  0  0  0  0  0  0  0  0  0  0
  -28.6580  -18.6570   20.9070 C   0  0  0  0  0  3  0  0  0  0  0  0
  -31.0800  -18.9180   20.8170 C   0  0  0  0  0  3  0  0  0  0  0  0
  -28.8120  -17.2630   21.0110 C   0  0  0  0  0  3  0  0  0  0  0  0
  -31.2340  -17.5160   20.9040 C   0  0  0  0  0  3  0  0  0  0  0  0
  -29.7910  -19.4920   20.8010 C   0  0  0  0  0  0  0  0  0  0  0  0
  -30.0960  -16.6800   20.9840 C   0  0  0  0  0  0  0  0  0  0  0  0
  -30.7420  -14.4320   20.1920 C   0  0  0  0  0  0  0  0  0  0  0  0
  -30.3760  -12.3600   18.9010 C   0  0  0  0  0  2  0  0  0  0  0  0
  -29.3680  -12.6310   17.7640 C   0  0  0  0  0  2  0  0  0  0  0  0
  -27.9170  -12.4770   18.2600 C   0  0  0  0  0  2  0  0  0  0  0  0
  -27.6520  -13.2510   19.5780 C   0  0  0  0  0  3  0  0  0  0  0  0
  -28.7540  -12.9370   20.6160 C   0  0  0  0  0  2  0  0  0  0  0  0
  -30.0640  -13.2660   20.0140 N   0  0  0  0  0  0  0  0  0  0  0  0
  -31.7790  -14.7110   19.5790 O   0  0  0  0  0  0  0  0  0  0  0  0
  -30.1730  -15.2660   21.0770 N   0  0  0  0  0  0  0  0  0  0  0  0
  -29.4000  -14.8320   21.5580 H   0  0  0  0  0  0  0  0  0  0  0  0
  -25.2750  -13.8430   20.3800 C   0  0  0  0  0  0  0  0  0  0  0  0
  -24.2300  -13.0610   20.7940 C   0  0  0  0  0  0  0  0  0  0  0  0
  -24.6990  -11.7130   20.7400 C   0  0  0  0  0  0  0  0  0  0  0  0
  -26.3180  -12.9690   20.1070 N   0  0  0  0  0  0  0  0  0  0  0  0
  -25.9760  -11.6840   20.3770 N   0  0  0  0  0  0  0  0  0  0  0  0
  -23.9930  -10.4440   20.9580 C   0  0  0  0  0  0  0  0  0  0  0  0
  -24.4400   -9.5050   21.9130 C   0  0  0  0  0  3  0  0  0  0  0  0
  -23.7350   -8.2990   22.1170 C   0  0  0  0  0  3  0  0  0  0  0  0
  -22.5670   -8.0250   21.3650 C   0  0  0  0  0  0  0  0  0  0  0  0
  -22.1390   -8.9530   20.4000 C   0  0  0  0  0  3  0  0  0  0  0  0
  -22.8450  -10.1490   20.1940 C   0  0  0  0  0  3  0  0  0  0  0  0
  -21.8320   -6.8690   21.4770 O   0  0  0  0  0  0  0  0  0  0  0  0
  -21.7430   -6.1840   22.6620 C   0  0  0  0  0  0  0  0  0  0  0  0
  -21.2360   -6.7870   23.8340 C   0  0  0  0  0  3  0  0  0  0  0  0
  -21.0980   -6.0260   25.0130 C   0  0  0  0  0  3  0  0  0  0  0  0
  -21.4540   -4.6640   25.0190 C   0  0  0  0  0  0  0  0  0  0  0  0
  -21.9540   -4.0610   23.8510 C   0  0  0  0  0  3  0  0  0  0  0  0
  -22.0950   -4.8190   22.6750 C   0  0  0  0  0  0  0  0  0  0  0  0
  -22.5570   -4.2290   21.5460 F   0  0  0  0  0  0  0  0  0  0  0  0
  -21.3140   -3.9310   26.1480 F   0  0  0  0  0  0  0  0  0  0  0  0
  -22.8410  -13.5260   21.1290 C   0  0  0  0  0  0  0  0  0  0  0  0
  -22.1590  -12.8250   22.0290 N   0  0  0  0  0  0  0  0  0  0  0  0
  -22.3700  -14.5450   20.6270 O   0  0  0  0  0  0  0  0  0  0  0  0
  -22.5540  -12.0000   22.4570 H   0  0  0  0  0  0  0  0  0  0  0  0
  -21.2290  -13.1170   22.2940 H   0  0  0  0  0  0  0  0  0  0  0  0
  -25.4200  -15.2140   20.1960 N   0  0  0  0  0  0  0  0  0  0  0  0
  -24.6480  -15.8580   20.3200 H   0  0  0  0  0  0  0  0  0  0  0  0
  -26.2400  -15.6500   19.7900 H   0  0  0  0  0  0  0  0  0  0  0  0
  -30.4450  -25.5960   20.8190 C   0  0  0  0  0  2  0  0  0  0  0  0
  -29.3670  -26.6740   21.0660 C   0  0  0  0  0  2  0  0  0  0  0  0
  -28.4880  -26.7080   19.9510 O   0  0  0  0  0  0  0  0  0  0  0  0
  -24.6110  -31.8250   23.1290 C   0  0  0  0  0  0  0  0  0  0  0  0
  -27.3430  -27.4620   20.0400 C   0  0  0  0  0  0  0  0  0  0  0  0
  -23.4340  -30.4260   21.4590 C   0  0  0  0  0  3  0  0  0  0  0  0
  -24.9210  -28.9150   20.0420 C   0  0  0  0  0  0  0  0  0  0  0  0
  -25.9540  -30.8190   21.2920 C   0  0  0  0  0  2  0  0  0  0  0  0
  -26.0630  -29.4510   20.6540 C   0  0  0  0  0  0  0  0  0  0  0  0
  -27.2740  -28.7290   20.6650 C   0  0  0  0  0  3  0  0  0  0  0  0
  -26.1900  -26.9380   19.4200 C   0  0  0  0  0  3  0  0  0  0  0  0
  -24.9780  -27.6520   19.4270 C   0  0  0  0  0  3  0  0  0  0  0  0
  -23.6670  -29.7580   20.0780 C   0  0  0  0  0  2  0  0  0  0  0  0
  -24.6830  -31.0370   22.0200 N   0  0  0  0  0  0  0  0  0  0  0  0
  -23.5220  -32.0810   23.6610 O   0  0  0  0  0  0  0  0  0  0  0  0
  -22.7830  -29.3910   22.4020 C   0  0  0  0  0  0  0  0  0  0  0  0
  -21.4610  -29.2030   22.2620 N   0  0  0  0  0  0  0  0  0  0  0  0
  -23.4650  -28.7580   23.2150 O   0  0  0  0  0  0  0  0  0  0  0  0
  -20.9750  -29.7650   21.5780 H   0  0  0  0  0  0  0  0  0  0  0  0
  -18.0870  -28.0020   22.7270 C   0  0  0  0  0  0  0  0  0  0  0  0
  -20.6430  -28.2530   23.0140 C   0  0  0  0  0  3  0  0  0  0  0  0
  -20.7480  -26.8320   22.4150 C   0  0  0  0  0  2  0  0  0  0  0  0
  -19.6510  -26.5270   21.3910 C   0  0  0  0  0  2  0  0  0  0  0  0
  -18.2660  -26.6630   22.0310 C   0  0  0  0  0  2  0  0  0  0  0  0
  -19.2050  -28.7550   23.1740 C   0  0  0  0  0  0  0  0  0  0  0  0
  -18.9850  -30.0110   23.7830 C   0  0  0  0  0  3  0  0  0  0  0  0
  -17.6800  -30.5120   23.9500 C   0  0  0  0  0  3  0  0  0  0  0  0
  -16.5770  -29.7550   23.5190 C   0  0  0  0  0  3  0  0  0  0  0  0
  -16.7810  -28.5020   22.9140 C   0  0  0  0  0  3  0  0  0  0  0  0
  -25.8860  -32.4570   23.7680 C   0  0  0  0  0  3  0  0  0  0  0  0
  -26.4150  -31.6610   25.0240 C   0  0  1  0  0  0  0  0  0  0  0  0
  -25.3230  -31.3740   26.0800 C   0  0  0  0  0  1  0  0  0  0  0  0
  -27.0250  -30.3070   24.5930 C   0  0  0  0  0  1  0  0  0  0  0  0
  -27.5480  -32.4580   25.7100 C   0  0  0  0  0  1  0  0  0  0  0  0
  -25.5570  -33.8430   24.1290 N   0  0  0  0  0  0  0  0  0  0  0  0
  -25.8690  -34.9150   23.3890 C   0  0  0  0  0  0  0  0  0  0  0  0
  -26.5360  -34.8430   22.3520 O   0  0  0  0  0  0  0  0  0  0  0  0
  -24.9630  -33.9710   24.9350 H   0  0  0  0  0  0  0  0  0  0  0  0
  -24.1050  -36.6790   23.0810 C   0  0  0  0  0  1  0  0  0  0  0  0
  -25.3600  -36.2850   23.8760 C   0  0  0  0  0  3  0  0  0  0  0  0
  -27.4840  -37.1950   24.7060 C   0  0  0  0  0  1  0  0  0  0  0  0
  -26.3720  -37.3580   23.7740 N   0  0  0  0  0  0  0  0  0  0  0  0
  -25.9500  -38.2680   23.9400 H   0  0  0  0  0  0  0  0  0  0  0  0
  1  2  2  0
  2 13  1  0
  2  4  1  0
  3  1  1  0
  5  3  1  0
  5  7  1  0
  6  4  1  0
  7 53  1  0
  7  6  1  0
  7  8  1  1
  9 11  1  0
 10 12  2  0
 12 14  1  0
 13 10  1  0
 13  9  2  0
 14 11  2  0
 14 23  1  0
 15 23  1  0
 16 21  1  0
 17 18  1  0
 17 16  1  0
 19 18  1  0
 19 28  1  0
 19 20  1  0
 21 15  1  0
 21 20  1  0
 22 15  2  0
 23 24  1  0
 25 26  2  0
 26 45  1  0
 27 26  1  0
 27 30  1  0
 28 29  1  0
 28 25  1  0
 29 27  2  0
 30 31  1  0
 31 32  2  0
 33 36  1  0
 33 32  1  0
 34 33  2  0
 35 34  1  0
 35 30  2  0
 36 37  1  0
 37 42  2  0
 37 38  1  0
 38 39  2  0
 39 40  1  0
 40 44  1  0
 41 40  2  0
 42 41  1  0
 43 42  1  0
 45 46  1  0
 46 49  1  0
 46 48  1  0
 47 45  2  0
 50 51  1  0
 50 25  1  0
 52 50  1  0
 53 54  1  0
 55 57  1  0
 55 54  1  0
 56 67  2  0
 57 62  1  0
 58 66  1  0
 58 68  1  0
 59 65  1  0
 59 61  1  0
 60 66  1  0
 61 62  2  0
 61 60  1  0
 63 64  1  0
 63 57  2  0
 64 59  2  0
 65 58  1  0
 66 56  1  0
 68 70  2  0
 69 68  1  0
 71 69  1  0
 72 81  2  0
 72 77  1  0
 73 69  1  0
 73 77  1  0
 74 73  1  0
 75 76  1  0
 75 74  1  0
 76 72  1  0
 77 78  2  0
 78 79  1  0
 80 79  2  0
 81 80  1  0
 82 56  1  0
 82 87  1  0
 82 83  1  0
 83 86  1  1
 83 84  1  0
 85 83  1  0
 87 90  1  0
 88 92  1  0
 88 87  1  0
 89 88  2  0
 92 91  1  0
 94 92  1  0
 94 95  1  0
 94 93  1  0
M  ISO  4  15 100  23 100  54 101  55 101
M  END
>  <TORSDO>  (62) 
F 19

>  <SCORE>  (62) 
-14.018

>  <name>  (62) 
62

>  <ligand_id>  (62) 
62

>  <original_smiles>  (62) 
[H]C1=C(c2c([H])c([H])c(N([H])C(=O)N3C([H])([H])C([H])([H])C([H])([H])C([H])(n4nc(-c5c([H])c([H])c(Oc6c([H])c([H])c(F)c([H])c6F)c([H])c5[H])c(C(=O)N([H])[H])c4N([H])[H])C3([H])[H])c([H])c2[H])C([H])([H])C([H])([H])[N+]([H])(C([H])([H])C([H])([H])Oc2c([H])c([H])c3c(c2[H])C([H])([H])N(C(=O)C([H])(N([H])C(=O)C([H])(N([H])C([H])([H])[H])C([H])([H])[H])C(C([H])([H])[H])(C([H])([H])[H])C([H])([H])[H])C([H])(C(=O)N([H])C2([H])c4c([H])c([H])c([H])c([H])c4C([H])([H])C([H])([H])C2([H])[H])C3([H])[H])C([H])([H])C1([H])[H]

>  <smiles>  (62) 
[H]C1=C(c2c([H])c([H])c(N([H])C(=O)N3C([H])([H])C([H])([H])C([H])([H])C([H])(n4nc(-c5c([H])c([H])c(Oc6c([H])c([H])c(F)c([H])c6F)c([H])c5[H])c(C(=O)N([H])[H])c4N([H])[H])C3([H])[H])c([H])c2[H])C([H])([H])C([H])([H])[N+]([H])(C([H])([H])C([H])([H])Oc2c([H])c([H])c3c(c2[H])C([H])([H])N(C(=O)C([H])(N([H])C(=O)C([H])(N([H])C([H])([H])[H])C([H])([H])[H])C(C([H])([H])[H])(C([H])([H])[H])C([H])([H])[H])C([H])(C(=O)N([H])C2([H])c4c([H])c([H])c([H])c([H])c4C([H])([H])C([H])([H])C2([H])[H])C3([H])[H])C([H])([H])C1([H])[H]

$$$$
63:0:0
     RDKit          3D

 93102  0  0  1  0  0  0  0  0999 V2000
  -26.5390  -23.2720   21.5650 C   0  0  0  0  0  0  0  0  0  0  0  0
  -27.2050  -24.6570   21.5640 C   0  0  0  0  0  2  0  0  0  0  0  0
  -29.0090  -23.6520   20.0540 C   0  0  0  0  0  2  0  0  0  0  0  0
  -28.6880  -22.2310   20.8390 C   0  0  0  0  0  3  0  0  0  0  0  0
  -27.9520  -24.9150   20.2400 C   0  0  0  0  0  3  0  0  0  0  0  0
  -27.2630  -22.2120   21.1810 N   0  0  0  0  0  0  0  0  0  0  0  0
  -25.3630  -23.1550   21.9060 O   0  0  0  0  0  0  0  0  0  0  0  0
  -26.8110  -21.3070   21.2070 H   0  0  0  0  0  0  0  0  0  0  0  0
  -30.2960  -20.0530   21.1220 C   0  0  0  0  0  3  0  0  0  0  0  0
  -28.3990  -19.7850   19.7270 C   0  0  0  0  0  3  0  0  0  0  0  0
  -30.5530  -18.6210   21.0640 C   0  0  0  0  0  3  0  0  0  0  0  0
  -28.6450  -18.3610   19.6810 C   0  0  0  0  0  3  0  0  0  0  0  0
  -29.1870  -20.7120   20.4810 C   0  0  0  0  0  0  0  0  0  0  0  0
  -29.7150  -17.6920   20.3630 C   0  0  0  0  0  0  0  0  0  0  0  0
  -30.6260  -15.1030   20.3330 C   0  0  0  0  0  0  0  0  0  0  0  0
  -30.5550  -12.7700   19.3740 C   0  0  0  0  0  2  0  0  0  0  0  0
  -29.6120  -12.7440   18.1490 C   0  0  0  0  0  2  0  0  0  0  0  0
  -28.1490  -12.5260   18.5820 C   0  0  0  0  0  2  0  0  0  0  0  0
  -27.7400  -13.4390   19.7670 C   0  0  0  0  0  3  0  0  0  0  0  0
  -28.7970  -13.4210   20.8940 C   0  0  0  0  0  2  0  0  0  0  0  0
  -30.0770  -13.8320   20.2950 N   0  0  0  0  0  0  0  0  0  0  0  0
  -31.8220  -15.2490   20.0580 O   0  0  0  0  0  0  0  0  0  0  0  0
  -29.7270  -16.1770   20.4610 N   0  0  0  0  0  0  0  0  0  0  0  0
  -28.7950  -15.8050   20.5440 H   0  0  0  0  0  0  0  0  0  0  0  0
  -25.3540  -14.0070   20.5160 C   0  0  0  0  0  0  0  0  0  0  0  0
  -24.2940  -13.2230   20.8800 C   0  0  0  0  0  0  0  0  0  0  0  0
  -24.7650  -11.8750   20.8330 C   0  0  0  0  0  0  0  0  0  0  0  0
  -26.4010  -13.1350   20.2610 N   0  0  0  0  0  0  0  0  0  0  0  0
  -26.0560  -11.8490   20.5190 N   0  0  0  0  0  0  0  0  0  0  0  0
  -24.0470  -10.6060   21.0120 C   0  0  0  0  0  0  0  0  0  0  0  0
  -24.4550   -9.6550   21.9740 C   0  0  0  0  0  3  0  0  0  0  0  0
  -23.7370   -8.4510   22.1390 C   0  0  0  0  0  3  0  0  0  0  0  0
  -22.5970   -8.1910   21.3430 C   0  0  0  0  0  0  0  0  0  0  0  0
  -22.2070   -9.1300   20.3730 C   0  0  0  0  0  3  0  0  0  0  0  0
  -22.9250  -10.3250   20.2070 C   0  0  0  0  0  3  0  0  0  0  0  0
  -21.8530   -7.0370   21.4130 O   0  0  0  0  0  0  0  0  0  0  0  0
  -21.7240   -6.3360   22.5840 C   0  0  0  0  0  0  0  0  0  0  0  0
  -21.1550   -6.9150   23.7410 C   0  0  0  0  0  3  0  0  0  0  0  0
  -20.9790   -6.1380   24.9020 C   0  0  0  0  0  3  0  0  0  0  0  0
  -21.3620   -4.7820   24.9100 C   0  0  0  0  0  0  0  0  0  0  0  0
  -21.9210   -4.2020   23.7570 C   0  0  0  0  0  3  0  0  0  0  0  0
  -22.0990   -4.9770   22.5960 C   0  0  0  0  0  0  0  0  0  0  0  0
  -22.6210   -4.4100   21.4830 F   0  0  0  0  0  0  0  0  0  0  0  0
  -21.1850   -4.0330   26.0210 F   0  0  0  0  0  0  0  0  0  0  0  0
  -22.8920  -13.6900   21.1550 C   0  0  0  0  0  0  0  0  0  0  0  0
  -22.1670  -12.9800   22.0120 N   0  0  0  0  0  0  0  0  0  0  0  0
  -22.4500  -14.7190   20.6450 O   0  0  0  0  0  0  0  0  0  0  0  0
  -22.5370  -12.1470   22.4470 H   0  0  0  0  0  0  0  0  0  0  0  0
  -21.2310  -13.2810   22.2440 H   0  0  0  0  0  0  0  0  0  0  0  0
  -25.5080  -15.3820   20.3520 N   0  0  0  0  0  0  0  0  0  0  0  0
  -24.7210  -16.0170   20.4380 H   0  0  0  0  0  0  0  0  0  0  0  0
  -26.3120  -15.8160   19.9210 H   0  0  0  0  0  0  0  0  0  0  0  0
  -28.2440  -26.4280   20.1170 O   0  0  0  0  0  0  0  0  0  0  0  0
  -24.5720  -31.9620   23.2310 C   0  0  0  0  0  0  0  0  0  0  0  0
  -27.1680  -27.3760   20.0780 C   0  0  0  0  0  0  0  0  0  0  0  0
  -23.3680  -30.5930   21.5750 C   0  0  0  0  0  3  0  0  0  0  0  0
  -24.8170  -29.0710   20.1040 C   0  0  0  0  0  0  0  0  0  0  0  0
  -25.9160  -30.8950   21.3900 C   0  0  0  0  0  2  0  0  0  0  0  0
  -25.9970  -29.5220   20.7110 C   0  0  0  0  0  0  0  0  0  0  0  0
  -27.1730  -28.6880   20.6840 C   0  0  0  0  0  3  0  0  0  0  0  0
  -25.9630  -27.0240   19.4240 C   0  0  0  0  0  3  0  0  0  0  0  0
  -24.8110  -27.8340   19.4470 C   0  0  0  0  0  3  0  0  0  0  0  0
  -23.5810  -29.9480   20.1790 C   0  0  0  0  0  2  0  0  0  0  0  0
  -24.6380  -31.1700   22.1200 N   0  0  0  0  0  0  0  0  0  0  0  0
  -23.4900  -32.2250   23.7770 O   0  0  0  0  0  0  0  0  0  0  0  0
  -22.7130  -29.5560   22.5190 C   0  0  0  0  0  0  0  0  0  0  0  0
  -21.3910  -29.3590   22.3870 N   0  0  0  0  0  0  0  0  0  0  0  0
  -23.3970  -28.9290   23.3330 O   0  0  0  0  0  0  0  0  0  0  0  0
  -20.8950  -29.9170   21.7060 H   0  0  0  0  0  0  0  0  0  0  0  0
  -18.0320  -28.0980   22.8600 C   0  0  0  0  0  0  0  0  0  0  0  0
  -20.5830  -28.3980   23.1410 C   0  0  0  0  0  3  0  0  0  0  0  0
  -20.7120  -26.9760   22.5450 C   0  0  0  0  0  2  0  0  0  0  0  0
  -19.6180  -26.6510   21.5220 C   0  0  0  0  0  2  0  0  0  0  0  0
  -18.2310  -26.7660   22.1590 C   0  0  0  0  0  2  0  0  0  0  0  0
  -19.1350  -28.8730   23.3060 C   0  0  0  0  0  0  0  0  0  0  0  0
  -18.8900  -30.1240   23.9130 C   0  0  0  0  0  3  0  0  0  0  0  0
  -17.5760  -30.5990   24.0840 C   0  0  0  0  0  3  0  0  0  0  0  0
  -16.4860  -29.8200   23.6540 C   0  0  0  0  0  3  0  0  0  0  0  0
  -16.7150  -28.5720   23.0480 C   0  0  0  0  0  3  0  0  0  0  0  0
  -25.8530  -32.5940   23.8570 C   0  0  0  0  0  3  0  0  0  0  0  0
  -25.5450  -33.9910   24.1890 N   0  0  0  0  0  0  0  0  0  0  0  0
  -25.8670  -35.0470   23.4290 C   0  0  0  0  0  0  0  0  0  0  0  0
  -26.5250  -34.9440   22.3900 O   0  0  0  0  0  0  0  0  0  0  0  0
  -24.9600  -34.1430   24.9970 H   0  0  0  0  0  0  0  0  0  0  0  0
  -24.1370  -36.8440   23.0930 C   0  0  0  0  0  1  0  0  0  0  0  0
  -25.3850  -36.4360   23.8930 C   0  0  0  0  0  3  0  0  0  0  0  0
  -27.5220  -37.3260   24.7140 C   0  0  0  0  0  1  0  0  0  0  0  0
  -26.4160  -37.4890   23.7730 N   0  0  0  0  0  0  0  0  0  0  0  0
  -26.0100  -38.4100   23.9160 H   0  0  0  0  0  0  0  0  0  0  0  0
  -26.3620  -31.8220   25.1370 C   0  0  1  0  0  0  0  0  0  0  0  0
  -25.2640  -31.5900   26.2010 C   0  0  0  0  0  1  0  0  0  0  0  0
  -26.9420  -30.4410   24.7530 C   0  0  0  0  0  1  0  0  0  0  0  0
  -27.5120  -32.6130   25.8020 C   0  0  0  0  0  1  0  0  0  0  0  0
  1  7  2  0
  2  1  1  0
  3  5  1  0
  3  4  1  0
  4 13  1  0
  4  6  1  0
  5 53  1  0
  5  2  1  0
  6  8  1  0
  6  1  1  0
 10 13  1  0
 11  9  1  0
 12 10  2  0
 12 14  1  0
 13  9  2  0
 14 23  1  0
 14 11  2  0
 15 23  1  0
 16 21  1  0
 17 18  1  0
 17 16  1  0
 19 18  1  0
 19 28  1  0
 19 20  1  0
 21 15  1  0
 21 20  1  0
 22 15  2  0
 23 24  1  0
 25 26  2  0
 26 45  1  0
 27 26  1  0
 27 30  1  0
 28 25  1  0
 28 29  1  0
 29 27  2  0
 30 31  1  0
 31 32  2  0
 33 36  1  0
 33 32  1  0
 34 33  2  0
 35 34  1  0
 35 30  2  0
 36 37  1  0
 37 42  2  0
 37 38  1  0
 38 39  2  0
 39 40  1  0
 40 44  1  0
 41 40  2  0
 42 41  1  0
 43 42  1  0
 45 46  1  0
 46 49  1  0
 46 48  1  0
 47 45  2  0
 50 51  1  0
 50 25  1  0
 52 50  1  0
 54 65  2  0
 55 53  1  0
 55 60  1  0
 56 64  1  0
 56 66  1  0
 57 63  1  0
 57 59  1  0
 58 64  1  0
 59 58  1  0
 60 59  2  0
 61 62  1  0
 61 55  2  0
 62 57  2  0
 63 56  1  0
 64 54  1  0
 66 68  2  0
 67 66  1  0
 69 67  1  0
 70 79  2  0
 70 75  1  0
 71 67  1  0
 71 75  1  0
 72 71  1  0
 73 74  1  0
 73 72  1  0
 74 70  1  0
 75 76  2  0
 76 77  1  0
 78 77  2  0
 79 78  1  0
 80 54  1  0
 80 81  1  0
 80 90  1  0
 81 84  1  0
 82 86  1  0
 82 81  1  0
 83 82  2  0
 86 85  1  0
 88 86  1  0
 88 89  1  0
 88 87  1  0
 90 93  1  1
 90 91  1  0
 92 90  1  0
M  ISO  4   5 101  15 100  23 100  53 101
M  END
>  <TORSDO>  (63) 
F 17

>  <SCORE>  (63) 
-15.586

>  <name>  (63) 
63

>  <ligand_id>  (63) 
63

>  <original_smiles>  (63) 
[H]c1c([H])c([H])c2c(c1[H])C([H])([H])C([H])([H])C([H])([H])C2([H])N([H])C(=O)C1([H])N(C(=O)C([H])(N([H])C(=O)C([H])(N([H])C([H])([H])[H])C([H])([H])[H])C(C([H])([H])[H])(C([H])([H])[H])C([H])([H])[H])C([H])([H])c2c([H])c(OC3([H])C([H])([H])C(=O)N([H])C([H])(c4c([H])c([H])c(N([H])C(=O)N5C([H])([H])C([H])([H])C([H])([H])C([H])(n6nc(-c7c([H])c([H])c(Oc8c([H])c([H])c(F)c([H])c8F)c([H])c7[H])c(C(=O)N([H])[H])c6N([H])[H])C5([H])[H])c([H])c4[H])C3([H])[H])c([H])c([H])c2C1([H])[H]

>  <smiles>  (63) 
[H]c1c([H])c([H])c2c(c1[H])C([H])([H])C([H])([H])C([H])([H])C2([H])N([H])C(=O)C1([H])N(C(=O)C([H])(N([H])C(=O)C([H])(N([H])C([H])([H])[H])C([H])([H])[H])C(C([H])([H])[H])(C([H])([H])[H])C([H])([H])[H])C([H])([H])c2c([H])c(OC3([H])C([H])([H])C(=O)N([H])C([H])(c4c([H])c([H])c(N([H])C(=O)N5C([H])([H])C([H])([H])C([H])([H])C([H])(n6nc(-c7c([H])c([H])c(Oc8c([H])c([H])c(F)c([H])c8F)c([H])c7[H])c(C(=O)N([H])[H])c6N([H])[H])C5([H])[H])c([H])c4[H])C3([H])[H])c([H])c([H])c2C1([H])[H]

$$$$
64:0:0
     RDKit          3D

 94103  0  0  1  0  0  0  0  0999 V2000
  -30.8640  -14.7140   20.3670 C   0  0  0  0  0  0  0  0  0  0  0  0
  -30.5710  -12.4350   19.4220 C   0  0  0  0  0  2  0  0  0  0  0  0
  -29.6660  -12.5050   18.1750 C   0  0  0  0  0  2  0  0  0  0  0  0
  -28.1820  -12.3960   18.5770 C   0  0  0  0  0  2  0  0  0  0  0  0
  -27.8070  -13.3490   19.7430 C   0  0  0  0  0  3  0  0  0  0  0  0
  -28.8380  -13.2820   20.8920 C   0  0  0  0  0  2  0  0  0  0  0  0
  -30.1650  -13.5370   20.3150 N   0  0  0  0  0  0  0  0  0  0  0  0
  -32.0650  -14.7520   20.0800 O   0  0  0  0  0  0  0  0  0  0  0  0
  -28.1800  -20.5380   20.7170 C   0  0  0  0  0  0  0  0  0  0  0  0
  -29.7540  -17.9760   19.1120 C   0  0  0  0  0  2  0  0  0  0  0  0
  -30.8930  -18.2870   21.2540 C   0  0  0  0  0  2  0  0  0  0  0  0
  -30.3610  -20.4510   19.8420 C   0  0  0  0  0  2  0  0  0  0  0  0
  -29.3320  -16.5290   19.5480 C   0  0  0  0  0  2  0  0  0  0  0  0
  -30.5070  -16.8280   21.6850 C   0  0  0  0  0  2  0  0  0  0  0  0
  -29.0920  -21.3770   19.8240 C   0  0  0  0  0  3  0  0  0  0  0  0
  -29.9140  -18.9940   20.2740 C   0  0  1  0  0  0  0  0  0  0  0  0
  -28.6260  -19.2870   20.8920 N   0  0  0  0  0  0  0  0  0  0  0  0
  -30.1690  -15.8840   20.5910 N   0  0  0  0  0  0  0  0  0  0  0  0
  -27.1640  -21.0000   21.2380 O   0  0  0  0  0  0  0  0  0  0  0  0
  -28.1420  -18.6130   21.4670 H   0  0  0  0  0  0  0  0  0  0  0  0
  -25.4270  -14.0530   20.3950 C   0  0  0  0  0  0  0  0  0  0  0  0
  -24.3260  -13.3300   20.7620 C   0  0  0  0  0  0  0  0  0  0  0  0
  -24.7430  -11.9630   20.7850 C   0  0  0  0  0  0  0  0  0  0  0  0
  -26.4440  -13.1300   20.2130 N   0  0  0  0  0  0  0  0  0  0  0  0
  -26.0370  -11.8700   20.5110 N   0  0  0  0  0  0  0  0  0  0  0  0
  -23.9710  -10.7340   20.9960 C   0  0  0  0  0  0  0  0  0  0  0  0
  -24.3900   -9.7480   21.9160 C   0  0  0  0  0  3  0  0  0  0  0  0
  -23.6210   -8.5810   22.1140 C   0  0  0  0  0  3  0  0  0  0  0  0
  -22.4180   -8.3940   21.3940 C   0  0  0  0  0  0  0  0  0  0  0  0
  -22.0160   -9.3680   20.4620 C   0  0  0  0  0  3  0  0  0  0  0  0
  -22.7870  -10.5260   20.2610 C   0  0  0  0  0  3  0  0  0  0  0  0
  -21.6200   -7.2810   21.5020 O   0  0  0  0  0  0  0  0  0  0  0  0
  -21.6410   -6.4870   22.6200 C   0  0  0  0  0  0  0  0  0  0  0  0
  -21.3800   -7.0050   23.9070 C   0  0  0  0  0  3  0  0  0  0  0  0
  -21.3430   -6.1410   25.0210 C   0  0  0  0  0  3  0  0  0  0  0  0
  -21.5570   -4.7600   24.8480 C   0  0  0  0  0  0  0  0  0  0  0  0
  -21.8130   -4.2430   23.5660 C   0  0  0  0  0  3  0  0  0  0  0  0
  -21.8520   -5.1030   22.4550 C   0  0  0  0  0  0  0  0  0  0  0  0
  -22.0770   -4.5960   21.2200 F   0  0  0  0  0  0  0  0  0  0  0  0
  -21.5150   -3.9290   25.9150 F   0  0  0  0  0  0  0  0  0  0  0  0
  -22.9400  -13.8640   20.9820 C   0  0  0  0  0  0  0  0  0  0  0  0
  -22.1800  -13.2440   21.8790 N   0  0  0  0  0  0  0  0  0  0  0  0
  -22.5410  -14.8670   20.3930 O   0  0  0  0  0  0  0  0  0  0  0  0
  -22.5150  -12.4340   22.3790 H   0  0  0  0  0  0  0  0  0  0  0  0
  -21.2490  -13.5860   22.0670 H   0  0  0  0  0  0  0  0  0  0  0  0
  -25.6400  -15.4120   20.1780 N   0  0  0  0  0  0  0  0  0  0  0  0
  -24.8920  -16.0940   20.2490 H   0  0  0  0  0  0  0  0  0  0  0  0
  -26.5100  -15.8110   19.8540 H   0  0  0  0  0  0  0  0  0  0  0  0
  -29.1980  -22.7870   20.3670 N   0  0  0  0  0  4  0  0  0  0  0  0
  -30.0720  -22.8930   20.8560 H   0  0  0  0  0  0  0  0  0  0  0  0
  -28.4780  -22.7750   21.0770 H   0  0  0  0  0  0  0  0  0  0  0  0
  -28.9250  -23.9930   19.4800 C   0  0  0  0  0  2  0  0  0  0  0  0
  -28.5470  -25.3260   20.2620 C   0  0  0  0  0  2  0  0  0  0  0  0
  -28.5520  -26.6180   19.5560 O   0  0  0  0  0  0  0  0  0  0  0  0
  -24.6300  -31.5680   23.0250 C   0  0  0  0  0  0  0  0  0  0  0  0
  -27.3960  -27.3940   19.6230 C   0  0  0  0  0  0  0  0  0  0  0  0
  -23.4750  -30.2840   21.2590 C   0  0  0  0  0  3  0  0  0  0  0  0
  -24.9800  -28.8980   19.7240 C   0  0  0  0  0  0  0  0  0  0  0  0
  -26.0010  -30.6990   21.1220 C   0  0  0  0  0  2  0  0  0  0  0  0
  -26.1260  -29.3830   20.3660 C   0  0  0  0  0  0  0  0  0  0  0  0
  -27.3410  -28.6450   20.3030 C   0  0  0  0  0  3  0  0  0  0  0  0
  -26.2300  -26.9440   18.9700 C   0  0  0  0  0  3  0  0  0  0  0  0
  -25.0310  -27.6840   19.0170 C   0  0  0  0  0  3  0  0  0  0  0  0
  -23.7160  -29.7280   19.8290 C   0  0  0  0  0  2  0  0  0  0  0  0
  -24.7190  -30.8620   21.8620 N   0  0  0  0  0  0  0  0  0  0  0  0
  -23.5370  -31.7690   23.5740 O   0  0  0  0  0  0  0  0  0  0  0  0
  -22.8360  -29.1720   22.1240 C   0  0  0  0  0  0  0  0  0  0  0  0
  -21.5030  -29.0250   22.0300 N   0  0  0  0  0  0  0  0  0  0  0  0
  -23.5360  -28.4460   22.8370 O   0  0  0  0  0  0  0  0  0  0  0  0
  -20.9990  -29.6620   21.4300 H   0  0  0  0  0  0  0  0  0  0  0  0
  -18.1220  -27.8660   22.5750 C   0  0  0  0  0  0  0  0  0  0  0  0
  -20.6990  -28.0160   22.7190 C   0  0  0  0  0  3  0  0  0  0  0  0
  -20.7180  -26.6720   21.9560 C   0  0  0  0  0  2  0  0  0  0  0  0
  -19.5490  -26.5160   20.9780 C   0  0  0  0  0  2  0  0  0  0  0  0
  -18.2120  -26.6140   21.7180 C   0  0  0  0  0  2  0  0  0  0  0  0
  -19.2900  -28.5330   23.0310 C   0  0  0  0  0  0  0  0  0  0  0  0
  -19.1500  -29.7120   23.7950 C   0  0  0  0  0  3  0  0  0  0  0  0
  -17.8750  -30.2230   24.1040 C   0  0  0  0  0  3  0  0  0  0  0  0
  -16.7230  -29.5500   23.6620 C   0  0  0  0  0  3  0  0  0  0  0  0
  -16.8470  -28.3720   22.9030 C   0  0  0  0  0  3  0  0  0  0  0  0
  -25.8930  -32.1770   23.7120 C   0  0  0  0  0  3  0  0  0  0  0  0
  -25.5470  -33.5360   24.1510 N   0  0  0  0  0  0  0  0  0  0  0  0
  -25.8710  -34.6560   23.4910 C   0  0  0  0  0  0  0  0  0  0  0  0
  -26.5620  -34.6520   22.4690 O   0  0  0  0  0  0  0  0  0  0  0  0
  -24.9340  -33.6100   24.9510 H   0  0  0  0  0  0  0  0  0  0  0  0
  -24.1050  -36.4320   23.2600 C   0  0  0  0  0  1  0  0  0  0  0  0
  -25.3460  -35.9900   24.0540 C   0  0  0  0  0  3  0  0  0  0  0  0
  -27.4490  -36.8520   24.9830 C   0  0  0  0  0  1  0  0  0  0  0  0
  -26.3540  -37.0720   24.0400 N   0  0  0  0  0  0  0  0  0  0  0  0
  -25.9260  -37.9680   24.2550 H   0  0  0  0  0  0  0  0  0  0  0  0
  -26.4150  -31.3160   24.9270 C   0  0  1  0  0  0  0  0  0  0  0  0
  -25.3210  -30.9780   25.9660 C   0  0  0  0  0  1  0  0  0  0  0  0
  -27.0230  -29.9830   24.4300 C   0  0  0  0  0  1  0  0  0  0  0  0
  -27.5500  -32.0740   25.6570 C   0  0  0  0  0  1  0  0  0  0  0  0
  1 18  1  0
  2  7  1  0
  3  4  1  0
  3  2  1  0
  5  4  1  0
  5 24  1  0
  5  6  1  0
  7  1  1  0
  7  6  1  0
  8  1  2  0
  9 17  1  0
  9 19  2  0
 10 13  1  0
 11 14  1  0
 16 12  1  6
 13 18  1  0
 15 12  1  0
 15 49  1  0
 15  9  1  0
 16 10  1  0
 16 17  1  0
 16 11  1  0
 17 20  1  0
 18 14  1  0
 21 22  2  0
 22 23  1  0
 22 41  1  0
 23 26  1  0
 24 21  1  0
 24 25  1  0
 25 23  2  0
 26 27  1  0
 27 28  2  0
 29 32  1  0
 29 28  1  0
 30 29  2  0
 31 30  1  0
 31 26  2  0
 32 33  1  0
 33 34  1  0
 34 35  2  0
 36 35  1  0
 36 40  1  0
 37 36  2  0
 38 33  2  0
 38 37  1  0
 39 38  1  0
 41 42  1  0
 42 45  1  0
 42 44  1  0
 43 41  2  0
 46 47  1  0
 46 21  1  0
 48 46  1  0
 49 50  1  0
 49 51  1  0
 52 53  1  0
 52 49  1  0
 54 56  1  0
 54 53  1  0
 55 66  2  0
 56 61  1  0
 57 65  1  0
 57 67  1  0
 58 64  1  0
 58 60  1  0
 59 65  1  0
 60 59  1  0
 61 60  2  0
 62 63  1  0
 62 56  2  0
 63 58  2  0
 64 57  1  0
 65 55  1  0
 67 69  2  0
 68 67  1  0
 70 68  1  0
 71 80  2  0
 71 76  1  0
 72 68  1  0
 72 76  1  0
 73 72  1  0
 74 75  1  0
 74 73  1  0
 75 71  1  0
 76 77  2  0
 77 78  1  0
 79 78  2  0
 80 79  1  0
 81 55  1  0
 81 82  1  0
 81 91  1  0
 82 85  1  0
 83 87  1  0
 83 82  1  0
 84 83  2  0
 87 86  1  0
 89 87  1  0
 89 90  1  0
 89 88  1  0
 91 94  1  1
 91 92  1  0
 93 91  1  0
M  ISO  4   1 100  18 100  53 101  54 101
M  END
>  <TORSDO>  (64) 
F 18

>  <SCORE>  (64) 
-13.244

>  <name>  (64) 
64

>  <ligand_id>  (64) 
64

>  <original_smiles>  (64) 
[H]c1c([H])c([H])c2c(c1[H])C([H])([H])C([H])([H])C([H])([H])C2([H])N([H])C(=O)C1([H])N(C(=O)C([H])(N([H])C(=O)C([H])(N([H])C([H])([H])[H])C([H])([H])[H])C(C([H])([H])[H])(C([H])([H])[H])C([H])([H])[H])C([H])([H])c2c([H])c(OC([H])([H])C([H])([H])[N+]([H])([H])C3([H])C(=O)N([H])C4(C([H])([H])C([H])([H])N(C(=O)N5C([H])([H])C([H])([H])C([H])([H])C([H])(n6nc(-c7c([H])c([H])c(Oc8c([H])c([H])c(F)c([H])c8F)c([H])c7[H])c(C(=O)N([H])[H])c6N([H])[H])C5([H])[H])C([H])([H])C4([H])[H])C3([H])[H])c([H])c([H])c2C1([H])[H]

>  <smiles>  (64) 
[H]c1c([H])c([H])c2c(c1[H])C([H])([H])C([H])([H])C([H])([H])C2([H])N([H])C(=O)C1([H])N(C(=O)C([H])(N([H])C(=O)C([H])(N([H])C([H])([H])[H])C([H])([H])[H])C(C([H])([H])[H])(C([H])([H])[H])C([H])([H])[H])C([H])([H])c2c([H])c(OC([H])([H])C([H])([H])[N+]([H])([H])C3([H])C(=O)N([H])C4(C([H])([H])C([H])([H])N(C(=O)N5C([H])([H])C([H])([H])C([H])([H])C([H])(n6nc(-c7c([H])c([H])c(Oc8c([H])c([H])c(F)c([H])c8F)c([H])c7[H])c(C(=O)N([H])[H])c6N([H])[H])C5([H])[H])C([H])([H])C4([H])[H])C3([H])[H])c([H])c([H])c2C1([H])[H]

$$$$
65:0:0
     RDKit          3D

 93101  0  0  1  0  0  0  0  0999 V2000
  -30.5400  -20.7700   20.4880 C   0  0  0  0  0  0  0  0  0  0  0  0
  -28.3540  -18.8260   20.4400 C   0  0  0  0  0  0  0  0  0  0  0  0
  -29.0740  -21.2500   20.6440 C   0  0  0  0  0  3  0  0  0  0  0  0
  -29.8090  -18.3500   20.7090 C   0  0  0  0  0  3  0  0  0  0  0  0
  -28.1090  -20.1550   20.3880 N   0  0  0  0  0  0  0  0  0  0  0  0
  -30.7850  -19.4430   20.4990 N   0  0  0  0  0  0  0  0  0  0  0  0
  -31.4550  -21.5780   20.3440 O   0  0  0  0  0  0  0  0  0  0  0  0
  -27.4540  -18.0060   20.2610 O   0  0  0  0  0  0  0  0  0  0  0  0
  -27.1570  -20.4290   20.1990 H   0  0  0  0  0  0  0  0  0  0  0  0
  -31.7450  -19.1580   20.3830 H   0  0  0  0  0  0  0  0  0  0  0  0
  -28.6360  -22.5730   19.8990 C   0  0  0  0  0  2  0  0  0  0  0  0
  -29.0510  -23.9970   20.4350 C   0  0  0  0  0  2  0  0  0  0  0  0
  -28.0870  -25.1160   19.9080 C   0  0  0  0  0  2  0  0  0  0  0  0
  -28.3130  -26.5300   20.2180 O   0  0  0  0  0  0  0  0  0  0  0  0
  -24.5850  -31.8770   23.2380 C   0  0  0  0  0  0  0  0  0  0  0  0
  -27.1900  -27.3620   20.1510 C   0  0  0  0  0  0  0  0  0  0  0  0
  -23.3770  -30.4870   21.5940 C   0  0  0  0  0  3  0  0  0  0  0  0
  -24.8210  -28.9530   20.1570 C   0  0  0  0  0  0  0  0  0  0  0  0
  -25.9150  -30.8070   21.4130 C   0  0  0  0  0  2  0  0  0  0  0  0
  -25.9900  -29.4380   20.7580 C   0  0  0  0  0  0  0  0  0  0  0  0
  -27.1760  -28.6510   20.7510 C   0  0  0  0  0  3  0  0  0  0  0  0
  -25.9990  -26.9310   19.5120 C   0  0  0  0  0  3  0  0  0  0  0  0
  -24.8260  -27.7010   19.5280 C   0  0  0  0  0  3  0  0  0  0  0  0
  -23.5840  -29.8220   20.2110 C   0  0  0  0  0  2  0  0  0  0  0  0
  -24.6430  -31.0750   22.1370 N   0  0  0  0  0  0  0  0  0  0  0  0
  -23.5030  -32.1560   23.7740 O   0  0  0  0  0  0  0  0  0  0  0  0
  -22.7190  -29.4630   22.5490 C   0  0  0  0  0  0  0  0  0  0  0  0
  -21.3930  -29.2850   22.4210 N   0  0  0  0  0  0  0  0  0  0  0  0
  -23.3980  -28.8330   23.3640 O   0  0  0  0  0  0  0  0  0  0  0  0
  -20.9050  -29.8450   21.7350 H   0  0  0  0  0  0  0  0  0  0  0  0
  -18.0120  -28.1040   22.9320 C   0  0  0  0  0  0  0  0  0  0  0  0
  -20.5730  -28.3490   23.1910 C   0  0  0  0  0  3  0  0  0  0  0  0
  -20.6640  -26.9190   22.6090 C   0  0  0  0  0  2  0  0  0  0  0  0
  -19.5560  -26.6050   21.5990 C   0  0  0  0  0  2  0  0  0  0  0  0
  -18.1770  -26.7570   22.2490 C   0  0  0  0  0  2  0  0  0  0  0  0
  -19.1370  -28.8590   23.3590 C   0  0  0  0  0  0  0  0  0  0  0  0
  -18.9290  -30.1210   23.9570 C   0  0  0  0  0  3  0  0  0  0  0  0
  -17.6280  -30.6290   24.1300 C   0  0  0  0  0  3  0  0  0  0  0  0
  -16.5160  -29.8710   23.7190 C   0  0  0  0  0  3  0  0  0  0  0  0
  -16.7090  -28.6100   23.1280 C   0  0  0  0  0  3  0  0  0  0  0  0
  -25.8720  -32.5050   23.8570 C   0  0  0  0  0  3  0  0  0  0  0  0
  -26.3860  -31.7360   25.1360 C   0  0  1  0  0  0  0  0  0  0  0  0
  -25.2930  -31.4970   26.2030 C   0  0  0  0  0  1  0  0  0  0  0  0
  -26.9720  -30.3590   24.7480 C   0  0  0  0  0  1  0  0  0  0  0  0
  -27.5370  -32.5320   25.7960 C   0  0  0  0  0  1  0  0  0  0  0  0
  -25.5670  -33.9050   24.1850 N   0  0  0  0  0  0  0  0  0  0  0  0
  -25.9020  -34.9560   23.4230 C   0  0  0  0  0  0  0  0  0  0  0  0
  -26.5710  -34.8470   22.3920 O   0  0  0  0  0  0  0  0  0  0  0  0
  -24.9760  -34.0640   24.9870 H   0  0  0  0  0  0  0  0  0  0  0  0
  -24.1820  -36.7520   23.0570 C   0  0  0  0  0  1  0  0  0  0  0  0
  -25.4170  -36.3450   23.8770 C   0  0  0  0  0  3  0  0  0  0  0  0
  -27.5480  -37.2190   24.7230 C   0  0  0  0  0  1  0  0  0  0  0  0
  -26.4540  -37.3930   23.7710 N   0  0  0  0  0  0  0  0  0  0  0  0
  -26.0520  -38.3150   23.9190 H   0  0  0  0  0  0  0  0  0  0  0  0
  -30.3110  -17.0400   19.9800 C   0  0  0  0  0  2  0  0  0  0  0  0
  -30.6820  -14.5690   20.2450 C   0  0  0  0  0  0  0  0  0  0  0  0
  -30.3570  -12.3950   19.1290 C   0  0  0  0  0  2  0  0  0  0  0  0
  -29.3930  -12.5880   17.9390 C   0  0  0  0  0  2  0  0  0  0  0  0
  -27.9270  -12.4590   18.3970 C   0  0  0  0  0  2  0  0  0  0  0  0
  -27.6160  -13.2920   19.6700 C   0  0  0  0  0  3  0  0  0  0  0  0
  -28.6950  -13.0900   20.7590 C   0  0  0  0  0  2  0  0  0  0  0  0
  -30.0010  -13.3910   20.1570 N   0  0  0  0  0  0  0  0  0  0  0  0
  -31.8440  -14.6730   19.8460 O   0  0  0  0  0  0  0  0  0  0  0  0
  -29.9560  -15.6870   20.5160 N   0  0  0  0  0  0  0  0  0  0  0  0
  -29.0060  -15.5490   20.8300 H   0  0  0  0  0  0  0  0  0  0  0  0
  -25.2310  -13.8930   20.4150 C   0  0  0  0  0  0  0  0  0  0  0  0
  -24.1690  -13.1190   20.7990 C   0  0  0  0  0  0  0  0  0  0  0  0
  -24.6320  -11.7690   20.7690 C   0  0  0  0  0  0  0  0  0  0  0  0
  -26.2740  -13.0130   20.1750 N   0  0  0  0  0  0  0  0  0  0  0  0
  -25.9200  -11.7310   20.4480 N   0  0  0  0  0  0  0  0  0  0  0  0
  -23.9090  -10.5070   20.9730 C   0  0  0  0  0  0  0  0  0  0  0  0
  -24.3480   -9.5460   21.9110 C   0  0  0  0  0  3  0  0  0  0  0  0
  -23.6260   -8.3490   22.1000 C   0  0  0  0  0  3  0  0  0  0  0  0
  -22.4490   -8.1050   21.3520 C   0  0  0  0  0  0  0  0  0  0  0  0
  -22.0290   -9.0540   20.4040 C   0  0  0  0  0  3  0  0  0  0  0  0
  -22.7530  -10.2410   20.2130 C   0  0  0  0  0  3  0  0  0  0  0  0
  -21.6960   -6.9600   21.4530 O   0  0  0  0  0  0  0  0  0  0  0  0
  -21.6490   -6.2270   22.6120 C   0  0  0  0  0  0  0  0  0  0  0  0
  -21.2180   -6.7900   23.8320 C   0  0  0  0  0  3  0  0  0  0  0  0
  -21.1190   -5.9840   24.9840 C   0  0  0  0  0  3  0  0  0  0  0  0
  -21.4420   -4.6150   24.9160 C   0  0  0  0  0  0  0  0  0  0  0  0
  -21.8680   -4.0520   23.7010 C   0  0  0  0  0  3  0  0  0  0  0  0
  -21.9670   -4.8550   22.5510 C   0  0  0  0  0  0  0  0  0  0  0  0
  -22.3570   -4.3020   21.3780 F   0  0  0  0  0  0  0  0  0  0  0  0
  -21.3410   -3.8390   26.0200 F   0  0  0  0  0  0  0  0  0  0  0  0
  -22.7750  -13.5980   21.0870 C   0  0  0  0  0  0  0  0  0  0  0  0
  -22.0600  -12.9030   21.9650 N   0  0  0  0  0  0  0  0  0  0  0  0
  -22.3300  -14.6210   20.5700 O   0  0  0  0  0  0  0  0  0  0  0  0
  -22.4350  -12.0750   22.4040 H   0  0  0  0  0  0  0  0  0  0  0  0
  -21.1270  -13.2060   22.2040 H   0  0  0  0  0  0  0  0  0  0  0  0
  -25.3900  -15.2630   20.2290 N   0  0  0  0  0  0  0  0  0  0  0  0
  -24.6260  -15.9150   20.3610 H   0  0  0  0  0  0  0  0  0  0  0  0
  -26.2420  -15.7230   19.9280 H   0  0  0  0  0  0  0  0  0  0  0  0
  1  6  1  0
  1  3  1  0
  2  4  1  0
  3 11  1  0
  4 55  1  0
  5  2  1  0
  5  3  1  0
  6  4  1  0
  7  1  2  0
  8  2  2  0
  9  5  1  0
 10  6  1  0
 11 12  1  0
 13 14  1  0
 13 12  1  0
 15 26  2  0
 16 14  1  0
 16 21  1  0
 17 25  1  0
 17 27  1  0
 18 24  1  0
 18 20  1  0
 19 25  1  0
 20 19  1  0
 21 20  2  0
 22 23  1  0
 22 16  2  0
 23 18  2  0
 24 17  1  0
 25 15  1  0
 27 29  2  0
 28 27  1  0
 30 28  1  0
 31 40  2  0
 31 36  1  0
 32 28  1  0
 32 36  1  0
 33 32  1  0
 34 35  1  0
 34 33  1  0
 35 31  1  0
 36 37  2  0
 37 38  1  0
 39 38  2  0
 40 39  1  0
 41 15  1  0
 41 46  1  0
 41 42  1  0
 42 45  1  1
 42 43  1  0
 44 42  1  0
 46 49  1  0
 47 51  1  0
 47 46  1  0
 48 47  2  0
 51 50  1  0
 53 51  1  0
 53 54  1  0
 53 52  1  0
 55 64  1  0
 56 64  1  0
 57 62  1  0
 58 59  1  0
 58 57  1  0
 60 59  1  0
 60 69  1  0
 60 61  1  0
 62 56  1  0
 62 61  1  0
 63 56  2  0
 64 65  1  0
 66 67  2  0
 67 86  1  0
 68 67  1  0
 68 71  1  0
 69 66  1  0
 69 70  1  0
 70 68  2  0
 71 72  1  0
 72 73  2  0
 74 77  1  0
 74 73  1  0
 75 74  2  0
 76 75  1  0
 76 71  2  0
 77 78  1  0
 78 79  1  0
 79 80  2  0
 81 80  1  0
 81 85  1  0
 82 81  2  0
 83 78  2  0
 83 82  1  0
 84 83  1  0
 86 87  1  0
 87 90  1  0
 87 89  1  0
 88 86  2  0
 91 92  1  0
 91 66  1  0
 93 91  1  0
M  ISO  4  13 101  14 101  56 100  64 100
M  END
>  <TORSDO>  (65) 
F 20

>  <SCORE>  (65) 
-14.215

>  <name>  (65) 
65

>  <ligand_id>  (65) 
65

>  <original_smiles>  (65) 
[H]c1c([H])c([H])c2c(c1[H])C([H])([H])C([H])([H])C([H])([H])C2([H])N([H])C(=O)C1([H])N(C(=O)C([H])(N([H])C(=O)C([H])(N([H])C([H])([H])[H])C([H])([H])[H])C(C([H])([H])[H])(C([H])([H])[H])C([H])([H])[H])C([H])([H])c2c([H])c(OC([H])([H])C([H])([H])C([H])([H])C3([H])C(=O)N([H])C([H])(C([H])([H])N([H])C(=O)N4C([H])([H])C([H])([H])C([H])([H])C([H])(n5nc(-c6c([H])c([H])c(Oc7c([H])c([H])c(F)c([H])c7F)c([H])c6[H])c(C(=O)N([H])[H])c5N([H])[H])C4([H])[H])C(=O)N3[H])c([H])c([H])c2C1([H])[H]

>  <smiles>  (65) 
[H]c1c([H])c([H])c2c(c1[H])C([H])([H])C([H])([H])C([H])([H])C2([H])N([H])C(=O)C1([H])N(C(=O)C([H])(N([H])C(=O)C([H])(N([H])C([H])([H])[H])C([H])([H])[H])C(C([H])([H])[H])(C([H])([H])[H])C([H])([H])[H])C([H])([H])c2c([H])c(OC([H])([H])C([H])([H])C([H])([H])C3([H])C(=O)N([H])C([H])(C([H])([H])N([H])C(=O)N4C([H])([H])C([H])([H])C([H])([H])C([H])(n5nc(-c6c([H])c([H])c(Oc7c([H])c([H])c(F)c([H])c7F)c([H])c6[H])c(C(=O)N([H])[H])c5N([H])[H])C4([H])[H])C(=O)N3[H])c([H])c([H])c2C1([H])[H]

$$$$
66:0:0
     RDKit          3D

 90 99  0  0  1  0  0  0  0  0999 V2000
  -28.8730  -20.7090   20.5280 N   0  0  0  0  0  4  0  0  0  0  0  0
  -28.2860  -20.5900   21.3380 H   0  0  0  0  0  0  0  0  0  0  0  0
  -28.2540  -20.5930   19.7410 H   0  0  0  0  0  0  0  0  0  0  0  0
  -30.4740  -16.0230   20.6370 C   0  0  0  0  0  0  0  0  0  0  0  0
  -30.6920  -13.4600   19.8890 C   0  0  0  0  0  2  0  0  0  0  0  0
  -29.8920  -12.9880   18.6430 C   0  0  0  0  0  2  0  0  0  0  0  0
  -28.4550  -12.5930   19.0240 C   0  0  0  0  0  2  0  0  0  0  0  0
  -27.8390  -13.6070   20.0120 C   0  0  0  0  0  3  0  0  0  0  0  0
  -28.7890  -14.0030   21.1680 C   0  0  0  0  0  2  0  0  0  0  0  0
  -29.9850  -14.6400   20.5590 N   0  0  0  0  0  0  0  0  0  0  0  0
  -31.7170  -15.9720   20.6990 O   0  0  0  0  0  0  0  0  0  0  0  0
  -29.7300  -17.3310   16.7890 C   0  0  0  0  0  2  0  0  0  0  0  0
  -31.0320  -17.9240   17.3260 C   0  0  0  0  0  2  0  0  0  0  0  0
  -28.7720  -17.1040   19.2710 C   0  0  0  0  0  2  0  0  0  0  0  0
  -30.7570  -19.3600   19.2910 C   0  0  0  0  0  2  0  0  0  0  0  0
  -29.0470  -17.9630   18.0100 C   0  0  0  0  0  3  0  0  0  0  0  0
  -29.7720  -19.1750   20.4530 C   0  0  0  0  0  3  0  0  0  0  0  0
  -29.6790  -17.3670   20.4210 N   0  0  0  0  0  0  0  0  0  0  0  0
  -30.1890  -18.9010   18.0130 N   0  0  0  0  0  0  0  0  0  0  0  0
  -25.4230  -14.1130   20.6010 C   0  0  0  0  0  0  0  0  0  0  0  0
  -24.3560  -13.3170   20.9020 C   0  0  0  0  0  0  0  0  0  0  0  0
  -24.8580  -11.9800   20.9350 C   0  0  0  0  0  0  0  0  0  0  0  0
  -26.5010  -13.2580   20.4540 N   0  0  0  0  0  0  0  0  0  0  0  0
  -26.1710  -11.9700   20.7240 N   0  0  0  0  0  0  0  0  0  0  0  0
  -24.1510  -10.7050   21.0960 C   0  0  0  0  0  0  0  0  0  0  0  0
  -24.5440   -9.7580   22.0660 C   0  0  0  0  0  3  0  0  0  0  0  0
  -23.8340   -8.5490   22.2150 C   0  0  0  0  0  3  0  0  0  0  0  0
  -22.7130   -8.2780   21.3930 C   0  0  0  0  0  0  0  0  0  0  0  0
  -22.3400   -9.2130   20.4110 C   0  0  0  0  0  3  0  0  0  0  0  0
  -23.0530  -10.4140   20.2600 C   0  0  0  0  0  3  0  0  0  0  0  0
  -21.9760   -7.1200   21.4520 O   0  0  0  0  0  0  0  0  0  0  0  0
  -21.8580   -6.4020   22.6140 C   0  0  0  0  0  0  0  0  0  0  0  0
  -21.3150   -6.9700   23.7880 C   0  0  0  0  0  3  0  0  0  0  0  0
  -21.1460   -6.1760   24.9390 C   0  0  0  0  0  3  0  0  0  0  0  0
  -21.5100   -4.8160   24.9180 C   0  0  0  0  0  0  0  0  0  0  0  0
  -22.0440   -4.2490   23.7480 C   0  0  0  0  0  3  0  0  0  0  0  0
  -22.2160   -5.0400   22.5990 C   0  0  0  0  0  0  0  0  0  0  0  0
  -22.7120   -4.4830   21.4680 F   0  0  0  0  0  0  0  0  0  0  0  0
  -21.3400   -4.0490   26.0210 F   0  0  0  0  0  0  0  0  0  0  0  0
  -22.9320  -13.7650   21.0500 C   0  0  0  0  0  0  0  0  0  0  0  0
  -22.1630  -13.0880   21.8950 N   0  0  0  0  0  0  0  0  0  0  0  0
  -22.5060  -14.7510   20.4500 O   0  0  0  0  0  0  0  0  0  0  0  0
  -22.5230  -12.2920   22.4020 H   0  0  0  0  0  0  0  0  0  0  0  0
  -21.2030  -13.3680   22.0390 H   0  0  0  0  0  0  0  0  0  0  0  0
  -25.5660  -15.4850   20.4100 N   0  0  0  0  0  0  0  0  0  0  0  0
  -24.7790  -16.1240   20.4610 H   0  0  0  0  0  0  0  0  0  0  0  0
  -26.4360  -15.9400   20.1790 H   0  0  0  0  0  0  0  0  0  0  0  0
  -29.1650  -22.4550   20.4660 C   0  0  0  0  0  3  0  0  0  0  0  0
  -28.1090  -24.0820   20.3140 C   0  0  0  0  0  3  0  0  0  0  0  0
  -28.2440  -25.8440   20.3550 O   0  0  0  0  0  0  0  0  0  0  0  0
  -24.6350  -32.0550   23.3090 C   0  0  0  0  0  0  0  0  0  0  0  0
  -27.2370  -27.0280   20.3090 C   0  0  0  0  0  0  0  0  0  0  0  0
  -23.4610  -30.6400   21.6760 C   0  0  0  0  0  3  0  0  0  0  0  0
  -24.9300  -29.0160   20.2590 C   0  0  0  0  0  0  0  0  0  0  0  0
  -26.0350  -30.8300   21.5400 C   0  0  0  0  0  2  0  0  0  0  0  0
  -26.1230  -29.3970   20.8850 C   0  0  0  0  0  0  0  0  0  0  0  0
  -27.2600  -28.4350   20.8720 C   0  0  0  0  0  3  0  0  0  0  0  0
  -26.0040  -26.8510   19.6320 C   0  0  0  0  0  3  0  0  0  0  0  0
  -24.9100  -27.7700   19.6070 C   0  0  0  0  0  3  0  0  0  0  0  0
  -23.7070  -29.9440   20.3040 C   0  0  0  0  0  2  0  0  0  0  0  0
  -24.7350  -31.2090   22.2260 N   0  0  0  0  0  0  0  0  0  0  0  0
  -23.5410  -32.3350   23.8270 O   0  0  0  0  0  0  0  0  0  0  0  0
  -22.7640  -29.6520   22.6500 C   0  0  0  0  0  0  0  0  0  0  0  0
  -21.4410  -29.4430   22.5040 N   0  0  0  0  0  0  0  0  0  0  0  0
  -23.4290  -29.0700   23.5120 O   0  0  0  0  0  0  0  0  0  0  0  0
  -20.9530  -29.9690   21.7930 H   0  0  0  0  0  0  0  0  0  0  0  0
  -18.0980  -28.0960   22.9670 C   0  0  0  0  0  0  0  0  0  0  0  0
  -20.6380  -28.4880   23.2790 C   0  0  0  0  0  3  0  0  0  0  0  0
  -20.8150  -27.0470   22.7460 C   0  0  0  0  0  2  0  0  0  0  0  0
  -19.7540  -26.6530   21.7120 C   0  0  0  0  0  2  0  0  0  0  0  0
  -18.3520  -26.7440   22.3210 C   0  0  0  0  0  2  0  0  0  0  0  0
  -19.1700  -28.9210   23.4030 C   0  0  0  0  0  0  0  0  0  0  0  0
  -18.8750  -30.1800   23.9720 C   0  0  0  0  0  3  0  0  0  0  0  0
  -17.5430  -30.6140   24.1040 C   0  0  0  0  0  3  0  0  0  0  0  0
  -16.4870  -29.7890   23.6810 C   0  0  0  0  0  3  0  0  0  0  0  0
  -16.7650  -28.5310   23.1190 C   0  0  0  0  0  3  0  0  0  0  0  0
  -25.8910  -32.7270   23.9450 C   0  0  0  0  0  3  0  0  0  0  0  0
  -25.5610  -34.1340   24.2460 N   0  0  0  0  0  0  0  0  0  0  0  0
  -25.9030  -35.1850   23.4900 C   0  0  0  0  0  0  0  0  0  0  0  0
  -26.5870  -35.0730   22.4700 O   0  0  0  0  0  0  0  0  0  0  0  0
  -24.9530  -34.2910   25.0360 H   0  0  0  0  0  0  0  0  0  0  0  0
  -24.1800  -36.9850   23.1010 C   0  0  0  0  0  1  0  0  0  0  0  0
  -25.4120  -36.5820   23.9280 C   0  0  0  0  0  3  0  0  0  0  0  0
  -27.5350  -37.4830   24.7760 C   0  0  0  0  0  1  0  0  0  0  0  0
  -26.4460  -37.6360   23.8160 N   0  0  0  0  0  0  0  0  0  0  0  0
  -26.0380  -38.5580   23.9440 H   0  0  0  0  0  0  0  0  0  0  0  0
  -26.3770  -32.0010   25.2610 C   0  0  1  0  0  0  0  0  0  0  0  0
  -25.2540  -31.7760   26.3040 C   0  0  0  0  0  1  0  0  0  0  0  0
  -26.9990  -30.6230   24.9420 C   0  0  0  0  0  1  0  0  0  0  0  0
  -27.4930  -32.8350   25.9350 C   0  0  0  0  0  1  0  0  0  0  0  0
  1  2  1  0
  3  1  1  0
  4 11  2  0
  5 10  1  0
  6  7  1  0
  6  5  1  0
  8  7  1  0
  8 23  1  0
  8  9  1  0
 10  4  1  0
 10  9  1  0
 12 13  1  0
 14 18  1  0
 15 17  1  0
 16 12  1  0
 16 19  1  0
 16 14  1  0
 17  1  1  0
 18 17  1  0
 18  4  1  0
 19 13  1  0
 19 15  1  0
 20 21  2  0
 21 22  1  0
 21 40  1  0
 22 25  1  0
 23 20  1  0
 23 24  1  0
 24 22  2  0
 25 26  1  0
 26 27  2  0
 28 31  1  0
 28 27  1  0
 29 28  2  0
 30 29  1  0
 30 25  2  0
 31 32  1  0
 32 33  1  0
 33 34  2  0
 35 34  1  0
 35 39  1  0
 36 35  2  0
 37 32  2  0
 37 36  1  0
 38 37  1  0
 40 41  1  0
 41 44  1  0
 41 43  1  0
 42 40  2  0
 45 46  1  0
 45 20  1  0
 47 45  1  0
 48  1  1  0
 49 50  1  0
 49 48  2  0
 51 62  2  0
 52 50  1  0
 52 57  1  0
 53 61  1  0
 53 63  1  0
 54 60  1  0
 54 56  1  0
 55 61  1  0
 56 55  1  0
 57 56  2  0
 58 52  2  0
 59 58  1  0
 59 54  2  0
 60 53  1  0
 61 51  1  0
 63 65  2  0
 64 63  1  0
 66 64  1  0
 67 76  2  0
 67 72  1  0
 68 64  1  0
 68 72  1  0
 69 68  1  0
 70 71  1  0
 70 69  1  0
 71 67  1  0
 72 73  2  0
 73 74  1  0
 75 74  2  0
 76 75  1  0
 77 51  1  0
 77 78  1  0
 77 87  1  0
 78 81  1  0
 79 83  1  0
 79 78  1  0
 80 79  2  0
 83 82  1  0
 85 83  1  0
 85 86  1  0
 85 84  1  0
 87 90  1  1
 87 88  1  0
 89 87  1  0
M  ISO  4   4 100  18 100  49 101  50 101
M  END
>  <TORSDO>  (66) 
F 18

>  <SCORE>  (66) 
-14.970

>  <name>  (66) 
66

>  <ligand_id>  (66) 
66

>  <original_smiles>  (66) 
[H]c1c([H])c([H])c2c(c1[H])C([H])([H])C([H])([H])C([H])([H])C2([H])N([H])C(=O)C1([H])N(C(=O)C([H])(N([H])C(=O)C([H])(N([H])C([H])([H])[H])C([H])([H])[H])C(C([H])([H])[H])(C([H])([H])[H])C([H])([H])[H])C([H])([H])c2c([H])c(OC([H])([H])C([H])([H])[N+]([H])([H])C3([H])N(C(=O)N4C([H])([H])C([H])([H])C([H])([H])C([H])(n5nc(-c6c([H])c([H])c(Oc7c([H])c([H])c(F)c([H])c7F)c([H])c6[H])c(C(=O)N([H])[H])c5N([H])[H])C4([H])[H])C([H])([H])C4([H])N(C([H])([H])C4([H])[H])C3([H])[H])c([H])c([H])c2C1([H])[H]

>  <smiles>  (66) 
[H]c1c([H])c([H])c2c(c1[H])C([H])([H])C([H])([H])C([H])([H])C2([H])N([H])C(=O)C1([H])N(C(=O)C([H])(N([H])C(=O)C([H])(N([H])C([H])([H])[H])C([H])([H])[H])C(C([H])([H])[H])(C([H])([H])[H])C([H])([H])[H])C([H])([H])c2c([H])c(OC([H])([H])C([H])([H])[N+]([H])([H])C3([H])N(C(=O)N4C([H])([H])C([H])([H])C([H])([H])C([H])(n5nc(-c6c([H])c([H])c(Oc7c([H])c([H])c(F)c([H])c7F)c([H])c6[H])c(C(=O)N([H])[H])c5N([H])[H])C4([H])[H])C([H])([H])C4([H])N(C([H])([H])C4([H])[H])C3([H])[H])c([H])c([H])c2C1([H])[H]

$$$$
67:0:0
     RDKit          3D

 90 99  0  0  1  0  0  0  0  0999 V2000
  -30.8820  -18.7340   19.9160 C   0  0  0  0  0  0  0  0  0  0  0  0
  -28.5620  -18.9090   20.6680 C   0  0  0  0  0  2  0  0  0  0  0  0
  -29.8710  -21.1540   19.0500 C   0  0  0  0  0  2  0  0  0  0  0  0
  -30.5450  -20.2610   20.1440 C   0  0  0  0  0  3  0  0  0  0  0  0
  -29.6310  -17.8140   20.0890 C   0  0  0  0  0  3  0  0  0  0  0  0
  -29.2100  -20.4000   20.8460 C   0  0  0  0  0  3  0  0  0  0  0  0
  -28.8360  -21.6780   19.9910 N   0  0  1  0  0  4  0  0  0  0  0  0
  -31.9980  -18.2760   19.6650 O   0  0  0  0  0  0  0  0  0  0  0  0
  -27.9150  -21.5650   19.5940 H   0  0  0  0  0  0  0  0  0  0  0  0
  -30.4590  -15.0630   20.2700 C   0  0  0  0  0  0  0  0  0  0  0  0
  -30.3650  -12.6840   19.3530 C   0  0  0  0  0  2  0  0  0  0  0  0
  -29.4410  -12.6390   18.1120 C   0  0  0  0  0  2  0  0  0  0  0  0
  -27.9770  -12.4150   18.5360 C   0  0  0  0  0  2  0  0  0  0  0  0
  -27.5620  -13.3330   19.7170 C   0  0  0  0  0  3  0  0  0  0  0  0
  -28.6140  -13.3540   20.8470 C   0  0  0  0  0  2  0  0  0  0  0  0
  -29.8850  -13.7830   20.2480 N   0  0  0  0  0  0  0  0  0  0  0  0
  -31.6490  -15.1260   19.9410 O   0  0  0  0  0  0  0  0  0  0  0  0
  -29.6450  -16.2340   20.4490 N   0  0  0  0  0  0  0  0  0  0  0  0
  -28.7380  -15.9490   20.7830 H   0  0  0  0  0  0  0  0  0  0  0  0
  -25.1830  -13.9130   20.4440 C   0  0  0  0  0  0  0  0  0  0  0  0
  -24.1160  -13.1410   20.8160 C   0  0  0  0  0  0  0  0  0  0  0  0
  -24.5790  -11.7900   20.7940 C   0  0  0  0  0  0  0  0  0  0  0  0
  -26.2250  -13.0310   20.2120 N   0  0  0  0  0  0  0  0  0  0  0  0
  -25.8710  -11.7490   20.4870 N   0  0  0  0  0  0  0  0  0  0  0  0
  -23.8480  -10.5300   20.9890 C   0  0  0  0  0  0  0  0  0  0  0  0
  -24.2790   -9.5650   21.9250 C   0  0  0  0  0  3  0  0  0  0  0  0
  -23.5470   -8.3720   22.1110 C   0  0  0  0  0  3  0  0  0  0  0  0
  -22.3710   -8.1360   21.3590 C   0  0  0  0  0  0  0  0  0  0  0  0
  -21.9600   -9.0900   20.4120 C   0  0  0  0  0  3  0  0  0  0  0  0
  -22.6910  -10.2750   20.2270 C   0  0  0  0  0  3  0  0  0  0  0  0
  -21.6140   -6.9940   21.4520 O   0  0  0  0  0  0  0  0  0  0  0  0
  -21.5690   -6.2510   22.6040 C   0  0  0  0  0  0  0  0  0  0  0  0
  -21.1540   -6.8070   23.8330 C   0  0  0  0  0  3  0  0  0  0  0  0
  -21.0570   -5.9900   24.9780 C   0  0  0  0  0  3  0  0  0  0  0  0
  -21.3630   -4.6180   24.8930 C   0  0  0  0  0  0  0  0  0  0  0  0
  -21.7700   -4.0620   23.6680 C   0  0  0  0  0  3  0  0  0  0  0  0
  -21.8690   -4.8750   22.5250 C   0  0  0  0  0  0  0  0  0  0  0  0
  -22.2410   -4.3310   21.3420 F   0  0  0  0  0  0  0  0  0  0  0  0
  -21.2620   -3.8320   25.9900 F   0  0  0  0  0  0  0  0  0  0  0  0
  -22.7180  -13.6240   21.0750 C   0  0  0  0  0  0  0  0  0  0  0  0
  -21.9830  -12.9380   21.9420 N   0  0  0  0  0  0  0  0  0  0  0  0
  -22.2860  -14.6480   20.5450 O   0  0  0  0  0  0  0  0  0  0  0  0
  -22.3450  -12.1130   22.3980 H   0  0  0  0  0  0  0  0  0  0  0  0
  -21.0440  -13.2400   22.1510 H   0  0  0  0  0  0  0  0  0  0  0  0
  -25.3490  -15.2820   20.2560 N   0  0  0  0  0  0  0  0  0  0  0  0
  -24.5710  -15.9300   20.3240 H   0  0  0  0  0  0  0  0  0  0  0  0
  -26.1880  -15.7140   19.8900 H   0  0  0  0  0  0  0  0  0  0  0  0
  -29.0030  -23.2120   20.4830 C   0  0  0  0  0  3  0  0  0  0  0  0
  -28.0690  -24.5610   19.9670 C   0  0  0  0  0  3  0  0  0  0  0  0
  -28.2590  -26.1110   20.2740 O   0  0  0  0  0  0  0  0  0  0  0  0
  -24.6460  -31.8710   23.2470 C   0  0  0  0  0  0  0  0  0  0  0  0
  -27.2100  -27.1210   20.1970 C   0  0  0  0  0  0  0  0  0  0  0  0
  -23.4400  -30.4770   21.6110 C   0  0  0  0  0  3  0  0  0  0  0  0
  -24.8830  -28.8960   20.1780 C   0  0  0  0  0  0  0  0  0  0  0  0
  -25.9960  -30.7320   21.4340 C   0  0  0  0  0  2  0  0  0  0  0  0
  -26.0680  -29.3350   20.7810 C   0  0  0  0  0  0  0  0  0  0  0  0
  -27.2310  -28.4650   20.7690 C   0  0  0  0  0  3  0  0  0  0  0  0
  -25.9950  -26.7980   19.5510 C   0  0  0  0  0  3  0  0  0  0  0  0
  -24.8620  -27.6410   19.5500 C   0  0  0  0  0  3  0  0  0  0  0  0
  -23.6550  -29.7940   20.2330 C   0  0  0  0  0  2  0  0  0  0  0  0
  -24.7150  -31.0480   22.1540 N   0  0  0  0  0  0  0  0  0  0  0  0
  -23.5600  -32.1550   23.7770 O   0  0  0  0  0  0  0  0  0  0  0  0
  -22.7550  -29.4750   22.5750 C   0  0  0  0  0  0  0  0  0  0  0  0
  -21.4260  -29.3110   22.4500 N   0  0  0  0  0  0  0  0  0  0  0  0
  -23.4250  -28.8460   23.3980 O   0  0  0  0  0  0  0  0  0  0  0  0
  -20.9410  -29.8690   21.7620 H   0  0  0  0  0  0  0  0  0  0  0  0
  -18.0440  -28.1080   22.9510 C   0  0  0  0  0  0  0  0  0  0  0  0
  -20.6040  -28.3740   23.2190 C   0  0  0  0  0  3  0  0  0  0  0  0
  -20.7070  -26.9400   22.6460 C   0  0  0  0  0  2  0  0  0  0  0  0
  -19.6070  -26.6170   21.6290 C   0  0  0  0  0  2  0  0  0  0  0  0
  -18.2240  -26.7590   22.2730 C   0  0  0  0  0  2  0  0  0  0  0  0
  -19.1620  -28.8730   23.3800 C   0  0  0  0  0  0  0  0  0  0  0  0
  -18.9410  -30.1330   23.9760 C   0  0  0  0  0  3  0  0  0  0  0  0
  -17.6350  -30.6330   24.1440 C   0  0  0  0  0  3  0  0  0  0  0  0
  -16.5320  -29.8660   23.7320 C   0  0  0  0  0  3  0  0  0  0  0  0
  -16.7370  -28.6050   23.1420 C   0  0  0  0  0  3  0  0  0  0  0  0
  -25.9240  -32.5060   23.8750 C   0  0  0  0  0  3  0  0  0  0  0  0
  -25.6120  -33.9040   24.2110 N   0  0  0  0  0  0  0  0  0  0  0  0
  -25.9400  -34.9640   23.4600 C   0  0  0  0  0  0  0  0  0  0  0  0
  -26.6000  -34.8670   22.4220 O   0  0  0  0  0  0  0  0  0  0  0  0
  -25.0230  -34.0530   25.0170 H   0  0  0  0  0  0  0  0  0  0  0  0
  -24.2080  -36.7620   23.1450 C   0  0  0  0  0  1  0  0  0  0  0  0
  -25.4620  -36.3520   23.9320 C   0  0  0  0  0  3  0  0  0  0  0  0
  -27.6090  -37.2350   24.7320 C   0  0  0  0  0  1  0  0  0  0  0  0
  -26.4940  -37.4050   23.8060 N   0  0  0  0  0  0  0  0  0  0  0  0
  -26.0900  -38.3250   23.9630 H   0  0  0  0  0  0  0  0  0  0  0  0
  -26.4300  -31.7340   25.1560 C   0  0  1  0  0  0  0  0  0  0  0  0
  -25.3320  -31.5060   26.2210 C   0  0  0  0  0  1  0  0  0  0  0  0
  -27.0050  -30.3530   24.7710 C   0  0  0  0  0  1  0  0  0  0  0  0
  -27.5830  -32.5220   25.8210 C   0  0  0  0  0  1  0  0  0  0  0  0
  1  5  1  0
  1  4  1  0
  3  7  1  0
  4  3  1  0
  4  6  1  0
  5 18  1  0
  5  2  1  0
  6  2  1  0
  7 48  1  0
  7  6  1  0
  8  1  2  0
  7  9  1  6
 10 18  1  0
 11 16  1  0
 12 13  1  0
 12 11  1  0
 14 13  1  0
 14 23  1  0
 14 15  1  0
 16 10  1  0
 16 15  1  0
 17 10  2  0
 18 19  1  0
 20 21  2  0
 21 40  1  0
 22 21  1  0
 22 25  1  0
 23 20  1  0
 23 24  1  0
 24 22  2  0
 25 26  1  0
 26 27  2  0
 28 31  1  0
 28 27  1  0
 29 28  2  0
 30 29  1  0
 30 25  2  0
 31 32  1  0
 32 33  1  0
 33 34  2  0
 35 34  1  0
 35 39  1  0
 36 35  2  0
 37 32  2  0
 37 36  1  0
 38 37  1  0
 40 41  1  0
 41 44  1  0
 41 43  1  0
 42 40  2  0
 45 46  1  0
 45 20  1  0
 47 45  1  0
 49 50  1  0
 49 48  2  0
 51 62  2  0
 52 50  1  0
 52 57  1  0
 53 61  1  0
 53 63  1  0
 54 60  1  0
 54 56  1  0
 55 61  1  0
 56 55  1  0
 57 56  2  0
 58 52  2  0
 59 58  1  0
 59 54  2  0
 60 53  1  0
 61 51  1  0
 63 65  2  0
 64 63  1  0
 66 64  1  0
 67 76  2  0
 67 72  1  0
 68 64  1  0
 68 72  1  0
 69 68  1  0
 70 71  1  0
 70 69  1  0
 71 67  1  0
 72 73  2  0
 73 74  1  0
 75 74  2  0
 76 75  1  0
 77 51  1  0
 77 78  1  0
 77 87  1  0
 78 81  1  0
 79 83  1  0
 79 78  1  0
 80 79  2  0
 83 82  1  0
 85 83  1  0
 85 86  1  0
 85 84  1  0
 87 90  1  1
 87 88  1  0
 89 87  1  0
M  ISO  4  10 100  18 100  49 101  50 101
M  END
>  <TORSDO>  (67) 
F 18

>  <SCORE>  (67) 
-15.357

>  <name>  (67) 
67

>  <ligand_id>  (67) 
67

>  <original_smiles>  (67) 
[H]c1c([H])c([H])c2c(c1[H])C([H])([H])C([H])([H])C([H])([H])C2([H])N([H])C(=O)C1([H])N(C(=O)C([H])(N([H])C(=O)C([H])(N([H])C([H])([H])[H])C([H])([H])[H])C(C([H])([H])[H])(C([H])([H])[H])C([H])([H])[H])C([H])([H])c2c([H])c(OC([H])([H])C([H])([H])[N+]3([H])C([H])([H])C4([H])C(=O)C([H])(N([H])C(=O)N5C([H])([H])C([H])([H])C([H])([H])C([H])(n6nc(-c7c([H])c([H])c(Oc8c([H])c([H])c(F)c([H])c8F)c([H])c7[H])c(C(=O)N([H])[H])c6N([H])[H])C5([H])[H])C([H])([H])C43[H])c([H])c([H])c2C1([H])[H]

>  <smiles>  (67) 
[H]c1c([H])c([H])c2c(c1[H])C([H])([H])C([H])([H])C([H])([H])C2([H])N([H])C(=O)C1([H])N(C(=O)C([H])(N([H])C(=O)C([H])(N([H])C([H])([H])[H])C([H])([H])[H])C(C([H])([H])[H])(C([H])([H])[H])C([H])([H])[H])C([H])([H])c2c([H])c(OC([H])([H])C([H])([H])[N+]3([H])C([H])([H])C4([H])C(=O)C([H])(N([H])C(=O)N5C([H])([H])C([H])([H])C([H])([H])C([H])(n6nc(-c7c([H])c([H])c(Oc8c([H])c([H])c(F)c([H])c8F)c([H])c7[H])c(C(=O)N([H])[H])c6N([H])[H])C5([H])[H])C([H])([H])C43[H])c([H])c([H])c2C1([H])[H]

$$$$
68:0:0
     RDKit          3D

 88 96  0  0  1  0  0  0  0  0999 V2000
  -30.2120  -20.5900   22.2360 C   0  0  0  0  0  2  0  0  0  0  0  0
  -29.0440  -19.6670   21.7860 C   0  0  0  0  0  2  0  0  0  0  0  0
  -30.6130  -21.4320   21.0000 C   0  0  0  0  0  2  0  0  0  0  0  0
  -29.0840  -19.7430   20.2620 C   0  0  0  0  0  3  0  0  0  0  0  0
  -29.3950  -21.3780   20.1880 N   0  0  2  0  0  4  0  0  0  0  0  0
  -28.8380  -21.2830   21.0240 H   0  0  0  0  0  0  0  0  0  0  0  0
  -30.1060  -18.3100   19.8690 C   0  0  0  0  0  2  0  0  0  0  0  0
  -30.6740  -15.4390   20.0140 C   0  0  0  0  0  0  0  0  0  0  0  0
  -30.6470  -13.0330   19.0820 C   0  0  0  0  0  2  0  0  0  0  0  0
  -29.6680  -12.7940   17.9040 C   0  0  0  0  0  2  0  0  0  0  0  0
  -28.2340  -12.5470   18.4000 C   0  0  0  0  0  2  0  0  0  0  0  0
  -27.8350  -13.4930   19.5590 C   0  0  0  0  0  3  0  0  0  0  0  0
  -28.9320  -13.6120   20.6440 C   0  0  0  0  0  2  0  0  0  0  0  0
  -30.1220  -14.1350   19.9600 N   0  0  0  0  0  0  0  0  0  0  0  0
  -31.8840  -15.4730   19.7470 O   0  0  0  0  0  0  0  0  0  0  0  0
  -29.8920  -16.6830   20.1470 N   0  0  0  0  0  0  0  0  0  0  0  0
  -28.9360  -16.4630   20.3880 H   0  0  0  0  0  0  0  0  0  0  0  0
  -25.4850  -14.0470   20.3830 C   0  0  0  0  0  0  0  0  0  0  0  0
  -24.4310  -13.2640   20.7690 C   0  0  0  0  0  0  0  0  0  0  0  0
  -24.8950  -11.9170   20.7080 C   0  0  0  0  0  0  0  0  0  0  0  0
  -26.5200  -13.1720   20.1040 N   0  0  0  0  0  0  0  0  0  0  0  0
  -26.1810  -11.8840   20.3690 N   0  0  0  0  0  0  0  0  0  0  0  0
  -24.1710  -10.6540   20.9030 C   0  0  0  0  0  0  0  0  0  0  0  0
  -24.5760   -9.7150   21.8780 C   0  0  0  0  0  3  0  0  0  0  0  0
  -23.8520   -8.5190   22.0640 C   0  0  0  0  0  3  0  0  0  0  0  0
  -22.7100   -8.2500   21.2720 C   0  0  0  0  0  0  0  0  0  0  0  0
  -22.3250   -9.1770   20.2850 C   0  0  0  0  0  3  0  0  0  0  0  0
  -23.0490  -10.3660   20.0980 C   0  0  0  0  0  3  0  0  0  0  0  0
  -21.9630   -7.1010   21.3590 O   0  0  0  0  0  0  0  0  0  0  0  0
  -21.8040   -6.4340   22.5500 C   0  0  0  0  0  0  0  0  0  0  0  0
  -21.2310   -7.0560   23.6790 C   0  0  0  0  0  3  0  0  0  0  0  0
  -21.0230   -6.3140   24.8600 C   0  0  0  0  0  3  0  0  0  0  0  0
  -21.3780   -4.9530   24.9100 C   0  0  0  0  0  0  0  0  0  0  0  0
  -21.9420   -4.3310   23.7820 C   0  0  0  0  0  3  0  0  0  0  0  0
  -22.1510   -5.0690   22.6040 C   0  0  0  0  0  0  0  0  0  0  0  0
  -22.6750   -4.4590   21.5140 F   0  0  0  0  0  0  0  0  0  0  0  0
  -21.1710   -4.2380   26.0410 F   0  0  0  0  0  0  0  0  0  0  0  0
  -23.0430  -13.7440   21.0670 C   0  0  0  0  0  0  0  0  0  0  0  0
  -22.3330  -13.0520   21.9490 N   0  0  0  0  0  0  0  0  0  0  0  0
  -22.5960  -14.7670   20.5520 O   0  0  0  0  0  0  0  0  0  0  0  0
  -22.7140  -12.2280   22.3870 H   0  0  0  0  0  0  0  0  0  0  0  0
  -21.4010  -13.3620   22.1870 H   0  0  0  0  0  0  0  0  0  0  0  0
  -25.6310  -15.4210   20.2250 N   0  0  0  0  0  0  0  0  0  0  0  0
  -24.8510  -16.0460   20.4000 H   0  0  0  0  0  0  0  0  0  0  0  0
  -26.4250  -15.8880   19.8070 H   0  0  0  0  0  0  0  0  0  0  0  0
  -28.4740  -22.7890   20.2930 C   0  0  0  0  0  2  0  0  0  0  0  0
  -28.6730  -24.4880   19.7110 C   0  0  0  0  0  2  0  0  0  0  0  0
  -28.4630  -26.0480   20.2510 O   0  0  0  0  0  0  0  0  0  0  0  0
  -24.6800  -31.8690   23.1500 C   0  0  0  0  0  0  0  0  0  0  0  0
  -27.4140  -27.1020   20.1130 C   0  0  0  0  0  0  0  0  0  0  0  0
  -23.5420  -30.4600   21.4800 C   0  0  0  0  0  3  0  0  0  0  0  0
  -25.0580  -28.9160   20.0440 C   0  0  0  0  0  0  0  0  0  0  0  0
  -26.1010  -30.7420   21.3740 C   0  0  0  0  0  2  0  0  0  0  0  0
  -26.2170  -29.3460   20.6950 C   0  0  0  0  0  0  0  0  0  0  0  0
  -27.3790  -28.4530   20.7200 C   0  0  0  0  0  3  0  0  0  0  0  0
  -26.2230  -26.8230   19.4070 C   0  0  0  0  0  3  0  0  0  0  0  0
  -25.0840  -27.6740   19.3840 C   0  0  0  0  0  3  0  0  0  0  0  0
  -23.8050  -29.8010   20.0950 C   0  0  0  0  0  2  0  0  0  0  0  0
  -24.7930  -31.0520   22.0550 N   0  0  0  0  0  0  0  0  0  0  0  0
  -23.5790  -32.1220   23.6680 O   0  0  0  0  0  0  0  0  0  0  0  0
  -22.8710  -29.4300   22.4240 C   0  0  0  0  0  0  0  0  0  0  0  0
  -21.5440  -29.2460   22.3050 N   0  0  0  0  0  0  0  0  0  0  0  0
  -23.5540  -28.7970   23.2330 O   0  0  0  0  0  0  0  0  0  0  0  0
  -21.0410  -29.8120   21.6340 H   0  0  0  0  0  0  0  0  0  0  0  0
  -18.1850  -27.9950   22.8340 C   0  0  0  0  0  0  0  0  0  0  0  0
  -20.7460  -28.2760   23.0610 C   0  0  0  0  0  3  0  0  0  0  0  0
  -20.8490  -26.8630   22.4420 C   0  0  0  0  0  2  0  0  0  0  0  0
  -19.7350  -26.5620   21.4350 C   0  0  0  0  0  2  0  0  0  0  0  0
  -18.3630  -26.6710   22.1070 C   0  0  0  0  0  2  0  0  0  0  0  0
  -19.3040  -28.7560   23.2670 C   0  0  0  0  0  0  0  0  0  0  0  0
  -19.0810  -29.9930   23.9090 C   0  0  0  0  0  3  0  0  0  0  0  0
  -17.7760  -30.4700   24.1210 C   0  0  0  0  0  3  0  0  0  0  0  0
  -16.6720  -29.7060   23.7040 C   0  0  0  0  0  3  0  0  0  0  0  0
  -16.8780  -28.4710   23.0650 C   0  0  0  0  0  3  0  0  0  0  0  0
  -25.9310  -32.5400   23.7960 C   0  0  0  0  0  3  0  0  0  0  0  0
  -26.4400  -31.7860   25.0880 C   0  0  1  0  0  0  0  0  0  0  0  0
  -25.3280  -31.5190   26.1270 C   0  0  0  0  0  1  0  0  0  0  0  0
  -27.0780  -30.4250   24.7290 C   0  0  0  0  0  1  0  0  0  0  0  0
  -27.5460  -32.6160   25.7780 C   0  0  0  0  0  1  0  0  0  0  0  0
  -25.5760  -33.9300   24.1290 N   0  0  0  0  0  0  0  0  0  0  0  0
  -25.8790  -35.0010   23.3850 C   0  0  0  0  0  0  0  0  0  0  0  0
  -26.5510  -34.9270   22.3530 O   0  0  0  0  0  0  0  0  0  0  0  0
  -24.9760  -34.0590   24.9300 H   0  0  0  0  0  0  0  0  0  0  0  0
  -24.0960  -36.7500   23.0610 C   0  0  0  0  0  1  0  0  0  0  0  0
  -25.3540  -36.3720   23.8580 C   0  0  0  0  0  3  0  0  0  0  0  0
  -27.4580  -37.3260   24.6890 C   0  0  0  0  0  1  0  0  0  0  0  0
  -26.3520  -37.4590   23.7450 N   0  0  0  0  0  0  0  0  0  0  0  0
  -25.9140  -38.3640   23.8970 H   0  0  0  0  0  0  0  0  0  0  0  0
  2  1  1  0
  3  1  1  0
  4  7  1  0
  4  2  1  0
  5  4  1  0
  5 46  1  0
  5  3  1  0
  5  6  1  6
  7 16  1  0
  8 16  1  0
  9 14  1  0
 10 11  1  0
 10  9  1  0
 12 11  1  0
 12 21  1  0
 12 13  1  0
 14  8  1  0
 14 13  1  0
 15  8  2  0
 16 17  1  0
 18 19  2  0
 19 38  1  0
 20 19  1  0
 20 23  1  0
 21 22  1  0
 21 18  1  0
 22 20  2  0
 23 24  1  0
 24 25  2  0
 26 29  1  0
 26 25  1  0
 27 26  2  0
 28 27  1  0
 28 23  2  0
 29 30  1  0
 30 35  2  0
 30 31  1  0
 31 32  2  0
 32 33  1  0
 33 37  1  0
 34 33  2  0
 35 34  1  0
 36 35  1  0
 38 39  1  0
 39 42  1  0
 39 41  1  0
 40 38  2  0
 43 18  1  0
 43 44  1  0
 45 43  1  0
 47 48  1  0
 47 46  1  0
 49 60  2  0
 50 48  1  0
 50 55  1  0
 51 59  1  0
 51 61  1  0
 52 58  1  0
 52 54  1  0
 53 59  1  0
 54 55  2  0
 54 53  1  0
 56 50  2  0
 57 56  1  0
 57 52  2  0
 58 51  1  0
 59 49  1  0
 61 63  2  0
 62 61  1  0
 64 62  1  0
 65 74  2  0
 65 70  1  0
 66 62  1  0
 66 70  1  0
 67 66  1  0
 68 69  1  0
 68 67  1  0
 69 65  1  0
 70 71  2  0
 71 72  1  0
 73 72  2  0
 74 73  1  0
 75 49  1  0
 75 80  1  0
 75 76  1  0
 76 79  1  1
 76 77  1  0
 78 76  1  0
 80 83  1  0
 81 85  1  0
 81 80  1  0
 82 81  2  0
 85 84  1  0
 87 85  1  0
 87 88  1  0
 87 86  1  0
M  ISO  4   8 100  16 100  47 101  48 101
M  END
>  <TORSDO>  (68) 
F 19

>  <SCORE>  (68) 
-14.834

>  <name>  (68) 
68

>  <ligand_id>  (68) 
68

>  <original_smiles>  (68) 
[H]c1c([H])c([H])c2c(c1[H])C([H])([H])C([H])([H])C([H])([H])C2([H])N([H])C(=O)C1([H])N(C(=O)C([H])(N([H])C(=O)C([H])(N([H])C([H])([H])[H])C([H])([H])[H])C(C([H])([H])[H])(C([H])([H])[H])C([H])([H])[H])C([H])([H])c2c([H])c(OC([H])([H])C([H])([H])[N+]3([H])C([H])([H])C([H])([H])C([H])([H])C3([H])C([H])([H])N([H])C(=O)N3C([H])([H])C([H])([H])C([H])([H])C([H])(n4nc(-c5c([H])c([H])c(Oc6c([H])c([H])c(F)c([H])c6F)c([H])c5[H])c(C(=O)N([H])[H])c4N([H])[H])C3([H])[H])c([H])c([H])c2C1([H])[H]

>  <smiles>  (68) 
[H]c1c([H])c([H])c2c(c1[H])C([H])([H])C([H])([H])C([H])([H])C2([H])N([H])C(=O)C1([H])N(C(=O)C([H])(N([H])C(=O)C([H])(N([H])C([H])([H])[H])C([H])([H])[H])C(C([H])([H])[H])(C([H])([H])[H])C([H])([H])[H])C([H])([H])c2c([H])c(OC([H])([H])C([H])([H])[N+]3([H])C([H])([H])C([H])([H])C([H])([H])C3([H])C([H])([H])N([H])C(=O)N3C([H])([H])C([H])([H])C([H])([H])C([H])(n4nc(-c5c([H])c([H])c(Oc6c([H])c([H])c(F)c([H])c6F)c([H])c5[H])c(C(=O)N([H])[H])c4N([H])[H])C3([H])[H])c([H])c([H])c2C1([H])[H]

$$$$
69:0:0
     RDKit          3D

 91100  0  0  1  0  0  0  0  0999 V2000
  -28.2480  -19.4310   20.1150 C   0  0  0  0  0  2  0  0  0  0  0  0
  -29.8920  -20.1440   18.6610 C   0  0  0  0  0  2  0  0  0  0  0  0
  -28.8350  -20.5830   19.4230 C   0  0  0  0  0  3  0  0  0  0  0  0
  -29.2090  -18.8180   20.8480 C   0  0  0  0  0  3  0  0  0  0  0  0
  -30.2600  -18.5840   18.6010 C   0  0  0  0  0  2  0  0  0  0  0  0
  -29.9900  -19.9170   21.6710 C   0  0  0  0  0  2  0  0  0  0  0  0
  -29.4740  -21.4690   21.5610 C   0  0  0  0  0  2  0  0  0  0  0  0
  -30.1170  -17.7990   20.0100 C   0  0  0  0  0  3  0  0  0  0  0  0
  -28.7980  -21.9050   20.2670 N   0  0  1  0  0  4  0  0  0  0  0  0
  -27.8300  -21.9640   20.5470 H   0  0  0  0  0  0  0  0  0  0  0  0
  -30.6190  -15.0590   19.8410 C   0  0  0  0  0  0  0  0  0  0  0  0
  -30.4450  -12.6920   18.9440 C   0  0  0  0  0  2  0  0  0  0  0  0
  -29.4340  -12.6240   17.7770 C   0  0  0  0  0  2  0  0  0  0  0  0
  -28.0010  -12.4230   18.3060 C   0  0  0  0  0  2  0  0  0  0  0  0
  -27.6690  -13.3680   19.4900 C   0  0  0  0  0  3  0  0  0  0  0  0
  -28.7950  -13.3980   20.5460 C   0  0  0  0  0  2  0  0  0  0  0  0
  -30.0230  -13.8000   19.8480 N   0  0  0  0  0  0  0  0  0  0  0  0
  -31.8030  -15.1230   19.4910 O   0  0  0  0  0  0  0  0  0  0  0  0
  -29.8420  -16.2370   20.0310 N   0  0  0  0  0  0  0  0  0  0  0  0
  -28.8850  -16.0150   20.2600 H   0  0  0  0  0  0  0  0  0  0  0  0
  -25.3670  -13.9670   20.4310 C   0  0  0  0  0  0  0  0  0  0  0  0
  -24.3150  -13.2010   20.8500 C   0  0  0  0  0  0  0  0  0  0  0  0
  -24.7430  -11.8430   20.7300 C   0  0  0  0  0  0  0  0  0  0  0  0
  -26.3670  -13.0780   20.0780 N   0  0  0  0  0  0  0  0  0  0  0  0
  -26.0060  -11.7910   20.3230 N   0  0  0  0  0  0  0  0  0  0  0  0
  -24.0000  -10.5900   20.9250 C   0  0  0  0  0  0  0  0  0  0  0  0
  -24.4550   -9.5910   21.8140 C   0  0  0  0  0  3  0  0  0  0  0  0
  -23.7130   -8.4040   21.9980 C   0  0  0  0  0  3  0  0  0  0  0  0
  -22.5010   -8.2080   21.2920 C   0  0  0  0  0  0  0  0  0  0  0  0
  -22.0650   -9.1950   20.3920 C   0  0  0  0  0  3  0  0  0  0  0  0
  -22.8080  -10.3730   20.2060 C   0  0  0  0  0  3  0  0  0  0  0  0
  -21.7270   -7.0770   21.3890 O   0  0  0  0  0  0  0  0  0  0  0  0
  -21.6900   -6.3260   22.5360 C   0  0  0  0  0  0  0  0  0  0  0  0
  -21.2770   -6.8710   23.7710 C   0  0  0  0  0  3  0  0  0  0  0  0
  -21.1870   -6.0460   24.9100 C   0  0  0  0  0  3  0  0  0  0  0  0
  -21.5000   -4.6780   24.8150 C   0  0  0  0  0  0  0  0  0  0  0  0
  -21.9070   -4.1320   23.5850 C   0  0  0  0  0  3  0  0  0  0  0  0
  -21.9980   -4.9530   22.4480 C   0  0  0  0  0  0  0  0  0  0  0  0
  -22.3700   -4.4180   21.2600 F   0  0  0  0  0  0  0  0  0  0  0  0
  -21.4070   -3.8830   25.9070 F   0  0  0  0  0  0  0  0  0  0  0  0
  -22.9530  -13.6970   21.2420 C   0  0  0  0  0  0  0  0  0  0  0  0
  -22.2770  -12.9870   22.1370 N   0  0  0  0  0  0  0  0  0  0  0  0
  -22.5030  -14.7480   20.7890 O   0  0  0  0  0  0  0  0  0  0  0  0
  -22.6570  -12.1350   22.5220 H   0  0  0  0  0  0  0  0  0  0  0  0
  -21.3670  -13.3000   22.4430 H   0  0  0  0  0  0  0  0  0  0  0  0
  -25.5480  -15.3410   20.2940 N   0  0  0  0  0  0  0  0  0  0  0  0
  -24.8010  -16.0000   20.4830 H   0  0  0  0  0  0  0  0  0  0  0  0
  -26.3610  -15.7740   19.8760 H   0  0  0  0  0  0  0  0  0  0  0  0
  -29.0220  -23.4040   19.7600 C   0  0  0  0  0  3  0  0  0  0  0  0
  -28.1040  -24.7260   20.2820 C   0  0  0  0  0  3  0  0  0  0  0  0
  -28.3310  -26.2560   20.0150 O   0  0  0  0  0  0  0  0  0  0  0  0
  -24.5960  -31.8180   23.1450 C   0  0  0  0  0  0  0  0  0  0  0  0
  -27.2510  -27.2160   20.0100 C   0  0  0  0  0  0  0  0  0  0  0  0
  -23.4190  -30.4420   21.4720 C   0  0  0  0  0  3  0  0  0  0  0  0
  -24.8950  -28.9250   20.0130 C   0  0  0  0  0  0  0  0  0  0  0  0
  -25.9690  -30.7540   21.3140 C   0  0  0  0  0  2  0  0  0  0  0  0
  -26.0670  -29.3780   20.6330 C   0  0  0  0  0  0  0  0  0  0  0  0
  -27.2470  -28.5410   20.6110 C   0  0  0  0  0  3  0  0  0  0  0  0
  -26.0530  -26.8740   19.3440 C   0  0  0  0  0  3  0  0  0  0  0  0
  -24.9020  -27.6880   19.3530 C   0  0  0  0  0  3  0  0  0  0  0  0
  -23.6530  -29.8010   20.0780 C   0  0  0  0  0  2  0  0  0  0  0  0
  -24.6810  -31.0260   22.0320 N   0  0  0  0  0  0  0  0  0  0  0  0
  -23.5050  -32.0710   23.6790 O   0  0  0  0  0  0  0  0  0  0  0  0
  -22.7580  -29.4010   22.4090 C   0  0  0  0  0  0  0  0  0  0  0  0
  -21.4330  -29.2130   22.2800 N   0  0  0  0  0  0  0  0  0  0  0  0
  -23.4400  -28.7640   23.2170 O   0  0  0  0  0  0  0  0  0  0  0  0
  -20.9390  -29.7790   21.6040 H   0  0  0  0  0  0  0  0  0  0  0  0
  -18.0700  -27.9470   22.7530 C   0  0  0  0  0  0  0  0  0  0  0  0
  -20.6250  -28.2460   23.0280 C   0  0  0  0  0  3  0  0  0  0  0  0
  -20.7510  -26.8280   22.4210 C   0  0  0  0  0  2  0  0  0  0  0  0
  -19.6540  -26.5110   21.3990 C   0  0  0  0  0  2  0  0  0  0  0  0
  -18.2700  -26.6160   22.0440 C   0  0  0  0  0  2  0  0  0  0  0  0
  -19.1760  -28.7180   23.2000 C   0  0  0  0  0  0  0  0  0  0  0  0
  -18.9350  -29.9610   23.8250 C   0  0  0  0  0  3  0  0  0  0  0  0
  -17.6220  -30.4350   24.0030 C   0  0  0  0  0  3  0  0  0  0  0  0
  -16.5310  -29.6610   23.5700 C   0  0  0  0  0  3  0  0  0  0  0  0
  -16.7560  -28.4180   22.9520 C   0  0  0  0  0  3  0  0  0  0  0  0
  -25.8630  -32.4590   23.7880 C   0  0  0  0  0  3  0  0  0  0  0  0
  -25.5310  -33.8500   24.1400 N   0  0  0  0  0  0  0  0  0  0  0  0
  -25.8510  -34.9220   23.4040 C   0  0  0  0  0  0  0  0  0  0  0  0
  -26.5220  -34.8460   22.3720 O   0  0  0  0  0  0  0  0  0  0  0  0
  -24.9360  -33.9820   24.9450 H   0  0  0  0  0  0  0  0  0  0  0  0
  -24.1010  -36.7020   23.0850 C   0  0  0  0  0  1  0  0  0  0  0  0
  -25.3470  -36.2970   23.8880 C   0  0  0  0  0  3  0  0  0  0  0  0
  -27.4680  -37.1950   24.7390 C   0  0  0  0  0  1  0  0  0  0  0  0
  -26.3670  -37.3650   23.7950 N   0  0  0  0  0  0  0  0  0  0  0  0
  -25.9480  -38.2770   23.9570 H   0  0  0  0  0  0  0  0  0  0  0  0
  -26.3760  -31.6780   25.0600 C   0  0  1  0  0  0  0  0  0  0  0  0
  -25.2760  -31.4140   26.1150 C   0  0  0  0  0  1  0  0  0  0  0  0
  -26.9780  -30.3110   24.6590 C   0  0  0  0  0  1  0  0  0  0  0  0
  -27.5130  -32.4750   25.7410 C   0  0  0  0  0  1  0  0  0  0  0  0
  3  2  1  0
  3  1  1  0
  3  9  1  0
  4  1  1  0
  4  6  1  0
  5  2  1  0
  5  8  1  0
  7  6  1  0
  8 19  1  0
  8  4  1  0
  9 10  1  1
  9  7  1  0
 11 17  1  0
 11 19  1  0
 12 17  1  0
 13 14  1  0
 13 12  1  0
 15 14  1  0
 15 24  1  0
 15 16  1  0
 17 16  1  0
 18 11  2  0
 19 20  1  0
 21 22  2  0
 22 41  1  0
 23 22  1  0
 23 26  1  0
 24 25  1  0
 24 21  1  0
 25 23  2  0
 26 27  1  0
 27 28  2  0
 29 32  1  0
 29 28  1  0
 30 29  2  0
 31 30  1  0
 31 26  2  0
 32 33  1  0
 33 34  1  0
 34 35  2  0
 36 35  1  0
 36 40  1  0
 37 36  2  0
 38 33  2  0
 38 37  1  0
 39 38  1  0
 41 42  1  0
 42 45  1  0
 42 44  1  0
 43 41  2  0
 46 21  1  0
 46 47  1  0
 48 46  1  0
 49  9  1  0
 49 50  2  0
 51 50  1  0
 52 63  2  0
 53 51  1  0
 53 58  1  0
 54 62  1  0
 54 64  1  0
 55 61  1  0
 55 57  1  0
 56 62  1  0
 57 56  1  0
 58 57  2  0
 59 60  1  0
 59 53  2  0
 60 55  2  0
 61 54  1  0
 62 52  1  0
 64 66  2  0
 65 64  1  0
 67 65  1  0
 68 77  2  0
 68 73  1  0
 69 65  1  0
 69 73  1  0
 70 69  1  0
 71 72  1  0
 71 70  1  0
 72 68  1  0
 73 74  2  0
 74 75  1  0
 76 75  2  0
 77 76  1  0
 78 52  1  0
 78 79  1  0
 78 88  1  0
 79 82  1  0
 80 84  1  0
 80 79  1  0
 81 80  2  0
 84 83  1  0
 86 84  1  0
 86 87  1  0
 86 85  1  0
 88 91  1  1
 88 89  1  0
 90 88  1  0
M  ISO  4  11 100  19 100  50 101  51 101
M  END
>  <TORSDO>  (69) 
F 18

>  <SCORE>  (69) 
-14.296

>  <name>  (69) 
69

>  <ligand_id>  (69) 
69

>  <original_smiles>  (69) 
[H]C1=C2C([H])([H])C([H])([H])[N+]([H])(C([H])([H])C([H])([H])Oc3c([H])c([H])c4c(c3[H])C([H])([H])N(C(=O)C([H])(N([H])C(=O)C([H])(N([H])C([H])([H])[H])C([H])([H])[H])C(C([H])([H])[H])(C([H])([H])[H])C([H])([H])[H])C([H])(C(=O)N([H])C3([H])c5c([H])c([H])c([H])c([H])c5C([H])([H])C([H])([H])C3([H])[H])C4([H])[H])C1=C([H])C([H])([H])C2([H])N([H])C(=O)N1C([H])([H])C([H])([H])C([H])([H])C([H])(n2nc(-c3c([H])c([H])c(Oc4c([H])c([H])c(F)c([H])c4F)c([H])c3[H])c(C(=O)N([H])[H])c2N([H])[H])C1([H])[H]

>  <smiles>  (69) 
[H]C1=C2C([H])([H])C([H])([H])[N+]([H])(C([H])([H])C([H])([H])Oc3c([H])c([H])c4c(c3[H])C([H])([H])N(C(=O)C([H])(N([H])C(=O)C([H])(N([H])C([H])([H])[H])C([H])([H])[H])C(C([H])([H])[H])(C([H])([H])[H])C([H])([H])[H])C([H])(C(=O)N([H])C3([H])c5c([H])c([H])c([H])c([H])c5C([H])([H])C([H])([H])C3([H])[H])C4([H])[H])C1=C([H])C([H])([H])C2([H])N([H])C(=O)N1C([H])([H])C([H])([H])C([H])([H])C([H])(n2nc(-c3c([H])c([H])c(Oc4c([H])c([H])c(F)c([H])c4F)c([H])c3[H])c(C(=O)N([H])[H])c2N([H])[H])C1([H])[H]

$$$$
70:0:0
     RDKit          3D

 96105  0  0  1  0  0  0  0  0999 V2000
  -29.2380  -20.9270   19.7110 C   0  0  0  0  0  3  0  0  0  0  0  0
  -29.6040  -19.5770   19.8640 C   0  0  0  0  0  3  0  0  0  0  0  0
  -30.1130  -19.9820   22.2110 C   0  0  0  0  0  3  0  0  0  0  0  0
  -29.7730  -21.3450   22.0560 C   0  0  0  0  0  0  0  0  0  0  0  0
  -29.2720  -21.8110   20.8130 C   0  0  0  0  0  0  0  0  0  0  0  0
  -30.0090  -19.0910   21.1210 C   0  0  0  0  0  0  0  0  0  0  0  0
  -29.9110  -22.2520   23.2170 C   0  0  0  0  0  0  0  0  0  0  0  0
  -28.6420  -23.1970   20.6620 C   0  0  0  0  0  2  0  0  0  0  0  0
  -30.7270  -23.5130   22.9490 C   0  0  0  0  0  2  0  0  0  0  0  0
  -29.9560  -24.6190   22.2050 C   0  0  0  0  0  2  0  0  0  0  0  0
  -29.5900  -24.3360   20.7850 N   0  0  2  0  0  4  0  0  0  0  0  0
  -29.4780  -22.0060   24.3450 O   0  0  0  0  0  0  0  0  0  0  0  0
  -30.4320  -24.0830   20.2860 H   0  0  0  0  0  0  0  0  0  0  0  0
  -30.2320  -17.6030   21.3200 C   0  0  0  0  0  2  0  0  0  0  0  0
  -31.6070  -17.0670   20.8710 C   0  0  0  0  0  2  0  0  0  0  0  0
  -32.1070  -14.6980   20.2340 C   0  0  0  0  0  0  0  0  0  0  0  0
  -31.7650  -12.4100   19.3570 C   0  0  0  0  0  2  0  0  0  0  0  0
  -30.8170  -12.4340   18.1390 C   0  0  0  0  0  2  0  0  0  0  0  0
  -29.3430  -12.3930   18.5880 C   0  0  0  0  0  2  0  0  0  0  0  0
  -29.0300  -13.4450   19.6820 C   0  0  0  0  0  3  0  0  0  0  0  0
  -30.0670  -13.3500   20.8220 C   0  0  0  0  0  2  0  0  0  0  0  0
  -31.4170  -13.5290   20.2440 N   0  0  0  0  0  0  0  0  0  0  0  0
  -33.0980  -14.9090   19.5250 O   0  0  0  0  0  0  0  0  0  0  0  0
  -31.6030  -15.6200   21.0580 N   0  0  0  0  0  0  0  0  0  0  0  0
  -30.9010  -15.2670   21.6910 H   0  0  0  0  0  0  0  0  0  0  0  0
  -26.7380  -14.2740   20.5210 C   0  0  0  0  0  0  0  0  0  0  0  0
  -25.6000  -13.6020   20.8790 C   0  0  0  0  0  0  0  0  0  0  0  0
  -25.8980  -12.2130   20.7280 C   0  0  0  0  0  0  0  0  0  0  0  0
  -27.6670  -13.3000   20.1880 N   0  0  0  0  0  0  0  0  0  0  0  0
  -27.1630  -12.0500   20.3640 N   0  0  0  0  0  0  0  0  0  0  0  0
  -25.0400  -11.0290   20.8550 C   0  0  0  0  0  0  0  0  0  0  0  0
  -25.3420   -9.9920   21.7640 C   0  0  0  0  0  3  0  0  0  0  0  0
  -24.4910   -8.8720   21.8820 C   0  0  0  0  0  3  0  0  0  0  0  0
  -23.3220   -8.7830   21.0880 C   0  0  0  0  0  0  0  0  0  0  0  0
  -23.0380   -9.8080   20.1690 C   0  0  0  0  0  3  0  0  0  0  0  0
  -23.8890  -10.9190   20.0510 C   0  0  0  0  0  3  0  0  0  0  0  0
  -22.4500   -7.7210   21.1140 O   0  0  0  0  0  0  0  0  0  0  0  0
  -22.1700   -7.0520   22.2770 C   0  0  0  0  0  0  0  0  0  0  0  0
  -21.6420   -7.7110   23.4080 C   0  0  0  0  0  3  0  0  0  0  0  0
  -21.3020   -6.9720   24.5590 C   0  0  0  0  0  3  0  0  0  0  0  0
  -21.4800   -5.5760   24.5770 C   0  0  0  0  0  0  0  0  0  0  0  0
  -22.0010   -4.9160   23.4500 C   0  0  0  0  0  3  0  0  0  0  0  0
  -22.3420   -5.6530   22.3010 C   0  0  0  0  0  0  0  0  0  0  0  0
  -22.8230   -5.0100   21.2110 F   0  0  0  0  0  0  0  0  0  0  0  0
  -21.1460   -4.8650   25.6790 F   0  0  0  0  0  0  0  0  0  0  0  0
  -24.2780  -14.2100   21.2480 C   0  0  0  0  0  0  0  0  0  0  0  0
  -23.5210  -13.5460   22.1150 N   0  0  0  0  0  0  0  0  0  0  0  0
  -23.9300  -15.3030   20.8040 O   0  0  0  0  0  0  0  0  0  0  0  0
  -23.8160  -12.6570   22.4910 H   0  0  0  0  0  0  0  0  0  0  0  0
  -22.6360  -13.9320   22.4090 H   0  0  0  0  0  0  0  0  0  0  0  0
  -27.0590  -15.6250   20.4350 N   0  0  0  0  0  0  0  0  0  0  0  0
  -26.3850  -16.3590   20.6220 H   0  0  0  0  0  0  0  0  0  0  0  0
  -27.9420  -15.9790   20.0920 H   0  0  0  0  0  0  0  0  0  0  0  0
  -29.0760  -25.5920   20.1580 C   0  0  0  0  0  2  0  0  0  0  0  0
  -28.9770  -25.6000   18.6060 C   0  0  0  0  0  2  0  0  0  0  0  0
  -28.6930  -26.9130   18.1130 O   0  0  0  0  0  0  0  0  0  0  0  0
  -24.9940  -30.6440   22.8590 C   0  0  0  0  0  0  0  0  0  0  0  0
  -27.4620  -27.4480   18.4200 C   0  0  0  0  0  0  0  0  0  0  0  0
  -23.6550  -29.5160   21.1130 C   0  0  0  0  0  3  0  0  0  0  0  0
  -24.9720  -28.5610   19.1520 C   0  0  0  0  0  0  0  0  0  0  0  0
  -26.0600  -30.2460   20.6460 C   0  0  0  0  0  2  0  0  0  0  0  0
  -26.1580  -29.0900   19.6750 C   0  0  0  0  0  0  0  0  0  0  0  0
  -27.4050  -28.5440   19.3050 C   0  0  0  0  0  3  0  0  0  0  0  0
  -26.2580  -26.9300   17.8880 C   0  0  0  0  0  3  0  0  0  0  0  0
  -25.0170  -27.4810   18.2540 C   0  0  0  0  0  3  0  0  0  0  0  0
  -23.6800  -29.2080   19.5910 C   0  0  0  0  0  2  0  0  0  0  0  0
  -24.9310  -30.1360   21.5960 N   0  0  0  0  0  0  0  0  0  0  0  0
  -24.0030  -30.6410   23.6020 O   0  0  0  0  0  0  0  0  0  0  0  0
  -23.2730  -28.2240   21.8720 C   0  0  0  0  0  0  0  0  0  0  0  0
  -22.0090  -27.7950   21.7290 N   0  0  0  0  0  0  0  0  0  0  0  0
  -24.1120  -27.6170   22.5450 O   0  0  0  0  0  0  0  0  0  0  0  0
  -21.3840  -28.3400   21.1520 H   0  0  0  0  0  0  0  0  0  0  0  0
  -19.0490  -25.7370   21.8490 C   0  0  0  0  0  0  0  0  0  0  0  0
  -21.4410  -26.5900   22.3310 C   0  0  0  0  0  3  0  0  0  0  0  0
  -21.9300  -25.3160   21.6060 C   0  0  0  0  0  2  0  0  0  0  0  0
  -20.9960  -24.8800   20.4730 C   0  0  0  0  0  2  0  0  0  0  0  0
  -19.5920  -24.5890   21.0140 C   0  0  0  0  0  2  0  0  0  0  0  0
  -19.9160  -26.6870   22.4500 C   0  0  0  0  0  0  0  0  0  0  0  0
  -19.3570  -27.7580   23.1820 C   0  0  0  0  0  3  0  0  0  0  0  0
  -17.9630  -27.8890   23.3140 C   0  0  0  0  0  3  0  0  0  0  0  0
  -17.1100  -26.9360   22.7290 C   0  0  0  0  0  3  0  0  0  0  0  0
  -17.6520  -25.8610   22.0050 C   0  0  0  0  0  3  0  0  0  0  0  0
  -26.3040  -31.2770   23.4230 C   0  0  0  0  0  3  0  0  0  0  0  0
  -27.1110  -30.3020   24.3670 C   0  0  1  0  0  0  0  0  0  0  0  0
  -26.2550  -29.6760   25.4900 C   0  0  0  0  0  1  0  0  0  0  0  0
  -27.7340  -29.1440   23.5510 C   0  0  0  0  0  1  0  0  0  0  0  0
  -28.2880  -31.0610   25.0210 C   0  0  0  0  0  1  0  0  0  0  0  0
  -25.9300  -32.5060   24.1380 N   0  0  0  0  0  0  0  0  0  0  0  0
  -26.1340  -33.7470   23.6740 C   0  0  0  0  0  0  0  0  0  0  0  0
  -26.7280  -33.9770   22.6160 O   0  0  0  0  0  0  0  0  0  0  0  0
  -25.3890  -32.3940   24.9830 H   0  0  0  0  0  0  0  0  0  0  0  0
  -24.2950  -35.4470   23.8840 C   0  0  0  0  0  1  0  0  0  0  0  0
  -25.5950  -34.9210   24.5140 C   0  0  0  0  0  3  0  0  0  0  0  0
  -27.7140  -35.6760   25.4940 C   0  0  0  0  0  1  0  0  0  0  0  0
  -26.5630  -36.0280   24.6670 N   0  0  0  0  0  0  0  0  0  0  0  0
  -26.1180  -36.8470   25.0720 H   0  0  0  0  0  0  0  0  0  0  0  0
  1  2  2  0
  1  5  1  0
  2  6  1  0
  4  3  1  0
  4  7  1  0
  5  4  2  0
  6 14  1  0
  6  3  2  0
  7 12  2  0
  8 11  1  0
  8  5  1  0
  9  7  1  0
 10  9  1  0
 11 10  1  0
 11 13  1  6
 15 24  1  0
 15 14  1  0
 16 22  1  0
 16 24  1  0
 17 22  1  0
 18 19  1  0
 18 17  1  0
 20 19  1  0
 20 29  1  0
 20 21  1  0
 22 21  1  0
 23 16  2  0
 24 25  1  0
 26 27  2  0
 27 46  1  0
 28 31  1  0
 28 27  1  0
 29 30  1  0
 29 26  1  0
 30 28  2  0
 31 32  1  0
 32 33  2  0
 34 37  1  0
 34 33  1  0
 35 34  2  0
 36 35  1  0
 36 31  2  0
 37 38  1  0
 38 43  2  0
 38 39  1  0
 39 40  2  0
 40 41  1  0
 41 45  1  0
 42 41  2  0
 43 42  1  0
 44 43  1  0
 46 47  1  0
 47 50  1  0
 47 49  1  0
 48 46  2  0
 51 26  1  0
 51 52  1  0
 53 51  1  0
 54 11  1  0
 55 54  1  0
 56 58  1  0
 56 55  1  0
 57 68  2  0
 58 63  1  0
 59 67  1  0
 59 69  1  0
 60 66  1  0
 60 62  1  0
 61 67  1  0
 62 61  1  0
 63 62  2  0
 64 65  1  0
 64 58  2  0
 65 60  2  0
 66 59  1  0
 67 57  1  0
 69 71  2  0
 70 69  1  0
 72 70  1  0
 73 82  2  0
 73 78  1  0
 74 70  1  0
 74 78  1  0
 75 74  1  0
 76 77  1  0
 76 75  1  0
 77 73  1  0
 78 79  2  0
 79 80  1  0
 81 80  2  0
 82 81  1  0
 83 57  1  0
 83 88  1  0
 83 84  1  0
 84 87  1  1
 84 85  1  0
 86 84  1  0
 88 91  1  0
 89 88  1  0
 89 93  1  0
 90 89  2  0
 93 92  1  0
 93 95  1  0
 95 96  1  0
 95 94  1  0
M  ISO  4  16 100  24 100  55 101  56 101
M  END
>  <TORSDO>  (70) 
F 20

>  <SCORE>  (70) 
-8.131

>  <name>  (70) 
70

>  <ligand_id>  (70) 
70

>  <original_smiles>  (70) 
[H]c1c([H])c([H])c2c(c1[H])C([H])([H])C([H])([H])C([H])([H])C2([H])N([H])C(=O)C1([H])N(C(=O)C([H])(N([H])C(=O)C([H])(N([H])C([H])([H])[H])C([H])([H])[H])C(C([H])([H])[H])(C([H])([H])[H])C([H])([H])[H])C([H])([H])c2c([H])c(OC([H])([H])C([H])([H])[N+]3([H])C([H])([H])c4c([H])c([H])c(C([H])([H])C([H])([H])N([H])C(=O)N5C([H])([H])C([H])([H])C([H])([H])C([H])(n6nc(-c7c([H])c([H])c(Oc8c([H])c([H])c(F)c([H])c8F)c([H])c7[H])c(C(=O)N([H])[H])c6N([H])[H])C5([H])[H])c([H])c4C(=O)C([H])([H])C3([H])[H])c([H])c([H])c2C1([H])[H]

>  <smiles>  (70) 
[H]c1c([H])c([H])c2c(c1[H])C([H])([H])C([H])([H])C([H])([H])C2([H])N([H])C(=O)C1([H])N(C(=O)C([H])(N([H])C(=O)C([H])(N([H])C([H])([H])[H])C([H])([H])[H])C(C([H])([H])[H])(C([H])([H])[H])C([H])([H])[H])C([H])([H])c2c([H])c(OC([H])([H])C([H])([H])[N+]3([H])C([H])([H])c4c([H])c([H])c(C([H])([H])C([H])([H])N([H])C(=O)N5C([H])([H])C([H])([H])C([H])([H])C([H])(n6nc(-c7c([H])c([H])c(Oc8c([H])c([H])c(F)c([H])c8F)c([H])c7[H])c(C(=O)N([H])[H])c6N([H])[H])C5([H])[H])c([H])c4C(=O)C([H])([H])C3([H])[H])c([H])c([H])c2C1([H])[H]

$$$$
71:0:0
     RDKit          3D

 94104  0  0  1  0  0  0  0  0999 V2000
  -29.3130  -21.1410   18.5320 C   0  0  0  0  0  3  0  0  0  0  0  0
  -29.6760  -19.7600   18.7620 C   0  0  0  0  0  3  0  0  0  0  0  0
  -29.4260  -20.1270   21.0840 C   0  0  0  0  0  3  0  0  0  0  0  0
  -29.0090  -22.0920   19.5620 C   0  0  0  0  0  0  0  0  0  0  0  0
  -29.7870  -19.1530   20.0510 C   0  0  0  0  0  0  0  0  0  0  0  0
  -29.0530  -21.5350   20.8630 C   0  0  0  0  0  0  0  0  0  0  0  0
  -28.7080  -23.6260   19.2950 C   0  0  0  0  0  0  0  0  0  0  0  0
  -28.7680  -23.9290   21.7780 C   0  0  0  0  0  2  0  0  0  0  0  0
  -28.1890  -24.5990   20.4650 C   0  0  0  0  0  3  0  0  0  0  0  0
  -28.7350  -22.4280   21.9210 N   0  0  0  0  0  0  0  0  0  0  0  0
  -28.8400  -24.1070   18.1640 O   0  0  0  0  0  0  0  0  0  0  0  0
  -28.8140  -22.0640   22.8690 H   0  0  0  0  0  0  0  0  0  0  0  0
  -30.7230  -14.9900   19.9830 C   0  0  0  0  0  0  0  0  0  0  0  0
  -30.5020  -12.6760   18.9400 C   0  0  0  0  0  2  0  0  0  0  0  0
  -29.4810  -12.6570   17.7770 C   0  0  0  0  0  2  0  0  0  0  0  0
  -28.0490  -12.4320   18.3030 C   0  0  0  0  0  2  0  0  0  0  0  0
  -27.7360  -13.3080   19.5410 C   0  0  0  0  0  3  0  0  0  0  0  0
  -28.8670  -13.2550   20.5800 C   0  0  0  0  0  2  0  0  0  0  0  0
  -30.0910  -13.7380   19.9130 N   0  0  0  0  0  0  0  0  0  0  0  0
  -31.8530  -15.0460   19.4800 O   0  0  0  0  0  0  0  0  0  0  0  0
  -30.5620  -17.1850   22.5800 C   0  0  0  0  0  2  0  0  0  0  0  0
  -31.4430  -17.8140   21.5070 C   0  0  0  0  0  2  0  0  0  0  0  0
  -29.6490  -16.2050   21.8260 C   0  0  0  0  0  2  0  0  0  0  0  0
  -30.5860  -17.6940   20.2470 C   0  0  0  0  0  3  0  0  0  0  0  0
  -30.0720  -16.2020   20.4180 N   0  0  0  0  0  0  0  0  0  0  0  0
  -25.4340  -13.8610   20.5150 C   0  0  0  0  0  0  0  0  0  0  0  0
  -24.3980  -13.0730   20.9310 C   0  0  0  0  0  0  0  0  0  0  0  0
  -24.8460  -11.7230   20.7900 C   0  0  0  0  0  0  0  0  0  0  0  0
  -26.4420  -12.9910   20.1330 N   0  0  0  0  0  0  0  0  0  0  0  0
  -26.1030  -11.6970   20.3670 N   0  0  0  0  0  0  0  0  0  0  0  0
  -24.1260  -10.4550   20.9750 C   0  0  0  0  0  0  0  0  0  0  0  0
  -24.5700   -9.4810   21.8960 C   0  0  0  0  0  3  0  0  0  0  0  0
  -23.8490   -8.2800   22.0690 C   0  0  0  0  0  3  0  0  0  0  0  0
  -22.6710   -8.0440   21.3200 C   0  0  0  0  0  0  0  0  0  0  0  0
  -22.2470   -9.0090   20.3900 C   0  0  0  0  0  3  0  0  0  0  0  0
  -22.9670  -10.2010   20.2150 C   0  0  0  0  0  3  0  0  0  0  0  0
  -21.9210   -6.8960   21.4040 O   0  0  0  0  0  0  0  0  0  0  0  0
  -21.7980   -6.1990   22.5790 C   0  0  0  0  0  0  0  0  0  0  0  0
  -21.2720   -6.7970   23.7460 C   0  0  0  0  0  3  0  0  0  0  0  0
  -21.0970   -6.0260   24.9120 C   0  0  0  0  0  3  0  0  0  0  0  0
  -21.4370   -4.6600   24.9130 C   0  0  0  0  0  0  0  0  0  0  0  0
  -21.9550   -4.0640   23.7510 C   0  0  0  0  0  3  0  0  0  0  0  0
  -22.1320   -4.8300   22.5860 C   0  0  0  0  0  0  0  0  0  0  0  0
  -22.6120   -4.2450   21.4610 F   0  0  0  0  0  0  0  0  0  0  0  0
  -21.2620   -3.9170   26.0320 F   0  0  0  0  0  0  0  0  0  0  0  0
  -23.0340  -13.5420   21.3440 C   0  0  0  0  0  0  0  0  0  0  0  0
  -22.3800  -12.8160   22.2440 N   0  0  0  0  0  0  0  0  0  0  0  0
  -22.5580  -14.5860   20.9010 O   0  0  0  0  0  0  0  0  0  0  0  0
  -22.7810  -11.9720   22.6250 H   0  0  0  0  0  0  0  0  0  0  0  0
  -21.4670  -13.1120   22.5580 H   0  0  0  0  0  0  0  0  0  0  0  0
  -25.5940  -15.2380   20.4030 N   0  0  0  0  0  0  0  0  0  0  0  0
  -24.8500  -15.8850   20.6330 H   0  0  0  0  0  0  0  0  0  0  0  0
  -26.4180  -15.6990   20.0360 H   0  0  0  0  0  0  0  0  0  0  0  0
  -28.3990  -26.1560   20.3300 O   0  0  0  0  0  0  0  0  0  0  0  0
  -24.6780  -31.8660   23.2140 C   0  0  0  0  0  0  0  0  0  0  0  0
  -27.3280  -27.1250   20.2730 C   0  0  0  0  0  0  0  0  0  0  0  0
  -23.5130  -30.4490   21.5680 C   0  0  0  0  0  3  0  0  0  0  0  0
  -24.9940  -28.8670   20.1810 C   0  0  0  0  0  0  0  0  0  0  0  0
  -26.0680  -30.7220   21.4440 C   0  0  0  0  0  2  0  0  0  0  0  0
  -26.1610  -29.3250   20.8040 C   0  0  0  0  0  0  0  0  0  0  0  0
  -27.3300  -28.4700   20.8270 C   0  0  0  0  0  3  0  0  0  0  0  0
  -26.1340  -26.7700   19.6090 C   0  0  0  0  0  3  0  0  0  0  0  0
  -24.9940  -27.6040   19.5670 C   0  0  0  0  0  3  0  0  0  0  0  0
  -23.7620  -29.7610   20.1990 C   0  0  0  0  0  2  0  0  0  0  0  0
  -24.7720  -31.0370   22.1290 N   0  0  0  0  0  0  0  0  0  0  0  0
  -23.5820  -32.1490   23.7240 O   0  0  0  0  0  0  0  0  0  0  0  0
  -22.8290  -29.4440   22.5280 C   0  0  0  0  0  0  0  0  0  0  0  0
  -21.5010  -29.2790   22.3990 N   0  0  0  0  0  0  0  0  0  0  0  0
  -23.4950  -28.8150   23.3530 O   0  0  0  0  0  0  0  0  0  0  0  0
  -21.0210  -29.8400   21.7090 H   0  0  0  0  0  0  0  0  0  0  0  0
  -18.1070  -28.1230   22.9250 C   0  0  0  0  0  0  0  0  0  0  0  0
  -20.6730  -28.3460   23.1680 C   0  0  0  0  0  3  0  0  0  0  0  0
  -20.7480  -26.9200   22.5750 C   0  0  0  0  0  2  0  0  0  0  0  0
  -19.6300  -26.6250   21.5680 C   0  0  0  0  0  2  0  0  0  0  0  0
  -18.2560  -26.7810   22.2280 C   0  0  0  0  0  2  0  0  0  0  0  0
  -19.2420  -28.8650   23.3510 C   0  0  0  0  0  0  0  0  0  0  0  0
  -19.0460  -30.1220   23.9640 C   0  0  0  0  0  3  0  0  0  0  0  0
  -17.7500  -30.6370   24.1540 C   0  0  0  0  0  3  0  0  0  0  0  0
  -16.6310  -29.8920   23.7430 C   0  0  0  0  0  3  0  0  0  0  0  0
  -16.8110  -28.6370   23.1360 C   0  0  0  0  0  3  0  0  0  0  0  0
  -25.9420  -32.5160   23.8560 C   0  0  0  0  0  3  0  0  0  0  0  0
  -25.6150  -33.9160   24.1720 N   0  0  0  0  0  0  0  0  0  0  0  0
  -25.9300  -34.9670   23.4040 C   0  0  0  0  0  0  0  0  0  0  0  0
  -26.5950  -34.8610   22.3690 O   0  0  0  0  0  0  0  0  0  0  0  0
  -25.0260  -34.0710   24.9760 H   0  0  0  0  0  0  0  0  0  0  0  0
  -24.1690  -36.7340   23.0620 C   0  0  0  0  0  1  0  0  0  0  0  0
  -25.4330  -36.3560   23.8520 C   0  0  0  0  0  3  0  0  0  0  0  0
  -27.5670  -37.2860   24.6330 C   0  0  0  0  0  1  0  0  0  0  0  0
  -26.4470  -37.4230   23.7060 N   0  0  0  0  0  0  0  0  0  0  0  0
  -26.0300  -38.3390   23.8480 H   0  0  0  0  0  0  0  0  0  0  0  0
  -26.4330  -31.7660   25.1540 C   0  0  1  0  0  0  0  0  0  0  0  0
  -25.3150  -31.5350   26.2010 C   0  0  0  0  0  1  0  0  0  0  0  0
  -27.0360  -30.3880   24.8010 C   0  0  0  0  0  1  0  0  0  0  0  0
  -27.5640  -32.5780   25.8300 C   0  0  0  0  0  1  0  0  0  0  0  0
  1  2  2  0
  1  4  1  0
  2  5  1  0
  4  6  2  0
  5  3  2  0
  6  3  1  0
  6 10  1  0
  7  4  1  0
  7  9  1  0
  8 10  1  0
  9 54  1  0
  9  8  1  0
 10 12  1  0
 11  7  2  0
 13 25  1  0
 14 19  1  0
 15 16  1  0
 15 14  1  0
 17 16  1  0
 17 29  1  0
 17 18  1  0
 19 13  1  0
 19 18  1  0
 20 13  2  0
 22 21  1  0
 23 21  1  0
 24  5  1  0
 24 25  1  0
 24 22  1  0
 25 23  1  0
 26 27  2  0
 27 46  1  0
 28 27  1  0
 28 31  1  0
 29 30  1  0
 29 26  1  0
 30 28  2  0
 31 32  1  0
 32 33  2  0
 34 37  1  0
 34 33  1  0
 35 34  2  0
 36 35  1  0
 36 31  2  0
 37 38  1  0
 38 43  2  0
 38 39  1  0
 39 40  2  0
 40 41  1  0
 41 45  1  0
 42 41  2  0
 43 42  1  0
 44 43  1  0
 46 47  1  0
 47 50  1  0
 47 49  1  0
 48 46  2  0
 51 26  1  0
 51 52  1  0
 53 51  1  0
 55 66  2  0
 56 54  1  0
 56 61  1  0
 57 65  1  0
 57 67  1  0
 58 64  1  0
 58 60  1  0
 59 65  1  0
 60 61  2  0
 60 59  1  0
 62 56  2  0
 63 62  1  0
 63 58  2  0
 64 57  1  0
 65 55  1  0
 67 69  2  0
 68 67  1  0
 70 68  1  0
 71 80  2  0
 71 76  1  0
 72 68  1  0
 72 76  1  0
 73 72  1  0
 74 75  1  0
 74 73  1  0
 75 71  1  0
 76 77  2  0
 77 78  1  0
 79 78  2  0
 80 79  1  0
 81 55  1  0
 81 82  1  0
 81 91  1  0
 82 85  1  0
 83 87  1  0
 83 82  1  0
 84 83  2  0
 87 86  1  0
 89 90  1  0
 89 87  1  0
 89 88  1  0
 91 94  1  1
 91 92  1  0
 93 91  1  0
M  ISO  4   9 101  13 100  25 100  54 101
M  END
>  <TORSDO>  (71) 
F 16

>  <SCORE>  (71) 
-15.216

>  <name>  (71) 
71

>  <ligand_id>  (71) 
71

>  <original_smiles>  (71) 
[H]c1c([H])c([H])c2c(c1[H])C([H])([H])C([H])([H])C([H])([H])C2([H])N([H])C(=O)C1([H])N(C(=O)C([H])(N([H])C(=O)C([H])(N([H])C([H])([H])[H])C([H])([H])[H])C(C([H])([H])[H])(C([H])([H])[H])C([H])([H])[H])C([H])([H])c2c([H])c(OC3([H])C(=O)c4c([H])c([H])c(C5([H])N(C(=O)N6C([H])([H])C([H])([H])C([H])([H])C([H])(n7nc(-c8c([H])c([H])c(Oc9c([H])c([H])c(F)c([H])c9F)c([H])c8[H])c(C(=O)N([H])[H])c7N([H])[H])C6([H])[H])C([H])([H])C([H])([H])C5([H])[H])c([H])c4N([H])C3([H])[H])c([H])c([H])c2C1([H])[H]

>  <smiles>  (71) 
[H]c1c([H])c([H])c2c(c1[H])C([H])([H])C([H])([H])C([H])([H])C2([H])N([H])C(=O)C1([H])N(C(=O)C([H])(N([H])C(=O)C([H])(N([H])C([H])([H])[H])C([H])([H])[H])C(C([H])([H])[H])(C([H])([H])[H])C([H])([H])[H])C([H])([H])c2c([H])c(OC3([H])C(=O)c4c([H])c([H])c(C5([H])N(C(=O)N6C([H])([H])C([H])([H])C([H])([H])C([H])(n7nc(-c8c([H])c([H])c(Oc9c([H])c([H])c(F)c([H])c9F)c([H])c8[H])c(C(=O)N([H])[H])c7N([H])[H])C6([H])[H])C([H])([H])C([H])([H])C5([H])[H])c([H])c4N([H])C3([H])[H])c([H])c([H])c2C1([H])[H]

$$$$
72:0:0
     RDKit          3D

 91 99  0  0  1  0  0  0  0  0999 V2000
  -29.6800  -22.3480   19.6550 N   0  0  0  0  0  4  0  0  0  0  0  0
  -29.8260  -22.3880   18.6600 H   0  0  0  0  0  0  0  0  0  0  0  0
  -30.5820  -22.5690   20.0480 H   0  0  0  0  0  0  0  0  0  0  0  0
  -28.7830  -18.4860   19.1100 C   0  0  0  0  0  2  0  0  0  0  0  0
  -28.6680  -20.0380   18.8700 C   0  0  0  0  0  2  0  0  0  0  0  0
  -30.6190  -19.6410   20.0850 C   0  0  0  0  0  2  0  0  0  0  0  0
  -30.2570  -18.1370   19.4610 C   0  0  0  0  0  3  0  0  0  0  0  0
  -29.4010  -20.7950   20.0080 C   0  0  1  0  0  0  0  0  0  0  0  0
  -31.1880  -15.4970   19.8300 C   0  0  0  0  0  0  0  0  0  0  0  0
  -31.0530  -13.1020   18.9910 C   0  0  0  0  0  2  0  0  0  0  0  0
  -30.0850  -13.0270   17.7860 C   0  0  0  0  0  2  0  0  0  0  0  0
  -28.6340  -12.8310   18.2620 C   0  0  0  0  0  2  0  0  0  0  0  0
  -28.2660  -13.8010   19.4120 C   0  0  0  0  0  3  0  0  0  0  0  0
  -29.3470  -13.8320   20.5140 C   0  0  0  0  0  2  0  0  0  0  0  0
  -30.6120  -14.2230   19.8760 N   0  0  0  0  0  0  0  0  0  0  0  0
  -32.3450  -15.5670   19.4030 O   0  0  0  0  0  0  0  0  0  0  0  0
  -30.4070  -16.6690   20.0850 N   0  0  0  0  0  0  0  0  0  0  0  0
  -29.5710  -16.4020   20.5830 H   0  0  0  0  0  0  0  0  0  0  0  0
  -25.9290  -14.4330   20.2470 C   0  0  0  0  0  0  0  0  0  0  0  0
  -24.8600  -13.6810   20.6490 C   0  0  0  0  0  0  0  0  0  0  0  0
  -25.2860  -12.3200   20.5810 C   0  0  0  0  0  0  0  0  0  0  0  0
  -26.9380  -13.5320   19.9540 N   0  0  0  0  0  0  0  0  0  0  0  0
  -26.5620  -12.2540   20.2200 N   0  0  0  0  0  0  0  0  0  0  0  0
  -24.5340  -11.0730   20.7800 C   0  0  0  0  0  0  0  0  0  0  0  0
  -24.9130  -10.1300   21.7610 C   0  0  0  0  0  3  0  0  0  0  0  0
  -24.1600   -8.9500   21.9460 C   0  0  0  0  0  3  0  0  0  0  0  0
  -23.0140   -8.7050   21.1500 C   0  0  0  0  0  0  0  0  0  0  0  0
  -22.6570   -9.6380   20.1600 C   0  0  0  0  0  3  0  0  0  0  0  0
  -23.4110  -10.8080   19.9730 C   0  0  0  0  0  3  0  0  0  0  0  0
  -22.2380   -7.5760   21.2430 O   0  0  0  0  0  0  0  0  0  0  0  0
  -22.0460   -6.9320   22.4400 C   0  0  0  0  0  0  0  0  0  0  0  0
  -21.4410   -7.5720   23.5430 C   0  0  0  0  0  3  0  0  0  0  0  0
  -21.1990   -6.8500   24.7300 C   0  0  0  0  0  3  0  0  0  0  0  0
  -21.5510   -5.4910   24.8120 C   0  0  0  0  0  0  0  0  0  0  0  0
  -22.1470   -4.8490   23.7110 C   0  0  0  0  0  3  0  0  0  0  0  0
  -22.3900   -5.5670   22.5270 C   0  0  0  0  0  0  0  0  0  0  0  0
  -22.9450   -4.9400   21.4630 F   0  0  0  0  0  0  0  0  0  0  0  0
  -21.3110   -4.7960   25.9470 F   0  0  0  0  0  0  0  0  0  0  0  0
  -23.4860  -14.1900   20.9810 C   0  0  0  0  0  0  0  0  0  0  0  0
  -22.7810  -13.5060   21.8720 N   0  0  0  0  0  0  0  0  0  0  0  0
  -23.0540  -15.2300   20.4850 O   0  0  0  0  0  0  0  0  0  0  0  0
  -23.1430  -12.6590   22.2880 H   0  0  0  0  0  0  0  0  0  0  0  0
  -21.8610  -13.8270   22.1420 H   0  0  0  0  0  0  0  0  0  0  0  0
  -26.1220  -15.8020   20.0790 N   0  0  0  0  0  0  0  0  0  0  0  0
  -25.3730  -16.4720   20.2200 H   0  0  0  0  0  0  0  0  0  0  0  0
  -26.9590  -16.2200   19.6970 H   0  0  0  0  0  0  0  0  0  0  0  0
  -27.3270  -21.5320   21.5160 C   0  0  0  0  0  1  0  0  0  0  0  0
  -28.6170  -20.6830   21.3600 C   0  0  0  0  0  2  0  0  0  0  0  0
  -28.7600  -23.6200   20.0120 C   0  0  0  0  0  2  0  0  0  0  0  0
  -28.9490  -25.1750   19.3290 C   0  0  0  0  0  2  0  0  0  0  0  0
  -28.7450  -26.6450   19.8490 O   0  0  0  0  0  0  0  0  0  0  0  0
  -24.7280  -31.8170   23.1000 C   0  0  0  0  0  0  0  0  0  0  0  0
  -27.6060  -27.5310   19.7550 C   0  0  0  0  0  0  0  0  0  0  0  0
  -23.6070  -30.4580   21.3700 C   0  0  0  0  0  3  0  0  0  0  0  0
  -25.1520  -29.1000   19.8170 C   0  0  0  0  0  0  0  0  0  0  0  0
  -26.1260  -30.9410   21.1880 C   0  0  0  0  0  2  0  0  0  0  0  0
  -26.2960  -29.6040   20.4460 C   0  0  0  0  0  0  0  0  0  0  0  0
  -27.5190  -28.8360   20.3970 C   0  0  0  0  0  3  0  0  0  0  0  0
  -26.4330  -27.1300   19.0870 C   0  0  0  0  0  3  0  0  0  0  0  0
  -25.2320  -27.8830   19.1210 C   0  0  0  0  0  3  0  0  0  0  0  0
  -23.8560  -29.8920   19.9420 C   0  0  0  0  0  2  0  0  0  0  0  0
  -24.8390  -31.0900   21.9420 N   0  0  0  0  0  0  0  0  0  0  0  0
  -23.6340  -31.9720   23.6640 O   0  0  0  0  0  0  0  0  0  0  0  0
  -23.0260  -29.3360   22.2660 C   0  0  0  0  0  0  0  0  0  0  0  0
  -21.7150  -29.0630   22.1440 N   0  0  0  0  0  0  0  0  0  0  0  0
  -23.7590  -28.7150   23.0410 O   0  0  0  0  0  0  0  0  0  0  0  0
  -21.1660  -29.6290   21.5110 H   0  0  0  0  0  0  0  0  0  0  0  0
  -18.4570  -27.5490   22.5890 C   0  0  0  0  0  0  0  0  0  0  0  0
  -20.9870  -28.0110   22.8580 C   0  0  0  0  0  3  0  0  0  0  0  0
  -21.2040  -26.6290   22.1970 C   0  0  0  0  0  2  0  0  0  0  0  0
  -20.1230  -26.2800   21.1670 C   0  0  0  0  0  2  0  0  0  0  0  0
  -18.7400  -26.2680   21.8230 C   0  0  0  0  0  2  0  0  0  0  0  0
  -19.5120  -28.3740   23.0640 C   0  0  0  0  0  0  0  0  0  0  0  0
  -19.1920  -29.5710   23.7390 C   0  0  0  0  0  3  0  0  0  0  0  0
  -17.8500  -29.9460   23.9460 C   0  0  0  0  0  3  0  0  0  0  0  0
  -16.8120  -29.1190   23.4830 C   0  0  0  0  0  3  0  0  0  0  0  0
  -17.1160  -27.9230   22.8110 C   0  0  0  0  0  3  0  0  0  0  0  0
  -25.9690  -32.4990   23.7550 C   0  0  0  0  0  3  0  0  0  0  0  0
  -26.5000  -31.7360   25.0310 C   0  0  1  0  0  0  0  0  0  0  0  0
  -25.4040  -31.4420   26.0800 C   0  0  0  0  0  1  0  0  0  0  0  0
  -27.1500  -30.3890   24.6340 C   0  0  0  0  0  1  0  0  0  0  0  0
  -27.6010  -32.5730   25.7240 C   0  0  0  0  0  1  0  0  0  0  0  0
  -25.5890  -33.8770   24.1050 N   0  0  0  0  0  0  0  0  0  0  0  0
  -25.8810  -34.9590   23.3720 C   0  0  0  0  0  0  0  0  0  0  0  0
  -26.5610  -34.9060   22.3440 O   0  0  0  0  0  0  0  0  0  0  0  0
  -24.9880  -33.9940   24.9080 H   0  0  0  0  0  0  0  0  0  0  0  0
  -24.0680  -36.6730   23.0540 C   0  0  0  0  0  1  0  0  0  0  0  0
  -25.3300  -36.3160   23.8520 C   0  0  0  0  0  3  0  0  0  0  0  0
  -27.4170  -37.3030   24.6930 C   0  0  0  0  0  1  0  0  0  0  0  0
  -26.3090  -37.4200   23.7490 N   0  0  0  0  0  0  0  0  0  0  0  0
  -25.8540  -38.3150   23.9020 H   0  0  0  0  0  0  0  0  0  0  0  0
  1  8  1  0
  1 49  1  0
  1  3  1  0
  2  1  1  0
  4  7  1  0
  5  4  1  0
  5  8  1  0
  7  6  1  0
  7 17  1  0
  8  6  1  0
  8 48  1  1
  9 15  1  0
  9 17  1  0
 10 15  1  0
 11 12  1  0
 11 10  1  0
 13 12  1  0
 13 22  1  0
 13 14  1  0
 15 14  1  0
 16  9  2  0
 17 18  1  0
 19 20  2  0
 20 39  1  0
 21 20  1  0
 21 24  1  0
 22 23  1  0
 22 19  1  0
 23 21  2  0
 24 25  1  0
 25 26  2  0
 27 30  1  0
 27 26  1  0
 28 27  2  0
 29 28  1  0
 29 24  2  0
 30 31  1  0
 31 36  2  0
 31 32  1  0
 32 33  2  0
 33 34  1  0
 34 38  1  0
 35 34  2  0
 36 35  1  0
 37 36  1  0
 39 40  1  0
 40 43  1  0
 40 42  1  0
 41 39  2  0
 44 45  1  0
 44 19  1  0
 46 44  1  0
 48 47  1  0
 50 51  1  0
 50 49  1  0
 52 63  2  0
 53 51  1  0
 53 58  1  0
 54 62  1  0
 54 64  1  0
 55 61  1  0
 55 57  1  0
 56 62  1  0
 57 56  1  0
 58 57  2  0
 59 60  1  0
 59 53  2  0
 60 55  2  0
 61 54  1  0
 62 52  1  0
 64 66  2  0
 65 64  1  0
 67 65  1  0
 68 77  2  0
 68 73  1  0
 69 65  1  0
 69 73  1  0
 70 69  1  0
 71 72  1  0
 71 70  1  0
 72 68  1  0
 73 74  2  0
 74 75  1  0
 76 75  2  0
 77 76  1  0
 78 52  1  0
 78 83  1  0
 78 79  1  0
 79 82  1  1
 79 80  1  0
 81 79  1  0
 83 86  1  0
 84 88  1  0
 84 83  1  0
 85 84  2  0
 88 87  1  0
 90 88  1  0
 90 91  1  0
 90 89  1  0
M  ISO  4   9 100  17 100  50 101  51 101
M  END
>  <TORSDO>  (72) 
F 20

>  <SCORE>  (72) 
-11.681

>  <name>  (72) 
72

>  <ligand_id>  (72) 
72

>  <original_smiles>  (72) 
[H]c1c([H])c([H])c2c(c1[H])C([H])([H])C([H])([H])C([H])([H])C2([H])N([H])C(=O)C1([H])N(C(=O)C([H])(N([H])C(=O)C([H])(N([H])C([H])([H])[H])C([H])([H])[H])C(C([H])([H])[H])(C([H])([H])[H])C([H])([H])[H])C([H])([H])c2c([H])c(OC([H])([H])C([H])([H])[N+]([H])([H])C3(C([H])([H])C([H])([H])[H])C([H])([H])C([H])([H])C([H])(N([H])C(=O)N4C([H])([H])C([H])([H])C([H])([H])C([H])(n5nc(-c6c([H])c([H])c(Oc7c([H])c([H])c(F)c([H])c7F)c([H])c6[H])c(C(=O)N([H])[H])c5N([H])[H])C4([H])[H])C3([H])[H])c([H])c([H])c2C1([H])[H]

>  <smiles>  (72) 
[H]c1c([H])c([H])c2c(c1[H])C([H])([H])C([H])([H])C([H])([H])C2([H])N([H])C(=O)C1([H])N(C(=O)C([H])(N([H])C(=O)C([H])(N([H])C([H])([H])[H])C([H])([H])[H])C(C([H])([H])[H])(C([H])([H])[H])C([H])([H])[H])C([H])([H])c2c([H])c(OC([H])([H])C([H])([H])[N+]([H])([H])C3(C([H])([H])C([H])([H])[H])C([H])([H])C([H])([H])C([H])(N([H])C(=O)N4C([H])([H])C([H])([H])C([H])([H])C([H])(n5nc(-c6c([H])c([H])c(Oc7c([H])c([H])c(F)c([H])c7F)c([H])c6[H])c(C(=O)N([H])[H])c5N([H])[H])C4([H])[H])C3([H])[H])c([H])c([H])c2C1([H])[H]

$$$$
73:0:0
     RDKit          3D

 92101  0  0  1  0  0  0  0  0999 V2000
  -27.4840  -21.7430   21.0820 C   0  0  0  0  0  2  0  0  0  0  0  0
  -27.9030  -22.9210   18.9860 C   0  0  0  0  0  2  0  0  0  0  0  0
  -26.8420  -22.0940   19.7370 C   0  0  0  0  0  3  0  0  0  0  0  0
  -28.9890  -21.8850   20.8160 C   0  0  0  0  0  3  0  0  0  0  0  0
  -29.0470  -23.0950   19.9170 N   0  0  2  0  0  4  0  0  0  0  0  0
  -25.7150  -22.7840   19.9210 F   0  0  0  0  0  0  0  0  0  0  0  0
  -29.9120  -23.0690   19.3940 H   0  0  0  0  0  0  0  0  0  0  0  0
  -29.5910  -20.5500   20.1950 C   0  0  0  0  0  3  0  0  0  0  0  0
  -29.7700  -19.3400   21.1870 C   0  0  0  0  0  3  0  0  0  0  0  0
  -30.9820  -14.8170   20.3020 C   0  0  0  0  0  0  0  0  0  0  0  0
  -30.6560  -12.6270   19.1840 C   0  0  0  0  0  2  0  0  0  0  0  0
  -29.6940  -12.7880   17.9880 C   0  0  0  0  0  2  0  0  0  0  0  0
  -28.2300  -12.6490   18.4440 C   0  0  0  0  0  2  0  0  0  0  0  0
  -27.9080  -13.5160   19.6890 C   0  0  0  0  0  3  0  0  0  0  0  0
  -28.9820  -13.3450   20.7870 C   0  0  0  0  0  2  0  0  0  0  0  0
  -30.2910  -13.6420   20.1910 N   0  0  0  0  0  0  0  0  0  0  0  0
  -32.1170  -14.9500   19.8370 O   0  0  0  0  0  0  0  0  0  0  0  0
  -29.4240  -16.8080   20.2420 C   0  0  0  0  0  2  0  0  0  0  0  0
  -31.0110  -16.9940   21.5920 C   0  0  0  0  0  2  0  0  0  0  0  0
  -30.3360  -17.9880   20.6270 C   0  0  0  0  0  3  0  0  0  0  0  0
  -30.3500  -15.8650   20.9090 N   0  0  0  0  0  0  0  0  0  0  0  0
  -25.5340  -14.1390   20.4570 C   0  0  0  0  0  0  0  0  0  0  0  0
  -24.4630  -13.3760   20.8390 C   0  0  0  0  0  0  0  0  0  0  0  0
  -24.9080  -12.0190   20.7810 C   0  0  0  0  0  0  0  0  0  0  0  0
  -26.5640  -13.2480   20.1960 N   0  0  0  0  0  0  0  0  0  0  0  0
  -26.1910  -11.9670   20.4490 N   0  0  0  0  0  0  0  0  0  0  0  0
  -24.1680  -10.7650   20.9620 C   0  0  0  0  0  0  0  0  0  0  0  0
  -24.5580   -9.8120   21.9280 C   0  0  0  0  0  3  0  0  0  0  0  0
  -23.8210   -8.6210   22.0960 C   0  0  0  0  0  3  0  0  0  0  0  0
  -22.6800   -8.3720   21.2980 C   0  0  0  0  0  0  0  0  0  0  0  0
  -22.3090   -9.3140   20.3230 C   0  0  0  0  0  3  0  0  0  0  0  0
  -23.0470  -10.4980   20.1530 C   0  0  0  0  0  3  0  0  0  0  0  0
  -21.9170   -7.2310   21.3780 O   0  0  0  0  0  0  0  0  0  0  0  0
  -21.7700   -6.5420   22.5550 C   0  0  0  0  0  0  0  0  0  0  0  0
  -21.1970   -7.1360   23.7000 C   0  0  0  0  0  3  0  0  0  0  0  0
  -20.9990   -6.3690   24.8660 C   0  0  0  0  0  3  0  0  0  0  0  0
  -21.3670   -5.0110   24.8880 C   0  0  0  0  0  0  0  0  0  0  0  0
  -21.9320   -4.4160   23.7460 C   0  0  0  0  0  3  0  0  0  0  0  0
  -22.1320   -5.1790   22.5830 C   0  0  0  0  0  0  0  0  0  0  0  0
  -22.6590   -4.5970   21.4800 F   0  0  0  0  0  0  0  0  0  0  0  0
  -21.1700   -4.2740   26.0060 F   0  0  0  0  0  0  0  0  0  0  0  0
  -23.0770  -13.8660   21.1440 C   0  0  0  0  0  0  0  0  0  0  0  0
  -22.3560  -13.1670   22.0140 N   0  0  0  0  0  0  0  0  0  0  0  0
  -22.6450  -14.9050   20.6470 O   0  0  0  0  0  0  0  0  0  0  0  0
  -22.7220  -12.3310   22.4450 H   0  0  0  0  0  0  0  0  0  0  0  0
  -21.4270  -13.4780   22.2600 H   0  0  0  0  0  0  0  0  0  0  0  0
  -25.7120  -15.5080   20.2860 N   0  0  0  0  0  0  0  0  0  0  0  0
  -24.9450  -16.1660   20.3660 H   0  0  0  0  0  0  0  0  0  0  0  0
  -26.5600  -15.9270   19.9260 H   0  0  0  0  0  0  0  0  0  0  0  0
  -28.9910  -24.4340   20.6360 C   0  0  0  0  0  3  0  0  0  0  0  0
  -29.2850  -25.7060   19.7630 C   0  0  0  0  0  3  0  0  0  0  0  0
  -29.0620  -26.9870   20.4310 O   0  0  0  0  0  0  0  0  0  0  0  0
  -24.8090  -31.9710   23.3540 C   0  0  0  0  0  0  0  0  0  0  0  0
  -27.8390  -27.6510   20.3740 C   0  0  0  0  0  0  0  0  0  0  0  0
  -23.7650  -30.5130   21.6550 C   0  0  0  0  0  3  0  0  0  0  0  0
  -25.3660  -29.0610   20.2970 C   0  0  0  0  0  0  0  0  0  0  0  0
  -26.2820  -30.9960   21.5840 C   0  0  0  0  0  2  0  0  0  0  0  0
  -26.4720  -29.6330   20.9370 C   0  0  0  0  0  0  0  0  0  0  0  0
  -27.7070  -28.9370   20.9680 C   0  0  0  0  0  3  0  0  0  0  0  0
  -26.6980  -27.0970   19.7460 C   0  0  0  0  0  3  0  0  0  0  0  0
  -25.4770  -27.7960   19.7010 C   0  0  0  0  0  3  0  0  0  0  0  0
  -24.0780  -29.8560   20.2860 C   0  0  0  0  0  2  0  0  0  0  0  0
  -24.9660  -31.1780   22.2550 N   0  0  0  0  0  0  0  0  0  0  0  0
  -23.6880  -32.1780   23.8400 O   0  0  0  0  0  0  0  0  0  0  0  0
  -23.1270  -29.4510   22.5800 C   0  0  0  0  0  0  0  0  0  0  0  0
  -21.8250  -29.1870   22.3810 N   0  0  0  0  0  0  0  0  0  0  0  0
  -23.8030  -28.8670   23.4320 O   0  0  0  0  0  0  0  0  0  0  0  0
  -21.3410  -29.7120   21.6660 H   0  0  0  0  0  0  0  0  0  0  0  0
  -18.5000  -27.8120   22.7350 C   0  0  0  0  0  0  0  0  0  0  0  0
  -21.0270  -28.2000   23.1090 C   0  0  0  0  0  3  0  0  0  0  0  0
  -21.2250  -26.7840   22.5260 C   0  0  0  0  0  2  0  0  0  0  0  0
  -20.1850  -26.4180   21.4620 C   0  0  0  0  0  2  0  0  0  0  0  0
  -18.7730  -26.4820   22.0530 C   0  0  0  0  0  2  0  0  0  0  0  0
  -19.5590  -28.6270   23.2160 C   0  0  0  0  0  0  0  0  0  0  0  0
  -19.2520  -29.8690   23.8100 C   0  0  0  0  0  3  0  0  0  0  0  0
  -17.9170  -30.3010   23.9280 C   0  0  0  0  0  3  0  0  0  0  0  0
  -16.8710  -29.4830   23.4670 C   0  0  0  0  0  3  0  0  0  0  0  0
  -17.1630  -28.2390   22.8780 C   0  0  0  0  0  3  0  0  0  0  0  0
  -26.0220  -32.6720   24.0390 C   0  0  0  0  0  3  0  0  0  0  0  0
  -26.4770  -31.9630   25.3730 C   0  0  1  0  0  0  0  0  0  0  0  0
  -25.3180  -31.6910   26.3600 C   0  0  0  0  0  1  0  0  0  0  0  0
  -27.1660  -30.6130   25.0690 C   0  0  0  0  0  1  0  0  0  0  0  0
  -27.5270  -32.8390   26.0990 C   0  0  0  0  0  1  0  0  0  0  0  0
  -25.6400  -34.0670   24.2980 N   0  0  0  0  0  0  0  0  0  0  0  0
  -25.9720  -35.1060   23.5200 C   0  0  0  0  0  0  0  0  0  0  0  0
  -26.7050  -34.9930   22.5310 O   0  0  0  0  0  0  0  0  0  0  0  0
  -24.9920  -34.2230   25.0570 H   0  0  0  0  0  0  0  0  0  0  0  0
  -24.1850  -36.8020   23.0160 C   0  0  0  0  0  1  0  0  0  0  0  0
  -25.4040  -36.4870   23.8960 C   0  0  0  0  0  3  0  0  0  0  0  0
  -27.4540  -37.5050   24.7890 C   0  0  0  0  0  1  0  0  0  0  0  0
  -26.3970  -37.5790   23.7850 N   0  0  0  0  0  0  0  0  0  0  0  0
  -25.9460  -38.4870   23.8650 H   0  0  0  0  0  0  0  0  0  0  0  0
  2  3  1  0
  2  5  1  0
  3  6  1  0
  3  1  1  0
  4  8  1  0
  4  1  1  0
  5 50  1  0
  5  4  1  0
  5  7  1  6
  8  9  2  0
 10 21  1  0
 11 16  1  0
 12 13  1  0
 12 11  1  0
 14 13  1  0
 14 25  1  0
 14 15  1  0
 16 10  1  0
 16 15  1  0
 17 10  2  0
 18 20  1  0
 18 21  1  0
 20  9  1  0
 20 19  1  0
 21 19  1  0
 22 23  2  0
 23 42  1  0
 24 23  1  0
 24 27  1  0
 25 26  1  0
 25 22  1  0
 26 24  2  0
 27 28  1  0
 28 29  2  0
 30 33  1  0
 30 29  1  0
 31 30  2  0
 32 31  1  0
 32 27  2  0
 33 34  1  0
 34 39  2  0
 34 35  1  0
 35 36  2  0
 36 37  1  0
 37 41  1  0
 38 37  2  0
 39 38  1  0
 40 39  1  0
 42 43  1  0
 43 46  1  0
 43 45  1  0
 44 42  2  0
 47 48  1  0
 47 22  1  0
 49 47  1  0
 51 52  1  0
 51 50  2  0
 53 64  2  0
 54 52  1  0
 54 59  1  0
 55 63  1  0
 55 65  1  0
 56 58  1  0
 57 63  1  0
 58 59  2  0
 58 57  1  0
 60 54  2  0
 61 60  1  0
 61 56  2  0
 62 56  1  0
 62 55  1  0
 63 53  1  0
 65 67  2  0
 66 65  1  0
 68 66  1  0
 69 78  2  0
 69 74  1  0
 70 66  1  0
 70 74  1  0
 71 70  1  0
 72 73  1  0
 72 71  1  0
 73 69  1  0
 74 75  2  0
 75 76  1  0
 77 76  2  0
 78 77  1  0
 79 53  1  0
 79 84  1  0
 79 80  1  0
 80 83  1  1
 80 81  1  0
 82 80  1  0
 84 87  1  0
 85 89  1  0
 85 84  1  0
 86 85  2  0
 89 88  1  0
 91 92  1  0
 91 89  1  0
 91 90  1  0
M  ISO  4  10 100  21 100  51 101  52 101
M  END
>  <TORSDO>  (73) 
F 20

>  <SCORE>  (73) 
-13.057

>  <name>  (73) 
73

>  <ligand_id>  (73) 
73

>  <original_smiles>  (73) 
[H]c1c([H])c([H])c2c(c1[H])C([H])([H])C([H])([H])C([H])([H])C2([H])N([H])C(=O)C1([H])N(C(=O)C([H])(N([H])C(=O)C([H])(N([H])C([H])([H])[H])C([H])([H])[H])C(C([H])([H])[H])(C([H])([H])[H])C([H])([H])[H])C([H])([H])c2c([H])c(OC([H])([H])C([H])([H])[N+]3([H])C([H])([H])C([H])(F)C([H])([H])C3([H])C([H])([H])C([H])([H])C3([H])C([H])([H])N(C(=O)N4C([H])([H])C([H])([H])C([H])([H])C([H])(n5nc(-c6c([H])c([H])c(Oc7c([H])c([H])c(F)c([H])c7F)c([H])c6[H])c(C(=O)N([H])[H])c5N([H])[H])C4([H])[H])C3([H])[H])c([H])c([H])c2C1([H])[H]

>  <smiles>  (73) 
[H]c1c([H])c([H])c2c(c1[H])C([H])([H])C([H])([H])C([H])([H])C2([H])N([H])C(=O)C1([H])N(C(=O)C([H])(N([H])C(=O)C([H])(N([H])C([H])([H])[H])C([H])([H])[H])C(C([H])([H])[H])(C([H])([H])[H])C([H])([H])[H])C([H])([H])c2c([H])c(OC([H])([H])C([H])([H])[N+]3([H])C([H])([H])C([H])(F)C([H])([H])C3([H])C([H])([H])C([H])([H])C3([H])C([H])([H])N(C(=O)N4C([H])([H])C([H])([H])C([H])([H])C([H])(n5nc(-c6c([H])c([H])c(Oc7c([H])c([H])c(F)c([H])c7F)c([H])c6[H])c(C(=O)N([H])[H])c5N([H])[H])C4([H])[H])C3([H])[H])c([H])c([H])c2C1([H])[H]

$$$$
74:0:0
     RDKit          3D

 88 95  0  0  1  0  0  0  0  0999 V2000
  -30.1890  -16.2220   20.1670 C   0  0  0  0  0  0  0  0  0  0  0  0
  -30.4400  -13.5190   19.5470 C   0  0  0  0  0  2  0  0  0  0  0  0
  -29.6490  -12.8150   18.3950 C   0  0  0  0  0  2  0  0  0  0  0  0
  -28.2590  -12.3680   18.8540 C   0  0  0  0  0  2  0  0  0  0  0  0
  -27.6480  -13.4400   19.7790 C   0  0  0  0  0  3  0  0  0  0  0  0
  -28.6080  -14.0320   20.8550 C   0  0  0  0  0  2  0  0  0  0  0  0
  -29.7070  -14.7720   20.1450 N   0  0  0  0  0  0  0  0  0  0  0  0
  -31.4330  -16.0410   20.0640 O   0  0  0  0  0  0  0  0  0  0  0  0
  -27.6900  -19.8820   19.9610 C   0  0  0  0  0  2  0  0  0  0  0  0
  -27.0360  -23.0120   20.8280 C   0  0  0  0  0  2  0  0  0  0  0  0
  -28.1190  -18.3040   20.4040 C   0  0  0  0  0  2  0  0  0  0  0  0
  -29.7960  -19.5280   19.8030 C   0  0  0  0  0  2  0  0  0  0  0  0
  -27.6270  -22.2080   22.0280 C   0  0  0  0  0  2  0  0  0  0  0  0
  -28.0860  -23.1420   19.7080 C   0  0  0  0  0  1  0  0  0  0  0  0
  -28.7140  -21.1350   20.1580 C   0  0  0  0  0  3  0  0  0  0  0  0
  -29.5160  -17.7660   20.0930 N   0  0  0  0  0  0  0  0  0  0  0  0
  -28.7810  -21.3770   21.6060 N   0  0  0  0  0  4  0  0  0  0  0  0
  -28.8460  -20.5290   22.1480 H   0  0  0  0  0  0  0  0  0  0  0  0
  -29.6110  -21.9200   21.7910 H   0  0  0  0  0  0  0  0  0  0  0  0
  -25.2860  -13.9430   20.5150 C   0  0  0  0  0  0  0  0  0  0  0  0
  -24.2240  -13.1660   20.8670 C   0  0  0  0  0  0  0  0  0  0  0  0
  -24.6960  -11.8170   20.8540 C   0  0  0  0  0  0  0  0  0  0  0  0
  -26.3380  -13.0780   20.2970 N   0  0  0  0  0  0  0  0  0  0  0  0
  -25.9970  -11.7870   20.5660 N   0  0  0  0  0  0  0  0  0  0  0  0
  -23.9620  -10.5570   21.0440 C   0  0  0  0  0  0  0  0  0  0  0  0
  -24.3690   -9.5940   21.9940 C   0  0  0  0  0  3  0  0  0  0  0  0
  -23.6240   -8.4070   22.1770 C   0  0  0  0  0  3  0  0  0  0  0  0
  -22.4580   -8.1730   21.4100 C   0  0  0  0  0  0  0  0  0  0  0  0
  -22.0700   -9.1250   20.4520 C   0  0  0  0  0  3  0  0  0  0  0  0
  -22.8140  -10.3030   20.2670 C   0  0  0  0  0  3  0  0  0  0  0  0
  -21.6890   -7.0380   21.5000 O   0  0  0  0  0  0  0  0  0  0  0  0
  -21.6130   -6.3100   22.6600 C   0  0  0  0  0  0  0  0  0  0  0  0
  -21.1750   -6.8840   23.8730 C   0  0  0  0  0  3  0  0  0  0  0  0
  -21.0460   -6.0820   25.0260 C   0  0  0  0  0  3  0  0  0  0  0  0
  -21.3460   -4.7080   24.9660 C   0  0  0  0  0  0  0  0  0  0  0  0
  -21.7750   -4.1340   23.7570 C   0  0  0  0  0  3  0  0  0  0  0  0
  -21.9040   -4.9310   22.6070 C   0  0  0  0  0  0  0  0  0  0  0  0
  -22.2980   -4.3670   21.4400 F   0  0  0  0  0  0  0  0  0  0  0  0
  -21.2150   -3.9360   26.0710 F   0  0  0  0  0  0  0  0  0  0  0  0
  -22.8250  -13.6470   21.1020 C   0  0  0  0  0  0  0  0  0  0  0  0
  -22.0890  -12.9680   21.9720 N   0  0  0  0  0  0  0  0  0  0  0  0
  -22.3990  -14.6620   20.5520 O   0  0  0  0  0  0  0  0  0  0  0  0
  -22.4620  -12.1480   22.4280 H   0  0  0  0  0  0  0  0  0  0  0  0
  -21.1480  -13.2670   22.1850 H   0  0  0  0  0  0  0  0  0  0  0  0
  -25.4440  -15.3140   20.3230 N   0  0  0  0  0  0  0  0  0  0  0  0
  -24.6620  -15.9550   20.3840 H   0  0  0  0  0  0  0  0  0  0  0  0
  -26.2990  -15.7480   20.0030 H   0  0  0  0  0  0  0  0  0  0  0  0
  -28.1810  -25.0800   19.7440 O   0  0  0  0  0  1  0  0  0  0  0  0
  -24.7840  -31.7010   22.8940 C   0  0  0  0  0  0  0  0  0  0  0  0
  -27.2400  -26.4390   19.7430 C   0  0  0  0  0  0  0  0  0  0  0  0
  -23.5720  -30.3250   21.2590 C   0  0  0  0  0  3  0  0  0  0  0  0
  -24.9920  -28.6600   19.7830 C   0  0  0  0  0  0  0  0  0  0  0  0
  -26.1590  -30.4010   21.1010 C   0  0  0  0  0  2  0  0  0  0  0  0
  -26.2100  -28.9490   20.4100 C   0  0  0  0  0  0  0  0  0  0  0  0
  -27.2980  -27.8770   20.3500 C   0  0  0  0  0  3  0  0  0  0  0  0
  -25.9850  -26.4520   19.0510 C   0  0  0  0  0  3  0  0  0  0  0  0
  -24.9390  -27.4450   19.0740 C   0  0  0  0  0  3  0  0  0  0  0  0
  -23.7920  -29.6390   19.8750 C   0  0  0  0  0  2  0  0  0  0  0  0
  -24.8680  -30.8480   21.8030 N   0  0  0  0  0  0  0  0  0  0  0  0
  -23.6960  -31.9910   23.4250 O   0  0  0  0  0  0  0  0  0  0  0  0
  -22.8620  -29.3480   22.2380 C   0  0  0  0  0  0  0  0  0  0  0  0
  -21.5240  -29.2100   22.1580 N   0  0  0  0  0  0  0  0  0  0  0  0
  -23.5370  -28.7060   23.0470 O   0  0  0  0  0  0  0  0  0  0  0  0
  -21.0240  -29.7740   21.4830 H   0  0  0  0  0  0  0  0  0  0  0  0
  -18.1540  -27.9890   22.7980 C   0  0  0  0  0  0  0  0  0  0  0  0
  -20.7220  -28.2610   22.9450 C   0  0  0  0  0  3  0  0  0  0  0  0
  -20.8010  -26.8410   22.3400 C   0  0  0  0  0  2  0  0  0  0  0  0
  -19.6570  -26.5230   21.3720 C   0  0  0  0  0  2  0  0  0  0  0  0
  -18.3020  -26.6590   22.0760 C   0  0  0  0  0  2  0  0  0  0  0  0
  -19.2880  -28.7450   23.1950 C   0  0  0  0  0  0  0  0  0  0  0  0
  -19.0910  -29.9780   23.8530 C   0  0  0  0  0  3  0  0  0  0  0  0
  -17.7930  -30.4580   24.1130 C   0  0  0  0  0  3  0  0  0  0  0  0
  -16.6740  -29.7020   23.7250 C   0  0  0  0  0  3  0  0  0  0  0  0
  -16.8560  -28.4680   23.0730 C   0  0  0  0  0  3  0  0  0  0  0  0
  -26.0460  -32.3640   23.5240 C   0  0  0  0  0  3  0  0  0  0  0  0
  -25.6790  -33.7180   23.9970 N   0  0  0  0  0  0  0  0  0  0  0  0
  -25.9360  -34.8660   23.3530 C   0  0  0  0  0  0  0  0  0  0  0  0
  -26.5500  -34.9000   22.2860 O   0  0  0  0  0  0  0  0  0  0  0  0
  -25.1150  -33.7600   24.8320 H   0  0  0  0  0  0  0  0  0  0  0  0
  -24.1220  -36.6200   23.3210 C   0  0  0  0  0  1  0  0  0  0  0  0
  -25.4370  -36.1840   23.9880 C   0  0  0  0  0  3  0  0  0  0  0  0
  -27.5920  -37.0880   24.7490 C   0  0  0  0  0  1  0  0  0  0  0  0
  -26.4170  -37.2900   23.9050 N   0  0  0  0  0  0  0  0  0  0  0  0
  -25.9870  -38.1720   24.1640 H   0  0  0  0  0  0  0  0  0  0  0  0
  -26.6450  -31.5320   24.7270 C   0  0  1  0  0  0  0  0  0  0  0  0
  -25.6120  -31.1940   25.8270 C   0  0  0  0  0  1  0  0  0  0  0  0
  -27.2520  -30.2000   24.2380 C   0  0  0  0  0  1  0  0  0  0  0  0
  -27.8040  -32.3190   25.3850 C   0  0  0  0  0  1  0  0  0  0  0  0
  2  7  1  0
  3  4  1  0
  3  2  1  0
  5  4  1  0
  5 23  1  0
  5  6  1  0
  7  1  1  0
  7  6  1  0
  8  1  2  0
  9 15  1  0
  9 11  1  0
 10 13  1  0
 12 16  1  0
 12 15  1  0
 14 10  1  0
 15 17  1  0
 16  1  1  0
 16 11  1  0
 17 19  1  0
 17 13  1  0
 17 18  1  0
 20 21  2  0
 21 40  1  0
 22 21  1  0
 22 25  1  0
 23 20  1  0
 23 24  1  0
 24 22  2  0
 25 26  1  0
 26 27  2  0
 28 31  1  0
 28 27  1  0
 29 28  2  0
 30 29  1  0
 30 25  2  0
 31 32  1  0
 32 33  1  0
 33 34  2  0
 35 34  1  0
 35 39  1  0
 36 35  2  0
 37 32  2  0
 37 36  1  0
 38 37  1  0
 40 41  1  0
 41 44  1  0
 41 43  1  0
 42 40  2  0
 45 46  1  0
 45 20  1  0
 47 45  1  0
 49 60  2  0
 50 48  1  0
 50 55  1  0
 51 59  1  0
 51 61  1  0
 52 58  1  0
 52 54  1  0
 53 59  1  0
 54 53  1  0
 55 54  2  0
 56 57  1  0
 56 50  2  0
 57 52  2  0
 58 51  1  0
 59 49  1  0
 61 63  2  0
 62 61  1  0
 64 62  1  0
 65 74  2  0
 65 70  1  0
 66 62  1  0
 66 70  1  0
 67 66  1  0
 68 69  1  0
 68 67  1  0
 69 65  1  0
 70 71  2  0
 71 72  1  0
 73 72  2  0
 74 73  1  0
 75 49  1  0
 75 76  1  0
 75 85  1  0
 76 79  1  0
 77 81  1  0
 77 76  1  0
 78 77  2  0
 81 80  1  0
 83 81  1  0
 83 84  1  0
 83 82  1  0
 85 88  1  1
 85 86  1  0
 87 85  1  0
M  ISO  4   1 100  14 101  16 100  48 101
M  END
>  <TORSDO>  (74) 
F 15

>  <SCORE>  (74) 
-16.093

>  <name>  (74) 
74

>  <ligand_id>  (74) 
74

>  <original_smiles>  (74) 
[H]c1c([H])c([H])c2c(c1[H])C([H])([H])C([H])([H])C([H])([H])C2([H])N([H])C(=O)C1([H])N(C(=O)C([H])(N([H])C(=O)C([H])(N([H])C([H])([H])[H])C([H])([H])[H])C(C([H])([H])[H])(C([H])([H])[H])C([H])([H])[H])C([H])([H])c2c([H])c(OC3([H])C([H])([H])C([H])([H])[N+]([H])([H])C34C([H])([H])N(C(=O)N3C([H])([H])C([H])([H])C([H])([H])C([H])(n5nc(-c6c([H])c([H])c(Oc7c([H])c([H])c(F)c([H])c7F)c([H])c6[H])c(C(=O)N([H])[H])c5N([H])[H])C3([H])[H])C([H])([H])C4([H])[H])c([H])c([H])c2C1([H])[H]

>  <smiles>  (74) 
[H]c1c([H])c([H])c2c(c1[H])C([H])([H])C([H])([H])C([H])([H])C2([H])N([H])C(=O)C1([H])N(C(=O)C([H])(N([H])C(=O)C([H])(N([H])C([H])([H])[H])C([H])([H])[H])C(C([H])([H])[H])(C([H])([H])[H])C([H])([H])[H])C([H])([H])c2c([H])c(OC3([H])C([H])([H])C([H])([H])[N+]([H])([H])C34C([H])([H])N(C(=O)N3C([H])([H])C([H])([H])C([H])([H])C([H])(n5nc(-c6c([H])c([H])c(Oc7c([H])c([H])c(F)c([H])c7F)c([H])c6[H])c(C(=O)N([H])[H])c5N([H])[H])C3([H])[H])C([H])([H])C4([H])[H])c([H])c([H])c2C1([H])[H]

$$$$
75:0:0
     RDKit          3D

 93102  0  0  1  0  0  0  0  0999 V2000
  -30.6120  -17.7370   18.9420 C   0  0  0  0  0  0  0  0  0  0  0  0
  -30.0120  -19.9210   17.7470 C   0  0  0  0  0  2  0  0  0  0  0  0
  -28.9570  -18.4320   20.6100 C   0  0  0  0  0  2  0  0  0  0  0  0
  -29.4450  -21.2480   18.2600 C   0  0  0  0  0  2  0  0  0  0  0  0
  -30.6080  -19.2710   19.0050 C   0  0  0  0  0  3  0  0  0  0  0  0
  -29.5360  -17.1550   19.8450 C   0  0  0  0  0  3  0  0  0  0  0  0
  -29.7020  -19.7710   20.1570 C   0  0  0  0  0  3  0  0  0  0  0  0
  -31.3260  -17.0760   18.1350 N   0  0  0  0  0  0  0  0  0  0  0  0
  -28.9230  -21.0060   19.6280 N   0  0  1  0  0  4  0  0  0  0  0  0
  -31.9240  -17.6730   17.5730 H   0  0  0  0  0  0  0  0  0  0  0  0
  -27.9700  -20.7000   19.4910 H   0  0  0  0  0  0  0  0  0  0  0  0
  -30.5530  -14.7110   20.3460 C   0  0  0  0  0  0  0  0  0  0  0  0
  -30.3710  -12.4270   19.3740 C   0  0  0  0  0  2  0  0  0  0  0  0
  -29.4370  -12.5160   18.1440 C   0  0  0  0  0  2  0  0  0  0  0  0
  -27.9680  -12.3460   18.5740 C   0  0  0  0  0  2  0  0  0  0  0  0
  -27.5910  -13.2510   19.7750 C   0  0  0  0  0  3  0  0  0  0  0  0
  -28.6390  -13.1450   20.9060 C   0  0  0  0  0  2  0  0  0  0  0  0
  -29.9490  -13.4760   20.3280 N   0  0  0  0  0  0  0  0  0  0  0  0
  -31.7360  -14.8150   20.0130 O   0  0  0  0  0  0  0  0  0  0  0  0
  -29.7310  -15.8020   20.5560 N   0  0  0  0  0  0  0  0  0  0  0  0
  -28.8860  -15.5080   21.0230 H   0  0  0  0  0  0  0  0  0  0  0  0
  -25.2030  -13.8710   20.4990 C   0  0  0  0  0  0  0  0  0  0  0  0
  -24.1260  -13.1070   20.8620 C   0  0  0  0  0  0  0  0  0  0  0  0
  -24.5790  -11.7510   20.8420 C   0  0  0  0  0  0  0  0  0  0  0  0
  -26.2400  -12.9830   20.2630 N   0  0  0  0  0  0  0  0  0  0  0  0
  -25.8720  -11.7040   20.5320 N   0  0  0  0  0  0  0  0  0  0  0  0
  -23.8450  -10.4950   21.0360 C   0  0  0  0  0  0  0  0  0  0  0  0
  -24.2710   -9.5250   21.9710 C   0  0  0  0  0  3  0  0  0  0  0  0
  -23.5360   -8.3320   22.1500 C   0  0  0  0  0  3  0  0  0  0  0  0
  -22.3630   -8.0990   21.3910 C   0  0  0  0  0  0  0  0  0  0  0  0
  -21.9570   -9.0570   20.4430 C   0  0  0  0  0  3  0  0  0  0  0  0
  -22.6930  -10.2410   20.2640 C   0  0  0  0  0  3  0  0  0  0  0  0
  -21.6020   -6.9590   21.4810 O   0  0  0  0  0  0  0  0  0  0  0  0
  -21.5470   -6.2180   22.6340 C   0  0  0  0  0  0  0  0  0  0  0  0
  -21.1250   -6.7780   23.8610 C   0  0  0  0  0  3  0  0  0  0  0  0
  -21.0170   -5.9630   25.0060 C   0  0  0  0  0  3  0  0  0  0  0  0
  -21.3210   -4.5900   24.9260 C   0  0  0  0  0  0  0  0  0  0  0  0
  -21.7390   -4.0310   23.7050 C   0  0  0  0  0  3  0  0  0  0  0  0
  -21.8470   -4.8420   22.5610 C   0  0  0  0  0  0  0  0  0  0  0  0
  -22.2300   -4.2960   21.3810 F   0  0  0  0  0  0  0  0  0  0  0  0
  -21.2070   -3.8040   26.0210 F   0  0  0  0  0  0  0  0  0  0  0  0
  -22.7290  -13.5950   21.1220 C   0  0  0  0  0  0  0  0  0  0  0  0
  -21.9860  -12.9140   21.9850 N   0  0  0  0  0  0  0  0  0  0  0  0
  -22.3040  -14.6210   20.5940 O   0  0  0  0  0  0  0  0  0  0  0  0
  -22.3420  -12.0890   22.4440 H   0  0  0  0  0  0  0  0  0  0  0  0
  -21.0490  -13.2280   22.1950 H   0  0  0  0  0  0  0  0  0  0  0  0
  -25.3780  -15.2400   20.3270 N   0  0  0  0  0  0  0  0  0  0  0  0
  -24.6120  -15.8950   20.4380 H   0  0  0  0  0  0  0  0  0  0  0  0
  -26.2180  -15.6740   19.9740 H   0  0  0  0  0  0  0  0  0  0  0  0
  -28.8610  -22.3080   20.4570 C   0  0  0  0  0  3  0  0  0  0  0  0
  -28.5000  -23.7310   19.7470 C   0  0  0  0  0  3  0  0  0  0  0  0
  -28.2400  -25.0330   20.6700 C   0  0  0  0  0  2  0  0  0  0  0  0
  -28.3680  -26.4430   20.1870 O   0  0  0  0  0  0  0  0  0  0  0  0
  -24.6090  -31.8730   23.2390 C   0  0  0  0  0  0  0  0  0  0  0  0
  -27.2500  -27.2930   20.2080 C   0  0  0  0  0  0  0  0  0  0  0  0
  -23.4210  -30.4690   21.5960 C   0  0  0  0  0  3  0  0  0  0  0  0
  -24.8830  -28.9060   20.1950 C   0  0  0  0  0  0  0  0  0  0  0  0
  -25.9630  -30.7840   21.4320 C   0  0  0  0  0  2  0  0  0  0  0  0
  -26.0510  -29.4010   20.7860 C   0  0  0  0  0  0  0  0  0  0  0  0
  -27.2420  -28.6070   20.7770 C   0  0  0  0  0  3  0  0  0  0  0  0
  -26.0570  -26.8470   19.6060 C   0  0  0  0  0  3  0  0  0  0  0  0
  -24.8880  -27.6330   19.5980 C   0  0  0  0  0  3  0  0  0  0  0  0
  -23.6470  -29.7830   20.2250 C   0  0  0  0  0  2  0  0  0  0  0  0
  -24.6830  -31.0590   22.1450 N   0  0  0  0  0  0  0  0  0  0  0  0
  -23.5200  -32.1520   23.7630 O   0  0  0  0  0  0  0  0  0  0  0  0
  -22.7500  -29.4550   22.5550 C   0  0  0  0  0  0  0  0  0  0  0  0
  -21.4250  -29.2800   22.4160 N   0  0  0  0  0  0  0  0  0  0  0  0
  -23.4190  -28.8320   23.3810 O   0  0  0  0  0  0  0  0  0  0  0  0
  -20.9430  -29.8340   21.7220 H   0  0  0  0  0  0  0  0  0  0  0  0
  -18.0430  -28.0850   22.8860 C   0  0  0  0  0  0  0  0  0  0  0  0
  -20.5980  -28.3440   23.1810 C   0  0  0  0  0  3  0  0  0  0  0  0
  -20.7060  -26.9100   22.6120 C   0  0  0  0  0  2  0  0  0  0  0  0
  -19.6150  -26.5850   21.5870 C   0  0  0  0  0  2  0  0  0  0  0  0
  -18.2260  -26.7320   22.2170 C   0  0  0  0  0  2  0  0  0  0  0  0
  -19.1580  -28.8470   23.3240 C   0  0  0  0  0  0  0  0  0  0  0  0
  -18.9340  -30.1120   23.9130 C   0  0  0  0  0  3  0  0  0  0  0  0
  -17.6290  -30.6130   24.0670 C   0  0  0  0  0  3  0  0  0  0  0  0
  -16.5280  -29.8480   23.6460 C   0  0  0  0  0  3  0  0  0  0  0  0
  -16.7360  -28.5850   23.0600 C   0  0  0  0  0  3  0  0  0  0  0  0
  -25.8840  -32.5110   23.8730 C   0  0  0  0  0  3  0  0  0  0  0  0
  -26.3860  -31.7460   25.1610 C   0  0  1  0  0  0  0  0  0  0  0  0
  -25.2810  -31.5170   26.2200 C   0  0  0  0  0  1  0  0  0  0  0  0
  -26.9730  -30.3650   24.7850 C   0  0  0  0  0  1  0  0  0  0  0  0
  -27.5300  -32.5440   25.8300 C   0  0  0  0  0  1  0  0  0  0  0  0
  -25.5660  -33.9090   24.1960 N   0  0  0  0  0  0  0  0  0  0  0  0
  -25.9040  -34.9610   23.4380 C   0  0  0  0  0  0  0  0  0  0  0  0
  -26.5820  -34.8560   22.4140 O   0  0  0  0  0  0  0  0  0  0  0  0
  -24.9580  -34.0620   24.9880 H   0  0  0  0  0  0  0  0  0  0  0  0
  -24.1750  -36.7500   23.0700 C   0  0  0  0  0  1  0  0  0  0  0  0
  -25.4120  -36.3500   23.8900 C   0  0  0  0  0  3  0  0  0  0  0  0
  -27.5390  -37.2400   24.7310 C   0  0  0  0  0  1  0  0  0  0  0  0
  -26.4440  -37.4040   23.7780 N   0  0  0  0  0  0  0  0  0  0  0  0
  -26.0350  -38.3250   23.9160 H   0  0  0  0  0  0  0  0  0  0  0  0
  1  5  1  0
  1  6  1  0
  2  4  1  0
  4  9  1  0
  5  2  1  0
  5  7  1  0
  6 20  1  0
  6  3  1  0
  7  3  1  0
  8  1  2  0
  9  7  1  0
  9 50  1  0
 10  8  1  0
  9 11  1  6
 12 20  1  0
 13 18  1  0
 14 15  1  0
 14 13  1  0
 16 15  1  0
 16 25  1  0
 16 17  1  0
 18 12  1  0
 18 17  1  0
 19 12  2  0
 20 21  1  0
 22 23  2  0
 23 42  1  0
 24 23  1  0
 24 27  1  0
 25 22  1  0
 25 26  1  0
 26 24  2  0
 27 28  1  0
 28 29  2  0
 30 33  1  0
 30 29  1  0
 31 30  2  0
 32 31  1  0
 32 27  2  0
 33 34  1  0
 34 35  1  0
 35 36  2  0
 37 36  1  0
 37 41  1  0
 38 37  2  0
 39 34  2  0
 39 38  1  0
 40 39  1  0
 42 43  1  0
 43 46  1  0
 43 45  1  0
 44 42  2  0
 47 48  1  0
 47 22  1  0
 49 47  1  0
 51 50  2  0
 51 52  1  0
 53 55  1  0
 53 52  1  0
 54 65  2  0
 55 60  1  0
 56 64  1  0
 56 66  1  0
 57 63  1  0
 57 59  1  0
 58 64  1  0
 59 58  1  0
 60 59  2  0
 61 55  2  0
 62 61  1  0
 62 57  2  0
 63 56  1  0
 64 54  1  0
 66 68  2  0
 67 66  1  0
 69 67  1  0
 70 79  2  0
 70 75  1  0
 71 67  1  0
 71 75  1  0
 72 71  1  0
 73 74  1  0
 73 72  1  0
 74 70  1  0
 75 76  2  0
 76 77  1  0
 78 77  2  0
 79 78  1  0
 80 54  1  0
 80 85  1  0
 80 81  1  0
 81 84  1  1
 81 82  1  0
 83 81  1  0
 85 88  1  0
 86 90  1  0
 86 85  1  0
 87 86  2  0
 90 89  1  0
 92 90  1  0
 92 93  1  0
 92 91  1  0
M  ISO  4  12 100  20 100  52 101  53 101
M  END
>  <TORSDO>  (75) 
F 19

>  <SCORE>  (75) 
-14.299

>  <name>  (75) 
75

>  <ligand_id>  (75) 
75

>  <original_smiles>  (75) 
[H]N=C1C([H])(N([H])C(=O)N2C([H])([H])C([H])([H])C([H])([H])C([H])(n3nc(-c4c([H])c([H])c(Oc5c([H])c([H])c(F)c([H])c5F)c([H])c4[H])c(C(=O)N([H])[H])c3N([H])[H])C2([H])[H])C([H])([H])C2([H])C1([H])C([H])([H])C([H])([H])[N+]2([H])C([H])([H])C([H])([H])C([H])([H])Oc1c([H])c([H])c2c(c1[H])C([H])([H])N(C(=O)C([H])(N([H])C(=O)C([H])(N([H])C([H])([H])[H])C([H])([H])[H])C(C([H])([H])[H])(C([H])([H])[H])C([H])([H])[H])C([H])(C(=O)N([H])C1([H])c3c([H])c([H])c([H])c([H])c3C([H])([H])C([H])([H])C1([H])[H])C2([H])[H]

>  <smiles>  (75) 
[H]N=C1C([H])(N([H])C(=O)N2C([H])([H])C([H])([H])C([H])([H])C([H])(n3nc(-c4c([H])c([H])c(Oc5c([H])c([H])c(F)c([H])c5F)c([H])c4[H])c(C(=O)N([H])[H])c3N([H])[H])C2([H])[H])C([H])([H])C2([H])C1([H])C([H])([H])C([H])([H])[N+]2([H])C([H])([H])C([H])([H])C([H])([H])Oc1c([H])c([H])c2c(c1[H])C([H])([H])N(C(=O)C([H])(N([H])C(=O)C([H])(N([H])C([H])([H])[H])C([H])([H])[H])C(C([H])([H])[H])(C([H])([H])[H])C([H])([H])[H])C([H])(C(=O)N([H])C1([H])c3c([H])c([H])c([H])c([H])c3C([H])([H])C([H])([H])C1([H])[H])C2([H])[H]

$$$$
76:0:0
     RDKit          3D

 87 95  0  0  1  0  0  0  0  0999 V2000
  -28.6840  -20.4880   18.9990 C   0  0  0  0  0  0  0  0  0  0  0  0
  -28.9130  -18.9090   18.8840 C   0  0  0  0  0  2  0  0  0  0  0  0
  -29.4070  -19.7330   20.9780 C   0  0  0  0  0  2  0  0  0  0  0  0
  -29.7740  -18.3210   20.0610 C   0  0  0  0  0  3  0  0  0  0  0  0
  -28.9240  -21.0660   20.2030 N   0  0  0  0  0  0  0  0  0  0  0  0
  -28.2990  -21.1340   18.0220 O   0  0  0  0  0  0  0  0  0  0  0  0
  -30.4290  -15.3880   20.2180 C   0  0  0  0  0  0  0  0  0  0  0  0
  -30.4270  -12.9260   19.3670 C   0  0  0  0  0  2  0  0  0  0  0  0
  -29.5010  -12.6970   18.1430 C   0  0  0  0  0  2  0  0  0  0  0  0
  -28.0570  -12.4140   18.5940 C   0  0  0  0  0  2  0  0  0  0  0  0
  -27.6080  -13.3730   19.7240 C   0  0  0  0  0  3  0  0  0  0  0  0
  -28.6620  -13.5480   20.8380 C   0  0  0  0  0  2  0  0  0  0  0  0
  -29.8810  -14.0680   20.1970 N   0  0  0  0  0  0  0  0  0  0  0  0
  -31.6330  -15.3960   19.9260 O   0  0  0  0  0  0  0  0  0  0  0  0
  -29.6540  -16.6570   20.3710 N   0  0  0  0  0  0  0  0  0  0  0  0
  -28.7130  -16.4230   20.6540 H   0  0  0  0  0  0  0  0  0  0  0  0
  -25.2480  -13.9110   20.5180 C   0  0  0  0  0  0  0  0  0  0  0  0
  -24.1930  -13.1260   20.8940 C   0  0  0  0  0  0  0  0  0  0  0  0
  -24.6650  -11.7780   20.8430 C   0  0  0  0  0  0  0  0  0  0  0  0
  -26.2890  -13.0430   20.2470 N   0  0  0  0  0  0  0  0  0  0  0  0
  -25.9520  -11.7520   20.5100 N   0  0  0  0  0  0  0  0  0  0  0  0
  -23.9430  -10.5120   21.0290 C   0  0  0  0  0  0  0  0  0  0  0  0
  -24.3750   -9.5430   21.9610 C   0  0  0  0  0  3  0  0  0  0  0  0
  -23.6500   -8.3430   22.1360 C   0  0  0  0  0  3  0  0  0  0  0  0
  -22.4780   -8.1060   21.3820 C   0  0  0  0  0  0  0  0  0  0  0  0
  -22.0640   -9.0630   20.4390 C   0  0  0  0  0  3  0  0  0  0  0  0
  -22.7900  -10.2540   20.2610 C   0  0  0  0  0  3  0  0  0  0  0  0
  -21.7240   -6.9600   21.4690 O   0  0  0  0  0  0  0  0  0  0  0  0
  -21.6600   -6.2260   22.6260 C   0  0  0  0  0  0  0  0  0  0  0  0
  -21.1730   -6.7770   23.8330 C   0  0  0  0  0  3  0  0  0  0  0  0
  -21.0560   -5.9660   24.9800 C   0  0  0  0  0  3  0  0  0  0  0  0
  -21.4180   -4.6070   24.9220 C   0  0  0  0  0  0  0  0  0  0  0  0
  -21.9000   -4.0560   23.7210 C   0  0  0  0  0  3  0  0  0  0  0  0
  -22.0170   -4.8630   22.5760 C   0  0  0  0  0  0  0  0  0  0  0  0
  -22.4590   -4.3210   21.4160 F   0  0  0  0  0  0  0  0  0  0  0  0
  -21.3010   -3.8270   26.0210 F   0  0  0  0  0  0  0  0  0  0  0  0
  -22.7990  -13.5970   21.1830 C   0  0  0  0  0  0  0  0  0  0  0  0
  -22.0780  -12.8920   22.0460 N   0  0  0  0  0  0  0  0  0  0  0  0
  -22.3550  -14.6270   20.6760 O   0  0  0  0  0  0  0  0  0  0  0  0
  -22.4490  -12.0570   22.4770 H   0  0  0  0  0  0  0  0  0  0  0  0
  -21.1410  -13.1900   22.2790 H   0  0  0  0  0  0  0  0  0  0  0  0
  -25.4020  -15.2830   20.3520 N   0  0  0  0  0  0  0  0  0  0  0  0
  -24.6290  -15.9290   20.4800 H   0  0  0  0  0  0  0  0  0  0  0  0
  -26.2300  -15.7260   19.9740 H   0  0  0  0  0  0  0  0  0  0  0  0
  -28.8950  -22.7120   20.6080 C   0  0  0  0  0  3  0  0  0  0  0  0
  -28.0690  -24.2220   20.0120 C   0  0  0  0  0  3  0  0  0  0  0  0
  -28.2050  -25.8550   20.3340 O   0  0  0  0  0  0  0  0  0  0  0  0
  -24.6440  -31.8660   23.2490 C   0  0  0  0  0  0  0  0  0  0  0  0
  -27.1970  -26.9630   20.2380 C   0  0  0  0  0  0  0  0  0  0  0  0
  -23.4510  -30.4690   21.6090 C   0  0  0  0  0  3  0  0  0  0  0  0
  -24.8980  -28.8600   20.1820 C   0  0  0  0  0  0  0  0  0  0  0  0
  -26.0160  -30.6730   21.4660 C   0  0  0  0  0  2  0  0  0  0  0  0
  -26.0850  -29.2610   20.8090 C   0  0  0  0  0  0  0  0  0  0  0  0
  -27.2250  -28.3320   20.8120 C   0  0  0  0  0  3  0  0  0  0  0  0
  -25.9820  -26.7210   19.5590 C   0  0  0  0  0  3  0  0  0  0  0  0
  -24.8730  -27.6100   19.5370 C   0  0  0  0  0  3  0  0  0  0  0  0
  -23.6810  -29.7850   20.2320 C   0  0  0  0  0  2  0  0  0  0  0  0
  -24.7250  -31.0310   22.1610 N   0  0  0  0  0  0  0  0  0  0  0  0
  -23.5540  -32.1570   23.7690 O   0  0  0  0  0  0  0  0  0  0  0  0
  -22.7550  -29.4760   22.5760 C   0  0  0  0  0  0  0  0  0  0  0  0
  -21.4260  -29.3060   22.4450 N   0  0  0  0  0  0  0  0  0  0  0  0
  -23.4180  -28.8580   23.4120 O   0  0  0  0  0  0  0  0  0  0  0  0
  -20.9450  -29.8550   21.7480 H   0  0  0  0  0  0  0  0  0  0  0  0
  -18.0470  -28.0770   22.9390 C   0  0  0  0  0  0  0  0  0  0  0  0
  -20.6030  -28.3650   23.2140 C   0  0  0  0  0  3  0  0  0  0  0  0
  -20.7210  -26.9320   22.6450 C   0  0  0  0  0  2  0  0  0  0  0  0
  -19.6250  -26.5930   21.6280 C   0  0  0  0  0  2  0  0  0  0  0  0
  -18.2400  -26.7280   22.2650 C   0  0  0  0  0  2  0  0  0  0  0  0
  -19.1560  -28.8520   23.3710 C   0  0  0  0  0  0  0  0  0  0  0  0
  -18.9210  -30.1110   23.9650 C   0  0  0  0  0  3  0  0  0  0  0  0
  -17.6110  -30.5950   24.1320 C   0  0  0  0  0  3  0  0  0  0  0  0
  -16.5160  -29.8190   23.7140 C   0  0  0  0  0  3  0  0  0  0  0  0
  -16.7350  -28.5620   23.1240 C   0  0  0  0  0  3  0  0  0  0  0  0
  -25.9130  -32.5100   23.8830 C   0  0  0  0  0  3  0  0  0  0  0  0
  -25.6000  -33.9170   24.1980 N   0  0  0  0  0  0  0  0  0  0  0  0
  -25.9350  -34.9690   23.4390 C   0  0  0  0  0  0  0  0  0  0  0  0
  -26.6010  -34.8570   22.4060 O   0  0  0  0  0  0  0  0  0  0  0  0
  -25.0080  -34.0760   24.9990 H   0  0  0  0  0  0  0  0  0  0  0  0
  -24.2140  -36.7750   23.0900 C   0  0  0  0  0  1  0  0  0  0  0  0
  -25.4590  -36.3640   23.8930 C   0  0  0  0  0  3  0  0  0  0  0  0
  -27.5980  -37.2500   24.7130 C   0  0  0  0  0  1  0  0  0  0  0  0
  -26.4970  -37.4110   23.7680 N   0  0  0  0  0  0  0  0  0  0  0  0
  -26.0960  -38.3360   23.9040 H   0  0  0  0  0  0  0  0  0  0  0  0
  -26.4010  -31.7620   25.1850 C   0  0  1  0  0  0  0  0  0  0  0  0
  -25.2890  -31.5510   26.2390 C   0  0  0  0  0  1  0  0  0  0  0  0
  -26.9830  -30.3740   24.8360 C   0  0  0  0  0  1  0  0  0  0  0  0
  -27.5470  -32.5610   25.8500 C   0  0  0  0  0  1  0  0  0  0  0  0
  1  5  1  0
  2  1  1  0
  2  4  1  0
  4 15  1  0
  4  3  1  0
  5 45  1  0
  5  3  1  0
  6  1  2  0
  7 15  1  0
  8 13  1  0
  9 10  1  0
  9  8  1  0
 11 10  1  0
 11 20  1  0
 11 12  1  0
 13  7  1  0
 13 12  1  0
 14  7  2  0
 15 16  1  0
 17 18  2  0
 18 37  1  0
 19 18  1  0
 19 22  1  0
 20 21  1  0
 20 17  1  0
 21 19  2  0
 22 23  1  0
 23 24  2  0
 25 28  1  0
 25 24  1  0
 26 25  2  0
 27 26  1  0
 27 22  2  0
 28 29  1  0
 29 30  1  0
 30 31  2  0
 32 31  1  0
 32 36  1  0
 33 32  2  0
 34 29  2  0
 34 33  1  0
 35 34  1  0
 37 38  1  0
 38 41  1  0
 38 40  1  0
 39 37  2  0
 42 43  1  0
 42 17  1  0
 44 42  1  0
 46 47  1  0
 46 45  2  0
 48 59  2  0
 49 47  1  0
 49 54  1  0
 50 58  1  0
 50 60  1  0
 51 57  1  0
 51 53  1  0
 52 58  1  0
 53 54  2  0
 53 52  1  0
 55 49  2  0
 56 55  1  0
 56 51  2  0
 57 50  1  0
 58 48  1  0
 60 62  2  0
 61 60  1  0
 63 61  1  0
 64 73  2  0
 64 69  1  0
 65 61  1  0
 65 69  1  0
 66 65  1  0
 67 68  1  0
 67 66  1  0
 68 64  1  0
 69 70  2  0
 70 71  1  0
 72 71  2  0
 73 72  1  0
 74 48  1  0
 74 75  1  0
 74 84  1  0
 75 78  1  0
 76 80  1  0
 76 75  1  0
 77 76  2  0
 80 79  1  0
 82 80  1  0
 82 83  1  0
 82 81  1  0
 84 87  1  1
 84 85  1  0
 86 84  1  0
M  ISO  4   7 100  15 100  46 101  47 101
M  END
>  <TORSDO>  (76) 
F 18

>  <SCORE>  (76) 
-16.557

>  <name>  (76) 
76

>  <ligand_id>  (76) 
76

>  <original_smiles>  (76) 
[H]c1c([H])c([H])c2c(c1[H])C([H])([H])C([H])([H])C([H])([H])C2([H])N([H])C(=O)C1([H])N(C(=O)C([H])(N([H])C(=O)C([H])(N([H])C([H])([H])[H])C([H])([H])[H])C(C([H])([H])[H])(C([H])([H])[H])C([H])([H])[H])C([H])([H])c2c([H])c(OC([H])([H])C([H])([H])N3C(=O)C([H])([H])C([H])(N([H])C(=O)N4C([H])([H])C([H])([H])C([H])([H])C([H])(n5nc(-c6c([H])c([H])c(Oc7c([H])c([H])c(F)c([H])c7F)c([H])c6[H])c(C(=O)N([H])[H])c5N([H])[H])C4([H])[H])C3([H])[H])c([H])c([H])c2C1([H])[H]

>  <smiles>  (76) 
[H]c1c([H])c([H])c2c(c1[H])C([H])([H])C([H])([H])C([H])([H])C2([H])N([H])C(=O)C1([H])N(C(=O)C([H])(N([H])C(=O)C([H])(N([H])C([H])([H])[H])C([H])([H])[H])C(C([H])([H])[H])(C([H])([H])[H])C([H])([H])[H])C([H])([H])c2c([H])c(OC([H])([H])C([H])([H])N3C(=O)C([H])([H])C([H])(N([H])C(=O)N4C([H])([H])C([H])([H])C([H])([H])C([H])(n5nc(-c6c([H])c([H])c(Oc7c([H])c([H])c(F)c([H])c7F)c([H])c6[H])c(C(=O)N([H])[H])c5N([H])[H])C4([H])[H])C3([H])[H])c([H])c([H])c2C1([H])[H]

$$$$
77:0:0
     RDKit          3D

 94103  0  0  1  0  0  0  0  0999 V2000
  -30.9190  -18.8700   18.7210 C   0  0  0  0  0  3  0  0  0  0  0  0
  -30.9190  -17.5100   19.1150 C   0  0  0  0  0  3  0  0  0  0  0  0
  -29.6320  -18.0610   21.1260 C   0  0  0  0  0  3  0  0  0  0  0  0
  -30.2530  -19.8090   19.5290 C   0  0  0  0  0  0  0  0  0  0  0  0
  -29.6300  -19.4230   20.7120 C   0  0  0  0  0  0  0  0  0  0  0  0
  -30.2830  -17.0790   20.3170 C   0  0  0  0  0  0  0  0  0  0  0  0
  -30.0650  -21.2570   19.2940 C   0  0  0  0  0  0  0  0  0  0  0  0
  -28.9900  -20.6300   21.3900 C   0  0  0  0  0  2  0  0  0  0  0  0
  -29.0430  -21.7810   20.3280 C   0  0  0  0  0  3  0  0  0  0  0  0
  -30.6060  -21.9190   18.4030 O   0  0  0  0  0  0  0  0  0  0  0  0
  -30.9130  -14.6370   20.1820 C   0  0  0  0  0  0  0  0  0  0  0  0
  -30.5920  -12.4510   19.0820 C   0  0  0  0  0  2  0  0  0  0  0  0
  -29.6170  -12.6530   17.9020 C   0  0  0  0  0  2  0  0  0  0  0  0
  -28.1540  -12.5090   18.3720 C   0  0  0  0  0  2  0  0  0  0  0  0
  -27.8520  -13.3480   19.6410 C   0  0  0  0  0  3  0  0  0  0  0  0
  -28.9420  -13.1470   20.7190 C   0  0  0  0  0  2  0  0  0  0  0  0
  -30.2480  -13.4470   20.1120 N   0  0  0  0  0  0  0  0  0  0  0  0
  -32.0410  -14.7860   19.7080 O   0  0  0  0  0  0  0  0  0  0  0  0
  -30.2140  -15.6850   20.6900 N   0  0  0  0  0  0  0  0  0  0  0  0
  -29.4180  -15.4240   21.2510 H   0  0  0  0  0  0  0  0  0  0  0  0
  -25.4880  -13.9620   20.4520 C   0  0  0  0  0  0  0  0  0  0  0  0
  -24.4250  -13.1910   20.8400 C   0  0  0  0  0  0  0  0  0  0  0  0
  -24.8720  -11.8360   20.7640 C   0  0  0  0  0  0  0  0  0  0  0  0
  -26.5150  -13.0760   20.1630 N   0  0  0  0  0  0  0  0  0  0  0  0
  -26.1480  -11.7920   20.4080 N   0  0  0  0  0  0  0  0  0  0  0  0
  -24.1400  -10.5780   20.9550 C   0  0  0  0  0  0  0  0  0  0  0  0
  -24.5560   -9.6160   21.9030 C   0  0  0  0  0  3  0  0  0  0  0  0
  -23.8260   -8.4210   22.0790 C   0  0  0  0  0  3  0  0  0  0  0  0
  -22.6630   -8.1800   21.3090 C   0  0  0  0  0  0  0  0  0  0  0  0
  -22.2660   -9.1300   20.3510 C   0  0  0  0  0  3  0  0  0  0  0  0
  -22.9970  -10.3160   20.1740 C   0  0  0  0  0  3  0  0  0  0  0  0
  -21.9060   -7.0370   21.3950 O   0  0  0  0  0  0  0  0  0  0  0  0
  -21.8000   -6.3300   22.5650 C   0  0  0  0  0  0  0  0  0  0  0  0
  -21.2530   -6.9030   23.7350 C   0  0  0  0  0  3  0  0  0  0  0  0
  -21.1000   -6.1190   24.8950 C   0  0  0  0  0  3  0  0  0  0  0  0
  -21.4820   -4.7640   24.8890 C   0  0  0  0  0  0  0  0  0  0  0  0
  -22.0190   -4.1910   23.7220 C   0  0  0  0  0  3  0  0  0  0  0  0
  -22.1760   -4.9720   22.5630 C   0  0  0  0  0  0  0  0  0  0  0  0
  -22.6780   -4.4100   21.4370 F   0  0  0  0  0  0  0  0  0  0  0  0
  -21.3240   -4.0090   26.0010 F   0  0  0  0  0  0  0  0  0  0  0  0
  -23.0420  -13.6780   21.1720 C   0  0  0  0  0  0  0  0  0  0  0  0
  -22.3360  -12.9720   22.0480 N   0  0  0  0  0  0  0  0  0  0  0  0
  -22.5990  -14.7200   20.6910 O   0  0  0  0  0  0  0  0  0  0  0  0
  -22.7060  -12.1280   22.4590 H   0  0  0  0  0  0  0  0  0  0  0  0
  -21.4130  -13.2850   22.3150 H   0  0  0  0  0  0  0  0  0  0  0  0
  -25.6620  -15.3350   20.3000 N   0  0  0  0  0  0  0  0  0  0  0  0
  -24.9050  -15.9920   20.4460 H   0  0  0  0  0  0  0  0  0  0  0  0
  -26.4980  -15.7710   19.9300 H   0  0  0  0  0  0  0  0  0  0  0  0
  -29.4170  -23.1380   20.8430 N   0  0  0  0  0  4  0  0  0  0  0  0
  -30.4160  -23.1530   20.9900 H   0  0  0  0  0  0  0  0  0  0  0  0
  -28.9810  -23.2320   21.7450 H   0  0  0  0  0  0  0  0  0  0  0  0
  -29.0190  -24.3170   19.9980 C   0  0  0  0  0  2  0  0  0  0  0  0
  -28.6560  -25.5950   20.8140 C   0  0  0  0  0  2  0  0  0  0  0  0
  -28.5940  -26.8000   20.0170 O   0  0  0  0  0  0  0  0  0  0  0  0
  -24.6970  -31.8470   23.2570 C   0  0  0  0  0  0  0  0  0  0  0  0
  -27.4180  -27.5230   20.0680 C   0  0  0  0  0  0  0  0  0  0  0  0
  -23.5190  -30.4910   21.5550 C   0  0  0  0  0  3  0  0  0  0  0  0
  -25.0040  -29.0070   20.1000 C   0  0  0  0  0  0  0  0  0  0  0  0
  -26.0420  -30.8780   21.3930 C   0  0  0  0  0  2  0  0  0  0  0  0
  -26.1500  -29.5250   20.7140 C   0  0  0  0  0  0  0  0  0  0  0  0
  -27.3620  -28.7930   20.6930 C   0  0  0  0  0  3  0  0  0  0  0  0
  -26.2560  -27.0190   19.4470 C   0  0  0  0  0  3  0  0  0  0  0  0
  -25.0530  -27.7560   19.4600 C   0  0  0  0  0  3  0  0  0  0  0  0
  -23.7500  -29.8530   20.1580 C   0  0  0  0  0  2  0  0  0  0  0  0
  -24.7710  -31.0860   22.1280 N   0  0  0  0  0  0  0  0  0  0  0  0
  -23.6090  -32.0910   23.7970 O   0  0  0  0  0  0  0  0  0  0  0  0
  -22.8680  -29.4340   22.4770 C   0  0  0  0  0  0  0  0  0  0  0  0
  -21.5430  -29.2630   22.3490 N   0  0  0  0  0  0  0  0  0  0  0  0
  -23.5550  -28.7720   23.2610 O   0  0  0  0  0  0  0  0  0  0  0  0
  -21.0530  -29.8560   21.6940 H   0  0  0  0  0  0  0  0  0  0  0  0
  -18.1630  -28.0830   22.8280 C   0  0  0  0  0  0  0  0  0  0  0  0
  -20.7250  -28.2950   23.0810 C   0  0  0  0  0  3  0  0  0  0  0  0
  -20.8030  -26.8960   22.4270 C   0  0  0  0  0  2  0  0  0  0  0  0
  -19.6840  -26.6410   21.4120 C   0  0  0  0  0  2  0  0  0  0  0  0
  -18.3130  -26.7680   22.0800 C   0  0  0  0  0  2  0  0  0  0  0  0
  -19.2950  -28.8060   23.2840 C   0  0  0  0  0  0  0  0  0  0  0  0
  -19.0990  -30.0410   23.9400 C   0  0  0  0  0  3  0  0  0  0  0  0
  -17.8030  -30.5490   24.1450 C   0  0  0  0  0  3  0  0  0  0  0  0
  -16.6830  -29.8210   23.7090 C   0  0  0  0  0  3  0  0  0  0  0  0
  -16.8650  -28.5900   23.0540 C   0  0  0  0  0  3  0  0  0  0  0  0
  -25.9710  -32.4670   23.9120 C   0  0  0  0  0  3  0  0  0  0  0  0
  -26.4410  -31.6980   25.2080 C   0  0  1  0  0  0  0  0  0  0  0  0
  -25.3140  -31.4800   26.2440 C   0  0  0  0  0  1  0  0  0  0  0  0
  -27.0190  -30.3120   24.8380 C   0  0  0  0  0  1  0  0  0  0  0  0
  -27.5800  -32.4840   25.8980 C   0  0  0  0  0  1  0  0  0  0  0  0
  -25.6720  -33.8720   24.2220 N   0  0  0  0  0  0  0  0  0  0  0  0
  -26.0410  -34.9130   23.4640 C   0  0  0  0  0  0  0  0  0  0  0  0
  -26.7410  -34.7910   22.4540 O   0  0  0  0  0  0  0  0  0  0  0  0
  -25.0560  -34.0420   25.0030 H   0  0  0  0  0  0  0  0  0  0  0  0
  -24.3660  -36.7360   23.0220 C   0  0  0  0  0  1  0  0  0  0  0  0
  -25.5590  -36.3120   23.8930 C   0  0  0  0  0  3  0  0  0  0  0  0
  -27.6590  -37.1700   24.8340 C   0  0  0  0  0  1  0  0  0  0  0  0
  -26.6160  -37.3450   23.8280 N   0  0  0  0  0  0  0  0  0  0  0  0
  -26.2200  -38.2750   23.9400 H   0  0  0  0  0  0  0  0  0  0  0  0
  1  2  2  0
  1  4  1  0
  2  6  1  0
  4  5  2  0
  5  3  1  0
  5  8  1  0
  6 19  1  0
  6  3  2  0
  7  4  1  0
  7  9  1  0
  9 49  1  0
  9  8  1  0
 10  7  2  0
 11 19  1  0
 12 17  1  0
 13 14  1  0
 13 12  1  0
 15 14  1  0
 15 24  1  0
 15 16  1  0
 17 11  1  0
 17 16  1  0
 18 11  2  0
 19 20  1  0
 21 22  2  0
 22 41  1  0
 23 22  1  0
 23 26  1  0
 24 25  1  0
 24 21  1  0
 25 23  2  0
 26 27  1  0
 27 28  2  0
 29 32  1  0
 29 28  1  0
 30 29  2  0
 31 30  1  0
 31 26  2  0
 32 33  1  0
 33 34  1  0
 34 35  2  0
 36 35  1  0
 36 40  1  0
 37 36  2  0
 38 33  2  0
 38 37  1  0
 39 38  1  0
 41 42  1  0
 42 45  1  0
 42 44  1  0
 43 41  2  0
 46 47  1  0
 46 21  1  0
 48 46  1  0
 49 50  1  0
 49 51  1  0
 52 53  1  0
 52 49  1  0
 54 56  1  0
 54 53  1  0
 55 66  2  0
 56 61  1  0
 57 65  1  0
 57 67  1  0
 58 64  1  0
 58 60  1  0
 59 65  1  0
 60 59  1  0
 61 60  2  0
 62 63  1  0
 62 56  2  0
 63 58  2  0
 64 57  1  0
 65 55  1  0
 67 69  2  0
 68 67  1  0
 70 68  1  0
 71 80  2  0
 71 76  1  0
 72 68  1  0
 72 76  1  0
 73 72  1  0
 74 75  1  0
 74 73  1  0
 75 71  1  0
 76 77  2  0
 77 78  1  0
 79 78  2  0
 80 79  1  0
 81 55  1  0
 81 86  1  0
 81 82  1  0
 82 85  1  1
 82 83  1  0
 84 82  1  0
 86 89  1  0
 87 91  1  0
 87 86  1  0
 88 87  2  0
 91 90  1  0
 93 91  1  0
 93 94  1  0
 93 92  1  0
M  ISO  4  11 100  19 100  53 101  54 101
M  END
>  <TORSDO>  (77) 
F 19

>  <SCORE>  (77) 
-13.900

>  <name>  (77) 
77

>  <ligand_id>  (77) 
77

>  <original_smiles>  (77) 
[H]c1c([H])c([H])c2c(c1[H])C([H])([H])C([H])([H])C([H])([H])C2([H])N([H])C(=O)C1([H])N(C(=O)C([H])(N([H])C(=O)C([H])(N([H])C([H])([H])[H])C([H])([H])[H])C(C([H])([H])[H])(C([H])([H])[H])C([H])([H])[H])C([H])([H])c2c([H])c(OC([H])([H])C([H])([H])[N+]([H])([H])C3([H])C(=O)c4c([H])c([H])c(N([H])C(=O)N5C([H])([H])C([H])([H])C([H])([H])C([H])(n6nc(-c7c([H])c([H])c(Oc8c([H])c([H])c(F)c([H])c8F)c([H])c7[H])c(C(=O)N([H])[H])c6N([H])[H])C5([H])[H])c([H])c4C3([H])[H])c([H])c([H])c2C1([H])[H]

>  <smiles>  (77) 
[H]c1c([H])c([H])c2c(c1[H])C([H])([H])C([H])([H])C([H])([H])C2([H])N([H])C(=O)C1([H])N(C(=O)C([H])(N([H])C(=O)C([H])(N([H])C([H])([H])[H])C([H])([H])[H])C(C([H])([H])[H])(C([H])([H])[H])C([H])([H])[H])C([H])([H])c2c([H])c(OC([H])([H])C([H])([H])[N+]([H])([H])C3([H])C(=O)c4c([H])c([H])c(N([H])C(=O)N5C([H])([H])C([H])([H])C([H])([H])C([H])(n6nc(-c7c([H])c([H])c(Oc8c([H])c([H])c(F)c([H])c8F)c([H])c7[H])c(C(=O)N([H])[H])c6N([H])[H])C5([H])[H])c([H])c4C3([H])[H])c([H])c([H])c2C1([H])[H]

$$$$
78:0:0
     RDKit          3D

 91100  0  0  1  0  0  0  0  0999 V2000
  -27.2870  -18.7820   19.6150 C   0  0  0  0  0  3  0  0  0  0  0  0
  -28.0490  -17.7070   19.3170 C   0  0  0  0  0  3  0  0  0  0  0  0
  -27.8780  -20.6950   21.3040 C   0  0  0  0  0  2  0  0  0  0  0  0
  -30.0570  -19.2010   19.7010 C   0  0  0  0  0  2  0  0  0  0  0  0
  -29.0750  -21.6940   21.3130 C   0  0  0  0  0  2  0  0  0  0  0  0
  -27.7500  -20.2240   19.8430 C   0  0  0  0  0  3  0  0  0  0  0  0
  -29.5700  -17.6360   19.3020 C   0  0  0  0  0  3  0  0  0  0  0  0
  -29.1220  -20.5720   19.2900 C   0  0  0  0  0  3  0  0  0  0  0  0
  -29.3400  -22.0360   19.8920 N   0  0  1  0  0  4  0  0  0  0  0  0
  -30.3120  -22.2990   19.8040 H   0  0  0  0  0  0  0  0  0  0  0  0
  -30.6550  -15.0710   19.7350 C   0  0  0  0  0  0  0  0  0  0  0  0
  -30.5070  -12.6620   18.9470 C   0  0  0  0  0  2  0  0  0  0  0  0
  -29.4980  -12.5860   17.7760 C   0  0  0  0  0  2  0  0  0  0  0  0
  -28.0690  -12.3800   18.3090 C   0  0  0  0  0  2  0  0  0  0  0  0
  -27.7340  -13.3370   19.4840 C   0  0  0  0  0  3  0  0  0  0  0  0
  -28.8660  -13.3980   20.5370 C   0  0  0  0  0  2  0  0  0  0  0  0
  -30.0980  -13.7920   19.8380 N   0  0  0  0  0  0  0  0  0  0  0  0
  -31.7840  -15.1490   19.2390 O   0  0  0  0  0  0  0  0  0  0  0  0
  -29.8920  -16.2440   20.0220 N   0  0  0  0  0  0  0  0  0  0  0  0
  -29.1370  -15.9910   20.6430 H   0  0  0  0  0  0  0  0  0  0  0  0
  -25.4440  -13.9240   20.4710 C   0  0  0  0  0  0  0  0  0  0  0  0
  -24.3920  -13.1560   20.8830 C   0  0  0  0  0  0  0  0  0  0  0  0
  -24.8080  -11.7980   20.7250 C   0  0  0  0  0  0  0  0  0  0  0  0
  -26.4360  -13.0390   20.0820 N   0  0  0  0  0  0  0  0  0  0  0  0
  -26.0660  -11.7480   20.2970 N   0  0  0  0  0  0  0  0  0  0  0  0
  -24.0610  -10.5470   20.9050 C   0  0  0  0  0  0  0  0  0  0  0  0
  -24.5110   -9.5380   21.7850 C   0  0  0  0  0  3  0  0  0  0  0  0
  -23.7630   -8.3530   21.9550 C   0  0  0  0  0  3  0  0  0  0  0  0
  -22.5510   -8.1690   21.2470 C   0  0  0  0  0  0  0  0  0  0  0  0
  -22.1210   -9.1660   20.3540 C   0  0  0  0  0  3  0  0  0  0  0  0
  -22.8690  -10.3430   20.1810 C   0  0  0  0  0  3  0  0  0  0  0  0
  -21.7720   -7.0390   21.3300 O   0  0  0  0  0  0  0  0  0  0  0  0
  -21.7030   -6.2960   22.4810 C   0  0  0  0  0  0  0  0  0  0  0  0
  -21.2570   -6.8500   23.7020 C   0  0  0  0  0  3  0  0  0  0  0  0
  -21.1360   -6.0330   24.8430 C   0  0  0  0  0  3  0  0  0  0  0  0
  -21.4490   -4.6640   24.7660 C   0  0  0  0  0  0  0  0  0  0  0  0
  -21.8860   -4.1080   23.5510 C   0  0  0  0  0  3  0  0  0  0  0  0
  -22.0100   -4.9230   22.4120 C   0  0  0  0  0  0  0  0  0  0  0  0
  -22.4120   -4.3780   21.2380 F   0  0  0  0  0  0  0  0  0  0  0  0
  -21.3250   -3.8750   25.8600 F   0  0  0  0  0  0  0  0  0  0  0  0
  -23.0400  -13.6510   21.3080 C   0  0  0  0  0  0  0  0  0  0  0  0
  -22.3690  -12.9230   22.1940 N   0  0  0  0  0  0  0  0  0  0  0  0
  -22.5920  -14.7190   20.8910 O   0  0  0  0  0  0  0  0  0  0  0  0
  -22.7470  -12.0580   22.5540 H   0  0  0  0  0  0  0  0  0  0  0  0
  -21.4640  -13.2320   22.5150 H   0  0  0  0  0  0  0  0  0  0  0  0
  -25.6300  -15.2990   20.3780 N   0  0  0  0  0  0  0  0  0  0  0  0
  -24.9060  -15.9590   20.6420 H   0  0  0  0  0  0  0  0  0  0  0  0
  -26.4820  -15.7480   20.0700 H   0  0  0  0  0  0  0  0  0  0  0  0
  -28.4450  -23.3450   19.5540 C   0  0  0  0  0  2  0  0  0  0  0  0
  -28.9410  -24.9230   19.1750 C   0  0  0  0  0  2  0  0  0  0  0  0
  -28.6400  -26.3430   19.7810 O   0  0  0  0  0  0  0  0  0  0  0  0
  -24.6230  -31.6240   22.9480 C   0  0  0  0  0  0  0  0  0  0  0  0
  -27.5000  -27.2240   19.6900 C   0  0  0  0  0  0  0  0  0  0  0  0
  -23.5150  -30.2530   21.2200 C   0  0  0  0  0  3  0  0  0  0  0  0
  -25.0590  -28.8280   19.7300 C   0  0  0  0  0  0  0  0  0  0  0  0
  -26.0510  -30.6670   21.0950 C   0  0  0  0  0  2  0  0  0  0  0  0
  -26.2040  -29.3150   20.3700 C   0  0  0  0  0  0  0  0  0  0  0  0
  -27.4120  -28.5260   20.3390 C   0  0  0  0  0  3  0  0  0  0  0  0
  -26.3260  -26.8360   19.0100 C   0  0  0  0  0  3  0  0  0  0  0  0
  -25.1320  -27.6030   19.0390 C   0  0  0  0  0  3  0  0  0  0  0  0
  -23.7830  -29.6540   19.8110 C   0  0  0  0  0  2  0  0  0  0  0  0
  -24.7480  -30.8700   21.8110 N   0  0  0  0  0  0  0  0  0  0  0  0
  -23.5200  -31.8190   23.4800 O   0  0  0  0  0  0  0  0  0  0  0  0
  -22.8810  -29.1670   22.1260 C   0  0  0  0  0  0  0  0  0  0  0  0
  -21.5510  -28.9900   22.0350 N   0  0  0  0  0  0  0  0  0  0  0  0
  -23.5910  -28.4880   22.8730 O   0  0  0  0  0  0  0  0  0  0  0  0
  -21.0300  -29.5890   21.4110 H   0  0  0  0  0  0  0  0  0  0  0  0
  -18.2040  -27.7230   22.6060 C   0  0  0  0  0  0  0  0  0  0  0  0
  -20.7740  -27.9770   22.7520 C   0  0  0  0  0  3  0  0  0  0  0  0
  -20.8480  -26.6100   22.0340 C   0  0  0  0  0  2  0  0  0  0  0  0
  -19.6830  -26.3610   21.0710 C   0  0  0  0  0  2  0  0  0  0  0  0
  -18.3440  -26.4390   21.8080 C   0  0  0  0  0  2  0  0  0  0  0  0
  -19.3430  -28.4520   23.0390 C   0  0  0  0  0  0  0  0  0  0  0  0
  -19.1540  -29.6500   23.7590 C   0  0  0  0  0  3  0  0  0  0  0  0
  -17.8600  -30.1230   24.0440 C   0  0  0  0  0  3  0  0  0  0  0  0
  -16.7360  -29.3940   23.6210 C   0  0  0  0  0  3  0  0  0  0  0  0
  -16.9090  -28.1930   22.9110 C   0  0  0  0  0  3  0  0  0  0  0  0
  -25.8590  -32.2950   23.6200 C   0  0  0  0  0  3  0  0  0  0  0  0
  -25.4700  -33.6590   24.0180 N   0  0  0  0  0  0  0  0  0  0  0  0
  -25.7440  -34.7660   23.3160 C   0  0  0  0  0  0  0  0  0  0  0  0
  -26.4130  -34.7520   22.2800 O   0  0  0  0  0  0  0  0  0  0  0  0
  -24.8670  -33.7390   24.8230 H   0  0  0  0  0  0  0  0  0  0  0  0
  -23.9120  -36.4750   23.0720 C   0  0  0  0  0  1  0  0  0  0  0  0
  -25.1860  -36.1030   23.8460 C   0  0  0  0  0  3  0  0  0  0  0  0
  -27.2760  -37.0740   24.6950 C   0  0  0  0  0  1  0  0  0  0  0  0
  -26.1560  -37.2170   23.7690 N   0  0  0  0  0  0  0  0  0  0  0  0
  -25.6980  -38.1060   23.9570 H   0  0  0  0  0  0  0  0  0  0  0  0
  -26.3970  -31.4940   24.8690 C   0  0  1  0  0  0  0  0  0  0  0  0
  -25.3040  -31.1630   25.9140 C   0  0  0  0  0  1  0  0  0  0  0  0
  -27.0470  -30.1610   24.4300 C   0  0  0  0  0  1  0  0  0  0  0  0
  -27.5070  -32.3070   25.5780 C   0  0  0  0  0  1  0  0  0  0  0  0
  2  1  2  0
  3  5  1  0
  6  1  1  0
  6  3  1  0
  7  2  1  0
  7  4  1  0
  7 19  1  0
  8  4  1  0
  8  6  1  0
  8  9  1  0
  9  5  1  0
  9 10  1  1
 11 17  1  0
 11 19  1  0
 12 17  1  0
 13 14  1  0
 13 12  1  0
 15 14  1  0
 15 24  1  0
 15 16  1  0
 17 16  1  0
 18 11  2  0
 19 20  1  0
 21 22  2  0
 22 41  1  0
 23 22  1  0
 23 26  1  0
 24 25  1  0
 24 21  1  0
 25 23  2  0
 26 27  1  0
 27 28  2  0
 29 32  1  0
 29 28  1  0
 30 29  2  0
 31 30  1  0
 31 26  2  0
 32 33  1  0
 33 34  1  0
 34 35  2  0
 36 35  1  0
 36 40  1  0
 37 36  2  0
 38 33  2  0
 38 37  1  0
 39 38  1  0
 41 42  1  0
 42 45  1  0
 42 44  1  0
 43 41  2  0
 46 21  1  0
 46 47  1  0
 48 46  1  0
 49  9  1  0
 50 49  1  0
 50 51  1  0
 52 63  2  0
 53 51  1  0
 53 58  1  0
 54 62  1  0
 54 64  1  0
 55 61  1  0
 55 57  1  0
 56 62  1  0
 57 56  1  0
 58 57  2  0
 59 60  1  0
 59 53  2  0
 60 55  2  0
 61 54  1  0
 62 52  1  0
 64 66  2  0
 65 64  1  0
 67 65  1  0
 68 77  2  0
 68 73  1  0
 69 65  1  0
 69 73  1  0
 70 69  1  0
 71 72  1  0
 71 70  1  0
 72 68  1  0
 73 74  2  0
 74 75  1  0
 76 75  2  0
 77 76  1  0
 78 52  1  0
 78 79  1  0
 78 88  1  0
 79 82  1  0
 80 84  1  0
 80 79  1  0
 81 80  2  0
 84 83  1  0
 86 84  1  0
 86 87  1  0
 86 85  1  0
 88 91  1  1
 88 89  1  0
 90 88  1  0
M  ISO  4  11 100  19 100  50 101  51 101
M  END
>  <TORSDO>  (78) 
F 18

>  <SCORE>  (78) 
-13.906

>  <name>  (78) 
78

>  <ligand_id>  (78) 
78

>  <original_smiles>  (78) 
[H]C1=C([H])C2([H])C([H])([H])C([H])([H])[N+]([H])(C([H])([H])C([H])([H])Oc3c([H])c([H])c4c(c3[H])C([H])([H])N(C(=O)C([H])(N([H])C(=O)C([H])(N([H])C([H])([H])[H])C([H])([H])[H])C(C([H])([H])[H])(C([H])([H])[H])C([H])([H])[H])C([H])(C(=O)N([H])C3([H])c5c([H])c([H])c([H])c([H])c5C([H])([H])C([H])([H])C3([H])[H])C4([H])[H])C2([H])C([H])([H])C1([H])N([H])C(=O)N1C([H])([H])C([H])([H])C([H])([H])C([H])(n2nc(-c3c([H])c([H])c(Oc4c([H])c([H])c(F)c([H])c4F)c([H])c3[H])c(C(=O)N([H])[H])c2N([H])[H])C1([H])[H]

>  <smiles>  (78) 
[H]C1=C([H])C2([H])C([H])([H])C([H])([H])[N+]([H])(C([H])([H])C([H])([H])Oc3c([H])c([H])c4c(c3[H])C([H])([H])N(C(=O)C([H])(N([H])C(=O)C([H])(N([H])C([H])([H])[H])C([H])([H])[H])C(C([H])([H])[H])(C([H])([H])[H])C([H])([H])[H])C([H])(C(=O)N([H])C3([H])c5c([H])c([H])c([H])c([H])c5C([H])([H])C([H])([H])C3([H])[H])C4([H])[H])C2([H])C([H])([H])C1([H])N([H])C(=O)N1C([H])([H])C([H])([H])C([H])([H])C([H])(n2nc(-c3c([H])c([H])c(Oc4c([H])c([H])c(F)c([H])c4F)c([H])c3[H])c(C(=O)N([H])[H])c2N([H])[H])C1([H])[H]

$$$$
79:0:0
     RDKit          3D

 83 92  0  0  1  0  0  0  0  0999 V2000
  -30.0370  -16.4300   20.2450 C   0  0  0  0  0  0  0  0  0  0  0  0
  -30.3340  -13.7030   19.5130 C   0  0  0  0  0  2  0  0  0  0  0  0
  -29.5800  -12.9180   18.3750 C   0  0  0  0  0  2  0  0  0  0  0  0
  -28.2190  -12.3990   18.8440 C   0  0  0  0  0  2  0  0  0  0  0  0
  -27.5680  -13.4480   19.7600 C   0  0  0  0  0  3  0  0  0  0  0  0
  -28.5090  -14.1020   20.8290 C   0  0  0  0  0  2  0  0  0  0  0  0
  -29.5560  -14.9500   20.1280 N   0  0  0  0  0  0  0  0  0  0  0  0
  -31.2780  -16.1820   20.1900 O   0  0  0  0  0  0  0  0  0  0  0  0
  -28.2320  -19.2400   20.4240 C   0  0  0  0  0  3  0  0  0  0  0  0
  -30.0600  -19.6550   19.9880 C   0  0  0  0  0  3  0  0  0  0  0  0
  -28.3080  -21.0940   20.6660 C   0  0  0  0  0  3  0  0  0  0  0  0
  -29.3320  -21.3490   19.6710 C   0  0  0  0  0  3  0  0  0  0  0  0
  -28.1460  -22.8010   19.9500 C   0  0  0  0  0  2  0  0  0  0  0  0
  -29.4570  -18.0760   20.1890 N   0  0  0  0  0  0  0  0  0  0  0  0
  -25.1920  -13.8880   20.4770 C   0  0  0  0  0  0  0  0  0  0  0  0
  -24.1410  -13.0880   20.8190 C   0  0  0  0  0  0  0  0  0  0  0  0
  -24.6410  -11.7480   20.8110 C   0  0  0  0  0  0  0  0  0  0  0  0
  -26.2640  -13.0450   20.2730 N   0  0  0  0  0  0  0  0  0  0  0  0
  -25.9460  -11.7450   20.5310 N   0  0  0  0  0  0  0  0  0  0  0  0
  -23.9240  -10.4750   20.9950 C   0  0  0  0  0  0  0  0  0  0  0  0
  -24.3290   -9.5250   21.9590 C   0  0  0  0  0  3  0  0  0  0  0  0
  -23.6020   -8.3270   22.1360 C   0  0  0  0  0  3  0  0  0  0  0  0
  -22.4550   -8.0680   21.3500 C   0  0  0  0  0  0  0  0  0  0  0  0
  -22.0680   -9.0060   20.3770 C   0  0  0  0  0  3  0  0  0  0  0  0
  -22.7950  -10.1960   20.1980 C   0  0  0  0  0  3  0  0  0  0  0  0
  -21.7050   -6.9200   21.4330 O   0  0  0  0  0  0  0  0  0  0  0  0
  -21.6140   -6.1990   22.5980 C   0  0  0  0  0  0  0  0  0  0  0  0
  -21.1260   -6.7740   23.7920 C   0  0  0  0  0  3  0  0  0  0  0  0
  -20.9840   -5.9800   24.9480 C   0  0  0  0  0  3  0  0  0  0  0  0
  -21.3210   -4.6140   24.9110 C   0  0  0  0  0  0  0  0  0  0  0  0
  -21.8020   -4.0390   23.7220 C   0  0  0  0  0  3  0  0  0  0  0  0
  -21.9450   -4.8300   22.5680 C   0  0  0  0  0  0  0  0  0  0  0  0
  -22.3880   -4.2640   21.4190 F   0  0  0  0  0  0  0  0  0  0  0  0
  -21.1780   -3.8500   26.0200 F   0  0  0  0  0  0  0  0  0  0  0  0
  -22.7300  -13.5440   21.0360 C   0  0  0  0  0  0  0  0  0  0  0  0
  -21.9900  -12.8580   21.8970 N   0  0  0  0  0  0  0  0  0  0  0  0
  -22.2930  -14.5510   20.4790 O   0  0  0  0  0  0  0  0  0  0  0  0
  -22.3570  -12.0460   22.3710 H   0  0  0  0  0  0  0  0  0  0  0  0
  -21.0410  -13.1480   22.0880 H   0  0  0  0  0  0  0  0  0  0  0  0
  -25.3240  -15.2600   20.2840 N   0  0  0  0  0  0  0  0  0  0  0  0
  -24.5380  -15.8960   20.3710 H   0  0  0  0  0  0  0  0  0  0  0  0
  -26.1740  -15.7180   19.9840 H   0  0  0  0  0  0  0  0  0  0  0  0
  -28.1060  -24.8120   20.1980 O   0  0  0  0  0  1  0  0  0  0  0  0
  -24.6520  -31.7470   23.0470 C   0  0  0  0  0  0  0  0  0  0  0  0
  -27.1850  -26.2450   20.1340 C   0  0  0  0  0  0  0  0  0  0  0  0
  -23.4900  -30.3190   21.4270 C   0  0  0  0  0  3  0  0  0  0  0  0
  -24.9500  -28.5730   20.0530 C   0  0  0  0  0  0  0  0  0  0  0  0
  -26.0860  -30.3340   21.3610 C   0  0  0  0  0  2  0  0  0  0  0  0
  -26.1520  -28.8450   20.7150 C   0  0  0  0  0  0  0  0  0  0  0  0
  -27.2240  -27.7250   20.7110 C   0  0  0  0  0  3  0  0  0  0  0  0
  -25.9440  -26.3130   19.4040 C   0  0  0  0  0  3  0  0  0  0  0  0
  -24.9150  -27.3380   19.3700 C   0  0  0  0  0  3  0  0  0  0  0  0
  -23.7590  -29.5750   20.0770 C   0  0  0  0  0  2  0  0  0  0  0  0
  -24.7730  -30.8460   21.9960 N   0  0  0  0  0  0  0  0  0  0  0  0
  -23.5470  -32.0650   23.5290 O   0  0  0  0  0  0  0  0  0  0  0  0
  -22.7340  -29.3880   22.4170 C   0  0  0  0  0  0  0  0  0  0  0  0
  -21.3940  -29.2690   22.3100 N   0  0  0  0  0  0  0  0  0  0  0  0
  -23.3740  -28.7640   23.2650 O   0  0  0  0  0  0  0  0  0  0  0  0
  -20.9190  -29.8220   21.6090 H   0  0  0  0  0  0  0  0  0  0  0  0
  -17.9900  -28.1010   22.8950 C   0  0  0  0  0  0  0  0  0  0  0  0
  -20.5610  -28.3420   23.0930 C   0  0  0  0  0  3  0  0  0  0  0  0
  -20.6280  -26.9110   22.5090 C   0  0  0  0  0  2  0  0  0  0  0  0
  -19.5010  -26.6120   21.5150 C   0  0  0  0  0  2  0  0  0  0  0  0
  -18.1370  -26.7620   22.1910 C   0  0  0  0  0  2  0  0  0  0  0  0
  -19.1270  -28.8500   23.3030 C   0  0  0  0  0  0  0  0  0  0  0  0
  -18.9290  -30.0990   23.9320 C   0  0  0  0  0  3  0  0  0  0  0  0
  -17.6320  -30.6000   24.1480 C   0  0  0  0  0  3  0  0  0  0  0  0
  -16.5120  -29.8500   23.7500 C   0  0  0  0  0  3  0  0  0  0  0  0
  -16.6920  -28.6010   23.1310 C   0  0  0  0  0  3  0  0  0  0  0  0
  -25.8880  -32.4360   23.7040 C   0  0  0  0  0  3  0  0  0  0  0  0
  -25.5280  -33.8300   24.0600 N   0  0  0  0  0  0  0  0  0  0  0  0
  -25.8480  -34.9250   23.3550 C   0  0  0  0  0  0  0  0  0  0  0  0
  -26.5200  -34.8700   22.3230 O   0  0  0  0  0  0  0  0  0  0  0  0
  -24.9260  -33.9420   24.8620 H   0  0  0  0  0  0  0  0  0  0  0  0
  -24.0970  -36.7260   23.0930 C   0  0  0  0  0  1  0  0  0  0  0  0
  -25.3530  -36.2980   23.8710 C   0  0  0  0  0  3  0  0  0  0  0  0
  -27.4770  -37.2030   24.7170 C   0  0  0  0  0  1  0  0  0  0  0  0
  -26.3740  -37.3670   23.7750 N   0  0  0  0  0  0  0  0  0  0  0  0
  -25.9570  -38.2810   23.9270 H   0  0  0  0  0  0  0  0  0  0  0  0
  -26.3940  -31.6870   25.0010 C   0  0  1  0  0  0  0  0  0  0  0  0
  -25.2880  -31.4490   26.0570 C   0  0  0  0  0  1  0  0  0  0  0  0
  -26.9990  -30.3120   24.6510 C   0  0  0  0  0  1  0  0  0  0  0  0
  -27.5270  -32.5010   25.6690 C   0  0  0  0  0  1  0  0  0  0  0  0
  2  7  1  0
  3  4  1  0
  3  2  1  0
  5  4  1  0
  5 18  1  0
  5  6  1  0
  7  1  1  0
  7  6  1  0
  8  1  2  0
  9 14  1  0
  9 11  1  0
 10 14  1  0
 10  9  1  0
 11 13  1  0
 12 13  1  0
 12 10  1  0
 12 11  1  0
 14  1  1  0
 15 16  2  0
 16 35  1  0
 17 16  1  0
 17 20  1  0
 18 15  1  0
 18 19  1  0
 19 17  2  0
 20 21  1  0
 21 22  2  0
 23 26  1  0
 23 22  1  0
 24 23  2  0
 25 24  1  0
 25 20  2  0
 26 27  1  0
 27 28  1  0
 28 29  2  0
 30 29  1  0
 30 34  1  0
 31 30  2  0
 32 27  2  0
 32 31  1  0
 33 32  1  0
 35 36  1  0
 36 39  1  0
 36 38  1  0
 37 35  2  0
 40 41  1  0
 40 15  1  0
 42 40  1  0
 44 55  2  0
 45 43  1  0
 45 50  1  0
 46 54  1  0
 46 56  1  0
 47 53  1  0
 47 49  1  0
 48 54  1  0
 49 48  1  0
 50 49  2  0
 51 45  2  0
 52 51  1  0
 52 47  2  0
 53 46  1  0
 54 44  1  0
 56 58  2  0
 57 56  1  0
 59 57  1  0
 60 69  2  0
 60 65  1  0
 61 57  1  0
 61 65  1  0
 62 61  1  0
 63 64  1  0
 63 62  1  0
 64 60  1  0
 65 66  2  0
 66 67  1  0
 68 67  2  0
 69 68  1  0
 70 44  1  0
 70 71  1  0
 70 80  1  0
 71 74  1  0
 72 76  1  0
 72 71  1  0
 73 72  2  0
 76 75  1  0
 78 76  1  0
 78 79  1  0
 78 77  1  0
 80 83  1  1
 80 81  1  0
 82 80  1  0
M  ISO  4   1 100  13 101  14 100  43 101
M  END
>  <TORSDO>  (79) 
F 15

>  <SCORE>  (79) 
-16.289

>  <name>  (79) 
79

>  <ligand_id>  (79) 
79

>  <original_smiles>  (79) 
[H]c1c([H])c([H])c2c(c1[H])C([H])([H])C([H])([H])C([H])([H])C2([H])N([H])C(=O)C1([H])N(C(=O)C([H])(N([H])C(=O)C([H])(N([H])C([H])([H])[H])C([H])([H])[H])C(C([H])([H])[H])(C([H])([H])[H])C([H])([H])[H])C([H])([H])c2c([H])c(OC3([H])C4([H])C([H])([H])N(C(=O)N5C([H])([H])C([H])([H])C([H])([H])C([H])(n6nc(-c7c([H])c([H])c(Oc8c([H])c([H])c(F)c([H])c8F)c([H])c7[H])c(C(=O)N([H])[H])c6N([H])[H])C5([H])[H])C([H])([H])C34[H])c([H])c([H])c2C1([H])[H]

>  <smiles>  (79) 
[H]c1c([H])c([H])c2c(c1[H])C([H])([H])C([H])([H])C([H])([H])C2([H])N([H])C(=O)C1([H])N(C(=O)C([H])(N([H])C(=O)C([H])(N([H])C([H])([H])[H])C([H])([H])[H])C(C([H])([H])[H])(C([H])([H])[H])C([H])([H])[H])C([H])([H])c2c([H])c(OC3([H])C4([H])C([H])([H])N(C(=O)N5C([H])([H])C([H])([H])C([H])([H])C([H])(n6nc(-c7c([H])c([H])c(Oc8c([H])c([H])c(F)c([H])c8F)c([H])c7[H])c(C(=O)N([H])[H])c6N([H])[H])C5([H])[H])C([H])([H])C34[H])c([H])c([H])c2C1([H])[H]

$$$$
80:0:0
     RDKit          3D

 94103  0  0  1  0  0  0  0  0999 V2000
  -30.9190  -18.8700   18.7210 C   0  0  0  0  0  3  0  0  0  0  0  0
  -30.9190  -17.5100   19.1150 C   0  0  0  0  0  3  0  0  0  0  0  0
  -29.6320  -18.0610   21.1260 C   0  0  0  0  0  3  0  0  0  0  0  0
  -30.2530  -19.8090   19.5290 C   0  0  0  0  0  0  0  0  0  0  0  0
  -29.6300  -19.4230   20.7120 C   0  0  0  0  0  0  0  0  0  0  0  0
  -30.2830  -17.0790   20.3170 C   0  0  0  0  0  0  0  0  0  0  0  0
  -30.0650  -21.2570   19.2940 C   0  0  0  0  0  0  0  0  0  0  0  0
  -28.9900  -20.6300   21.3900 C   0  0  0  0  0  2  0  0  0  0  0  0
  -29.0430  -21.7810   20.3280 C   0  0  0  0  0  3  0  0  0  0  0  0
  -30.6060  -21.9190   18.4030 O   0  0  0  0  0  0  0  0  0  0  0  0
  -30.9130  -14.6370   20.1820 C   0  0  0  0  0  0  0  0  0  0  0  0
  -30.5920  -12.4510   19.0820 C   0  0  0  0  0  2  0  0  0  0  0  0
  -29.6170  -12.6530   17.9020 C   0  0  0  0  0  2  0  0  0  0  0  0
  -28.1540  -12.5090   18.3720 C   0  0  0  0  0  2  0  0  0  0  0  0
  -27.8520  -13.3480   19.6410 C   0  0  0  0  0  3  0  0  0  0  0  0
  -28.9420  -13.1470   20.7190 C   0  0  0  0  0  2  0  0  0  0  0  0
  -30.2480  -13.4470   20.1120 N   0  0  0  0  0  0  0  0  0  0  0  0
  -32.0410  -14.7860   19.7080 O   0  0  0  0  0  0  0  0  0  0  0  0
  -30.2140  -15.6850   20.6900 N   0  0  0  0  0  0  0  0  0  0  0  0
  -29.4180  -15.4240   21.2510 H   0  0  0  0  0  0  0  0  0  0  0  0
  -25.4880  -13.9620   20.4520 C   0  0  0  0  0  0  0  0  0  0  0  0
  -24.4250  -13.1910   20.8400 C   0  0  0  0  0  0  0  0  0  0  0  0
  -24.8720  -11.8360   20.7640 C   0  0  0  0  0  0  0  0  0  0  0  0
  -26.5150  -13.0760   20.1630 N   0  0  0  0  0  0  0  0  0  0  0  0
  -26.1480  -11.7920   20.4080 N   0  0  0  0  0  0  0  0  0  0  0  0
  -24.1400  -10.5780   20.9550 C   0  0  0  0  0  0  0  0  0  0  0  0
  -24.5560   -9.6160   21.9030 C   0  0  0  0  0  3  0  0  0  0  0  0
  -23.8260   -8.4210   22.0790 C   0  0  0  0  0  3  0  0  0  0  0  0
  -22.6630   -8.1800   21.3090 C   0  0  0  0  0  0  0  0  0  0  0  0
  -22.2660   -9.1300   20.3510 C   0  0  0  0  0  3  0  0  0  0  0  0
  -22.9970  -10.3160   20.1740 C   0  0  0  0  0  3  0  0  0  0  0  0
  -21.9060   -7.0370   21.3950 O   0  0  0  0  0  0  0  0  0  0  0  0
  -21.8000   -6.3300   22.5650 C   0  0  0  0  0  0  0  0  0  0  0  0
  -21.2530   -6.9030   23.7350 C   0  0  0  0  0  3  0  0  0  0  0  0
  -21.1000   -6.1190   24.8950 C   0  0  0  0  0  3  0  0  0  0  0  0
  -21.4820   -4.7640   24.8890 C   0  0  0  0  0  0  0  0  0  0  0  0
  -22.0190   -4.1910   23.7220 C   0  0  0  0  0  3  0  0  0  0  0  0
  -22.1760   -4.9720   22.5630 C   0  0  0  0  0  0  0  0  0  0  0  0
  -22.6780   -4.4100   21.4370 F   0  0  0  0  0  0  0  0  0  0  0  0
  -21.3240   -4.0090   26.0010 F   0  0  0  0  0  0  0  0  0  0  0  0
  -23.0420  -13.6780   21.1720 C   0  0  0  0  0  0  0  0  0  0  0  0
  -22.3360  -12.9720   22.0480 N   0  0  0  0  0  0  0  0  0  0  0  0
  -22.5990  -14.7200   20.6910 O   0  0  0  0  0  0  0  0  0  0  0  0
  -22.7060  -12.1280   22.4590 H   0  0  0  0  0  0  0  0  0  0  0  0
  -21.4130  -13.2850   22.3150 H   0  0  0  0  0  0  0  0  0  0  0  0
  -25.6620  -15.3350   20.3000 N   0  0  0  0  0  0  0  0  0  0  0  0
  -24.9050  -15.9920   20.4460 H   0  0  0  0  0  0  0  0  0  0  0  0
  -26.4980  -15.7710   19.9300 H   0  0  0  0  0  0  0  0  0  0  0  0
  -29.4170  -23.1380   20.8430 N   0  0  0  0  0  4  0  0  0  0  0  0
  -30.4160  -23.1530   20.9900 H   0  0  0  0  0  0  0  0  0  0  0  0
  -28.9810  -23.2320   21.7450 H   0  0  0  0  0  0  0  0  0  0  0  0
  -29.0190  -24.3170   19.9980 C   0  0  0  0  0  2  0  0  0  0  0  0
  -28.6560  -25.5950   20.8140 C   0  0  0  0  0  2  0  0  0  0  0  0
  -28.5940  -26.8000   20.0170 O   0  0  0  0  0  0  0  0  0  0  0  0
  -24.6970  -31.8470   23.2570 C   0  0  0  0  0  0  0  0  0  0  0  0
  -27.4180  -27.5230   20.0680 C   0  0  0  0  0  0  0  0  0  0  0  0
  -23.5190  -30.4910   21.5550 C   0  0  0  0  0  3  0  0  0  0  0  0
  -25.0040  -29.0070   20.1000 C   0  0  0  0  0  0  0  0  0  0  0  0
  -26.0420  -30.8780   21.3930 C   0  0  0  0  0  2  0  0  0  0  0  0
  -26.1500  -29.5250   20.7140 C   0  0  0  0  0  0  0  0  0  0  0  0
  -27.3620  -28.7930   20.6930 C   0  0  0  0  0  3  0  0  0  0  0  0
  -26.2560  -27.0190   19.4470 C   0  0  0  0  0  3  0  0  0  0  0  0
  -25.0530  -27.7560   19.4600 C   0  0  0  0  0  3  0  0  0  0  0  0
  -23.7500  -29.8530   20.1580 C   0  0  0  0  0  2  0  0  0  0  0  0
  -24.7710  -31.0860   22.1280 N   0  0  0  0  0  0  0  0  0  0  0  0
  -23.6090  -32.0910   23.7970 O   0  0  0  0  0  0  0  0  0  0  0  0
  -22.8680  -29.4340   22.4770 C   0  0  0  0  0  0  0  0  0  0  0  0
  -21.5430  -29.2630   22.3490 N   0  0  0  0  0  0  0  0  0  0  0  0
  -23.5550  -28.7720   23.2610 O   0  0  0  0  0  0  0  0  0  0  0  0
  -21.0530  -29.8560   21.6940 H   0  0  0  0  0  0  0  0  0  0  0  0
  -18.1630  -28.0830   22.8280 C   0  0  0  0  0  0  0  0  0  0  0  0
  -20.7250  -28.2950   23.0810 C   0  0  0  0  0  3  0  0  0  0  0  0
  -20.8030  -26.8960   22.4270 C   0  0  0  0  0  2  0  0  0  0  0  0
  -19.6840  -26.6410   21.4120 C   0  0  0  0  0  2  0  0  0  0  0  0
  -18.3130  -26.7680   22.0800 C   0  0  0  0  0  2  0  0  0  0  0  0
  -19.2950  -28.8060   23.2840 C   0  0  0  0  0  0  0  0  0  0  0  0
  -19.0990  -30.0410   23.9400 C   0  0  0  0  0  3  0  0  0  0  0  0
  -17.8030  -30.5490   24.1450 C   0  0  0  0  0  3  0  0  0  0  0  0
  -16.6830  -29.8210   23.7090 C   0  0  0  0  0  3  0  0  0  0  0  0
  -16.8650  -28.5900   23.0540 C   0  0  0  0  0  3  0  0  0  0  0  0
  -25.9710  -32.4670   23.9120 C   0  0  0  0  0  3  0  0  0  0  0  0
  -26.4410  -31.6980   25.2080 C   0  0  1  0  0  0  0  0  0  0  0  0
  -25.3140  -31.4800   26.2440 C   0  0  0  0  0  1  0  0  0  0  0  0
  -27.0190  -30.3120   24.8380 C   0  0  0  0  0  1  0  0  0  0  0  0
  -27.5800  -32.4840   25.8980 C   0  0  0  0  0  1  0  0  0  0  0  0
  -25.6720  -33.8720   24.2220 N   0  0  0  0  0  0  0  0  0  0  0  0
  -26.0410  -34.9130   23.4640 C   0  0  0  0  0  0  0  0  0  0  0  0
  -26.7410  -34.7910   22.4540 O   0  0  0  0  0  0  0  0  0  0  0  0
  -25.0560  -34.0420   25.0030 H   0  0  0  0  0  0  0  0  0  0  0  0
  -24.3660  -36.7360   23.0220 C   0  0  0  0  0  1  0  0  0  0  0  0
  -25.5590  -36.3120   23.8930 C   0  0  0  0  0  3  0  0  0  0  0  0
  -27.6590  -37.1700   24.8340 C   0  0  0  0  0  1  0  0  0  0  0  0
  -26.6160  -37.3450   23.8280 N   0  0  0  0  0  0  0  0  0  0  0  0
  -26.2200  -38.2750   23.9400 H   0  0  0  0  0  0  0  0  0  0  0  0
  1  2  2  0
  1  4  1  0
  2  6  1  0
  4  5  2  0
  5  3  1  0
  5  8  1  0
  6 19  1  0
  6  3  2  0
  7  4  1  0
  7  9  1  0
  9 49  1  0
  9  8  1  0
 10  7  2  0
 11 19  1  0
 12 17  1  0
 13 14  1  0
 13 12  1  0
 15 14  1  0
 15 24  1  0
 15 16  1  0
 17 11  1  0
 17 16  1  0
 18 11  2  0
 19 20  1  0
 21 22  2  0
 22 41  1  0
 23 22  1  0
 23 26  1  0
 24 25  1  0
 24 21  1  0
 25 23  2  0
 26 27  1  0
 27 28  2  0
 29 32  1  0
 29 28  1  0
 30 29  2  0
 31 30  1  0
 31 26  2  0
 32 33  1  0
 33 34  1  0
 34 35  2  0
 36 35  1  0
 36 40  1  0
 37 36  2  0
 38 33  2  0
 38 37  1  0
 39 38  1  0
 41 42  1  0
 42 45  1  0
 42 44  1  0
 43 41  2  0
 46 47  1  0
 46 21  1  0
 48 46  1  0
 49 50  1  0
 49 51  1  0
 52 53  1  0
 52 49  1  0
 54 56  1  0
 54 53  1  0
 55 66  2  0
 56 61  1  0
 57 65  1  0
 57 67  1  0
 58 64  1  0
 58 60  1  0
 59 65  1  0
 60 59  1  0
 61 60  2  0
 62 63  1  0
 62 56  2  0
 63 58  2  0
 64 57  1  0
 65 55  1  0
 67 69  2  0
 68 67  1  0
 70 68  1  0
 71 80  2  0
 71 76  1  0
 72 68  1  0
 72 76  1  0
 73 72  1  0
 74 75  1  0
 74 73  1  0
 75 71  1  0
 76 77  2  0
 77 78  1  0
 79 78  2  0
 80 79  1  0
 81 55  1  0
 81 86  1  0
 81 82  1  0
 82 85  1  1
 82 83  1  0
 84 82  1  0
 86 89  1  0
 87 91  1  0
 87 86  1  0
 88 87  2  0
 91 90  1  0
 93 91  1  0
 93 94  1  0
 93 92  1  0
M  ISO  4  11 100  19 100  53 101  54 101
M  END
>  <TORSDO>  (80) 
F 19

>  <SCORE>  (80) 
-13.900

>  <name>  (80) 
80

>  <ligand_id>  (80) 
80

>  <original_smiles>  (80) 
[H]c1c([H])c([H])c2c(c1[H])C([H])([H])C([H])([H])C([H])([H])C2([H])N([H])C(=O)C1([H])N(C(=O)C([H])(N([H])C(=O)C([H])(N([H])C([H])([H])[H])C([H])([H])[H])C(C([H])([H])[H])(C([H])([H])[H])C([H])([H])[H])C([H])([H])c2c([H])c(OC([H])([H])C([H])([H])[N+]([H])([H])C3([H])C(=O)c4c([H])c([H])c(N([H])C(=O)N5C([H])([H])C([H])([H])C([H])([H])C([H])(n6nc(-c7c([H])c([H])c(Oc8c([H])c([H])c(F)c([H])c8F)c([H])c7[H])c(C(=O)N([H])[H])c6N([H])[H])C5([H])[H])c([H])c4C3([H])[H])c([H])c([H])c2C1([H])[H]

>  <smiles>  (80) 
[H]c1c([H])c([H])c2c(c1[H])C([H])([H])C([H])([H])C([H])([H])C2([H])N([H])C(=O)C1([H])N(C(=O)C([H])(N([H])C(=O)C([H])(N([H])C([H])([H])[H])C([H])([H])[H])C(C([H])([H])[H])(C([H])([H])[H])C([H])([H])[H])C([H])([H])c2c([H])c(OC([H])([H])C([H])([H])[N+]([H])([H])C3([H])C(=O)c4c([H])c([H])c(N([H])C(=O)N5C([H])([H])C([H])([H])C([H])([H])C([H])(n6nc(-c7c([H])c([H])c(Oc8c([H])c([H])c(F)c([H])c8F)c([H])c7[H])c(C(=O)N([H])[H])c6N([H])[H])C5([H])[H])c([H])c4C3([H])[H])c([H])c([H])c2C1([H])[H]

$$$$
81:0:0
     RDKit          3D

 89 99  0  0  1  0  0  0  0  0999 V2000
  -29.4380  -19.0540   21.4210 C   0  0  0  0  0  2  0  0  0  0  0  0
  -29.3350  -19.0000   19.0940 C   0  0  0  0  0  2  0  0  0  0  0  0
  -30.8500  -20.9090   20.1460 C   0  0  0  0  0  2  0  0  0  0  0  0
  -29.9210  -18.0380   20.2610 C   0  0  0  0  0  3  0  0  0  0  0  0
  -29.7500  -20.6640   21.1820 C   0  0  2  0  0  0  0  0  0  0  0  0
  -29.6550  -20.6260   19.2340 C   0  0  1  0  0  0  0  0  0  0  0  0
  -28.8790  -21.5370   20.2330 N   0  0  2  0  0  4  0  0  0  0  0  0
  -27.8980  -21.3010   20.2930 H   0  0  0  0  0  0  0  0  0  0  0  0
  -30.4630  -15.2100   20.2050 C   0  0  0  0  0  0  0  0  0  0  0  0
  -30.3920  -12.8100   19.3050 C   0  0  0  0  0  2  0  0  0  0  0  0
  -29.4420  -12.6930   18.0880 C   0  0  0  0  0  2  0  0  0  0  0  0
  -27.9930  -12.4470   18.5460 C   0  0  0  0  0  2  0  0  0  0  0  0
  -27.5840  -13.3780   19.7190 C   0  0  0  0  0  3  0  0  0  0  0  0
  -28.6600  -13.4570   20.8230 C   0  0  0  0  0  2  0  0  0  0  0  0
  -29.8940  -13.9220   20.1770 N   0  0  0  0  0  0  0  0  0  0  0  0
  -31.6680  -15.2550   19.9300 O   0  0  0  0  0  0  0  0  0  0  0  0
  -29.6750  -16.4240   20.3370 N   0  0  0  0  0  0  0  0  0  0  0  0
  -28.7100  -16.1980   20.5300 H   0  0  0  0  0  0  0  0  0  0  0  0
  -25.2290  -13.9250   20.5430 C   0  0  0  0  0  0  0  0  0  0  0  0
  -24.1770  -13.1410   20.9240 C   0  0  0  0  0  0  0  0  0  0  0  0
  -24.6430  -11.7920   20.8510 C   0  0  0  0  0  0  0  0  0  0  0  0
  -26.2660  -13.0550   20.2520 N   0  0  0  0  0  0  0  0  0  0  0  0
  -25.9250  -11.7650   20.5050 N   0  0  0  0  0  0  0  0  0  0  0  0
  -23.9210  -10.5240   21.0310 C   0  0  0  0  0  0  0  0  0  0  0  0
  -24.3510   -9.5540   21.9630 C   0  0  0  0  0  3  0  0  0  0  0  0
  -23.6270   -8.3540   22.1320 C   0  0  0  0  0  3  0  0  0  0  0  0
  -22.4600   -8.1140   21.3700 C   0  0  0  0  0  0  0  0  0  0  0  0
  -22.0500   -9.0740   20.4260 C   0  0  0  0  0  3  0  0  0  0  0  0
  -22.7740  -10.2650   20.2550 C   0  0  0  0  0  3  0  0  0  0  0  0
  -21.7070   -6.9680   21.4490 O   0  0  0  0  0  0  0  0  0  0  0  0
  -21.6160   -6.2450   22.6120 C   0  0  0  0  0  0  0  0  0  0  0  0
  -21.1000   -6.8070   23.8010 C   0  0  0  0  0  3  0  0  0  0  0  0
  -20.9590   -6.0080   24.9530 C   0  0  0  0  0  3  0  0  0  0  0  0
  -21.3230   -4.6490   24.9180 C   0  0  0  0  0  0  0  0  0  0  0  0
  -21.8320   -4.0860   23.7340 C   0  0  0  0  0  3  0  0  0  0  0  0
  -21.9760   -4.8830   22.5840 C   0  0  0  0  0  0  0  0  0  0  0  0
  -22.4470   -4.3290   21.4400 F   0  0  0  0  0  0  0  0  0  0  0  0
  -21.1830   -3.8800   26.0230 F   0  0  0  0  0  0  0  0  0  0  0  0
  -22.7860  -13.6090   21.2370 C   0  0  0  0  0  0  0  0  0  0  0  0
  -22.0810  -12.8960   22.1070 N   0  0  0  0  0  0  0  0  0  0  0  0
  -22.3360  -14.6440   20.7460 O   0  0  0  0  0  0  0  0  0  0  0  0
  -22.4610  -12.0600   22.5260 H   0  0  0  0  0  0  0  0  0  0  0  0
  -21.1460  -13.1860   22.3530 H   0  0  0  0  0  0  0  0  0  0  0  0
  -25.3830  -15.3000   20.3870 N   0  0  0  0  0  0  0  0  0  0  0  0
  -24.6090  -15.9430   20.5110 H   0  0  0  0  0  0  0  0  0  0  0  0
  -26.1990  -15.7430   19.9870 H   0  0  0  0  0  0  0  0  0  0  0  0
  -29.0930  -23.1800   20.2350 C   0  0  0  0  0  3  0  0  0  0  0  0
  -27.9650  -24.5030   20.1060 C   0  0  0  0  0  3  0  0  0  0  0  0
  -28.2110  -26.0920   20.2320 O   0  0  0  0  0  0  0  0  0  0  0  0
  -24.6400  -31.9310   23.2370 C   0  0  0  0  0  0  0  0  0  0  0  0
  -27.1770  -27.1340   20.1870 C   0  0  0  0  0  0  0  0  0  0  0  0
  -23.4350  -30.5500   21.5930 C   0  0  0  0  0  3  0  0  0  0  0  0
  -24.8730  -28.9600   20.1620 C   0  0  0  0  0  0  0  0  0  0  0  0
  -25.9970  -30.7770   21.4370 C   0  0  0  0  0  2  0  0  0  0  0  0
  -26.0610  -29.3790   20.7740 C   0  0  0  0  0  0  0  0  0  0  0  0
  -27.2120  -28.4850   20.7630 C   0  0  0  0  0  3  0  0  0  0  0  0
  -25.9600  -26.8430   19.5330 C   0  0  0  0  0  3  0  0  0  0  0  0
  -24.8410  -27.7100   19.5250 C   0  0  0  0  0  3  0  0  0  0  0  0
  -23.6540  -29.8750   20.2140 C   0  0  0  0  0  2  0  0  0  0  0  0
  -24.7110  -31.1100   22.1430 N   0  0  0  0  0  0  0  0  0  0  0  0
  -23.5550  -32.2190   23.7650 O   0  0  0  0  0  0  0  0  0  0  0  0
  -22.7440  -29.5470   22.5540 C   0  0  0  0  0  0  0  0  0  0  0  0
  -21.4150  -29.3820   22.4250 N   0  0  0  0  0  0  0  0  0  0  0  0
  -23.4080  -28.9200   23.3820 O   0  0  0  0  0  0  0  0  0  0  0  0
  -20.9330  -29.9380   21.7330 H   0  0  0  0  0  0  0  0  0  0  0  0
  -18.0250  -28.1990   22.9340 C   0  0  0  0  0  0  0  0  0  0  0  0
  -20.5880  -28.4450   23.1920 C   0  0  0  0  0  3  0  0  0  0  0  0
  -20.6770  -27.0160   22.6060 C   0  0  0  0  0  2  0  0  0  0  0  0
  -19.5680  -26.7080   21.5940 C   0  0  0  0  0  2  0  0  0  0  0  0
  -18.1900  -26.8550   22.2450 C   0  0  0  0  0  2  0  0  0  0  0  0
  -19.1490  -28.9520   23.3640 C   0  0  0  0  0  0  0  0  0  0  0  0
  -18.9380  -30.2080   23.9720 C   0  0  0  0  0  3  0  0  0  0  0  0
  -17.6350  -30.7120   24.1520 C   0  0  0  0  0  3  0  0  0  0  0  0
  -16.5260  -29.9560   23.7370 C   0  0  0  0  0  3  0  0  0  0  0  0
  -16.7220  -28.7010   23.1330 C   0  0  0  0  0  3  0  0  0  0  0  0
  -25.9170  -32.5610   23.8710 C   0  0  0  0  0  3  0  0  0  0  0  0
  -25.6090  -33.9610   24.2090 N   0  0  0  0  0  0  0  0  0  0  0  0
  -25.9170  -35.0200   23.4490 C   0  0  0  0  0  0  0  0  0  0  0  0
  -26.5550  -34.9210   22.3970 O   0  0  0  0  0  0  0  0  0  0  0  0
  -25.0380  -34.1110   25.0290 H   0  0  0  0  0  0  0  0  0  0  0  0
  -24.1670  -36.8080   23.1760 C   0  0  0  0  0  1  0  0  0  0  0  0
  -25.4460  -36.4080   23.9280 C   0  0  0  0  0  3  0  0  0  0  0  0
  -27.6080  -37.3150   24.6650 C   0  0  0  0  0  1  0  0  0  0  0  0
  -26.4680  -37.4670   23.7650 N   0  0  0  0  0  0  0  0  0  0  0  0
  -26.0610  -38.3860   23.9180 H   0  0  0  0  0  0  0  0  0  0  0  0
  -26.4190  -31.7880   25.1540 C   0  0  1  0  0  0  0  0  0  0  0  0
  -25.3160  -31.5550   26.2140 C   0  0  0  0  0  1  0  0  0  0  0  0
  -27.0000  -30.4060   24.7730 C   0  0  0  0  0  1  0  0  0  0  0  0
  -27.5660  -32.5790   25.8250 C   0  0  0  0  0  1  0  0  0  0  0  0
  2  4  1  0
  4 17  1  0
  4  1  1  0
  5  3  1  6
  5  1  1  0
  6  2  1  6
  6  3  1  0
  6  7  1  0
  6  5  1  0
  7 47  1  0
  7  8  1  1
  7  5  1  0
  9 17  1  0
 10 15  1  0
 11 12  1  0
 11 10  1  0
 13 12  1  0
 13 22  1  0
 13 14  1  0
 15  9  1  0
 15 14  1  0
 16  9  2  0
 17 18  1  0
 19 20  2  0
 20 39  1  0
 21 20  1  0
 21 24  1  0
 22 23  1  0
 22 19  1  0
 23 21  2  0
 24 25  1  0
 25 26  2  0
 27 30  1  0
 27 26  1  0
 28 27  2  0
 29 28  1  0
 29 24  2  0
 30 31  1  0
 31 32  1  0
 32 33  2  0
 34 33  1  0
 34 38  1  0
 35 34  2  0
 36 31  2  0
 36 35  1  0
 37 36  1  0
 39 40  1  0
 40 43  1  0
 40 42  1  0
 41 39  2  0
 44 45  1  0
 44 19  1  0
 46 44  1  0
 48 49  1  0
 48 47  2  0
 50 61  2  0
 51 49  1  0
 51 56  1  0
 52 60  1  0
 52 62  1  0
 53 59  1  0
 53 55  1  0
 54 60  1  0
 55 54  1  0
 56 55  2  0
 57 51  2  0
 58 57  1  0
 58 53  2  0
 59 52  1  0
 60 50  1  0
 62 64  2  0
 63 62  1  0
 65 63  1  0
 66 75  2  0
 66 71  1  0
 67 63  1  0
 67 71  1  0
 68 67  1  0
 69 70  1  0
 69 68  1  0
 70 66  1  0
 71 72  2  0
 72 73  1  0
 74 73  2  0
 75 74  1  0
 76 50  1  0
 76 77  1  0
 76 86  1  0
 77 80  1  0
 78 82  1  0
 78 77  1  0
 79 78  2  0
 82 81  1  0
 84 85  1  0
 84 82  1  0
 84 83  1  0
 86 89  1  1
 86 87  1  0
 88 86  1  0
M  ISO  4   9 100  17 100  48 101  49 101
M  END
>  <TORSDO>  (81) 
F 18

>  <SCORE>  (81) 
-14.927

>  <name>  (81) 
81

>  <ligand_id>  (81) 
81

>  <original_smiles>  (81) 
[H]c1c([H])c([H])c2c(c1[H])C([H])([H])C([H])([H])C([H])([H])C2([H])N([H])C(=O)C1([H])N(C(=O)C([H])(N([H])C(=O)C([H])(N([H])C([H])([H])[H])C([H])([H])[H])C(C([H])([H])[H])(C([H])([H])[H])C([H])([H])[H])C([H])([H])c2c([H])c(OC([H])([H])C([H])([H])[N+]3([H])C4([H])C([H])([H])C([H])(N([H])C(=O)N5C([H])([H])C([H])([H])C([H])([H])C([H])(n6nc(-c7c([H])c([H])c(Oc8c([H])c([H])c(F)c([H])c8F)c([H])c7[H])c(C(=O)N([H])[H])c6N([H])[H])C5([H])[H])C([H])([H])C3([H])C4([H])[H])c([H])c([H])c2C1([H])[H]

>  <smiles>  (81) 
[H]c1c([H])c([H])c2c(c1[H])C([H])([H])C([H])([H])C([H])([H])C2([H])N([H])C(=O)C1([H])N(C(=O)C([H])(N([H])C(=O)C([H])(N([H])C([H])([H])[H])C([H])([H])[H])C(C([H])([H])[H])(C([H])([H])[H])C([H])([H])[H])C([H])([H])c2c([H])c(OC([H])([H])C([H])([H])[N+]3([H])C4([H])C([H])([H])C([H])(N([H])C(=O)N5C([H])([H])C([H])([H])C([H])([H])C([H])(n6nc(-c7c([H])c([H])c(Oc8c([H])c([H])c(F)c([H])c8F)c([H])c7[H])c(C(=O)N([H])[H])c6N([H])[H])C5([H])[H])C([H])([H])C3([H])C4([H])[H])c([H])c([H])c2C1([H])[H]

$$$$
82:0:0
     RDKit          3D

 89 98  0  0  1  0  0  0  0  0999 V2000
  -28.7030  -21.7720   19.7580 N   0  0  0  0  0  4  0  0  0  0  0  0
  -27.7380  -21.5930   19.9840 H   0  0  0  0  0  0  0  0  0  0  0  0
  -28.7370  -21.8090   18.7510 H   0  0  0  0  0  0  0  0  0  0  0  0
  -30.6870  -15.0500   19.7040 C   0  0  0  0  0  0  0  0  0  0  0  0
  -30.4400  -12.7130   18.7210 C   0  0  0  0  0  2  0  0  0  0  0  0
  -29.3780  -12.6680   17.5990 C   0  0  0  0  0  2  0  0  0  0  0  0
  -27.9760  -12.4300   18.1910 C   0  0  0  0  0  2  0  0  0  0  0  0
  -27.6990  -13.3250   19.4270 C   0  0  0  0  0  3  0  0  0  0  0  0
  -28.8770  -13.3190   20.4220 C   0  0  0  0  0  2  0  0  0  0  0  0
  -30.0530  -13.7970   19.6810 N   0  0  0  0  0  0  0  0  0  0  0  0
  -31.8400  -15.0620   19.2500 O   0  0  0  0  0  0  0  0  0  0  0  0
  -28.9130  -18.0790   21.5290 C   0  0  0  0  0  2  0  0  0  0  0  0
  -29.0030  -16.5910   20.9700 C   0  0  0  0  0  2  0  0  0  0  0  0
  -30.4900  -17.7100   19.3990 C   0  0  0  0  0  2  0  0  0  0  0  0
  -28.6280  -19.1880   20.4900 C   0  0  0  0  0  3  0  0  0  0  0  0
  -29.5430  -19.0570   19.3280 C   0  0  0  0  0  3  0  0  0  0  0  0
  -29.5040  -20.4540   20.1970 C   0  0  0  0  0  3  0  0  0  0  0  0
  -30.0140  -16.3160   19.9090 N   0  0  0  0  0  0  0  0  0  0  0  0
  -25.4390  -13.8700   20.4920 C   0  0  0  0  0  0  0  0  0  0  0  0
  -24.4180  -13.0790   20.9420 C   0  0  0  0  0  0  0  0  0  0  0  0
  -24.8520  -11.7310   20.7610 C   0  0  0  0  0  0  0  0  0  0  0  0
  -26.4300  -13.0020   20.0670 N   0  0  0  0  0  0  0  0  0  0  0  0
  -26.0940  -11.7050   20.2910 N   0  0  0  0  0  0  0  0  0  0  0  0
  -24.1310  -10.4650   20.9500 C   0  0  0  0  0  0  0  0  0  0  0  0
  -24.5980   -9.4740   21.8410 C   0  0  0  0  0  3  0  0  0  0  0  0
  -23.8740   -8.2760   22.0220 C   0  0  0  0  0  3  0  0  0  0  0  0
  -22.6690   -8.0610   21.3110 C   0  0  0  0  0  0  0  0  0  0  0  0
  -22.2210   -9.0400   20.4080 C   0  0  0  0  0  3  0  0  0  0  0  0
  -22.9450  -10.2300   20.2250 C   0  0  0  0  0  3  0  0  0  0  0  0
  -21.9130   -6.9170   21.4040 O   0  0  0  0  0  0  0  0  0  0  0  0
  -21.8200   -6.2080   22.5750 C   0  0  0  0  0  0  0  0  0  0  0  0
  -21.3250   -6.7920   23.7610 C   0  0  0  0  0  3  0  0  0  0  0  0
  -21.1820   -6.0090   24.9240 C   0  0  0  0  0  3  0  0  0  0  0  0
  -21.5230   -4.6430   24.9010 C   0  0  0  0  0  0  0  0  0  0  0  0
  -22.0100   -4.0590   23.7190 C   0  0  0  0  0  3  0  0  0  0  0  0
  -22.1550   -4.8390   22.5580 C   0  0  0  0  0  0  0  0  0  0  0  0
  -22.6060   -4.2660   21.4160 F   0  0  0  0  0  0  0  0  0  0  0  0
  -21.3770   -3.8890   26.0160 F   0  0  0  0  0  0  0  0  0  0  0  0
  -23.0740  -13.5510   21.4140 C   0  0  0  0  0  0  0  0  0  0  0  0
  -22.4530  -12.8130   22.3280 N   0  0  0  0  0  0  0  0  0  0  0  0
  -22.5890  -14.6070   21.0100 O   0  0  0  0  0  0  0  0  0  0  0  0
  -22.8620  -11.9590   22.6760 H   0  0  0  0  0  0  0  0  0  0  0  0
  -21.5560  -13.1080   22.6870 H   0  0  0  0  0  0  0  0  0  0  0  0
  -25.5930  -15.2480   20.3830 N   0  0  0  0  0  0  0  0  0  0  0  0
  -24.8450  -15.8900   20.6220 H   0  0  0  0  0  0  0  0  0  0  0  0
  -26.3810  -15.7030   19.9430 H   0  0  0  0  0  0  0  0  0  0  0  0
  -29.0010  -23.2590   20.2720 C   0  0  0  0  0  3  0  0  0  0  0  0
  -28.0470  -24.6200   19.8960 C   0  0  0  0  0  3  0  0  0  0  0  0
  -28.2630  -26.1340   20.2730 O   0  0  0  0  0  0  0  0  0  0  0  0
  -24.6070  -31.8120   23.2740 C   0  0  0  0  0  0  0  0  0  0  0  0
  -27.2170  -27.1320   20.1950 C   0  0  0  0  0  0  0  0  0  0  0  0
  -23.4270  -30.4400   21.6010 C   0  0  0  0  0  3  0  0  0  0  0  0
  -24.8910  -28.8900   20.1640 C   0  0  0  0  0  0  0  0  0  0  0  0
  -25.9820  -30.7070   21.4690 C   0  0  0  0  0  2  0  0  0  0  0  0
  -26.0650  -29.3230   20.7940 C   0  0  0  0  0  0  0  0  0  0  0  0
  -27.2270  -28.4610   20.7940 C   0  0  0  0  0  3  0  0  0  0  0  0
  -26.0200  -26.8110   19.5180 C   0  0  0  0  0  3  0  0  0  0  0  0
  -24.8830  -27.6490   19.5100 C   0  0  0  0  0  3  0  0  0  0  0  0
  -23.6630  -29.7870   20.2140 C   0  0  0  0  0  2  0  0  0  0  0  0
  -24.6910  -31.0070   22.1690 N   0  0  0  0  0  0  0  0  0  0  0  0
  -23.5150  -32.0860   23.7940 O   0  0  0  0  0  0  0  0  0  0  0  0
  -22.7400  -29.4160   22.5400 C   0  0  0  0  0  0  0  0  0  0  0  0
  -21.4140  -29.2450   22.3970 N   0  0  0  0  0  0  0  0  0  0  0  0
  -23.4040  -28.7800   23.3630 O   0  0  0  0  0  0  0  0  0  0  0  0
  -20.9340  -29.8100   21.7110 H   0  0  0  0  0  0  0  0  0  0  0  0
  -18.0270  -28.0450   22.8630 C   0  0  0  0  0  0  0  0  0  0  0  0
  -20.5860  -28.2960   23.1460 C   0  0  0  0  0  3  0  0  0  0  0  0
  -20.6860  -26.8740   22.5440 C   0  0  0  0  0  2  0  0  0  0  0  0
  -19.5870  -26.5740   21.5190 C   0  0  0  0  0  2  0  0  0  0  0  0
  -18.2040  -26.7100   22.1600 C   0  0  0  0  0  2  0  0  0  0  0  0
  -19.1460  -28.7960   23.3130 C   0  0  0  0  0  0  0  0  0  0  0  0
  -18.9260  -30.0460   23.9330 C   0  0  0  0  0  3  0  0  0  0  0  0
  -17.6210  -30.5430   24.1060 C   0  0  0  0  0  3  0  0  0  0  0  0
  -16.5170  -29.7900   23.6720 C   0  0  0  0  0  3  0  0  0  0  0  0
  -16.7220  -28.5410   23.0560 C   0  0  0  0  0  3  0  0  0  0  0  0
  -25.8750  -32.4420   23.9240 C   0  0  0  0  0  3  0  0  0  0  0  0
  -25.5680  -33.8470   24.2350 N   0  0  0  0  0  0  0  0  0  0  0  0
  -25.9020  -34.8920   23.4650 C   0  0  0  0  0  0  0  0  0  0  0  0
  -26.5660  -34.7750   22.4310 O   0  0  0  0  0  0  0  0  0  0  0  0
  -24.9780  -34.0120   25.0360 H   0  0  0  0  0  0  0  0  0  0  0  0
  -24.1670  -36.6830   23.1210 C   0  0  0  0  0  1  0  0  0  0  0  0
  -25.4260  -36.2890   23.9110 C   0  0  0  0  0  3  0  0  0  0  0  0
  -27.5740  -37.1950   24.6860 C   0  0  0  0  0  1  0  0  0  0  0  0
  -26.4550  -37.3410   23.7570 N   0  0  0  0  0  0  0  0  0  0  0  0
  -26.0510  -38.2630   23.8900 H   0  0  0  0  0  0  0  0  0  0  0  0
  -26.3470  -31.6830   25.2250 C   0  0  1  0  0  0  0  0  0  0  0  0
  -25.2210  -31.4680   26.2640 C   0  0  0  0  0  1  0  0  0  0  0  0
  -26.9290  -30.2940   24.8720 C   0  0  0  0  0  1  0  0  0  0  0  0
  -27.4850  -32.4760   25.9110 C   0  0  0  0  0  1  0  0  0  0  0  0
  1  2  1  0
  1 47  1  0
  3  1  1  0
  4 18  1  0
  5 10  1  0
  6  7  1  0
  6  5  1  0
  8  7  1  0
  8 22  1  0
  8  9  1  0
 10  4  1  0
 10  9  1  0
 11  4  2  0
 13 12  1  0
 14 18  1  0
 15 12  1  0
 16 14  1  0
 16 17  1  0
 16 15  1  0
 17  1  1  0
 17 15  1  0
 18 13  1  0
 19 20  2  0
 20 39  1  0
 21 20  1  0
 21 24  1  0
 22 23  1  0
 22 19  1  0
 23 21  2  0
 24 25  1  0
 25 26  2  0
 27 30  1  0
 27 26  1  0
 28 27  2  0
 29 28  1  0
 29 24  2  0
 30 31  1  0
 31 32  1  0
 32 33  2  0
 34 33  1  0
 34 38  1  0
 35 34  2  0
 36 31  2  0
 36 35  1  0
 37 36  1  0
 39 40  1  0
 40 42  1  0
 40 43  1  0
 41 39  2  0
 44 19  1  0
 44 45  1  0
 46 44  1  0
 48 47  2  0
 48 49  1  0
 50 61  2  0
 51 49  1  0
 51 56  1  0
 52 60  1  0
 52 62  1  0
 53 59  1  0
 53 55  1  0
 54 60  1  0
 55 56  2  0
 55 54  1  0
 57 51  2  0
 58 57  1  0
 58 53  2  0
 59 52  1  0
 60 50  1  0
 62 64  2  0
 63 62  1  0
 65 63  1  0
 66 75  2  0
 66 71  1  0
 67 63  1  0
 67 71  1  0
 68 67  1  0
 69 70  1  0
 69 68  1  0
 70 66  1  0
 71 72  2  0
 72 73  1  0
 74 73  2  0
 75 74  1  0
 76 50  1  0
 76 77  1  0
 76 86  1  0
 77 80  1  0
 78 82  1  0
 78 77  1  0
 79 78  2  0
 82 81  1  0
 84 85  1  0
 84 82  1  0
 84 83  1  0
 86 89  1  1
 86 87  1  0
 88 86  1  0
M  ISO  4   4 100  18 100  48 101  49 101
M  END
>  <TORSDO>  (82) 
F 18

>  <SCORE>  (82) 
-13.759

>  <name>  (82) 
82

>  <ligand_id>  (82) 
82

>  <original_smiles>  (82) 
[H]c1c([H])c([H])c2c(c1[H])C([H])([H])C([H])([H])C([H])([H])C2([H])N([H])C(=O)C1([H])N(C(=O)C([H])(N([H])C(=O)C([H])(N([H])C([H])([H])[H])C([H])([H])[H])C(C([H])([H])[H])(C([H])([H])[H])C([H])([H])[H])C([H])([H])c2c([H])c(OC([H])([H])C([H])([H])[N+]([H])([H])C3([H])C4([H])C([H])([H])N(C(=O)N5C([H])([H])C([H])([H])C([H])([H])C([H])(n6nc(-c7c([H])c([H])c(Oc8c([H])c([H])c(F)c([H])c8F)c([H])c7[H])c(C(=O)N([H])[H])c6N([H])[H])C5([H])[H])C([H])([H])C([H])([H])C43[H])c([H])c([H])c2C1([H])[H]

>  <smiles>  (82) 
[H]c1c([H])c([H])c2c(c1[H])C([H])([H])C([H])([H])C([H])([H])C2([H])N([H])C(=O)C1([H])N(C(=O)C([H])(N([H])C(=O)C([H])(N([H])C([H])([H])[H])C([H])([H])[H])C(C([H])([H])[H])(C([H])([H])[H])C([H])([H])[H])C([H])([H])c2c([H])c(OC([H])([H])C([H])([H])[N+]([H])([H])C3([H])C4([H])C([H])([H])N(C(=O)N5C([H])([H])C([H])([H])C([H])([H])C([H])(n6nc(-c7c([H])c([H])c(Oc8c([H])c([H])c(F)c([H])c8F)c([H])c7[H])c(C(=O)N([H])[H])c6N([H])[H])C5([H])[H])C([H])([H])C([H])([H])C43[H])c([H])c([H])c2C1([H])[H]

$$$$
83:0:0
     RDKit          3D

 91100  0  0  1  0  0  0  0  0999 V2000
  -27.7640  -19.8760   20.4980 C   0  0  0  0  0  2  0  0  0  0  0  0
  -29.4420  -19.0560   18.8610 C   0  0  0  0  0  2  0  0  0  0  0  0
  -29.7350  -20.6900   21.0930 C   0  0  0  0  0  2  0  0  0  0  0  0
  -29.0130  -19.1830   21.0730 C   0  0  0  0  0  3  0  0  0  0  0  0
  -28.5360  -20.4040   19.2790 C   0  0  0  0  0  3  0  0  0  0  0  0
  -29.2850  -17.9180   19.9870 C   0  0  2  0  0  0  0  0  0  0  0  0
  -29.2370  -21.5930   19.9400 N   0  0  1  0  0  4  0  0  0  0  0  0
  -30.0500  -21.8140   19.3820 H   0  0  0  0  0  0  0  0  0  0  0  0
  -30.5830  -15.2370   19.6050 C   0  0  0  0  0  0  0  0  0  0  0  0
  -30.3850  -12.8290   18.6790 C   0  0  0  0  0  2  0  0  0  0  0  0
  -29.3400  -12.7270   17.5350 C   0  0  0  0  0  2  0  0  0  0  0  0
  -27.9340  -12.4690   18.1020 C   0  0  0  0  0  2  0  0  0  0  0  0
  -27.6280  -13.3910   19.3050 C   0  0  0  0  0  3  0  0  0  0  0  0
  -28.7920  -13.4620   20.3300 C   0  0  0  0  0  2  0  0  0  0  0  0
  -29.9990  -13.9380   19.6300 N   0  0  0  0  0  0  0  0  0  0  0  0
  -31.6660  -15.2820   19.0080 O   0  0  0  0  0  0  0  0  0  0  0  0
  -30.0290  -16.4440   20.2280 N   0  0  0  0  0  0  0  0  0  0  0  0
  -29.5450  -16.0740   21.0350 H   0  0  0  0  0  0  0  0  0  0  0  0
  -25.3240  -13.9610   20.2710 C   0  0  0  0  0  0  0  0  0  0  0  0
  -24.3100  -13.1950   20.7630 C   0  0  0  0  0  0  0  0  0  0  0  0
  -24.7500  -11.8430   20.6400 C   0  0  0  0  0  0  0  0  0  0  0  0
  -26.3430  -13.0880   19.9280 N   0  0  0  0  0  0  0  0  0  0  0  0
  -26.0050  -11.8010   20.2000 N   0  0  0  0  0  0  0  0  0  0  0  0
  -24.0180  -10.5920   20.8560 C   0  0  0  0  0  0  0  0  0  0  0  0
  -24.4660   -9.6240   21.7790 C   0  0  0  0  0  3  0  0  0  0  0  0
  -23.7290   -8.4380   21.9830 C   0  0  0  0  0  3  0  0  0  0  0  0
  -22.5310   -8.2140   21.2630 C   0  0  0  0  0  0  0  0  0  0  0  0
  -22.1020   -9.1720   20.3280 C   0  0  0  0  0  3  0  0  0  0  0  0
  -22.8390  -10.3500   20.1230 C   0  0  0  0  0  3  0  0  0  0  0  0
  -21.7630   -7.0820   21.3790 O   0  0  0  0  0  0  0  0  0  0  0  0
  -21.6610   -6.4010   22.5660 C   0  0  0  0  0  0  0  0  0  0  0  0
  -21.1860   -7.0210   23.7420 C   0  0  0  0  0  3  0  0  0  0  0  0
  -21.0310   -6.2660   24.9220 C   0  0  0  0  0  3  0  0  0  0  0  0
  -21.3410   -4.8940   24.9260 C   0  0  0  0  0  0  0  0  0  0  0  0
  -21.8100   -4.2740   23.7550 C   0  0  0  0  0  3  0  0  0  0  0  0
  -21.9670   -5.0260   22.5780 C   0  0  0  0  0  0  0  0  0  0  0  0
  -22.3980   -4.4180   21.4460 F   0  0  0  0  0  0  0  0  0  0  0  0
  -21.1860   -4.1670   26.0570 F   0  0  0  0  0  0  0  0  0  0  0  0
  -22.9650  -13.6920   21.2060 C   0  0  0  0  0  0  0  0  0  0  0  0
  -22.3240  -12.9820   22.1260 N   0  0  0  0  0  0  0  0  0  0  0  0
  -22.4990  -14.7470   20.7780 O   0  0  0  0  0  0  0  0  0  0  0  0
  -22.7170  -12.1290   22.4950 H   0  0  0  0  0  0  0  0  0  0  0  0
  -21.4260  -13.2970   22.4660 H   0  0  0  0  0  0  0  0  0  0  0  0
  -25.4200  -15.3230   20.0510 N   0  0  0  0  0  0  0  0  0  0  0  0
  -24.6540  -15.9490   20.2700 H   0  0  0  0  0  0  0  0  0  0  0  0
  -26.2390  -15.8020   19.7030 H   0  0  0  0  0  0  0  0  0  0  0  0
  -27.3840  -16.5880   21.1130 C   0  0  0  0  0  1  0  0  0  0  0  0
  -27.9210  -17.1920   19.7820 C   0  0  0  0  0  2  0  0  0  0  0  0
  -28.3670  -23.0040   20.0070 C   0  0  0  0  0  2  0  0  0  0  0  0
  -28.6550  -24.5930   20.6770 C   0  0  0  0  0  2  0  0  0  0  0  0
  -28.4430  -26.1350   20.2250 O   0  0  0  0  0  0  0  0  0  0  0  0
  -24.4700  -31.7940   23.1530 C   0  0  0  0  0  0  0  0  0  0  0  0
  -27.3040  -27.0590   20.2740 C   0  0  0  0  0  0  0  0  0  0  0  0
  -23.3670  -30.3380   21.4990 C   0  0  0  0  0  3  0  0  0  0  0  0
  -24.9100  -28.7750   20.1470 C   0  0  0  0  0  0  0  0  0  0  0  0
  -25.9190  -30.6720   21.4020 C   0  0  0  0  0  2  0  0  0  0  0  0
  -26.0620  -29.2620   20.7770 C   0  0  0  0  0  0  0  0  0  0  0  0
  -27.2560  -28.4280   20.8080 C   0  0  0  0  0  3  0  0  0  0  0  0
  -26.1140  -26.6890   19.6080 C   0  0  0  0  0  3  0  0  0  0  0  0
  -24.9540  -27.5050   19.5460 C   0  0  0  0  0  3  0  0  0  0  0  0
  -23.6540  -29.6390   20.1420 C   0  0  0  0  0  2  0  0  0  0  0  0
  -24.6040  -30.9610   22.0730 N   0  0  0  0  0  0  0  0  0  0  0  0
  -23.3610  -32.0450   23.6500 O   0  0  0  0  0  0  0  0  0  0  0  0
  -22.6910  -29.3260   22.4610 C   0  0  0  0  0  0  0  0  0  0  0  0
  -21.3720  -29.1120   22.3050 N   0  0  0  0  0  0  0  0  0  0  0  0
  -23.3610  -28.7340   23.3100 O   0  0  0  0  0  0  0  0  0  0  0  0
  -20.8840  -29.6480   21.6010 H   0  0  0  0  0  0  0  0  0  0  0  0
  -18.0280  -27.7840   22.7370 C   0  0  0  0  0  0  0  0  0  0  0  0
  -20.5680  -28.1480   23.0590 C   0  0  0  0  0  3  0  0  0  0  0  0
  -20.7380  -26.7170   22.4960 C   0  0  0  0  0  2  0  0  0  0  0  0
  -19.6720  -26.3440   21.4600 C   0  0  0  0  0  2  0  0  0  0  0  0
  -18.2700  -26.4410   22.0680 C   0  0  0  0  0  2  0  0  0  0  0  0
  -19.1050  -28.5920   23.1870 C   0  0  0  0  0  0  0  0  0  0  0  0
  -18.8230  -29.8460   23.7700 C   0  0  0  0  0  3  0  0  0  0  0  0
  -17.4960  -30.2940   23.9080 C   0  0  0  0  0  3  0  0  0  0  0  0
  -16.4330  -29.4830   23.4740 C   0  0  0  0  0  3  0  0  0  0  0  0
  -16.7000  -28.2300   22.8940 C   0  0  0  0  0  3  0  0  0  0  0  0
  -25.7040  -32.4850   23.8100 C   0  0  0  0  0  3  0  0  0  0  0  0
  -26.1970  -31.7570   25.1220 C   0  0  1  0  0  0  0  0  0  0  0  0
  -25.0730  -31.5000   26.1530 C   0  0  0  0  0  1  0  0  0  0  0  0
  -26.8450  -30.3930   24.7870 C   0  0  0  0  0  1  0  0  0  0  0  0
  -27.2920  -32.6050   25.8110 C   0  0  0  0  0  1  0  0  0  0  0  0
  -25.3350  -33.8780   24.1100 N   0  0  0  0  0  0  0  0  0  0  0  0
  -25.6440  -34.9350   23.3470 C   0  0  0  0  0  0  0  0  0  0  0  0
  -26.3340  -34.8410   22.3300 O   0  0  0  0  0  0  0  0  0  0  0  0
  -24.7190  -34.0210   24.8970 H   0  0  0  0  0  0  0  0  0  0  0  0
  -23.8560  -36.6630   22.9570 C   0  0  0  0  0  1  0  0  0  0  0  0
  -25.1050  -36.3140   23.7810 C   0  0  0  0  0  3  0  0  0  0  0  0
  -27.1990  -37.2910   24.6140 C   0  0  0  0  0  1  0  0  0  0  0  0
  -26.1010  -37.4010   23.6570 N   0  0  0  0  0  0  0  0  0  0  0  0
  -25.6600  -38.3080   23.7830 H   0  0  0  0  0  0  0  0  0  0  0  0
  2  6  1  0
  4  1  1  0
  4  3  1  0
  5  2  1  0
  5  7  1  0
  5  1  1  0
  6 48  1  6
  6 17  1  0
  6  4  1  0
  7 49  1  0
  7  3  1  0
  7  8  1  6
  9 15  1  0
  9 17  1  0
 10 15  1  0
 11 12  1  0
 11 10  1  0
 13 12  1  0
 13 22  1  0
 13 14  1  0
 15 14  1  0
 16  9  2  0
 17 18  1  0
 19 20  2  0
 20 39  1  0
 21 20  1  0
 21 24  1  0
 22 23  1  0
 22 19  1  0
 23 21  2  0
 24 25  1  0
 25 26  2  0
 27 30  1  0
 27 26  1  0
 28 27  2  0
 29 28  1  0
 29 24  2  0
 30 31  1  0
 31 36  2  0
 31 32  1  0
 32 33  2  0
 33 34  1  0
 34 38  1  0
 35 34  2  0
 36 35  1  0
 37 36  1  0
 39 40  1  0
 40 43  1  0
 40 42  1  0
 41 39  2  0
 44 45  1  0
 44 19  1  0
 46 44  1  0
 48 47  1  0
 49 50  1  0
 51 53  1  0
 51 50  1  0
 52 63  2  0
 53 58  1  0
 54 62  1  0
 54 64  1  0
 55 57  1  0
 56 62  1  0
 57 58  2  0
 57 56  1  0
 59 53  2  0
 60 59  1  0
 60 55  2  0
 61 55  1  0
 61 54  1  0
 62 52  1  0
 64 66  2  0
 65 64  1  0
 67 65  1  0
 68 77  2  0
 68 73  1  0
 69 65  1  0
 69 73  1  0
 70 69  1  0
 71 72  1  0
 71 70  1  0
 72 68  1  0
 73 74  2  0
 74 75  1  0
 76 75  2  0
 77 76  1  0
 78 52  1  0
 78 83  1  0
 78 79  1  0
 79 82  1  1
 79 80  1  0
 81 79  1  0
 83 86  1  0
 84 88  1  0
 84 83  1  0
 85 84  2  0
 88 87  1  0
 90 88  1  0
 90 91  1  0
 90 89  1  0
M  ISO  4   9 100  17 100  50 101  51 101
M  END
>  <TORSDO>  (83) 
F 19

>  <SCORE>  (83) 
-12.912

>  <name>  (83) 
83

>  <ligand_id>  (83) 
83

>  <original_smiles>  (83) 
[H]c1c([H])c([H])c2c(c1[H])C([H])([H])C([H])([H])C([H])([H])C2([H])N([H])C(=O)C1([H])N(C(=O)C([H])(N([H])C(=O)C([H])(N([H])C([H])([H])[H])C([H])([H])[H])C(C([H])([H])[H])(C([H])([H])[H])C([H])([H])[H])C([H])([H])c2c([H])c(OC([H])([H])C([H])([H])[N+]3([H])C([H])([H])C4([H])C([H])([H])C3([H])C([H])([H])C4(N([H])C(=O)N3C([H])([H])C([H])([H])C([H])([H])C([H])(n4nc(-c5c([H])c([H])c(Oc6c([H])c([H])c(F)c([H])c6F)c([H])c5[H])c(C(=O)N([H])[H])c4N([H])[H])C3([H])[H])C([H])([H])C([H])([H])[H])c([H])c([H])c2C1([H])[H]

>  <smiles>  (83) 
[H]c1c([H])c([H])c2c(c1[H])C([H])([H])C([H])([H])C([H])([H])C2([H])N([H])C(=O)C1([H])N(C(=O)C([H])(N([H])C(=O)C([H])(N([H])C([H])([H])[H])C([H])([H])[H])C(C([H])([H])[H])(C([H])([H])[H])C([H])([H])[H])C([H])([H])c2c([H])c(OC([H])([H])C([H])([H])[N+]3([H])C([H])([H])C4([H])C([H])([H])C3([H])C([H])([H])C4(N([H])C(=O)N3C([H])([H])C([H])([H])C([H])([H])C([H])(n4nc(-c5c([H])c([H])c(Oc6c([H])c([H])c(F)c([H])c6F)c([H])c5[H])c(C(=O)N([H])[H])c4N([H])[H])C3([H])[H])C([H])([H])C([H])([H])[H])c([H])c([H])c2C1([H])[H]

$$$$
84:0:0
     RDKit          3D

 93102  0  0  1  0  0  0  0  0999 V2000
  -28.6330  -21.4220   20.8090 N   0  0  0  0  0  4  0  0  0  0  0  0
  -27.8550  -21.3010   20.1800 H   0  0  0  0  0  0  0  0  0  0  0  0
  -29.4340  -21.6700   20.2530 H   0  0  0  0  0  0  0  0  0  0  0  0
  -28.9530  -20.1300   21.4620 C   0  0  0  0  0  2  0  0  0  0  0  0
  -30.7820  -14.4750   20.1080 C   0  0  0  0  0  0  0  0  0  0  0  0
  -30.3550  -12.3790   18.8910 C   0  0  0  0  0  2  0  0  0  0  0  0
  -29.3520  -12.6470   17.7520 C   0  0  0  0  0  2  0  0  0  0  0  0
  -27.9050  -12.5060   18.2620 C   0  0  0  0  0  2  0  0  0  0  0  0
  -27.6520  -13.2970   19.5740 C   0  0  0  0  0  3  0  0  0  0  0  0
  -28.7670  -13.0300   20.6080 C   0  0  0  0  0  2  0  0  0  0  0  0
  -30.0570  -13.3330   19.9710 N   0  0  0  0  0  0  0  0  0  0  0  0
  -31.8760  -14.6260   19.5500 O   0  0  0  0  0  0  0  0  0  0  0  0
  -28.8880  -18.6490   19.3250 C   0  0  0  0  0  2  0  0  0  0  0  0
  -29.1700  -17.3620   19.0600 C   0  0  0  0  0  2  0  0  0  0  0  0
  -30.1450  -17.3210   22.2200 C   0  0  0  0  0  3  0  0  0  0  0  0
  -30.1980  -17.8750   21.0160 C   0  0  0  0  0  3  0  0  0  0  0  0
  -30.2070  -15.8160   22.0900 C   0  0  0  0  0  3  0  0  0  0  0  0
  -29.7050  -19.2050   20.4820 C   0  0  0  0  0  3  0  0  0  0  0  0
  -30.2830  -16.8480   19.9420 C   0  0  0  0  0  3  0  0  0  0  0  0
  -30.1350  -15.5450   20.6290 N   0  0  0  0  0  0  0  0  0  0  0  0
  -25.3060  -13.8870   20.4520 C   0  0  0  0  0  0  0  0  0  0  0  0
  -24.2560  -13.1040   20.8520 C   0  0  0  0  0  0  0  0  0  0  0  0
  -24.7050  -11.7520   20.7390 C   0  0  0  0  0  0  0  0  0  0  0  0
  -26.3290  -13.0100   20.1220 N   0  0  0  0  0  0  0  0  0  0  0  0
  -25.9730  -11.7190   20.3500 N   0  0  0  0  0  0  0  0  0  0  0  0
  -23.9820  -10.4870   20.9210 C   0  0  0  0  0  0  0  0  0  0  0  0
  -24.4580   -9.4830   21.7940 C   0  0  0  0  0  3  0  0  0  0  0  0
  -23.7360   -8.2830   21.9660 C   0  0  0  0  0  3  0  0  0  0  0  0
  -22.5230   -8.0770   21.2670 C   0  0  0  0  0  0  0  0  0  0  0  0
  -22.0670   -9.0700   20.3810 C   0  0  0  0  0  3  0  0  0  0  0  0
  -22.7890  -10.2620   20.2060 C   0  0  0  0  0  3  0  0  0  0  0  0
  -21.7690   -6.9330   21.3510 O   0  0  0  0  0  0  0  0  0  0  0  0
  -21.7640   -6.1560   22.4820 C   0  0  0  0  0  0  0  0  0  0  0  0
  -21.4150   -6.6800   23.7450 C   0  0  0  0  0  3  0  0  0  0  0  0
  -21.3560   -5.8310   24.8690 C   0  0  0  0  0  3  0  0  0  0  0  0
  -21.6350   -4.4580   24.7300 C   0  0  0  0  0  0  0  0  0  0  0  0
  -21.9780   -3.9330   23.4710 C   0  0  0  0  0  3  0  0  0  0  0  0
  -22.0390   -4.7790   22.3500 C   0  0  0  0  0  0  0  0  0  0  0  0
  -22.3480   -4.2640   21.1360 F   0  0  0  0  0  0  0  0  0  0  0  0
  -21.5720   -3.6410   25.8060 F   0  0  0  0  0  0  0  0  0  0  0  0
  -22.8820  -13.5760   21.2310 C   0  0  0  0  0  0  0  0  0  0  0  0
  -22.2100  -12.8560   22.1230 N   0  0  0  0  0  0  0  0  0  0  0  0
  -22.4150  -14.6190   20.7730 O   0  0  0  0  0  0  0  0  0  0  0  0
  -22.6020  -12.0120   22.5140 H   0  0  0  0  0  0  0  0  0  0  0  0
  -21.2920  -13.1530   22.4190 H   0  0  0  0  0  0  0  0  0  0  0  0
  -25.4720  -15.2610   20.3230 N   0  0  0  0  0  0  0  0  0  0  0  0
  -24.7240  -15.9190   20.5150 H   0  0  0  0  0  0  0  0  0  0  0  0
  -26.3210  -15.7090   20.0010 H   0  0  0  0  0  0  0  0  0  0  0  0
  -28.3690  -22.5600   21.7180 C   0  0  0  0  0  2  0  0  0  0  0  0
  -28.6570  -23.9070   21.0200 C   0  0  0  0  0  2  0  0  0  0  0  0
  -28.4760  -25.1350   21.9340 C   0  0  0  0  0  2  0  0  0  0  0  0
  -29.0660  -26.4260   21.3350 C   0  0  0  0  0  2  0  0  0  0  0  0
  -28.4480  -26.7380   20.0890 O   0  0  0  0  0  0  0  0  0  0  0  0
  -24.6500  -31.9020   23.2200 C   0  0  0  0  0  0  0  0  0  0  0  0
  -27.2910  -27.4750   20.1550 C   0  0  0  0  0  0  0  0  0  0  0  0
  -23.4310  -30.4780   21.6030 C   0  0  0  0  0  3  0  0  0  0  0  0
  -24.8780  -28.9370   20.1780 C   0  0  0  0  0  0  0  0  0  0  0  0
  -25.9460  -30.8610   21.3670 C   0  0  0  0  0  2  0  0  0  0  0  0
  -26.0340  -29.4820   20.7500 C   0  0  0  0  0  0  0  0  0  0  0  0
  -27.2430  -28.7580   20.7430 C   0  0  0  0  0  3  0  0  0  0  0  0
  -26.1270  -26.9390   19.5690 C   0  0  0  0  0  3  0  0  0  0  0  0
  -24.9180  -27.6600   19.5870 C   0  0  0  0  0  3  0  0  0  0  0  0
  -23.6270  -29.7820   20.2280 C   0  0  0  0  0  2  0  0  0  0  0  0
  -24.6940  -31.0960   22.1220 N   0  0  0  0  0  0  0  0  0  0  0  0
  -23.5760  -32.1720   23.7730 O   0  0  0  0  0  0  0  0  0  0  0  0
  -22.8000  -29.4620   22.5820 C   0  0  0  0  0  0  0  0  0  0  0  0
  -21.4750  -29.2700   22.4710 N   0  0  0  0  0  0  0  0  0  0  0  0
  -23.4970  -28.8480   23.3930 O   0  0  0  0  0  0  0  0  0  0  0  0
  -20.9750  -29.8170   21.7840 H   0  0  0  0  0  0  0  0  0  0  0  0
  -18.1160  -28.0580   23.0070 C   0  0  0  0  0  0  0  0  0  0  0  0
  -20.6730  -28.3350   23.2580 C   0  0  0  0  0  3  0  0  0  0  0  0
  -20.7820  -26.9000   22.6960 C   0  0  0  0  0  2  0  0  0  0  0  0
  -19.6750  -26.5580   21.6930 C   0  0  0  0  0  2  0  0  0  0  0  0
  -18.2970  -26.7020   22.3460 C   0  0  0  0  0  2  0  0  0  0  0  0
  -19.2320  -28.8320   23.4210 C   0  0  0  0  0  0  0  0  0  0  0  0
  -19.0100  -30.1000   23.9980 C   0  0  0  0  0  3  0  0  0  0  0  0
  -17.7030  -30.5960   24.1660 C   0  0  0  0  0  3  0  0  0  0  0  0
  -16.6010  -29.8190   23.7690 C   0  0  0  0  0  3  0  0  0  0  0  0
  -16.8090  -28.5520   23.1950 C   0  0  0  0  0  3  0  0  0  0  0  0
  -25.9420  -32.5440   23.8180 C   0  0  0  0  0  3  0  0  0  0  0  0
  -25.6290  -33.9370   24.1550 N   0  0  0  0  0  0  0  0  0  0  0  0
  -25.9430  -34.9920   23.3910 C   0  0  0  0  0  0  0  0  0  0  0  0
  -26.6000  -34.8950   22.3510 O   0  0  0  0  0  0  0  0  0  0  0  0
  -25.0440  -34.0870   24.9640 H   0  0  0  0  0  0  0  0  0  0  0  0
  -24.1940  -36.7690   23.0590 C   0  0  0  0  0  1  0  0  0  0  0  0
  -25.4490  -36.3760   23.8540 C   0  0  0  0  0  3  0  0  0  0  0  0
  -27.5890  -37.2760   24.6520 C   0  0  0  0  0  1  0  0  0  0  0  0
  -26.4710  -37.4380   23.7270 N   0  0  0  0  0  0  0  0  0  0  0  0
  -26.0600  -38.3540   23.8840 H   0  0  0  0  0  0  0  0  0  0  0  0
  -26.4930  -31.7720   25.0800 C   0  0  1  0  0  0  0  0  0  0  0  0
  -25.4250  -31.5200   26.1690 C   0  0  0  0  0  1  0  0  0  0  0  0
  -27.0800  -30.4020   24.6670 C   0  0  0  0  0  1  0  0  0  0  0  0
  -27.6510  -32.5740   25.7220 C   0  0  0  0  0  1  0  0  0  0  0  0
  1  4  1  0
  1 49  1  0
  2  1  1  0
  3  1  1  0
  5 20  1  0
  6 11  1  0
  7  8  1  0
  7  6  1  0
  9  8  1  0
  9 24  1  0
  9 10  1  0
 11  5  1  0
 11 10  1  0
 12  5  2  0
 13 18  1  0
 14 13  1  0
 16 15  1  0
 17 15  2  0
 18 16  1  0
 18  4  1  0
 19 14  1  0
 19 20  1  0
 19 16  1  0
 20 17  1  0
 21 22  2  0
 22 41  1  0
 23 22  1  0
 23 26  1  0
 24 25  1  0
 24 21  1  0
 25 23  2  0
 26 27  1  0
 27 28  2  0
 29 32  1  0
 29 28  1  0
 30 29  2  0
 31 30  1  0
 31 26  2  0
 32 33  1  0
 33 34  1  0
 34 35  2  0
 36 35  1  0
 36 40  1  0
 37 36  2  0
 38 33  2  0
 38 37  1  0
 39 38  1  0
 41 42  1  0
 42 45  1  0
 42 44  1  0
 43 41  2  0
 46 21  1  0
 46 47  1  0
 48 46  1  0
 50 49  1  0
 50 51  1  0
 52 51  1  0
 53 55  1  0
 53 52  1  0
 54 65  2  0
 55 60  1  0
 56 64  1  0
 56 66  1  0
 57 63  1  0
 57 59  1  0
 58 64  1  0
 59 58  1  0
 60 59  2  0
 61 62  1  0
 61 55  2  0
 62 57  2  0
 63 56  1  0
 64 54  1  0
 66 68  2  0
 67 66  1  0
 69 67  1  0
 70 79  2  0
 70 75  1  0
 71 67  1  0
 71 75  1  0
 72 71  1  0
 73 74  1  0
 73 72  1  0
 74 70  1  0
 75 76  2  0
 76 77  1  0
 78 77  2  0
 79 78  1  0
 80 54  1  0
 80 81  1  0
 80 90  1  0
 81 84  1  0
 82 86  1  0
 82 81  1  0
 83 82  2  0
 86 85  1  0
 88 86  1  0
 88 89  1  0
 88 87  1  0
 90 93  1  1
 90 91  1  0
 92 90  1  0
M  ISO  4   5 100  20 100  52 101  53 101
M  END
>  <TORSDO>  (84) 
F 21

>  <SCORE>  (84) 
-12.692

>  <name>  (84) 
84

>  <ligand_id>  (84) 
84

>  <original_smiles>  (84) 
[H]C1=C2C([H])(C([H])=C([H])C2([H])C([H])([H])[N+]([H])([H])C([H])([H])C([H])([H])C([H])([H])C([H])([H])Oc2c([H])c([H])c3c(c2[H])C([H])([H])N(C(=O)C([H])(N([H])C(=O)C([H])(N([H])C([H])([H])[H])C([H])([H])[H])C(C([H])([H])[H])(C([H])([H])[H])C([H])([H])[H])C([H])(C(=O)N([H])C2([H])c4c([H])c([H])c([H])c([H])c4C([H])([H])C([H])([H])C2([H])[H])C3([H])[H])N(C(=O)N2C([H])([H])C([H])([H])C([H])([H])C([H])(n3nc(-c4c([H])c([H])c(Oc5c([H])c([H])c(F)c([H])c5F)c([H])c4[H])c(C(=O)N([H])[H])c3N([H])[H])C2([H])[H])C1([H])[H]

>  <smiles>  (84) 
[H]C1=C2C([H])(C([H])=C([H])C2([H])C([H])([H])[N+]([H])([H])C([H])([H])C([H])([H])C([H])([H])C([H])([H])Oc2c([H])c([H])c3c(c2[H])C([H])([H])N(C(=O)C([H])(N([H])C(=O)C([H])(N([H])C([H])([H])[H])C([H])([H])[H])C(C([H])([H])[H])(C([H])([H])[H])C([H])([H])[H])C([H])(C(=O)N([H])C2([H])c4c([H])c([H])c([H])c([H])c4C([H])([H])C([H])([H])C2([H])[H])C3([H])[H])N(C(=O)N2C([H])([H])C([H])([H])C([H])([H])C([H])(n3nc(-c4c([H])c([H])c(Oc5c([H])c([H])c(F)c([H])c5F)c([H])c4[H])c(C(=O)N([H])[H])c3N([H])[H])C2([H])[H])C1([H])[H]

$$$$
85:0:0
     RDKit          3D

 89 97  0  0  1  0  0  0  0  0999 V2000
  -28.6900  -21.6990   20.3550 N   0  0  0  0  0  0  0  0  0  0  0  0
  -27.7170  -21.5210   20.5950 H   0  0  0  0  0  0  0  0  0  0  0  0
  -31.7870  -19.5420   19.7720 C   0  0  0  0  0  3  0  0  0  0  0  0
  -31.4050  -18.1910   19.9640 C   0  0  0  0  0  3  0  0  0  0  0  0
  -30.8990  -20.6340   19.9110 C   0  0  0  0  0  3  0  0  0  0  0  0
  -29.1840  -19.0090   20.4510 C   0  0  0  0  0  3  0  0  0  0  0  0
  -30.0860  -17.8110   20.3120 C   0  0  0  0  0  0  0  0  0  0  0  0
  -29.5420  -20.4610   20.2570 C   0  0  0  0  0  0  0  0  0  0  0  0
  -30.5090  -15.0620   20.3110 C   0  0  0  0  0  0  0  0  0  0  0  0
  -30.3690  -12.6880   19.3960 C   0  0  0  0  0  2  0  0  0  0  0  0
  -29.4540  -12.6560   18.1490 C   0  0  0  0  0  2  0  0  0  0  0  0
  -27.9810  -12.4570   18.5570 C   0  0  0  0  0  2  0  0  0  0  0  0
  -27.5680  -13.3480   19.7600 C   0  0  0  0  0  3  0  0  0  0  0  0
  -28.6260  -13.3750   20.8840 C   0  0  0  0  0  2  0  0  0  0  0  0
  -29.8950  -13.8020   20.2750 N   0  0  0  0  0  0  0  0  0  0  0  0
  -31.7110  -15.0720   20.0260 O   0  0  0  0  0  0  0  0  0  0  0  0
  -29.7690  -16.2880   20.4770 N   0  0  0  0  0  0  0  0  0  0  0  0
  -28.8050  -16.1050   20.7150 H   0  0  0  0  0  0  0  0  0  0  0  0
  -25.1870  -13.8970   20.5120 C   0  0  0  0  0  0  0  0  0  0  0  0
  -24.1280  -13.1160   20.8840 C   0  0  0  0  0  0  0  0  0  0  0  0
  -24.5970  -11.7670   20.8400 C   0  0  0  0  0  0  0  0  0  0  0  0
  -26.2320  -13.0270   20.2590 N   0  0  0  0  0  0  0  0  0  0  0  0
  -25.8880  -11.7380   20.5190 N   0  0  0  0  0  0  0  0  0  0  0  0
  -23.8730  -10.5020   21.0260 C   0  0  0  0  0  0  0  0  0  0  0  0
  -24.2950   -9.5390   21.9680 C   0  0  0  0  0  3  0  0  0  0  0  0
  -23.5710   -8.3390   22.1410 C   0  0  0  0  0  3  0  0  0  0  0  0
  -22.4070   -8.0950   21.3730 C   0  0  0  0  0  0  0  0  0  0  0  0
  -22.0030   -9.0470   20.4230 C   0  0  0  0  0  3  0  0  0  0  0  0
  -22.7260  -10.2390   20.2480 C   0  0  0  0  0  3  0  0  0  0  0  0
  -21.6570   -6.9460   21.4530 O   0  0  0  0  0  0  0  0  0  0  0  0
  -21.5770   -6.2180   22.6130 C   0  0  0  0  0  0  0  0  0  0  0  0
  -21.0940   -6.7790   23.8160 C   0  0  0  0  0  3  0  0  0  0  0  0
  -20.9630   -5.9760   24.9650 C   0  0  0  0  0  3  0  0  0  0  0  0
  -21.3070   -4.6120   24.9150 C   0  0  0  0  0  0  0  0  0  0  0  0
  -21.7840   -4.0490   23.7180 C   0  0  0  0  0  3  0  0  0  0  0  0
  -21.9180   -4.8500   22.5690 C   0  0  0  0  0  0  0  0  0  0  0  0
  -22.3540   -4.2970   21.4120 F   0  0  0  0  0  0  0  0  0  0  0  0
  -21.1770   -3.8390   26.0170 F   0  0  0  0  0  0  0  0  0  0  0  0
  -22.7310  -13.5910   21.1620 C   0  0  0  0  0  0  0  0  0  0  0  0
  -22.0040  -12.8910   22.0240 N   0  0  0  0  0  0  0  0  0  0  0  0
  -22.2900  -14.6160   20.6450 O   0  0  0  0  0  0  0  0  0  0  0  0
  -22.3710  -12.0630   22.4720 H   0  0  0  0  0  0  0  0  0  0  0  0
  -21.0640  -13.1910   22.2410 H   0  0  0  0  0  0  0  0  0  0  0  0
  -25.3450  -15.2680   20.3370 N   0  0  0  0  0  0  0  0  0  0  0  0
  -24.5710  -15.9160   20.4280 H   0  0  0  0  0  0  0  0  0  0  0  0
  -26.1710  -15.6870   19.9310 H   0  0  0  0  0  0  0  0  0  0  0  0
  -29.0630  -23.2460   20.2970 C   0  0  0  0  0  3  0  0  0  0  0  0
  -27.9600  -24.5630   20.1750 C   0  0  0  0  0  3  0  0  0  0  0  0
  -28.2290  -26.1250   20.2570 O   0  0  0  0  0  0  0  0  0  0  0  0
  -24.6480  -31.9050   23.2450 C   0  0  0  0  0  0  0  0  0  0  0  0
  -27.1830  -27.1370   20.2060 C   0  0  0  0  0  0  0  0  0  0  0  0
  -23.4370  -30.5180   21.6090 C   0  0  0  0  0  3  0  0  0  0  0  0
  -24.8710  -28.9280   20.1780 C   0  0  0  0  0  0  0  0  0  0  0  0
  -25.9930  -30.7570   21.4360 C   0  0  0  0  0  2  0  0  0  0  0  0
  -26.0560  -29.3580   20.7870 C   0  0  0  0  0  0  0  0  0  0  0  0
  -27.2110  -28.4790   20.7820 C   0  0  0  0  0  3  0  0  0  0  0  0
  -25.9680  -26.8210   19.5590 C   0  0  0  0  0  3  0  0  0  0  0  0
  -24.8400  -27.6740   19.5490 C   0  0  0  0  0  3  0  0  0  0  0  0
  -23.6530  -29.8390   20.2290 C   0  0  0  0  0  2  0  0  0  0  0  0
  -24.7140  -31.0830   22.1520 N   0  0  0  0  0  0  0  0  0  0  0  0
  -23.5650  -32.1940   23.7780 O   0  0  0  0  0  0  0  0  0  0  0  0
  -22.7520  -29.5140   22.5730 C   0  0  0  0  0  0  0  0  0  0  0  0
  -21.4220  -29.3500   22.4520 N   0  0  0  0  0  0  0  0  0  0  0  0
  -23.4220  -28.8850   23.3960 O   0  0  0  0  0  0  0  0  0  0  0  0
  -20.9370  -29.9160   21.7700 H   0  0  0  0  0  0  0  0  0  0  0  0
  -18.0370  -28.1550   22.9580 C   0  0  0  0  0  0  0  0  0  0  0  0
  -20.5970  -28.4150   23.2220 C   0  0  0  0  0  3  0  0  0  0  0  0
  -20.6940  -26.9800   22.6500 C   0  0  0  0  0  2  0  0  0  0  0  0
  -19.5920  -26.6570   21.6360 C   0  0  0  0  0  2  0  0  0  0  0  0
  -18.2120  -26.8050   22.2820 C   0  0  0  0  0  2  0  0  0  0  0  0
  -19.1570  -28.9180   23.3850 C   0  0  0  0  0  0  0  0  0  0  0  0
  -18.9380  -30.1800   23.9790 C   0  0  0  0  0  3  0  0  0  0  0  0
  -17.6330  -30.6800   24.1470 C   0  0  0  0  0  3  0  0  0  0  0  0
  -16.5280  -29.9150   23.7360 C   0  0  0  0  0  3  0  0  0  0  0  0
  -16.7300  -28.6540   23.1480 C   0  0  0  0  0  3  0  0  0  0  0  0
  -25.9300  -32.5370   23.8680 C   0  0  0  0  0  3  0  0  0  0  0  0
  -26.4440  -31.7630   25.1450 C   0  0  1  0  0  0  0  0  0  0  0  0
  -25.3490  -31.5250   26.2130 C   0  0  0  0  0  1  0  0  0  0  0  0
  -27.0210  -30.3830   24.7520 C   0  0  0  0  0  1  0  0  0  0  0  0
  -27.6030  -32.5460   25.8050 C   0  0  0  0  0  1  0  0  0  0  0  0
  -25.6230  -33.9370   24.2100 N   0  0  0  0  0  0  0  0  0  0  0  0
  -25.9310  -34.9950   23.4500 C   0  0  0  0  0  0  0  0  0  0  0  0
  -26.5680  -34.8970   22.3980 O   0  0  0  0  0  0  0  0  0  0  0  0
  -25.0510  -34.0840   25.0300 H   0  0  0  0  0  0  0  0  0  0  0  0
  -24.1800  -36.7830   23.1740 C   0  0  0  0  0  1  0  0  0  0  0  0
  -25.4580  -36.3840   23.9290 C   0  0  0  0  0  3  0  0  0  0  0  0
  -27.6250  -37.2780   24.6650 C   0  0  0  0  0  1  0  0  0  0  0  0
  -26.4800  -37.4430   23.7720 N   0  0  0  0  0  0  0  0  0  0  0  0
  -26.0770  -38.3600   23.9410 H   0  0  0  0  0  0  0  0  0  0  0  0
  1  2  1  0
  3  5  2  0
  3  4  1  0
  4  7  2  0
  5  8  1  0
  7  6  1  0
  7 17  1  0
  8  1  1  0
  8  6  2  0
  9 17  1  0
 10 15  1  0
 11 12  1  0
 11 10  1  0
 13 12  1  0
 13 22  1  0
 13 14  1  0
 15  9  1  0
 15 14  1  0
 16  9  2  0
 17 18  1  0
 19 20  2  0
 20 39  1  0
 21 20  1  0
 21 24  1  0
 22 19  1  0
 22 23  1  0
 23 21  2  0
 24 25  1  0
 25 26  2  0
 27 30  1  0
 27 26  1  0
 28 27  2  0
 29 28  1  0
 29 24  2  0
 30 31  1  0
 31 32  1  0
 32 33  2  0
 34 33  1  0
 34 38  1  0
 35 34  2  0
 36 31  2  0
 36 35  1  0
 37 36  1  0
 39 40  1  0
 40 43  1  0
 40 42  1  0
 41 39  2  0
 44 45  1  0
 44 19  1  0
 46 44  1  0
 47  1  1  0
 48 49  1  0
 48 47  2  0
 50 61  2  0
 51 49  1  0
 51 56  1  0
 52 60  1  0
 52 62  1  0
 53 59  1  0
 53 55  1  0
 54 60  1  0
 55 54  1  0
 56 55  2  0
 57 51  2  0
 58 57  1  0
 58 53  2  0
 59 52  1  0
 60 50  1  0
 62 64  2  0
 63 62  1  0
 65 63  1  0
 66 75  2  0
 66 71  1  0
 67 63  1  0
 67 71  1  0
 68 67  1  0
 69 70  1  0
 69 68  1  0
 70 66  1  0
 71 72  2  0
 72 73  1  0
 74 73  2  0
 75 74  1  0
 76 50  1  0
 76 81  1  0
 76 77  1  0
 77 80  1  1
 77 78  1  0
 79 77  1  0
 81 84  1  0
 82 86  1  0
 82 81  1  0
 83 82  2  0
 86 85  1  0
 88 86  1  0
 88 89  1  0
 88 87  1  0
M  ISO  4   9 100  17 100  48 101  49 101
M  END
>  <TORSDO>  (85) 
F 19

>  <SCORE>  (85) 
-14.953

>  <name>  (85) 
85

>  <ligand_id>  (85) 
85

>  <original_smiles>  (85) 
[H]c1c([H])c(N([H])C(=O)N2C([H])([H])C([H])([H])C([H])([H])C([H])(n3nc(-c4c([H])c([H])c(Oc5c([H])c([H])c(F)c([H])c5F)c([H])c4[H])c(C(=O)N([H])[H])c3N([H])[H])C2([H])[H])c([H])c(N([H])C([H])([H])C([H])([H])Oc2c([H])c([H])c3c(c2[H])C([H])([H])N(C(=O)C([H])(N([H])C(=O)C([H])(N([H])C([H])([H])[H])C([H])([H])[H])C(C([H])([H])[H])(C([H])([H])[H])C([H])([H])[H])C([H])(C(=O)N([H])C2([H])c4c([H])c([H])c([H])c([H])c4C([H])([H])C([H])([H])C2([H])[H])C3([H])[H])c1[H]

>  <smiles>  (85) 
[H]c1c([H])c(N([H])C(=O)N2C([H])([H])C([H])([H])C([H])([H])C([H])(n3nc(-c4c([H])c([H])c(Oc5c([H])c([H])c(F)c([H])c5F)c([H])c4[H])c(C(=O)N([H])[H])c3N([H])[H])C2([H])[H])c([H])c(N([H])C([H])([H])C([H])([H])Oc2c([H])c([H])c3c(c2[H])C([H])([H])N(C(=O)C([H])(N([H])C(=O)C([H])(N([H])C([H])([H])[H])C([H])([H])[H])C(C([H])([H])[H])(C([H])([H])[H])C([H])([H])[H])C([H])(C(=O)N([H])C2([H])c4c([H])c([H])c([H])c([H])c4C([H])([H])C([H])([H])C2([H])[H])C3([H])[H])c1[H]

$$$$
86:0:0
     RDKit          3D

 96105  0  0  1  0  0  0  0  0999 V2000
  -30.5400  -23.0980   22.6210 C   0  0  0  0  0  2  0  0  0  0  0  0
  -30.0150  -22.0760   20.3790 C   0  0  0  0  0  2  0  0  0  0  0  0
  -30.9340  -24.4040   21.9040 C   0  0  0  0  0  2  0  0  0  0  0  0
  -30.4620  -23.4070   19.7160 C   0  0  0  0  0  2  0  0  0  0  0  0
  -30.6990  -21.8310   21.7520 C   0  0  0  0  0  3  0  0  0  0  0  0
  -30.2250  -24.5760   20.6080 N   0  0  2  0  0  4  0  0  0  0  0  0
  -29.2280  -24.5890   20.7900 H   0  0  0  0  0  0  0  0  0  0  0  0
  -30.1680  -20.6070   22.5660 C   0  0  0  0  0  2  0  0  0  0  0  0
  -30.1840  -19.3160   21.8290 N   0  0  0  0  0  4  0  0  0  0  0  0
  -31.0010  -19.3040   21.2460 H   0  0  0  0  0  0  0  0  0  0  0  0
  -29.3630  -19.2830   21.2380 H   0  0  0  0  0  0  0  0  0  0  0  0
  -30.2090  -18.0670   22.6430 C   0  0  0  0  0  2  0  0  0  0  0  0
  -30.8140  -16.8540   21.8560 C   0  0  0  0  0  2  0  0  0  0  0  0
  -31.5640  -14.2520   19.9070 C   0  0  0  0  0  0  0  0  0  0  0  0
  -31.0960  -12.0350   18.9430 C   0  0  0  0  0  2  0  0  0  0  0  0
  -30.1310  -12.2260   17.7520 C   0  0  0  0  0  2  0  0  0  0  0  0
  -28.6550  -12.2790   18.2020 C   0  0  0  0  0  2  0  0  0  0  0  0
  -28.4340  -13.2050   19.4290 C   0  0  0  0  0  3  0  0  0  0  0  0
  -29.5010  -12.9670   20.5280 C   0  0  0  0  0  2  0  0  0  0  0  0
  -30.8190  -13.1150   19.9070 N   0  0  0  0  0  0  0  0  0  0  0  0
  -32.7350  -14.2690   19.5170 O   0  0  0  0  0  0  0  0  0  0  0  0
  -29.7550  -17.0800   19.3600 C   0  0  0  0  0  2  0  0  0  0  0  0
  -31.0250  -16.4600   18.7890 C   0  0  0  0  0  2  0  0  0  0  0  0
  -30.0200  -16.2800   20.6450 C   0  0  0  0  0  3  0  0  0  0  0  0
  -30.8190  -15.3850   19.7650 N   0  0  0  0  0  0  0  0  0  0  0  0
  -26.1730  -14.1160   20.2370 C   0  0  0  0  0  0  0  0  0  0  0  0
  -25.0280  -13.4840   20.6420 C   0  0  0  0  0  0  0  0  0  0  0  0
  -25.3000  -12.0840   20.5730 C   0  0  0  0  0  0  0  0  0  0  0  0
  -27.0780  -13.1050   19.9560 N   0  0  0  0  0  0  0  0  0  0  0  0
  -26.5590  -11.8780   20.2080 N   0  0  0  0  0  0  0  0  0  0  0  0
  -24.4190  -10.9290   20.7800 C   0  0  0  0  0  0  0  0  0  0  0  0
  -24.7530   -9.9020   21.6890 C   0  0  0  0  0  3  0  0  0  0  0  0
  -23.8860   -8.8040   21.8810 C   0  0  0  0  0  3  0  0  0  0  0  0
  -22.6680   -8.7300   21.1640 C   0  0  0  0  0  0  0  0  0  0  0  0
  -22.3480   -9.7460   20.2420 C   0  0  0  0  0  3  0  0  0  0  0  0
  -23.2170  -10.8340   20.0500 C   0  0  0  0  0  3  0  0  0  0  0  0
  -21.7730   -7.6910   21.2680 O   0  0  0  0  0  0  0  0  0  0  0  0
  -21.6510   -6.9560   22.4210 C   0  0  0  0  0  0  0  0  0  0  0  0
  -21.3460   -7.5630   23.6600 C   0  0  0  0  0  3  0  0  0  0  0  0
  -21.1640   -6.7630   24.8060 C   0  0  0  0  0  3  0  0  0  0  0  0
  -21.2770   -5.3630   24.7130 C   0  0  0  0  0  0  0  0  0  0  0  0
  -21.5730   -4.7580   23.4790 C   0  0  0  0  0  3  0  0  0  0  0  0
  -21.7550   -5.5530   22.3350 C   0  0  0  0  0  0  0  0  0  0  0  0
  -22.0150   -4.9680   21.1410 F   0  0  0  0  0  0  0  0  0  0  0  0
  -21.0920   -4.5930   25.8100 F   0  0  0  0  0  0  0  0  0  0  0  0
  -23.7180  -14.1360   20.9770 C   0  0  0  0  0  0  0  0  0  0  0  0
  -22.9490  -13.5240   21.8700 N   0  0  0  0  0  0  0  0  0  0  0  0
  -23.3900  -15.2130   20.4780 O   0  0  0  0  0  0  0  0  0  0  0  0
  -23.2160  -12.6390   22.2810 H   0  0  0  0  0  0  0  0  0  0  0  0
  -22.0660  -13.9360   22.1340 H   0  0  0  0  0  0  0  0  0  0  0  0
  -26.5150  -15.4540   20.0670 N   0  0  0  0  0  0  0  0  0  0  0  0
  -25.8650  -16.2060   20.2690 H   0  0  0  0  0  0  0  0  0  0  0  0
  -27.3680  -15.7740   19.6330 H   0  0  0  0  0  0  0  0  0  0  0  0
  -30.5220  -25.8970   19.9690 C   0  0  0  0  0  2  0  0  0  0  0  0
  -29.6430  -27.0360   20.5420 C   0  0  0  0  0  2  0  0  0  0  0  0
  -28.3460  -26.6670   20.1210 O   0  0  0  0  0  0  0  0  0  0  0  0
  -24.5840  -31.9510   23.2480 C   0  0  0  0  0  0  0  0  0  0  0  0
  -27.2710  -27.5120   20.1940 C   0  0  0  0  0  0  0  0  0  0  0  0
  -23.3970  -30.5300   21.6150 C   0  0  0  0  0  3  0  0  0  0  0  0
  -24.8710  -29.0040   20.2030 C   0  0  0  0  0  0  0  0  0  0  0  0
  -25.9230  -30.9080   21.4210 C   0  0  0  0  0  2  0  0  0  0  0  0
  -26.0280  -29.5360   20.7870 C   0  0  0  0  0  0  0  0  0  0  0  0
  -27.2430  -28.8060   20.7820 C   0  0  0  0  0  3  0  0  0  0  0  0
  -26.0870  -26.9920   19.6400 C   0  0  0  0  0  3  0  0  0  0  0  0
  -24.8900  -27.7260   19.6320 C   0  0  0  0  0  3  0  0  0  0  0  0
  -23.6170  -29.8490   20.2400 C   0  0  0  0  0  2  0  0  0  0  0  0
  -24.6540  -31.1420   22.1520 N   0  0  0  0  0  0  0  0  0  0  0  0
  -23.4980  -32.2160   23.7810 O   0  0  0  0  0  0  0  0  0  0  0  0
  -22.7480  -29.5040   22.5700 C   0  0  0  0  0  0  0  0  0  0  0  0
  -21.4280  -29.3100   22.4360 N   0  0  0  0  0  0  0  0  0  0  0  0
  -23.4370  -28.8850   23.3880 O   0  0  0  0  0  0  0  0  0  0  0  0
  -20.9340  -29.8560   21.7450 H   0  0  0  0  0  0  0  0  0  0  0  0
  -18.0610  -28.0900   22.9150 C   0  0  0  0  0  0  0  0  0  0  0  0
  -20.6160  -28.3720   23.2100 C   0  0  0  0  0  3  0  0  0  0  0  0
  -20.7380  -26.9360   22.6490 C   0  0  0  0  0  2  0  0  0  0  0  0
  -19.6470  -26.5940   21.6300 C   0  0  0  0  0  2  0  0  0  0  0  0
  -18.2570  -26.7340   22.2560 C   0  0  0  0  0  2  0  0  0  0  0  0
  -19.1710  -28.8650   23.3500 C   0  0  0  0  0  0  0  0  0  0  0  0
  -18.9350  -30.1320   23.9250 C   0  0  0  0  0  3  0  0  0  0  0  0
  -17.6260  -30.6260   24.0720 C   0  0  0  0  0  3  0  0  0  0  0  0
  -16.5320  -29.8470   23.6550 C   0  0  0  0  0  3  0  0  0  0  0  0
  -16.7500  -28.5820   23.0820 C   0  0  0  0  0  3  0  0  0  0  0  0
  -25.8640  -32.5930   23.8670 C   0  0  0  0  0  3  0  0  0  0  0  0
  -25.5420  -33.9910   24.1810 N   0  0  0  0  0  0  0  0  0  0  0  0
  -25.9020  -35.0400   23.4300 C   0  0  0  0  0  0  0  0  0  0  0  0
  -26.6030  -34.9320   22.4210 O   0  0  0  0  0  0  0  0  0  0  0  0
  -24.9220  -34.1520   24.9640 H   0  0  0  0  0  0  0  0  0  0  0  0
  -24.1810  -36.8230   23.0050 C   0  0  0  0  0  1  0  0  0  0  0  0
  -25.3960  -36.4300   23.8620 C   0  0  0  0  0  3  0  0  0  0  0  0
  -27.5090  -37.3090   24.7550 C   0  0  0  0  0  1  0  0  0  0  0  0
  -26.4330  -37.4820   23.7810 N   0  0  0  0  0  0  0  0  0  0  0  0
  -26.0250  -38.4020   23.9240 H   0  0  0  0  0  0  0  0  0  0  0  0
  -26.3850  -31.8360   25.1500 C   0  0  1  0  0  0  0  0  0  0  0  0
  -25.2840  -31.5850   26.2080 C   0  0  0  0  0  1  0  0  0  0  0  0
  -26.9860  -30.4620   24.7690 C   0  0  0  0  0  1  0  0  0  0  0  0
  -27.5190  -32.6480   25.8160 C   0  0  0  0  0  1  0  0  0  0  0  0
  2  5  1  0
  3  1  1  0
  4  2  1  0
  4  6  1  0
  5  8  1  0
  5  1  1  0
  6  7  1  1
  6  3  1  0
  9  8  1  0
  9 12  1  0
 10  9  1  0
 11  9  1  0
 13 12  1  0
 15 20  1  0
 16 17  1  0
 16 15  1  0
 18 17  1  0
 18 29  1  0
 18 19  1  0
 20 14  1  0
 20 19  1  0
 21 14  2  0
 22 24  1  0
 23 22  1  0
 23 25  1  0
 24 13  1  0
 25 14  1  0
 25 24  1  0
 26 27  2  0
 27 46  1  0
 28 27  1  0
 28 31  1  0
 29 30  1  0
 29 26  1  0
 30 28  2  0
 31 32  1  0
 32 33  2  0
 34 37  1  0
 34 33  1  0
 35 34  2  0
 36 35  1  0
 36 31  2  0
 37 38  1  0
 38 39  1  0
 39 40  2  0
 41 40  1  0
 41 45  1  0
 42 41  2  0
 43 38  2  0
 43 42  1  0
 44 43  1  0
 46 47  1  0
 47 50  1  0
 47 49  1  0
 48 46  2  0
 51 26  1  0
 51 52  1  0
 53 51  1  0
 54 55  1  0
 54  6  1  0
 56 58  1  0
 56 55  1  0
 57 68  2  0
 58 63  1  0
 59 67  1  0
 59 69  1  0
 60 66  1  0
 60 62  1  0
 61 67  1  0
 62 61  1  0
 63 62  2  0
 64 58  2  0
 65 64  1  0
 65 60  2  0
 66 59  1  0
 67 57  1  0
 69 71  2  0
 70 69  1  0
 72 70  1  0
 73 82  2  0
 73 78  1  0
 74 70  1  0
 74 78  1  0
 75 74  1  0
 76 77  1  0
 76 75  1  0
 77 73  1  0
 78 79  2  0
 79 80  1  0
 81 80  2  0
 82 81  1  0
 83 57  1  0
 83 84  1  0
 83 93  1  0
 84 87  1  0
 85 89  1  0
 85 84  1  0
 86 85  2  0
 89 88  1  0
 91 89  1  0
 91 92  1  0
 91 90  1  0
 93 96  1  1
 93 94  1  0
 95 93  1  0
M  ISO  4  14 100  25 100  55 101  56 101
M  END
>  <TORSDO>  (86) 
F 22

>  <SCORE>  (86) 
-11.566

>  <name>  (86) 
86

>  <ligand_id>  (86) 
86

>  <original_smiles>  (86) 
[H]c1c([H])c([H])c2c(c1[H])C([H])([H])C([H])([H])C([H])([H])C2([H])N([H])C(=O)C1([H])N(C(=O)C([H])(N([H])C(=O)C([H])(N([H])C([H])([H])[H])C([H])([H])[H])C(C([H])([H])[H])(C([H])([H])[H])C([H])([H])[H])C([H])([H])c2c([H])c(OC([H])([H])C([H])([H])[N+]3([H])C([H])([H])C([H])([H])C([H])(C([H])([H])[N+]([H])([H])C([H])([H])C([H])([H])C4([H])N(C(=O)N5C([H])([H])C([H])([H])C([H])([H])C([H])(n6nc(-c7c([H])c([H])c(Oc8c([H])c([H])c(F)c([H])c8F)c([H])c7[H])c(C(=O)N([H])[H])c6N([H])[H])C5([H])[H])C([H])([H])C4([H])[H])C([H])([H])C3([H])[H])c([H])c([H])c2C1([H])[H]

>  <smiles>  (86) 
[H]c1c([H])c([H])c2c(c1[H])C([H])([H])C([H])([H])C([H])([H])C2([H])N([H])C(=O)C1([H])N(C(=O)C([H])(N([H])C(=O)C([H])(N([H])C([H])([H])[H])C([H])([H])[H])C(C([H])([H])[H])(C([H])([H])[H])C([H])([H])[H])C([H])([H])c2c([H])c(OC([H])([H])C([H])([H])[N+]3([H])C([H])([H])C([H])([H])C([H])(C([H])([H])[N+]([H])([H])C([H])([H])C([H])([H])C4([H])N(C(=O)N5C([H])([H])C([H])([H])C([H])([H])C([H])(n6nc(-c7c([H])c([H])c(Oc8c([H])c([H])c(F)c([H])c8F)c([H])c7[H])c(C(=O)N([H])[H])c6N([H])[H])C5([H])[H])C([H])([H])C4([H])[H])C([H])([H])C3([H])[H])c([H])c([H])c2C1([H])[H]

$$$$
87:0:0
     RDKit          3D

 89 98  0  0  1  0  0  0  0  0999 V2000
  -27.7170  -19.3150   20.3440 C   0  0  0  0  0  2  0  0  0  0  0  0
  -29.9410  -19.2240   20.8780 C   0  0  0  0  0  2  0  0  0  0  0  0
  -28.8800  -20.5450   18.6660 C   0  0  0  0  0  2  0  0  0  0  0  0
  -28.5750  -18.9850   19.1100 C   0  0  0  0  0  3  0  0  0  0  0  0
  -29.7970  -18.1020   19.7080 C   0  0  0  0  0  3  0  0  0  0  0  0
  -28.7150  -20.3330   20.9060 C   0  0  0  0  0  3  0  0  0  0  0  0
  -28.5710  -21.4600   19.8480 N   0  0  1  0  0  4  0  0  0  0  0  0
  -27.5650  -21.5410   19.8110 H   0  0  0  0  0  0  0  0  0  0  0  0
  -30.4850  -15.2800   19.7850 C   0  0  0  0  0  0  0  0  0  0  0  0
  -30.4290  -12.8480   18.9460 C   0  0  0  0  0  2  0  0  0  0  0  0
  -29.4310  -12.6750   17.7730 C   0  0  0  0  0  2  0  0  0  0  0  0
  -28.0130  -12.4100   18.3090 C   0  0  0  0  0  2  0  0  0  0  0  0
  -27.6390  -13.3740   19.4610 C   0  0  0  0  0  3  0  0  0  0  0  0
  -28.7520  -13.5020   20.5220 C   0  0  0  0  0  2  0  0  0  0  0  0
  -29.9500  -13.9760   19.8160 N   0  0  0  0  0  0  0  0  0  0  0  0
  -31.6660  -15.3420   19.4150 O   0  0  0  0  0  0  0  0  0  0  0  0
  -29.6770  -16.4830   19.9720 N   0  0  0  0  0  0  0  0  0  0  0  0
  -28.7510  -16.2250   20.2790 H   0  0  0  0  0  0  0  0  0  0  0  0
  -25.3360  -13.9300   20.4080 C   0  0  0  0  0  0  0  0  0  0  0  0
  -24.3000  -13.1470   20.8360 C   0  0  0  0  0  0  0  0  0  0  0  0
  -24.7520  -11.7960   20.7230 C   0  0  0  0  0  0  0  0  0  0  0  0
  -26.3470  -13.0560   20.0550 N   0  0  0  0  0  0  0  0  0  0  0  0
  -26.0130  -11.7650   20.3090 N   0  0  0  0  0  0  0  0  0  0  0  0
  -24.0350  -10.5310   20.9260 C   0  0  0  0  0  0  0  0  0  0  0  0
  -24.4950   -9.5580   21.8400 C   0  0  0  0  0  3  0  0  0  0  0  0
  -23.7740   -8.3590   22.0310 C   0  0  0  0  0  3  0  0  0  0  0  0
  -22.5820   -8.1220   21.3080 C   0  0  0  0  0  0  0  0  0  0  0  0
  -22.1410   -9.0840   20.3820 C   0  0  0  0  0  3  0  0  0  0  0  0
  -22.8610  -10.2750   20.1890 C   0  0  0  0  0  3  0  0  0  0  0  0
  -21.8310   -6.9750   21.4090 O   0  0  0  0  0  0  0  0  0  0  0  0
  -21.7550   -6.2660   22.5810 C   0  0  0  0  0  0  0  0  0  0  0  0
  -21.2450   -6.8380   23.7660 C   0  0  0  0  0  3  0  0  0  0  0  0
  -21.1200   -6.0530   24.9290 C   0  0  0  0  0  3  0  0  0  0  0  0
  -21.4960   -4.6980   24.9080 C   0  0  0  0  0  0  0  0  0  0  0  0
  -22.0000   -4.1230   23.7280 C   0  0  0  0  0  3  0  0  0  0  0  0
  -22.1270   -4.9060   22.5660 C   0  0  0  0  0  0  0  0  0  0  0  0
  -22.5920   -4.3450   21.4250 F   0  0  0  0  0  0  0  0  0  0  0  0
  -21.3700   -3.9400   26.0230 F   0  0  0  0  0  0  0  0  0  0  0  0
  -22.9340  -13.6200   21.2330 C   0  0  0  0  0  0  0  0  0  0  0  0
  -22.2750  -12.9050   22.1380 N   0  0  0  0  0  0  0  0  0  0  0  0
  -22.4590  -14.6570   20.7730 O   0  0  0  0  0  0  0  0  0  0  0  0
  -22.6720  -12.0630   22.5290 H   0  0  0  0  0  0  0  0  0  0  0  0
  -21.3590  -13.2050   22.4440 H   0  0  0  0  0  0  0  0  0  0  0  0
  -25.4940  -15.3060   20.2630 N   0  0  0  0  0  0  0  0  0  0  0  0
  -24.7370  -15.9560   20.4450 H   0  0  0  0  0  0  0  0  0  0  0  0
  -26.2910  -15.7430   19.8150 H   0  0  0  0  0  0  0  0  0  0  0  0
  -28.9650  -23.0530   19.9900 C   0  0  0  0  0  3  0  0  0  0  0  0
  -27.9450  -24.4780   19.7850 C   0  0  0  0  0  3  0  0  0  0  0  0
  -28.2080  -26.0660   20.0010 O   0  0  0  0  0  0  0  0  0  0  0  0
  -24.6700  -31.8260   23.2130 C   0  0  0  0  0  0  0  0  0  0  0  0
  -27.1870  -27.1280   19.9760 C   0  0  0  0  0  0  0  0  0  0  0  0
  -23.4500  -30.4900   21.5440 C   0  0  0  0  0  3  0  0  0  0  0  0
  -24.8770  -28.9550   20.0360 C   0  0  0  0  0  0  0  0  0  0  0  0
  -26.0100  -30.7310   21.3570 C   0  0  0  0  0  2  0  0  0  0  0  0
  -26.0730  -29.3550   20.6460 C   0  0  0  0  0  0  0  0  0  0  0  0
  -27.2250  -28.4610   20.5960 C   0  0  0  0  0  3  0  0  0  0  0  0
  -25.9660  -26.8670   19.3140 C   0  0  0  0  0  3  0  0  0  0  0  0
  -24.8460  -27.7330   19.3460 C   0  0  0  0  0  3  0  0  0  0  0  0
  -23.6540  -29.8580   20.1380 C   0  0  0  0  0  2  0  0  0  0  0  0
  -24.7330  -31.0370   22.0920 N   0  0  0  0  0  0  0  0  0  0  0  0
  -23.5900  -32.0940   23.7630 O   0  0  0  0  0  0  0  0  0  0  0  0
  -22.7800  -29.4530   22.4820 C   0  0  0  0  0  0  0  0  0  0  0  0
  -21.4510  -29.2750   22.3600 N   0  0  0  0  0  0  0  0  0  0  0  0
  -23.4600  -28.8070   23.2850 O   0  0  0  0  0  0  0  0  0  0  0  0
  -20.9580  -29.8470   21.6900 H   0  0  0  0  0  0  0  0  0  0  0  0
  -18.0900  -28.0040   22.8360 C   0  0  0  0  0  0  0  0  0  0  0  0
  -20.6460  -28.3010   23.1030 C   0  0  0  0  0  3  0  0  0  0  0  0
  -20.7700  -26.8880   22.4840 C   0  0  0  0  0  2  0  0  0  0  0  0
  -19.6690  -26.5780   21.4620 C   0  0  0  0  0  2  0  0  0  0  0  0
  -18.2860  -26.6830   22.1100 C   0  0  0  0  0  2  0  0  0  0  0  0
  -19.1980  -28.7710   23.2860 C   0  0  0  0  0  0  0  0  0  0  0  0
  -18.9580  -30.0090   23.9220 C   0  0  0  0  0  3  0  0  0  0  0  0
  -17.6460  -30.4830   24.1060 C   0  0  0  0  0  3  0  0  0  0  0  0
  -16.5530  -29.7110   23.6740 C   0  0  0  0  0  3  0  0  0  0  0  0
  -16.7760  -28.4740   23.0430 C   0  0  0  0  0  3  0  0  0  0  0  0
  -25.9510  -32.4450   23.8460 C   0  0  0  0  0  3  0  0  0  0  0  0
  -25.6510  -33.8420   24.2010 N   0  0  0  0  0  0  0  0  0  0  0  0
  -25.9500  -34.9080   23.4450 C   0  0  0  0  0  0  0  0  0  0  0  0
  -26.5720  -34.8180   22.3840 O   0  0  0  0  0  0  0  0  0  0  0  0
  -25.0920  -33.9850   25.0290 H   0  0  0  0  0  0  0  0  0  0  0  0
  -24.1920  -36.6970   23.2200 C   0  0  0  0  0  1  0  0  0  0  0  0
  -25.4850  -36.2930   23.9430 C   0  0  0  0  0  3  0  0  0  0  0  0
  -27.6580  -37.1960   24.6490 C   0  0  0  0  0  1  0  0  0  0  0  0
  -26.5030  -37.3520   23.7680 N   0  0  0  0  0  0  0  0  0  0  0  0
  -26.1000  -38.2700   23.9330 H   0  0  0  0  0  0  0  0  0  0  0  0
  -26.4560  -31.6570   25.1180 C   0  0  1  0  0  0  0  0  0  0  0  0
  -25.3570  -31.4200   26.1800 C   0  0  0  0  0  1  0  0  0  0  0  0
  -27.0280  -30.2790   24.7200 C   0  0  0  0  0  1  0  0  0  0  0  0
  -27.6150  -32.4340   25.7890 C   0  0  0  0  0  1  0  0  0  0  0  0
  2  6  1  0
  3  7  1  0
  4  3  1  0
  4  5  1  0
  4  1  1  0
  5 17  1  0
  5  2  1  0
  6  1  1  0
  7 47  1  0
  7  6  1  0
  7  8  1  6
  9 15  1  0
  9 17  1  0
 10 15  1  0
 11 12  1  0
 11 10  1  0
 13 12  1  0
 13 22  1  0
 13 14  1  0
 15 14  1  0
 16  9  2  0
 17 18  1  0
 19 20  2  0
 20 39  1  0
 21 20  1  0
 21 24  1  0
 22 23  1  0
 22 19  1  0
 23 21  2  0
 24 25  1  0
 25 26  2  0
 27 30  1  0
 27 26  1  0
 28 27  2  0
 29 28  1  0
 29 24  2  0
 30 31  1  0
 31 32  1  0
 32 33  2  0
 34 33  1  0
 34 38  1  0
 35 34  2  0
 36 31  2  0
 36 35  1  0
 37 36  1  0
 39 40  1  0
 40 43  1  0
 40 42  1  0
 41 39  2  0
 44 19  1  0
 44 45  1  0
 46 44  1  0
 48 47  2  0
 48 49  1  0
 50 61  2  0
 51 49  1  0
 51 56  1  0
 52 60  1  0
 52 62  1  0
 53 59  1  0
 53 55  1  0
 54 60  1  0
 55 54  1  0
 56 55  2  0
 57 58  1  0
 57 51  2  0
 58 53  2  0
 59 52  1  0
 60 50  1  0
 62 64  2  0
 63 62  1  0
 65 63  1  0
 66 75  2  0
 66 71  1  0
 67 63  1  0
 67 71  1  0
 68 67  1  0
 69 70  1  0
 69 68  1  0
 70 66  1  0
 71 72  2  0
 72 73  1  0
 74 73  2  0
 75 74  1  0
 76 50  1  0
 76 77  1  0
 76 86  1  0
 77 80  1  0
 78 82  1  0
 78 77  1  0
 79 78  2  0
 82 81  1  0
 84 85  1  0
 84 82  1  0
 84 83  1  0
 86 89  1  1
 86 87  1  0
 88 86  1  0
M  ISO  4   9 100  17 100  48 101  49 101
M  END
>  <TORSDO>  (87) 
F 18

>  <SCORE>  (87) 
-15.071

>  <name>  (87) 
87

>  <ligand_id>  (87) 
87

>  <original_smiles>  (87) 
[H]c1c([H])c([H])c2c(c1[H])C([H])([H])C([H])([H])C([H])([H])C2([H])N([H])C(=O)C1([H])N(C(=O)C([H])(N([H])C(=O)C([H])(N([H])C([H])([H])[H])C([H])([H])[H])C(C([H])([H])[H])(C([H])([H])[H])C([H])([H])[H])C([H])([H])c2c([H])c(OC([H])([H])C([H])([H])[N+]3([H])C([H])([H])C4([H])C([H])([H])C3([H])C([H])([H])C4([H])N([H])C(=O)N3C([H])([H])C([H])([H])C([H])([H])C([H])(n4nc(-c5c([H])c([H])c(Oc6c([H])c([H])c(F)c([H])c6F)c([H])c5[H])c(C(=O)N([H])[H])c4N([H])[H])C3([H])[H])c([H])c([H])c2C1([H])[H]

>  <smiles>  (87) 
[H]c1c([H])c([H])c2c(c1[H])C([H])([H])C([H])([H])C([H])([H])C2([H])N([H])C(=O)C1([H])N(C(=O)C([H])(N([H])C(=O)C([H])(N([H])C([H])([H])[H])C([H])([H])[H])C(C([H])([H])[H])(C([H])([H])[H])C([H])([H])[H])C([H])([H])c2c([H])c(OC([H])([H])C([H])([H])[N+]3([H])C([H])([H])C4([H])C([H])([H])C3([H])C([H])([H])C4([H])N([H])C(=O)N3C([H])([H])C([H])([H])C([H])([H])C([H])(n4nc(-c5c([H])c([H])c(Oc6c([H])c([H])c(F)c([H])c6F)c([H])c5[H])c(C(=O)N([H])[H])c4N([H])[H])C3([H])[H])c([H])c([H])c2C1([H])[H]

$$$$
88:0:0
     RDKit          3D

 91100  0  0  1  0  0  0  0  0999 V2000
  -29.7100  -18.9180   19.0080 C   0  0  0  0  0  2  0  0  0  0  0  0
  -29.3350  -18.2580   20.1170 C   0  0  0  0  0  3  0  0  0  0  0  0
  -27.5640  -19.6600   19.5530 C   0  0  0  0  0  2  0  0  0  0  0  0
  -28.9670  -20.6590   21.0960 C   0  0  0  0  0  2  0  0  0  0  0  0
  -28.8400  -20.1740   18.8550 C   0  0  0  0  0  3  0  0  0  0  0  0
  -28.3460  -19.2290   20.7910 C   0  0  0  0  0  3  0  0  0  0  0  0
  -29.2940  -21.2730   19.7610 N   0  0  1  0  0  4  0  0  0  0  0  0
  -30.2960  -21.3490   19.6680 H   0  0  0  0  0  0  0  0  0  0  0  0
  -29.1940  -16.6950   20.1790 C   0  0  0  0  0  2  0  0  0  0  0  0
  -30.8350  -14.7450   20.1440 C   0  0  0  0  0  0  0  0  0  0  0  0
  -30.4700  -12.5500   19.0360 C   0  0  0  0  0  2  0  0  0  0  0  0
  -29.4960  -12.6990   17.8500 C   0  0  0  0  0  2  0  0  0  0  0  0
  -28.0430  -12.5440   18.3310 C   0  0  0  0  0  2  0  0  0  0  0  0
  -27.7320  -13.4070   19.5840 C   0  0  0  0  0  3  0  0  0  0  0  0
  -28.8270  -13.2720   20.6650 C   0  0  0  0  0  2  0  0  0  0  0  0
  -30.1160  -13.5820   20.0350 N   0  0  0  0  0  0  0  0  0  0  0  0
  -31.9740  -14.8300   19.6900 O   0  0  0  0  0  0  0  0  0  0  0  0
  -30.2930  -15.8540   20.7290 N   0  0  0  0  0  0  0  0  0  0  0  0
  -31.0260  -16.4360   21.1130 H   0  0  0  0  0  0  0  0  0  0  0  0
  -25.3710  -14.0080   20.3920 C   0  0  0  0  0  0  0  0  0  0  0  0
  -24.3140  -13.2360   20.7900 C   0  0  0  0  0  0  0  0  0  0  0  0
  -24.7690  -11.8820   20.7320 C   0  0  0  0  0  0  0  0  0  0  0  0
  -26.4030  -13.1250   20.1160 N   0  0  0  0  0  0  0  0  0  0  0  0
  -26.0480  -11.8410   20.3820 N   0  0  0  0  0  0  0  0  0  0  0  0
  -24.0430  -10.6200   20.9310 C   0  0  0  0  0  0  0  0  0  0  0  0
  -24.4720   -9.6630   21.8760 C   0  0  0  0  0  3  0  0  0  0  0  0
  -23.7440   -8.4690   22.0670 C   0  0  0  0  0  3  0  0  0  0  0  0
  -22.5750   -8.2230   21.3090 C   0  0  0  0  0  0  0  0  0  0  0  0
  -22.1650   -9.1690   20.3540 C   0  0  0  0  0  3  0  0  0  0  0  0
  -22.8920  -10.3540   20.1610 C   0  0  0  0  0  3  0  0  0  0  0  0
  -21.8210   -7.0790   21.4080 O   0  0  0  0  0  0  0  0  0  0  0  0
  -21.7390   -6.3690   22.5790 C   0  0  0  0  0  0  0  0  0  0  0  0
  -21.2280   -6.9410   23.7630 C   0  0  0  0  0  3  0  0  0  0  0  0
  -21.0960   -6.1550   24.9250 C   0  0  0  0  0  3  0  0  0  0  0  0
  -21.4660   -4.7980   24.9040 C   0  0  0  0  0  0  0  0  0  0  0  0
  -21.9700   -4.2240   23.7240 C   0  0  0  0  0  3  0  0  0  0  0  0
  -22.1030   -5.0060   22.5630 C   0  0  0  0  0  0  0  0  0  0  0  0
  -22.5690   -4.4440   21.4230 F   0  0  0  0  0  0  0  0  0  0  0  0
  -21.3310   -4.0400   26.0170 F   0  0  0  0  0  0  0  0  0  0  0  0
  -22.9300  -13.7160   21.1100 C   0  0  0  0  0  0  0  0  0  0  0  0
  -22.2240  -13.0140   21.9910 N   0  0  0  0  0  0  0  0  0  0  0  0
  -22.4810  -14.7490   20.6150 O   0  0  0  0  0  0  0  0  0  0  0  0
  -22.5990  -12.1780   22.4150 H   0  0  0  0  0  0  0  0  0  0  0  0
  -21.2950  -13.3190   22.2470 H   0  0  0  0  0  0  0  0  0  0  0  0
  -25.5320  -15.3800   20.2210 N   0  0  0  0  0  0  0  0  0  0  0  0
  -24.7650  -16.0280   20.3590 H   0  0  0  0  0  0  0  0  0  0  0  0
  -26.3630  -15.8190   19.8480 H   0  0  0  0  0  0  0  0  0  0  0  0
  -28.6720  -22.6170   19.3730 C   0  0  0  0  0  2  0  0  0  0  0  0
  -29.0210  -23.9840   20.1180 C   0  0  0  0  0  2  0  0  0  0  0  0
  -28.6560  -25.2920   19.2760 C   0  0  0  0  0  2  0  0  0  0  0  0
  -28.5430  -26.6300   19.9100 O   0  0  0  0  0  0  0  0  0  0  0  0
  -24.5860  -31.7550   23.0690 C   0  0  0  0  0  0  0  0  0  0  0  0
  -27.3700  -27.4050   19.8610 C   0  0  0  0  0  0  0  0  0  0  0  0
  -23.4430  -30.3850   21.3660 C   0  0  0  0  0  3  0  0  0  0  0  0
  -24.9520  -28.9460   19.8940 C   0  0  0  0  0  0  0  0  0  0  0  0
  -25.9720  -30.7940   21.2180 C   0  0  0  0  0  2  0  0  0  0  0  0
  -26.0990  -29.4460   20.5190 C   0  0  0  0  0  0  0  0  0  0  0  0
  -27.3060  -28.6870   20.4950 C   0  0  0  0  0  3  0  0  0  0  0  0
  -26.1850  -26.9560   19.2270 C   0  0  0  0  0  3  0  0  0  0  0  0
  -24.9970  -27.7080   19.2400 C   0  0  0  0  0  3  0  0  0  0  0  0
  -23.6880  -29.7770   19.9620 C   0  0  0  0  0  2  0  0  0  0  0  0
  -24.6850  -30.9950   21.9410 N   0  0  0  0  0  0  0  0  0  0  0  0
  -23.4890  -31.9750   23.6050 O   0  0  0  0  0  0  0  0  0  0  0  0
  -22.8060  -29.3100   22.2780 C   0  0  0  0  0  0  0  0  0  0  0  0
  -21.4790  -29.1260   22.1580 N   0  0  0  0  0  0  0  0  0  0  0  0
  -23.5030  -28.6460   23.0490 O   0  0  0  0  0  0  0  0  0  0  0  0
  -20.9780  -29.7040   21.4980 H   0  0  0  0  0  0  0  0  0  0  0  0
  -18.1100  -27.9250   22.7040 C   0  0  0  0  0  0  0  0  0  0  0  0
  -20.6790  -28.1410   22.8910 C   0  0  0  0  0  3  0  0  0  0  0  0
  -20.7420  -26.7560   22.2060 C   0  0  0  0  0  2  0  0  0  0  0  0
  -19.5950  -26.5140   21.2200 C   0  0  0  0  0  2  0  0  0  0  0  0
  -18.2430  -26.6240   21.9310 C   0  0  0  0  0  2  0  0  0  0  0  0
  -19.2530  -28.6440   23.1450 C   0  0  0  0  0  0  0  0  0  0  0  0
  -19.0710  -29.8620   23.8350 C   0  0  0  0  0  3  0  0  0  0  0  0
  -17.7810  -30.3600   24.0900 C   0  0  0  0  0  3  0  0  0  0  0  0
  -16.6540  -29.6390   23.6630 C   0  0  0  0  0  3  0  0  0  0  0  0
  -16.8180  -28.4230   22.9780 C   0  0  0  0  0  3  0  0  0  0  0  0
  -25.8430  -32.4030   23.7290 C   0  0  0  0  0  3  0  0  0  0  0  0
  -26.3520  -31.6170   24.9980 C   0  0  1  0  0  0  0  0  0  0  0  0
  -25.2410  -31.3310   26.0350 C   0  0  0  0  0  1  0  0  0  0  0  0
  -26.9770  -30.2630   24.5900 C   0  0  0  0  0  1  0  0  0  0  0  0
  -27.4690  -32.4230   25.7000 C   0  0  0  0  0  1  0  0  0  0  0  0
  -25.4920  -33.7860   24.0810 N   0  0  0  0  0  0  0  0  0  0  0  0
  -25.8140  -34.8630   23.3520 C   0  0  0  0  0  0  0  0  0  0  0  0
  -26.5040  -34.7960   22.3320 O   0  0  0  0  0  0  0  0  0  0  0  0
  -24.8830  -33.9090   24.8760 H   0  0  0  0  0  0  0  0  0  0  0  0
  -24.0610  -36.6300   22.9990 C   0  0  0  0  0  1  0  0  0  0  0  0
  -25.2880  -36.2290   23.8320 C   0  0  0  0  0  3  0  0  0  0  0  0
  -27.3710  -37.1420   24.7560 C   0  0  0  0  0  1  0  0  0  0  0  0
  -26.3010  -37.3040   23.7760 N   0  0  0  0  0  0  0  0  0  0  0  0
  -25.8710  -38.2130   23.9230 H   0  0  0  0  0  0  0  0  0  0  0  0
  1  2  1  0
  2  9  1  0
  2  6  1  0
  5  1  1  0
  5  3  1  0
  5  7  1  0
  6  3  1  0
  6  4  1  0
  7  4  1  0
  7  8  1  1
  9 18  1  0
 10 18  1  0
 11 16  1  0
 12 13  1  0
 12 11  1  0
 14 13  1  0
 14 23  1  0
 14 15  1  0
 16 10  1  0
 16 15  1  0
 17 10  2  0
 18 19  1  0
 20 21  2  0
 21 40  1  0
 22 21  1  0
 22 25  1  0
 23 24  1  0
 23 20  1  0
 24 22  2  0
 25 26  1  0
 26 27  2  0
 28 31  1  0
 28 27  1  0
 29 28  2  0
 30 29  1  0
 30 25  2  0
 31 32  1  0
 32 33  1  0
 33 34  2  0
 35 34  1  0
 35 39  1  0
 36 35  2  0
 37 32  2  0
 37 36  1  0
 38 37  1  0
 40 41  1  0
 41 44  1  0
 41 43  1  0
 42 40  2  0
 45 46  1  0
 45 20  1  0
 47 45  1  0
 48  7  1  0
 48 49  1  0
 50 51  1  0
 50 49  1  0
 52 63  2  0
 53 51  1  0
 53 58  1  0
 54 62  1  0
 54 64  1  0
 55 61  1  0
 55 57  1  0
 56 62  1  0
 57 56  1  0
 58 57  2  0
 59 60  1  0
 59 53  2  0
 60 55  2  0
 61 54  1  0
 62 52  1  0
 64 66  2  0
 65 64  1  0
 67 65  1  0
 68 77  2  0
 68 73  1  0
 69 65  1  0
 69 73  1  0
 70 69  1  0
 71 72  1  0
 71 70  1  0
 72 68  1  0
 73 74  2  0
 74 75  1  0
 76 75  2  0
 77 76  1  0
 78 52  1  0
 78 83  1  0
 78 79  1  0
 79 82  1  1
 79 80  1  0
 81 79  1  0
 83 86  1  0
 84 88  1  0
 84 83  1  0
 85 84  2  0
 88 87  1  0
 90 88  1  0
 90 91  1  0
 90 89  1  0
M  ISO  4  10 100  18 100  50 101  51 101
M  END
>  <TORSDO>  (88) 
F 20

>  <SCORE>  (88) 
-13.354

>  <name>  (88) 
88

>  <ligand_id>  (88) 
88

>  <original_smiles>  (88) 
[H]C1=C(C([H])([H])N([H])C(=O)N2C([H])([H])C([H])([H])C([H])([H])C([H])(n3nc(-c4c([H])c([H])c(Oc5c([H])c([H])c(F)c([H])c5F)c([H])c4[H])c(C(=O)N([H])[H])c3N([H])[H])C2([H])[H])C2([H])C([H])([H])C1([H])[N+]([H])(C([H])([H])C([H])([H])C([H])([H])Oc1c([H])c([H])c3c(c1[H])C([H])([H])N(C(=O)C([H])(N([H])C(=O)C([H])(N([H])C([H])([H])[H])C([H])([H])[H])C(C([H])([H])[H])(C([H])([H])[H])C([H])([H])[H])C([H])(C(=O)N([H])C1([H])c4c([H])c([H])c([H])c([H])c4C([H])([H])C([H])([H])C1([H])[H])C3([H])[H])C2([H])[H]

>  <smiles>  (88) 
[H]C1=C(C([H])([H])N([H])C(=O)N2C([H])([H])C([H])([H])C([H])([H])C([H])(n3nc(-c4c([H])c([H])c(Oc5c([H])c([H])c(F)c([H])c5F)c([H])c4[H])c(C(=O)N([H])[H])c3N([H])[H])C2([H])[H])C2([H])C([H])([H])C1([H])[N+]([H])(C([H])([H])C([H])([H])C([H])([H])Oc1c([H])c([H])c3c(c1[H])C([H])([H])N(C(=O)C([H])(N([H])C(=O)C([H])(N([H])C([H])([H])[H])C([H])([H])[H])C(C([H])([H])[H])(C([H])([H])[H])C([H])([H])[H])C([H])(C(=O)N([H])C1([H])c4c([H])c([H])c([H])c([H])c4C([H])([H])C([H])([H])C1([H])[H])C3([H])[H])C2([H])[H]

$$$$
89:0:0
     RDKit          3D

 93103  0  0  1  0  0  0  0  0999 V2000
  -28.7340  -22.9320   18.8470 C   0  0  0  0  0  2  0  0  0  0  0  0
  -28.3330  -22.6750   21.3810 C   0  0  0  0  0  2  0  0  0  0  0  0
  -28.5160  -24.4860   18.9290 C   0  0  0  0  0  2  0  0  0  0  0  0
  -28.6040  -24.2230   21.4400 C   0  0  0  0  0  2  0  0  0  0  0  0
  -28.0510  -22.0860   19.9760 C   0  0  0  0  0  3  0  0  0  0  0  0
  -28.0210  -25.0510   20.2730 C   0  0  0  0  0  3  0  0  0  0  0  0
  -27.0300  -18.5400   18.8200 C   0  0  0  0  0  3  0  0  0  0  0  0
  -27.1220  -19.9320   19.0070 C   0  0  0  0  0  3  0  0  0  0  0  0
  -27.9270  -17.6620   19.4530 C   0  0  0  0  0  3  0  0  0  0  0  0
  -28.9780  -19.5870   20.5370 C   0  0  0  0  0  3  0  0  0  0  0  0
  -28.0970  -20.5060   19.8490 C   0  0  0  0  0  0  0  0  0  0  0  0
  -28.9120  -18.1440   20.3390 C   0  0  0  0  0  0  0  0  0  0  0  0
  -30.9290  -14.6950   20.2730 C   0  0  0  0  0  0  0  0  0  0  0  0
  -30.5880  -12.4260   19.3530 C   0  0  0  0  0  2  0  0  0  0  0  0
  -29.6770  -12.4510   18.1200 C   0  0  0  0  0  2  0  0  0  0  0  0
  -28.2060  -12.3140   18.5630 C   0  0  0  0  0  2  0  0  0  0  0  0
  -27.8210  -13.2810   19.7230 C   0  0  0  0  0  3  0  0  0  0  0  0
  -28.8810  -13.3090   20.8440 C   0  0  0  0  0  2  0  0  0  0  0  0
  -30.1750  -13.5600   20.2040 N   0  0  0  0  0  0  0  0  0  0  0  0
  -32.1520  -14.5840   20.1290 O   0  0  0  0  0  0  0  0  0  0  0  0
  -31.4210  -17.4730   20.9040 C   0  0  0  0  0  2  0  0  0  0  0  0
  -31.2810  -16.9950   19.4550 C   0  0  0  0  0  2  0  0  0  0  0  0
  -29.9360  -17.0820   20.9370 C   0  0  0  0  0  3  0  0  0  0  0  0
  -30.3620  -15.9450   20.0080 N   0  0  0  0  0  0  0  0  0  0  0  0
  -25.4440  -13.8830   20.4930 C   0  0  0  0  0  0  0  0  0  0  0  0
  -24.3760  -13.1180   20.8800 C   0  0  0  0  0  0  0  0  0  0  0  0
  -24.8300  -11.7680   20.8450 C   0  0  0  0  0  0  0  0  0  0  0  0
  -26.4810  -13.0010   20.2410 N   0  0  0  0  0  0  0  0  0  0  0  0
  -26.1190  -11.7200   20.5200 N   0  0  0  0  0  0  0  0  0  0  0  0
  -24.0880  -10.5120   21.0270 C   0  0  0  0  0  0  0  0  0  0  0  0
  -24.4960   -9.5450   21.9720 C   0  0  0  0  0  3  0  0  0  0  0  0
  -23.7470   -8.3610   22.1450 C   0  0  0  0  0  3  0  0  0  0  0  0
  -22.5790   -8.1400   21.3720 C   0  0  0  0  0  0  0  0  0  0  0  0
  -22.1960   -9.0990   20.4190 C   0  0  0  0  0  3  0  0  0  0  0  0
  -22.9450  -10.2740   20.2450 C   0  0  0  0  0  3  0  0  0  0  0  0
  -21.8050   -7.0060   21.4560 O   0  0  0  0  0  0  0  0  0  0  0  0
  -21.7140   -6.2810   22.6190 C   0  0  0  0  0  0  0  0  0  0  0  0
  -21.2010   -6.8410   23.8080 C   0  0  0  0  0  3  0  0  0  0  0  0
  -21.0590   -6.0440   24.9590 C   0  0  0  0  0  3  0  0  0  0  0  0
  -21.4170   -4.6840   24.9240 C   0  0  0  0  0  0  0  0  0  0  0  0
  -21.9190   -4.1190   23.7360 C   0  0  0  0  0  3  0  0  0  0  0  0
  -22.0640   -4.9160   22.5880 C   0  0  0  0  0  0  0  0  0  0  0  0
  -22.5330   -4.3610   21.4440 F   0  0  0  0  0  0  0  0  0  0  0  0
  -21.2680   -3.9180   26.0280 F   0  0  0  0  0  0  0  0  0  0  0  0
  -22.9840  -13.6170   21.1550 C   0  0  0  0  0  0  0  0  0  0  0  0
  -22.2440  -12.9360   22.0250 N   0  0  0  0  0  0  0  0  0  0  0  0
  -22.5710  -14.6610   20.6550 O   0  0  0  0  0  0  0  0  0  0  0  0
  -22.5990  -12.1040   22.4700 H   0  0  0  0  0  0  0  0  0  0  0  0
  -21.3080  -13.2450   22.2360 H   0  0  0  0  0  0  0  0  0  0  0  0
  -25.5680  -15.2480   20.2920 N   0  0  0  0  0  0  0  0  0  0  0  0
  -24.6490  -15.6700   20.2390 H   0  0  0  0  0  0  0  0  0  0  0  0
  -26.1610  -15.5690   19.5390 H   0  0  0  0  0  0  0  0  0  0  0  0
  -28.3050  -26.5040   20.3270 O   0  0  0  0  0  0  0  0  0  0  0  0
  -24.5970  -31.8970   23.1830 C   0  0  0  0  0  0  0  0  0  0  0  0
  -27.2180  -27.3650   20.1780 C   0  0  0  0  0  0  0  0  0  0  0  0
  -23.4120  -30.4800   21.5460 C   0  0  0  0  0  3  0  0  0  0  0  0
  -24.8770  -28.9640   20.1190 C   0  0  0  0  0  0  0  0  0  0  0  0
  -25.9490  -30.8290   21.3800 C   0  0  0  0  0  2  0  0  0  0  0  0
  -26.0370  -29.4570   20.7280 C   0  0  0  0  0  0  0  0  0  0  0  0
  -27.2200  -28.6710   20.7450 C   0  0  0  0  0  3  0  0  0  0  0  0
  -26.0560  -26.9410   19.5030 C   0  0  0  0  0  3  0  0  0  0  0  0
  -24.8890  -27.7130   19.4930 C   0  0  0  0  0  3  0  0  0  0  0  0
  -23.6410  -29.8280   20.1600 C   0  0  0  0  0  2  0  0  0  0  0  0
  -24.6690  -31.0860   22.0900 N   0  0  0  0  0  0  0  0  0  0  0  0
  -23.5080  -32.1630   23.7130 O   0  0  0  0  0  0  0  0  0  0  0  0
  -22.7670  -29.4480   22.4980 C   0  0  0  0  0  0  0  0  0  0  0  0
  -21.4390  -29.2660   22.3770 N   0  0  0  0  0  0  0  0  0  0  0  0
  -23.4520  -28.8260   23.3100 O   0  0  0  0  0  0  0  0  0  0  0  0
  -20.9440  -29.8190   21.6940 H   0  0  0  0  0  0  0  0  0  0  0  0
  -18.0610  -28.0970   22.9270 C   0  0  0  0  0  0  0  0  0  0  0  0
  -20.6270  -28.3290   23.1570 C   0  0  0  0  0  3  0  0  0  0  0  0
  -20.7030  -26.9010   22.5680 C   0  0  0  0  0  2  0  0  0  0  0  0
  -19.5800  -26.5990   21.5690 C   0  0  0  0  0  2  0  0  0  0  0  0
  -18.2120  -26.7520   22.2350 C   0  0  0  0  0  2  0  0  0  0  0  0
  -19.1920  -28.8440   23.3440 C   0  0  0  0  0  0  0  0  0  0  0  0
  -18.9930  -30.1050   23.9490 C   0  0  0  0  0  3  0  0  0  0  0  0
  -17.6940  -30.6180   24.1340 C   0  0  0  0  0  3  0  0  0  0  0  0
  -16.5770  -29.8670   23.7300 C   0  0  0  0  0  3  0  0  0  0  0  0
  -16.7630  -28.6050   23.1370 C   0  0  0  0  0  3  0  0  0  0  0  0
  -25.8720  -32.5430   23.8070 C   0  0  0  0  0  3  0  0  0  0  0  0
  -25.5430  -33.9350   24.1400 N   0  0  0  0  0  0  0  0  0  0  0  0
  -25.8630  -34.9930   23.3810 C   0  0  0  0  0  0  0  0  0  0  0  0
  -26.5380  -34.9000   22.3520 O   0  0  0  0  0  0  0  0  0  0  0  0
  -24.9590  -34.0840   24.9500 H   0  0  0  0  0  0  0  0  0  0  0  0
  -24.1380  -36.7710   22.9800 C   0  0  0  0  0  1  0  0  0  0  0  0
  -25.3540  -36.3740   23.8350 C   0  0  0  0  0  3  0  0  0  0  0  0
  -27.4450  -37.2660   24.7610 C   0  0  0  0  0  1  0  0  0  0  0  0
  -26.3840  -37.4360   23.7670 N   0  0  0  0  0  0  0  0  0  0  0  0
  -25.9680  -38.3550   23.8970 H   0  0  0  0  0  0  0  0  0  0  0  0
  -26.4010  -31.7770   25.0810 C   0  0  1  0  0  0  0  0  0  0  0  0
  -25.3070  -31.5050   26.1420 C   0  0  0  0  0  1  0  0  0  0  0  0
  -27.0160  -30.4170   24.6790 C   0  0  0  0  0  1  0  0  0  0  0  0
  -27.5330  -32.5940   25.7460 C   0  0  0  0  0  1  0  0  0  0  0  0
  1  3  1  0
  1  5  1  0
  2  4  1  0
  3  6  1  0
  5 11  1  0
  5  2  1  0
  6 53  1  0
  6  4  1  0
  7  8  2  0
  7  9  1  0
  8 11  1  0
  9 12  2  0
 11 10  2  0
 12 10  1  0
 14 19  1  0
 15 16  1  0
 15 14  1  0
 17 16  1  0
 17 28  1  0
 17 18  1  0
 19 13  1  0
 19 18  1  0
 20 13  2  0
 21 23  1  0
 22 24  1  0
 22 21  1  0
 23 12  1  0
 24 13  1  0
 24 23  1  0
 25 26  2  0
 26 45  1  0
 27 26  1  0
 27 30  1  0
 28 25  1  0
 28 29  1  0
 29 27  2  0
 30 31  1  0
 31 32  2  0
 33 36  1  0
 33 32  1  0
 34 33  2  0
 35 34  1  0
 35 30  2  0
 36 37  1  0
 37 38  1  0
 38 39  2  0
 40 39  1  0
 40 44  1  0
 41 40  2  0
 42 37  2  0
 42 41  1  0
 43 42  1  0
 45 46  1  0
 46 49  1  0
 46 48  1  0
 47 45  2  0
 50 25  1  0
 51 50  1  0
 52 50  1  0
 54 65  2  0
 55 53  1  0
 55 60  1  0
 56 64  1  0
 56 66  1  0
 57 63  1  0
 57 59  1  0
 58 64  1  0
 59 60  2  0
 59 58  1  0
 61 55  2  0
 62 61  1  0
 62 57  2  0
 63 56  1  0
 64 54  1  0
 66 68  2  0
 67 66  1  0
 69 67  1  0
 70 79  2  0
 70 75  1  0
 71 67  1  0
 71 75  1  0
 72 71  1  0
 73 74  1  0
 73 72  1  0
 74 70  1  0
 75 76  2  0
 76 77  1  0
 78 77  2  0
 79 78  1  0
 80 54  1  0
 80 81  1  0
 80 90  1  0
 81 84  1  0
 82 86  1  0
 82 81  1  0
 83 82  2  0
 86 85  1  0
 88 86  1  0
 88 89  1  0
 88 87  1  0
 90 93  1  1
 90 91  1  0
 92 90  1  0
M  ISO  4   6 101  13 100  24 100  53 101
M  END
>  <TORSDO>  (89) 
F 17

>  <SCORE>  (89) 
-15.500

>  <name>  (89) 
89

>  <ligand_id>  (89) 
89

>  <original_smiles>  (89) 
[H]c1c([H])c([H])c2c(c1[H])C([H])([H])C([H])([H])C([H])([H])C2([H])N([H])C(=O)C1([H])N(C(=O)C([H])(N([H])C(=O)C([H])(N([H])C([H])([H])[H])C([H])([H])[H])C(C([H])([H])[H])(C([H])([H])[H])C([H])([H])[H])C([H])([H])c2c([H])c(OC3([H])C([H])([H])C([H])([H])C([H])(c4c([H])c([H])c([H])c(C5([H])N(C(=O)N6C([H])([H])C([H])([H])C([H])([H])C([H])(n7nc(-c8c([H])c([H])c(Oc9c([H])c([H])c(F)c([H])c9F)c([H])c8[H])c(C(=O)N([H])[H])c7N([H])[H])C6([H])[H])C([H])([H])C5([H])[H])c4[H])C([H])([H])C3([H])[H])c([H])c([H])c2C1([H])[H]

>  <smiles>  (89) 
[H]c1c([H])c([H])c2c(c1[H])C([H])([H])C([H])([H])C([H])([H])C2([H])N([H])C(=O)C1([H])N(C(=O)C([H])(N([H])C(=O)C([H])(N([H])C([H])([H])[H])C([H])([H])[H])C(C([H])([H])[H])(C([H])([H])[H])C([H])([H])[H])C([H])([H])c2c([H])c(OC3([H])C([H])([H])C([H])([H])C([H])(c4c([H])c([H])c([H])c(C5([H])N(C(=O)N6C([H])([H])C([H])([H])C([H])([H])C([H])(n7nc(-c8c([H])c([H])c(Oc9c([H])c([H])c(F)c([H])c9F)c([H])c8[H])c(C(=O)N([H])[H])c7N([H])[H])C6([H])[H])C([H])([H])C5([H])[H])c4[H])C([H])([H])C3([H])[H])c([H])c([H])c2C1([H])[H]

$$$$
90:0:0
     RDKit          3D

101110  0  0  1  0  0  0  0  0999 V2000
  -28.7720  -24.1010   20.6370 C   0  0  0  0  0  2  0  0  0  0  0  0
  -29.5470  -22.8560   21.0770 C   0  0  0  0  0  2  0  0  0  0  0  0
  -30.4350  -24.7760   22.2680 C   0  0  0  0  0  2  0  0  0  0  0  0
  -29.0930  -25.2110   21.6490 C   0  0  0  0  0  3  0  0  0  0  0  0
  -30.3880  -23.2310   22.3230 C   0  0  1  0  0  0  0  0  0  0  0  0
  -29.7210  -22.7540   23.5490 N   0  0  0  0  0  4  0  0  0  0  0  0
  -28.7570  -23.0300   23.6050 H   0  0  0  0  0  0  0  0  0  0  0  0
  -30.2100  -23.0680   24.3680 H   0  0  0  0  0  0  0  0  0  0  0  0
  -29.7850  -21.7490   23.5330 H   0  0  0  0  0  0  0  0  0  0  0  0
  -29.0990  -26.6150   21.0120 C   0  0  0  0  0  2  0  0  0  0  0  0
  -28.1050  -26.6620   19.9870 O   0  0  0  0  0  0  0  0  0  0  0  0
  -24.5080  -31.8650   23.3460 C   0  0  0  0  0  0  0  0  0  0  0  0
  -26.9900  -27.4530   20.1270 C   0  0  0  0  0  0  0  0  0  0  0  0
  -23.2430  -30.5700   21.6550 C   0  0  0  0  0  3  0  0  0  0  0  0
  -24.6390  -29.0200   20.1870 C   0  0  0  0  0  0  0  0  0  0  0  0
  -25.7790  -30.8350   21.4740 C   0  0  0  0  0  2  0  0  0  0  0  0
  -25.8110  -29.4840   20.7960 C   0  0  0  0  0  0  0  0  0  0  0  0
  -26.9870  -28.7100   20.7710 C   0  0  0  0  0  3  0  0  0  0  0  0
  -25.8050  -26.9970   19.5120 C   0  0  0  0  0  3  0  0  0  0  0  0
  -24.6260  -27.7680   19.5460 C   0  0  0  0  0  3  0  0  0  0  0  0
  -23.4310  -29.9270   20.2540 C   0  0  0  0  0  2  0  0  0  0  0  0
  -24.5280  -31.1010   22.2180 N   0  0  0  0  0  0  0  0  0  0  0  0
  -23.4380  -32.1650   23.8960 O   0  0  0  0  0  0  0  0  0  0  0  0
  -22.5480  -29.5440   22.5790 C   0  0  0  0  0  0  0  0  0  0  0  0
  -21.2220  -29.4060   22.4240 N   0  0  0  0  0  0  0  0  0  0  0  0
  -23.2010  -28.8780   23.3880 O   0  0  0  0  0  0  0  0  0  0  0  0
  -20.7610  -29.9980   21.7490 H   0  0  0  0  0  0  0  0  0  0  0  0
  -17.8080  -28.2870   22.8120 C   0  0  0  0  0  0  0  0  0  0  0  0
  -20.3630  -28.4750   23.1530 C   0  0  0  0  0  3  0  0  0  0  0  0
  -20.4450  -27.0520   22.5520 C   0  0  0  0  0  2  0  0  0  0  0  0
  -19.3630  -26.7760   21.5030 C   0  0  0  0  0  2  0  0  0  0  0  0
  -17.9690  -26.9460   22.1160 C   0  0  0  0  0  2  0  0  0  0  0  0
  -18.9340  -29.0120   23.2850 C   0  0  0  0  0  0  0  0  0  0  0  0
  -18.7360  -30.2700   23.8930 C   0  0  0  0  0  3  0  0  0  0  0  0
  -17.4420  -30.8070   24.0300 C   0  0  0  0  0  3  0  0  0  0  0  0
  -16.3290  -30.0790   23.5750 C   0  0  0  0  0  3  0  0  0  0  0  0
  -16.5120  -28.8200   22.9750 C   0  0  0  0  0  3  0  0  0  0  0  0
  -25.8210  -32.4140   23.9870 C   0  0  0  0  0  3  0  0  0  0  0  0
  -25.5770  -33.8100   24.3680 N   0  0  0  0  0  0  0  0  0  0  0  0
  -25.9610  -34.8730   23.6480 C   0  0  0  0  0  0  0  0  0  0  0  0
  -26.6340  -34.7760   22.6190 O   0  0  0  0  0  0  0  0  0  0  0  0
  -24.9930  -33.9650   25.1780 H   0  0  0  0  0  0  0  0  0  0  0  0
  -24.3160  -36.7460   23.3440 C   0  0  0  0  0  1  0  0  0  0  0  0
  -25.5300  -36.2640   24.1520 C   0  0  0  0  0  3  0  0  0  0  0  0
  -27.6910  -37.0260   25.0330 C   0  0  0  0  0  1  0  0  0  0  0  0
  -26.6080  -37.2740   24.0820 N   0  0  0  0  0  0  0  0  0  0  0  0
  -26.2430  -38.2070   24.2570 H   0  0  0  0  0  0  0  0  0  0  0  0
  -26.3040  -31.5710   25.2300 C   0  0  1  0  0  0  0  0  0  0  0  0
  -25.1980  -31.3360   26.2870 C   0  0  0  0  0  1  0  0  0  0  0  0
  -26.8330  -30.1900   24.7770 C   0  0  0  0  0  1  0  0  0  0  0  0
  -27.4840  -32.2910   25.9280 C   0  0  0  0  0  1  0  0  0  0  0  0
  -31.7770  -22.5570   22.2760 C   0  0  0  0  0  2  0  0  0  0  0  0
  -32.1070  -20.3360   21.4600 C   0  0  0  0  0  0  0  0  0  0  0  0
  -31.5700  -21.1110   22.3450 N   0  0  0  0  0  2  0  0  0  0  0  0
  -33.0330  -20.6900   20.5040 N   0  0  0  0  0  4  0  0  0  0  0  0
  -33.3560  -20.0620   19.7800 H   0  0  0  0  0  0  0  0  0  0  0  0
  -33.5110  -21.5800   20.4450 H   0  0  0  0  0  0  0  0  0  0  0  0
  -30.2160  -18.6620   21.4900 C   0  0  0  0  0  3  0  0  0  0  0  0
  -32.4720  -17.8710   21.0360 C   0  0  0  0  0  3  0  0  0  0  0  0
  -29.7090  -17.3660   21.2620 C   0  0  0  0  0  3  0  0  0  0  0  0
  -31.9670  -16.5770   20.8080 C   0  0  0  0  0  3  0  0  0  0  0  0
  -31.5960  -18.9340   21.3510 C   0  0  0  0  0  0  0  0  0  0  0  0
  -30.5770  -16.3240   20.8820 C   0  0  0  0  0  0  0  0  0  0  0  0
  -30.4620  -14.1760   19.6680 C   0  0  0  0  0  0  0  0  0  0  0  0
  -29.9570  -12.0930   18.4500 C   0  0  0  0  0  2  0  0  0  0  0  0
  -28.8720  -12.3400   17.3840 C   0  0  0  0  0  2  0  0  0  0  0  0
  -27.4630  -12.2000   17.9940 C   0  0  0  0  0  2  0  0  0  0  0  0
  -27.2990  -13.0040   19.3110 C   0  0  0  0  0  3  0  0  0  0  0  0
  -28.4790  -12.7300   20.2690 C   0  0  0  0  0  2  0  0  0  0  0  0
  -29.7310  -13.0370   19.5540 N   0  0  0  0  0  0  0  0  0  0  0  0
  -31.4300  -14.4190   18.9400 O   0  0  0  0  0  0  0  0  0  0  0  0
  -30.0310  -15.0440   20.5990 N   0  0  0  0  0  0  0  0  0  0  0  0
  -29.1540  -14.8090   21.0380 H   0  0  0  0  0  0  0  0  0  0  0  0
  -25.0030  -13.6030   20.3140 C   0  0  0  0  0  0  0  0  0  0  0  0
  -23.9910  -12.8230   20.8060 C   0  0  0  0  0  0  0  0  0  0  0  0
  -24.4450  -11.4730   20.7050 C   0  0  0  0  0  0  0  0  0  0  0  0
  -26.0140  -12.7250   19.9480 N   0  0  0  0  0  0  0  0  0  0  0  0
  -25.6860  -11.4390   20.2380 N   0  0  0  0  0  0  0  0  0  0  0  0
  -23.7520  -10.2080   20.9730 C   0  0  0  0  0  0  0  0  0  0  0  0
  -24.2280   -9.2930   21.9380 C   0  0  0  0  0  3  0  0  0  0  0  0
  -23.5300   -8.0900   22.1890 C   0  0  0  0  0  3  0  0  0  0  0  0
  -22.3440   -7.7940   21.4750 C   0  0  0  0  0  0  0  0  0  0  0  0
  -21.8900   -8.6980   20.4990 C   0  0  0  0  0  3  0  0  0  0  0  0
  -22.5870   -9.8920   20.2460 C   0  0  0  0  0  3  0  0  0  0  0  0
  -21.6160   -6.6400   21.6340 O   0  0  0  0  0  0  0  0  0  0  0  0
  -21.5530   -5.9890   22.8390 C   0  0  0  0  0  0  0  0  0  0  0  0
  -21.0570   -6.6180   24.0020 C   0  0  0  0  0  3  0  0  0  0  0  0
  -20.9460   -5.8910   25.2040 C   0  0  0  0  0  3  0  0  0  0  0  0
  -21.3200   -4.5350   25.2440 C   0  0  0  0  0  0  0  0  0  0  0  0
  -21.8110   -3.9050   24.0860 C   0  0  0  0  0  3  0  0  0  0  0  0
  -21.9240   -4.6300   22.8860 C   0  0  0  0  0  0  0  0  0  0  0  0
  -22.3770   -4.0130   21.7690 F   0  0  0  0  0  0  0  0  0  0  0  0
  -21.2060   -3.8330   26.3950 F   0  0  0  0  0  0  0  0  0  0  0  0
  -22.6380  -13.2950   21.2570 C   0  0  0  0  0  0  0  0  0  0  0  0
  -22.0410  -12.6080   22.2250 N   0  0  0  0  0  0  0  0  0  0  0  0
  -22.1230  -14.3060   20.7830 O   0  0  0  0  0  0  0  0  0  0  0  0
  -22.4740  -11.7900   22.6280 H   0  0  0  0  0  0  0  0  0  0  0  0
  -21.1380  -12.9050   22.5670 H   0  0  0  0  0  0  0  0  0  0  0  0
  -25.1440  -14.9740   20.1290 N   0  0  0  0  0  0  0  0  0  0  0  0
  -24.3930  -15.6260   20.3280 H   0  0  0  0  0  0  0  0  0  0  0  0
  -25.9460  -15.4150   19.6940 H   0  0  0  0  0  0  0  0  0  0  0  0
  1  2  1  0
  1  4  1  0
  2  5  1  0
  3  5  1  0
  4 10  1  0
  4  3  1  0
  5 52  1  6
  5  6  1  0
  6  7  1  0
  6  8  1  0
  9  6  1  0
 11 13  1  0
 11 10  1  0
 12 23  2  0
 13 18  1  0
 14 22  1  0
 14 24  1  0
 15 21  1  0
 15 17  1  0
 16 22  1  0
 17 16  1  0
 18 17  2  0
 19 20  1  0
 19 13  2  0
 20 15  2  0
 21 14  1  0
 22 12  1  0
 24 26  2  0
 25 24  1  0
 27 25  1  0
 28 37  2  0
 28 33  1  0
 29 25  1  0
 29 33  1  0
 30 29  1  0
 31 32  1  0
 31 30  1  0
 32 28  1  0
 33 34  2  0
 34 35  1  0
 36 35  2  0
 37 36  1  0
 38 12  1  0
 38 39  1  0
 38 48  1  0
 39 42  1  0
 40 44  1  0
 40 39  1  0
 41 40  2  0
 44 43  1  0
 46 44  1  0
 46 47  1  0
 46 45  1  0
 48 51  1  1
 48 49  1  0
 50 48  1  0
 52 54  1  0
 53 54  1  0
 55 53  2  0
 56 55  1  0
 57 55  1  0
 59 62  2  0
 60 58  2  0
 61 63  2  0
 61 59  1  0
 62 53  1  0
 62 58  1  0
 63 60  1  0
 64 72  1  0
 65 70  1  0
 66 67  1  0
 66 65  1  0
 68 67  1  0
 68 77  1  0
 68 69  1  0
 70 64  1  0
 70 69  1  0
 71 64  2  0
 72 63  1  0
 72 73  1  0
 74 75  2  0
 75 94  1  0
 76 75  1  0
 76 79  1  0
 77 78  1  0
 77 74  1  0
 78 76  2  0
 79 80  1  0
 80 81  2  0
 82 85  1  0
 82 81  1  0
 83 82  2  0
 84 83  1  0
 84 79  2  0
 85 86  1  0
 86 91  2  0
 86 87  1  0
 87 88  2  0
 88 89  1  0
 89 93  1  0
 90 89  2  0
 91 90  1  0
 92 91  1  0
 94 95  1  0
 95 98  1  0
 95 97  1  0
 96 94  2  0
 99 74  1  0
 99100  1  0
101 99  1  0
M  ISO  4  10 101  11 101  64 100  72 100
M  END
>  <TORSDO>  (90) 
F 21

>  <SCORE>  (90) 
-11.391

>  <name>  (90) 
90

>  <ligand_id>  (90) 
90

>  <original_smiles>  (90) 
[H]c1c([H])c([H])c2c(c1[H])C([H])([H])C([H])([H])C([H])([H])C2([H])N([H])C(=O)C1([H])N(C(=O)C([H])(N([H])C(=O)C([H])(N([H])C([H])([H])[H])C([H])([H])[H])C(C([H])([H])[H])(C([H])([H])[H])C([H])([H])[H])C([H])([H])c2c([H])c(OC([H])([H])C3([H])C([H])([H])C([H])([H])C(C([H])([H])N=C(c4c([H])c([H])c(N([H])C(=O)N5C([H])([H])C([H])([H])C([H])([H])C([H])(n6nc(-c7c([H])c([H])c(Oc8c([H])c([H])c(F)c([H])c8F)c([H])c7[H])c(C(=O)N([H])[H])c6N([H])[H])C5([H])[H])c([H])c4[H])N([H])[H])([N+]([H])([H])[H])C3([H])[H])c([H])c([H])c2C1([H])[H]

>  <smiles>  (90) 
[H]c1c([H])c([H])c2c(c1[H])C([H])([H])C([H])([H])C([H])([H])C2([H])N([H])C(=O)C1([H])N(C(=O)C([H])(N([H])C(=O)C([H])(N([H])C([H])([H])[H])C([H])([H])[H])C(C([H])([H])[H])(C([H])([H])[H])C([H])([H])[H])C([H])([H])c2c([H])c(OC([H])([H])C3([H])C([H])([H])C([H])([H])C(C([H])([H])N=C(c4c([H])c([H])c(N([H])C(=O)N5C([H])([H])C([H])([H])C([H])([H])C([H])(n6nc(-c7c([H])c([H])c(Oc8c([H])c([H])c(F)c([H])c8F)c([H])c7[H])c(C(=O)N([H])[H])c6N([H])[H])C5([H])[H])c([H])c4[H])N([H])[H])([N+]([H])([H])[H])C3([H])[H])c([H])c([H])c2C1([H])[H]

$$$$
91:0:0
     RDKit          3D

 96105  0  0  1  0  0  0  0  0999 V2000
  -31.1200  -20.2780   19.6640 C   0  0  0  0  0  3  0  0  0  0  0  0
  -29.3610  -18.7830   20.4280 C   0  0  0  0  0  3  0  0  0  0  0  0
  -31.5240  -17.8600   19.8130 C   0  0  0  0  0  3  0  0  0  0  0  0
  -29.7890  -20.1690   20.1190 C   0  0  0  0  0  0  0  0  0  0  0  0
  -31.9700  -19.1650   19.5100 C   0  0  0  0  0  0  0  0  0  0  0  0
  -30.2150  -17.5740   20.2720 C   0  0  0  0  0  0  0  0  0  0  0  0
  -30.5580  -14.8920   20.3430 C   0  0  0  0  0  0  0  0  0  0  0  0
  -30.3430  -12.5780   19.3730 C   0  0  0  0  0  2  0  0  0  0  0  0
  -29.4010  -12.6040   18.1500 C   0  0  0  0  0  2  0  0  0  0  0  0
  -27.9400  -12.4100   18.5950 C   0  0  0  0  0  2  0  0  0  0  0  0
  -27.5640  -13.3080   19.8040 C   0  0  0  0  0  3  0  0  0  0  0  0
  -28.6350  -13.2830   20.9160 C   0  0  0  0  0  2  0  0  0  0  0  0
  -29.9080  -13.6650   20.2950 N   0  0  0  0  0  0  0  0  0  0  0  0
  -31.7580  -14.8820   20.0560 O   0  0  0  0  0  0  0  0  0  0  0  0
  -29.8450  -16.1080   20.5170 N   0  0  0  0  0  0  0  0  0  0  0  0
  -28.8870  -15.9620   20.7930 H   0  0  0  0  0  0  0  0  0  0  0  0
  -25.1880  -13.8740   20.5660 C   0  0  0  0  0  0  0  0  0  0  0  0
  -24.1280  -13.0950   20.9390 C   0  0  0  0  0  0  0  0  0  0  0  0
  -24.5960  -11.7440   20.8940 C   0  0  0  0  0  0  0  0  0  0  0  0
  -26.2310  -13.0010   20.3130 N   0  0  0  0  0  0  0  0  0  0  0  0
  -25.8850  -11.7140   20.5740 N   0  0  0  0  0  0  0  0  0  0  0  0
  -23.8720  -10.4780   21.0790 C   0  0  0  0  0  0  0  0  0  0  0  0
  -24.3140   -9.5010   21.9970 C   0  0  0  0  0  3  0  0  0  0  0  0
  -23.5890   -8.3030   22.1720 C   0  0  0  0  0  3  0  0  0  0  0  0
  -22.4070   -8.0730   21.4290 C   0  0  0  0  0  0  0  0  0  0  0  0
  -21.9810   -9.0410   20.5010 C   0  0  0  0  0  3  0  0  0  0  0  0
  -22.7080  -10.2310   20.3240 C   0  0  0  0  0  3  0  0  0  0  0  0
  -21.6500   -6.9290   21.5150 O   0  0  0  0  0  0  0  0  0  0  0  0
  -21.6180   -6.1720   22.6580 C   0  0  0  0  0  0  0  0  0  0  0  0
  -21.2000   -6.7090   23.8950 C   0  0  0  0  0  3  0  0  0  0  0  0
  -21.1160   -5.8790   25.0310 C   0  0  0  0  0  3  0  0  0  0  0  0
  -21.4370   -4.5130   24.9310 C   0  0  0  0  0  0  0  0  0  0  0  0
  -21.8480   -3.9750   23.6980 C   0  0  0  0  0  3  0  0  0  0  0  0
  -21.9350   -4.8020   22.5650 C   0  0  0  0  0  0  0  0  0  0  0  0
  -22.3110   -4.2740   21.3750 F   0  0  0  0  0  0  0  0  0  0  0  0
  -21.3480   -3.7130   26.0190 F   0  0  0  0  0  0  0  0  0  0  0  0
  -22.7340  -13.5670   21.2240 C   0  0  0  0  0  0  0  0  0  0  0  0
  -22.0150  -12.8670   22.0940 N   0  0  0  0  0  0  0  0  0  0  0  0
  -22.2910  -14.5940   20.7110 O   0  0  0  0  0  0  0  0  0  0  0  0
  -22.3890  -12.0350   22.5270 H   0  0  0  0  0  0  0  0  0  0  0  0
  -21.0810  -13.1670   22.3310 H   0  0  0  0  0  0  0  0  0  0  0  0
  -25.3480  -15.2460   20.3940 N   0  0  0  0  0  0  0  0  0  0  0  0
  -24.5730  -15.8940   20.4860 H   0  0  0  0  0  0  0  0  0  0  0  0
  -26.1810  -15.6800   20.0190 H   0  0  0  0  0  0  0  0  0  0  0  0
  -29.0880  -22.4340   19.0840 C   0  0  0  0  0  3  0  0  0  0  0  0
  -29.0720  -21.5910   20.1660 C   0  0  0  0  0  0  0  0  0  0  0  0
  -28.6940  -23.9680   18.9750 C   0  0  0  0  0  2  0  0  0  0  0  0
  -28.6060  -22.3390   21.4390 C   0  0  0  0  0  2  0  0  0  0  0  0
  -28.7560  -23.9410   21.4350 C   0  0  0  0  0  2  0  0  0  0  0  0
  -28.1200  -24.7410   20.2330 C   0  0  0  0  0  3  0  0  0  0  0  0
  -28.2840  -26.2800   20.2600 O   0  0  0  0  0  0  0  0  0  0  0  0
  -24.6380  -31.9090   23.2400 C   0  0  0  0  0  0  0  0  0  0  0  0
  -27.1970  -27.2110   20.2100 C   0  0  0  0  0  0  0  0  0  0  0  0
  -23.4280  -30.5140   21.6040 C   0  0  0  0  0  3  0  0  0  0  0  0
  -24.8680  -28.9310   20.1820 C   0  0  0  0  0  0  0  0  0  0  0  0
  -25.9790  -30.7790   21.4330 C   0  0  0  0  0  2  0  0  0  0  0  0
  -26.0460  -29.3870   20.7850 C   0  0  0  0  0  0  0  0  0  0  0  0
  -27.2120  -28.5420   20.7800 C   0  0  0  0  0  3  0  0  0  0  0  0
  -25.9960  -26.8460   19.5670 C   0  0  0  0  0  3  0  0  0  0  0  0
  -24.8510  -27.6720   19.5590 C   0  0  0  0  0  3  0  0  0  0  0  0
  -23.6420  -29.8290   20.2280 C   0  0  0  0  0  2  0  0  0  0  0  0
  -24.7020  -31.0880   22.1480 N   0  0  0  0  0  0  0  0  0  0  0  0
  -23.5550  -32.2020   23.7670 O   0  0  0  0  0  0  0  0  0  0  0  0
  -22.7450  -29.5140   22.5700 C   0  0  0  0  0  0  0  0  0  0  0  0
  -21.4150  -29.3560   22.4460 N   0  0  0  0  0  0  0  0  0  0  0  0
  -23.4130  -28.8820   23.3920 O   0  0  0  0  0  0  0  0  0  0  0  0
  -20.9350  -29.9240   21.7620 H   0  0  0  0  0  0  0  0  0  0  0  0
  -18.0220  -28.1950   22.9530 C   0  0  0  0  0  0  0  0  0  0  0  0
  -20.5840  -28.4270   23.2150 C   0  0  0  0  0  3  0  0  0  0  0  0
  -20.6670  -26.9960   22.6380 C   0  0  0  0  0  2  0  0  0  0  0  0
  -19.5590  -26.6850   21.6270 C   0  0  0  0  0  2  0  0  0  0  0  0
  -18.1800  -26.8450   22.2740 C   0  0  0  0  0  2  0  0  0  0  0  0
  -19.1510  -28.9460   23.3790 C   0  0  0  0  0  0  0  0  0  0  0  0
  -18.9480  -30.2090   23.9760 C   0  0  0  0  0  3  0  0  0  0  0  0
  -17.6500  -30.7240   24.1480 C   0  0  0  0  0  3  0  0  0  0  0  0
  -16.5350  -29.9730   23.7370 C   0  0  0  0  0  3  0  0  0  0  0  0
  -16.7220  -28.7090   23.1480 C   0  0  0  0  0  3  0  0  0  0  0  0
  -25.9200  -32.5390   23.8670 C   0  0  0  0  0  3  0  0  0  0  0  0
  -25.6130  -33.9350   24.2110 N   0  0  0  0  0  0  0  0  0  0  0  0
  -25.9240  -34.9950   23.4530 C   0  0  0  0  0  0  0  0  0  0  0  0
  -26.5660  -34.8990   22.4030 O   0  0  0  0  0  0  0  0  0  0  0  0
  -25.0460  -34.0850   25.0320 H   0  0  0  0  0  0  0  0  0  0  0  0
  -24.1710  -36.7780   23.1750 C   0  0  0  0  0  1  0  0  0  0  0  0
  -25.4480  -36.3800   23.9330 C   0  0  0  0  0  3  0  0  0  0  0  0
  -27.6090  -37.2760   24.6780 C   0  0  0  0  0  1  0  0  0  0  0  0
  -26.4680  -37.4400   23.7810 N   0  0  0  0  0  0  0  0  0  0  0  0
  -26.0630  -38.3580   23.9500 H   0  0  0  0  0  0  0  0  0  0  0  0
  -26.4340  -31.7600   25.1410 C   0  0  1  0  0  0  0  0  0  0  0  0
  -25.3420  -31.5180   26.2080 C   0  0  0  0  0  1  0  0  0  0  0  0
  -27.0150  -30.3840   24.7410 C   0  0  0  0  0  1  0  0  0  0  0  0
  -27.5890  -32.5480   25.8060 C   0  0  0  0  0  1  0  0  0  0  0  0
  -33.3800  -19.3880   19.0500 C   0  0  0  0  0  0  0  0  0  0  0  0
  -33.8540  -18.5150   18.1710 N   0  0  0  0  0  0  0  0  0  0  0  0
  -34.0380  -20.3540   19.4300 O   0  0  0  0  0  0  0  0  0  0  0  0
  -33.2690  -17.7560   17.8490 H   0  0  0  0  0  0  0  0  0  0  0  0
  -34.7850  -18.6200   17.7980 H   0  0  0  0  0  0  0  0  0  0  0  0
  1  4  1  0
  3  6  2  0
  4 46  1  0
  4  2  2  0
  5  1  2  0
  5  3  1  0
  6  2  1  0
  6 15  1  0
  7 15  1  0
  8 13  1  0
  9 10  1  0
  9  8  1  0
 11 10  1  0
 11 20  1  0
 11 12  1  0
 13  7  1  0
 13 12  1  0
 14  7  2  0
 15 16  1  0
 17 18  2  0
 18 37  1  0
 19 18  1  0
 19 22  1  0
 20 17  1  0
 20 21  1  0
 21 19  2  0
 22 23  1  0
 23 24  2  0
 25 28  1  0
 25 24  1  0
 26 25  2  0
 27 26  1  0
 27 22  2  0
 28 29  1  0
 29 30  1  0
 30 31  2  0
 32 31  1  0
 32 36  1  0
 33 32  2  0
 34 29  2  0
 34 33  1  0
 35 34  1  0
 37 38  1  0
 38 41  1  0
 38 40  1  0
 39 37  2  0
 42 43  1  0
 42 17  1  0
 44 42  1  0
 45 46  2  0
 46 48  1  0
 47 45  1  0
 47 50  1  0
 49 48  1  0
 50 51  1  0
 50 49  1  0
 52 63  2  0
 53 51  1  0
 53 58  1  0
 54 62  1  0
 54 64  1  0
 55 61  1  0
 55 57  1  0
 56 62  1  0
 57 56  1  0
 58 57  2  0
 59 53  2  0
 60 59  1  0
 60 55  2  0
 61 54  1  0
 62 52  1  0
 64 66  2  0
 65 64  1  0
 67 65  1  0
 68 77  2  0
 68 73  1  0
 69 65  1  0
 69 73  1  0
 70 69  1  0
 71 72  1  0
 71 70  1  0
 72 68  1  0
 73 74  2  0
 74 75  1  0
 76 75  2  0
 77 76  1  0
 78 52  1  0
 78 79  1  0
 78 88  1  0
 79 82  1  0
 80 84  1  0
 80 79  1  0
 81 80  2  0
 84 83  1  0
 86 84  1  0
 86 87  1  0
 86 85  1  0
 88 91  1  1
 88 89  1  0
 90 88  1  0
 92 94  2  0
 92  5  1  0
 93 92  1  0
 95 93  1  0
 96 93  1  0
M  ISO  4   7 100  15 100  50 101  51 101
M  END
>  <TORSDO>  (91) 
F 18

>  <SCORE>  (91) 
-14.847

>  <name>  (91) 
91

>  <ligand_id>  (91) 
91

>  <original_smiles>  (91) 
[H]C1=C(c2c([H])c(C(=O)N([H])[H])c([H])c(N([H])C(=O)N3C([H])([H])C([H])([H])C([H])([H])C([H])(n4nc(-c5c([H])c([H])c(Oc6c([H])c([H])c(F)c([H])c6F)c([H])c5[H])c(C(=O)N([H])[H])c4N([H])[H])C3([H])[H])c2[H])C([H])([H])C([H])([H])C([H])(Oc2c([H])c([H])c3c(c2[H])C([H])([H])N(C(=O)C([H])(N([H])C(=O)C([H])(N([H])C([H])([H])[H])C([H])([H])[H])C(C([H])([H])[H])(C([H])([H])[H])C([H])([H])[H])C([H])(C(=O)N([H])C2([H])c4c([H])c([H])c([H])c([H])c4C([H])([H])C([H])([H])C2([H])[H])C3([H])[H])C1([H])[H]

>  <smiles>  (91) 
[H]C1=C(c2c([H])c(C(=O)N([H])[H])c([H])c(N([H])C(=O)N3C([H])([H])C([H])([H])C([H])([H])C([H])(n4nc(-c5c([H])c([H])c(Oc6c([H])c([H])c(F)c([H])c6F)c([H])c5[H])c(C(=O)N([H])[H])c4N([H])[H])C3([H])[H])c2[H])C([H])([H])C([H])([H])C([H])(Oc2c([H])c([H])c3c(c2[H])C([H])([H])N(C(=O)C([H])(N([H])C(=O)C([H])(N([H])C([H])([H])[H])C([H])([H])[H])C(C([H])([H])[H])(C([H])([H])[H])C([H])([H])[H])C([H])(C(=O)N([H])C2([H])c4c([H])c([H])c([H])c([H])c4C([H])([H])C([H])([H])C2([H])[H])C3([H])[H])C1([H])[H]

$$$$
92:0:0
     RDKit          3D

 89 97  0  0  1  0  0  0  0  0999 V2000
  -27.0680  -19.9340   20.0790 C   0  0  0  0  0  3  0  0  0  0  0  0
  -27.9760  -18.8440   20.0530 C   0  0  0  0  0  3  0  0  0  0  0  0
  -27.4760  -21.2950   20.0680 C   0  0  0  0  0  3  0  0  0  0  0  0
  -29.7550  -20.4880   19.9900 C   0  0  0  0  0  3  0  0  0  0  0  0
  -29.3740  -19.0360   20.0100 C   0  0  0  0  0  0  0  0  0  0  0  0
  -28.8370  -21.6740   20.0190 C   0  0  0  0  0  0  0  0  0  0  0  0
  -30.7790  -15.1580   19.9720 C   0  0  0  0  0  0  0  0  0  0  0  0
  -30.6520  -12.7620   19.1170 C   0  0  0  0  0  2  0  0  0  0  0  0
  -29.6880  -12.6510   17.9120 C   0  0  0  0  0  2  0  0  0  0  0  0
  -28.2420  -12.4400   18.3980 C   0  0  0  0  0  2  0  0  0  0  0  0
  -27.8570  -13.4040   19.5510 C   0  0  0  0  0  3  0  0  0  0  0  0
  -28.9420  -13.4790   20.6440 C   0  0  0  0  0  2  0  0  0  0  0  0
  -30.1840  -13.8910   19.9820 N   0  0  0  0  0  0  0  0  0  0  0  0
  -31.9770  -15.1680   19.6640 O   0  0  0  0  0  0  0  0  0  0  0  0
  -30.3620  -17.7520   19.9520 C   0  0  0  0  0  0  0  0  0  0  0  0
  -30.0100  -16.3670   20.1060 N   0  0  0  0  0  0  0  0  0  0  0  0
  -31.5420  -18.0460   19.7390 O   0  0  0  0  0  0  0  0  0  0  0  0
  -29.0430  -16.2150   20.3290 H   0  0  0  0  0  0  0  0  0  0  0  0
  -25.5200  -13.9910   20.4080 C   0  0  0  0  0  0  0  0  0  0  0  0
  -24.4650  -13.2210   20.8120 C   0  0  0  0  0  0  0  0  0  0  0  0
  -24.9100  -11.8660   20.7330 C   0  0  0  0  0  0  0  0  0  0  0  0
  -26.5390  -13.1070   20.1000 N   0  0  0  0  0  0  0  0  0  0  0  0
  -26.1860  -11.8220   20.3630 N   0  0  0  0  0  0  0  0  0  0  0  0
  -24.1750  -10.6090   20.9270 C   0  0  0  0  0  0  0  0  0  0  0  0
  -24.5950   -9.6450   21.8690 C   0  0  0  0  0  3  0  0  0  0  0  0
  -23.8610   -8.4540   22.0510 C   0  0  0  0  0  3  0  0  0  0  0  0
  -22.6920   -8.2170   21.2890 C   0  0  0  0  0  0  0  0  0  0  0  0
  -22.2910   -9.1690   20.3360 C   0  0  0  0  0  3  0  0  0  0  0  0
  -23.0260  -10.3520   20.1520 C   0  0  0  0  0  3  0  0  0  0  0  0
  -21.9280   -7.0770   21.3810 O   0  0  0  0  0  0  0  0  0  0  0  0
  -21.7780   -6.4050   22.5680 C   0  0  0  0  0  0  0  0  0  0  0  0
  -21.1500   -6.9970   23.6860 C   0  0  0  0  0  3  0  0  0  0  0  0
  -20.9520   -6.2450   24.8620 C   0  0  0  0  0  3  0  0  0  0  0  0
  -21.3770   -4.9040   24.9210 C   0  0  0  0  0  0  0  0  0  0  0  0
  -21.9970   -4.3110   23.8070 C   0  0  0  0  0  3  0  0  0  0  0  0
  -22.1960   -5.0600   22.6340 C   0  0  0  0  0  0  0  0  0  0  0  0
  -22.7750   -4.4770   21.5570 F   0  0  0  0  0  0  0  0  0  0  0  0
  -21.1810   -4.1810   26.0480 F   0  0  0  0  0  0  0  0  0  0  0  0
  -23.0850  -13.7100   21.1450 C   0  0  0  0  0  0  0  0  0  0  0  0
  -22.3890  -13.0240   22.0440 N   0  0  0  0  0  0  0  0  0  0  0  0
  -22.6330  -14.7370   20.6420 O   0  0  0  0  0  0  0  0  0  0  0  0
  -22.7660  -12.1950   22.4800 H   0  0  0  0  0  0  0  0  0  0  0  0
  -21.4660  -13.3360   22.3070 H   0  0  0  0  0  0  0  0  0  0  0  0
  -25.6920  -15.3610   20.2450 N   0  0  0  0  0  0  0  0  0  0  0  0
  -24.9270  -16.0100   20.3890 H   0  0  0  0  0  0  0  0  0  0  0  0
  -26.4700  -15.7680   19.7420 H   0  0  0  0  0  0  0  0  0  0  0  0
  -29.2230  -23.3040   20.0410 C   0  0  0  0  0  3  0  0  0  0  0  0
  -28.1860  -24.6650   19.9170 C   0  0  0  0  0  3  0  0  0  0  0  0
  -28.4800  -26.2040   20.1620 O   0  0  0  0  0  0  0  0  0  0  0  0
  -24.7430  -31.7770   23.3280 C   0  0  0  0  0  0  0  0  0  0  0  0
  -27.4490  -27.2290   20.1170 C   0  0  0  0  0  0  0  0  0  0  0  0
  -23.6280  -30.5030   21.5400 C   0  0  0  0  0  3  0  0  0  0  0  0
  -25.1410  -29.0200   20.0820 C   0  0  0  0  0  0  0  0  0  0  0  0
  -26.1910  -30.7550   21.5250 C   0  0  0  0  0  2  0  0  0  0  0  0
  -26.2920  -29.4080   20.7800 C   0  0  0  0  0  0  0  0  0  0  0  0
  -27.4490  -28.5320   20.7760 C   0  0  0  0  0  3  0  0  0  0  0  0
  -26.2700  -26.9570   19.3900 C   0  0  0  0  0  3  0  0  0  0  0  0
  -25.1470  -27.8110   19.3740 C   0  0  0  0  0  3  0  0  0  0  0  0
  -23.9160  -29.9230   20.1310 C   0  0  0  0  0  2  0  0  0  0  0  0
  -24.8730  -31.0330   22.1870 N   0  0  0  0  0  0  0  0  0  0  0  0
  -23.6310  -32.0280   23.8180 O   0  0  0  0  0  0  0  0  0  0  0  0
  -22.8990  -29.4360   22.3960 C   0  0  0  0  0  0  0  0  0  0  0  0
  -21.5660  -29.3290   22.2420 N   0  0  0  0  0  0  0  0  0  0  0  0
  -23.5350  -28.7090   23.1620 O   0  0  0  0  0  0  0  0  0  0  0  0
  -21.1100  -29.9690   21.6080 H   0  0  0  0  0  0  0  0  0  0  0  0
  -18.1220  -28.3020   22.7200 C   0  0  0  0  0  0  0  0  0  0  0  0
  -20.7010  -28.3520   22.9110 C   0  0  0  0  0  3  0  0  0  0  0  0
  -20.6770  -27.0090   22.1450 C   0  0  0  0  0  2  0  0  0  0  0  0
  -19.5230  -26.9040   21.1440 C   0  0  0  0  0  2  0  0  0  0  0  0
  -18.1760  -27.0520   21.8580 C   0  0  0  0  0  2  0  0  0  0  0  0
  -19.3070  -28.9210   23.2000 C   0  0  0  0  0  0  0  0  0  0  0  0
  -19.1970  -30.0990   23.9700 C   0  0  0  0  0  3  0  0  0  0  0  0
  -17.9370  -30.6580   24.2580 C   0  0  0  0  0  3  0  0  0  0  0  0
  -16.7670  -30.0340   23.7890 C   0  0  0  0  0  3  0  0  0  0  0  0
  -16.8610  -28.8550   23.0280 C   0  0  0  0  0  3  0  0  0  0  0  0
  -25.9840  -32.3650   24.0650 C   0  0  0  0  0  3  0  0  0  0  0  0
  -25.6720  -33.7560   24.4310 N   0  0  0  0  0  0  0  0  0  0  0  0
  -25.9920  -34.8310   23.6980 C   0  0  0  0  0  0  0  0  0  0  0  0
  -26.6470  -34.7560   22.6560 O   0  0  0  0  0  0  0  0  0  0  0  0
  -25.0860  -33.8870   25.2430 H   0  0  0  0  0  0  0  0  0  0  0  0
  -24.2320  -36.6140   23.4520 C   0  0  0  0  0  1  0  0  0  0  0  0
  -25.5120  -36.2090   24.2000 C   0  0  0  0  0  3  0  0  0  0  0  0
  -27.6570  -37.1260   24.9720 C   0  0  0  0  0  1  0  0  0  0  0  0
  -26.5270  -37.2750   24.0560 N   0  0  0  0  0  0  0  0  0  0  0  0
  -26.1150  -38.1920   24.2040 H   0  0  0  0  0  0  0  0  0  0  0  0
  -26.3920  -31.5400   25.3490 C   0  0  1  0  0  0  0  0  0  0  0  0
  -25.2200  -31.2820   26.3250 C   0  0  0  0  0  1  0  0  0  0  0  0
  -26.9840  -30.1670   24.9560 C   0  0  0  0  0  1  0  0  0  0  0  0
  -27.5010  -32.2920   26.1210 C   0  0  0  0  0  1  0  0  0  0  0  0
  2  1  2  0
  3  1  1  0
  4  5  2  0
  4  6  1  0
  5  2  1  0
  6 47  1  0
  6  3  2  0
  7 13  1  0
  7 16  1  0
  8 13  1  0
  9 10  1  0
  9  8  1  0
 11 10  1  0
 11 22  1  0
 11 12  1  0
 13 12  1  0
 14  7  2  0
 15  5  1  0
 15 16  1  0
 16 18  1  0
 17 15  2  0
 19 20  2  0
 20 39  1  0
 21 20  1  0
 21 24  1  0
 22 23  1  0
 22 19  1  0
 23 21  2  0
 24 25  1  0
 25 26  2  0
 27 30  1  0
 27 26  1  0
 28 27  2  0
 29 28  1  0
 29 24  2  0
 30 31  1  0
 31 36  2  0
 31 32  1  0
 32 33  2  0
 33 34  1  0
 34 38  1  0
 35 34  2  0
 36 35  1  0
 37 36  1  0
 39 40  1  0
 40 43  1  0
 40 42  1  0
 41 39  2  0
 44 45  1  0
 44 19  1  0
 46 44  1  0
 48 47  2  0
 48 49  1  0
 50 61  2  0
 51 49  1  0
 51 56  1  0
 52 60  1  0
 52 62  1  0
 53 59  1  0
 53 55  1  0
 54 60  1  0
 55 54  1  0
 56 55  2  0
 57 51  2  0
 58 57  1  0
 58 53  2  0
 59 52  1  0
 60 50  1  0
 62 64  2  0
 63 62  1  0
 65 63  1  0
 66 75  2  0
 66 71  1  0
 67 63  1  0
 67 71  1  0
 68 67  1  0
 69 70  1  0
 69 68  1  0
 70 66  1  0
 71 72  2  0
 72 73  1  0
 74 73  2  0
 75 74  1  0
 76 50  1  0
 76 77  1  0
 76 86  1  0
 77 80  1  0
 78 82  1  0
 78 77  1  0
 79 78  2  0
 82 81  1  0
 84 82  1  0
 84 85  1  0
 84 83  1  0
 86 89  1  1
 86 87  1  0
 88 86  1  0
M  ISO  4   7 100  16 100  48 101  49 101
M  END
>  <TORSDO>  (92) 
F 18

>  <SCORE>  (92) 
-14.345

>  <name>  (92) 
92

>  <ligand_id>  (92) 
92

>  <original_smiles>  (92) 
[H]c1c([H])c(C(=O)N([H])C(=O)N2C([H])([H])C([H])([H])C([H])([H])C([H])(n3nc(-c4c([H])c([H])c(Oc5c([H])c([H])c(F)c([H])c5F)c([H])c4[H])c(C(=O)N([H])[H])c3N([H])[H])C2([H])[H])c([H])c(C([H])([H])C([H])([H])Oc2c([H])c([H])c3c(c2[H])C([H])([H])N(C(=O)C([H])(N([H])C(=O)C([H])(N([H])C([H])([H])[H])C([H])([H])[H])C(C([H])([H])[H])(C([H])([H])[H])C([H])([H])[H])C([H])(C(=O)N([H])C2([H])c4c([H])c([H])c([H])c([H])c4C([H])([H])C([H])([H])C2([H])[H])C3([H])[H])c1[H]

>  <smiles>  (92) 
[H]c1c([H])c(C(=O)N([H])C(=O)N2C([H])([H])C([H])([H])C([H])([H])C([H])(n3nc(-c4c([H])c([H])c(Oc5c([H])c([H])c(F)c([H])c5F)c([H])c4[H])c(C(=O)N([H])[H])c3N([H])[H])C2([H])[H])c([H])c(C([H])([H])C([H])([H])Oc2c([H])c([H])c3c(c2[H])C([H])([H])N(C(=O)C([H])(N([H])C(=O)C([H])(N([H])C([H])([H])[H])C([H])([H])[H])C(C([H])([H])[H])(C([H])([H])[H])C([H])([H])[H])C([H])(C(=O)N([H])C2([H])c4c([H])c([H])c([H])c([H])c4C([H])([H])C([H])([H])C2([H])[H])C3([H])[H])c1[H]

$$$$
93:0:0
     RDKit          3D

 88 97  0  0  1  0  0  0  0  0999 V2000
  -30.5800  -15.4900   20.1140 C   0  0  0  0  0  0  0  0  0  0  0  0
  -30.7210  -12.9130   19.6610 C   0  0  0  0  0  2  0  0  0  0  0  0
  -29.8810  -12.3730   18.4740 C   0  0  0  0  0  2  0  0  0  0  0  0
  -28.4440  -12.0680   18.9240 C   0  0  0  0  0  2  0  0  0  0  0  0
  -27.8690  -13.1980   19.8110 C   0  0  0  0  0  3  0  0  0  0  0  0
  -28.8480  -13.6670   20.9100 C   0  0  0  0  0  2  0  0  0  0  0  0
  -30.0600  -14.1560   20.2260 N   0  0  0  0  0  0  0  0  0  0  0  0
  -31.8130  -15.4650   19.9580 O   0  0  0  0  0  0  0  0  0  0  0  0
  -27.6170  -19.4870   21.0350 C   0  0  0  0  0  2  0  0  0  0  0  0
  -28.3670  -17.0590   20.0840 C   0  0  0  0  0  2  0  0  0  0  0  0
  -30.1920  -18.3730   19.7650 C   0  0  0  0  0  2  0  0  0  0  0  0
  -27.9290  -20.9800   20.6900 C   0  0  0  0  0  2  0  0  0  0  0  0
  -27.9290  -18.5950   19.7970 C   0  0  0  0  0  3  0  0  0  0  0  0
  -29.0050  -19.4380   19.0880 C   0  0  0  0  0  3  0  0  0  0  0  0
  -29.8290  -16.7980   19.9730 N   0  0  0  0  0  0  0  0  0  0  0  0
  -28.5010  -21.0200   19.3300 N   0  0  2  0  0  4  0  0  0  0  0  0
  -27.6550  -20.9050   18.7930 H   0  0  0  0  0  0  0  0  0  0  0  0
  -25.5170  -13.7660   20.5960 C   0  0  0  0  0  0  0  0  0  0  0  0
  -24.4490  -12.9950   20.9620 C   0  0  0  0  0  0  0  0  0  0  0  0
  -24.9020  -11.6400   20.9080 C   0  0  0  0  0  0  0  0  0  0  0  0
  -26.5480  -12.8830   20.3310 N   0  0  0  0  0  0  0  0  0  0  0  0
  -26.1920  -11.5970   20.5860 N   0  0  0  0  0  0  0  0  0  0  0  0
  -24.1580  -10.3860   21.0830 C   0  0  0  0  0  0  0  0  0  0  0  0
  -24.5800   -9.3950   21.9980 C   0  0  0  0  0  3  0  0  0  0  0  0
  -23.8340   -8.2070   22.1620 C   0  0  0  0  0  3  0  0  0  0  0  0
  -22.6520   -8.0030   21.4110 C   0  0  0  0  0  0  0  0  0  0  0  0
  -22.2490   -8.9810   20.4850 C   0  0  0  0  0  3  0  0  0  0  0  0
  -22.9950  -10.1600   20.3190 C   0  0  0  0  0  3  0  0  0  0  0  0
  -21.8780   -6.8690   21.4860 O   0  0  0  0  0  0  0  0  0  0  0  0
  -21.8140   -6.1150   22.6310 C   0  0  0  0  0  0  0  0  0  0  0  0
  -21.3710   -6.6590   23.8570 C   0  0  0  0  0  3  0  0  0  0  0  0
  -21.2570   -5.8320   24.9930 C   0  0  0  0  0  3  0  0  0  0  0  0
  -21.5740   -4.4640   24.9040 C   0  0  0  0  0  0  0  0  0  0  0  0
  -22.0080   -3.9190   23.6820 C   0  0  0  0  0  3  0  0  0  0  0  0
  -22.1250   -4.7430   22.5490 C   0  0  0  0  0  0  0  0  0  0  0  0
  -22.5240   -4.2100   21.3690 F   0  0  0  0  0  0  0  0  0  0  0  0
  -21.4580   -3.6680   25.9920 F   0  0  0  0  0  0  0  0  0  0  0  0
  -23.0620  -13.4900   21.2460 C   0  0  0  0  0  0  0  0  0  0  0  0
  -22.3280  -12.7990   22.1120 N   0  0  0  0  0  0  0  0  0  0  0  0
  -22.6380  -14.5270   20.7360 O   0  0  0  0  0  0  0  0  0  0  0  0
  -22.6810  -11.9580   22.5410 H   0  0  0  0  0  0  0  0  0  0  0  0
  -21.4020  -13.1230   22.3570 H   0  0  0  0  0  0  0  0  0  0  0  0
  -25.6860  -15.1370   20.4350 N   0  0  0  0  0  0  0  0  0  0  0  0
  -24.9100  -15.7790   20.5340 H   0  0  0  0  0  0  0  0  0  0  0  0
  -26.5220  -15.5720   20.0730 H   0  0  0  0  0  0  0  0  0  0  0  0
  -28.8040  -22.5610   18.7210 C   0  0  0  0  0  2  0  0  0  0  0  0
  -27.7990  -24.0840   18.7790 C   0  0  0  0  0  2  0  0  0  0  0  0
  -28.0740  -25.7270   18.7020 O   0  0  0  0  0  0  0  0  0  0  0  0
  -24.9550  -31.2370   22.8670 C   0  0  0  0  0  0  0  0  0  0  0  0
  -27.1080  -26.8570   18.9060 C   0  0  0  0  0  0  0  0  0  0  0  0
  -23.6120  -30.2060   21.0810 C   0  0  0  0  0  3  0  0  0  0  0  0
  -24.9050  -28.8210   19.3180 C   0  0  0  0  0  0  0  0  0  0  0  0
  -26.1750  -30.3360   20.8190 C   0  0  0  0  0  2  0  0  0  0  0  0
  -26.1440  -29.0610   19.9240 C   0  0  0  0  0  0  0  0  0  0  0  0
  -27.2400  -28.1070   19.6930 C   0  0  0  0  0  3  0  0  0  0  0  0
  -25.8410  -26.7800   18.2850 C   0  0  0  0  0  3  0  0  0  0  0  0
  -24.7790  -27.7020   18.4800 C   0  0  0  0  0  3  0  0  0  0  0  0
  -23.7370  -29.7690   19.5950 C   0  0  0  0  0  2  0  0  0  0  0  0
  -24.9400  -30.6070   21.6460 N   0  0  0  0  0  0  0  0  0  0  0  0
  -23.9100  -31.4750   23.4930 O   0  0  0  0  0  0  0  0  0  0  0  0
  -22.9170  -29.0820   21.8950 C   0  0  0  0  0  0  0  0  0  0  0  0
  -21.5740  -29.0190   21.8530 N   0  0  0  0  0  0  0  0  0  0  0  0
  -23.5930  -28.2710   22.5320 O   0  0  0  0  0  0  0  0  0  0  0  0
  -21.0830  -29.7220   21.3160 H   0  0  0  0  0  0  0  0  0  0  0  0
  -18.1570  -27.9620   22.4620 C   0  0  0  0  0  0  0  0  0  0  0  0
  -20.7450  -27.9970   22.5010 C   0  0  0  0  0  3  0  0  0  0  0  0
  -20.6710  -26.7160   21.6390 C   0  0  0  0  0  2  0  0  0  0  0  0
  -19.4580  -26.6890   20.7030 C   0  0  0  0  0  2  0  0  0  0  0  0
  -18.1560  -26.7820   21.5040 C   0  0  0  0  0  2  0  0  0  0  0  0
  -19.3730  -28.5420   22.9170 C   0  0  0  0  0  0  0  0  0  0  0  0
  -19.3150  -29.6540   23.7840 C   0  0  0  0  0  3  0  0  0  0  0  0
  -18.0800  -30.1880   24.1930 C   0  0  0  0  0  3  0  0  0  0  0  0
  -16.8810  -29.6020   23.7520 C   0  0  0  0  0  3  0  0  0  0  0  0
  -16.9200  -28.4890   22.8920 C   0  0  0  0  0  3  0  0  0  0  0  0
  -26.2860  -31.7060   23.5280 C   0  0  0  0  0  3  0  0  0  0  0  0
  -26.0450  -33.0170   24.1560 N   0  0  0  0  0  0  0  0  0  0  0  0
  -26.3900  -34.1980   23.6260 C   0  0  0  0  0  0  0  0  0  0  0  0
  -27.0090  -34.2940   22.5630 O   0  0  0  0  0  0  0  0  0  0  0  0
  -25.4930  -33.0200   25.0030 H   0  0  0  0  0  0  0  0  0  0  0  0
  -24.7370  -36.0930   23.7510 C   0  0  0  0  0  1  0  0  0  0  0  0
  -25.9870  -35.4740   24.3940 C   0  0  0  0  0  3  0  0  0  0  0  0
  -28.1890  -36.0820   25.2920 C   0  0  0  0  0  1  0  0  0  0  0  0
  -27.0620  -36.4870   24.4580 N   0  0  0  0  0  0  0  0  0  0  0  0
  -26.7040  -37.3680   24.8180 H   0  0  0  0  0  0  0  0  0  0  0  0
  -26.8360  -30.6860   24.6010 C   0  0  1  0  0  0  0  0  0  0  0  0
  -25.7930  -30.2860   25.6730 C   0  0  0  0  0  1  0  0  0  0  0  0
  -27.3340  -29.3860   23.9260 C   0  0  0  0  0  1  0  0  0  0  0  0
  -28.0590  -31.2980   25.3260 C   0  0  0  0  0  1  0  0  0  0  0  0
  1  7  1  0
  2  7  1  0
  3  4  1  0
  3  2  1  0
  5  4  1  0
  5 21  1  0
  5  6  1  0
  7  6  1  0
  8  1  2  0
 11 15  1  0
 12  9  1  0
 13 10  1  0
 13  9  1  0
 14 16  1  0
 14 11  1  0
 14 13  1  0
 15 10  1  0
 15  1  1  0
 16 12  1  0
 16 17  1  6
 18 19  2  0
 19 38  1  0
 20 19  1  0
 20 23  1  0
 21 22  1  0
 21 18  1  0
 22 20  2  0
 23 24  1  0
 24 25  2  0
 26 29  1  0
 26 25  1  0
 27 26  2  0
 28 27  1  0
 28 23  2  0
 29 30  1  0
 30 31  1  0
 31 32  2  0
 33 32  1  0
 33 37  1  0
 34 33  2  0
 35 30  2  0
 35 34  1  0
 36 35  1  0
 38 39  1  0
 39 42  1  0
 39 41  1  0
 40 38  2  0
 43 44  1  0
 43 18  1  0
 45 43  1  0
 46 47  1  0
 46 16  1  0
 48 47  1  0
 48 50  1  0
 49 60  2  0
 50 55  1  0
 51 59  1  0
 51 61  1  0
 52 58  1  0
 52 54  1  0
 53 59  1  0
 54 53  1  0
 55 54  2  0
 56 57  1  0
 56 50  2  0
 57 52  2  0
 58 51  1  0
 59 49  1  0
 61 63  2  0
 62 61  1  0
 64 62  1  0
 65 74  2  0
 65 70  1  0
 66 62  1  0
 66 70  1  0
 67 66  1  0
 68 69  1  0
 68 67  1  0
 69 65  1  0
 70 71  2  0
 71 72  1  0
 73 72  2  0
 74 73  1  0
 75 49  1  0
 75 76  1  0
 75 85  1  0
 76 79  1  0
 77 76  1  0
 77 81  1  0
 78 77  2  0
 81 80  1  0
 81 83  1  0
 83 84  1  0
 83 82  1  0
 85 88  1  1
 85 86  1  0
 87 85  1  0
M  ISO  4   1 100  15 100  47 101  48 101
M  END
>  <TORSDO>  (93) 
F 17

>  <SCORE>  (93) 
-13.046

>  <name>  (93) 
93

>  <ligand_id>  (93) 
93

>  <original_smiles>  (93) 
[H]c1c([H])c([H])c2c(c1[H])C([H])([H])C([H])([H])C([H])([H])C2([H])N([H])C(=O)C1([H])N(C(=O)C([H])(N([H])C(=O)C([H])(N([H])C([H])([H])[H])C([H])([H])[H])C(C([H])([H])[H])(C([H])([H])[H])C([H])([H])[H])C([H])([H])c2c([H])c(OC([H])([H])C([H])([H])[N+]3([H])C([H])([H])C([H])([H])C4([H])C([H])([H])N(C(=O)N5C([H])([H])C([H])([H])C([H])([H])C([H])(n6nc(-c7c([H])c([H])c(Oc8c([H])c([H])c(F)c([H])c8F)c([H])c7[H])c(C(=O)N([H])[H])c6N([H])[H])C5([H])[H])C([H])([H])C43[H])c([H])c([H])c2C1([H])[H]

>  <smiles>  (93) 
[H]c1c([H])c([H])c2c(c1[H])C([H])([H])C([H])([H])C([H])([H])C2([H])N([H])C(=O)C1([H])N(C(=O)C([H])(N([H])C(=O)C([H])(N([H])C([H])([H])[H])C([H])([H])[H])C(C([H])([H])[H])(C([H])([H])[H])C([H])([H])[H])C([H])([H])c2c([H])c(OC([H])([H])C([H])([H])[N+]3([H])C([H])([H])C([H])([H])C4([H])C([H])([H])N(C(=O)N5C([H])([H])C([H])([H])C([H])([H])C([H])(n6nc(-c7c([H])c([H])c(Oc8c([H])c([H])c(F)c([H])c8F)c([H])c7[H])c(C(=O)N([H])[H])c6N([H])[H])C5([H])[H])C([H])([H])C43[H])c([H])c([H])c2C1([H])[H]

$$$$
94:0:0
     RDKit          3D

 94103  0  0  1  0  0  0  0  0999 V2000
  -28.4540  -21.1040   20.0860 C   0  0  0  0  0  3  0  0  0  0  0  0
  -29.1630  -20.5980   21.1190 C   0  0  0  0  0  0  0  0  0  0  0  0
  -28.0330  -22.5510   19.9540 C   0  0  0  0  0  2  0  0  0  0  0  0
  -29.5530  -21.5180   22.2720 C   0  0  0  0  0  2  0  0  0  0  0  0
  -28.7960  -22.8540   22.2630 C   0  0  0  0  0  2  0  0  0  0  0  0
  -28.7840  -23.4190   20.8950 N   0  0  2  0  0  4  0  0  0  0  0  0
  -29.7490  -23.4080   20.5940 H   0  0  0  0  0  0  0  0  0  0  0  0
  -28.9300  -18.2280   20.2990 C   0  0  0  0  0  3  0  0  0  0  0  0
  -30.5570  -18.7290   22.0450 C   0  0  0  0  0  3  0  0  0  0  0  0
  -29.3320  -16.8860   20.3130 C   0  0  0  0  0  3  0  0  0  0  0  0
  -30.9440  -17.3750   22.0760 C   0  0  0  0  0  3  0  0  0  0  0  0
  -29.5450  -19.1680   21.1580 C   0  0  0  0  0  0  0  0  0  0  0  0
  -30.3420  -16.4540   21.1980 C   0  0  0  0  0  0  0  0  0  0  0  0
  -31.0400  -14.3840   20.1890 C   0  0  0  0  0  0  0  0  0  0  0  0
  -30.5990  -12.3410   18.8900 C   0  0  0  0  0  2  0  0  0  0  0  0
  -29.5880  -12.6210   17.7620 C   0  0  0  0  0  2  0  0  0  0  0  0
  -28.1420  -12.4790   18.2720 C   0  0  0  0  0  2  0  0  0  0  0  0
  -27.8940  -13.2790   19.5760 C   0  0  0  0  0  3  0  0  0  0  0  0
  -28.9980  -12.9780   20.6140 C   0  0  0  0  0  2  0  0  0  0  0  0
  -30.3180  -13.2520   20.0060 N   0  0  0  0  0  0  0  0  0  0  0  0
  -31.9870  -14.7270   19.4710 O   0  0  0  0  0  0  0  0  0  0  0  0
  -30.6890  -15.0910   21.2660 N   0  0  0  0  0  0  0  0  0  0  0  0
  -30.1550  -14.5590   21.9400 H   0  0  0  0  0  0  0  0  0  0  0  0
  -25.5470  -13.9140   20.4340 C   0  0  0  0  0  0  0  0  0  0  0  0
  -24.4850  -13.1490   20.8370 C   0  0  0  0  0  0  0  0  0  0  0  0
  -24.9160  -11.7910   20.7320 C   0  0  0  0  0  0  0  0  0  0  0  0
  -26.5600  -13.0220   20.1140 N   0  0  0  0  0  0  0  0  0  0  0  0
  -26.1840  -11.7380   20.3460 N   0  0  0  0  0  0  0  0  0  0  0  0
  -24.1790  -10.5370   20.9220 C   0  0  0  0  0  0  0  0  0  0  0  0
  -24.6010   -9.5670   21.8590 C   0  0  0  0  0  3  0  0  0  0  0  0
  -23.8660   -8.3750   22.0350 C   0  0  0  0  0  3  0  0  0  0  0  0
  -22.6950   -8.1440   21.2740 C   0  0  0  0  0  0  0  0  0  0  0  0
  -22.2930   -9.1020   20.3270 C   0  0  0  0  0  3  0  0  0  0  0  0
  -23.0280  -10.2850   20.1490 C   0  0  0  0  0  3  0  0  0  0  0  0
  -21.9330   -7.0040   21.3590 O   0  0  0  0  0  0  0  0  0  0  0  0
  -21.8000   -6.3140   22.5390 C   0  0  0  0  0  0  0  0  0  0  0  0
  -21.2890   -6.9250   23.7050 C   0  0  0  0  0  3  0  0  0  0  0  0
  -21.1030   -6.1600   24.8740 C   0  0  0  0  0  3  0  0  0  0  0  0
  -21.4170   -4.7880   24.8790 C   0  0  0  0  0  0  0  0  0  0  0  0
  -21.9220   -4.1790   23.7160 C   0  0  0  0  0  3  0  0  0  0  0  0
  -22.1090   -4.9400   22.5490 C   0  0  0  0  0  0  0  0  0  0  0  0
  -22.5760   -4.3430   21.4250 F   0  0  0  0  0  0  0  0  0  0  0  0
  -21.2320   -4.0530   25.9990 F   0  0  0  0  0  0  0  0  0  0  0  0
  -23.1160  -13.6410   21.2110 C   0  0  0  0  0  0  0  0  0  0  0  0
  -22.4340  -12.9340   22.1050 N   0  0  0  0  0  0  0  0  0  0  0  0
  -22.6620  -14.6860   20.7450 O   0  0  0  0  0  0  0  0  0  0  0  0
  -22.8130  -12.0870   22.5010 H   0  0  0  0  0  0  0  0  0  0  0  0
  -21.5170  -13.2450   22.3970 H   0  0  0  0  0  0  0  0  0  0  0  0
  -25.7300  -15.2870   20.3000 N   0  0  0  0  0  0  0  0  0  0  0  0
  -24.9940  -15.9530   20.5050 H   0  0  0  0  0  0  0  0  0  0  0  0
  -26.5870  -15.7270   19.9900 H   0  0  0  0  0  0  0  0  0  0  0  0
  -28.3490  -24.8320   20.8590 C   0  0  0  0  0  2  0  0  0  0  0  0
  -28.6990  -25.5100   19.5210 C   0  0  0  0  0  2  0  0  0  0  0  0
  -28.6110  -26.9160   19.6660 O   0  0  0  0  0  0  0  0  0  0  0  0
  -24.6740  -31.7160   23.0400 C   0  0  0  0  0  0  0  0  0  0  0  0
  -27.3740  -27.5110   19.7270 C   0  0  0  0  0  0  0  0  0  0  0  0
  -23.4650  -30.3500   21.3670 C   0  0  0  0  0  3  0  0  0  0  0  0
  -24.9260  -28.9060   19.8600 C   0  0  0  0  0  0  0  0  0  0  0  0
  -25.9710  -30.7930   21.1290 C   0  0  0  0  0  2  0  0  0  0  0  0
  -26.0760  -29.4520   20.4400 C   0  0  0  0  0  0  0  0  0  0  0  0
  -27.3000  -28.7590   20.3730 C   0  0  0  0  0  3  0  0  0  0  0  0
  -26.2010  -26.9600   19.1550 C   0  0  0  0  0  3  0  0  0  0  0  0
  -24.9800  -27.6560   19.2200 C   0  0  0  0  0  3  0  0  0  0  0  0
  -23.6610  -29.7260   19.9590 C   0  0  0  0  0  2  0  0  0  0  0  0
  -24.7230  -30.9640   21.9060 N   0  0  0  0  0  0  0  0  0  0  0  0
  -23.5990  -31.9390   23.6130 O   0  0  0  0  0  0  0  0  0  0  0  0
  -22.8620  -29.2750   22.2980 C   0  0  0  0  0  0  0  0  0  0  0  0
  -21.5410  -29.0690   22.1880 N   0  0  0  0  0  0  0  0  0  0  0  0
  -23.5770  -28.6320   23.0710 O   0  0  0  0  0  0  0  0  0  0  0  0
  -21.0250  -29.6460   21.5400 H   0  0  0  0  0  0  0  0  0  0  0  0
  -18.2050  -27.7790   22.6900 C   0  0  0  0  0  0  0  0  0  0  0  0
  -20.7600  -28.0820   22.9310 C   0  0  0  0  0  3  0  0  0  0  0  0
  -20.8860  -26.6790   22.2970 C   0  0  0  0  0  2  0  0  0  0  0  0
  -19.7730  -26.3670   21.2920 C   0  0  0  0  0  2  0  0  0  0  0  0
  -18.4010  -26.4580   21.9650 C   0  0  0  0  0  2  0  0  0  0  0  0
  -19.3140  -28.5490   23.1300 C   0  0  0  0  0  0  0  0  0  0  0  0
  -19.0790  -29.7850   23.7690 C   0  0  0  0  0  3  0  0  0  0  0  0
  -17.7670  -30.2520   23.9740 C   0  0  0  0  0  3  0  0  0  0  0  0
  -16.6740  -29.4800   23.5480 C   0  0  0  0  0  3  0  0  0  0  0  0
  -16.8920  -28.2450   22.9130 C   0  0  0  0  0  3  0  0  0  0  0  0
  -25.9600  -32.3500   23.6590 C   0  0  0  0  0  3  0  0  0  0  0  0
  -26.5350  -31.5260   24.8760 C   0  0  1  0  0  0  0  0  0  0  0  0
  -25.4800  -31.2020   25.9600 C   0  0  0  0  0  1  0  0  0  0  0  0
  -27.1410  -30.1890   24.3900 C   0  0  0  0  0  1  0  0  0  0  0  0
  -27.6830  -32.3140   25.5470 C   0  0  0  0  0  1  0  0  0  0  0  0
  -25.6230  -33.7180   24.0690 N   0  0  0  0  0  0  0  0  0  0  0  0
  -25.9080  -34.8170   23.3550 C   0  0  0  0  0  0  0  0  0  0  0  0
  -26.5530  -34.7830   22.3030 O   0  0  0  0  0  0  0  0  0  0  0  0
  -25.0440  -33.8170   24.8890 H   0  0  0  0  0  0  0  0  0  0  0  0
  -24.1180  -36.5690   23.1330 C   0  0  0  0  0  1  0  0  0  0  0  0
  -25.3930  -36.1650   23.8910 C   0  0  0  0  0  3  0  0  0  0  0  0
  -27.5230  -37.0740   24.7060 C   0  0  0  0  0  1  0  0  0  0  0  0
  -26.3900  -37.2530   23.8010 N   0  0  0  0  0  0  0  0  0  0  0  0
  -25.9630  -38.1530   24.0050 H   0  0  0  0  0  0  0  0  0  0  0  0
  1  2  2  0
  2 12  1  0
  2  4  1  0
  3  1  1  0
  3  6  1  0
  5  4  1  0
  6  5  1  0
  6  7  1  6
  8 10  2  0
  8 12  1  0
  9 11  1  0
 10 13  1  0
 12  9  2  0
 13 22  1  0
 13 11  2  0
 14 22  1  0
 15 20  1  0
 16 17  1  0
 16 15  1  0
 18 17  1  0
 18 27  1  0
 18 19  1  0
 20 14  1  0
 20 19  1  0
 21 14  2  0
 22 23  1  0
 24 25  2  0
 25 44  1  0
 26 25  1  0
 26 29  1  0
 27 28  1  0
 27 24  1  0
 28 26  2  0
 29 30  1  0
 30 31  2  0
 32 35  1  0
 32 31  1  0
 33 32  2  0
 34 33  1  0
 34 29  2  0
 35 36  1  0
 36 41  2  0
 36 37  1  0
 37 38  2  0
 38 39  1  0
 39 43  1  0
 40 39  2  0
 41 40  1  0
 42 41  1  0
 44 45  1  0
 45 48  1  0
 45 47  1  0
 46 44  2  0
 49 24  1  0
 49 50  1  0
 51 49  1  0
 52  6  1  0
 53 54  1  0
 53 52  1  0
 54 56  1  0
 55 66  2  0
 56 61  1  0
 57 65  1  0
 57 67  1  0
 58 64  1  0
 58 60  1  0
 59 65  1  0
 60 59  1  0
 61 60  2  0
 62 63  1  0
 62 56  2  0
 63 58  2  0
 64 57  1  0
 65 55  1  0
 67 69  2  0
 68 67  1  0
 70 68  1  0
 71 80  2  0
 71 76  1  0
 72 68  1  0
 72 76  1  0
 73 72  1  0
 74 75  1  0
 74 73  1  0
 75 71  1  0
 76 77  2  0
 77 78  1  0
 79 78  2  0
 80 79  1  0
 81 55  1  0
 81 86  1  0
 81 82  1  0
 82 85  1  1
 82 83  1  0
 84 82  1  0
 86 89  1  0
 87 91  1  0
 87 86  1  0
 88 87  2  0
 91 90  1  0
 93 91  1  0
 93 94  1  0
 93 92  1  0
M  ISO  4  14 100  22 100  53 101  54 101
M  END
>  <TORSDO>  (94) 
F 19

>  <SCORE>  (94) 
-13.554

>  <name>  (94) 
94

>  <ligand_id>  (94) 
94

>  <original_smiles>  (94) 
[H]C1=C(c2c([H])c([H])c(N([H])C(=O)N3C([H])([H])C([H])([H])C([H])([H])C([H])(n4nc(-c5c([H])c([H])c(Oc6c([H])c([H])c(F)c([H])c6F)c([H])c5[H])c(C(=O)N([H])[H])c4N([H])[H])C3([H])[H])c([H])c2[H])C([H])([H])C([H])([H])[N+]([H])(C([H])([H])C([H])([H])Oc2c([H])c([H])c3c(c2[H])C([H])([H])N(C(=O)C([H])(N([H])C(=O)C([H])(N([H])C([H])([H])[H])C([H])([H])[H])C(C([H])([H])[H])(C([H])([H])[H])C([H])([H])[H])C([H])(C(=O)N([H])C2([H])c4c([H])c([H])c([H])c([H])c4C([H])([H])C([H])([H])C2([H])[H])C3([H])[H])C1([H])[H]

>  <smiles>  (94) 
[H]C1=C(c2c([H])c([H])c(N([H])C(=O)N3C([H])([H])C([H])([H])C([H])([H])C([H])(n4nc(-c5c([H])c([H])c(Oc6c([H])c([H])c(F)c([H])c6F)c([H])c5[H])c(C(=O)N([H])[H])c4N([H])[H])C3([H])[H])c([H])c2[H])C([H])([H])C([H])([H])[N+]([H])(C([H])([H])C([H])([H])Oc2c([H])c([H])c3c(c2[H])C([H])([H])N(C(=O)C([H])(N([H])C(=O)C([H])(N([H])C([H])([H])[H])C([H])([H])[H])C(C([H])([H])[H])(C([H])([H])[H])C([H])([H])[H])C([H])(C(=O)N([H])C2([H])c4c([H])c([H])c([H])c([H])c4C([H])([H])C([H])([H])C2([H])[H])C3([H])[H])C1([H])[H]

$$$$
95:0:0
     RDKit          3D

 87 95  0  0  1  0  0  0  0  0999 V2000
  -30.1960  -20.2770   19.0000 C   0  0  0  0  0  2  0  0  0  0  0  0
  -30.6000  -21.2080   20.1620 C   0  0  0  0  0  2  0  0  0  0  0  0
  -29.1700  -19.6900   19.9620 C   0  0  0  0  0  3  0  0  0  0  0  0
  -29.1870  -21.2840   20.5370 N   0  0  2  0  0  4  0  0  0  0  0  0
  -29.0720  -21.2820   21.5400 H   0  0  0  0  0  0  0  0  0  0  0  0
  -29.7740  -18.1590   20.7040 C   0  0  0  0  0  2  0  0  0  0  0  0
  -30.3930  -15.2760   20.2910 C   0  0  0  0  0  0  0  0  0  0  0  0
  -30.3820  -12.8430   19.3770 C   0  0  0  0  0  2  0  0  0  0  0  0
  -29.4600  -12.6330   18.1510 C   0  0  0  0  0  2  0  0  0  0  0  0
  -28.0100  -12.3600   18.5910 C   0  0  0  0  0  2  0  0  0  0  0  0
  -27.5550  -13.3190   19.7190 C   0  0  0  0  0  3  0  0  0  0  0  0
  -28.6040  -13.4610   20.8400 C   0  0  0  0  0  2  0  0  0  0  0  0
  -29.8260  -13.9760   20.2010 N   0  0  0  0  0  0  0  0  0  0  0  0
  -31.6240  -15.2810   20.1470 O   0  0  0  0  0  0  0  0  0  0  0  0
  -29.6090  -16.5340   20.3390 N   0  0  0  0  0  0  0  0  0  0  0  0
  -28.6290  -16.3000   20.2680 H   0  0  0  0  0  0  0  0  0  0  0  0
  -25.1780  -13.8680   20.4600 C   0  0  0  0  0  0  0  0  0  0  0  0
  -24.1190  -13.0860   20.8290 C   0  0  0  0  0  0  0  0  0  0  0  0
  -24.5980  -11.7400   20.8100 C   0  0  0  0  0  0  0  0  0  0  0  0
  -26.2280  -12.9980   20.2280 N   0  0  0  0  0  0  0  0  0  0  0  0
  -25.8910  -11.7120   20.5080 N   0  0  0  0  0  0  0  0  0  0  0  0
  -23.8780  -10.4730   21.0020 C   0  0  0  0  0  0  0  0  0  0  0  0
  -24.3020   -9.5170   21.9510 C   0  0  0  0  0  3  0  0  0  0  0  0
  -23.5800   -8.3180   22.1330 C   0  0  0  0  0  3  0  0  0  0  0  0
  -22.4180   -8.0660   21.3640 C   0  0  0  0  0  0  0  0  0  0  0  0
  -22.0130   -9.0100   20.4040 C   0  0  0  0  0  3  0  0  0  0  0  0
  -22.7360  -10.2000   20.2220 C   0  0  0  0  0  3  0  0  0  0  0  0
  -21.6690   -6.9180   21.4540 O   0  0  0  0  0  0  0  0  0  0  0  0
  -21.6040   -6.1890   22.6160 C   0  0  0  0  0  0  0  0  0  0  0  0
  -21.1450   -6.7560   23.8250 C   0  0  0  0  0  3  0  0  0  0  0  0
  -21.0270   -5.9530   24.9770 C   0  0  0  0  0  3  0  0  0  0  0  0
  -21.3580   -4.5870   24.9210 C   0  0  0  0  0  0  0  0  0  0  0  0
  -21.8100   -4.0190   23.7160 C   0  0  0  0  0  3  0  0  0  0  0  0
  -21.9290   -4.8190   22.5660 C   0  0  0  0  0  0  0  0  0  0  0  0
  -22.3450   -4.2640   21.4030 F   0  0  0  0  0  0  0  0  0  0  0  0
  -21.2390   -3.8140   26.0260 F   0  0  0  0  0  0  0  0  0  0  0  0
  -22.7170  -13.5540   21.0790 C   0  0  0  0  0  0  0  0  0  0  0  0
  -21.9830  -12.8580   21.9390 N   0  0  0  0  0  0  0  0  0  0  0  0
  -22.2800  -14.5760   20.5490 O   0  0  0  0  0  0  0  0  0  0  0  0
  -22.3500  -12.0320   22.3900 H   0  0  0  0  0  0  0  0  0  0  0  0
  -21.0400  -13.1530   22.1510 H   0  0  0  0  0  0  0  0  0  0  0  0
  -25.3280  -15.2390   20.2710 N   0  0  0  0  0  0  0  0  0  0  0  0
  -24.5480  -15.8800   20.3670 H   0  0  0  0  0  0  0  0  0  0  0  0
  -26.1580  -15.6800   19.9000 H   0  0  0  0  0  0  0  0  0  0  0  0
  -28.5340  -22.7050   19.9250 C   0  0  0  0  0  2  0  0  0  0  0  0
  -28.2500  -24.3150   20.6820 C   0  0  0  0  0  2  0  0  0  0  0  0
  -28.2900  -25.9130   20.2540 O   0  0  0  0  0  0  0  0  0  0  0  0
  -24.6450  -31.8470   23.2420 C   0  0  0  0  0  0  0  0  0  0  0  0
  -27.2370  -26.9630   20.2850 C   0  0  0  0  0  0  0  0  0  0  0  0
  -23.4670  -30.4390   21.6040 C   0  0  0  0  0  3  0  0  0  0  0  0
  -24.9270  -28.8240   20.2110 C   0  0  0  0  0  0  0  0  0  0  0  0
  -26.0330  -30.6600   21.4710 C   0  0  0  0  0  2  0  0  0  0  0  0
  -26.1110  -29.2440   20.8300 C   0  0  0  0  0  0  0  0  0  0  0  0
  -27.2640  -28.3380   20.8340 C   0  0  0  0  0  3  0  0  0  0  0  0
  -26.0180  -26.6850   19.6300 C   0  0  0  0  0  3  0  0  0  0  0  0
  -24.9030  -27.5630   19.5910 C   0  0  0  0  0  3  0  0  0  0  0  0
  -23.7070  -29.7430   20.2360 C   0  0  0  0  0  2  0  0  0  0  0  0
  -24.7360  -31.0100   22.1590 N   0  0  0  0  0  0  0  0  0  0  0  0
  -23.5520  -32.1370   23.7540 O   0  0  0  0  0  0  0  0  0  0  0  0
  -22.7680  -29.4480   22.5720 C   0  0  0  0  0  0  0  0  0  0  0  0
  -21.4390  -29.2810   22.4410 N   0  0  0  0  0  0  0  0  0  0  0  0
  -23.4300  -28.8270   23.4070 O   0  0  0  0  0  0  0  0  0  0  0  0
  -20.9590  -29.8330   21.7440 H   0  0  0  0  0  0  0  0  0  0  0  0
  -18.0540  -28.0720   22.9360 C   0  0  0  0  0  0  0  0  0  0  0  0
  -20.6130  -28.3460   23.2110 C   0  0  0  0  0  3  0  0  0  0  0  0
  -20.7210  -26.9120   22.6460 C   0  0  0  0  0  2  0  0  0  0  0  0
  -19.6250  -26.5800   21.6280 C   0  0  0  0  0  2  0  0  0  0  0  0
  -18.2390  -26.7210   22.2640 C   0  0  0  0  0  2  0  0  0  0  0  0
  -19.1680  -28.8410   23.3670 C   0  0  0  0  0  0  0  0  0  0  0  0
  -18.9390  -30.1020   23.9580 C   0  0  0  0  0  3  0  0  0  0  0  0
  -17.6300  -30.5950   24.1210 C   0  0  0  0  0  3  0  0  0  0  0  0
  -16.5320  -29.8240   23.7040 C   0  0  0  0  0  3  0  0  0  0  0  0
  -16.7440  -28.5640   23.1170 C   0  0  0  0  0  3  0  0  0  0  0  0
  -25.9100  -32.4970   23.8810 C   0  0  0  0  0  3  0  0  0  0  0  0
  -26.3990  -31.7510   25.1840 C   0  0  1  0  0  0  0  0  0  0  0  0
  -25.2840  -31.5390   26.2370 C   0  0  0  0  0  1  0  0  0  0  0  0
  -26.9830  -30.3620   24.8390 C   0  0  0  0  0  1  0  0  0  0  0  0
  -27.5410  -32.5530   25.8510 C   0  0  0  0  0  1  0  0  0  0  0  0
  -25.5900  -33.9020   24.1930 N   0  0  0  0  0  0  0  0  0  0  0  0
  -25.9380  -34.9530   23.4390 C   0  0  0  0  0  0  0  0  0  0  0  0
  -26.6220  -34.8440   22.4190 O   0  0  0  0  0  0  0  0  0  0  0  0
  -24.9830  -34.0590   24.9830 H   0  0  0  0  0  0  0  0  0  0  0  0
  -24.2230  -36.7590   23.0580 C   0  0  0  0  0  1  0  0  0  0  0  0
  -25.4510  -36.3480   23.8860 C   0  0  0  0  0  3  0  0  0  0  0  0
  -27.5760  -37.2320   24.7460 C   0  0  0  0  0  1  0  0  0  0  0  0
  -26.4900  -37.3970   23.7830 N   0  0  0  0  0  0  0  0  0  0  0  0
  -26.0850  -38.3200   23.9160 H   0  0  0  0  0  0  0  0  0  0  0  0
  1  3  1  0
  1  2  1  0
  2  4  1  0
  3  4  1  0
  3  6  1  0
  4  5  1  1
  7 15  1  0
  8 13  1  0
  9 10  1  0
  9  8  1  0
 11 10  1  0
 11 20  1  0
 11 12  1  0
 13  7  1  0
 13 12  1  0
 14  7  2  0
 15  6  1  0
 16 15  1  0
 17 18  2  0
 18 37  1  0
 19 18  1  0
 19 22  1  0
 20 17  1  0
 20 21  1  0
 21 19  2  0
 22 23  1  0
 23 24  2  0
 25 28  1  0
 25 24  1  0
 26 25  2  0
 27 26  1  0
 27 22  2  0
 28 29  1  0
 29 30  1  0
 30 31  2  0
 32 31  1  0
 32 36  1  0
 33 32  2  0
 34 29  2  0
 34 33  1  0
 35 34  1  0
 37 38  1  0
 38 41  1  0
 38 40  1  0
 39 37  2  0
 42 43  1  0
 42 17  1  0
 44 42  1  0
 45  4  1  0
 45 46  1  0
 47 49  1  0
 47 46  1  0
 48 59  2  0
 49 54  1  0
 50 58  1  0
 50 60  1  0
 51 57  1  0
 51 53  1  0
 52 58  1  0
 53 54  2  0
 53 52  1  0
 55 49  2  0
 56 55  1  0
 56 51  2  0
 57 50  1  0
 58 48  1  0
 60 62  2  0
 61 60  1  0
 63 61  1  0
 64 73  2  0
 64 69  1  0
 65 61  1  0
 65 69  1  0
 66 65  1  0
 67 68  1  0
 67 66  1  0
 68 64  1  0
 69 70  2  0
 70 71  1  0
 72 71  2  0
 73 72  1  0
 74 48  1  0
 74 79  1  0
 74 75  1  0
 75 78  1  1
 75 76  1  0
 77 75  1  0
 79 82  1  0
 80 84  1  0
 80 79  1  0
 81 80  2  0
 84 83  1  0
 86 84  1  0
 86 87  1  0
 86 85  1  0
M  ISO  4   7 100  15 100  46 101  47 101
M  END
>  <TORSDO>  (95) 
F 19

>  <SCORE>  (95) 
-16.404

>  <name>  (95) 
95

>  <ligand_id>  (95) 
95

>  <original_smiles>  (95) 
[H]c1c([H])c([H])c2c(c1[H])C([H])([H])C([H])([H])C([H])([H])C2([H])N([H])C(=O)C1([H])N(C(=O)C([H])(N([H])C(=O)C([H])(N([H])C([H])([H])[H])C([H])([H])[H])C(C([H])([H])[H])(C([H])([H])[H])C([H])([H])[H])C([H])([H])c2c([H])c(OC([H])([H])C([H])([H])[N+]3([H])C([H])([H])C([H])([H])C3([H])C([H])([H])N([H])C(=O)N3C([H])([H])C([H])([H])C([H])([H])C([H])(n4nc(-c5c([H])c([H])c(Oc6c([H])c([H])c(F)c([H])c6F)c([H])c5[H])c(C(=O)N([H])[H])c4N([H])[H])C3([H])[H])c([H])c([H])c2C1([H])[H]

>  <smiles>  (95) 
[H]c1c([H])c([H])c2c(c1[H])C([H])([H])C([H])([H])C([H])([H])C2([H])N([H])C(=O)C1([H])N(C(=O)C([H])(N([H])C(=O)C([H])(N([H])C([H])([H])[H])C([H])([H])[H])C(C([H])([H])[H])(C([H])([H])[H])C([H])([H])[H])C([H])([H])c2c([H])c(OC([H])([H])C([H])([H])[N+]3([H])C([H])([H])C([H])([H])C3([H])C([H])([H])N([H])C(=O)N3C([H])([H])C([H])([H])C([H])([H])C([H])(n4nc(-c5c([H])c([H])c(Oc6c([H])c([H])c(F)c([H])c6F)c([H])c5[H])c(C(=O)N([H])[H])c4N([H])[H])C3([H])[H])c([H])c([H])c2C1([H])[H]

$$$$
