0:0:0
     RDKit          3D

 96106  0  0  1  0  0  0  0  0999 V2000
  -27.9570  -19.9600   20.8840 C   0  0  0  0  0  3  0  0  0  0  0  0
  -28.7040  -18.8290   20.5060 C   0  0  0  0  0  3  0  0  0  0  0  0
  -30.7640  -20.0090   21.0550 C   0  0  0  0  0  3  0  0  0  0  0  0
  -28.6030  -21.1390   21.3230 C   0  0  0  0  0  0  0  0  0  0  0  0
  -30.0220  -21.1460   21.4300 C   0  0  0  0  0  0  0  0  0  0  0  0
  -30.1110  -18.8600   20.5660 C   0  0  0  0  0  0  0  0  0  0  0  0
  -30.2490  -24.6250   20.8010 C   0  0  0  0  0  3  0  0  0  0  0  0
  -27.7770  -22.3600   21.6110 C   0  0  0  0  0  0  0  0  0  0  0  0
  -29.9370  -23.6070   21.5960 C   0  0  0  0  0  0  0  0  0  0  0  0
  -30.7710  -22.3890   21.8800 C   0  0  0  0  0  2  0  0  0  0  0  0
  -27.9690  -24.9620   21.4730 C   0  0  0  0  0  2  0  0  0  0  0  0
  -29.0860  -25.5480   20.5660 C   0  0  0  0  0  3  0  0  0  0  0  0
  -28.5120  -23.6330   22.0760 C   0  0  0  0  0  3  0  0  0  0  0  0
  -26.5460  -22.3760   21.5110 O   0  0  0  0  0  0  0  0  0  0  0  0
  -30.9330  -17.6890   20.0610 C   0  0  0  0  0  2  0  0  0  0  0  0
  -31.2010  -16.6150   21.1350 C   0  0  0  0  0  2  0  0  0  0  0  0
  -30.9910  -14.4750   19.8890 C   0  0  0  0  0  0  0  0  0  0  0  0
  -30.5710  -12.3110   18.7840 C   0  0  0  0  0  2  0  0  0  0  0  0
  -29.5510  -12.4620   17.6410 C   0  0  0  0  0  2  0  0  0  0  0  0
  -28.1100  -12.3470   18.1730 C   0  0  0  0  0  2  0  0  0  0  0  0
  -27.8570  -13.2540   19.4060 C   0  0  0  0  0  3  0  0  0  0  0  0
  -28.9740  -13.0710   20.4560 C   0  0  0  0  0  2  0  0  0  0  0  0
  -30.2730  -13.3280   19.8010 N   0  0  0  0  0  0  0  0  0  0  0  0
  -31.9740  -14.7200   19.1810 O   0  0  0  0  0  0  0  0  0  0  0  0
  -30.5680  -15.3370   20.8200 N   0  0  0  0  0  0  0  0  0  0  0  0
  -29.7610  -15.0690   21.3640 H   0  0  0  0  0  0  0  0  0  0  0  0
  -25.5550  -13.9240   20.3500 C   0  0  0  0  0  0  0  0  0  0  0  0
  -24.4850  -13.1770   20.7680 C   0  0  0  0  0  0  0  0  0  0  0  0
  -24.8770  -11.8110   20.6190 C   0  0  0  0  0  0  0  0  0  0  0  0
  -26.5330  -13.0140   19.9800 N   0  0  0  0  0  0  0  0  0  0  0  0
  -26.1320  -11.7350   20.1980 N   0  0  0  0  0  0  0  0  0  0  0  0
  -24.1110  -10.5720   20.8000 C   0  0  0  0  0  0  0  0  0  0  0  0
  -24.5530   -9.5520   21.6720 C   0  0  0  0  0  3  0  0  0  0  0  0
  -23.7900   -8.3770   21.8420 C   0  0  0  0  0  3  0  0  0  0  0  0
  -22.5710   -8.2130   21.1420 C   0  0  0  0  0  0  0  0  0  0  0  0
  -22.1470   -9.2220   20.2600 C   0  0  0  0  0  3  0  0  0  0  0  0
  -22.9100  -10.3890   20.0860 C   0  0  0  0  0  3  0  0  0  0  0  0
  -21.7760   -7.0960   21.2280 O   0  0  0  0  0  0  0  0  0  0  0  0
  -21.7310   -6.3290   22.3640 C   0  0  0  0  0  0  0  0  0  0  0  0
  -21.3580   -6.8690   23.6150 C   0  0  0  0  0  3  0  0  0  0  0  0
  -21.2590   -6.0300   24.7430 C   0  0  0  0  0  3  0  0  0  0  0  0
  -21.5220   -4.6520   24.6220 C   0  0  0  0  0  0  0  0  0  0  0  0
  -21.8880   -4.1120   23.3760 C   0  0  0  0  0  3  0  0  0  0  0  0
  -21.9890   -4.9480   22.2500 C   0  0  0  0  0  0  0  0  0  0  0  0
  -22.3220   -4.4190   21.0480 F   0  0  0  0  0  0  0  0  0  0  0  0
  -21.4180   -3.8440   25.7020 F   0  0  0  0  0  0  0  0  0  0  0  0
  -23.1410  -13.6960   21.1900 C   0  0  0  0  0  0  0  0  0  0  0  0
  -22.4590  -12.9810   22.0790 N   0  0  0  0  0  0  0  0  0  0  0  0
  -22.7080  -14.7670   20.7670 O   0  0  0  0  0  0  0  0  0  0  0  0
  -22.8240  -12.1130   22.4400 H   0  0  0  0  0  0  0  0  0  0  0  0
  -21.5590  -13.3070   22.4010 H   0  0  0  0  0  0  0  0  0  0  0  0
  -25.7730  -15.2940   20.2340 N   0  0  0  0  0  0  0  0  0  0  0  0
  -25.0550  -15.9780   20.4460 H   0  0  0  0  0  0  0  0  0  0  0  0
  -26.6210  -15.7080   19.8680 H   0  0  0  0  0  0  0  0  0  0  0  0
  -28.7200  -25.5950   19.0640 C   0  0  0  0  0  2  0  0  0  0  0  0
  -28.5100  -26.9410   18.6600 O   0  0  0  0  0  0  0  0  0  0  0  0
  -24.6240  -31.2870   22.6990 C   0  0  0  0  0  0  0  0  0  0  0  0
  -27.2730  -27.4950   18.8780 C   0  0  0  0  0  0  0  0  0  0  0  0
  -23.3720  -30.0270   20.9770 C   0  0  0  0  0  3  0  0  0  0  0  0
  -24.7930  -28.7840   19.2640 C   0  0  0  0  0  0  0  0  0  0  0  0
  -25.8430  -30.5890   20.6430 C   0  0  0  0  0  2  0  0  0  0  0  0
  -25.9570  -29.3190   19.8300 C   0  0  0  0  0  0  0  0  0  0  0  0
  -27.1970  -28.6810   19.6370 C   0  0  0  0  0  3  0  0  0  0  0  0
  -26.0930  -26.9610   18.3130 C   0  0  0  0  0  3  0  0  0  0  0  0
  -24.8550  -27.6010   18.5060 C   0  0  0  0  0  3  0  0  0  0  0  0
  -23.5070  -29.5410   19.5090 C   0  0  0  0  0  2  0  0  0  0  0  0
  -24.6350  -30.6430   21.4980 N   0  0  0  0  0  0  0  0  0  0  0  0
  -23.5760  -31.4130   23.3480 O   0  0  0  0  0  0  0  0  0  0  0  0
  -22.8640  -28.8490   21.8380 C   0  0  0  0  0  0  0  0  0  0  0  0
  -21.5490  -28.5830   21.7670 N   0  0  0  0  0  0  0  0  0  0  0  0
  -23.6440  -28.1810   22.5230 O   0  0  0  0  0  0  0  0  0  0  0  0
  -20.9740  -29.1800   21.1900 H   0  0  0  0  0  0  0  0  0  0  0  0
  -18.3150  -27.0520   22.2560 C   0  0  0  0  0  0  0  0  0  0  0  0
  -20.8530  -27.4990   22.4590 C   0  0  0  0  0  3  0  0  0  0  0  0
  -21.0480  -26.1540   21.7220 C   0  0  0  0  0  2  0  0  0  0  0  0
  -19.9290  -25.8490   20.7210 C   0  0  0  0  0  2  0  0  0  0  0  0
  -18.5710  -25.8040   21.4290 C   0  0  0  0  0  2  0  0  0  0  0  0
  -19.3870  -27.8560   22.7270 C   0  0  0  0  0  0  0  0  0  0  0  0
  -19.0940  -29.0270   23.4590 C   0  0  0  0  0  3  0  0  0  0  0  0
  -17.7620  -29.3940   23.7280 C   0  0  0  0  0  3  0  0  0  0  0  0
  -16.7060  -28.5850   23.2750 C   0  0  0  0  0  3  0  0  0  0  0  0
  -16.9830  -27.4160   22.5440 C   0  0  0  0  0  3  0  0  0  0  0  0
  -25.9200  -31.9160   23.3030 C   0  0  0  0  0  3  0  0  0  0  0  0
  -26.6200  -30.9930   24.3730 C   0  0  1  0  0  0  0  0  0  0  0  0
  -25.6660  -30.4940   25.4840 C   0  0  0  0  0  1  0  0  0  0  0  0
  -27.2460  -29.7520   23.6950 C   0  0  0  0  0  1  0  0  0  0  0  0
  -27.7770  -31.7630   25.0520 C   0  0  0  0  0  1  0  0  0  0  0  0
  -25.5500  -33.2090   23.8930 N   0  0  0  0  0  0  0  0  0  0  0  0
  -25.7620  -34.3980   23.3120 C   0  0  0  0  0  0  0  0  0  0  0  0
  -26.3660  -34.5230   22.2440 O   0  0  0  0  0  0  0  0  0  0  0  0
  -25.0040  -33.1820   24.7410 H   0  0  0  0  0  0  0  0  0  0  0  0
  -23.9070  -36.0930   23.3700 C   0  0  0  0  0  1  0  0  0  0  0  0
  -25.2190  -35.6460   24.0330 C   0  0  0  0  0  3  0  0  0  0  0  0
  -27.3420  -36.5250   24.8980 C   0  0  0  0  0  1  0  0  0  0  0  0
  -26.1740  -36.7740   24.0560 N   0  0  0  0  0  0  0  0  0  0  0  0
  -25.7230  -37.6240   24.3840 H   0  0  0  0  0  0  0  0  0  0  0  0
  1  4  1  0
  2  6  1  0
  2  1  2  0
  3  5  1  0
  4  5  2  0
  4  8  1  0
  5 10  1  0
  6  3  2  0
  7  9  2  0
  8 13  1  0
  9 10  1  0
  9 13  1  0
 12 55  1  0
 12  7  1  0
 12 11  1  0
 13 11  1  0
 14  8  2  0
 15  6  1  0
 15 16  1  0
 17 25  1  0
 18 23  1  0
 19 20  1  0
 19 18  1  0
 21 20  1  0
 21 30  1  0
 21 22  1  0
 23 17  1  0
 23 22  1  0
 24 17  2  0
 25 16  1  0
 25 26  1  0
 27 28  2  0
 28 47  1  0
 29 28  1  0
 29 32  1  0
 30 31  1  0
 30 27  1  0
 31 29  2  0
 32 33  1  0
 33 34  2  0
 35 38  1  0
 35 34  1  0
 36 35  2  0
 37 36  1  0
 37 32  2  0
 38 39  1  0
 39 40  1  0
 40 41  2  0
 42 41  1  0
 42 46  1  0
 43 42  2  0
 44 39  2  0
 44 43  1  0
 45 44  1  0
 47 48  1  0
 48 51  1  0
 48 50  1  0
 49 47  2  0
 52 27  1  0
 52 53  1  0
 54 52  1  0
 56 58  1  0
 56 55  1  0
 57 68  2  0
 58 63  1  0
 59 67  1  0
 59 69  1  0
 60 66  1  0
 60 62  1  0
 61 67  1  0
 62 61  1  0
 63 62  2  0
 64 65  1  0
 64 58  2  0
 65 60  2  0
 66 59  1  0
 67 57  1  0
 69 71  2  0
 70 69  1  0
 72 70  1  0
 73 82  2  0
 73 78  1  0
 74 70  1  0
 74 78  1  0
 75 74  1  0
 76 77  1  0
 76 75  1  0
 77 73  1  0
 78 79  2  0
 79 80  1  0
 81 80  2  0
 82 81  1  0
 83 57  1  0
 83 88  1  0
 83 84  1  0
 84 87  1  1
 84 85  1  0
 86 84  1  0
 88 91  1  0
 89 88  1  0
 89 93  1  0
 90 89  2  0
 93 92  1  0
 93 95  1  0
 95 96  1  0
 95 94  1  0
M  ISO  4  17 100  25 100  55 101  56 101
M  END
>  <TORSDO>  (1) 
F 19

>  <SCORE>  (1) 
-11.463

>  <name>  (1) 
0

>  <ligand_id>  (1) 
0

>  <original_smiles>  (1) 
[H]C1=C2C([H])([H])c3c([H])c(C([H])([H])C([H])([H])N([H])C(=O)N4C([H])([H])C([H])([H])C([H])([H])C([H])(n5nc(-c6c([H])c([H])c(Oc7c([H])c([H])c(F)c([H])c7F)c([H])c6[H])c(C(=O)N([H])[H])c5N([H])[H])C4([H])[H])c([H])c([H])c3C(=O)C2([H])C([H])([H])C1([H])C([H])([H])Oc1c([H])c([H])c2c(c1[H])C([H])([H])N(C(=O)C([H])(N([H])C(=O)C([H])(N([H])C([H])([H])[H])C([H])([H])[H])C(C([H])([H])[H])(C([H])([H])[H])C([H])([H])[H])C([H])(C(=O)N([H])C1([H])c3c([H])c([H])c([H])c([H])c3C([H])([H])C([H])([H])C1([H])[H])C2([H])[H]

>  <smiles>  (1) 
[H]C1=C2C([H])([H])c3c([H])c(C([H])([H])C([H])([H])N([H])C(=O)N4C([H])([H])C([H])([H])C([H])([H])C([H])(n5nc(-c6c([H])c([H])c(Oc7c([H])c([H])c(F)c([H])c7F)c([H])c6[H])c(C(=O)N([H])[H])c5N([H])[H])C4([H])[H])c([H])c([H])c3C(=O)C2([H])C([H])([H])C1([H])C([H])([H])Oc1c([H])c([H])c2c(c1[H])C([H])([H])N(C(=O)C([H])(N([H])C(=O)C([H])(N([H])C([H])([H])[H])C([H])([H])[H])C(C([H])([H])[H])(C([H])([H])[H])C([H])([H])[H])C([H])(C(=O)N([H])C1([H])c3c([H])c([H])c([H])c([H])c3C([H])([H])C([H])([H])C1([H])[H])C2([H])[H]

$$$$
1:0:0
     RDKit          3D

 90 99  0  0  1  0  0  0  0  0999 V2000
  -30.4140  -22.1100   20.7960 C   0  0  0  0  0  3  0  0  0  0  0  0
  -28.3840  -21.5640   19.6380 C   0  0  0  0  0  3  0  0  0  0  0  0
  -29.9790  -23.4590   20.9400 C   0  0  0  0  0  3  0  0  0  0  0  0
  -27.9410  -22.9130   19.7870 C   0  0  0  0  0  3  0  0  0  0  0  0
  -29.6250  -21.1140   20.1680 C   0  0  0  0  0  0  0  0  0  0  0  0
  -28.7190  -23.8910   20.4650 C   0  0  0  0  0  0  0  0  0  0  0  0
  -29.6480  -18.6850   19.0080 C   0  0  0  0  0  2  0  0  0  0  0  0
  -30.1910  -19.6720   20.0210 C   0  0  0  0  0  3  0  0  0  0  0  0
  -29.5830  -18.3060   20.4680 C   0  0  0  0  0  3  0  0  0  0  0  0
  -30.4420  -17.1070   20.9820 C   0  0  0  0  0  2  0  0  0  0  0  0
  -30.6470  -14.6100   20.4310 C   0  0  0  0  0  0  0  0  0  0  0  0
  -30.3590  -12.4120   19.3180 C   0  0  0  0  0  2  0  0  0  0  0  0
  -29.4090  -12.5660   18.1130 C   0  0  0  0  0  2  0  0  0  0  0  0
  -27.9350  -12.4290   18.5440 C   0  0  0  0  0  2  0  0  0  0  0  0
  -27.5940  -13.2680   19.8060 C   0  0  0  0  0  3  0  0  0  0  0  0
  -28.6650  -13.1050   20.9090 C   0  0  0  0  0  2  0  0  0  0  0  0
  -29.9730  -13.4250   20.3210 N   0  0  0  0  0  0  0  0  0  0  0  0
  -31.8000  -14.7340   20.0160 O   0  0  0  0  0  0  0  0  0  0  0  0
  -29.9450  -15.6990   20.8590 N   0  0  0  0  0  0  0  0  0  0  0  0
  -29.0030  -15.5180   21.1740 H   0  0  0  0  0  0  0  0  0  0  0  0
  -25.2030  -13.8560   20.5340 C   0  0  0  0  0  0  0  0  0  0  0  0
  -24.1410  -13.0780   20.9070 C   0  0  0  0  0  0  0  0  0  0  0  0
  -24.6080  -11.7280   20.8740 C   0  0  0  0  0  0  0  0  0  0  0  0
  -26.2500  -12.9790   20.2980 N   0  0  0  0  0  0  0  0  0  0  0  0
  -25.8970  -11.6940   20.5620 N   0  0  0  0  0  0  0  0  0  0  0  0
  -23.8860  -10.4630   21.0670 C   0  0  0  0  0  0  0  0  0  0  0  0
  -24.3330   -9.4870   21.9860 C   0  0  0  0  0  3  0  0  0  0  0  0
  -23.6080   -8.2880   22.1670 C   0  0  0  0  0  3  0  0  0  0  0  0
  -22.4240   -8.0560   21.4260 C   0  0  0  0  0  0  0  0  0  0  0  0
  -21.9990   -9.0190   20.4930 C   0  0  0  0  0  3  0  0  0  0  0  0
  -22.7240  -10.2070   20.3120 C   0  0  0  0  0  3  0  0  0  0  0  0
  -21.6720   -6.9080   21.5160 O   0  0  0  0  0  0  0  0  0  0  0  0
  -21.6490   -6.1500   22.6580 C   0  0  0  0  0  0  0  0  0  0  0  0
  -21.2580   -6.6900   23.9030 C   0  0  0  0  0  3  0  0  0  0  0  0
  -21.1810   -5.8570   25.0380 C   0  0  0  0  0  3  0  0  0  0  0  0
  -21.4870   -4.4870   24.9300 C   0  0  0  0  0  0  0  0  0  0  0  0
  -21.8720   -3.9470   23.6900 C   0  0  0  0  0  3  0  0  0  0  0  0
  -21.9500   -4.7760   22.5580 C   0  0  0  0  0  0  0  0  0  0  0  0
  -22.2990   -4.2460   21.3590 F   0  0  0  0  0  0  0  0  0  0  0  0
  -21.4070   -3.6850   26.0180 F   0  0  0  0  0  0  0  0  0  0  0  0
  -22.7420  -13.5500   21.1850 C   0  0  0  0  0  0  0  0  0  0  0  0
  -22.0190  -12.8480   22.0520 N   0  0  0  0  0  0  0  0  0  0  0  0
  -22.2990  -14.5760   20.6700 O   0  0  0  0  0  0  0  0  0  0  0  0
  -22.3900  -12.0130   22.4810 H   0  0  0  0  0  0  0  0  0  0  0  0
  -21.0810  -13.1420   22.2830 H   0  0  0  0  0  0  0  0  0  0  0  0
  -25.3660  -15.2270   20.3510 N   0  0  0  0  0  0  0  0  0  0  0  0
  -24.6090  -15.8900   20.4670 H   0  0  0  0  0  0  0  0  0  0  0  0
  -26.2230  -15.6570   20.0240 H   0  0  0  0  0  0  0  0  0  0  0  0
  -28.1050  -25.2590   20.9230 C   0  0  0  0  0  2  0  0  0  0  0  0
  -28.3370  -26.5160   20.1960 O   0  0  0  0  0  0  0  0  0  0  0  0
  -24.5830  -31.8850   23.2290 C   0  0  0  0  0  0  0  0  0  0  0  0
  -27.2310  -27.3720   20.1760 C   0  0  0  0  0  0  0  0  0  0  0  0
  -23.3910  -30.4840   21.5830 C   0  0  0  0  0  3  0  0  0  0  0  0
  -24.8540  -28.9440   20.1590 C   0  0  0  0  0  0  0  0  0  0  0  0
  -25.9270  -30.8270   21.3970 C   0  0  0  0  0  2  0  0  0  0  0  0
  -26.0160  -29.4470   20.7620 C   0  0  0  0  0  0  0  0  0  0  0  0
  -27.2130  -28.6710   20.7620 C   0  0  0  0  0  3  0  0  0  0  0  0
  -26.0500  -26.9150   19.5530 C   0  0  0  0  0  3  0  0  0  0  0  0
  -24.8690  -27.6790   19.5500 C   0  0  0  0  0  3  0  0  0  0  0  0
  -23.6100  -29.8080   20.2030 C   0  0  0  0  0  2  0  0  0  0  0  0
  -24.6530  -31.0830   22.1280 N   0  0  0  0  0  0  0  0  0  0  0  0
  -23.4970  -32.1520   23.7650 O   0  0  0  0  0  0  0  0  0  0  0  0
  -22.7320  -29.4640   22.5400 C   0  0  0  0  0  0  0  0  0  0  0  0
  -21.4060  -29.2840   22.4140 N   0  0  0  0  0  0  0  0  0  0  0  0
  -23.4130  -28.8350   23.3540 O   0  0  0  0  0  0  0  0  0  0  0  0
  -20.9170  -29.8410   21.7280 H   0  0  0  0  0  0  0  0  0  0  0  0
  -18.0270  -28.0990   22.9110 C   0  0  0  0  0  0  0  0  0  0  0  0
  -20.5870  -28.3430   23.1800 C   0  0  0  0  0  3  0  0  0  0  0  0
  -20.6840  -26.9150   22.5950 C   0  0  0  0  0  2  0  0  0  0  0  0
  -19.5770  -26.6060   21.5820 C   0  0  0  0  0  2  0  0  0  0  0  0
  -18.1970  -26.7550   22.2250 C   0  0  0  0  0  2  0  0  0  0  0  0
  -19.1480  -28.8540   23.3460 C   0  0  0  0  0  0  0  0  0  0  0  0
  -18.9330  -30.1170   23.9370 C   0  0  0  0  0  3  0  0  0  0  0  0
  -17.6290  -30.6220   24.1020 C   0  0  0  0  0  3  0  0  0  0  0  0
  -16.5230  -29.8630   23.6830 C   0  0  0  0  0  3  0  0  0  0  0  0
  -16.7230  -28.6030   23.0930 C   0  0  0  0  0  3  0  0  0  0  0  0
  -25.8630  -32.5190   23.8570 C   0  0  0  0  0  3  0  0  0  0  0  0
  -26.3780  -31.7470   25.1320 C   0  0  1  0  0  0  0  0  0  0  0  0
  -25.2800  -31.5020   26.1920 C   0  0  0  0  0  1  0  0  0  0  0  0
  -26.9650  -30.3760   24.7300 C   0  0  0  0  0  1  0  0  0  0  0  0
  -27.5280  -32.5370   25.7990 C   0  0  0  0  0  1  0  0  0  0  0  0
  -25.5540  -33.9170   24.1880 N   0  0  0  0  0  0  0  0  0  0  0  0
  -25.8850  -34.9700   23.4290 C   0  0  0  0  0  0  0  0  0  0  0  0
  -26.5590  -34.8690   22.4000 O   0  0  0  0  0  0  0  0  0  0  0  0
  -24.9670  -34.0710   24.9970 H   0  0  0  0  0  0  0  0  0  0  0  0
  -24.1540  -36.7490   23.0640 C   0  0  0  0  0  1  0  0  0  0  0  0
  -25.3930  -36.3550   23.8830 C   0  0  0  0  0  3  0  0  0  0  0  0
  -27.5200  -37.2420   24.7250 C   0  0  0  0  0  1  0  0  0  0  0  0
  -26.4220  -37.4120   23.7760 N   0  0  0  0  0  0  0  0  0  0  0  0
  -26.0120  -38.3300   23.9290 H   0  0  0  0  0  0  0  0  0  0  0  0
  1  3  1  0
  2  4  2  0
  2  5  1  0
  4  6  1  0
  5  1  2  0
  6 49  1  0
  6  3  2  0
  7  8  1  0
  7  9  1  0
  8  5  1  0
  8  9  1  0
  9 10  1  0
 11 19  1  0
 12 17  1  0
 13 14  1  0
 13 12  1  0
 15 14  1  0
 15 24  1  0
 15 16  1  0
 17 11  1  0
 17 16  1  0
 18 11  2  0
 19 10  1  0
 19 20  1  0
 21 22  2  0
 22 41  1  0
 23 22  1  0
 23 26  1  0
 24 21  1  0
 24 25  1  0
 25 23  2  0
 26 27  1  0
 27 28  2  0
 29 32  1  0
 29 28  1  0
 30 29  2  0
 31 30  1  0
 31 26  2  0
 32 33  1  0
 33 34  1  0
 34 35  2  0
 36 35  1  0
 36 40  1  0
 37 36  2  0
 38 33  2  0
 38 37  1  0
 39 38  1  0
 41 42  1  0
 42 45  1  0
 42 44  1  0
 43 41  2  0
 46 47  1  0
 46 21  1  0
 48 46  1  0
 50 49  1  0
 51 62  2  0
 52 50  1  0
 52 57  1  0
 53 61  1  0
 53 63  1  0
 54 60  1  0
 54 56  1  0
 55 61  1  0
 56 55  1  0
 57 56  2  0
 58 52  2  0
 59 58  1  0
 59 54  2  0
 60 53  1  0
 61 51  1  0
 63 65  2  0
 64 63  1  0
 66 64  1  0
 67 76  2  0
 67 72  1  0
 68 64  1  0
 68 72  1  0
 69 68  1  0
 70 71  1  0
 70 69  1  0
 71 67  1  0
 72 73  2  0
 73 74  1  0
 75 74  2  0
 76 75  1  0
 77 51  1  0
 77 82  1  0
 77 78  1  0
 78 81  1  1
 78 79  1  0
 80 78  1  0
 82 85  1  0
 83 87  1  0
 83 82  1  0
 84 83  2  0
 87 86  1  0
 89 87  1  0
 89 90  1  0
 89 88  1  0
M  ISO  4  11 100  19 100  49 101  50 101
M  END
>  <TORSDO>  (2) 
F 19

>  <SCORE>  (2) 
-14.290

>  <name>  (2) 
1

>  <ligand_id>  (2) 
1

>  <original_smiles>  (2) 
[H]c1c([H])c([H])c2c(c1[H])C([H])([H])C([H])([H])C([H])([H])C2([H])N([H])C(=O)C1([H])N(C(=O)C([H])(N([H])C(=O)C([H])(N([H])C([H])([H])[H])C([H])([H])[H])C(C([H])([H])[H])(C([H])([H])[H])C([H])([H])[H])C([H])([H])c2c([H])c(OC([H])([H])c3c([H])c([H])c(C4([H])C([H])([H])C4([H])C([H])([H])N([H])C(=O)N4C([H])([H])C([H])([H])C([H])([H])C([H])(n5nc(-c6c([H])c([H])c(Oc7c([H])c([H])c(F)c([H])c7F)c([H])c6[H])c(C(=O)N([H])[H])c5N([H])[H])C4([H])[H])c([H])c3[H])c([H])c([H])c2C1([H])[H]

>  <smiles>  (2) 
[H]c1c([H])c([H])c2c(c1[H])C([H])([H])C([H])([H])C([H])([H])C2([H])N([H])C(=O)C1([H])N(C(=O)C([H])(N([H])C(=O)C([H])(N([H])C([H])([H])[H])C([H])([H])[H])C(C([H])([H])[H])(C([H])([H])[H])C([H])([H])[H])C([H])([H])c2c([H])c(OC([H])([H])c3c([H])c([H])c(C4([H])C([H])([H])C4([H])C([H])([H])N([H])C(=O)N4C([H])([H])C([H])([H])C([H])([H])C([H])(n5nc(-c6c([H])c([H])c(Oc7c([H])c([H])c(F)c([H])c7F)c([H])c6[H])c(C(=O)N([H])[H])c5N([H])[H])C4([H])[H])c([H])c3[H])c([H])c([H])c2C1([H])[H]

$$$$
2:0:0
     RDKit          3D

 89 97  0  0  1  0  0  0  0  0999 V2000
  -28.8690  -17.8390   20.8660 C   0  0  0  0  0  3  0  0  0  0  0  0
  -28.5890  -19.1660   20.7740 C   0  0  0  0  0  3  0  0  0  0  0  0
  -29.9580  -17.0860   20.1790 C   0  0  0  0  0  0  0  0  0  0  0  0
  -29.3570  -20.1770   20.0030 C   0  0  0  0  0  0  0  0  0  0  0  0
  -30.8120  -18.0270   19.2870 C   0  0  0  0  0  0  0  0  0  0  0  0
  -30.6630  -19.6010   19.3870 C   0  0  0  0  0  2  0  0  0  0  0  0
  -29.9550  -15.7890   20.4310 N   0  0  0  0  0  0  0  0  0  0  0  0
  -28.9100  -21.4170   19.9760 N   0  0  0  0  0  0  0  0  0  0  0  0
  -31.6420  -17.5800   18.4870 O   0  0  0  0  0  0  0  0  0  0  0  0
  -30.7910  -14.7600   19.9090 C   0  0  0  0  0  0  0  0  0  0  0  0
  -30.5770  -12.4740   18.9060 C   0  0  0  0  0  2  0  0  0  0  0  0
  -29.5640  -12.5470   17.7420 C   0  0  0  0  0  2  0  0  0  0  0  0
  -28.1180  -12.3800   18.2540 C   0  0  0  0  0  2  0  0  0  0  0  0
  -27.8160  -13.2810   19.4800 C   0  0  0  0  0  3  0  0  0  0  0  0
  -28.9320  -13.1560   20.5390 C   0  0  0  0  0  2  0  0  0  0  0  0
  -30.2050  -13.5130   19.8890 N   0  0  0  0  0  0  0  0  0  0  0  0
  -31.9050  -14.9090   19.4040 O   0  0  0  0  0  0  0  0  0  0  0  0
  -25.4810  -13.9050   20.3530 C   0  0  0  0  0  0  0  0  0  0  0  0
  -24.4250  -13.1430   20.7780 C   0  0  0  0  0  0  0  0  0  0  0  0
  -24.8620  -11.7850   20.6950 C   0  0  0  0  0  0  0  0  0  0  0  0
  -26.4940  -13.0120   20.0410 N   0  0  0  0  0  0  0  0  0  0  0  0
  -26.1300  -11.7300   20.3060 N   0  0  0  0  0  0  0  0  0  0  0  0
  -24.1270  -10.5310   20.9100 C   0  0  0  0  0  0  0  0  0  0  0  0
  -24.5660   -9.5690   21.8470 C   0  0  0  0  0  3  0  0  0  0  0  0
  -23.8340   -8.3810   22.0500 C   0  0  0  0  0  3  0  0  0  0  0  0
  -22.6470   -8.1440   21.3150 C   0  0  0  0  0  0  0  0  0  0  0  0
  -22.2270   -9.0940   20.3680 C   0  0  0  0  0  3  0  0  0  0  0  0
  -22.9600  -10.2730   20.1630 C   0  0  0  0  0  3  0  0  0  0  0  0
  -21.8850   -7.0060   21.4260 O   0  0  0  0  0  0  0  0  0  0  0  0
  -21.8170   -6.2980   22.6000 C   0  0  0  0  0  0  0  0  0  0  0  0
  -21.2920   -6.8640   23.7820 C   0  0  0  0  0  3  0  0  0  0  0  0
  -21.1750   -6.0800   24.9470 C   0  0  0  0  0  3  0  0  0  0  0  0
  -21.5730   -4.7300   24.9300 C   0  0  0  0  0  0  0  0  0  0  0  0
  -22.0900   -4.1620   23.7540 C   0  0  0  0  0  3  0  0  0  0  0  0
  -22.2090   -4.9440   22.5900 C   0  0  0  0  0  0  0  0  0  0  0  0
  -22.6890   -4.3860   21.4520 F   0  0  0  0  0  0  0  0  0  0  0  0
  -21.4530   -3.9740   26.0470 F   0  0  0  0  0  0  0  0  0  0  0  0
  -23.0570  -13.6370   21.1450 C   0  0  0  0  0  0  0  0  0  0  0  0
  -22.3780  -12.9440   22.0540 N   0  0  0  0  0  0  0  0  0  0  0  0
  -22.5990  -14.6720   20.6620 O   0  0  0  0  0  0  0  0  0  0  0  0
  -22.7640  -12.1060   22.4660 H   0  0  0  0  0  0  0  0  0  0  0  0
  -21.4610  -13.2540   22.3420 H   0  0  0  0  0  0  0  0  0  0  0  0
  -25.6570  -15.2750   20.1880 N   0  0  0  0  0  0  0  0  0  0  0  0
  -24.9110  -15.9440   20.3470 H   0  0  0  0  0  0  0  0  0  0  0  0
  -26.5030  -15.6980   19.8290 H   0  0  0  0  0  0  0  0  0  0  0  0
  -29.6290  -22.6160   19.4370 C   0  0  0  0  0  2  0  0  0  0  0  0
  -28.7610  -23.9290   19.0750 C   0  0  0  0  0  2  0  0  0  0  0  0
  -28.4630  -25.0960   20.1310 C   0  0  0  0  0  2  0  0  0  0  0  0
  -28.5230  -26.5260   19.7190 O   0  0  0  0  0  0  0  0  0  0  0  0
  -24.6210  -31.6150   23.0800 C   0  0  0  0  0  0  0  0  0  0  0  0
  -27.3700  -27.3220   19.7720 C   0  0  0  0  0  0  0  0  0  0  0  0
  -23.4660  -30.3000   21.3380 C   0  0  0  0  0  3  0  0  0  0  0  0
  -24.9650  -28.8710   19.8340 C   0  0  0  0  0  0  0  0  0  0  0  0
  -25.9980  -30.6890   21.2010 C   0  0  0  0  0  2  0  0  0  0  0  0
  -26.1170  -29.3540   20.4710 C   0  0  0  0  0  0  0  0  0  0  0  0
  -27.3240  -28.5940   20.4240 C   0  0  0  0  0  3  0  0  0  0  0  0
  -26.1960  -26.8840   19.1250 C   0  0  0  0  0  3  0  0  0  0  0  0
  -25.0070  -27.6430   19.1510 C   0  0  0  0  0  3  0  0  0  0  0  0
  -23.7090  -29.7150   19.9220 C   0  0  0  0  0  2  0  0  0  0  0  0
  -24.7130  -30.8830   21.9310 N   0  0  0  0  0  0  0  0  0  0  0  0
  -23.5270  -31.8330   23.6210 O   0  0  0  0  0  0  0  0  0  0  0  0
  -22.8160  -29.2100   22.2250 C   0  0  0  0  0  0  0  0  0  0  0  0
  -21.4900  -29.0360   22.0970 N   0  0  0  0  0  0  0  0  0  0  0  0
  -23.5040  -28.5260   22.9870 O   0  0  0  0  0  0  0  0  0  0  0  0
  -20.9930  -29.6380   21.4560 H   0  0  0  0  0  0  0  0  0  0  0  0
  -18.1140  -27.8310   22.5830 C   0  0  0  0  0  0  0  0  0  0  0  0
  -20.6830  -28.0380   22.8000 C   0  0  0  0  0  3  0  0  0  0  0  0
  -20.7510  -26.6650   22.0890 C   0  0  0  0  0  2  0  0  0  0  0  0
  -19.6150  -26.4530   21.0830 C   0  0  0  0  0  2  0  0  0  0  0  0
  -18.2540  -26.5490   21.7780 C   0  0  0  0  0  2  0  0  0  0  0  0
  -19.2540  -28.5370   23.0490 C   0  0  0  0  0  0  0  0  0  0  0  0
  -19.0670  -29.7400   23.7630 C   0  0  0  0  0  3  0  0  0  0  0  0
  -17.7750  -30.2360   24.0150 C   0  0  0  0  0  3  0  0  0  0  0  0
  -16.6490  -29.5250   23.5650 C   0  0  0  0  0  3  0  0  0  0  0  0
  -16.8200  -28.3230   22.8540 C   0  0  0  0  0  3  0  0  0  0  0  0
  -25.8840  -32.2340   23.7570 C   0  0  0  0  0  3  0  0  0  0  0  0
  -26.3520  -31.4420   25.0390 C   0  0  1  0  0  0  0  0  0  0  0  0
  -25.2200  -31.1890   26.0630 C   0  0  0  0  0  1  0  0  0  0  0  0
  -26.9450  -30.0680   24.6460 C   0  0  0  0  0  1  0  0  0  0  0  0
  -27.4830  -32.2200   25.7510 C   0  0  0  0  0  1  0  0  0  0  0  0
  -25.5670  -33.6280   24.0990 N   0  0  0  0  0  0  0  0  0  0  0  0
  -25.9220  -34.6910   23.3650 C   0  0  0  0  0  0  0  0  0  0  0  0
  -26.6210  -34.6010   22.3520 O   0  0  0  0  0  0  0  0  0  0  0  0
  -24.9500  -33.7720   24.8850 H   0  0  0  0  0  0  0  0  0  0  0  0
  -24.2160  -36.4990   22.9820 C   0  0  0  0  0  1  0  0  0  0  0  0
  -25.4270  -36.0750   23.8290 C   0  0  0  0  0  3  0  0  0  0  0  0
  -27.5220  -36.9500   24.7630 C   0  0  0  0  0  1  0  0  0  0  0  0
  -26.4670  -37.1250   23.7690 N   0  0  0  0  0  0  0  0  0  0  0  0
  -26.0580  -38.0460   23.9010 H   0  0  0  0  0  0  0  0  0  0  0  0
  2  1  2  0
  3  7  2  0
  3  1  1  0
  4  2  1  0
  5  6  1  0
  5  3  1  0
  6  4  1  0
  8  4  2  0
  9  5  2  0
 10  7  1  0
 11 16  1  0
 12 13  1  0
 12 11  1  0
 14 13  1  0
 14 21  1  0
 14 15  1  0
 16 10  1  0
 16 15  1  0
 17 10  2  0
 18 19  2  0
 19 38  1  0
 20 19  1  0
 20 23  1  0
 21 22  1  0
 21 18  1  0
 22 20  2  0
 23 24  1  0
 24 25  2  0
 26 29  1  0
 26 25  1  0
 27 26  2  0
 28 27  1  0
 28 23  2  0
 29 30  1  0
 30 31  1  0
 31 32  2  0
 33 32  1  0
 33 37  1  0
 34 33  2  0
 35 30  2  0
 35 34  1  0
 36 35  1  0
 38 39  1  0
 39 42  1  0
 39 41  1  0
 40 38  2  0
 43 44  1  0
 43 18  1  0
 45 43  1  0
 46  8  1  0
 47 46  1  0
 47 48  1  0
 49 51  1  0
 49 48  1  0
 50 61  2  0
 51 56  1  0
 52 60  1  0
 52 62  1  0
 53 59  1  0
 53 55  1  0
 54 60  1  0
 55 54  1  0
 56 55  2  0
 57 58  1  0
 57 51  2  0
 58 53  2  0
 59 52  1  0
 60 50  1  0
 62 64  2  0
 63 62  1  0
 65 63  1  0
 66 75  2  0
 66 71  1  0
 67 63  1  0
 67 71  1  0
 68 67  1  0
 69 70  1  0
 69 68  1  0
 70 66  1  0
 71 72  2  0
 72 73  1  0
 74 73  2  0
 75 74  1  0
 76 50  1  0
 76 81  1  0
 76 77  1  0
 77 80  1  1
 77 78  1  0
 79 77  1  0
 81 84  1  0
 82 86  1  0
 82 81  1  0
 83 82  2  0
 86 85  1  0
 88 86  1  0
 88 89  1  0
 88 87  1  0
M  ISO  4   7 100  10 100  48 101  49 101
M  END
>  <TORSDO>  (3) 
F 19

>  <SCORE>  (3) 
-13.339

>  <name>  (3) 
2

>  <ligand_id>  (3) 
2

>  <original_smiles>  (3) 
[H]C1=C([H])C(=NC([H])([H])C([H])([H])C([H])([H])Oc2c([H])c([H])c3c(c2[H])C([H])([H])N(C(=O)C([H])(N([H])C(=O)C([H])(N([H])C([H])([H])[H])C([H])([H])[H])C(C([H])([H])[H])(C([H])([H])[H])C([H])([H])[H])C([H])(C(=O)N([H])C2([H])c4c([H])c([H])c([H])c([H])c4C([H])([H])C([H])([H])C2([H])[H])C3([H])[H])C([H])([H])C(=O)C1=NC(=O)N1C([H])([H])C([H])([H])C([H])([H])C([H])(n2nc(-c3c([H])c([H])c(Oc4c([H])c([H])c(F)c([H])c4F)c([H])c3[H])c(C(=O)N([H])[H])c2N([H])[H])C1([H])[H]

>  <smiles>  (3) 
[H]C1=C([H])C(=NC([H])([H])C([H])([H])C([H])([H])Oc2c([H])c([H])c3c(c2[H])C([H])([H])N(C(=O)C([H])(N([H])C(=O)C([H])(N([H])C([H])([H])[H])C([H])([H])[H])C(C([H])([H])[H])(C([H])([H])[H])C([H])([H])[H])C([H])(C(=O)N([H])C2([H])c4c([H])c([H])c([H])c([H])c4C([H])([H])C([H])([H])C2([H])[H])C3([H])[H])C([H])([H])C(=O)C1=NC(=O)N1C([H])([H])C([H])([H])C([H])([H])C([H])(n2nc(-c3c([H])c([H])c(Oc4c([H])c([H])c(F)c([H])c4F)c([H])c3[H])c(C(=O)N([H])[H])c2N([H])[H])C1([H])[H]

$$$$
3:0:0
     RDKit          3D

 90100  0  0  1  0  0  0  0  0999 V2000
  -28.8840  -20.7750   18.1430 C   0  0  0  0  0  2  0  0  0  0  0  0
  -29.1360  -21.0020   19.4350 C   0  0  0  0  0  3  0  0  0  0  0  0
  -29.3330  -23.1370   18.0510 C   0  0  0  0  0  2  0  0  0  0  0  0
  -27.4210  -22.6170   18.5220 C   0  0  0  0  0  2  0  0  0  0  0  0
  -28.4070  -22.0400   17.5090 C   0  0  0  0  0  3  0  0  0  0  0  0
  -28.6970  -22.7340   19.4110 C   0  0  1  0  0  0  0  0  0  0  0  0
  -30.1570  -18.3380   22.2540 C   0  0  0  0  0  3  0  0  0  0  0  0
  -29.7990  -19.5260   21.5540 C   0  0  0  0  0  3  0  0  0  0  0  0
  -30.4420  -17.0750   21.6510 C   0  0  0  0  0  3  0  0  0  0  0  0
  -30.0270  -18.1700   19.5580 C   0  0  0  0  0  3  0  0  0  0  0  0
  -29.6870  -19.5640   20.1490 C   0  0  0  0  0  0  0  0  0  0  0  0
  -30.4210  -16.8440   20.2510 C   0  0  0  0  0  0  0  0  0  0  0  0
  -30.9830  -15.3420   19.6930 C   0  0  0  0  0  0  0  0  0  0  0  0
  -30.7540  -12.9450   18.7050 C   0  0  0  0  0  2  0  0  0  0  0  0
  -29.7080  -12.8460   17.5610 C   0  0  0  0  0  2  0  0  0  0  0  0
  -28.3190  -12.5780   18.1530 C   0  0  0  0  0  2  0  0  0  0  0  0
  -28.0170  -13.5430   19.3230 C   0  0  0  0  0  3  0  0  0  0  0  0
  -29.1570  -13.5880   20.3610 C   0  0  0  0  0  2  0  0  0  0  0  0
  -30.3620  -14.0560   19.6590 N   0  0  0  0  0  0  0  0  0  0  0  0
  -32.1340  -15.2900   19.2270 O   0  0  0  0  0  0  0  0  0  0  0  0
  -25.7670  -14.1950   20.3190 C   0  0  0  0  0  0  0  0  0  0  0  0
  -24.7030  -13.4620   20.7520 C   0  0  0  0  0  0  0  0  0  0  0  0
  -25.0870  -12.0900   20.6240 C   0  0  0  0  0  0  0  0  0  0  0  0
  -26.7270  -13.2780   19.9370 N   0  0  0  0  0  0  0  0  0  0  0  0
  -26.3370  -12.0020   20.1880 N   0  0  0  0  0  0  0  0  0  0  0  0
  -24.3080  -10.8620   20.8300 C   0  0  0  0  0  0  0  0  0  0  0  0
  -24.7390   -9.8570   21.7230 C   0  0  0  0  0  3  0  0  0  0  0  0
  -23.9650   -8.6930   21.9210 C   0  0  0  0  0  3  0  0  0  0  0  0
  -22.7450   -8.5270   21.2210 C   0  0  0  0  0  0  0  0  0  0  0  0
  -22.3290   -9.5210   20.3180 C   0  0  0  0  0  3  0  0  0  0  0  0
  -23.1050  -10.6760   20.1210 C   0  0  0  0  0  3  0  0  0  0  0  0
  -21.9370   -7.4210   21.3310 O   0  0  0  0  0  0  0  0  0  0  0  0
  -21.8630   -6.6990   22.4940 C   0  0  0  0  0  0  0  0  0  0  0  0
  -21.4920   -7.2930   23.7200 C   0  0  0  0  0  3  0  0  0  0  0  0
  -21.3610   -6.4980   24.8760 C   0  0  0  0  0  3  0  0  0  0  0  0
  -21.5900   -5.1100   24.8060 C   0  0  0  0  0  0  0  0  0  0  0  0
  -21.9570   -4.5160   23.5850 C   0  0  0  0  0  3  0  0  0  0  0  0
  -22.0900   -5.3090   22.4330 C   0  0  0  0  0  0  0  0  0  0  0  0
  -22.4200   -4.7270   21.2540 F   0  0  0  0  0  0  0  0  0  0  0  0
  -21.4560   -4.3450   25.9150 F   0  0  0  0  0  0  0  0  0  0  0  0
  -23.3670  -14.0000   21.1730 C   0  0  0  0  0  0  0  0  0  0  0  0
  -22.6930  -13.3150   22.0880 N   0  0  0  0  0  0  0  0  0  0  0  0
  -22.9360  -15.0630   20.7240 O   0  0  0  0  0  0  0  0  0  0  0  0
  -23.0530  -12.4530   22.4680 H   0  0  0  0  0  0  0  0  0  0  0  0
  -21.7990  -13.6540   22.4130 H   0  0  0  0  0  0  0  0  0  0  0  0
  -26.0010  -15.5630   20.1870 N   0  0  0  0  0  0  0  0  0  0  0  0
  -25.3040  -16.2570   20.4330 H   0  0  0  0  0  0  0  0  0  0  0  0
  -26.8690  -15.9690   19.8560 H   0  0  0  0  0  0  0  0  0  0  0  0
  -28.4190  -24.1650   20.4420 C   0  0  0  0  0  2  0  0  0  0  0  0
  -28.5330  -25.7950   20.1600 O   0  0  0  0  0  0  0  0  0  0  0  0
  -24.6150  -31.5970   23.0630 C   0  0  0  0  0  0  0  0  0  0  0  0
  -27.4730  -26.8400   20.1260 C   0  0  0  0  0  0  0  0  0  0  0  0
  -23.5460  -30.1420   21.3870 C   0  0  0  0  0  3  0  0  0  0  0  0
  -25.1070  -28.6130   20.0100 C   0  0  0  0  0  0  0  0  0  0  0  0
  -26.1040  -30.4800   21.3200 C   0  0  0  0  0  2  0  0  0  0  0  0
  -26.2560  -29.0730   20.6670 C   0  0  0  0  0  0  0  0  0  0  0  0
  -27.4400  -28.2090   20.6880 C   0  0  0  0  0  3  0  0  0  0  0  0
  -26.2880  -26.5280   19.4270 C   0  0  0  0  0  3  0  0  0  0  0  0
  -25.1520  -27.3690   19.3600 C   0  0  0  0  0  3  0  0  0  0  0  0
  -23.8530  -29.4800   20.0160 C   0  0  0  0  0  2  0  0  0  0  0  0
  -24.7750  -30.7730   21.9760 N   0  0  0  0  0  0  0  0  0  0  0  0
  -23.4970  -31.8260   23.5510 O   0  0  0  0  0  0  0  0  0  0  0  0
  -22.8740  -29.1150   22.3330 C   0  0  0  0  0  0  0  0  0  0  0  0
  -21.5500  -28.9030   22.1870 N   0  0  0  0  0  0  0  0  0  0  0  0
  -23.5480  -28.5080   23.1690 O   0  0  0  0  0  0  0  0  0  0  0  0
  -21.0560  -29.4750   21.5170 H   0  0  0  0  0  0  0  0  0  0  0  0
  -18.2000  -27.5600   22.6070 C   0  0  0  0  0  0  0  0  0  0  0  0
  -20.7430  -27.9260   22.9300 C   0  0  0  0  0  3  0  0  0  0  0  0
  -20.9120  -26.4960   22.3610 C   0  0  0  0  0  2  0  0  0  0  0  0
  -19.8470  -26.1300   21.3190 C   0  0  0  0  0  2  0  0  0  0  0  0
  -18.4470  -26.2180   21.9340 C   0  0  0  0  0  2  0  0  0  0  0  0
  -19.2770  -28.3650   23.0620 C   0  0  0  0  0  0  0  0  0  0  0  0
  -18.9940  -29.6120   23.6670 C   0  0  0  0  0  3  0  0  0  0  0  0
  -17.6640  -30.0520   23.8200 C   0  0  0  0  0  3  0  0  0  0  0  0
  -16.6010  -29.2450   23.3800 C   0  0  0  0  0  3  0  0  0  0  0  0
  -16.8700  -28.0040   22.7730 C   0  0  0  0  0  3  0  0  0  0  0  0
  -25.8290  -32.3000   23.7490 C   0  0  0  0  0  3  0  0  0  0  0  0
  -25.4220  -33.6730   24.0920 N   0  0  0  0  0  0  0  0  0  0  0  0
  -25.7140  -34.7640   23.3720 C   0  0  0  0  0  0  0  0  0  0  0  0
  -26.4110  -34.7180   22.3540 O   0  0  0  0  0  0  0  0  0  0  0  0
  -24.8070  -33.7770   24.8850 H   0  0  0  0  0  0  0  0  0  0  0  0
  -23.8930  -36.4690   23.0190 C   0  0  0  0  0  1  0  0  0  0  0  0
  -25.1420  -36.1150   23.8440 C   0  0  0  0  0  3  0  0  0  0  0  0
  -27.2130  -37.1050   24.7250 C   0  0  0  0  0  1  0  0  0  0  0  0
  -26.1190  -37.2250   23.7650 N   0  0  0  0  0  0  0  0  0  0  0  0
  -25.6660  -38.1230   23.9070 H   0  0  0  0  0  0  0  0  0  0  0  0
  -26.3340  -31.5430   25.0380 C   0  0  1  0  0  0  0  0  0  0  0  0
  -25.2180  -31.2370   26.0660 C   0  0  0  0  0  1  0  0  0  0  0  0
  -27.0040  -30.2030   24.6640 C   0  0  0  0  0  1  0  0  0  0  0  0
  -27.4270  -32.3830   25.7410 C   0  0  0  0  0  1  0  0  0  0  0  0
  1  2  1  0
  2 11  1  0
  3  6  1  0
  4  6  1  0
  5  3  1  0
  5  1  1  0
  5  4  1  0
  6  2  1  0
  6 49  1  1
  8  7  2  0
  9  7  1  0
 10 11  2  0
 10 12  1  0
 11  8  1  0
 12  9  2  0
 13 12  1  0
 14 19  1  0
 15 16  1  0
 15 14  1  0
 17 16  1  0
 17 24  1  0
 17 18  1  0
 19 13  1  0
 19 18  1  0
 20 13  2  0
 21 22  2  0
 22 41  1  0
 23 22  1  0
 23 26  1  0
 24 25  1  0
 24 21  1  0
 25 23  2  0
 26 27  1  0
 27 28  2  0
 29 32  1  0
 29 28  1  0
 30 29  2  0
 31 30  1  0
 31 26  2  0
 32 33  1  0
 33 34  1  0
 34 35  2  0
 36 35  1  0
 36 40  1  0
 37 36  2  0
 38 33  2  0
 38 37  1  0
 39 38  1  0
 41 42  1  0
 42 45  1  0
 42 44  1  0
 43 41  2  0
 46 21  1  0
 46 47  1  0
 48 46  1  0
 50 49  1  0
 51 62  2  0
 52 50  1  0
 52 57  1  0
 53 61  1  0
 53 63  1  0
 54 60  1  0
 54 56  1  0
 55 61  1  0
 56 57  2  0
 56 55  1  0
 58 52  2  0
 59 58  1  0
 59 54  2  0
 60 53  1  0
 61 51  1  0
 63 65  2  0
 64 63  1  0
 66 64  1  0
 67 76  2  0
 67 72  1  0
 68 64  1  0
 68 72  1  0
 69 68  1  0
 70 71  1  0
 70 69  1  0
 71 67  1  0
 72 73  2  0
 73 74  1  0
 75 74  2  0
 76 75  1  0
 77 51  1  0
 77 78  1  0
 77 87  1  0
 78 81  1  0
 79 83  1  0
 79 78  1  0
 80 79  2  0
 83 82  1  0
 85 83  1  0
 85 86  1  0
 85 84  1  0
 87 90  1  1
 87 88  1  0
 89 87  1  0
M  ISO  4  12 100  13 100  49 101  50 101
M  END
>  <TORSDO>  (4) 
F 18

>  <SCORE>  (4) 
-14.602

>  <name>  (4) 
3

>  <ligand_id>  (4) 
3

>  <original_smiles>  (4) 
[H]C1=C(c2c([H])c([H])c([H])c(C(=O)N3C([H])([H])C([H])([H])C([H])([H])C([H])(n4nc(-c5c([H])c([H])c(Oc6c([H])c([H])c(F)c([H])c6F)c([H])c5[H])c(C(=O)N([H])[H])c4N([H])[H])C3([H])[H])c2[H])C2(C([H])([H])Oc3c([H])c([H])c4c(c3[H])C([H])([H])N(C(=O)C([H])(N([H])C(=O)C([H])(N([H])C([H])([H])[H])C([H])([H])[H])C(C([H])([H])[H])(C([H])([H])[H])C([H])([H])[H])C([H])(C(=O)N([H])C3([H])c5c([H])c([H])c([H])c([H])c5C([H])([H])C([H])([H])C3([H])[H])C4([H])[H])C([H])([H])C1([H])C2([H])[H]

>  <smiles>  (4) 
[H]C1=C(c2c([H])c([H])c([H])c(C(=O)N3C([H])([H])C([H])([H])C([H])([H])C([H])(n4nc(-c5c([H])c([H])c(Oc6c([H])c([H])c(F)c([H])c6F)c([H])c5[H])c(C(=O)N([H])[H])c4N([H])[H])C3([H])[H])c2[H])C2(C([H])([H])Oc3c([H])c([H])c4c(c3[H])C([H])([H])N(C(=O)C([H])(N([H])C(=O)C([H])(N([H])C([H])([H])[H])C([H])([H])[H])C(C([H])([H])[H])(C([H])([H])[H])C([H])([H])[H])C([H])(C(=O)N([H])C3([H])c5c([H])c([H])c([H])c([H])c5C([H])([H])C([H])([H])C3([H])[H])C4([H])[H])C([H])([H])C1([H])C2([H])[H]

$$$$
4:0:0
     RDKit          3D

 93102  0  0  1  0  0  0  0  0999 V2000
  -30.4810  -22.3940   17.2000 C   0  0  0  0  0  2  0  0  0  0  0  0
  -28.3560  -19.7560   18.9830 C   0  0  0  0  0  3  0  0  0  0  0  0
  -30.7210  -19.2570   19.3430 C   0  0  0  0  0  3  0  0  0  0  0  0
  -28.7140  -20.8660   18.1930 C   0  0  0  0  0  3  0  0  0  0  0  0
  -31.0780  -20.3590   18.5500 C   0  0  0  0  0  3  0  0  0  0  0  0
  -29.3590  -18.9460   19.5590 C   0  0  0  0  0  0  0  0  0  0  0  0
  -30.0750  -21.1660   17.9770 C   0  0  0  0  0  0  0  0  0  0  0  0
  -28.9900  -17.7430   20.3420 C   0  0  0  0  0  0  0  0  0  0  0  0
  -28.0360  -17.7140   21.1240 O   0  0  0  0  0  0  0  0  0  0  0  0
  -29.8000  -16.5670   20.0350 C   0  0  0  0  0  3  0  0  0  0  0  0
  -29.9330  -15.5200   20.8680 C   0  0  0  0  0  3  0  0  0  0  0  0
  -30.7100  -14.4060   20.3710 C   0  0  0  0  0  0  0  0  0  0  0  0
  -30.3550  -12.2630   19.2140 C   0  0  0  0  0  2  0  0  0  0  0  0
  -29.3900  -12.4980   18.0340 C   0  0  0  0  0  2  0  0  0  0  0  0
  -27.9190  -12.4000   18.4910 C   0  0  0  0  0  2  0  0  0  0  0  0
  -27.6240  -13.2290   19.7680 C   0  0  0  0  0  3  0  0  0  0  0  0
  -28.6980  -12.9670   20.8500 C   0  0  0  0  0  2  0  0  0  0  0  0
  -30.0200  -13.2400   20.2620 N   0  0  0  0  0  0  0  0  0  0  0  0
  -31.8340  -14.5650   19.8870 O   0  0  0  0  0  0  0  0  0  0  0  0
  -25.2430  -13.8570   20.5250 C   0  0  0  0  0  0  0  0  0  0  0  0
  -24.1720  -13.0840   20.8960 C   0  0  0  0  0  0  0  0  0  0  0  0
  -24.6200  -11.7310   20.8330 C   0  0  0  0  0  0  0  0  0  0  0  0
  -26.2750  -12.9680   20.2650 N   0  0  0  0  0  0  0  0  0  0  0  0
  -25.9040  -11.6840   20.5070 N   0  0  0  0  0  0  0  0  0  0  0  0
  -23.8840  -10.4730   21.0160 C   0  0  0  0  0  0  0  0  0  0  0  0
  -24.3110   -9.5020   21.9490 C   0  0  0  0  0  3  0  0  0  0  0  0
  -23.5780   -8.3080   22.1260 C   0  0  0  0  0  3  0  0  0  0  0  0
  -22.4050   -8.0750   21.3700 C   0  0  0  0  0  0  0  0  0  0  0  0
  -21.9980   -9.0330   20.4250 C   0  0  0  0  0  3  0  0  0  0  0  0
  -22.7290  -10.2210   20.2480 C   0  0  0  0  0  3  0  0  0  0  0  0
  -21.6410   -6.9350   21.4570 O   0  0  0  0  0  0  0  0  0  0  0  0
  -21.5720   -6.2020   22.6140 C   0  0  0  0  0  0  0  0  0  0  0  0
  -21.1030   -6.7610   23.8220 C   0  0  0  0  0  3  0  0  0  0  0  0
  -20.9800   -5.9530   24.9700 C   0  0  0  0  0  3  0  0  0  0  0  0
  -21.3130   -4.5870   24.9120 C   0  0  0  0  0  0  0  0  0  0  0  0
  -21.7720   -4.0270   23.7070 C   0  0  0  0  0  3  0  0  0  0  0  0
  -21.8970   -4.8310   22.5610 C   0  0  0  0  0  0  0  0  0  0  0  0
  -22.3220   -4.2810   21.3990 F   0  0  0  0  0  0  0  0  0  0  0  0
  -21.1870   -3.8110   26.0150 F   0  0  0  0  0  0  0  0  0  0  0  0
  -22.7840  -13.5660   21.2020 C   0  0  0  0  0  0  0  0  0  0  0  0
  -22.0730  -12.8640   22.0810 N   0  0  0  0  0  0  0  0  0  0  0  0
  -22.3380  -14.5970   20.7030 O   0  0  0  0  0  0  0  0  0  0  0  0
  -22.4480  -12.0340   22.5120 H   0  0  0  0  0  0  0  0  0  0  0  0
  -21.1370  -13.1600   22.3210 H   0  0  0  0  0  0  0  0  0  0  0  0
  -25.4130  -15.2290   20.3760 N   0  0  0  0  0  0  0  0  0  0  0  0
  -24.6580  -15.8790   20.5640 H   0  0  0  0  0  0  0  0  0  0  0  0
  -26.2770  -15.6980   20.1240 H   0  0  0  0  0  0  0  0  0  0  0  0
  -29.4430  -24.0700   18.9890 C   0  0  0  0  0  2  0  0  0  0  0  0
  -30.7400  -25.0160   17.6200 C   0  0  0  0  0  2  0  0  0  0  0  0
  -30.6380  -23.5800   18.1500 C   0  0  0  0  0  3  0  0  0  0  0  0
  -30.0270  -25.4860   18.8980 C   0  0  0  0  0  3  0  0  0  0  0  0
  -29.0820  -26.6770   18.8340 C   0  0  0  0  0  2  0  0  0  0  0  0
  -28.4650  -26.8180   20.1040 O   0  0  0  0  0  0  0  0  0  0  0  0
  -24.5420  -31.8710   23.1540 C   0  0  0  0  0  0  0  0  0  0  0  0
  -27.2830  -27.5060   20.0940 C   0  0  0  0  0  0  0  0  0  0  0  0
  -23.3630  -30.4490   21.5020 C   0  0  0  0  0  3  0  0  0  0  0  0
  -24.8510  -28.9320   20.0920 C   0  0  0  0  0  0  0  0  0  0  0  0
  -25.8770  -30.8590   21.3170 C   0  0  0  0  0  2  0  0  0  0  0  0
  -25.9900  -29.4860   20.6900 C   0  0  0  0  0  0  0  0  0  0  0  0
  -27.2060  -28.7720   20.7050 C   0  0  0  0  0  3  0  0  0  0  0  0
  -26.1320  -26.9480   19.5030 C   0  0  0  0  0  3  0  0  0  0  0  0
  -24.9150  -27.6580   19.4950 C   0  0  0  0  0  3  0  0  0  0  0  0
  -23.5900  -29.7650   20.1260 C   0  0  0  0  0  2  0  0  0  0  0  0
  -24.6100  -31.0750   22.0510 N   0  0  0  0  0  0  0  0  0  0  0  0
  -23.4560  -32.1290   23.6900 O   0  0  0  0  0  0  0  0  0  0  0  0
  -22.7190  -29.4240   22.4620 C   0  0  0  0  0  0  0  0  0  0  0  0
  -21.3930  -29.2500   22.3510 N   0  0  0  0  0  0  0  0  0  0  0  0
  -23.4110  -28.7860   23.2620 O   0  0  0  0  0  0  0  0  0  0  0  0
  -20.8950  -29.8200   21.6820 H   0  0  0  0  0  0  0  0  0  0  0  0
  -18.0140  -28.1040   22.9090 C   0  0  0  0  0  0  0  0  0  0  0  0
  -20.5810  -28.3070   23.1190 C   0  0  0  0  0  3  0  0  0  0  0  0
  -20.6420  -26.8890   22.5070 C   0  0  0  0  0  2  0  0  0  0  0  0
  -19.5090  -26.6120   21.5150 C   0  0  0  0  0  2  0  0  0  0  0  0
  -18.1470  -26.7680   22.1980 C   0  0  0  0  0  2  0  0  0  0  0  0
  -19.1580  -28.8350   23.3260 C   0  0  0  0  0  0  0  0  0  0  0  0
  -18.9790  -30.0890   23.9490 C   0  0  0  0  0  3  0  0  0  0  0  0
  -17.6900  -30.6110   24.1600 C   0  0  0  0  0  3  0  0  0  0  0  0
  -16.5600  -29.8760   23.7590 C   0  0  0  0  0  3  0  0  0  0  0  0
  -16.7240  -28.6240   23.1390 C   0  0  0  0  0  3  0  0  0  0  0  0
  -25.8200  -32.5170   23.7790 C   0  0  0  0  0  3  0  0  0  0  0  0
  -25.4870  -33.9020   24.1360 N   0  0  0  0  0  0  0  0  0  0  0  0
  -25.7960  -34.9720   23.3910 C   0  0  0  0  0  0  0  0  0  0  0  0
  -26.4600  -34.8990   22.3530 O   0  0  0  0  0  0  0  0  0  0  0  0
  -24.8980  -34.0330   24.9450 H   0  0  0  0  0  0  0  0  0  0  0  0
  -24.0360  -36.7380   23.0670 C   0  0  0  0  0  1  0  0  0  0  0  0
  -25.2820  -36.3430   23.8730 C   0  0  0  0  0  3  0  0  0  0  0  0
  -27.3980  -37.2530   24.7250 C   0  0  0  0  0  1  0  0  0  0  0  0
  -26.2960  -37.4160   23.7790 N   0  0  0  0  0  0  0  0  0  0  0  0
  -25.8720  -38.3250   23.9420 H   0  0  0  0  0  0  0  0  0  0  0  0
  -26.3670  -31.7300   25.0330 C   0  0  1  0  0  0  0  0  0  0  0  0
  -25.2900  -31.4410   26.1030 C   0  0  0  0  0  1  0  0  0  0  0  0
  -26.9790  -30.3750   24.6020 C   0  0  0  0  0  1  0  0  0  0  0  0
  -27.5050  -32.5340   25.7030 C   0  0  0  0  0  1  0  0  0  0  0  0
  1  7  1  0
  2  6  1  0
  3  6  2  0
  4  2  2  0
  5  3  1  0
  6  8  1  0
  7  4  1  0
  7  5  2  0
  8  9  2  0
 10  8  1  0
 10 11  2  0
 12 11  1  0
 13 18  1  0
 14 15  1  0
 14 13  1  0
 16 15  1  0
 16 23  1  0
 16 17  1  0
 18 12  1  0
 18 17  1  0
 19 12  2  0
 20 21  2  0
 21 40  1  0
 22 21  1  0
 22 25  1  0
 23 24  1  0
 23 20  1  0
 24 22  2  0
 25 26  1  0
 26 27  2  0
 28 31  1  0
 28 27  1  0
 29 28  2  0
 30 29  1  0
 30 25  2  0
 31 32  1  0
 32 33  1  0
 33 34  2  0
 35 34  1  0
 35 39  1  0
 36 35  2  0
 37 32  2  0
 37 36  1  0
 38 37  1  0
 40 41  1  0
 41 44  1  0
 41 43  1  0
 42 40  2  0
 45 20  1  0
 45 46  1  0
 47 45  1  0
 49 50  1  0
 49 51  1  0
 50  1  1  0
 50 48  1  0
 51 52  1  0
 51 48  1  0
 52 53  1  0
 54 65  2  0
 55 53  1  0
 55 60  1  0
 56 64  1  0
 56 66  1  0
 57 63  1  0
 57 59  1  0
 58 64  1  0
 59 60  2  0
 59 58  1  0
 61 55  2  0
 62 61  1  0
 62 57  2  0
 63 56  1  0
 64 54  1  0
 66 68  2  0
 67 66  1  0
 69 67  1  0
 70 79  2  0
 70 75  1  0
 71 67  1  0
 71 75  1  0
 72 71  1  0
 73 74  1  0
 73 72  1  0
 74 70  1  0
 75 76  2  0
 76 77  1  0
 78 77  2  0
 79 78  1  0
 80 54  1  0
 80 81  1  0
 80 90  1  0
 81 84  1  0
 82 86  1  0
 82 81  1  0
 83 82  2  0
 86 85  1  0
 88 86  1  0
 88 89  1  0
 88 87  1  0
 90 93  1  1
 90 91  1  0
 92 90  1  0
M  ISO  4  11 100  12 100  52 101  53 101
M  END
>  <TORSDO>  (5) 
F 21

>  <SCORE>  (5) 
-13.330

>  <name>  (5) 
4

>  <ligand_id>  (5) 
4

>  <original_smiles>  (5) 
[H]C(C(=O)c1c([H])c([H])c(C([H])([H])C2([H])C([H])([H])C([H])(C([H])([H])Oc3c([H])c([H])c4c(c3[H])C([H])([H])N(C(=O)C([H])(N([H])C(=O)C([H])(N([H])C([H])([H])[H])C([H])([H])[H])C(C([H])([H])[H])(C([H])([H])[H])C([H])([H])[H])C([H])(C(=O)N([H])C3([H])c5c([H])c([H])c([H])c([H])c5C([H])([H])C([H])([H])C3([H])[H])C4([H])[H])C2([H])[H])c([H])c1[H])=C([H])C(=O)N1C([H])([H])C([H])([H])C([H])([H])C([H])(n2nc(-c3c([H])c([H])c(Oc4c([H])c([H])c(F)c([H])c4F)c([H])c3[H])c(C(=O)N([H])[H])c2N([H])[H])C1([H])[H]

>  <smiles>  (5) 
[H]C(C(=O)c1c([H])c([H])c(C([H])([H])C2([H])C([H])([H])C([H])(C([H])([H])Oc3c([H])c([H])c4c(c3[H])C([H])([H])N(C(=O)C([H])(N([H])C(=O)C([H])(N([H])C([H])([H])[H])C([H])([H])[H])C(C([H])([H])[H])(C([H])([H])[H])C([H])([H])[H])C([H])(C(=O)N([H])C3([H])c5c([H])c([H])c([H])c([H])c5C([H])([H])C([H])([H])C3([H])[H])C4([H])[H])C2([H])[H])c([H])c1[H])=C([H])C(=O)N1C([H])([H])C([H])([H])C([H])([H])C([H])(n2nc(-c3c([H])c([H])c(Oc4c([H])c([H])c(F)c([H])c4F)c([H])c3[H])c(C(=O)N([H])[H])c2N([H])[H])C1([H])[H]

$$$$
5:0:0
     RDKit          3D

 90 99  0  0  1  0  0  0  0  0999 V2000
  -30.6300  -16.1650   19.9930 C   0  0  0  0  0  0  0  0  0  0  0  0
  -30.7160  -13.6100   19.2080 C   0  0  0  0  0  2  0  0  0  0  0  0
  -29.8150  -13.1960   18.0110 C   0  0  0  0  0  2  0  0  0  0  0  0
  -28.4060  -12.8270   18.4900 C   0  0  0  0  0  2  0  0  0  0  0  0
  -27.9000  -13.8240   19.5550 C   0  0  0  0  0  3  0  0  0  0  0  0
  -28.9420  -14.1740   20.6480 C   0  0  0  0  0  2  0  0  0  0  0  0
  -30.0960  -14.7990   19.9620 N   0  0  0  0  0  0  0  0  0  0  0  0
  -31.8450  -16.0770   19.7250 O   0  0  0  0  0  0  0  0  0  0  0  0
  -28.7960  -19.7020   21.1890 C   0  0  0  0  0  2  0  0  0  0  0  0
  -28.8660  -18.0700   20.9740 C   0  0  0  0  0  2  0  0  0  0  0  0
  -30.1530  -19.1480   19.4800 C   0  0  0  0  0  3  0  0  0  0  0  0
  -29.1050  -20.5820   19.9110 C   0  0  0  0  0  3  0  0  0  0  0  0
  -29.9260  -17.5680   20.0360 N   0  0  0  0  0  0  0  0  0  0  0  0
  -30.5260  -18.8260   15.1510 C   0  0  0  0  0  3  0  0  0  0  0  0
  -29.3130  -18.4930   15.7840 C   0  0  0  0  0  3  0  0  0  0  0  0
  -31.6090  -19.3000   15.9160 C   0  0  0  0  0  3  0  0  0  0  0  0
  -29.1920  -18.6220   17.1810 C   0  0  0  0  0  3  0  0  0  0  0  0
  -31.4850  -19.4300   17.3160 C   0  0  0  0  0  3  0  0  0  0  0  0
  -30.2800  -19.0760   17.9600 C   0  0  0  0  0  0  0  0  0  0  0  0
  -25.5450  -14.2960   20.3650 C   0  0  0  0  0  0  0  0  0  0  0  0
  -24.5080  -13.4910   20.7430 C   0  0  0  0  0  0  0  0  0  0  0  0
  -25.0070  -12.1530   20.6940 C   0  0  0  0  0  0  0  0  0  0  0  0
  -26.6040  -13.4510   20.0990 N   0  0  0  0  0  0  0  0  0  0  0  0
  -26.2970  -12.1520   20.3640 N   0  0  0  0  0  0  0  0  0  0  0  0
  -24.3080  -10.8740   20.8840 C   0  0  0  0  0  0  0  0  0  0  0  0
  -24.7210   -9.9410   21.8620 C   0  0  0  0  0  3  0  0  0  0  0  0
  -24.0140   -8.7320   22.0410 C   0  0  0  0  0  3  0  0  0  0  0  0
  -22.8810   -8.4470   21.2420 C   0  0  0  0  0  0  0  0  0  0  0  0
  -22.4890   -9.3660   20.2550 C   0  0  0  0  0  3  0  0  0  0  0  0
  -23.1960  -10.5670   20.0740 C   0  0  0  0  0  3  0  0  0  0  0  0
  -22.1490   -7.2870   21.3290 O   0  0  0  0  0  0  0  0  0  0  0  0
  -21.9920   -6.6200   22.5180 C   0  0  0  0  0  0  0  0  0  0  0  0
  -21.3710   -7.2250   23.6330 C   0  0  0  0  0  3  0  0  0  0  0  0
  -21.1660   -6.4820   24.8130 C   0  0  0  0  0  3  0  0  0  0  0  0
  -21.5750   -5.1350   24.8790 C   0  0  0  0  0  0  0  0  0  0  0  0
  -22.1900   -4.5320   23.7680 C   0  0  0  0  0  3  0  0  0  0  0  0
  -22.3950   -5.2730   22.5900 C   0  0  0  0  0  0  0  0  0  0  0  0
  -22.9700   -4.6790   21.5150 F   0  0  0  0  0  0  0  0  0  0  0  0
  -21.3730   -4.4180   26.0090 F   0  0  0  0  0  0  0  0  0  0  0  0
  -23.1070  -13.9360   21.0360 C   0  0  0  0  0  0  0  0  0  0  0  0
  -22.4150  -13.2330   21.9250 N   0  0  0  0  0  0  0  0  0  0  0  0
  -22.6390  -14.9470   20.5160 O   0  0  0  0  0  0  0  0  0  0  0  0
  -22.8090  -12.4130   22.3610 H   0  0  0  0  0  0  0  0  0  0  0  0
  -21.4790  -13.5190   22.1780 H   0  0  0  0  0  0  0  0  0  0  0  0
  -25.6640  -15.6720   20.1960 N   0  0  0  0  0  0  0  0  0  0  0  0
  -24.8710  -16.2910   20.3270 H   0  0  0  0  0  0  0  0  0  0  0  0
  -26.4860  -16.1480   19.8510 H   0  0  0  0  0  0  0  0  0  0  0  0
  -29.2240  -22.5420   19.9360 C   0  0  0  0  0  3  0  0  0  0  0  0
  -28.1880  -24.2050   19.9210 C   0  0  0  0  0  3  0  0  0  0  0  0
  -28.3340  -25.9690   20.0560 O   0  0  0  0  0  0  0  0  0  0  0  0
  -24.6850  -32.0440   23.2980 C   0  0  0  0  0  0  0  0  0  0  0  0
  -27.3360  -27.1670   20.0660 C   0  0  0  0  0  0  0  0  0  0  0  0
  -23.5440  -30.7230   21.5680 C   0  0  0  0  0  3  0  0  0  0  0  0
  -25.0370  -29.1750   20.0880 C   0  0  0  0  0  0  0  0  0  0  0  0
  -26.1240  -30.9050   21.4980 C   0  0  0  0  0  2  0  0  0  0  0  0
  -26.2180  -29.5110   20.7600 C   0  0  0  0  0  0  0  0  0  0  0  0
  -27.3510  -28.5380   20.7160 C   0  0  0  0  0  3  0  0  0  0  0  0
  -26.1150  -27.0440   19.3550 C   0  0  0  0  0  3  0  0  0  0  0  0
  -25.0250  -27.9680   19.3660 C   0  0  0  0  0  3  0  0  0  0  0  0
  -23.8150  -30.1060   20.1650 C   0  0  0  0  0  2  0  0  0  0  0  0
  -24.8070  -31.2560   22.1750 N   0  0  0  0  0  0  0  0  0  0  0  0
  -23.5800  -32.3020   23.8070 O   0  0  0  0  0  0  0  0  0  0  0  0
  -22.8260  -29.6850   22.4720 C   0  0  0  0  0  0  0  0  0  0  0  0
  -21.5090  -29.4790   22.2800 N   0  0  0  0  0  0  0  0  0  0  0  0
  -23.4670  -29.0630   23.3230 O   0  0  0  0  0  0  0  0  0  0  0  0
  -21.0380  -30.0330   21.5780 H   0  0  0  0  0  0  0  0  0  0  0  0
  -18.1450  -28.1450   22.6360 C   0  0  0  0  0  0  0  0  0  0  0  0
  -20.6890  -28.4830   22.9830 C   0  0  0  0  0  3  0  0  0  0  0  0
  -20.8500  -27.0810   22.3470 C   0  0  0  0  0  2  0  0  0  0  0  0
  -19.7890  -26.7750   21.2860 C   0  0  0  0  0  2  0  0  0  0  0  0
  -18.3870  -26.8390   21.8970 C   0  0  0  0  0  2  0  0  0  0  0  0
  -19.2260  -28.9240   23.1320 C   0  0  0  0  0  0  0  0  0  0  0  0
  -18.9430  -30.1420   23.7880 C   0  0  0  0  0  3  0  0  0  0  0  0
  -17.6170  -30.5830   23.9490 C   0  0  0  0  0  3  0  0  0  0  0  0
  -16.5520  -29.8020   23.4650 C   0  0  0  0  0  3  0  0  0  0  0  0
  -16.8170  -28.5850   22.8160 C   0  0  0  0  0  3  0  0  0  0  0  0
  -25.9270  -32.6770   23.9980 C   0  0  0  0  0  3  0  0  0  0  0  0
  -25.5980  -34.0730   24.3490 N   0  0  0  0  0  0  0  0  0  0  0  0
  -25.9330  -35.1510   23.6260 C   0  0  0  0  0  0  0  0  0  0  0  0
  -26.6060  -35.0750   22.5960 O   0  0  0  0  0  0  0  0  0  0  0  0
  -24.9960  -34.2040   25.1480 H   0  0  0  0  0  0  0  0  0  0  0  0
  -24.1910  -36.9530   23.3440 C   0  0  0  0  0  1  0  0  0  0  0  0
  -25.4490  -36.5320   24.1220 C   0  0  0  0  0  3  0  0  0  0  0  0
  -27.5770  -37.4370   24.9530 C   0  0  0  0  0  1  0  0  0  0  0  0
  -26.4730  -37.5940   24.0090 N   0  0  0  0  0  0  0  0  0  0  0  0
  -26.0610  -38.5120   24.1530 H   0  0  0  0  0  0  0  0  0  0  0  0
  -26.3700  -31.8930   25.2940 C   0  0  1  0  0  0  0  0  0  0  0  0
  -25.2390  -31.7080   26.3330 C   0  0  0  0  0  1  0  0  0  0  0  0
  -26.9080  -30.4880   24.9390 C   0  0  0  0  0  1  0  0  0  0  0  0
  -27.5350  -32.6420   25.9850 C   0  0  0  0  0  1  0  0  0  0  0  0
  1 13  1  0
  2  7  1  0
  3  4  1  0
  3  2  1  0
  5  4  1  0
  5 23  1  0
  5  6  1  0
  7  1  1  0
  7  6  1  0
  8  1  2  0
 10  9  1  0
 11 19  1  0
 11 12  1  0
 11 13  1  0
 12 48  1  0
 12  9  1  0
 13 10  1  0
 14 15  2  0
 14 16  1  0
 15 17  1  0
 16 18  2  0
 17 19  2  0
 18 19  1  0
 20 21  2  0
 21 40  1  0
 22 21  1  0
 22 25  1  0
 23 24  1  0
 23 20  1  0
 24 22  2  0
 25 26  1  0
 26 27  2  0
 28 31  1  0
 28 27  1  0
 29 28  2  0
 30 29  1  0
 30 25  2  0
 31 32  1  0
 32 37  2  0
 32 33  1  0
 33 34  2  0
 34 35  1  0
 35 39  1  0
 36 35  2  0
 37 36  1  0
 38 37  1  0
 40 41  1  0
 41 44  1  0
 41 43  1  0
 42 40  2  0
 45 46  1  0
 45 20  1  0
 47 45  1  0
 49 48  2  0
 49 50  1  0
 50 52  1  0
 51 62  2  0
 52 57  1  0
 53 61  1  0
 53 63  1  0
 54 60  1  0
 54 56  1  0
 55 61  1  0
 56 55  1  0
 57 56  2  0
 58 59  1  0
 58 52  2  0
 59 54  2  0
 60 53  1  0
 61 51  1  0
 63 65  2  0
 64 63  1  0
 66 64  1  0
 67 76  2  0
 67 72  1  0
 68 64  1  0
 68 72  1  0
 69 68  1  0
 70 71  1  0
 70 69  1  0
 71 67  1  0
 72 73  2  0
 73 74  1  0
 75 74  2  0
 76 75  1  0
 77 51  1  0
 77 78  1  0
 77 87  1  0
 78 81  1  0
 79 83  1  0
 79 78  1  0
 80 79  2  0
 83 82  1  0
 85 83  1  0
 85 86  1  0
 85 84  1  0
 87 90  1  1
 87 88  1  0
 89 87  1  0
M  ISO  4   1 100  13 100  49 101  50 101
M  END
>  <TORSDO>  (6) 
F 18

>  <SCORE>  (6) 
-14.917

>  <name>  (6) 
5

>  <ligand_id>  (6) 
5

>  <original_smiles>  (6) 
[H]c1c([H])c([H])c(C2([H])N(C(=O)N3C([H])([H])C([H])([H])C([H])([H])C([H])(n4nc(-c5c([H])c([H])c(Oc6c([H])c([H])c(F)c([H])c6F)c([H])c5[H])c(C(=O)N([H])[H])c4N([H])[H])C3([H])[H])C([H])([H])C([H])([H])C2([H])C([H])([H])C([H])([H])Oc2c([H])c([H])c3c(c2[H])C([H])([H])N(C(=O)C([H])(N([H])C(=O)C([H])(N([H])C([H])([H])[H])C([H])([H])[H])C(C([H])([H])[H])(C([H])([H])[H])C([H])([H])[H])C([H])(C(=O)N([H])C2([H])c4c([H])c([H])c([H])c([H])c4C([H])([H])C([H])([H])C2([H])[H])C3([H])[H])c([H])c1[H]

>  <smiles>  (6) 
[H]c1c([H])c([H])c(C2([H])N(C(=O)N3C([H])([H])C([H])([H])C([H])([H])C([H])(n4nc(-c5c([H])c([H])c(Oc6c([H])c([H])c(F)c([H])c6F)c([H])c5[H])c(C(=O)N([H])[H])c4N([H])[H])C3([H])[H])C([H])([H])C([H])([H])C2([H])C([H])([H])C([H])([H])Oc2c([H])c([H])c3c(c2[H])C([H])([H])N(C(=O)C([H])(N([H])C(=O)C([H])(N([H])C([H])([H])[H])C([H])([H])[H])C(C([H])([H])[H])(C([H])([H])[H])C([H])([H])[H])C([H])(C(=O)N([H])C2([H])c4c([H])c([H])c([H])c([H])c4C([H])([H])C([H])([H])C2([H])[H])C3([H])[H])c([H])c1[H]

$$$$
6:0:0
     RDKit          3D

 90 99  0  0  1  0  0  0  0  0999 V2000
  -30.7000  -15.4310   20.8920 C   0  0  0  0  0  0  0  0  0  0  0  0
  -30.8620  -12.9000   20.0520 C   0  0  0  0  0  2  0  0  0  0  0  0
  -30.0870  -12.4980   18.7670 C   0  0  0  0  0  2  0  0  0  0  0  0
  -28.6220  -12.1500   19.0800 C   0  0  0  0  0  2  0  0  0  0  0  0
  -28.0180  -13.1260   20.1170 C   0  0  0  0  0  3  0  0  0  0  0  0
  -28.9540  -13.4310   21.3080 C   0  0  0  0  0  2  0  0  0  0  0  0
  -30.1630  -14.0770   20.7410 N   0  0  0  0  0  0  0  0  0  0  0  0
  -31.9420  -15.3270   20.9230 O   0  0  0  0  0  0  0  0  0  0  0  0
  -29.7550  -17.5400   19.4730 C   0  0  0  0  0  2  0  0  0  0  0  0
  -29.9420  -18.3720   21.5070 C   0  0  0  0  0  2  0  0  0  0  0  0
  -29.8620  -19.1850   19.4570 C   0  0  0  0  0  3  0  0  0  0  0  0
  -29.2930  -19.9010   20.7410 C   0  0  0  0  0  3  0  0  0  0  0  0
  -29.9980  -16.8360   20.7920 N   0  0  0  0  0  0  0  0  0  0  0  0
  -28.7610  -21.1940   15.7480 C   0  0  0  0  0  3  0  0  0  0  0  0
  -30.1030  -20.8590   16.0040 C   0  0  0  0  0  3  0  0  0  0  0  0
  -27.7580  -20.8420   16.6760 C   0  0  0  0  0  3  0  0  0  0  0  0
  -30.4460  -20.1830   17.1940 C   0  0  0  0  0  3  0  0  0  0  0  0
  -28.0990  -20.1680   17.8670 C   0  0  0  0  0  3  0  0  0  0  0  0
  -29.4510  -19.8470   18.1420 C   0  0  0  0  0  0  0  0  0  0  0  0
  -25.5860  -13.6260   20.6430 C   0  0  0  0  0  0  0  0  0  0  0  0
  -24.5110  -12.8330   20.9270 C   0  0  0  0  0  0  0  0  0  0  0  0
  -25.0090  -11.4920   20.9820 C   0  0  0  0  0  0  0  0  0  0  0  0
  -26.6640  -12.7700   20.5230 N   0  0  0  0  0  0  0  0  0  0  0  0
  -26.3260  -11.4820   20.7990 N   0  0  0  0  0  0  0  0  0  0  0  0
  -24.2860  -10.2200   21.1360 C   0  0  0  0  0  0  0  0  0  0  0  0
  -24.6310   -9.2920   22.1430 C   0  0  0  0  0  3  0  0  0  0  0  0
  -23.9080   -8.0880   22.2830 C   0  0  0  0  0  3  0  0  0  0  0  0
  -22.8250   -7.8040   21.4170 C   0  0  0  0  0  0  0  0  0  0  0  0
  -22.5010   -8.7190   20.3990 C   0  0  0  0  0  3  0  0  0  0  0  0
  -23.2270   -9.9140   20.2570 C   0  0  0  0  0  3  0  0  0  0  0  0
  -22.0830   -6.6480   21.4670 O   0  0  0  0  0  0  0  0  0  0  0  0
  -21.9020   -5.9560   22.6380 C   0  0  0  0  0  0  0  0  0  0  0  0
  -21.2740   -6.5390   23.7600 C   0  0  0  0  0  3  0  0  0  0  0  0
  -21.0490   -5.7700   24.9200 C   0  0  0  0  0  3  0  0  0  0  0  0
  -21.4390   -4.4160   24.9540 C   0  0  0  0  0  0  0  0  0  0  0  0
  -22.0620   -3.8340   23.8340 C   0  0  0  0  0  3  0  0  0  0  0  0
  -22.2860   -4.6020   22.6780 C   0  0  0  0  0  0  0  0  0  0  0  0
  -22.8660   -4.0320   21.5940 F   0  0  0  0  0  0  0  0  0  0  0  0
  -21.2150   -3.6720   26.0610 F   0  0  0  0  0  0  0  0  0  0  0  0
  -23.0840  -13.2840   21.0350 C   0  0  0  0  0  0  0  0  0  0  0  0
  -22.2860  -12.6040   21.8490 N   0  0  0  0  0  0  0  0  0  0  0  0
  -22.6810  -14.2760   20.4280 O   0  0  0  0  0  0  0  0  0  0  0  0
  -22.6250  -11.8110   22.3760 H   0  0  0  0  0  0  0  0  0  0  0  0
  -21.3210  -12.8850   21.9550 H   0  0  0  0  0  0  0  0  0  0  0  0
  -25.7280  -14.9970   20.4400 N   0  0  0  0  0  0  0  0  0  0  0  0
  -24.9260  -15.6150   20.4630 H   0  0  0  0  0  0  0  0  0  0  0  0
  -26.5850  -15.4660   20.1690 H   0  0  0  0  0  0  0  0  0  0  0  0
  -29.3970  -21.8430   20.9640 C   0  0  0  0  0  3  0  0  0  0  0  0
  -28.4530  -23.5300   20.6790 C   0  0  0  0  0  3  0  0  0  0  0  0
  -28.6020  -25.2760   20.9200 O   0  0  0  0  0  0  0  0  0  0  0  0
  -24.8970  -31.6400   23.4230 C   0  0  0  0  0  0  0  0  0  0  0  0
  -27.6540  -26.5000   20.7520 C   0  0  0  0  0  0  0  0  0  0  0  0
  -23.8660  -30.2390   21.6870 C   0  0  0  0  0  3  0  0  0  0  0  0
  -25.4290  -28.5610   20.4440 C   0  0  0  0  0  0  0  0  0  0  0  0
  -26.4470  -30.3480   21.8300 C   0  0  0  0  0  2  0  0  0  0  0  0
  -26.5600  -28.9090   21.1940 C   0  0  0  0  0  0  0  0  0  0  0  0
  -27.6590  -27.9080   21.3130 C   0  0  0  0  0  3  0  0  0  0  0  0
  -26.4980  -26.3620   19.9420 C   0  0  0  0  0  3  0  0  0  0  0  0
  -25.4420  -27.3130   19.7970 C   0  0  0  0  0  3  0  0  0  0  0  0
  -24.2380  -29.5280   20.3540 C   0  0  0  0  0  2  0  0  0  0  0  0
  -25.0890  -30.7760   22.3670 N   0  0  0  0  0  0  0  0  0  0  0  0
  -23.7620  -31.9580   23.8150 O   0  0  0  0  0  0  0  0  0  0  0  0
  -23.0400  -29.2780   22.5870 C   0  0  0  0  0  0  0  0  0  0  0  0
  -21.7220  -29.1550   22.3370 N   0  0  0  0  0  0  0  0  0  0  0  0
  -23.6000  -28.6420   23.4820 O   0  0  0  0  0  0  0  0  0  0  0  0
  -21.3240  -29.7170   21.5980 H   0  0  0  0  0  0  0  0  0  0  0  0
  -18.2420  -28.1570   22.6670 C   0  0  0  0  0  0  0  0  0  0  0  0
  -20.8040  -28.2420   23.0300 C   0  0  0  0  0  3  0  0  0  0  0  0
  -20.8320  -26.8350   22.3880 C   0  0  0  0  0  2  0  0  0  0  0  0
  -19.7510  -26.6380   21.3200 C   0  0  0  0  0  2  0  0  0  0  0  0
  -18.3580  -26.8380   21.9220 C   0  0  0  0  0  2  0  0  0  0  0  0
  -19.3900  -28.8240   23.1710 C   0  0  0  0  0  0  0  0  0  0  0  0
  -19.2260  -30.0620   23.8290 C   0  0  0  0  0  3  0  0  0  0  0  0
  -17.9470  -30.6310   23.9860 C   0  0  0  0  0  3  0  0  0  0  0  0
  -16.8140  -29.9620   23.4930 C   0  0  0  0  0  3  0  0  0  0  0  0
  -16.9620  -28.7250   22.8390 C   0  0  0  0  0  3  0  0  0  0  0  0
  -26.0950  -32.2830   24.1860 C   0  0  0  0  0  3  0  0  0  0  0  0
  -25.7620  -33.6940   24.4640 N   0  0  0  0  0  0  0  0  0  0  0  0
  -26.1020  -34.7350   23.6900 C   0  0  0  0  0  0  0  0  0  0  0  0
  -26.7830  -34.6090   22.6710 O   0  0  0  0  0  0  0  0  0  0  0  0
  -25.1620  -33.8670   25.2560 H   0  0  0  0  0  0  0  0  0  0  0  0
  -24.3500  -36.5060   23.3040 C   0  0  0  0  0  1  0  0  0  0  0  0
  -25.6070  -36.1380   24.1090 C   0  0  0  0  0  3  0  0  0  0  0  0
  -27.7300  -37.0920   24.8970 C   0  0  0  0  0  1  0  0  0  0  0  0
  -26.6270  -37.1990   23.9440 N   0  0  0  0  0  0  0  0  0  0  0  0
  -26.2110  -38.1210   24.0460 H   0  0  0  0  0  0  0  0  0  0  0  0
  -26.4360  -31.5400   25.5360 C   0  0  1  0  0  0  0  0  0  0  0  0
  -25.2110  -31.3170   26.4550 C   0  0  0  0  0  1  0  0  0  0  0  0
  -27.0690  -30.1570   25.2630 C   0  0  0  0  0  1  0  0  0  0  0  0
  -27.4870  -32.3520   26.3300 C   0  0  0  0  0  1  0  0  0  0  0  0
  1  8  2  0
  2  7  1  0
  3  4  1  0
  3  2  1  0
  5  4  1  0
  5 23  1  0
  5  6  1  0
  7  1  1  0
  7  6  1  0
  9 13  1  0
 11 19  1  0
 11  9  1  0
 11 12  1  0
 12 48  1  0
 12 10  1  0
 13  1  1  0
 13 10  1  0
 14 15  2  0
 14 16  1  0
 15 17  1  0
 16 18  2  0
 17 19  2  0
 18 19  1  0
 20 21  2  0
 21 22  1  0
 21 40  1  0
 22 25  1  0
 23 20  1  0
 23 24  1  0
 24 22  2  0
 25 26  1  0
 26 27  2  0
 28 31  1  0
 28 27  1  0
 29 28  2  0
 30 29  1  0
 30 25  2  0
 31 32  1  0
 32 37  2  0
 32 33  1  0
 33 34  2  0
 34 35  1  0
 35 39  1  0
 36 35  2  0
 37 36  1  0
 38 37  1  0
 40 41  1  0
 41 44  1  0
 41 43  1  0
 42 40  2  0
 45 46  1  0
 45 20  1  0
 47 45  1  0
 49 50  1  0
 49 48  2  0
 51 62  2  0
 52 50  1  0
 52 57  1  0
 53 61  1  0
 53 63  1  0
 54 56  1  0
 55 61  1  0
 56 57  2  0
 56 55  1  0
 58 52  2  0
 59 58  1  0
 59 54  2  0
 60 54  1  0
 60 53  1  0
 61 51  1  0
 63 65  2  0
 64 63  1  0
 66 64  1  0
 67 76  2  0
 67 72  1  0
 68 64  1  0
 68 72  1  0
 69 68  1  0
 70 71  1  0
 70 69  1  0
 71 67  1  0
 72 73  2  0
 73 74  1  0
 75 74  2  0
 76 75  1  0
 77 51  1  0
 77 78  1  0
 77 87  1  0
 78 81  1  0
 79 83  1  0
 79 78  1  0
 80 79  2  0
 83 82  1  0
 85 86  1  0
 85 83  1  0
 85 84  1  0
 87 90  1  1
 87 88  1  0
 89 87  1  0
M  ISO  4   1 100  13 100  49 101  50 101
M  END
>  <TORSDO>  (7) 
F 18

>  <SCORE>  (7) 
-12.914

>  <name>  (7) 
6

>  <ligand_id>  (7) 
6

>  <original_smiles>  (7) 
[H]c1c([H])c([H])c(C2([H])C([H])([H])N(C(=O)N3C([H])([H])C([H])([H])C([H])([H])C([H])(n4nc(-c5c([H])c([H])c(Oc6c([H])c([H])c(F)c([H])c6F)c([H])c5[H])c(C(=O)N([H])[H])c4N([H])[H])C3([H])[H])C([H])([H])C2([H])C([H])([H])C([H])([H])Oc2c([H])c([H])c3c(c2[H])C([H])([H])N(C(=O)C([H])(N([H])C(=O)C([H])(N([H])C([H])([H])[H])C([H])([H])[H])C(C([H])([H])[H])(C([H])([H])[H])C([H])([H])[H])C([H])(C(=O)N([H])C2([H])c4c([H])c([H])c([H])c([H])c4C([H])([H])C([H])([H])C2([H])[H])C3([H])[H])c([H])c1[H]

>  <smiles>  (7) 
[H]c1c([H])c([H])c(C2([H])C([H])([H])N(C(=O)N3C([H])([H])C([H])([H])C([H])([H])C([H])(n4nc(-c5c([H])c([H])c(Oc6c([H])c([H])c(F)c([H])c6F)c([H])c5[H])c(C(=O)N([H])[H])c4N([H])[H])C3([H])[H])C([H])([H])C2([H])C([H])([H])C([H])([H])Oc2c([H])c([H])c3c(c2[H])C([H])([H])N(C(=O)C([H])(N([H])C(=O)C([H])(N([H])C([H])([H])[H])C([H])([H])[H])C(C([H])([H])[H])(C([H])([H])[H])C([H])([H])[H])C([H])(C(=O)N([H])C2([H])c4c([H])c([H])c([H])c([H])c4C([H])([H])C([H])([H])C2([H])[H])C3([H])[H])c([H])c1[H]

$$$$
8:0:0
     RDKit          3D

 93102  0  0  1  0  0  0  0  0999 V2000
  -28.7090  -18.7780   19.4610 C   0  0  0  0  0  2  0  0  0  0  0  0
  -28.7780  -20.4120   19.2310 C   0  0  0  0  0  2  0  0  0  0  0  0
  -29.9850  -18.9490   21.4370 C   0  0  0  0  0  2  0  0  0  0  0  0
  -27.9860  -22.1120   21.1770 C   0  0  0  0  0  2  0  0  0  0  0  0
  -30.1760  -20.5690   21.2090 C   0  0  0  0  0  3  0  0  0  0  0  0
  -28.9170  -23.1600   20.5520 C   0  0  0  0  0  3  0  0  0  0  0  0
  -29.8800  -17.9480   20.1950 C   0  0  0  0  0  3  0  0  0  0  0  0
  -29.0760  -21.4270   20.4210 C   0  0  1  0  0  0  0  0  0  0  0  0
  -30.4970  -15.1450   20.2850 C   0  0  0  0  0  0  0  0  0  0  0  0
  -30.4290  -12.7470   19.3960 C   0  0  0  0  0  2  0  0  0  0  0  0
  -29.5040  -12.6350   18.1600 C   0  0  0  0  0  2  0  0  0  0  0  0
  -28.0440  -12.4030   18.5910 C   0  0  0  0  0  2  0  0  0  0  0  0
  -27.6160  -13.3470   19.7450 C   0  0  0  0  0  3  0  0  0  0  0  0
  -28.6660  -13.4170   20.8740 C   0  0  0  0  0  2  0  0  0  0  0  0
  -29.9240  -13.8630   20.2590 N   0  0  0  0  0  0  0  0  0  0  0  0
  -31.7000  -15.1970   19.9970 O   0  0  0  0  0  0  0  0  0  0  0  0
  -29.7060  -16.3490   20.4280 N   0  0  0  0  0  0  0  0  0  0  0  0
  -28.7540  -16.1100   20.6650 H   0  0  0  0  0  0  0  0  0  0  0  0
  -25.2390  -13.9160   20.4860 C   0  0  0  0  0  0  0  0  0  0  0  0
  -24.1760  -13.1390   20.8550 C   0  0  0  0  0  0  0  0  0  0  0  0
  -24.6420  -11.7890   20.8230 C   0  0  0  0  0  0  0  0  0  0  0  0
  -26.2820  -13.0400   20.2450 N   0  0  0  0  0  0  0  0  0  0  0  0
  -25.9340  -11.7550   20.5140 N   0  0  0  0  0  0  0  0  0  0  0  0
  -23.9160  -10.5250   21.0110 C   0  0  0  0  0  0  0  0  0  0  0  0
  -24.3400   -9.5600   21.9490 C   0  0  0  0  0  3  0  0  0  0  0  0
  -23.6110   -8.3630   22.1250 C   0  0  0  0  0  3  0  0  0  0  0  0
  -22.4430   -8.1240   21.3620 C   0  0  0  0  0  0  0  0  0  0  0  0
  -22.0380   -9.0790   20.4120 C   0  0  0  0  0  3  0  0  0  0  0  0
  -22.7680  -10.2660   20.2340 C   0  0  0  0  0  3  0  0  0  0  0  0
  -21.6870   -6.9800   21.4460 O   0  0  0  0  0  0  0  0  0  0  0  0
  -21.6190   -6.2470   22.6040 C   0  0  0  0  0  0  0  0  0  0  0  0
  -21.1460   -6.8050   23.8120 C   0  0  0  0  0  3  0  0  0  0  0  0
  -21.0250   -5.9980   24.9610 C   0  0  0  0  0  3  0  0  0  0  0  0
  -21.3670   -4.6340   24.9030 C   0  0  0  0  0  0  0  0  0  0  0  0
  -21.8330   -4.0750   23.7000 C   0  0  0  0  0  3  0  0  0  0  0  0
  -21.9550   -4.8790   22.5530 C   0  0  0  0  0  0  0  0  0  0  0  0
  -22.3840   -4.3310   21.3900 F   0  0  0  0  0  0  0  0  0  0  0  0
  -21.2450   -3.8560   26.0040 F   0  0  0  0  0  0  0  0  0  0  0  0
  -22.7780  -13.6150   21.1210 C   0  0  0  0  0  0  0  0  0  0  0  0
  -22.0490  -12.9220   21.9890 N   0  0  0  0  0  0  0  0  0  0  0  0
  -22.3400  -14.6370   20.5940 O   0  0  0  0  0  0  0  0  0  0  0  0
  -22.4160  -12.0960   22.4370 H   0  0  0  0  0  0  0  0  0  0  0  0
  -21.1100  -13.2230   22.2110 H   0  0  0  0  0  0  0  0  0  0  0  0
  -25.3990  -15.2870   20.3080 N   0  0  0  0  0  0  0  0  0  0  0  0
  -24.6240  -15.9340   20.4100 H   0  0  0  0  0  0  0  0  0  0  0  0
  -26.2310  -15.7250   19.9360 H   0  0  0  0  0  0  0  0  0  0  0  0
  -31.5790  -20.8770   20.6280 C   0  0  0  0  0  2  0  0  0  0  0  0
  -32.6780  -20.5060   21.5370 N   0  0  0  0  0  4  0  0  0  0  0  0
  -32.5960  -20.9880   22.4140 H   0  0  0  0  0  0  0  0  0  0  0  0
  -33.5580  -20.7640   21.1270 H   0  0  0  0  0  0  0  0  0  0  0  0
  -32.6940  -19.5180   21.7080 H   0  0  0  0  0  0  0  0  0  0  0  0
  -28.0690  -24.5450   19.9980 C   0  0  0  0  0  2  0  0  0  0  0  0
  -28.2720  -26.1020   20.3010 O   0  0  0  0  0  0  0  0  0  0  0  0
  -24.6380  -31.8780   23.2600 C   0  0  0  0  0  0  0  0  0  0  0  0
  -27.2310  -27.1260   20.2150 C   0  0  0  0  0  0  0  0  0  0  0  0
  -23.4490  -30.4870   21.6110 C   0  0  0  0  0  3  0  0  0  0  0  0
  -24.9060  -28.9150   20.1780 C   0  0  0  0  0  0  0  0  0  0  0  0
  -26.0080  -30.7420   21.4600 C   0  0  0  0  0  2  0  0  0  0  0  0
  -26.0850  -29.3470   20.7980 C   0  0  0  0  0  0  0  0  0  0  0  0
  -27.2450  -28.4700   20.7980 C   0  0  0  0  0  3  0  0  0  0  0  0
  -26.0270  -26.8190   19.5440 C   0  0  0  0  0  3  0  0  0  0  0  0
  -24.8960  -27.6690   19.5330 C   0  0  0  0  0  3  0  0  0  0  0  0
  -23.6780  -29.8160   20.2290 C   0  0  0  0  0  2  0  0  0  0  0  0
  -24.7190  -31.0590   22.1640 N   0  0  0  0  0  0  0  0  0  0  0  0
  -23.5490  -32.1580   23.7850 O   0  0  0  0  0  0  0  0  0  0  0  0
  -22.7660  -29.4770   22.5670 C   0  0  0  0  0  0  0  0  0  0  0  0
  -21.4390  -29.3000   22.4330 N   0  0  0  0  0  0  0  0  0  0  0  0
  -23.4340  -28.8550   23.3960 O   0  0  0  0  0  0  0  0  0  0  0  0
  -20.9550  -29.8540   21.7410 H   0  0  0  0  0  0  0  0  0  0  0  0
  -18.0640  -28.0660   22.9100 C   0  0  0  0  0  0  0  0  0  0  0  0
  -20.6190  -28.3540   23.1970 C   0  0  0  0  0  3  0  0  0  0  0  0
  -20.7380  -26.9230   22.6230 C   0  0  0  0  0  2  0  0  0  0  0  0
  -19.6470  -26.5910   21.5990 C   0  0  0  0  0  2  0  0  0  0  0  0
  -18.2600  -26.7210   22.2320 C   0  0  0  0  0  2  0  0  0  0  0  0
  -19.1720  -28.8410   23.3500 C   0  0  0  0  0  0  0  0  0  0  0  0
  -18.9340  -30.0980   23.9450 C   0  0  0  0  0  3  0  0  0  0  0  0
  -17.6220  -30.5830   24.1060 C   0  0  0  0  0  3  0  0  0  0  0  0
  -16.5290  -29.8070   23.6810 C   0  0  0  0  0  3  0  0  0  0  0  0
  -16.7510  -28.5510   23.0900 C   0  0  0  0  0  3  0  0  0  0  0  0
  -25.9110  -32.5180   23.8960 C   0  0  0  0  0  3  0  0  0  0  0  0
  -26.4050  -31.7590   25.1890 C   0  0  1  0  0  0  0  0  0  0  0  0
  -25.2960  -31.5380   26.2450 C   0  0  0  0  0  1  0  0  0  0  0  0
  -26.9880  -30.3730   24.8270 C   0  0  0  0  0  1  0  0  0  0  0  0
  -27.5490  -32.5560   25.8590 C   0  0  0  0  0  1  0  0  0  0  0  0
  -25.5970  -33.9200   24.2170 N   0  0  0  0  0  0  0  0  0  0  0  0
  -25.9150  -34.9710   23.4500 C   0  0  0  0  0  0  0  0  0  0  0  0
  -26.5680  -34.8630   22.4090 O   0  0  0  0  0  0  0  0  0  0  0  0
  -25.0130  -34.0770   25.0260 H   0  0  0  0  0  0  0  0  0  0  0  0
  -24.1670  -36.7560   23.1330 C   0  0  0  0  0  1  0  0  0  0  0  0
  -25.4350  -36.3630   23.9090 C   0  0  0  0  0  3  0  0  0  0  0  0
  -27.5850  -37.2740   24.6690 C   0  0  0  0  0  1  0  0  0  0  0  0
  -26.4570  -37.4210   23.7530 N   0  0  0  0  0  0  0  0  0  0  0  0
  -26.0490  -38.3410   23.8960 H   0  0  0  0  0  0  0  0  0  0  0  0
  1  7  1  0
  2  1  1  0
  5 47  1  0
  5  3  1  0
  6 52  1  0
  6  4  1  0
  7 17  1  0
  7  3  1  0
  8  2  1  6
  8  6  1  0
  8  4  1  0
  8  5  1  0
  9 17  1  0
 10 15  1  0
 11 12  1  0
 11 10  1  0
 13 12  1  0
 13 22  1  0
 13 14  1  0
 15  9  1  0
 15 14  1  0
 16  9  2  0
 17 18  1  0
 19 20  2  0
 20 39  1  0
 21 20  1  0
 21 24  1  0
 22 19  1  0
 22 23  1  0
 23 21  2  0
 24 25  1  0
 25 26  2  0
 27 30  1  0
 27 26  1  0
 28 27  2  0
 29 28  1  0
 29 24  2  0
 30 31  1  0
 31 32  1  0
 32 33  2  0
 34 33  1  0
 34 38  1  0
 35 34  2  0
 36 31  2  0
 36 35  1  0
 37 36  1  0
 39 40  1  0
 40 43  1  0
 40 42  1  0
 41 39  2  0
 44 45  1  0
 44 19  1  0
 46 44  1  0
 47 48  1  0
 48 51  1  0
 48 49  1  0
 50 48  1  0
 52 53  1  0
 54 65  2  0
 55 53  1  0
 55 60  1  0
 56 64  1  0
 56 66  1  0
 57 63  1  0
 57 59  1  0
 58 64  1  0
 59 58  1  0
 60 59  2  0
 61 55  2  0
 62 61  1  0
 62 57  2  0
 63 56  1  0
 64 54  1  0
 66 68  2  0
 67 66  1  0
 69 67  1  0
 70 79  2  0
 70 75  1  0
 71 67  1  0
 71 75  1  0
 72 71  1  0
 73 74  1  0
 73 72  1  0
 74 70  1  0
 75 76  2  0
 76 77  1  0
 78 77  2  0
 79 78  1  0
 80 54  1  0
 80 85  1  0
 80 81  1  0
 81 84  1  1
 81 82  1  0
 83 81  1  0
 85 88  1  0
 86 90  1  0
 86 85  1  0
 87 86  2  0
 90 89  1  0
 92 93  1  0
 92 90  1  0
 92 91  1  0
M  ISO  4   9 100  17 100  52 101  53 101
M  END
>  <TORSDO>  (8) 
F 19

>  <SCORE>  (8) 
-15.047

>  <name>  (8) 
8

>  <ligand_id>  (8) 
8

>  <original_smiles>  (8) 
[H]c1c([H])c([H])c2c(c1[H])C([H])([H])C([H])([H])C([H])([H])C2([H])N([H])C(=O)C1([H])N(C(=O)C([H])(N([H])C(=O)C([H])(N([H])C([H])([H])[H])C([H])([H])[H])C(C([H])([H])[H])(C([H])([H])[H])C([H])([H])[H])C([H])([H])c2c([H])c(OC([H])([H])C3([H])C([H])([H])C34C([H])([H])C([H])([H])C([H])(N([H])C(=O)N3C([H])([H])C([H])([H])C([H])([H])C([H])(n5nc(-c6c([H])c([H])c(Oc7c([H])c([H])c(F)c([H])c7F)c([H])c6[H])c(C(=O)N([H])[H])c5N([H])[H])C3([H])[H])C([H])([H])C4([H])C([H])([H])[N+]([H])([H])[H])c([H])c([H])c2C1([H])[H]

>  <smiles>  (8) 
[H]c1c([H])c([H])c2c(c1[H])C([H])([H])C([H])([H])C([H])([H])C2([H])N([H])C(=O)C1([H])N(C(=O)C([H])(N([H])C(=O)C([H])(N([H])C([H])([H])[H])C([H])([H])[H])C(C([H])([H])[H])(C([H])([H])[H])C([H])([H])[H])C([H])([H])c2c([H])c(OC([H])([H])C3([H])C([H])([H])C34C([H])([H])C([H])([H])C([H])(N([H])C(=O)N3C([H])([H])C([H])([H])C([H])([H])C([H])(n5nc(-c6c([H])c([H])c(Oc7c([H])c([H])c(F)c([H])c7F)c([H])c6[H])c(C(=O)N([H])[H])c5N([H])[H])C3([H])[H])C([H])([H])C4([H])C([H])([H])[N+]([H])([H])[H])c([H])c([H])c2C1([H])[H]

$$$$
9:0:0
     RDKit          3D

 97105  0  0  1  0  0  0  0  0999 V2000
  -30.5070  -18.1790   22.1230 C   0  0  0  0  0  3  0  0  0  0  0  0
  -30.6370  -19.5060   22.5680 C   0  0  0  0  0  3  0  0  0  0  0  0
  -29.3570  -18.9710   20.1470 C   0  0  0  0  0  3  0  0  0  0  0  0
  -29.9110  -17.8730   20.8770 C   0  0  0  0  0  0  0  0  0  0  0  0
  -30.1630  -20.5840   21.7940 C   0  0  0  0  0  0  0  0  0  0  0  0
  -29.4540  -20.3220   20.5890 C   0  0  0  0  0  0  0  0  0  0  0  0
  -30.4990  -21.9560   22.2240 C   0  0  0  0  0  0  0  0  0  0  0  0
  -31.6960  -22.5820   21.5530 C   0  0  0  0  0  1  0  0  0  0  0  0
  -29.7870  -22.6130   23.0360 N   0  0  0  0  0  0  0  0  0  0  0  0
  -29.0380  -22.0590   23.4410 H   0  0  0  0  0  0  0  0  0  0  0  0
  -30.0040  -16.4520   20.3500 C   0  0  0  0  0  3  0  0  0  0  0  0
  -30.4440  -15.4960   21.1110 N   0  0  0  0  0  2  0  0  0  0  0  0
  -31.0360  -14.3760   20.5340 C   0  0  0  0  0  0  0  0  0  0  0  0
  -30.6460  -12.1990   19.4410 C   0  0  0  0  0  2  0  0  0  0  0  0
  -29.7410  -12.4020   18.2130 C   0  0  0  0  0  2  0  0  0  0  0  0
  -28.2550  -12.3140   18.6200 C   0  0  0  0  0  2  0  0  0  0  0  0
  -27.9150  -13.1660   19.8730 C   0  0  0  0  0  3  0  0  0  0  0  0
  -28.9620  -12.9930   20.9950 C   0  0  0  0  0  2  0  0  0  0  0  0
  -30.2930  -13.2370   20.4220 N   0  0  0  0  0  0  0  0  0  0  0  0
  -32.1630  -14.4500   20.0480 O   0  0  0  0  0  0  0  0  0  0  0  0
  -25.5290  -13.8000   20.5830 C   0  0  0  0  0  0  0  0  0  0  0  0
  -24.4480  -13.0440   20.9380 C   0  0  0  0  0  0  0  0  0  0  0  0
  -24.8850  -11.6850   20.8950 C   0  0  0  0  0  0  0  0  0  0  0  0
  -26.5600  -12.9040   20.3470 N   0  0  0  0  0  0  0  0  0  0  0  0
  -26.1760  -11.6250   20.5950 N   0  0  0  0  0  0  0  0  0  0  0  0
  -24.1350  -10.4350   21.0700 C   0  0  0  0  0  0  0  0  0  0  0  0
  -24.5100   -9.4740   22.0340 C   0  0  0  0  0  3  0  0  0  0  0  0
  -23.7600   -8.2890   22.1930 C   0  0  0  0  0  3  0  0  0  0  0  0
  -22.6200   -8.0560   21.3880 C   0  0  0  0  0  0  0  0  0  0  0  0
  -22.2650   -9.0050   20.4130 C   0  0  0  0  0  3  0  0  0  0  0  0
  -23.0160  -10.1820   20.2520 C   0  0  0  0  0  3  0  0  0  0  0  0
  -21.8470   -6.9210   21.4560 O   0  0  0  0  0  0  0  0  0  0  0  0
  -21.7180   -6.2070   22.6190 C   0  0  0  0  0  0  0  0  0  0  0  0
  -21.0960   -6.7530   23.7630 C   0  0  0  0  0  3  0  0  0  0  0  0
  -20.9180   -5.9610   24.9140 C   0  0  0  0  0  3  0  0  0  0  0  0
  -21.3540   -4.6230   24.9240 C   0  0  0  0  0  0  0  0  0  0  0  0
  -21.9680   -4.0750   23.7840 C   0  0  0  0  0  3  0  0  0  0  0  0
  -22.1470   -4.8640   22.6340 C   0  0  0  0  0  0  0  0  0  0  0  0
  -22.7200   -4.3250   21.5320 F   0  0  0  0  0  0  0  0  0  0  0  0
  -21.1780   -3.8590   26.0270 F   0  0  0  0  0  0  0  0  0  0  0  0
  -23.0580  -13.5440   21.2090 C   0  0  0  0  0  0  0  0  0  0  0  0
  -22.3150  -12.8510   22.0640 N   0  0  0  0  0  0  0  0  0  0  0  0
  -22.6420  -14.5840   20.7010 O   0  0  0  0  0  0  0  0  0  0  0  0
  -22.6690  -12.0130   22.5030 H   0  0  0  0  0  0  0  0  0  0  0  0
  -21.3780  -13.1620   22.2840 H   0  0  0  0  0  0  0  0  0  0  0  0
  -25.7180  -15.1700   20.4210 N   0  0  0  0  0  0  0  0  0  0  0  0
  -24.9690  -15.8420   20.5480 H   0  0  0  0  0  0  0  0  0  0  0  0
  -26.5930  -15.6010   20.1500 H   0  0  0  0  0  0  0  0  0  0  0  0
  -30.6200  -16.7250   17.8430 C   0  0  0  0  0  1  0  0  0  0  0  0
  -29.5800  -16.2560   18.8760 C   0  0  0  0  0  2  0  0  0  0  0  0
  -28.9030  -21.4580   19.6840 C   0  0  0  0  0  2  0  0  0  0  0  0
  -28.1470  -22.5410   20.3800 N   0  0  0  0  0  4  0  0  0  0  0  0
  -28.6010  -22.6760   21.2790 H   0  0  0  0  0  0  0  0  0  0  0  0
  -27.2110  -22.2180   20.5730 H   0  0  0  0  0  0  0  0  0  0  0  0
  -28.0990  -23.8700   19.6960 C   0  0  0  0  0  2  0  0  0  0  0  0
  -27.8690  -25.0350   20.6960 C   0  0  0  0  0  2  0  0  0  0  0  0
  -28.0710  -26.3570   20.1500 O   0  0  0  0  0  0  0  0  0  0  0  0
  -24.5240  -31.6710   23.3320 C   0  0  0  0  0  0  0  0  0  0  0  0
  -26.9550  -27.1680   20.1600 C   0  0  0  0  0  0  0  0  0  0  0  0
  -23.2550  -30.3510   21.6710 C   0  0  0  0  0  3  0  0  0  0  0  0
  -24.6370  -28.7860   20.2050 C   0  0  0  0  0  0  0  0  0  0  0  0
  -25.7930  -30.6060   21.4660 C   0  0  0  0  0  2  0  0  0  0  0  0
  -25.8200  -29.2460   20.7970 C   0  0  0  0  0  0  0  0  0  0  0  0
  -26.9880  -28.4480   20.7640 C   0  0  0  0  0  3  0  0  0  0  0  0
  -25.7560  -26.7230   19.5650 C   0  0  0  0  0  3  0  0  0  0  0  0
  -24.6010  -27.5260   19.5840 C   0  0  0  0  0  3  0  0  0  0  0  0
  -23.4290  -29.6930   20.2770 C   0  0  0  0  0  2  0  0  0  0  0  0
  -24.5440  -30.8880   22.2160 N   0  0  0  0  0  0  0  0  0  0  0  0
  -23.4550  -31.9780   23.8800 O   0  0  0  0  0  0  0  0  0  0  0  0
  -22.5640  -29.3410   22.6150 C   0  0  0  0  0  0  0  0  0  0  0  0
  -21.2370  -29.1980   22.4720 N   0  0  0  0  0  0  0  0  0  0  0  0
  -23.2190  -28.6840   23.4290 O   0  0  0  0  0  0  0  0  0  0  0  0
  -20.7720  -29.7760   21.7850 H   0  0  0  0  0  0  0  0  0  0  0  0
  -17.8180  -28.1200   22.9350 C   0  0  0  0  0  0  0  0  0  0  0  0
  -20.3830  -28.2790   23.2220 C   0  0  0  0  0  3  0  0  0  0  0  0
  -20.4360  -26.8550   22.6210 C   0  0  0  0  0  2  0  0  0  0  0  0
  -19.3280  -26.5910   21.5970 C   0  0  0  0  0  2  0  0  0  0  0  0
  -17.9490  -26.7760   22.2370 C   0  0  0  0  0  2  0  0  0  0  0  0
  -18.9630  -28.8330   23.3810 C   0  0  0  0  0  0  0  0  0  0  0  0
  -18.7880  -30.0930   23.9910 C   0  0  0  0  0  3  0  0  0  0  0  0
  -17.5030  -30.6420   24.1600 C   0  0  0  0  0  3  0  0  0  0  0  0
  -16.3730  -29.9240   23.7300 C   0  0  0  0  0  3  0  0  0  0  0  0
  -16.5320  -28.6660   23.1240 C   0  0  0  0  0  3  0  0  0  0  0  0
  -25.8360  -32.2360   23.9580 C   0  0  0  0  0  3  0  0  0  0  0  0
  -25.6180  -33.6610   24.2340 N   0  0  0  0  0  0  0  0  0  0  0  0
  -26.0430  -34.6610   23.4500 C   0  0  0  0  0  0  0  0  0  0  0  0
  -26.7330  -34.4770   22.4430 O   0  0  0  0  0  0  0  0  0  0  0  0
  -25.0080  -33.8840   25.0080 H   0  0  0  0  0  0  0  0  0  0  0  0
  -24.4870  -36.5740   22.9470 C   0  0  0  0  0  1  0  0  0  0  0  0
  -25.6390  -36.0940   23.8460 C   0  0  0  0  0  3  0  0  0  0  0  0
  -27.7600  -36.8540   24.8210 C   0  0  0  0  0  1  0  0  0  0  0  0
  -26.7570  -37.0610   23.7810 N   0  0  0  0  0  0  0  0  0  0  0  0
  -26.4140  -38.0150   23.8570 H   0  0  0  0  0  0  0  0  0  0  0  0
  -26.2760  -31.4750   25.2670 C   0  0  1  0  0  0  0  0  0  0  0  0
  -25.1440  -31.3320   26.3120 C   0  0  0  0  0  1  0  0  0  0  0  0
  -26.7870  -30.0540   24.9280 C   0  0  0  0  0  1  0  0  0  0  0  0
  -27.4530  -32.2220   25.9390 C   0  0  0  0  0  1  0  0  0  0  0  0
  1  2  1  0
  3  6  2  0
  3  4  1  0
  4  1  2  0
  5  7  1  0
  5  2  2  0
  6  5  1  0
  7  9  2  0
  8  7  1  0
  9 10  1  0
 11 50  1  0
 11  4  1  0
 11 12  1  0
 13 12  1  0
 14 19  1  0
 15 16  1  0
 15 14  1  0
 17 16  1  0
 17 24  1  0
 17 18  1  0
 19 13  1  0
 19 18  1  0
 20 13  2  0
 21 22  2  0
 22 41  1  0
 23 22  1  0
 23 26  1  0
 24 21  1  0
 24 25  1  0
 25 23  2  0
 26 27  1  0
 27 28  2  0
 29 32  1  0
 29 28  1  0
 30 29  2  0
 31 30  1  0
 31 26  2  0
 32 33  1  0
 33 38  2  0
 33 34  1  0
 34 35  2  0
 35 36  1  0
 36 40  1  0
 37 36  2  0
 38 37  1  0
 39 38  1  0
 41 42  1  0
 42 45  1  0
 42 44  1  0
 43 41  2  0
 46 47  1  0
 46 21  1  0
 48 46  1  0
 49 50  1  0
 51 52  1  0
 51  6  1  0
 52 54  1  0
 52 53  1  0
 55 52  1  0
 55 56  1  0
 57 59  1  0
 57 56  1  0
 58 69  2  0
 59 64  1  0
 60 68  1  0
 60 70  1  0
 61 67  1  0
 61 63  1  0
 62 68  1  0
 63 62  1  0
 64 63  2  0
 65 66  1  0
 65 59  2  0
 66 61  2  0
 67 60  1  0
 68 58  1  0
 70 72  2  0
 71 70  1  0
 73 71  1  0
 74 83  2  0
 74 79  1  0
 75 71  1  0
 75 79  1  0
 76 75  1  0
 77 78  1  0
 77 76  1  0
 78 74  1  0
 79 80  2  0
 80 81  1  0
 82 81  2  0
 83 82  1  0
 84 58  1  0
 84 85  1  0
 84 94  1  0
 85 88  1  0
 86 90  1  0
 86 85  1  0
 87 86  2  0
 90 89  1  0
 92 90  1  0
 92 93  1  0
 92 91  1  0
 94 97  1  1
 94 95  1  0
 96 94  1  0
M  ISO  4  12 100  13 100  56 101  57 101
M  END
>  <TORSDO>  (9) 
F 23

>  <SCORE>  (9) 
-11.647

>  <name>  (9) 
9

>  <ligand_id>  (9) 
9

>  <original_smiles>  (9) 
[H]N=C(c1c([H])c([H])c(C(=NC(=O)N2C([H])([H])C([H])([H])C([H])([H])C([H])(n3nc(-c4c([H])c([H])c(Oc5c([H])c([H])c(F)c([H])c5F)c([H])c4[H])c(C(=O)N([H])[H])c3N([H])[H])C2([H])[H])C([H])([H])C([H])([H])[H])c([H])c1C([H])([H])[N+]([H])([H])C([H])([H])C([H])([H])Oc1c([H])c([H])c2c(c1[H])C([H])([H])N(C(=O)C([H])(N([H])C(=O)C([H])(N([H])C([H])([H])[H])C([H])([H])[H])C(C([H])([H])[H])(C([H])([H])[H])C([H])([H])[H])C([H])(C(=O)N([H])C1([H])c3c([H])c([H])c([H])c([H])c3C([H])([H])C([H])([H])C1([H])[H])C2([H])[H])C([H])([H])[H]

>  <smiles>  (9) 
[H]N=C(c1c([H])c([H])c(C(=NC(=O)N2C([H])([H])C([H])([H])C([H])([H])C([H])(n3nc(-c4c([H])c([H])c(Oc5c([H])c([H])c(F)c([H])c5F)c([H])c4[H])c(C(=O)N([H])[H])c3N([H])[H])C2([H])[H])C([H])([H])C([H])([H])[H])c([H])c1C([H])([H])[N+]([H])([H])C([H])([H])C([H])([H])Oc1c([H])c([H])c2c(c1[H])C([H])([H])N(C(=O)C([H])(N([H])C(=O)C([H])(N([H])C([H])([H])[H])C([H])([H])[H])C(C([H])([H])[H])(C([H])([H])[H])C([H])([H])[H])C([H])(C(=O)N([H])C1([H])c3c([H])c([H])c([H])c([H])c3C([H])([H])C([H])([H])C1([H])[H])C2([H])[H])C([H])([H])[H]

$$$$
10:0:0
     RDKit          3D

 90 99  0  0  1  0  0  0  0  0999 V2000
  -30.3680  -19.0660   20.9670 C   0  0  0  0  0  3  0  0  0  0  0  0
  -30.1680  -20.4630   21.0260 C   0  0  0  0  0  0  0  0  0  0  0  0
  -28.2530  -18.6810   19.8200 C   0  0  0  0  0  2  0  0  0  0  0  0
  -28.9960  -21.0890   18.7710 C   0  0  0  0  0  2  0  0  0  0  0  0
  -29.6570  -17.9460   20.1020 C   0  0  0  0  0  3  0  0  0  0  0  0
  -28.1220  -20.2990   19.7070 C   0  0  0  0  0  3  0  0  0  0  0  0
  -29.1340  -21.3850   20.2530 C   0  0  1  0  0  0  0  0  0  0  0  0
  -30.4300  -15.1440   20.2930 C   0  0  0  0  0  0  0  0  0  0  0  0
  -30.3680  -12.7370   19.4040 C   0  0  0  0  0  2  0  0  0  0  0  0
  -29.4420  -12.6240   18.1670 C   0  0  0  0  0  2  0  0  0  0  0  0
  -27.9830  -12.3900   18.5990 C   0  0  0  0  0  2  0  0  0  0  0  0
  -27.5580  -13.3290   19.7580 C   0  0  0  0  0  3  0  0  0  0  0  0
  -28.6100  -13.3950   20.8870 C   0  0  0  0  0  2  0  0  0  0  0  0
  -29.8660  -13.8510   20.2750 N   0  0  0  0  0  0  0  0  0  0  0  0
  -31.6240  -15.1960   19.9730 O   0  0  0  0  0  0  0  0  0  0  0  0
  -29.6330  -16.3480   20.4720 N   0  0  0  0  0  0  0  0  0  0  0  0
  -28.7170  -16.0800   20.7980 H   0  0  0  0  0  0  0  0  0  0  0  0
  -25.1810  -13.8990   20.4960 C   0  0  0  0  0  0  0  0  0  0  0  0
  -24.1170  -13.1230   20.8660 C   0  0  0  0  0  0  0  0  0  0  0  0
  -24.5840  -11.7730   20.8400 C   0  0  0  0  0  0  0  0  0  0  0  0
  -26.2240  -13.0220   20.2570 N   0  0  0  0  0  0  0  0  0  0  0  0
  -25.8750  -11.7380   20.5320 N   0  0  0  0  0  0  0  0  0  0  0  0
  -23.8560  -10.5110   21.0310 C   0  0  0  0  0  0  0  0  0  0  0  0
  -24.2850   -9.5440   21.9680 C   0  0  0  0  0  3  0  0  0  0  0  0
  -23.5560   -8.3480   22.1480 C   0  0  0  0  0  3  0  0  0  0  0  0
  -22.3820   -8.1130   21.3920 C   0  0  0  0  0  0  0  0  0  0  0  0
  -21.9730   -9.0670   20.4450 C   0  0  0  0  0  3  0  0  0  0  0  0
  -22.7030  -10.2540   20.2630 C   0  0  0  0  0  3  0  0  0  0  0  0
  -21.6250   -6.9700   21.4810 O   0  0  0  0  0  0  0  0  0  0  0  0
  -21.5710   -6.2310   22.6360 C   0  0  0  0  0  0  0  0  0  0  0  0
  -21.1320   -6.7880   23.8580 C   0  0  0  0  0  3  0  0  0  0  0  0
  -21.0240   -5.9750   25.0040 C   0  0  0  0  0  3  0  0  0  0  0  0
  -21.3470   -4.6070   24.9310 C   0  0  0  0  0  0  0  0  0  0  0  0
  -21.7780   -4.0490   23.7140 C   0  0  0  0  0  3  0  0  0  0  0  0
  -21.8870   -4.8590   22.5700 C   0  0  0  0  0  0  0  0  0  0  0  0
  -22.2840   -4.3110   21.3960 F   0  0  0  0  0  0  0  0  0  0  0  0
  -21.2360   -3.8240   26.0300 F   0  0  0  0  0  0  0  0  0  0  0  0
  -22.7190  -13.6010   21.1290 C   0  0  0  0  0  0  0  0  0  0  0  0
  -21.9870  -12.9090   21.9940 N   0  0  0  0  0  0  0  0  0  0  0  0
  -22.2860  -14.6260   20.6040 O   0  0  0  0  0  0  0  0  0  0  0  0
  -22.3500  -12.0820   22.4430 H   0  0  0  0  0  0  0  0  0  0  0  0
  -21.0480  -13.2130   22.2120 H   0  0  0  0  0  0  0  0  0  0  0  0
  -25.3400  -15.2690   20.3130 N   0  0  0  0  0  0  0  0  0  0  0  0
  -24.5650  -15.9160   20.4150 H   0  0  0  0  0  0  0  0  0  0  0  0
  -26.1710  -15.7080   19.9370 H   0  0  0  0  0  0  0  0  0  0  0  0
  -32.3000  -21.8320   21.1550 C   0  0  0  0  0  1  0  0  0  0  0  0
  -31.1150  -21.2400   21.9310 C   0  0  0  0  0  2  0  0  0  0  0  0
  -28.9170  -23.0690   20.6890 C   0  0  0  0  0  3  0  0  0  0  0  0
  -28.0730  -24.4450   20.0190 C   0  0  0  0  0  3  0  0  0  0  0  0
  -28.2220  -26.0170   20.3500 O   0  0  0  0  0  0  0  0  0  0  0  0
  -24.6090  -31.8610   23.2570 C   0  0  0  0  0  0  0  0  0  0  0  0
  -27.1870  -27.0560   20.2500 C   0  0  0  0  0  0  0  0  0  0  0  0
  -23.4180  -30.4640   21.6130 C   0  0  0  0  0  3  0  0  0  0  0  0
  -24.8720  -28.8710   20.1950 C   0  0  0  0  0  0  0  0  0  0  0  0
  -25.9780  -30.6990   21.4710 C   0  0  0  0  0  2  0  0  0  0  0  0
  -26.0520  -29.2980   20.8180 C   0  0  0  0  0  0  0  0  0  0  0  0
  -27.2050  -28.4070   20.8250 C   0  0  0  0  0  3  0  0  0  0  0  0
  -25.9830  -26.7600   19.5760 C   0  0  0  0  0  3  0  0  0  0  0  0
  -24.8560  -27.6210   19.5560 C   0  0  0  0  0  3  0  0  0  0  0  0
  -23.6490  -29.7810   20.2370 C   0  0  0  0  0  2  0  0  0  0  0  0
  -24.6890  -31.0330   22.1680 N   0  0  0  0  0  0  0  0  0  0  0  0
  -23.5190  -32.1490   23.7760 O   0  0  0  0  0  0  0  0  0  0  0  0
  -22.7270  -29.4640   22.5770 C   0  0  0  0  0  0  0  0  0  0  0  0
  -21.3980  -29.3000   22.4480 N   0  0  0  0  0  0  0  0  0  0  0  0
  -23.3920  -28.8380   23.4060 O   0  0  0  0  0  0  0  0  0  0  0  0
  -20.9160  -29.8560   21.7550 H   0  0  0  0  0  0  0  0  0  0  0  0
  -18.0120  -28.1010   22.9470 C   0  0  0  0  0  0  0  0  0  0  0  0
  -20.5720  -28.3640   23.2180 C   0  0  0  0  0  3  0  0  0  0  0  0
  -20.6720  -26.9310   22.6450 C   0  0  0  0  0  2  0  0  0  0  0  0
  -19.5730  -26.6080   21.6280 C   0  0  0  0  0  2  0  0  0  0  0  0
  -18.1900  -26.7530   22.2690 C   0  0  0  0  0  2  0  0  0  0  0  0
  -19.1300  -28.8640   23.3790 C   0  0  0  0  0  0  0  0  0  0  0  0
  -18.9080  -30.1240   23.9750 C   0  0  0  0  0  3  0  0  0  0  0  0
  -17.6030  -30.6230   24.1430 C   0  0  0  0  0  3  0  0  0  0  0  0
  -16.5000  -29.8580   23.7260 C   0  0  0  0  0  3  0  0  0  0  0  0
  -16.7060  -28.5990   23.1350 C   0  0  0  0  0  3  0  0  0  0  0  0
  -25.8800  -32.5010   23.8910 C   0  0  0  0  0  3  0  0  0  0  0  0
  -26.3750  -31.7440   25.1850 C   0  0  1  0  0  0  0  0  0  0  0  0
  -25.2660  -31.5260   26.2430 C   0  0  0  0  0  1  0  0  0  0  0  0
  -26.9560  -30.3580   24.8260 C   0  0  0  0  0  1  0  0  0  0  0  0
  -27.5210  -32.5410   25.8520 C   0  0  0  0  0  1  0  0  0  0  0  0
  -25.5660  -33.9040   24.2120 N   0  0  0  0  0  0  0  0  0  0  0  0
  -25.8980  -34.9570   23.4530 C   0  0  0  0  0  0  0  0  0  0  0  0
  -26.5630  -34.8500   22.4190 O   0  0  0  0  0  0  0  0  0  0  0  0
  -24.9740  -34.0600   25.0140 H   0  0  0  0  0  0  0  0  0  0  0  0
  -24.1660  -36.7540   23.1140 C   0  0  0  0  0  1  0  0  0  0  0  0
  -25.4170  -36.3490   23.9110 C   0  0  0  0  0  3  0  0  0  0  0  0
  -27.5590  -37.2440   24.7120 C   0  0  0  0  0  1  0  0  0  0  0  0
  -26.4480  -37.4030   23.7790 N   0  0  0  0  0  0  0  0  0  0  0  0
  -26.0430  -38.3240   23.9210 H   0  0  0  0  0  0  0  0  0  0  0  0
  1  2  2  0
  2 47  1  0
  3  5  1  0
  4  7  1  0
  5 16  1  0
  5  1  1  0
  6  4  1  0
  6  3  1  0
  6  7  1  0
  7 48  1  6
  7  2  1  0
  8 16  1  0
  9 14  1  0
 10 11  1  0
 10  9  1  0
 12 11  1  0
 12 21  1  0
 12 13  1  0
 14  8  1  0
 14 13  1  0
 15  8  2  0
 16 17  1  0
 18 19  2  0
 19 38  1  0
 20 19  1  0
 20 23  1  0
 21 18  1  0
 21 22  1  0
 22 20  2  0
 23 24  1  0
 24 25  2  0
 26 29  1  0
 26 25  1  0
 27 26  2  0
 28 27  1  0
 28 23  2  0
 29 30  1  0
 30 31  1  0
 31 32  2  0
 33 32  1  0
 33 37  1  0
 34 33  2  0
 35 30  2  0
 35 34  1  0
 36 35  1  0
 38 39  1  0
 39 42  1  0
 39 41  1  0
 40 38  2  0
 43 44  1  0
 43 18  1  0
 45 43  1  0
 46 47  1  0
 49 50  1  0
 49 48  2  0
 51 62  2  0
 52 50  1  0
 52 57  1  0
 53 61  1  0
 53 63  1  0
 54 60  1  0
 54 56  1  0
 55 61  1  0
 56 57  2  0
 56 55  1  0
 58 52  2  0
 59 58  1  0
 59 54  2  0
 60 53  1  0
 61 51  1  0
 63 65  2  0
 64 63  1  0
 66 64  1  0
 67 76  2  0
 67 72  1  0
 68 64  1  0
 68 72  1  0
 69 68  1  0
 70 71  1  0
 70 69  1  0
 71 67  1  0
 72 73  2  0
 73 74  1  0
 75 74  2  0
 76 75  1  0
 77 51  1  0
 77 82  1  0
 77 78  1  0
 78 81  1  1
 78 79  1  0
 80 78  1  0
 82 85  1  0
 83 87  1  0
 83 82  1  0
 84 83  2  0
 87 86  1  0
 89 87  1  0
 89 90  1  0
 89 88  1  0
M  ISO  4   8 100  16 100  49 101  50 101
M  END
>  <TORSDO>  (10) 
F 19

>  <SCORE>  (10) 
-15.331

>  <name>  (10) 
10

>  <ligand_id>  (10) 
10

>  <original_smiles>  (10) 
[H]C1=C(C([H])([H])C([H])([H])[H])C2(C([H])([H])C([H])([H])Oc3c([H])c([H])c4c(c3[H])C([H])([H])N(C(=O)C([H])(N([H])C(=O)C([H])(N([H])C([H])([H])[H])C([H])([H])[H])C(C([H])([H])[H])(C([H])([H])[H])C([H])([H])[H])C([H])(C(=O)N([H])C3([H])c5c([H])c([H])c([H])c([H])c5C([H])([H])C([H])([H])C3([H])[H])C4([H])[H])C([H])([H])C2([H])C([H])([H])C1([H])N([H])C(=O)N1C([H])([H])C([H])([H])C([H])([H])C([H])(n2nc(-c3c([H])c([H])c(Oc4c([H])c([H])c(F)c([H])c4F)c([H])c3[H])c(C(=O)N([H])[H])c2N([H])[H])C1([H])[H]

>  <smiles>  (10) 
[H]C1=C(C([H])([H])C([H])([H])[H])C2(C([H])([H])C([H])([H])Oc3c([H])c([H])c4c(c3[H])C([H])([H])N(C(=O)C([H])(N([H])C(=O)C([H])(N([H])C([H])([H])[H])C([H])([H])[H])C(C([H])([H])[H])(C([H])([H])[H])C([H])([H])[H])C([H])(C(=O)N([H])C3([H])c5c([H])c([H])c([H])c([H])c5C([H])([H])C([H])([H])C3([H])[H])C4([H])[H])C([H])([H])C2([H])C([H])([H])C1([H])N([H])C(=O)N1C([H])([H])C([H])([H])C([H])([H])C([H])(n2nc(-c3c([H])c([H])c(Oc4c([H])c([H])c(F)c([H])c4F)c([H])c3[H])c(C(=O)N([H])[H])c2N([H])[H])C1([H])[H]

$$$$
11:0:0
     RDKit          3D

 86 95  0  0  1  0  0  0  0  0999 V2000
  -29.8290  -21.8570   19.1940 C   0  0  0  0  0  2  0  0  0  0  0  0
  -29.4730  -20.5510   19.1220 C   0  0  0  0  0  3  0  0  0  0  0  0
  -30.1230  -19.1850   18.8180 C   0  0  0  0  0  2  0  0  0  0  0  0
  -28.8770  -22.2160   20.3600 C   0  0  0  0  0  3  0  0  0  0  0  0
  -28.6970  -20.3230   20.3570 C   0  0  0  0  0  3  0  0  0  0  0  0
  -29.7300  -18.7330   20.2660 C   0  0  0  0  0  3  0  0  0  0  0  0
  -30.2420  -15.6290   20.2540 C   0  0  0  0  0  0  0  0  0  0  0  0
  -30.3170  -13.1040   19.4240 C   0  0  0  0  0  2  0  0  0  0  0  0
  -29.4190  -12.7340   18.2110 C   0  0  0  0  0  2  0  0  0  0  0  0
  -27.9930  -12.3920   18.6650 C   0  0  0  0  0  2  0  0  0  0  0  0
  -27.4930  -13.3850   19.7400 C   0  0  0  0  0  3  0  0  0  0  0  0
  -28.5270  -13.6730   20.8530 C   0  0  0  0  0  2  0  0  0  0  0  0
  -29.7070  -14.2770   20.1930 N   0  0  0  0  0  0  0  0  0  0  0  0
  -31.4720  -15.5730   20.0700 O   0  0  0  0  0  0  0  0  0  0  0  0
  -29.4930  -16.9840   20.3290 N   0  0  0  0  0  0  0  0  0  0  0  0
  -28.5090  -16.7830   20.4440 H   0  0  0  0  0  0  0  0  0  0  0  0
  -25.1280  -13.9060   20.5090 C   0  0  0  0  0  0  0  0  0  0  0  0
  -24.0740  -13.1190   20.8770 C   0  0  0  0  0  0  0  0  0  0  0  0
  -24.5540  -11.7730   20.8450 C   0  0  0  0  0  0  0  0  0  0  0  0
  -26.1770  -13.0420   20.2620 N   0  0  0  0  0  0  0  0  0  0  0  0
  -25.8460  -11.7520   20.5320 N   0  0  0  0  0  0  0  0  0  0  0  0
  -23.8340  -10.5050   21.0310 C   0  0  0  0  0  0  0  0  0  0  0  0
  -24.2620   -9.5440   21.9730 C   0  0  0  0  0  3  0  0  0  0  0  0
  -23.5380   -8.3450   22.1510 C   0  0  0  0  0  3  0  0  0  0  0  0
  -22.3720   -8.0990   21.3860 C   0  0  0  0  0  0  0  0  0  0  0  0
  -21.9640   -9.0490   20.4340 C   0  0  0  0  0  3  0  0  0  0  0  0
  -22.6890  -10.2390   20.2550 C   0  0  0  0  0  3  0  0  0  0  0  0
  -21.6210   -6.9510   21.4730 O   0  0  0  0  0  0  0  0  0  0  0  0
  -21.5560   -6.2180   22.6320 C   0  0  0  0  0  0  0  0  0  0  0  0
  -21.0810   -6.7740   23.8390 C   0  0  0  0  0  3  0  0  0  0  0  0
  -20.9660   -5.9670   24.9880 C   0  0  0  0  0  3  0  0  0  0  0  0
  -21.3150   -4.6050   24.9310 C   0  0  0  0  0  0  0  0  0  0  0  0
  -21.7840   -4.0480   23.7280 C   0  0  0  0  0  3  0  0  0  0  0  0
  -21.9000   -4.8530   22.5810 C   0  0  0  0  0  0  0  0  0  0  0  0
  -22.3320   -4.3060   21.4190 F   0  0  0  0  0  0  0  0  0  0  0  0
  -21.1980   -3.8270   26.0330 F   0  0  0  0  0  0  0  0  0  0  0  0
  -22.6740  -13.5870   21.1410 C   0  0  0  0  0  0  0  0  0  0  0  0
  -21.9500  -12.8920   22.0120 N   0  0  0  0  0  0  0  0  0  0  0  0
  -22.2300  -14.6040   20.6110 O   0  0  0  0  0  0  0  0  0  0  0  0
  -22.3230  -12.0700   22.4630 H   0  0  0  0  0  0  0  0  0  0  0  0
  -21.0100  -13.1890   22.2330 H   0  0  0  0  0  0  0  0  0  0  0  0
  -25.2770  -15.2790   20.3300 N   0  0  0  0  0  0  0  0  0  0  0  0
  -24.5000  -15.9220   20.4360 H   0  0  0  0  0  0  0  0  0  0  0  0
  -26.1090  -15.7210   19.9640 H   0  0  0  0  0  0  0  0  0  0  0  0
  -27.9340  -23.8840   20.1200 C   0  0  0  0  0  2  0  0  0  0  0  0
  -28.1280  -25.6130   20.2770 O   0  0  0  0  0  0  0  0  0  0  0  0
  -24.6160  -31.8570   23.1930 C   0  0  0  0  0  0  0  0  0  0  0  0
  -27.1510  -26.8070   20.2120 C   0  0  0  0  0  0  0  0  0  0  0  0
  -23.4330  -30.4670   21.5460 C   0  0  0  0  0  3  0  0  0  0  0  0
  -24.8850  -28.8220   20.1400 C   0  0  0  0  0  0  0  0  0  0  0  0
  -26.0110  -30.6110   21.4380 C   0  0  0  0  0  2  0  0  0  0  0  0
  -26.0760  -29.1830   20.7800 C   0  0  0  0  0  0  0  0  0  0  0  0
  -27.1950  -28.2040   20.7840 C   0  0  0  0  0  3  0  0  0  0  0  0
  -25.9260  -26.6450   19.5180 C   0  0  0  0  0  3  0  0  0  0  0  0
  -24.8460  -27.5780   19.4860 C   0  0  0  0  0  3  0  0  0  0  0  0
  -23.6790  -29.7720   20.1750 C   0  0  0  0  0  2  0  0  0  0  0  0
  -24.7110  -31.0100   22.1110 N   0  0  0  0  0  0  0  0  0  0  0  0
  -23.5210  -32.1600   23.6970 O   0  0  0  0  0  0  0  0  0  0  0  0
  -22.7100  -29.4880   22.5100 C   0  0  0  0  0  0  0  0  0  0  0  0
  -21.3750  -29.3500   22.3860 N   0  0  0  0  0  0  0  0  0  0  0  0
  -23.3600  -28.8510   23.3420 O   0  0  0  0  0  0  0  0  0  0  0  0
  -20.9020  -29.9140   21.6940 H   0  0  0  0  0  0  0  0  0  0  0  0
  -17.9720  -28.1910   22.9090 C   0  0  0  0  0  0  0  0  0  0  0  0
  -20.5380  -28.4190   23.1530 C   0  0  0  0  0  3  0  0  0  0  0  0
  -20.6120  -26.9910   22.5630 C   0  0  0  0  0  2  0  0  0  0  0  0
  -19.4990  -26.6970   21.5540 C   0  0  0  0  0  2  0  0  0  0  0  0
  -18.1240  -26.8510   22.2100 C   0  0  0  0  0  2  0  0  0  0  0  0
  -19.1040  -28.9350   23.3380 C   0  0  0  0  0  0  0  0  0  0  0  0
  -18.9050  -30.1880   23.9570 C   0  0  0  0  0  3  0  0  0  0  0  0
  -17.6070  -30.6980   24.1470 C   0  0  0  0  0  3  0  0  0  0  0  0
  -16.4900  -29.9540   23.7320 C   0  0  0  0  0  3  0  0  0  0  0  0
  -16.6730  -28.7010   23.1190 C   0  0  0  0  0  3  0  0  0  0  0  0
  -25.8780  -32.5010   23.8420 C   0  0  0  0  0  3  0  0  0  0  0  0
  -25.5610  -33.9050   24.1710 N   0  0  0  0  0  0  0  0  0  0  0  0
  -25.8890  -34.9660   23.4210 C   0  0  0  0  0  0  0  0  0  0  0  0
  -26.5480  -34.8670   22.3830 O   0  0  0  0  0  0  0  0  0  0  0  0
  -24.9730  -34.0540   24.9770 H   0  0  0  0  0  0  0  0  0  0  0  0
  -24.1530  -36.7680   23.1190 C   0  0  0  0  0  1  0  0  0  0  0  0
  -25.4150  -36.3580   23.8950 C   0  0  0  0  0  3  0  0  0  0  0  0
  -27.5670  -37.2520   24.6740 C   0  0  0  0  0  1  0  0  0  0  0  0
  -26.4440  -37.4120   23.7550 N   0  0  0  0  0  0  0  0  0  0  0  0
  -26.0400  -38.3320   23.9060 H   0  0  0  0  0  0  0  0  0  0  0  0
  -26.3580  -31.7440   25.1420 C   0  0  1  0  0  0  0  0  0  0  0  0
  -25.2400  -31.5320   26.1920 C   0  0  0  0  0  1  0  0  0  0  0  0
  -26.9370  -30.3540   24.7930 C   0  0  0  0  0  1  0  0  0  0  0  0
  -27.5020  -32.5350   25.8180 C   0  0  0  0  0  1  0  0  0  0  0  0
  1  4  1  0
  2  3  1  0
  2  1  1  0
  2  5  1  0
  3  6  1  0
  4 45  1  0
  5  4  1  0
  6 15  1  0
  6  5  1  0
  7 15  1  0
  8 13  1  0
  9 10  1  0
  9  8  1  0
 10 11  1  0
 11 20  1  0
 11 12  1  0
 13  7  1  0
 13 12  1  0
 14  7  2  0
 15 16  1  0
 17 18  2  0
 18 37  1  0
 19 18  1  0
 19 22  1  0
 20 17  1  0
 20 21  1  0
 21 19  2  0
 22 23  1  0
 23 24  2  0
 25 28  1  0
 25 24  1  0
 26 25  2  0
 27 26  1  0
 27 22  2  0
 28 29  1  0
 29 30  1  0
 30 31  2  0
 32 31  1  0
 32 36  1  0
 33 32  2  0
 34 29  2  0
 34 33  1  0
 35 34  1  0
 37 38  1  0
 38 41  1  0
 38 40  1  0
 39 37  2  0
 42 43  1  0
 42 17  1  0
 44 42  1  0
 45 46  1  0
 47 58  2  0
 47 73  1  0
 48 46  1  0
 48 53  1  0
 49 57  1  0
 49 59  1  0
 50 56  1  0
 50 52  1  0
 51 57  1  0
 52 53  2  0
 52 51  1  0
 54 48  2  0
 55 54  1  0
 55 50  2  0
 56 49  1  0
 57 47  1  0
 59 61  2  0
 60 59  1  0
 60 64  1  0
 62 60  1  0
 63 72  2  0
 63 68  1  0
 64 68  1  0
 65 64  1  0
 66 67  1  0
 66 65  1  0
 67 63  1  0
 68 69  2  0
 69 70  1  0
 71 70  2  0
 72 71  1  0
 73 74  1  0
 73 83  1  0
 74 77  1  0
 75 79  1  0
 75 74  1  0
 76 75  2  0
 78 79  1  0
 81 79  1  0
 81 82  1  0
 81 80  1  0
 83 86  1  1
 83 84  1  0
 85 83  1  0
M  ISO  4   7 100  15 100  45 101  46 101
M  END
>  <TORSDO>  (11) 
F 17

>  <SCORE>  (11) 
-16.470

>  <name>  (11) 
11

>  <ligand_id>  (11) 
11

>  <original_smiles>  (11) 
[H]C1=C2C([H])([H])C([H])(N([H])C(=O)N3C([H])([H])C([H])([H])C([H])([H])C([H])(n4nc(-c5c([H])c([H])c(Oc6c([H])c([H])c(F)c([H])c6F)c([H])c5[H])c(C(=O)N([H])[H])c4N([H])[H])C3([H])[H])C2([H])C1([H])C([H])([H])Oc1c([H])c([H])c2c(c1[H])C([H])([H])N(C(=O)C([H])(N([H])C(=O)C([H])(N([H])C([H])([H])[H])C([H])([H])[H])C(C([H])([H])[H])(C([H])([H])[H])C([H])([H])[H])C([H])(C(=O)N([H])C1([H])c3c([H])c([H])c([H])c([H])c3C([H])([H])C([H])([H])C1([H])[H])C2([H])[H]

>  <smiles>  (11) 
[H]C1=C2C([H])([H])C([H])(N([H])C(=O)N3C([H])([H])C([H])([H])C([H])([H])C([H])(n4nc(-c5c([H])c([H])c(Oc6c([H])c([H])c(F)c([H])c6F)c([H])c5[H])c(C(=O)N([H])[H])c4N([H])[H])C3([H])[H])C2([H])C1([H])C([H])([H])Oc1c([H])c([H])c2c(c1[H])C([H])([H])N(C(=O)C([H])(N([H])C(=O)C([H])(N([H])C([H])([H])[H])C([H])([H])[H])C(C([H])([H])[H])(C([H])([H])[H])C([H])([H])[H])C([H])(C(=O)N([H])C1([H])c3c([H])c([H])c([H])c([H])c3C([H])([H])C([H])([H])C1([H])[H])C2([H])[H]

$$$$
12:0:0
     RDKit          3D

 89 97  0  0  1  0  0  0  0  0999 V2000
  -29.6580  -21.7830   18.4940 O   0  0  0  0  0  0  0  0  0  0  0  0
  -27.3030  -21.7640   19.3810 O   0  0  0  0  0  0  0  0  0  0  0  0
  -28.7480  -21.8670   19.6540 S   0  0  1  0  0  0  0  0  0  0  0  0
  -30.6500  -14.6560   19.9620 C   0  0  0  0  0  0  0  0  0  0  0  0
  -30.2980  -12.4100   18.9280 C   0  0  0  0  0  2  0  0  0  0  0  0
  -29.2880  -12.5140   17.7660 C   0  0  0  0  0  2  0  0  0  0  0  0
  -27.8500  -12.3580   18.2930 C   0  0  0  0  0  2  0  0  0  0  0  0
  -27.5700  -13.2330   19.5460 C   0  0  0  0  0  3  0  0  0  0  0  0
  -28.7000  -13.1210   20.5910 C   0  0  0  0  0  2  0  0  0  0  0  0
  -29.9500  -13.4690   19.9070 N   0  0  0  0  0  0  0  0  0  0  0  0
  -31.8170  -14.6640   19.5590 O   0  0  0  0  0  0  0  0  0  0  0  0
  -29.4180  -19.0250   20.4760 C   0  0  0  0  0  0  0  0  0  0  0  0
  -29.1480  -20.3630   20.7690 C   0  0  0  0  0  2  0  0  0  0  0  0
  -29.6340  -17.9510   21.5690 C   0  0  0  0  0  3  0  0  0  0  0  0
  -29.5110  -18.3370   19.1070 C   0  0  0  0  0  3  0  0  0  0  0  0
  -29.2730  -16.4480   21.1970 C   0  0  0  0  0  2  0  0  0  0  0  0
  -30.3560  -16.9900   19.0780 C   0  0  0  0  0  3  0  0  0  0  0  0
  -29.9650  -15.8800   20.0090 N   0  0  0  0  0  0  0  0  0  0  0  0
  -25.2540  -13.8350   20.4640 C   0  0  0  0  0  0  0  0  0  0  0  0
  -24.2000  -13.0660   20.8780 C   0  0  0  0  0  0  0  0  0  0  0  0
  -24.6350  -11.7090   20.7690 C   0  0  0  0  0  0  0  0  0  0  0  0
  -26.2610  -12.9480   20.1240 N   0  0  0  0  0  0  0  0  0  0  0  0
  -25.9000  -11.6610   20.3710 N   0  0  0  0  0  0  0  0  0  0  0  0
  -23.9000  -10.4530   20.9660 C   0  0  0  0  0  0  0  0  0  0  0  0
  -24.3440   -9.4700   21.8770 C   0  0  0  0  0  3  0  0  0  0  0  0
  -23.6080   -8.2810   22.0630 C   0  0  0  0  0  3  0  0  0  0  0  0
  -22.4130   -8.0650   21.3380 C   0  0  0  0  0  0  0  0  0  0  0  0
  -21.9880   -9.0350   20.4130 C   0  0  0  0  0  3  0  0  0  0  0  0
  -22.7230  -10.2170   20.2250 C   0  0  0  0  0  3  0  0  0  0  0  0
  -21.6470   -6.9290   21.4340 O   0  0  0  0  0  0  0  0  0  0  0  0
  -21.5780   -6.2030   22.5960 C   0  0  0  0  0  0  0  0  0  0  0  0
  -21.1350   -6.7770   23.8090 C   0  0  0  0  0  3  0  0  0  0  0  0
  -21.0140   -5.9780   24.9630 C   0  0  0  0  0  3  0  0  0  0  0  0
  -21.3230   -4.6070   24.9060 C   0  0  0  0  0  0  0  0  0  0  0  0
  -21.7580   -4.0330   23.6990 C   0  0  0  0  0  3  0  0  0  0  0  0
  -21.8810   -4.8290   22.5470 C   0  0  0  0  0  0  0  0  0  0  0  0
  -22.2800   -4.2640   21.3810 F   0  0  0  0  0  0  0  0  0  0  0  0
  -21.1990   -3.8370   26.0120 F   0  0  0  0  0  0  0  0  0  0  0  0
  -22.8340  -13.5560   21.2610 C   0  0  0  0  0  0  0  0  0  0  0  0
  -22.1580  -12.8470   22.1570 N   0  0  0  0  0  0  0  0  0  0  0  0
  -22.3790  -14.6020   20.8010 O   0  0  0  0  0  0  0  0  0  0  0  0
  -22.5440  -12.0000   22.5490 H   0  0  0  0  0  0  0  0  0  0  0  0
  -21.2440  -13.1550   22.4580 H   0  0  0  0  0  0  0  0  0  0  0  0
  -25.4350  -15.2080   20.3260 N   0  0  0  0  0  0  0  0  0  0  0  0
  -24.7010  -15.8780   20.5270 H   0  0  0  0  0  0  0  0  0  0  0  0
  -26.2790  -15.6400   19.9730 H   0  0  0  0  0  0  0  0  0  0  0  0
  -29.0100  -23.6130   20.4840 C   0  0  0  0  0  3  0  0  0  0  0  0
  -28.0950  -24.8320   19.9420 C   0  0  0  0  0  3  0  0  0  0  0  0
  -28.3090  -26.2870   20.2910 O   0  0  0  0  0  0  0  0  0  0  0  0
  -24.6280  -31.8300   23.1880 C   0  0  0  0  0  0  0  0  0  0  0  0
  -27.2270  -27.1980   20.1860 C   0  0  0  0  0  0  0  0  0  0  0  0
  -23.4300  -30.4270   21.5480 C   0  0  0  0  0  3  0  0  0  0  0  0
  -24.8830  -28.8620   20.1370 C   0  0  0  0  0  0  0  0  0  0  0  0
  -25.9750  -30.7200   21.3860 C   0  0  0  0  0  2  0  0  0  0  0  0
  -26.0520  -29.3350   20.7470 C   0  0  0  0  0  0  0  0  0  0  0  0
  -27.2260  -28.5130   20.7630 C   0  0  0  0  0  3  0  0  0  0  0  0
  -26.0400  -26.8080   19.5240 C   0  0  0  0  0  3  0  0  0  0  0  0
  -24.8840  -27.6080   19.5140 C   0  0  0  0  0  3  0  0  0  0  0  0
  -23.6510  -29.7450   20.1740 C   0  0  0  0  0  2  0  0  0  0  0  0
  -24.6960  -31.0110   22.0950 N   0  0  0  0  0  0  0  0  0  0  0  0
  -23.5420  -32.1140   23.7130 O   0  0  0  0  0  0  0  0  0  0  0  0
  -22.7540  -29.4180   22.5110 C   0  0  0  0  0  0  0  0  0  0  0  0
  -21.4310  -29.2350   22.3670 N   0  0  0  0  0  0  0  0  0  0  0  0
  -23.4210  -28.8060   23.3470 O   0  0  0  0  0  0  0  0  0  0  0  0
  -20.9520  -29.7770   21.6610 H   0  0  0  0  0  0  0  0  0  0  0  0
  -18.0530  -28.0230   22.8230 C   0  0  0  0  0  0  0  0  0  0  0  0
  -20.6030  -28.3070   23.1410 C   0  0  0  0  0  3  0  0  0  0  0  0
  -20.7280  -26.8660   22.5970 C   0  0  0  0  0  2  0  0  0  0  0  0
  -19.6520  -26.5180   21.5640 C   0  0  0  0  0  2  0  0  0  0  0  0
  -18.2550  -26.6650   22.1720 C   0  0  0  0  0  2  0  0  0  0  0  0
  -19.1580  -28.8010   23.2630 C   0  0  0  0  0  0  0  0  0  0  0  0
  -18.9170  -30.0710   23.8290 C   0  0  0  0  0  3  0  0  0  0  0  0
  -17.6060  -30.5630   23.9630 C   0  0  0  0  0  3  0  0  0  0  0  0
  -16.5150  -29.7820   23.5420 C   0  0  0  0  0  3  0  0  0  0  0  0
  -16.7410  -28.5140   22.9780 C   0  0  0  0  0  3  0  0  0  0  0  0
  -25.9080  -32.4630   23.8130 C   0  0  0  0  0  3  0  0  0  0  0  0
  -25.5970  -33.8640   24.1360 N   0  0  0  0  0  0  0  0  0  0  0  0
  -25.9190  -34.9130   23.3680 C   0  0  0  0  0  0  0  0  0  0  0  0
  -26.5760  -34.8050   22.3290 O   0  0  0  0  0  0  0  0  0  0  0  0
  -25.0100  -34.0210   24.9430 H   0  0  0  0  0  0  0  0  0  0  0  0
  -24.1750  -36.6970   23.0360 C   0  0  0  0  0  1  0  0  0  0  0  0
  -25.4350  -36.3040   23.8230 C   0  0  0  0  0  3  0  0  0  0  0  0
  -27.5810  -37.2090   24.6000 C   0  0  0  0  0  1  0  0  0  0  0  0
  -26.4610  -37.3610   23.6770 N   0  0  0  0  0  0  0  0  0  0  0  0
  -26.0530  -38.2800   23.8220 H   0  0  0  0  0  0  0  0  0  0  0  0
  -26.4140  -31.6970   25.0960 C   0  0  1  0  0  0  0  0  0  0  0  0
  -25.3130  -31.4670   26.1590 C   0  0  0  0  0  1  0  0  0  0  0  0
  -26.9970  -30.3170   24.7180 C   0  0  0  0  0  1  0  0  0  0  0  0
  -27.5610  -32.4920   25.7620 C   0  0  0  0  0  1  0  0  0  0  0  0
  1  3  2  0
  2  3  2  0
  3 47  1  0
  3 13  1  1
  4 18  1  0
  5 10  1  0
  6  7  1  0
  6  5  1  0
  8  7  1  0
  8 22  1  0
  8  9  1  0
 10  4  1  0
 10  9  1  0
 11  4  2  0
 12 13  1  0
 12 14  2  0
 15 12  1  0
 16 14  1  0
 17 15  2  0
 17 18  1  0
 18 16  1  0
 19 20  2  0
 20 39  1  0
 21 20  1  0
 21 24  1  0
 22 23  1  0
 22 19  1  0
 23 21  2  0
 24 25  1  0
 25 26  2  0
 27 30  1  0
 27 26  1  0
 28 27  2  0
 29 28  1  0
 29 24  2  0
 30 31  1  0
 31 32  1  0
 32 33  2  0
 34 33  1  0
 34 38  1  0
 35 34  2  0
 36 31  2  0
 36 35  1  0
 37 36  1  0
 39 40  1  0
 40 43  1  0
 40 42  1  0
 41 39  2  0
 44 19  1  0
 44 45  1  0
 46 44  1  0
 48 49  1  0
 48 47  2  0
 50 61  2  0
 51 49  1  0
 51 56  1  0
 52 60  1  0
 52 62  1  0
 53 59  1  0
 53 55  1  0
 54 60  1  0
 55 56  2  0
 55 54  1  0
 57 51  2  0
 58 57  1  0
 58 53  2  0
 59 52  1  0
 60 50  1  0
 62 64  2  0
 63 62  1  0
 65 63  1  0
 66 75  2  0
 66 71  1  0
 67 63  1  0
 67 71  1  0
 68 67  1  0
 69 70  1  0
 69 68  1  0
 70 66  1  0
 71 72  2  0
 72 73  1  0
 74 73  2  0
 75 74  1  0
 76 50  1  0
 76 77  1  0
 76 86  1  0
 77 80  1  0
 78 82  1  0
 78 77  1  0
 79 78  2  0
 82 81  1  0
 84 85  1  0
 84 82  1  0
 84 83  1  0
 86 89  1  1
 86 87  1  0
 88 86  1  0
M  ISO  4   4 100  18 100  48 101  49 101
M  END
>  <TORSDO>  (12) 
F 18

>  <SCORE>  (12) 
-14.192

>  <name>  (12) 
12

>  <ligand_id>  (12) 
12

>  <original_smiles>  (12) 
[H]C(=C1C([H])([H])C([H])([H])N(C(=O)N2C([H])([H])C([H])([H])C([H])([H])C([H])(n3nc(-c4c([H])c([H])c(Oc5c([H])c([H])c(F)c([H])c5F)c([H])c4[H])c(C(=O)N([H])[H])c3N([H])[H])C2([H])[H])C([H])([H])C1([H])[H])S(=O)(=O)C([H])([H])C([H])([H])Oc1c([H])c([H])c2c(c1[H])C([H])([H])N(C(=O)C([H])(N([H])C(=O)C([H])(N([H])C([H])([H])[H])C([H])([H])[H])C(C([H])([H])[H])(C([H])([H])[H])C([H])([H])[H])C([H])(C(=O)N([H])C1([H])c3c([H])c([H])c([H])c([H])c3C([H])([H])C([H])([H])C1([H])[H])C2([H])[H]

>  <smiles>  (12) 
[H]C(=C1C([H])([H])C([H])([H])N(C(=O)N2C([H])([H])C([H])([H])C([H])([H])C([H])(n3nc(-c4c([H])c([H])c(Oc5c([H])c([H])c(F)c([H])c5F)c([H])c4[H])c(C(=O)N([H])[H])c3N([H])[H])C2([H])[H])C([H])([H])C1([H])[H])S(=O)(=O)C([H])([H])C([H])([H])Oc1c([H])c([H])c2c(c1[H])C([H])([H])N(C(=O)C([H])(N([H])C(=O)C([H])(N([H])C([H])([H])[H])C([H])([H])[H])C(C([H])([H])[H])(C([H])([H])[H])C([H])([H])[H])C([H])(C(=O)N([H])C1([H])c3c([H])c([H])c([H])c([H])c3C([H])([H])C([H])([H])C1([H])[H])C2([H])[H]

$$$$
13:0:0
     RDKit          3D

 96105  0  0  1  0  0  0  0  0999 V2000
  -29.3750  -21.8930   19.8770 C   0  0  0  0  0  2  0  0  0  0  0  0
  -31.7510  -21.8150   20.5860 C   0  0  0  0  0  2  0  0  0  0  0  0
  -29.5110  -23.4100   19.5800 C   0  0  0  0  0  2  0  0  0  0  0  0
  -31.8920  -23.3170   20.2680 C   0  0  0  0  0  2  0  0  0  0  0  0
  -30.7140  -21.1650   19.6610 C   0  0  0  0  0  3  0  0  0  0  0  0
  -30.6040  -24.0690   20.3570 N   0  0  1  0  0  4  0  0  0  0  0  0
  -30.3330  -24.0490   21.3290 H   0  0  0  0  0  0  0  0  0  0  0  0
  -30.7930  -18.8340   18.6450 C   0  0  0  0  0  3  0  0  0  0  0  0
  -30.7700  -17.4290   18.7360 C   0  0  0  0  0  3  0  0  0  0  0  0
  -30.4480  -19.0000   21.0390 C   0  0  0  0  0  3  0  0  0  0  0  0
  -30.6380  -19.6370   19.7940 C   0  0  0  0  0  0  0  0  0  0  0  0
  -30.4320  -17.5870   21.1430 C   0  0  0  0  0  0  0  0  0  0  0  0
  -30.6040  -16.7810   19.9850 C   0  0  0  0  0  0  0  0  0  0  0  0
  -31.0910  -14.4110   19.3110 C   0  0  0  0  0  0  0  0  0  0  0  0
  -30.6380  -12.2630   18.1900 C   0  0  0  0  0  2  0  0  0  0  0  0
  -29.5020  -12.4720   17.1680 C   0  0  0  0  0  2  0  0  0  0  0  0
  -28.1220  -12.3090   17.8400 C   0  0  0  0  0  2  0  0  0  0  0  0
  -27.9970  -13.1270   19.1520 C   0  0  0  0  0  3  0  0  0  0  0  0
  -29.2240  -12.8900   20.0610 C   0  0  0  0  0  2  0  0  0  0  0  0
  -30.4360  -13.2190   19.2890 N   0  0  0  0  0  0  0  0  0  0  0  0
  -32.0890  -14.6330   18.6170 O   0  0  0  0  0  0  0  0  0  0  0  0
  -30.5330  -15.3540   20.0950 N   0  0  0  0  0  0  0  0  0  0  0  0
  -29.8510  -15.0040   20.7500 H   0  0  0  0  0  0  0  0  0  0  0  0
  -25.7700  -13.7040   20.3110 C   0  0  0  0  0  0  0  0  0  0  0  0
  -24.7760  -12.9150   20.8250 C   0  0  0  0  0  0  0  0  0  0  0  0
  -25.2020  -11.5670   20.6310 C   0  0  0  0  0  0  0  0  0  0  0  0
  -26.7450  -12.8330   19.8470 N   0  0  0  0  0  0  0  0  0  0  0  0
  -26.4150  -11.5390   20.0930 N   0  0  0  0  0  0  0  0  0  0  0  0
  -24.5040  -10.2980   20.8760 C   0  0  0  0  0  0  0  0  0  0  0  0
  -24.9400   -9.3930   21.8680 C   0  0  0  0  0  3  0  0  0  0  0  0
  -24.2400   -8.1880   22.0960 C   0  0  0  0  0  3  0  0  0  0  0  0
  -23.0900   -7.8800   21.3310 C   0  0  0  0  0  0  0  0  0  0  0  0
  -22.6750   -8.7730   20.3280 C   0  0  0  0  0  3  0  0  0  0  0  0
  -23.3740   -9.9690   20.0990 C   0  0  0  0  0  3  0  0  0  0  0  0
  -22.3630   -6.7220   21.4640 O   0  0  0  0  0  0  0  0  0  0  0  0
  -22.1030   -6.1730   22.6940 C   0  0  0  0  0  0  0  0  0  0  0  0
  -21.4560   -6.9030   23.7150 C   0  0  0  0  0  3  0  0  0  0  0  0
  -21.1460   -6.2790   24.9390 C   0  0  0  0  0  3  0  0  0  0  0  0
  -21.4730   -4.9240   25.1410 C   0  0  0  0  0  0  0  0  0  0  0  0
  -22.1140   -4.1950   24.1240 C   0  0  0  0  0  3  0  0  0  0  0  0
  -22.4250   -4.8160   22.9030 C   0  0  0  0  0  0  0  0  0  0  0  0
  -23.0220   -4.1030   21.9190 F   0  0  0  0  0  0  0  0  0  0  0  0
  -21.1700   -4.3210   26.3150 F   0  0  0  0  0  0  0  0  0  0  0  0
  -23.4590  -13.3820   21.3770 C   0  0  0  0  0  0  0  0  0  0  0  0
  -22.9190  -12.6690   22.3580 N   0  0  0  0  0  0  0  0  0  0  0  0
  -22.9250  -14.4130   20.9710 O   0  0  0  0  0  0  0  0  0  0  0  0
  -23.3670  -11.8340   22.7060 H   0  0  0  0  0  0  0  0  0  0  0  0
  -22.0430  -12.9630   22.7690 H   0  0  0  0  0  0  0  0  0  0  0  0
  -25.9170  -15.0810   20.1800 N   0  0  0  0  0  0  0  0  0  0  0  0
  -25.1930  -15.7310   20.4640 H   0  0  0  0  0  0  0  0  0  0  0  0
  -26.7010  -15.5330   19.7260 H   0  0  0  0  0  0  0  0  0  0  0  0
  -28.9830  -16.0950   22.6050 C   0  0  0  0  0  1  0  0  0  0  0  0
  -30.2420  -16.9660   22.5220 C   0  0  0  0  0  2  0  0  0  0  0  0
  -30.8080  -25.5060   19.9820 C   0  0  0  0  0  2  0  0  0  0  0  0
  -29.6210  -26.4520   20.2740 C   0  0  0  0  0  2  0  0  0  0  0  0
  -28.7640  -26.5470   19.1380 O   0  0  0  0  0  0  0  0  0  0  0  0
  -24.8620  -31.3110   22.8010 C   0  0  0  0  0  0  0  0  0  0  0  0
  -27.6060  -27.2790   19.2900 C   0  0  0  0  0  0  0  0  0  0  0  0
  -23.6700  -30.0180   21.0590 C   0  0  0  0  0  3  0  0  0  0  0  0
  -25.1510  -28.6700   19.4760 C   0  0  0  0  0  0  0  0  0  0  0  0
  -26.1730  -30.4930   20.8480 C   0  0  0  0  0  2  0  0  0  0  0  0
  -26.2970  -29.1860   20.0950 C   0  0  0  0  0  0  0  0  0  0  0  0
  -27.5260  -28.4960   20.0100 C   0  0  0  0  0  3  0  0  0  0  0  0
  -26.4480  -26.7830   18.6580 C   0  0  0  0  0  3  0  0  0  0  0  0
  -25.2190  -27.4640   18.7570 C   0  0  0  0  0  3  0  0  0  0  0  0
  -23.8760  -29.4710   19.6210 C   0  0  0  0  0  2  0  0  0  0  0  0
  -24.9210  -30.6170   21.6300 N   0  0  0  0  0  0  0  0  0  0  0  0
  -23.7840  -31.4910   23.3860 O   0  0  0  0  0  0  0  0  0  0  0  0
  -23.0790  -28.8910   21.9350 C   0  0  0  0  0  0  0  0  0  0  0  0
  -21.7570  -28.6780   21.8240 N   0  0  0  0  0  0  0  0  0  0  0  0
  -23.8030  -28.2150   22.6700 O   0  0  0  0  0  0  0  0  0  0  0  0
  -21.2330  -29.2810   21.2060 H   0  0  0  0  0  0  0  0  0  0  0  0
  -18.4330  -27.3450   22.2950 C   0  0  0  0  0  0  0  0  0  0  0  0
  -20.9900  -27.6460   22.5210 C   0  0  0  0  0  3  0  0  0  0  0  0
  -21.1120  -26.2820   21.8060 C   0  0  0  0  0  2  0  0  0  0  0  0
  -19.9890  -26.0280   20.7950 C   0  0  0  0  0  2  0  0  0  0  0  0
  -18.6240  -26.0730   21.4870 C   0  0  0  0  0  2  0  0  0  0  0  0
  -19.5440  -28.0920   22.7670 C   0  0  0  0  0  0  0  0  0  0  0  0
  -19.3110  -29.2860   23.4830 C   0  0  0  0  0  3  0  0  0  0  0  0
  -18.0010  -29.7330   23.7320 C   0  0  0  0  0  3  0  0  0  0  0  0
  -16.9040  -28.9810   23.2770 C   0  0  0  0  0  3  0  0  0  0  0  0
  -17.1210  -27.7890   22.5630 C   0  0  0  0  0  3  0  0  0  0  0  0
  -26.1390  -31.9290   23.4510 C   0  0  0  0  0  3  0  0  0  0  0  0
  -26.7560  -31.0290   24.5910 C   0  0  1  0  0  0  0  0  0  0  0  0
  -25.7300  -30.5910   25.6620 C   0  0  0  0  0  1  0  0  0  0  0  0
  -27.3900  -29.7510   23.9920 C   0  0  0  0  0  1  0  0  0  0  0  0
  -27.8950  -31.7950   25.3050 C   0  0  0  0  0  1  0  0  0  0  0  0
  -25.7740  -33.2520   23.9740 N   0  0  0  0  0  0  0  0  0  0  0  0
  -26.0010  -34.4090   23.3370 C   0  0  0  0  0  0  0  0  0  0  0  0
  -26.6120  -34.4770   22.2670 O   0  0  0  0  0  0  0  0  0  0  0  0
  -25.2200  -33.2690   24.8170 H   0  0  0  0  0  0  0  0  0  0  0  0
  -24.1450  -36.1070   23.3120 C   0  0  0  0  0  1  0  0  0  0  0  0
  -25.4620  -35.6960   23.9910 C   0  0  0  0  0  3  0  0  0  0  0  0
  -27.5870  -36.6220   24.7970 C   0  0  0  0  0  1  0  0  0  0  0  0
  -26.4180  -36.8240   23.9470 N   0  0  0  0  0  0  0  0  0  0  0  0
  -25.9660  -37.6890   24.2310 H   0  0  0  0  0  0  0  0  0  0  0  0
  3  1  1  0
  3  6  1  0
  4  6  1  0
  4  2  1  0
  5 11  1  0
  5  1  1  0
  5  2  1  0
  6  7  1  1
  8  9  2  0
  8 11  1  0
  9 13  1  0
 10 12  1  0
 11 10  2  0
 12 53  1  0
 13 22  1  0
 13 12  2  0
 14 22  1  0
 15 20  1  0
 16 17  1  0
 16 15  1  0
 18 17  1  0
 18 27  1  0
 18 19  1  0
 20 14  1  0
 20 19  1  0
 21 14  2  0
 22 23  1  0
 24 25  2  0
 25 44  1  0
 26 25  1  0
 26 29  1  0
 27 28  1  0
 27 24  1  0
 28 26  2  0
 29 30  1  0
 30 31  2  0
 32 35  1  0
 32 31  1  0
 33 32  2  0
 34 33  1  0
 34 29  2  0
 35 36  1  0
 36 41  2  0
 36 37  1  0
 37 38  2  0
 38 39  1  0
 39 43  1  0
 40 39  2  0
 41 40  1  0
 42 41  1  0
 44 45  1  0
 45 47  1  0
 45 48  1  0
 46 44  2  0
 49 24  1  0
 49 50  1  0
 51 49  1  0
 53 52  1  0
 54 55  1  0
 54  6  1  0
 56 58  1  0
 56 55  1  0
 57 68  2  0
 58 63  1  0
 59 67  1  0
 59 69  1  0
 60 66  1  0
 60 62  1  0
 61 67  1  0
 62 61  1  0
 63 62  2  0
 64 65  1  0
 64 58  2  0
 65 60  2  0
 66 59  1  0
 67 57  1  0
 69 71  2  0
 70 69  1  0
 72 70  1  0
 73 82  2  0
 73 78  1  0
 74 70  1  0
 74 78  1  0
 75 74  1  0
 76 77  1  0
 76 75  1  0
 77 73  1  0
 78 79  2  0
 79 80  1  0
 81 80  2  0
 82 81  1  0
 83 57  1  0
 83 88  1  0
 83 84  1  0
 84 87  1  1
 84 85  1  0
 86 84  1  0
 88 91  1  0
 89 88  1  0
 89 93  1  0
 90 89  2  0
 93 92  1  0
 95 93  1  0
 95 96  1  0
 95 94  1  0
M  ISO  4  14 100  22 100  55 101  56 101
M  END
>  <TORSDO>  (13) 
F 20

>  <SCORE>  (13) 
-7.138

>  <name>  (13) 
13

>  <ligand_id>  (13) 
13

>  <original_smiles>  (13) 
[H]c1c([H])c([H])c2c(c1[H])C([H])([H])C([H])([H])C([H])([H])C2([H])N([H])C(=O)C1([H])N(C(=O)C([H])(N([H])C(=O)C([H])(N([H])C([H])([H])[H])C([H])([H])[H])C(C([H])([H])[H])(C([H])([H])[H])C([H])([H])[H])C([H])([H])c2c([H])c(OC([H])([H])C([H])([H])[N+]3([H])C([H])([H])C([H])([H])C([H])(c4c([H])c([H])c(N([H])C(=O)N5C([H])([H])C([H])([H])C([H])([H])C([H])(n6nc(-c7c([H])c([H])c(Oc8c([H])c([H])c(F)c([H])c8F)c([H])c7[H])c(C(=O)N([H])[H])c6N([H])[H])C5([H])[H])c(C([H])([H])C([H])([H])[H])c4[H])C([H])([H])C3([H])[H])c([H])c([H])c2C1([H])[H]

>  <smiles>  (13) 
[H]c1c([H])c([H])c2c(c1[H])C([H])([H])C([H])([H])C([H])([H])C2([H])N([H])C(=O)C1([H])N(C(=O)C([H])(N([H])C(=O)C([H])(N([H])C([H])([H])[H])C([H])([H])[H])C(C([H])([H])[H])(C([H])([H])[H])C([H])([H])[H])C([H])([H])c2c([H])c(OC([H])([H])C([H])([H])[N+]3([H])C([H])([H])C([H])([H])C([H])(c4c([H])c([H])c(N([H])C(=O)N5C([H])([H])C([H])([H])C([H])([H])C([H])(n6nc(-c7c([H])c([H])c(Oc8c([H])c([H])c(F)c([H])c8F)c([H])c7[H])c(C(=O)N([H])[H])c6N([H])[H])C5([H])[H])c(C([H])([H])C([H])([H])[H])c4[H])C([H])([H])C3([H])[H])c([H])c([H])c2C1([H])[H]

$$$$
14:0:0
     RDKit          3D

 91100  0  0  1  0  0  0  0  0999 V2000
  -28.7940  -21.8690   20.1110 N   0  0  0  0  0  4  0  0  0  0  0  0
  -28.0690  -21.5940   20.7580 H   0  0  0  0  0  0  0  0  0  0  0  0
  -28.3980  -21.7520   19.1910 H   0  0  0  0  0  0  0  0  0  0  0  0
  -30.4620  -15.0850   20.4470 C   0  0  0  0  0  0  0  0  0  0  0  0
  -30.3960  -12.7090   19.5180 C   0  0  0  0  0  2  0  0  0  0  0  0
  -29.4900  -12.6120   18.2710 C   0  0  0  0  0  2  0  0  0  0  0  0
  -28.0160  -12.3860   18.6750 C   0  0  0  0  0  2  0  0  0  0  0  0
  -27.5710  -13.2960   19.8460 C   0  0  0  0  0  3  0  0  0  0  0  0
  -28.6120  -13.3730   20.9800 C   0  0  0  0  0  2  0  0  0  0  0  0
  -29.8740  -13.8170   20.3690 N   0  0  0  0  0  0  0  0  0  0  0  0
  -31.6960  -15.1140   20.3630 O   0  0  0  0  0  0  0  0  0  0  0  0
  -30.3790  -19.9440   17.8940 C   0  0  0  0  0  2  0  0  0  0  0  0
  -30.8100  -21.0220   18.9210 C   0  0  0  0  0  2  0  0  0  0  0  0
  -28.8530  -17.8170   18.3720 C   0  0  0  0  0  2  0  0  0  0  0  0
  -28.8330  -16.4470   19.1320 C   0  0  0  0  0  2  0  0  0  0  0  0
  -29.7190  -17.7290   21.0410 C   0  0  0  0  0  3  0  0  0  0  0  0
  -30.0930  -18.6620   18.6870 C   0  0  0  0  0  3  0  0  0  0  0  0
  -30.0090  -19.0960   20.1290 C   0  0  0  0  0  0  0  0  0  0  0  0
  -29.9720  -20.8080   20.2150 C   0  0  0  0  0  3  0  0  0  0  0  0
  -29.6800  -16.3010   20.3500 N   0  0  0  0  0  0  0  0  0  0  0  0
  -25.1870  -13.8820   20.5640 C   0  0  0  0  0  0  0  0  0  0  0  0
  -24.1170  -13.1060   20.9130 C   0  0  0  0  0  0  0  0  0  0  0  0
  -24.5860  -11.7560   20.8880 C   0  0  0  0  0  0  0  0  0  0  0  0
  -26.2320  -13.0010   20.3300 N   0  0  0  0  0  0  0  0  0  0  0  0
  -25.8810  -11.7180   20.5940 N   0  0  0  0  0  0  0  0  0  0  0  0
  -23.8590  -10.4950   21.0630 C   0  0  0  0  0  0  0  0  0  0  0  0
  -24.2750   -9.5270   22.0040 C   0  0  0  0  0  3  0  0  0  0  0  0
  -23.5460   -8.3320   22.1700 C   0  0  0  0  0  3  0  0  0  0  0  0
  -22.3870   -8.0940   21.3930 C   0  0  0  0  0  0  0  0  0  0  0  0
  -21.9890   -9.0530   20.4450 C   0  0  0  0  0  3  0  0  0  0  0  0
  -22.7180  -10.2400   20.2770 C   0  0  0  0  0  3  0  0  0  0  0  0
  -21.6320   -6.9510   21.4690 O   0  0  0  0  0  0  0  0  0  0  0  0
  -21.5610   -6.2100   22.6210 C   0  0  0  0  0  0  0  0  0  0  0  0
  -21.0940   -6.7610   23.8350 C   0  0  0  0  0  3  0  0  0  0  0  0
  -20.9730   -5.9430   24.9780 C   0  0  0  0  0  3  0  0  0  0  0  0
  -21.3090   -4.5770   24.9060 C   0  0  0  0  0  0  0  0  0  0  0  0
  -21.7640   -4.0280   23.6960 C   0  0  0  0  0  3  0  0  0  0  0  0
  -21.8890   -4.8400   22.5560 C   0  0  0  0  0  0  0  0  0  0  0  0
  -22.3090   -4.2990   21.3880 F   0  0  0  0  0  0  0  0  0  0  0  0
  -21.1820   -3.7920   26.0010 F   0  0  0  0  0  0  0  0  0  0  0  0
  -22.7150  -13.5860   21.1530 C   0  0  0  0  0  0  0  0  0  0  0  0
  -21.9700  -12.9010   22.0140 N   0  0  0  0  0  0  0  0  0  0  0  0
  -22.2890  -14.6090   20.6180 O   0  0  0  0  0  0  0  0  0  0  0  0
  -22.3250  -12.0810   22.4830 H   0  0  0  0  0  0  0  0  0  0  0  0
  -21.0290  -13.2090   22.2110 H   0  0  0  0  0  0  0  0  0  0  0  0
  -25.3450  -15.2560   20.3990 N   0  0  0  0  0  0  0  0  0  0  0  0
  -24.5680  -15.8950   20.5270 H   0  0  0  0  0  0  0  0  0  0  0  0
  -26.1960  -15.7220   20.1140 H   0  0  0  0  0  0  0  0  0  0  0  0
  -29.0810  -23.4330   20.3150 C   0  0  0  0  0  3  0  0  0  0  0  0
  -27.9990  -24.6950   20.0040 C   0  0  0  0  0  3  0  0  0  0  0  0
  -28.2350  -26.2220   20.2360 O   0  0  0  0  0  0  0  0  0  0  0  0
  -24.6200  -31.9130   23.2510 C   0  0  0  0  0  0  0  0  0  0  0  0
  -27.1720  -27.1970   20.1910 C   0  0  0  0  0  0  0  0  0  0  0  0
  -23.4120  -30.5230   21.6150 C   0  0  0  0  0  3  0  0  0  0  0  0
  -24.8480  -28.9490   20.1810 C   0  0  0  0  0  0  0  0  0  0  0  0
  -25.9660  -30.7720   21.4520 C   0  0  0  0  0  2  0  0  0  0  0  0
  -26.0300  -29.3850   20.7930 C   0  0  0  0  0  0  0  0  0  0  0  0
  -27.1910  -28.5250   20.7840 C   0  0  0  0  0  3  0  0  0  0  0  0
  -25.9590  -26.8580   19.5500 C   0  0  0  0  0  3  0  0  0  0  0  0
  -24.8250  -27.6980   19.5480 C   0  0  0  0  0  3  0  0  0  0  0  0
  -23.6240  -29.8520   20.2340 C   0  0  0  0  0  2  0  0  0  0  0  0
  -24.6850  -31.0920   22.1590 N   0  0  0  0  0  0  0  0  0  0  0  0
  -23.5360  -32.2010   23.7800 O   0  0  0  0  0  0  0  0  0  0  0  0
  -22.7340  -29.5140   22.5760 C   0  0  0  0  0  0  0  0  0  0  0  0
  -21.4060  -29.3430   22.4460 N   0  0  0  0  0  0  0  0  0  0  0  0
  -23.4060  -28.8880   23.3990 O   0  0  0  0  0  0  0  0  0  0  0  0
  -20.9230  -29.8900   21.7480 H   0  0  0  0  0  0  0  0  0  0  0  0
  -18.0240  -28.1510   22.9520 C   0  0  0  0  0  0  0  0  0  0  0  0
  -20.5840  -28.4100   23.2200 C   0  0  0  0  0  3  0  0  0  0  0  0
  -20.6860  -26.9760   22.6480 C   0  0  0  0  0  2  0  0  0  0  0  0
  -19.5840  -26.6520   21.6360 C   0  0  0  0  0  2  0  0  0  0  0  0
  -18.2030  -26.8010   22.2770 C   0  0  0  0  0  2  0  0  0  0  0  0
  -19.1440  -28.9130   23.3790 C   0  0  0  0  0  0  0  0  0  0  0  0
  -18.9240  -30.1780   23.9690 C   0  0  0  0  0  3  0  0  0  0  0  0
  -17.6200  -30.6760   24.1380 C   0  0  0  0  0  3  0  0  0  0  0  0
  -16.5150  -29.9100   23.7280 C   0  0  0  0  0  3  0  0  0  0  0  0
  -16.7180  -28.6490   23.1400 C   0  0  0  0  0  3  0  0  0  0  0  0
  -25.9020  -32.5460   23.8750 C   0  0  0  0  0  3  0  0  0  0  0  0
  -25.5940  -33.9450   24.2100 N   0  0  0  0  0  0  0  0  0  0  0  0
  -25.9050  -34.9990   23.4470 C   0  0  0  0  0  0  0  0  0  0  0  0
  -26.5480  -34.8980   22.3980 O   0  0  0  0  0  0  0  0  0  0  0  0
  -25.0270  -34.0990   25.0310 H   0  0  0  0  0  0  0  0  0  0  0  0
  -24.1550  -36.7850   23.1540 C   0  0  0  0  0  1  0  0  0  0  0  0
  -25.4280  -36.3870   23.9200 C   0  0  0  0  0  3  0  0  0  0  0  0
  -27.5820  -37.2850   24.6790 C   0  0  0  0  0  1  0  0  0  0  0  0
  -26.4490  -37.4460   23.7710 N   0  0  0  0  0  0  0  0  0  0  0  0
  -26.0430  -38.3630   23.9330 H   0  0  0  0  0  0  0  0  0  0  0  0
  -26.4170  -31.7770   25.1540 C   0  0  1  0  0  0  0  0  0  0  0  0
  -25.3230  -31.5400   26.2220 C   0  0  0  0  0  1  0  0  0  0  0  0
  -27.0010  -30.3990   24.7700 C   0  0  0  0  0  1  0  0  0  0  0  0
  -27.5710  -32.5690   25.8150 C   0  0  0  0  0  1  0  0  0  0  0  0
  1 49  1  0
  1  2  1  0
  3  1  1  0
  5 10  1  0
  6  7  1  0
  6  5  1  0
  8  7  1  0
  8 24  1  0
  8  9  1  0
 10  4  1  0
 10  9  1  0
 11  4  2  0
 12 13  1  0
 13 19  1  0
 14 17  1  0
 14 15  1  0
 15 20  1  0
 17 12  1  0
 17 18  1  0
 18 19  1  0
 18 16  2  0
 19  1  1  0
 20  4  1  0
 20 16  1  0
 21 22  2  0
 22 41  1  0
 23 22  1  0
 23 26  1  0
 24 21  1  0
 24 25  1  0
 25 23  2  0
 26 27  1  0
 27 28  2  0
 29 32  1  0
 29 28  1  0
 30 29  2  0
 31 30  1  0
 31 26  2  0
 32 33  1  0
 33 34  1  0
 34 35  2  0
 36 35  1  0
 36 40  1  0
 37 36  2  0
 38 33  2  0
 38 37  1  0
 39 38  1  0
 41 42  1  0
 42 45  1  0
 42 44  1  0
 43 41  2  0
 46 47  1  0
 46 21  1  0
 48 46  1  0
 50 51  1  0
 50 49  2  0
 52 63  2  0
 53 51  1  0
 53 58  1  0
 54 62  1  0
 54 64  1  0
 55 61  1  0
 55 57  1  0
 56 62  1  0
 57 56  1  0
 58 57  2  0
 59 53  2  0
 60 59  1  0
 60 55  2  0
 61 54  1  0
 62 52  1  0
 64 66  2  0
 65 64  1  0
 67 65  1  0
 68 77  2  0
 68 73  1  0
 69 65  1  0
 69 73  1  0
 70 69  1  0
 71 72  1  0
 71 70  1  0
 72 68  1  0
 73 74  2  0
 74 75  1  0
 76 75  2  0
 77 76  1  0
 78 52  1  0
 78 79  1  0
 78 88  1  0
 79 82  1  0
 80 84  1  0
 80 79  1  0
 81 80  2  0
 84 83  1  0
 86 84  1  0
 86 87  1  0
 86 85  1  0
 88 91  1  1
 88 89  1  0
 90 88  1  0
M  ISO  4   4 100  20 100  50 101  51 101
M  END
>  <TORSDO>  (14) 
F 18

>  <SCORE>  (14) 
-14.547

>  <name>  (14) 
14

>  <ligand_id>  (14) 
14

>  <original_smiles>  (14) 
[H]c1c([H])c([H])c2c(c1[H])C([H])([H])C([H])([H])C([H])([H])C2([H])N([H])C(=O)C1([H])N(C(=O)C([H])(N([H])C(=O)C([H])(N([H])C([H])([H])[H])C([H])([H])[H])C(C([H])([H])[H])(C([H])([H])[H])C([H])([H])[H])C([H])([H])c2c([H])c(OC([H])([H])C([H])([H])[N+]([H])([H])C3([H])C([H])([H])C([H])([H])C4([H])C([H])([H])C([H])([H])N(C(=O)N5C([H])([H])C([H])([H])C([H])([H])C([H])(n6nc(-c7c([H])c([H])c(Oc8c([H])c([H])c(F)c([H])c8F)c([H])c7[H])c(C(=O)N([H])[H])c6N([H])[H])C5([H])[H])C([H])([H])C43[H])c([H])c([H])c2C1([H])[H]

>  <smiles>  (14) 
[H]c1c([H])c([H])c2c(c1[H])C([H])([H])C([H])([H])C([H])([H])C2([H])N([H])C(=O)C1([H])N(C(=O)C([H])(N([H])C(=O)C([H])(N([H])C([H])([H])[H])C([H])([H])[H])C(C([H])([H])[H])(C([H])([H])[H])C([H])([H])[H])C([H])([H])c2c([H])c(OC([H])([H])C([H])([H])[N+]([H])([H])C3([H])C([H])([H])C([H])([H])C4([H])C([H])([H])C([H])([H])N(C(=O)N5C([H])([H])C([H])([H])C([H])([H])C([H])(n6nc(-c7c([H])c([H])c(Oc8c([H])c([H])c(F)c([H])c8F)c([H])c7[H])c(C(=O)N([H])[H])c6N([H])[H])C5([H])[H])C([H])([H])C43[H])c([H])c([H])c2C1([H])[H]

$$$$
15:0:0
     RDKit          3D

 96106  0  0  1  0  0  0  0  0999 V2000
  -27.7710  -20.1540   20.5890 C   0  0  0  0  0  2  0  0  0  0  0  0
  -28.8610  -19.4260   20.8410 C   0  0  0  0  0  3  0  0  0  0  0  0
  -30.6480  -17.6720   20.6080 C   0  0  0  0  0  0  0  0  0  0  0  0
  -28.0560  -21.6240   20.5040 C   0  0  0  0  0  2  0  0  0  0  0  0
  -31.1250  -19.2440   20.4900 C   0  0  0  0  0  2  0  0  0  0  0  0
  -29.1240  -17.8960   20.5650 C   0  0  0  0  0  3  0  0  0  0  0  0
  -30.0450  -20.3270   21.0790 C   0  0  0  0  0  3  0  0  0  0  0  0
  -31.4760  -16.5830   20.6830 N   0  0  0  0  0  0  0  0  0  0  0  0
  -29.5450  -21.7550   20.4960 N   0  0  2  0  0  4  0  0  0  0  0  0
  -29.8290  -21.7350   19.5260 H   0  0  0  0  0  0  0  0  0  0  0  0
  -31.6460  -15.0830   20.8140 C   0  0  0  0  0  0  0  0  0  0  0  0
  -31.2710  -12.7970   19.7790 C   0  0  0  0  0  2  0  0  0  0  0  0
  -30.4530  -12.7790   18.4750 C   0  0  0  0  0  2  0  0  0  0  0  0
  -28.9780  -12.5580   18.8210 C   0  0  0  0  0  2  0  0  0  0  0  0
  -28.5010  -13.5000   19.9570 C   0  0  0  0  0  3  0  0  0  0  0  0
  -29.4850  -13.5940   21.1520 C   0  0  0  0  0  2  0  0  0  0  0  0
  -30.8080  -13.9640   20.6150 N   0  0  0  0  0  0  0  0  0  0  0  0
  -32.8330  -14.7700   20.7770 O   0  0  0  0  0  0  0  0  0  0  0  0
  -26.0540  -14.0520   20.4420 C   0  0  0  0  0  0  0  0  0  0  0  0
  -24.9700  -13.3190   20.7880 C   0  0  0  0  0  0  0  0  0  0  0  0
  -25.4410  -11.9750   20.8710 C   0  0  0  0  0  0  0  0  0  0  0  0
  -27.1320  -13.1950   20.3670 N   0  0  0  0  0  0  0  0  0  0  0  0
  -26.7600  -11.9280   20.6850 N   0  0  0  0  0  0  0  0  0  0  0  0
  -24.6910  -10.7340   21.0420 C   0  0  0  0  0  0  0  0  0  0  0  0
  -25.0150   -9.8040   22.0540 C   0  0  0  0  0  3  0  0  0  0  0  0
  -24.2560   -8.6260   22.2050 C   0  0  0  0  0  3  0  0  0  0  0  0
  -23.1650   -8.3700   21.3440 C   0  0  0  0  0  0  0  0  0  0  0  0
  -22.8640   -9.2860   20.3220 C   0  0  0  0  0  3  0  0  0  0  0  0
  -23.6230  -10.4560   20.1650 C   0  0  0  0  0  3  0  0  0  0  0  0
  -22.3830   -7.2440   21.4090 O   0  0  0  0  0  0  0  0  0  0  0  0
  -22.1280   -6.6150   22.6010 C   0  0  0  0  0  0  0  0  0  0  0  0
  -21.5190   -7.2890   23.6810 C   0  0  0  0  0  3  0  0  0  0  0  0
  -21.2190   -6.5930   24.8680 C   0  0  0  0  0  3  0  0  0  0  0  0
  -21.5070   -5.2190   24.9690 C   0  0  0  0  0  0  0  0  0  0  0  0
  -22.1050   -4.5430   23.8920 C   0  0  0  0  0  3  0  0  0  0  0  0
  -22.4150   -5.2400   22.7100 C   0  0  0  0  0  0  0  0  0  0  0  0
  -22.9770   -4.5800   21.6690 F   0  0  0  0  0  0  0  0  0  0  0  0
  -21.2050   -4.5450   26.1040 F   0  0  0  0  0  0  0  0  0  0  0  0
  -23.5590  -13.8230   20.8970 C   0  0  0  0  0  0  0  0  0  0  0  0
  -22.7610  -13.2000   21.7500 N   0  0  0  0  0  0  0  0  0  0  0  0
  -23.1720  -14.8060   20.2640 O   0  0  0  0  0  0  0  0  0  0  0  0
  -23.0970  -12.4090   22.2780 H   0  0  0  0  0  0  0  0  0  0  0  0
  -21.8070  -13.5030   21.8820 H   0  0  0  0  0  0  0  0  0  0  0  0
  -26.1780  -15.3730   20.1260 N   0  0  0  0  0  0  0  0  0  0  0  0
  -25.4080  -16.0340   20.1690 H   0  0  0  0  0  0  0  0  0  0  0  0
  -27.0280  -15.8040   19.7990 H   0  0  0  0  0  0  0  0  0  0  0  0
  -28.7120  -17.5320   19.1200 C   0  0  0  0  0  2  0  0  0  0  0  0
  -26.0720  -20.2370   16.9450 C   0  0  0  0  0  3  0  0  0  0  0  0
  -27.4120  -20.0900   16.5450 C   0  0  0  0  0  3  0  0  0  0  0  0
  -25.5860  -19.5170   18.0570 C   0  0  0  0  0  3  0  0  0  0  0  0
  -28.2630  -19.2170   17.2490 C   0  0  0  0  0  3  0  0  0  0  0  0
  -26.4360  -18.6410   18.7670 C   0  0  0  0  0  3  0  0  0  0  0  0
  -27.7850  -18.4930   18.3700 C   0  0  0  0  0  0  0  0  0  0  0  0
  -29.8480  -23.2350   21.0280 C   0  0  0  0  0  3  0  0  0  0  0  0
  -28.9370  -24.5920   20.5200 C   0  0  0  0  0  3  0  0  0  0  0  0
  -29.0440  -26.1070   20.9190 O   0  0  0  0  0  0  0  0  0  0  0  0
  -25.0050  -31.7680   23.4470 C   0  0  0  0  0  0  0  0  0  0  0  0
  -27.9550  -27.0510   20.7520 C   0  0  0  0  0  0  0  0  0  0  0  0
  -23.9870  -30.3080   21.7450 C   0  0  0  0  0  3  0  0  0  0  0  0
  -25.5900  -28.7440   20.4830 C   0  0  0  0  0  0  0  0  0  0  0  0
  -26.5360  -30.6370   21.7910 C   0  0  0  0  0  2  0  0  0  0  0  0
  -26.7050  -29.2320   21.1790 C   0  0  0  0  0  0  0  0  0  0  0  0
  -27.8880  -28.4040   21.2910 C   0  0  0  0  0  3  0  0  0  0  0  0
  -26.8030  -26.6600   20.0290 C   0  0  0  0  0  3  0  0  0  0  0  0
  -25.6560  -27.4740   19.8930 C   0  0  0  0  0  3  0  0  0  0  0  0
  -24.3390  -29.6070   20.4050 C   0  0  0  0  0  2  0  0  0  0  0  0
  -25.1900  -30.9300   22.3830 N   0  0  0  0  0  0  0  0  0  0  0  0
  -23.8710  -32.0350   23.8740 O   0  0  0  0  0  0  0  0  0  0  0  0
  -23.2540  -29.3050   22.6670 C   0  0  0  0  0  0  0  0  0  0  0  0
  -21.9490  -29.0840   22.4190 N   0  0  0  0  0  0  0  0  0  0  0  0
  -23.8630  -28.7240   23.5690 O   0  0  0  0  0  0  0  0  0  0  0  0
  -21.5080  -29.6150   21.6800 H   0  0  0  0  0  0  0  0  0  0  0  0
  -18.5540  -27.8760   22.7050 C   0  0  0  0  0  0  0  0  0  0  0  0
  -21.0890  -28.1390   23.1280 C   0  0  0  0  0  3  0  0  0  0  0  0
  -21.2360  -26.7120   22.5510 C   0  0  0  0  0  2  0  0  0  0  0  0
  -20.1950  -26.3910   21.4720 C   0  0  0  0  0  2  0  0  0  0  0  0
  -18.7760  -26.5370   22.0270 C   0  0  0  0  0  2  0  0  0  0  0  0
  -19.6410  -28.6380   23.2070 C   0  0  0  0  0  0  0  0  0  0  0  0
  -19.3820  -29.8970   23.7950 C   0  0  0  0  0  3  0  0  0  0  0  0
  -18.0670  -30.3890   23.8920 C   0  0  0  0  0  3  0  0  0  0  0  0
  -16.9920  -29.6190   23.4150 C   0  0  0  0  0  3  0  0  0  0  0  0
  -17.2350  -28.3650   22.8260 C   0  0  0  0  0  3  0  0  0  0  0  0
  -26.2070  -32.4530   24.1660 C   0  0  0  0  0  3  0  0  0  0  0  0
  -26.6220  -31.7270   25.5050 C   0  0  1  0  0  0  0  0  0  0  0  0
  -25.4290  -31.4030   26.4340 C   0  0  0  0  0  1  0  0  0  0  0  0
  -27.3500  -30.3970   25.2070 C   0  0  0  0  0  1  0  0  0  0  0  0
  -27.6230  -32.6050   26.2930 C   0  0  0  0  0  1  0  0  0  0  0  0
  -25.8350  -33.8520   24.4350 N   0  0  0  0  0  0  0  0  0  0  0  0
  -26.1840  -34.8970   23.6720 C   0  0  0  0  0  0  0  0  0  0  0  0
  -26.9160  -34.7900   22.6870 O   0  0  0  0  0  0  0  0  0  0  0  0
  -25.1880  -34.0050   25.1940 H   0  0  0  0  0  0  0  0  0  0  0  0
  -24.4150  -36.6190   23.1980 C   0  0  0  0  0  1  0  0  0  0  0  0
  -25.6380  -36.2830   24.0660 C   0  0  0  0  0  3  0  0  0  0  0  0
  -27.7170  -37.2600   24.9410 C   0  0  0  0  0  1  0  0  0  0  0  0
  -26.6420  -37.3660   23.9580 N   0  0  0  0  0  0  0  0  0  0  0  0
  -26.2060  -38.2770   24.0650 H   0  0  0  0  0  0  0  0  0  0  0  0
  2  1  1  0
  2  7  1  0
  3  8  2  0
  4  1  1  0
  5  3  1  0
  6 47  1  0
  6  3  1  0
  6  2  1  0
  7  5  1  0
  8 11  1  0
  9  4  1  0
  9 54  1  0
  9  7  1  0
  9 10  1  6
 12 17  1  0
 13 14  1  0
 13 12  1  0
 15 14  1  0
 15 22  1  0
 15 16  1  0
 17 11  1  0
 17 16  1  0
 18 11  2  0
 19 20  2  0
 20 21  1  0
 20 39  1  0
 21 24  1  0
 22 19  1  0
 22 23  1  0
 23 21  2  0
 24 25  1  0
 25 26  2  0
 27 30  1  0
 27 26  1  0
 28 27  2  0
 29 28  1  0
 29 24  2  0
 30 31  1  0
 31 36  2  0
 31 32  1  0
 32 33  2  0
 33 34  1  0
 34 38  1  0
 35 34  2  0
 36 35  1  0
 37 36  1  0
 39 40  1  0
 40 43  1  0
 40 42  1  0
 41 39  2  0
 44 45  1  0
 44 19  1  0
 46 44  1  0
 48 50  1  0
 49 48  2  0
 49 51  1  0
 50 52  2  0
 51 53  2  0
 53 52  1  0
 53 47  1  0
 55 56  1  0
 55 54  2  0
 57 68  2  0
 58 56  1  0
 58 63  1  0
 59 67  1  0
 59 69  1  0
 60 62  1  0
 61 67  1  0
 62 63  2  0
 62 61  1  0
 64 58  2  0
 65 64  1  0
 65 60  2  0
 66 60  1  0
 66 59  1  0
 67 57  1  0
 69 71  2  0
 70 69  1  0
 72 70  1  0
 73 82  2  0
 73 78  1  0
 74 70  1  0
 74 78  1  0
 75 74  1  0
 76 77  1  0
 76 75  1  0
 77 73  1  0
 78 79  2  0
 79 80  1  0
 81 80  2  0
 82 81  1  0
 83 57  1  0
 83 88  1  0
 83 84  1  0
 84 87  1  1
 84 85  1  0
 86 84  1  0
 88 91  1  0
 89 93  1  0
 89 88  1  0
 90 89  2  0
 93 92  1  0
 95 96  1  0
 95 93  1  0
 95 94  1  0
M  ISO  4   8 100  11 100  55 101  56 101
M  END
>  <TORSDO>  (15) 
F 20

>  <SCORE>  (15) 
-11.896

>  <name>  (15) 
15

>  <ligand_id>  (15) 
15

>  <original_smiles>  (15) 
[H]C1=C2C([H])(C([H])([H])c3c([H])c([H])c([H])c([H])c3[H])C(=NC(=O)N3C([H])([H])C([H])([H])C([H])([H])C([H])(n4nc(-c5c([H])c([H])c(Oc6c([H])c([H])c(F)c([H])c6F)c([H])c5[H])c(C(=O)N([H])[H])c4N([H])[H])C3([H])[H])C([H])([H])C2([H])[N+]([H])(C([H])([H])C([H])([H])Oc2c([H])c([H])c3c(c2[H])C([H])([H])N(C(=O)C([H])(N([H])C(=O)C([H])(N([H])C([H])([H])[H])C([H])([H])[H])C(C([H])([H])[H])(C([H])([H])[H])C([H])([H])[H])C([H])(C(=O)N([H])C2([H])c4c([H])c([H])c([H])c([H])c4C([H])([H])C([H])([H])C2([H])[H])C3([H])[H])C1([H])[H]

>  <smiles>  (15) 
[H]C1=C2C([H])(C([H])([H])c3c([H])c([H])c([H])c([H])c3[H])C(=NC(=O)N3C([H])([H])C([H])([H])C([H])([H])C([H])(n4nc(-c5c([H])c([H])c(Oc6c([H])c([H])c(F)c([H])c6F)c([H])c5[H])c(C(=O)N([H])[H])c4N([H])[H])C3([H])[H])C([H])([H])C2([H])[N+]([H])(C([H])([H])C([H])([H])Oc2c([H])c([H])c3c(c2[H])C([H])([H])N(C(=O)C([H])(N([H])C(=O)C([H])(N([H])C([H])([H])[H])C([H])([H])[H])C(C([H])([H])[H])(C([H])([H])[H])C([H])([H])[H])C([H])(C(=O)N([H])C2([H])c4c([H])c([H])c([H])c([H])c4C([H])([H])C([H])([H])C2([H])[H])C3([H])[H])C1([H])[H]

$$$$
16:0:0
     RDKit          3D

 91100  0  0  1  0  0  0  0  0999 V2000
  -32.0150  -19.7430   18.4220 C   0  0  0  0  0  3  0  0  0  0  0  0
  -31.2170  -20.6030   19.0550 C   0  0  0  0  0  3  0  0  0  0  0  0
  -28.6920  -18.7990   20.3600 C   0  0  0  0  0  0  0  0  0  0  0  0
  -32.0710  -18.3910   19.0920 C   0  0  0  0  0  2  0  0  0  0  0  0
  -30.6010  -20.0180   20.2970 C   0  0  0  0  0  3  0  0  0  0  0  0
  -29.7750  -17.6330   20.0480 C   0  0  0  0  0  3  0  0  0  0  0  0
  -31.0520  -18.4860   20.2650 C   0  0  0  0  0  3  0  0  0  0  0  0
  -29.1330  -20.1350   20.3160 N   0  0  0  0  0  0  0  0  0  0  0  0
  -27.5170  -18.4920   20.5740 O   0  0  0  0  0  0  0  0  0  0  0  0
  -30.4950  -14.9410   20.2830 C   0  0  0  0  0  0  0  0  0  0  0  0
  -30.3690  -12.5870   19.3450 C   0  0  0  0  0  2  0  0  0  0  0  0
  -29.4180  -12.5730   18.1250 C   0  0  0  0  0  2  0  0  0  0  0  0
  -27.9560  -12.3740   18.5650 C   0  0  0  0  0  2  0  0  0  0  0  0
  -27.5780  -13.2650   19.7760 C   0  0  0  0  0  3  0  0  0  0  0  0
  -28.6550  -13.2380   20.8840 C   0  0  0  0  0  2  0  0  0  0  0  0
  -29.9150  -13.6680   20.2690 N   0  0  0  0  0  0  0  0  0  0  0  0
  -31.6640  -15.0190   19.8890 O   0  0  0  0  0  0  0  0  0  0  0  0
  -29.7290  -16.1140   20.5460 N   0  0  0  0  0  0  0  0  0  0  0  0
  -28.8400  -15.8940   20.9670 H   0  0  0  0  0  0  0  0  0  0  0  0
  -25.2090  -13.8470   20.5500 C   0  0  0  0  0  0  0  0  0  0  0  0
  -24.1470  -13.0720   20.9330 C   0  0  0  0  0  0  0  0  0  0  0  0
  -24.6040  -11.7200   20.8790 C   0  0  0  0  0  0  0  0  0  0  0  0
  -26.2430  -12.9660   20.2870 N   0  0  0  0  0  0  0  0  0  0  0  0
  -25.8910  -11.6800   20.5500 N   0  0  0  0  0  0  0  0  0  0  0  0
  -23.8730  -10.4590   21.0670 C   0  0  0  0  0  0  0  0  0  0  0  0
  -24.3220   -9.4770   21.9760 C   0  0  0  0  0  3  0  0  0  0  0  0
  -23.5920   -8.2830   22.1570 C   0  0  0  0  0  3  0  0  0  0  0  0
  -22.4000   -8.0610   21.4260 C   0  0  0  0  0  0  0  0  0  0  0  0
  -21.9690   -9.0350   20.5070 C   0  0  0  0  0  3  0  0  0  0  0  0
  -22.6990  -10.2210   20.3270 C   0  0  0  0  0  3  0  0  0  0  0  0
  -21.6390   -6.9210   21.5200 O   0  0  0  0  0  0  0  0  0  0  0  0
  -21.6210   -6.1560   22.6600 C   0  0  0  0  0  0  0  0  0  0  0  0
  -21.2450   -6.6930   23.9120 C   0  0  0  0  0  3  0  0  0  0  0  0
  -21.1760   -5.8560   25.0420 C   0  0  0  0  0  3  0  0  0  0  0  0
  -21.4680   -4.4830   24.9230 C   0  0  0  0  0  0  0  0  0  0  0  0
  -21.8330   -3.9460   23.6770 C   0  0  0  0  0  3  0  0  0  0  0  0
  -21.9060   -4.7810   22.5470 C   0  0  0  0  0  0  0  0  0  0  0  0
  -22.2400   -4.2540   21.3440 F   0  0  0  0  0  0  0  0  0  0  0  0
  -21.3910   -3.6790   26.0080 F   0  0  0  0  0  0  0  0  0  0  0  0
  -22.7570  -13.5560   21.2270 C   0  0  0  0  0  0  0  0  0  0  0  0
  -22.0330  -12.8590   22.0980 N   0  0  0  0  0  0  0  0  0  0  0  0
  -22.3180  -14.5860   20.7190 O   0  0  0  0  0  0  0  0  0  0  0  0
  -22.4020  -12.0300   22.5370 H   0  0  0  0  0  0  0  0  0  0  0  0
  -21.1010  -13.1650   22.3330 H   0  0  0  0  0  0  0  0  0  0  0  0
  -25.3760  -15.2200   20.3830 N   0  0  0  0  0  0  0  0  0  0  0  0
  -24.6190  -15.8740   20.5400 H   0  0  0  0  0  0  0  0  0  0  0  0
  -26.2110  -15.6640   20.0230 H   0  0  0  0  0  0  0  0  0  0  0  0
  -28.3070  -21.5110   20.3340 C   0  0  0  0  0  2  0  0  0  0  0  0
  -28.8480  -23.1340   20.3600 C   0  0  0  0  0  3  0  0  0  0  0  0
  -27.8470  -24.5080   20.2000 C   0  0  0  0  0  3  0  0  0  0  0  0
  -28.1890  -26.0420   20.2780 O   0  0  0  0  0  0  0  0  0  0  0  0
  -24.6380  -31.8320   23.2250 C   0  0  0  0  0  0  0  0  0  0  0  0
  -27.1670  -27.0660   20.2040 C   0  0  0  0  0  0  0  0  0  0  0  0
  -23.4340  -30.4360   21.5890 C   0  0  0  0  0  3  0  0  0  0  0  0
  -24.8710  -28.8560   20.1630 C   0  0  0  0  0  0  0  0  0  0  0  0
  -25.9920  -30.6800   21.4290 C   0  0  0  0  0  2  0  0  0  0  0  0
  -26.0550  -29.2870   20.7730 C   0  0  0  0  0  0  0  0  0  0  0  0
  -27.2100  -28.4090   20.7700 C   0  0  0  0  0  3  0  0  0  0  0  0
  -25.9570  -26.7540   19.5460 C   0  0  0  0  0  3  0  0  0  0  0  0
  -24.8370  -27.6110   19.5280 C   0  0  0  0  0  3  0  0  0  0  0  0
  -23.6530  -29.7610   20.2090 C   0  0  0  0  0  2  0  0  0  0  0  0
  -24.7070  -31.0090   22.1330 N   0  0  0  0  0  0  0  0  0  0  0  0
  -23.5530  -32.1150   23.7550 O   0  0  0  0  0  0  0  0  0  0  0  0
  -22.7500  -29.4320   22.5550 C   0  0  0  0  0  0  0  0  0  0  0  0
  -21.4210  -29.2660   22.4330 N   0  0  0  0  0  0  0  0  0  0  0  0
  -23.4200  -28.8010   23.3760 O   0  0  0  0  0  0  0  0  0  0  0  0
  -20.9360  -29.8310   21.7500 H   0  0  0  0  0  0  0  0  0  0  0  0
  -18.0340  -28.0710   22.9370 C   0  0  0  0  0  0  0  0  0  0  0  0
  -20.5930  -28.3360   23.2080 C   0  0  0  0  0  3  0  0  0  0  0  0
  -20.6930  -26.8990   22.6430 C   0  0  0  0  0  2  0  0  0  0  0  0
  -19.5950  -26.5690   21.6280 C   0  0  0  0  0  2  0  0  0  0  0  0
  -18.2110  -26.7180   22.2670 C   0  0  0  0  0  2  0  0  0  0  0  0
  -19.1500  -28.8380   23.3630 C   0  0  0  0  0  0  0  0  0  0  0  0
  -18.9270  -30.1020   23.9500 C   0  0  0  0  0  3  0  0  0  0  0  0
  -17.6190  -30.6010   24.1100 C   0  0  0  0  0  3  0  0  0  0  0  0
  -16.5180  -29.8320   23.6950 C   0  0  0  0  0  3  0  0  0  0  0  0
  -16.7250  -28.5670   23.1170 C   0  0  0  0  0  3  0  0  0  0  0  0
  -25.9190  -32.4630   23.8520 C   0  0  0  0  0  3  0  0  0  0  0  0
  -26.4290  -31.6890   25.1300 C   0  0  1  0  0  0  0  0  0  0  0  0
  -25.3330  -31.4590   26.1980 C   0  0  0  0  0  1  0  0  0  0  0  0
  -27.0020  -30.3070   24.7440 C   0  0  0  0  0  1  0  0  0  0  0  0
  -27.5860  -32.4780   25.7890 C   0  0  0  0  0  1  0  0  0  0  0  0
  -25.6060  -33.8620   24.1910 N   0  0  0  0  0  0  0  0  0  0  0  0
  -25.9310  -34.9210   23.4370 C   0  0  0  0  0  0  0  0  0  0  0  0
  -26.5880  -34.8240   22.3970 O   0  0  0  0  0  0  0  0  0  0  0  0
  -25.0210  -34.0090   25.0000 H   0  0  0  0  0  0  0  0  0  0  0  0
  -24.1930  -36.7180   23.1270 C   0  0  0  0  0  1  0  0  0  0  0  0
  -25.4530  -36.3100   23.9090 C   0  0  0  0  0  3  0  0  0  0  0  0
  -27.6070  -37.1950   24.6960 C   0  0  0  0  0  1  0  0  0  0  0  0
  -26.4840  -37.3640   23.7760 N   0  0  0  0  0  0  0  0  0  0  0  0
  -26.0840  -38.2850   23.9320 H   0  0  0  0  0  0  0  0  0  0  0  0
  1  2  2  0
  1  4  1  0
  3  9  2  0
  5  2  1  0
  5  8  1  0
  6  7  1  0
  6  3  1  0
  6 18  1  0
  7  4  1  0
  7  5  1  0
  8 48  1  0
  8  3  1  0
 10 18  1  0
 11 16  1  0
 12 13  1  0
 12 11  1  0
 14 13  1  0
 14 23  1  0
 14 15  1  0
 16 10  1  0
 16 15  1  0
 17 10  2  0
 18 19  1  0
 20 21  2  0
 21 40  1  0
 22 21  1  0
 22 25  1  0
 23 24  1  0
 23 20  1  0
 24 22  2  0
 25 26  1  0
 26 27  2  0
 28 31  1  0
 28 27  1  0
 29 28  2  0
 30 29  1  0
 30 25  2  0
 31 32  1  0
 32 33  1  0
 33 34  2  0
 35 34  1  0
 35 39  1  0
 36 35  2  0
 37 32  2  0
 37 36  1  0
 38 37  1  0
 40 41  1  0
 41 44  1  0
 41 43  1  0
 42 40  2  0
 45 46  1  0
 45 20  1  0
 47 45  1  0
 48 49  1  0
 50 51  1  0
 50 49  2  0
 52 63  2  0
 53 51  1  0
 53 58  1  0
 54 62  1  0
 54 64  1  0
 55 61  1  0
 55 57  1  0
 56 62  1  0
 57 56  1  0
 58 57  2  0
 59 53  2  0
 60 59  1  0
 60 55  2  0
 61 54  1  0
 62 52  1  0
 64 66  2  0
 65 64  1  0
 67 65  1  0
 68 77  2  0
 68 73  1  0
 69 65  1  0
 69 73  1  0
 70 69  1  0
 71 72  1  0
 71 70  1  0
 72 68  1  0
 73 74  2  0
 74 75  1  0
 76 75  2  0
 77 76  1  0
 78 52  1  0
 78 83  1  0
 78 79  1  0
 79 82  1  1
 79 80  1  0
 81 79  1  0
 83 86  1  0
 84 88  1  0
 84 83  1  0
 85 84  2  0
 88 87  1  0
 90 88  1  0
 90 91  1  0
 90 89  1  0
M  ISO  4  10 100  18 100  50 101  51 101
M  END
>  <TORSDO>  (16) 
F 19

>  <SCORE>  (16) 
-15.718

>  <name>  (16) 
16

>  <ligand_id>  (16) 
16

>  <original_smiles>  (16) 
[H]C1=C([H])C2([H])N(C([H])([H])C([H])([H])C([H])([H])Oc3c([H])c([H])c4c(c3[H])C([H])([H])N(C(=O)C([H])(N([H])C(=O)C([H])(N([H])C([H])([H])[H])C([H])([H])[H])C(C([H])([H])[H])(C([H])([H])[H])C([H])([H])[H])C([H])(C(=O)N([H])C3([H])c5c([H])c([H])c([H])c([H])c5C([H])([H])C([H])([H])C3([H])[H])C4([H])[H])C(=O)C([H])(N([H])C(=O)N3C([H])([H])C([H])([H])C([H])([H])C([H])(n4nc(-c5c([H])c([H])c(Oc6c([H])c([H])c(F)c([H])c6F)c([H])c5[H])c(C(=O)N([H])[H])c4N([H])[H])C3([H])[H])C2([H])C1([H])[H]

>  <smiles>  (16) 
[H]C1=C([H])C2([H])N(C([H])([H])C([H])([H])C([H])([H])Oc3c([H])c([H])c4c(c3[H])C([H])([H])N(C(=O)C([H])(N([H])C(=O)C([H])(N([H])C([H])([H])[H])C([H])([H])[H])C(C([H])([H])[H])(C([H])([H])[H])C([H])([H])[H])C([H])(C(=O)N([H])C3([H])c5c([H])c([H])c([H])c([H])c5C([H])([H])C([H])([H])C3([H])[H])C4([H])[H])C(=O)C([H])(N([H])C(=O)N3C([H])([H])C([H])([H])C([H])([H])C([H])(n4nc(-c5c([H])c([H])c(Oc6c([H])c([H])c(F)c([H])c6F)c([H])c5[H])c(C(=O)N([H])[H])c4N([H])[H])C3([H])[H])C2([H])C1([H])[H]

$$$$
17:0:0
     RDKit          3D

 85 90  0  0  1  0  0  0  0  0999 V2000
  -29.2820  -21.4230   19.3260 C   0  0  0  0  0 15  0  0  0  0  0  0
  -30.4580  -16.1000   19.1200 C   0  0  0  0  0  0  0  0  0  0  0  0
  -30.4980  -13.4830   18.2080 C   0  0  0  0  0  2  0  0  0  0  0  0
  -29.4360  -12.9330   17.1970 C   0  0  0  0  0  2  0  0  0  0  0  0
  -28.1580  -12.4830   17.9220 C   0  0  0  0  0  2  0  0  0  0  0  0
  -27.8000  -13.4670   19.0560 C   0  0  0  0  0  3  0  0  0  0  0  0
  -29.0110  -13.8900   19.9360 C   0  0  0  0  0  2  0  0  0  0  0  0
  -29.9530  -14.6710   19.0590 N   0  0  0  0  0  0  0  0  0  0  0  0
  -31.6690  -15.9620   18.8170 O   0  0  0  0  0  0  0  0  0  0  0  0
  -28.6930  -18.1770   21.9990 C   0  0  0  0  0  2  0  0  0  0  0  0
  -28.2820  -17.3690   19.5250 C   0  0  0  0  0  2  0  0  0  0  0  0
  -27.8310  -18.1130   20.7610 C   0  0  0  0  0  3  0  0  0  0  0  0
  -28.6980  -19.3100   20.9940 C   0  0  0  0  0  3  0  0  0  0  0  0
  -29.6580  -19.4180   19.8300 C   0  0  0  0  0  1  0  0  0  0  0  0
  -29.7090  -17.5710   19.3060 N   0  0  0  0  0  2  0  0  0  0  0  0
  -25.6940  -13.9320   20.3930 C   0  0  0  0  0  0  0  0  0  0  0  0
  -24.7020  -13.1410   20.8890 C   0  0  0  0  0  0  0  0  0  0  0  0
  -25.0750  -11.7980   20.5760 C   0  0  0  0  0  0  0  0  0  0  0  0
  -26.6160  -13.0800   19.8150 N   0  0  0  0  0  0  0  0  0  0  0  0
  -26.2680  -11.7750   19.9820 N   0  0  0  0  0  0  0  0  0  0  0  0
  -24.3250  -10.5470   20.7610 C   0  0  0  0  0  0  0  0  0  0  0  0
  -24.8120   -9.5080   21.5830 C   0  0  0  0  0  3  0  0  0  0  0  0
  -24.0580   -8.3280   21.7680 C   0  0  0  0  0  3  0  0  0  0  0  0
  -22.8030   -8.1810   21.1310 C   0  0  0  0  0  0  0  0  0  0  0  0
  -22.3320   -9.2100   20.2970 C   0  0  0  0  0  3  0  0  0  0  0  0
  -23.0860  -10.3810   20.1110 C   0  0  0  0  0  3  0  0  0  0  0  0
  -22.0150   -7.0600   21.2330 O   0  0  0  0  0  0  0  0  0  0  0  0
  -21.9470   -6.3290   22.3920 C   0  0  0  0  0  0  0  0  0  0  0  0
  -21.5170   -6.9010   23.6090 C   0  0  0  0  0  3  0  0  0  0  0  0
  -21.3930   -6.0980   24.7600 C   0  0  0  0  0  3  0  0  0  0  0  0
  -21.6880   -4.7240   24.6970 C   0  0  0  0  0  0  0  0  0  0  0  0
  -22.1080   -4.1490   23.4840 C   0  0  0  0  0  3  0  0  0  0  0  0
  -22.2330   -4.9490   22.3340 C   0  0  0  0  0  0  0  0  0  0  0  0
  -22.6200   -4.3860   21.1640 F   0  0  0  0  0  0  0  0  0  0  0  0
  -21.5610   -3.9510   25.8000 F   0  0  0  0  0  0  0  0  0  0  0  0
  -23.4280  -13.6250   21.5150 C   0  0  0  0  0  0  0  0  0  0  0  0
  -22.8740  -12.8620   22.4490 N   0  0  0  0  0  0  0  0  0  0  0  0
  -22.9440  -14.7150   21.2140 O   0  0  0  0  0  0  0  0  0  0  0  0
  -23.2840  -11.9780   22.7150 H   0  0  0  0  0  0  0  0  0  0  0  0
  -22.0270  -13.1720   22.9080 H   0  0  0  0  0  0  0  0  0  0  0  0
  -25.8610  -15.3110   20.3540 N   0  0  0  0  0  0  0  0  0  0  0  0
  -25.1630  -15.9400   20.7350 H   0  0  0  0  0  0  0  0  0  0  0  0
  -26.5990  -15.7870   19.8570 H   0  0  0  0  0  0  0  0  0  0  0  0
  -28.4940  -23.2860   19.9240 C   0  0  0  0  0 15  0  0  0  0  0  0
  -28.4360  -25.1820   19.8170 O   0  0  0  0  0  1  0  0  0  0  0  0
  -24.6200  -31.5550   22.9120 C   0  0  0  0  0  0  0  0  0  0  0  0
  -27.4080  -26.4470   19.8650 C   0  0  0  0  0  0  0  0  0  0  0  0
  -23.5240  -30.1360   21.2340 C   0  0  0  0  0  3  0  0  0  0  0  0
  -25.0620  -28.5340   19.8230 C   0  0  0  0  0  0  0  0  0  0  0  0
  -26.1090  -30.3270   21.1700 C   0  0  0  0  0  2  0  0  0  0  0  0
  -26.2450  -28.8840   20.4880 C   0  0  0  0  0  0  0  0  0  0  0  0
  -27.3890  -27.8800   20.4620 C   0  0  0  0  0  3  0  0  0  0  0  0
  -26.1690  -26.3680   19.1570 C   0  0  0  0  0  3  0  0  0  0  0  0
  -25.0780  -27.3070   19.1340 C   0  0  0  0  0  3  0  0  0  0  0  0
  -23.8250  -29.4620   19.8600 C   0  0  0  0  0  2  0  0  0  0  0  0
  -24.7770  -30.7110   21.8250 N   0  0  0  0  0  0  0  0  0  0  0  0
  -23.5040  -31.8040   23.4020 O   0  0  0  0  0  0  0  0  0  0  0  0
  -22.8140  -29.1290   22.1820 C   0  0  0  0  0  0  0  0  0  0  0  0
  -21.4820  -28.9640   22.0660 N   0  0  0  0  0  0  0  0  0  0  0  0
  -23.4840  -28.4880   22.9960 O   0  0  0  0  0  0  0  0  0  0  0  0
  -20.9890  -29.5320   21.3910 H   0  0  0  0  0  0  0  0  0  0  0  0
  -18.1140  -27.6900   22.6140 C   0  0  0  0  0  0  0  0  0  0  0  0
  -20.6790  -27.9820   22.8130 C   0  0  0  0  0  3  0  0  0  0  0  0
  -20.7780  -26.5810   22.1670 C   0  0  0  0  0  2  0  0  0  0  0  0
  -19.6520  -26.2950   21.1680 C   0  0  0  0  0  2  0  0  0  0  0  0
  -18.2880  -26.3840   21.8560 C   0  0  0  0  0  2  0  0  0  0  0  0
  -19.2350  -28.4490   23.0480 C   0  0  0  0  0  0  0  0  0  0  0  0
  -19.0130  -29.6660   23.7270 C   0  0  0  0  0  3  0  0  0  0  0  0
  -17.7050  -30.1290   23.9680 C   0  0  0  0  0  3  0  0  0  0  0  0
  -16.6010  -29.3710   23.5430 C   0  0  0  0  0  3  0  0  0  0  0  0
  -16.8070  -28.1520   22.8730 C   0  0  0  0  0  3  0  0  0  0  0  0
  -25.8340  -32.2570   23.5940 C   0  0  0  0  0  3  0  0  0  0  0  0
  -25.4330  -33.6320   23.9650 N   0  0  0  0  0  0  0  0  0  0  0  0
  -25.7230  -34.7400   23.2670 C   0  0  0  0  0  0  0  0  0  0  0  0
  -26.4070  -34.7140   22.2420 O   0  0  0  0  0  0  0  0  0  0  0  0
  -24.8180  -33.7210   24.7600 H   0  0  0  0  0  0  0  0  0  0  0  0
  -23.9100  -36.4740   23.0030 C   0  0  0  0  0  1  0  0  0  0  0  0
  -25.1780  -36.0910   23.7840 C   0  0  0  0  0  3  0  0  0  0  0  0
  -27.2700  -37.0600   24.6400 C   0  0  0  0  0  1  0  0  0  0  0  0
  -26.1600  -37.1970   23.7010 N   0  0  0  0  0  0  0  0  0  0  0  0
  -25.7110  -38.0940   23.8680 H   0  0  0  0  0  0  0  0  0  0  0  0
  -26.3440  -31.4940   24.8800 C   0  0  1  0  0  0  0  0  0  0  0  0
  -25.2300  -31.1970   25.9120 C   0  0  0  0  0  1  0  0  0  0  0  0
  -26.9970  -30.1470   24.5060 C   0  0  0  0  0  1  0  0  0  0  0  0
  -27.4420  -32.3270   25.5830 C   0  0  0  0  0  1  0  0  0  0  0  0
  2 15  1  0
  3  8  1  0
  4  5  1  0
  4  3  1  0
  6  5  1  0
  6 19  1  0
  6  7  1  0
  8  2  1  0
  8  7  1  0
  9  2  2  0
 12 11  1  0
 12 13  1  0
 12 10  1  0
 13 14  1  0
 13 10  1  0
 15 11  1  0
 16 17  2  0
 17 36  1  0
 18 21  1  0
 18 17  1  0
 19 20  1  0
 19 16  1  0
 20 18  2  0
 21 22  1  0
 22 23  2  0
 24 27  1  0
 24 23  1  0
 25 24  2  0
 26 25  1  0
 26 21  2  0
 27 28  1  0
 28 29  1  0
 29 30  2  0
 31 30  1  0
 31 35  1  0
 32 31  2  0
 33 28  2  0
 33 32  1  0
 34 33  1  0
 36 37  1  0
 37 39  1  0
 37 40  1  0
 38 36  2  0
 41 16  1  0
 41 42  1  0
 43 41  1  0
 45 47  1  0
 46 57  2  0
 47 52  1  0
 48 56  1  0
 48 58  1  0
 49 55  1  0
 49 51  1  0
 50 56  1  0
 51 50  1  0
 52 51  2  0
 53 47  2  0
 54 53  1  0
 54 49  2  0
 55 48  1  0
 56 46  1  0
 58 60  2  0
 59 58  1  0
 61 59  1  0
 62 71  2  0
 62 67  1  0
 63 59  1  0
 63 67  1  0
 64 63  1  0
 65 66  1  0
 65 64  1  0
 66 62  1  0
 67 68  2  0
 68 69  1  0
 70 69  2  0
 71 70  1  0
 72 46  1  0
 72 73  1  0
 72 82  1  0
 73 76  1  0
 74 78  1  0
 74 73  1  0
 75 74  2  0
 78 77  1  0
 80 78  1  0
 80 81  1  0
 80 79  1  0
 82 85  1  1
 82 83  1  0
 84 82  1  0
M  ISO  4   2 100  15 100  44 101  45 101
M  END
>  <TORSDO>  (17) 
F 17

>  <SCORE>  (17) 
-9.932

>  <name>  (17) 
17

>  <ligand_id>  (17) 
17

>  <original_smiles>  (17) 
[H]c1c([H])c([H])c2c(c1[H])C([H])([H])C([H])([H])C([H])([H])C2([H])N([H])C(=O)C1([H])N(C(=O)C([H])(N([H])C(=O)C([H])(N([H])C([H])([H])[H])C([H])([H])[H])C(C([H])([H])[H])(C([H])([H])[H])C([H])([H])[H])C([H])([H])c2c([H])c(OC([H])([H])C([H])([H])C3([H])N(C(=O)N4C([H])([H])C([H])([H])C([H])([H])C([H])(n5nc(-c6c([H])c([H])c(Oc7c([H])c([H])c(F)c([H])c7F)c([H])c6[H])c(C(=O)N([H])[H])c5N([H])[H])C4([H])[H])C([H])([H])C4([H])C([H])([H])C34[H])c([H])c([H])c2C1([H])[H]

>  <smiles>  (17) 
[H]c1c([H])c([H])c2c(c1[H])C([H])([H])C([H])([H])C([H])([H])C2([H])N([H])C(=O)C1([H])N(C(=O)C([H])(N([H])C(=O)C([H])(N([H])C([H])([H])[H])C([H])([H])[H])C(C([H])([H])[H])(C([H])([H])[H])C([H])([H])[H])C([H])([H])c2c([H])c(OC([H])([H])C([H])([H])C3([H])N(C(=O)N4C([H])([H])C([H])([H])C([H])([H])C([H])(n5nc(-c6c([H])c([H])c(Oc7c([H])c([H])c(F)c([H])c7F)c([H])c6[H])c(C(=O)N([H])[H])c5N([H])[H])C4([H])[H])C([H])([H])C4([H])C([H])([H])C34[H])c([H])c([H])c2C1([H])[H]

$$$$
18:0:0
     RDKit          3D

 92101  0  0  1  0  0  0  0  0999 V2000
  -28.9750  -20.8890   19.8720 C   0  0  0  0  0  0  0  0  0  0  0  0
  -29.1020  -20.9660   18.6170 N   0  0  0  0  0  0  0  0  0  0  0  0
  -29.2680  -20.0620   18.1910 H   0  0  0  0  0  0  0  0  0  0  0  0
  -30.4370  -15.4510   20.1800 C   0  0  0  0  0  0  0  0  0  0  0  0
  -30.3890  -12.9800   19.3190 C   0  0  0  0  0  2  0  0  0  0  0  0
  -29.4700  -12.7080   18.1030 C   0  0  0  0  0  2  0  0  0  0  0  0
  -28.0410  -12.3930   18.5740 C   0  0  0  0  0  2  0  0  0  0  0  0
  -27.5780  -13.3740   19.6800 C   0  0  0  0  0  3  0  0  0  0  0  0
  -28.6350  -13.6060   20.7810 C   0  0  0  0  0  2  0  0  0  0  0  0
  -29.8310  -14.1470   20.1130 N   0  0  0  0  0  0  0  0  0  0  0  0
  -31.6610  -15.3470   20.0010 O   0  0  0  0  0  0  0  0  0  0  0  0
  -28.8070  -17.7750   19.6550 C   0  0  0  0  0  2  0  0  0  0  0  0
  -30.4300  -18.2180   20.7870 C   0  0  0  0  0  3  0  0  0  0  0  0
  -29.1150  -19.1730   20.5020 C   0  0  0  0  0  3  0  0  0  0  0  0
  -29.8170  -16.8260   20.3760 N   0  0  0  0  0  0  0  0  0  0  0  0
  -34.3940  -19.1510   19.2320 C   0  0  0  0  0  3  0  0  0  0  0  0
  -33.3760  -18.7470   18.3480 C   0  0  0  0  0  3  0  0  0  0  0  0
  -34.1260  -19.2590   20.6070 C   0  0  0  0  0  3  0  0  0  0  0  0
  -32.0880  -18.4470   18.8380 C   0  0  0  0  0  3  0  0  0  0  0  0
  -32.8380  -18.9690   21.0940 C   0  0  0  0  0  3  0  0  0  0  0  0
  -31.8090  -18.5540   20.2180 C   0  0  0  0  0  0  0  0  0  0  0  0
  -25.2240  -13.8940   20.4900 C   0  0  0  0  0  0  0  0  0  0  0  0
  -24.1750  -13.1050   20.8660 C   0  0  0  0  0  0  0  0  0  0  0  0
  -24.6550  -11.7590   20.8200 C   0  0  0  0  0  0  0  0  0  0  0  0
  -26.2690  -13.0320   20.2200 N   0  0  0  0  0  0  0  0  0  0  0  0
  -25.9420  -11.7410   20.4880 N   0  0  0  0  0  0  0  0  0  0  0  0
  -23.9400  -10.4890   21.0130 C   0  0  0  0  0  0  0  0  0  0  0  0
  -24.3850   -9.5220   21.9410 C   0  0  0  0  0  3  0  0  0  0  0  0
  -23.6670   -8.3200   22.1210 C   0  0  0  0  0  3  0  0  0  0  0  0
  -22.4890   -8.0750   21.3750 C   0  0  0  0  0  0  0  0  0  0  0  0
  -22.0620   -9.0330   20.4360 C   0  0  0  0  0  3  0  0  0  0  0  0
  -22.7810  -10.2260   20.2540 C   0  0  0  0  0  3  0  0  0  0  0  0
  -21.7400   -6.9260   21.4660 O   0  0  0  0  0  0  0  0  0  0  0  0
  -21.6990   -6.1860   22.6210 C   0  0  0  0  0  0  0  0  0  0  0  0
  -21.2650   -6.7390   23.8460 C   0  0  0  0  0  3  0  0  0  0  0  0
  -21.1700   -5.9230   24.9910 C   0  0  0  0  0  3  0  0  0  0  0  0
  -21.5000   -4.5570   24.9130 C   0  0  0  0  0  0  0  0  0  0  0  0
  -21.9290   -4.0050   23.6930 C   0  0  0  0  0  3  0  0  0  0  0  0
  -22.0260   -4.8170   22.5500 C   0  0  0  0  0  0  0  0  0  0  0  0
  -22.4190   -4.2750   21.3720 F   0  0  0  0  0  0  0  0  0  0  0  0
  -21.4010   -3.7720   26.0120 F   0  0  0  0  0  0  0  0  0  0  0  0
  -22.7770  -13.5700   21.1500 C   0  0  0  0  0  0  0  0  0  0  0  0
  -22.0590  -12.8690   22.0210 N   0  0  0  0  0  0  0  0  0  0  0  0
  -22.3290  -14.5950   20.6360 O   0  0  0  0  0  0  0  0  0  0  0  0
  -22.4310  -12.0430   22.4660 H   0  0  0  0  0  0  0  0  0  0  0  0
  -21.1230  -13.1710   22.2530 H   0  0  0  0  0  0  0  0  0  0  0  0
  -25.3720  -15.2680   20.3230 N   0  0  0  0  0  0  0  0  0  0  0  0
  -24.6030  -15.9150   20.4700 H   0  0  0  0  0  0  0  0  0  0  0  0
  -26.2210  -15.7180   20.0100 H   0  0  0  0  0  0  0  0  0  0  0  0
  -28.6760  -22.5300   20.6000 C   0  0  0  0  0  2  0  0  0  0  0  0
  -28.0600  -24.1520   19.9520 C   0  0  0  0  0  2  0  0  0  0  0  0
  -28.1440  -25.7890   20.3470 O   0  0  0  0  0  0  0  0  0  0  0  0
  -24.6290  -31.8860   23.2030 C   0  0  0  0  0  0  0  0  0  0  0  0
  -27.1550  -26.9230   20.2260 C   0  0  0  0  0  0  0  0  0  0  0  0
  -23.4310  -30.4810   21.5750 C   0  0  0  0  0  3  0  0  0  0  0  0
  -24.8720  -28.8550   20.1580 C   0  0  0  0  0  0  0  0  0  0  0  0
  -25.9990  -30.6660   21.4320 C   0  0  0  0  0  2  0  0  0  0  0  0
  -26.0610  -29.2450   20.7840 C   0  0  0  0  0  0  0  0  0  0  0  0
  -27.1910  -28.3000   20.7960 C   0  0  0  0  0  3  0  0  0  0  0  0
  -25.9410  -26.7050   19.5360 C   0  0  0  0  0  3  0  0  0  0  0  0
  -24.8400  -27.6070   19.5120 C   0  0  0  0  0  3  0  0  0  0  0  0
  -23.6580  -29.7870   20.2020 C   0  0  0  0  0  2  0  0  0  0  0  0
  -24.7090  -31.0410   22.1230 N   0  0  0  0  0  0  0  0  0  0  0  0
  -23.5410  -32.1840   23.7220 O   0  0  0  0  0  0  0  0  0  0  0  0
  -22.7300  -29.5000   22.5500 C   0  0  0  0  0  0  0  0  0  0  0  0
  -21.3980  -29.3440   22.4330 N   0  0  0  0  0  0  0  0  0  0  0  0
  -23.3930  -28.8770   23.3830 O   0  0  0  0  0  0  0  0  0  0  0  0
  -20.9140  -29.8980   21.7390 H   0  0  0  0  0  0  0  0  0  0  0  0
  -18.0110  -28.1540   22.9620 C   0  0  0  0  0  0  0  0  0  0  0  0
  -20.5720  -28.4170   23.2150 C   0  0  0  0  0  3  0  0  0  0  0  0
  -20.6670  -26.9800   22.6490 C   0  0  0  0  0  2  0  0  0  0  0  0
  -19.5600  -26.6530   21.6410 C   0  0  0  0  0  2  0  0  0  0  0  0
  -18.1810  -26.8020   22.2900 C   0  0  0  0  0  2  0  0  0  0  0  0
  -19.1320  -28.9190   23.3820 C   0  0  0  0  0  0  0  0  0  0  0  0
  -18.9150  -30.1820   23.9740 C   0  0  0  0  0  3  0  0  0  0  0  0
  -17.6110  -30.6820   24.1490 C   0  0  0  0  0  3  0  0  0  0  0  0
  -16.5040  -29.9160   23.7440 C   0  0  0  0  0  3  0  0  0  0  0  0
  -16.7050  -28.6530   23.1570 C   0  0  0  0  0  3  0  0  0  0  0  0
  -25.9020  -32.5310   23.8310 C   0  0  0  0  0  3  0  0  0  0  0  0
  -26.4080  -31.7740   25.1220 C   0  0  1  0  0  0  0  0  0  0  0  0
  -25.3090  -31.5530   26.1900 C   0  0  0  0  0  1  0  0  0  0  0  0
  -26.9870  -30.3880   24.7590 C   0  0  0  0  0  1  0  0  0  0  0  0
  -27.5580  -32.5710   25.7810 C   0  0  0  0  0  1  0  0  0  0  0  0
  -25.5870  -33.9320   24.1620 N   0  0  0  0  0  0  0  0  0  0  0  0
  -25.9150  -34.9930   23.4120 C   0  0  0  0  0  0  0  0  0  0  0  0
  -26.5770  -34.8950   22.3750 O   0  0  0  0  0  0  0  0  0  0  0  0
  -24.9940  -34.0790   24.9650 H   0  0  0  0  0  0  0  0  0  0  0  0
  -24.1880  -36.8010   23.0940 C   0  0  0  0  0  1  0  0  0  0  0  0
  -25.4390  -36.3830   23.8840 C   0  0  0  0  0  3  0  0  0  0  0  0
  -27.5840  -37.2690   24.6920 C   0  0  0  0  0  1  0  0  0  0  0  0
  -26.4730  -37.4350   23.7590 N   0  0  0  0  0  0  0  0  0  0  0  0
  -26.0690  -38.3560   23.9030 H   0  0  0  0  0  0  0  0  0  0  0  0
  1 50  1  0
  2  1  2  0
  3  2  1  0
  4 15  1  0
  5 10  1  0
  6  7  1  0
  6  5  1  0
  8  7  1  0
  8 25  1  0
  8  9  1  0
 10  4  1  0
 10  9  1  0
 11  4  2  0
 12 15  1  0
 12 14  1  0
 13 21  1  0
 14  1  1  0
 14 13  1  0
 15 13  1  0
 16 18  1  0
 17 19  1  0
 17 16  2  0
 18 20  2  0
 19 21  2  0
 21 20  1  0
 22 23  2  0
 23 42  1  0
 24 23  1  0
 24 27  1  0
 25 26  1  0
 25 22  1  0
 26 24  2  0
 27 28  1  0
 28 29  2  0
 30 33  1  0
 30 29  1  0
 31 30  2  0
 32 31  1  0
 32 27  2  0
 33 34  1  0
 34 35  1  0
 35 36  2  0
 37 36  1  0
 37 41  1  0
 38 37  2  0
 39 34  2  0
 39 38  1  0
 40 39  1  0
 42 43  1  0
 43 46  1  0
 43 45  1  0
 44 42  2  0
 47 48  1  0
 47 22  1  0
 49 47  1  0
 51 52  1  0
 51 50  1  0
 53 64  2  0
 54 52  1  0
 54 59  1  0
 55 63  1  0
 55 65  1  0
 56 62  1  0
 56 58  1  0
 57 63  1  0
 58 59  2  0
 58 57  1  0
 60 54  2  0
 61 60  1  0
 61 56  2  0
 62 55  1  0
 63 53  1  0
 65 67  2  0
 66 65  1  0
 68 66  1  0
 69 78  2  0
 69 74  1  0
 70 66  1  0
 70 74  1  0
 71 70  1  0
 72 73  1  0
 72 71  1  0
 73 69  1  0
 74 75  2  0
 75 76  1  0
 77 76  2  0
 78 77  1  0
 79 53  1  0
 79 84  1  0
 79 80  1  0
 80 83  1  1
 80 81  1  0
 82 80  1  0
 84 87  1  0
 85 89  1  0
 85 84  1  0
 86 85  2  0
 89 88  1  0
 91 89  1  0
 91 92  1  0
 91 90  1  0
M  ISO  4   4 100  15 100  51 101  52 101
M  END
>  <TORSDO>  (18) 
F 19

>  <SCORE>  (18) 
-16.497

>  <name>  (18) 
18

>  <ligand_id>  (18) 
18

>  <original_smiles>  (18) 
[H]N=C(C([H])([H])C([H])([H])Oc1c([H])c([H])c2c(c1[H])C([H])([H])N(C(=O)C([H])(N([H])C(=O)C([H])(N([H])C([H])([H])[H])C([H])([H])[H])C(C([H])([H])[H])(C([H])([H])[H])C([H])([H])[H])C([H])(C(=O)N([H])C1([H])c3c([H])c([H])c([H])c([H])c3C([H])([H])C([H])([H])C1([H])[H])C2([H])[H])C1([H])C([H])([H])N(C(=O)N2C([H])([H])C([H])([H])C([H])([H])C([H])(n3nc(-c4c([H])c([H])c(Oc5c([H])c([H])c(F)c([H])c5F)c([H])c4[H])c(C(=O)N([H])[H])c3N([H])[H])C2([H])[H])C1([H])c1c([H])c([H])c([H])c([H])c1[H]

>  <smiles>  (18) 
[H]N=C(C([H])([H])C([H])([H])Oc1c([H])c([H])c2c(c1[H])C([H])([H])N(C(=O)C([H])(N([H])C(=O)C([H])(N([H])C([H])([H])[H])C([H])([H])[H])C(C([H])([H])[H])(C([H])([H])[H])C([H])([H])[H])C([H])(C(=O)N([H])C1([H])c3c([H])c([H])c([H])c([H])c3C([H])([H])C([H])([H])C1([H])[H])C2([H])[H])C1([H])C([H])([H])N(C(=O)N2C([H])([H])C([H])([H])C([H])([H])C([H])(n3nc(-c4c([H])c([H])c(Oc5c([H])c([H])c(F)c([H])c5F)c([H])c4[H])c(C(=O)N([H])[H])c3N([H])[H])C2([H])[H])C1([H])c1c([H])c([H])c([H])c([H])c1[H]

$$$$
19:0:0
     RDKit          3D

 92102  0  0  1  0  0  0  0  0999 V2000
  -28.0650  -21.2200   22.2640 C   0  0  0  0  0  2  0  0  0  0  0  0
  -29.5820  -20.9600   22.1940 C   0  0  0  0  0  2  0  0  0  0  0  0
  -27.7520  -22.3220   21.2380 C   0  0  0  0  0  2  0  0  0  0  0  0
  -30.0060  -21.2740   20.7390 C   0  0  0  0  0  3  0  0  0  0  0  0
  -29.1060  -22.7050   20.6410 C   0  0  0  0  0  3  0  0  0  0  0  0
  -31.1990  -15.7690   20.0290 C   0  0  0  0  0  0  0  0  0  0  0  0
  -31.1170  -13.3680   19.2380 C   0  0  0  0  0  2  0  0  0  0  0  0
  -30.1750  -13.1760   18.0320 C   0  0  0  0  0  2  0  0  0  0  0  0
  -28.7340  -12.9350   18.5210 C   0  0  0  0  0  2  0  0  0  0  0  0
  -28.2960  -13.9520   19.6070 C   0  0  0  0  0  3  0  0  0  0  0  0
  -29.3560  -14.1210   20.7110 C   0  0  0  0  0  2  0  0  0  0  0  0
  -30.5990  -14.5130   20.0380 N   0  0  0  0  0  0  0  0  0  0  0  0
  -32.4270  -15.8000   19.8950 O   0  0  0  0  0  0  0  0  0  0  0  0
  -28.9040  -18.4030   17.0830 C   0  0  0  0  0  2  0  0  0  0  0  0
  -28.5490  -17.3700   18.1530 C   0  0  0  0  0  2  0  0  0  0  0  0
  -30.5050  -19.8840   18.5470 C   0  0  0  0  0  2  0  0  0  0  0  0
  -30.5310  -18.3540   20.5500 C   0  0  0  0  0  2  0  0  0  0  0  0
  -30.2790  -18.5960   17.7470 C   0  0  0  0  0  3  0  0  0  0  0  0
  -29.9030  -19.7960   19.9430 C   0  0  0  0  0  3  0  0  0  0  0  0
  -30.0540  -17.1890   18.3950 C   0  0  0  0  0  3  0  0  0  0  0  0
  -30.4280  -16.9650   19.8210 N   0  0  0  0  0  0  0  0  0  0  0  0
  -25.9620  -14.5540   20.4670 C   0  0  0  0  0  0  0  0  0  0  0  0
  -24.8860  -13.7850   20.8140 C   0  0  0  0  0  0  0  0  0  0  0  0
  -25.3180  -12.4290   20.6960 C   0  0  0  0  0  0  0  0  0  0  0  0
  -26.9740  -13.6640   20.1430 N   0  0  0  0  0  0  0  0  0  0  0  0
  -26.5980  -12.3780   20.3520 N   0  0  0  0  0  0  0  0  0  0  0  0
  -24.5700  -11.1750   20.8370 C   0  0  0  0  0  0  0  0  0  0  0  0
  -24.9360  -10.1980   21.7890 C   0  0  0  0  0  3  0  0  0  0  0  0
  -24.1890   -9.0090   21.9190 C   0  0  0  0  0  3  0  0  0  0  0  0
  -23.0590   -8.7880   21.0980 C   0  0  0  0  0  0  0  0  0  0  0  0
  -22.7130   -9.7510   20.1340 C   0  0  0  0  0  3  0  0  0  0  0  0
  -23.4610  -10.9320   20.0020 C   0  0  0  0  0  3  0  0  0  0  0  0
  -22.2900   -7.6500   21.1350 O   0  0  0  0  0  0  0  0  0  0  0  0
  -22.0410   -6.9890   22.3100 C   0  0  0  0  0  0  0  0  0  0  0  0
  -21.4030   -7.6210   23.4020 C   0  0  0  0  0  3  0  0  0  0  0  0
  -21.1030   -6.8830   24.5650 C   0  0  0  0  0  3  0  0  0  0  0  0
  -21.4320   -5.5160   24.6370 C   0  0  0  0  0  0  0  0  0  0  0  0
  -22.0610   -4.8850   23.5500 C   0  0  0  0  0  3  0  0  0  0  0  0
  -22.3620   -5.6190   22.3900 C   0  0  0  0  0  0  0  0  0  0  0  0
  -22.9510   -5.0010   21.3380 F   0  0  0  0  0  0  0  0  0  0  0  0
  -21.1370   -4.8070   25.7510 F   0  0  0  0  0  0  0  0  0  0  0  0
  -23.5080  -14.2790   21.1450 C   0  0  0  0  0  0  0  0  0  0  0  0
  -22.7950  -13.5670   22.0100 N   0  0  0  0  0  0  0  0  0  0  0  0
  -23.0750  -15.3290   20.6730 O   0  0  0  0  0  0  0  0  0  0  0  0
  -23.1610  -12.7230   22.4240 H   0  0  0  0  0  0  0  0  0  0  0  0
  -21.8710  -13.8790   22.2670 H   0  0  0  0  0  0  0  0  0  0  0  0
  -26.1570  -15.9270   20.3710 N   0  0  0  0  0  0  0  0  0  0  0  0
  -25.4230  -16.5930   20.5840 H   0  0  0  0  0  0  0  0  0  0  0  0
  -27.0300  -16.3650   20.1040 H   0  0  0  0  0  0  0  0  0  0  0  0
  -29.0730  -24.0520   19.6600 C   0  0  0  0  0  3  0  0  0  0  0  0
  -28.2470  -25.4390   20.1170 C   0  0  0  0  0  3  0  0  0  0  0  0
  -28.3010  -26.8610   19.5160 O   0  0  0  0  0  0  0  0  0  0  0  0
  -24.5080  -31.9970   23.1460 C   0  0  0  0  0  0  0  0  0  0  0  0
  -27.1820  -27.7490   19.6220 C   0  0  0  0  0  0  0  0  0  0  0  0
  -23.3030  -30.6760   21.4450 C   0  0  0  0  0  3  0  0  0  0  0  0
  -24.7590  -29.3240   19.8230 C   0  0  0  0  0  0  0  0  0  0  0  0
  -25.8190  -31.1260   21.1730 C   0  0  0  0  0  2  0  0  0  0  0  0
  -25.9390  -29.7960   20.4160 C   0  0  0  0  0  0  0  0  0  0  0  0
  -27.1500  -29.0270   20.2950 C   0  0  0  0  0  3  0  0  0  0  0  0
  -25.9760  -27.3650   18.9940 C   0  0  0  0  0  3  0  0  0  0  0  0
  -24.7910  -28.1250   19.0930 C   0  0  0  0  0  3  0  0  0  0  0  0
  -23.4870  -30.1350   20.0010 C   0  0  0  0  0  2  0  0  0  0  0  0
  -24.5670  -31.2830   21.9800 N   0  0  0  0  0  0  0  0  0  0  0  0
  -23.4370  -32.1700   23.7460 O   0  0  0  0  0  0  0  0  0  0  0  0
  -22.7350  -29.5510   22.3450 C   0  0  0  0  0  0  0  0  0  0  0  0
  -21.4230  -29.2780   22.2340 N   0  0  0  0  0  0  0  0  0  0  0  0
  -23.4770  -28.9300   23.1110 O   0  0  0  0  0  0  0  0  0  0  0  0
  -20.8760  -29.8390   21.5960 H   0  0  0  0  0  0  0  0  0  0  0  0
  -18.1690  -27.7520   22.6850 C   0  0  0  0  0  0  0  0  0  0  0  0
  -20.6980  -28.2240   22.9490 C   0  0  0  0  0  3  0  0  0  0  0  0
  -20.9190  -26.8430   22.2870 C   0  0  0  0  0  2  0  0  0  0  0  0
  -19.8380  -26.4880   21.2620 C   0  0  0  0  0  2  0  0  0  0  0  0
  -18.4570  -26.4680   21.9220 C   0  0  0  0  0  2  0  0  0  0  0  0
  -19.2210  -28.5840   23.1530 C   0  0  0  0  0  0  0  0  0  0  0  0
  -18.8940  -29.7800   23.8270 C   0  0  0  0  0  3  0  0  0  0  0  0
  -17.5520  -30.1490   24.0360 C   0  0  0  0  0  3  0  0  0  0  0  0
  -16.5170  -29.3150   23.5830 C   0  0  0  0  0  3  0  0  0  0  0  0
  -16.8250  -28.1170   22.9140 C   0  0  0  0  0  3  0  0  0  0  0  0
  -25.7800  -32.6540   23.7650 C   0  0  0  0  0  3  0  0  0  0  0  0
  -25.4390  -34.0380   24.1320 N   0  0  0  0  0  0  0  0  0  0  0  0
  -25.7410  -35.1190   23.3990 C   0  0  0  0  0  0  0  0  0  0  0  0
  -26.4050  -35.0570   22.3600 O   0  0  0  0  0  0  0  0  0  0  0  0
  -24.8540  -34.1570   24.9460 H   0  0  0  0  0  0  0  0  0  0  0  0
  -23.9740  -36.8870   23.1080 C   0  0  0  0  0  1  0  0  0  0  0  0
  -25.2300  -36.4840   23.8960 C   0  0  0  0  0  3  0  0  0  0  0  0
  -27.3500  -37.3990   24.7370 C   0  0  0  0  0  1  0  0  0  0  0  0
  -26.2400  -37.5610   23.8010 N   0  0  0  0  0  0  0  0  0  0  0  0
  -25.8130  -38.4680   23.9720 H   0  0  0  0  0  0  0  0  0  0  0  0
  -26.3340  -31.8700   25.0180 C   0  0  1  0  0  0  0  0  0  0  0  0
  -25.2610  -31.5680   26.0920 C   0  0  0  0  0  1  0  0  0  0  0  0
  -26.9590  -30.5240   24.5830 C   0  0  0  0  0  1  0  0  0  0  0  0
  -27.4650  -32.6870   25.6890 C   0  0  0  0  0  1  0  0  0  0  0  0
  2  1  1  0
  3  1  1  0
  4  2  1  0
  5 50  1  0
  5  4  1  0
  5  3  1  0
  6 12  1  0
  7 12  1  0
  8  9  1  0
  8  7  1  0
 10  9  1  0
 10 25  1  0
 10 11  1  0
 12 11  1  0
 13  6  2  0
 14 15  1  0
 18 14  1  0
 18 20  1  0
 18 16  1  0
 19 16  1  0
 19 17  1  0
 19  4  1  0
 20 15  1  0
 20 21  1  0
 21  6  1  0
 21 17  1  0
 22 23  2  0
 23 42  1  0
 24 23  1  0
 24 27  1  0
 25 26  1  0
 25 22  1  0
 26 24  2  0
 27 28  1  0
 28 29  2  0
 30 33  1  0
 30 29  1  0
 31 30  2  0
 32 31  1  0
 32 27  2  0
 33 34  1  0
 34 39  2  0
 34 35  1  0
 35 36  2  0
 36 37  1  0
 37 41  1  0
 38 37  2  0
 39 38  1  0
 40 39  1  0
 42 43  1  0
 43 46  1  0
 43 45  1  0
 44 42  2  0
 47 22  1  0
 47 48  1  0
 49 47  1  0
 50 51  2  0
 52 54  1  0
 52 51  1  0
 53 64  2  0
 54 59  1  0
 55 63  1  0
 55 65  1  0
 56 62  1  0
 56 58  1  0
 57 63  1  0
 58 57  1  0
 59 58  2  0
 60 61  1  0
 60 54  2  0
 61 56  2  0
 62 55  1  0
 63 53  1  0
 65 67  2  0
 66 65  1  0
 68 66  1  0
 69 78  2  0
 69 74  1  0
 70 66  1  0
 70 74  1  0
 71 70  1  0
 72 73  1  0
 72 71  1  0
 73 69  1  0
 74 75  2  0
 75 76  1  0
 77 76  2  0
 78 77  1  0
 79 53  1  0
 79 80  1  0
 79 89  1  0
 80 83  1  0
 81 85  1  0
 81 80  1  0
 82 81  2  0
 85 84  1  0
 87 85  1  0
 87 88  1  0
 87 86  1  0
 89 92  1  1
 89 90  1  0
 91 89  1  0
M  ISO  4   6 100  21 100  51 101  52 101
M  END
>  <TORSDO>  (19) 
F 18

>  <SCORE>  (19) 
-11.314

>  <name>  (19) 
19

>  <ligand_id>  (19) 
19

>  <original_smiles>  (19) 
[H]c1c([H])c([H])c2c(c1[H])C([H])([H])C([H])([H])C([H])([H])C2([H])N([H])C(=O)C1([H])N(C(=O)C([H])(N([H])C(=O)C([H])(N([H])C([H])([H])[H])C([H])([H])[H])C(C([H])([H])[H])(C([H])([H])[H])C([H])([H])[H])C([H])([H])c2c([H])c(OC([H])([H])C([H])([H])C3([H])C([H])([H])C([H])([H])C([H])([H])C3([H])C3([H])C([H])([H])N(C(=O)N4C([H])([H])C([H])([H])C([H])([H])C([H])(n5nc(-c6c([H])c([H])c(Oc7c([H])c([H])c(F)c([H])c7F)c([H])c6[H])c(C(=O)N([H])[H])c5N([H])[H])C4([H])[H])C4([H])C([H])([H])C([H])([H])C4([H])C3([H])[H])c([H])c([H])c2C1([H])[H]

>  <smiles>  (19) 
[H]c1c([H])c([H])c2c(c1[H])C([H])([H])C([H])([H])C([H])([H])C2([H])N([H])C(=O)C1([H])N(C(=O)C([H])(N([H])C(=O)C([H])(N([H])C([H])([H])[H])C([H])([H])[H])C(C([H])([H])[H])(C([H])([H])[H])C([H])([H])[H])C([H])([H])c2c([H])c(OC([H])([H])C([H])([H])C3([H])C([H])([H])C([H])([H])C([H])([H])C3([H])C3([H])C([H])([H])N(C(=O)N4C([H])([H])C([H])([H])C([H])([H])C([H])(n5nc(-c6c([H])c([H])c(Oc7c([H])c([H])c(F)c([H])c7F)c([H])c6[H])c(C(=O)N([H])[H])c5N([H])[H])C4([H])[H])C4([H])C([H])([H])C([H])([H])C4([H])C3([H])[H])c([H])c([H])c2C1([H])[H]

$$$$
20:0:0
     RDKit          3D

101110  0  0  1  0  0  0  0  0999 V2000
  -30.3050  -19.5300   22.5600 C   0  0  0  0  0  3  0  0  0  0  0  0
  -30.6090  -18.3790   21.8050 C   0  0  0  0  0  3  0  0  0  0  0  0
  -29.1720  -19.1900   20.0180 C   0  0  0  0  0  3  0  0  0  0  0  0
  -28.8660  -20.3480   20.7660 C   0  0  0  0  0  0  0  0  0  0  0  0
  -29.4340  -20.5240   22.0540 C   0  0  0  0  0  0  0  0  0  0  0  0
  -30.0540  -18.2100   20.5200 C   0  0  0  0  0  0  0  0  0  0  0  0
  -27.9130  -21.3250   20.1850 C   0  0  0  0  0  0  0  0  0  0  0  0
  -29.0900  -21.7200   22.9450 C   0  0  0  0  0  2  0  0  0  0  0  0
  -28.4330  -22.7520   20.0200 C   0  0  0  0  0  2  0  0  0  0  0  0
  -29.3360  -23.1110   22.3250 C   0  0  0  0  0  2  0  0  0  0  0  0
  -28.3210  -23.4950   21.3010 N   0  0  1  0  0  4  0  0  0  0  0  0
  -26.7850  -21.0240   19.7860 O   0  0  0  0  0  0  0  0  0  0  0  0
  -27.4370  -23.2030   21.6960 H   0  0  0  0  0  0  0  0  0  0  0  0
  -28.1730  -24.9750   21.1230 C   0  0  0  0  0  2  0  0  0  0  0  0
  -28.9950  -25.5910   19.9560 C   0  0  0  0  0  2  0  0  0  0  0  0
  -28.9130  -27.0200   19.9070 O   0  0  0  0  0  0  0  0  0  0  0  0
  -24.6150  -31.6900   23.0440 C   0  0  0  0  0  0  0  0  0  0  0  0
  -27.6730  -27.6180   19.8610 C   0  0  0  0  0  0  0  0  0  0  0  0
  -23.5600  -30.2730   21.3100 C   0  0  0  0  0  3  0  0  0  0  0  0
  -25.1630  -28.9220   19.8580 C   0  0  0  0  0  0  0  0  0  0  0  0
  -26.0490  -30.8430   21.1920 C   0  0  0  0  0  2  0  0  0  0  0  0
  -26.2580  -29.5140   20.4980 C   0  0  0  0  0  0  0  0  0  0  0  0
  -27.5150  -28.8720   20.4900 C   0  0  0  0  0  3  0  0  0  0  0  0
  -26.5580  -27.0380   19.2090 C   0  0  0  0  0  3  0  0  0  0  0  0
  -25.3080  -27.6840   19.2090 C   0  0  0  0  0  3  0  0  0  0  0  0
  -23.8560  -29.6770   19.9070 C   0  0  0  0  0  2  0  0  0  0  0  0
  -24.7570  -30.9470   21.9100 N   0  0  0  0  0  0  0  0  0  0  0  0
  -23.5050  -31.8500   23.5700 O   0  0  0  0  0  0  0  0  0  0  0  0
  -22.9700  -29.1630   22.2090 C   0  0  0  0  0  0  0  0  0  0  0  0
  -21.6510  -28.9360   22.0930 N   0  0  0  0  0  0  0  0  0  0  0  0
  -23.6960  -28.5110   22.9640 O   0  0  0  0  0  0  0  0  0  0  0  0
  -21.1260  -29.5190   21.4560 H   0  0  0  0  0  0  0  0  0  0  0  0
  -18.3290  -27.6160   22.6020 C   0  0  0  0  0  0  0  0  0  0  0  0
  -20.8880  -27.9160   22.8100 C   0  0  0  0  0  3  0  0  0  0  0  0
  -21.0030  -26.5410   22.1110 C   0  0  0  0  0  2  0  0  0  0  0  0
  -19.8730  -26.2760   21.1110 C   0  0  0  0  0  2  0  0  0  0  0  0
  -18.5130  -26.3310   21.8120 C   0  0  0  0  0  2  0  0  0  0  0  0
  -19.4440  -28.3690   23.0570 C   0  0  0  0  0  0  0  0  0  0  0  0
  -19.2180  -29.5750   23.7560 C   0  0  0  0  0  3  0  0  0  0  0  0
  -17.9090  -30.0280   24.0050 C   0  0  0  0  0  3  0  0  0  0  0  0
  -16.8090  -29.2700   23.5670 C   0  0  0  0  0  3  0  0  0  0  0  0
  -17.0190  -28.0660   22.8710 C   0  0  0  0  0  3  0  0  0  0  0  0
  -25.8350  -32.3900   23.7210 C   0  0  0  0  0  3  0  0  0  0  0  0
  -25.4270  -33.7590   24.0560 N   0  0  0  0  0  0  0  0  0  0  0  0
  -25.7240  -34.8410   23.3210 C   0  0  0  0  0  0  0  0  0  0  0  0
  -26.4390  -34.7920   22.3180 O   0  0  0  0  0  0  0  0  0  0  0  0
  -24.7940  -33.8640   24.8340 H   0  0  0  0  0  0  0  0  0  0  0  0
  -23.8980  -36.5210   22.9190 C   0  0  0  0  0  1  0  0  0  0  0  0
  -25.1330  -36.1900   23.7730 C   0  0  0  0  0  3  0  0  0  0  0  0
  -27.1720  -37.2030   24.6930 C   0  0  0  0  0  1  0  0  0  0  0  0
  -26.0980  -37.3100   23.7080 N   0  0  0  0  0  0  0  0  0  0  0  0
  -25.6270  -38.2000   23.8440 H   0  0  0  0  0  0  0  0  0  0  0  0
  -26.3480  -31.6310   25.0060 C   0  0  1  0  0  0  0  0  0  0  0  0
  -25.2350  -31.3190   26.0330 C   0  0  0  0  0  1  0  0  0  0  0  0
  -27.0170  -30.2920   24.6170 C   0  0  0  0  0  1  0  0  0  0  0  0
  -27.4310  -32.4770   25.7170 C   0  0  0  0  0  1  0  0  0  0  0  0
  -30.4140  -17.0170   19.6410 C   0  0  0  0  0  3  0  0  0  0  0  0
  -31.3500  -14.6970   20.0290 C   0  0  0  0  0  0  0  0  0  0  0  0
  -30.9290  -12.5640   18.9080 C   0  0  0  0  0  2  0  0  0  0  0  0
  -29.9430  -12.8430   17.7540 C   0  0  0  0  0  2  0  0  0  0  0  0
  -28.4840  -12.7620   18.2480 C   0  0  0  0  0  2  0  0  0  0  0  0
  -28.2390  -13.5860   19.5400 C   0  0  0  0  0  3  0  0  0  0  0  0
  -29.3350  -13.3010   20.5960 C   0  0  0  0  0  2  0  0  0  0  0  0
  -30.6500  -13.5360   19.9750 N   0  0  0  0  0  0  0  0  0  0  0  0
  -32.4760  -14.8300   19.5440 O   0  0  0  0  0  0  0  0  0  0  0  0
  -30.6030  -15.7540   20.3820 N   0  0  0  0  0  0  0  0  0  0  0  0
  -29.7900  -15.4850   20.9140 H   0  0  0  0  0  0  0  0  0  0  0  0
  -25.9230  -14.2780   20.4260 C   0  0  0  0  0  0  0  0  0  0  0  0
  -24.8320  -13.5420   20.8050 C   0  0  0  0  0  0  0  0  0  0  0  0
  -25.2090  -12.1730   20.6570 C   0  0  0  0  0  0  0  0  0  0  0  0
  -26.8990  -13.3580   20.0770 N   0  0  0  0  0  0  0  0  0  0  0  0
  -26.4760  -12.0830   20.2710 N   0  0  0  0  0  0  0  0  0  0  0  0
  -24.4220  -10.9440   20.8080 C   0  0  0  0  0  0  0  0  0  0  0  0
  -24.8370   -9.9010   21.6650 C   0  0  0  0  0  3  0  0  0  0  0  0
  -24.0540   -8.7350   21.8080 C   0  0  0  0  0  3  0  0  0  0  0  0
  -22.8410   -8.6030   21.0920 C   0  0  0  0  0  0  0  0  0  0  0  0
  -22.4430   -9.6330   20.2220 C   0  0  0  0  0  3  0  0  0  0  0  0
  -23.2260  -10.7920   20.0790 C   0  0  0  0  0  3  0  0  0  0  0  0
  -22.0300   -7.4950   21.1450 O   0  0  0  0  0  0  0  0  0  0  0  0
  -21.9380   -6.7240   22.2750 C   0  0  0  0  0  0  0  0  0  0  0  0
  -21.5490   -7.2700   23.5180 C   0  0  0  0  0  3  0  0  0  0  0  0
  -21.4000   -6.4290   24.6380 C   0  0  0  0  0  3  0  0  0  0  0  0
  -21.6290   -5.0450   24.5170 C   0  0  0  0  0  0  0  0  0  0  0  0
  -22.0110   -4.5010   23.2790 C   0  0  0  0  0  3  0  0  0  0  0  0
  -22.1630   -5.3370   22.1600 C   0  0  0  0  0  0  0  0  0  0  0  0
  -22.5100   -4.8040   20.9640 F   0  0  0  0  0  0  0  0  0  0  0  0
  -21.4780   -4.2360   25.5920 F   0  0  0  0  0  0  0  0  0  0  0  0
  -23.4840  -14.0760   21.1920 C   0  0  0  0  0  0  0  0  0  0  0  0
  -22.7820  -13.3850   22.0820 N   0  0  0  0  0  0  0  0  0  0  0  0
  -23.0660  -15.1410   20.7410 O   0  0  0  0  0  0  0  0  0  0  0  0
  -23.1330  -12.5220   22.4710 H   0  0  0  0  0  0  0  0  0  0  0  0
  -21.8790  -13.7270   22.3810 H   0  0  0  0  0  0  0  0  0  0  0  0
  -26.1550  -15.6460   20.3310 N   0  0  0  0  0  0  0  0  0  0  0  0
  -25.4300  -16.3240   20.5350 H   0  0  0  0  0  0  0  0  0  0  0  0
  -27.0040  -16.0710   19.9820 H   0  0  0  0  0  0  0  0  0  0  0  0
  -31.4750  -17.3910   18.5660 C   0  0  0  0  0  2  0  0  0  0  0  0
  -32.7480  -18.0860   19.0980 C   0  0  0  0  0  2  0  0  0  0  0  0
  -33.7900  -18.2340   18.0640 N   0  0  0  0  0  4  0  0  0  0  0  0
  -33.4670  -18.7970   17.2990 H   0  0  0  0  0  0  0  0  0  0  0  0
  -34.0800  -17.3400   17.7100 H   0  0  0  0  0  0  0  0  0  0  0  0
  -34.5970  -18.6830   18.4580 H   0  0  0  0  0  0  0  0  0  0  0  0
  2  1  2  0
  3  6  2  0
  3  4  1  0
  4  5  2  0
  5  1  1  0
  5  8  1  0
  6  2  1  0
  7  4  1  0
  9  7  1  0
  9 11  1  0
 10  8  1  0
 11 13  1  1
 11 10  1  0
 12  7  2  0
 14 11  1  0
 15 14  1  0
 16 15  1  0
 17 28  2  0
 18 16  1  0
 18 23  1  0
 19 27  1  0
 19 29  1  0
 20 26  1  0
 20 22  1  0
 21 27  1  0
 22 21  1  0
 23 22  2  0
 24 18  2  0
 25 24  1  0
 25 20  2  0
 26 19  1  0
 27 17  1  0
 29 31  2  0
 30 29  1  0
 32 30  1  0
 33 42  2  0
 33 38  1  0
 34 30  1  0
 34 38  1  0
 35 34  1  0
 36 37  1  0
 36 35  1  0
 37 33  1  0
 38 39  2  0
 39 40  1  0
 41 40  2  0
 42 41  1  0
 43 17  1  0
 43 44  1  0
 43 53  1  0
 44 47  1  0
 45 49  1  0
 45 44  1  0
 46 45  2  0
 49 48  1  0
 51 49  1  0
 51 52  1  0
 51 50  1  0
 53 56  1  1
 53 54  1  0
 55 53  1  0
 57 96  1  0
 57 66  1  0
 57  6  1  0
 58 66  1  0
 59 64  1  0
 60 61  1  0
 60 59  1  0
 62 61  1  0
 62 71  1  0
 62 63  1  0
 64 58  1  0
 64 63  1  0
 65 58  2  0
 66 67  1  0
 68 69  2  0
 69 88  1  0
 70 69  1  0
 70 73  1  0
 71 72  1  0
 71 68  1  0
 72 70  2  0
 73 74  1  0
 74 75  2  0
 76 79  1  0
 76 75  1  0
 77 76  2  0
 78 77  1  0
 78 73  2  0
 79 80  1  0
 80 81  1  0
 81 82  2  0
 83 82  1  0
 83 87  1  0
 84 83  2  0
 85 80  2  0
 85 84  1  0
 86 85  1  0
 88 89  1  0
 89 92  1  0
 89 91  1  0
 90 88  2  0
 93 68  1  0
 93 94  1  0
 95 93  1  0
 96 97  1  0
 98101  1  0
 98 97  1  0
 99 98  1  0
100 98  1  0
M  ISO  4  15 101  16 101  58 100  66 100
M  END
>  <TORSDO>  (20) 
F 22

>  <SCORE>  (20) 
-10.815

>  <name>  (20) 
20

>  <ligand_id>  (20) 
20

>  <original_smiles>  (20) 
[H]c1c([H])c([H])c2c(c1[H])C([H])([H])C([H])([H])C([H])([H])C2([H])N([H])C(=O)C1([H])N(C(=O)C([H])(N([H])C(=O)C([H])(N([H])C([H])([H])[H])C([H])([H])[H])C(C([H])([H])[H])(C([H])([H])[H])C([H])([H])[H])C([H])([H])c2c([H])c(OC([H])([H])C([H])([H])[N+]3([H])C([H])([H])C(=O)c4c([H])c(C([H])(N([H])C(=O)N5C([H])([H])C([H])([H])C([H])([H])C([H])(n6nc(-c7c([H])c([H])c(Oc8c([H])c([H])c(F)c([H])c8F)c([H])c7[H])c(C(=O)N([H])[H])c6N([H])[H])C5([H])[H])C([H])([H])C([H])([H])[N+]([H])([H])[H])c([H])c([H])c4C([H])([H])C3([H])[H])c([H])c([H])c2C1([H])[H]

>  <smiles>  (20) 
[H]c1c([H])c([H])c2c(c1[H])C([H])([H])C([H])([H])C([H])([H])C2([H])N([H])C(=O)C1([H])N(C(=O)C([H])(N([H])C(=O)C([H])(N([H])C([H])([H])[H])C([H])([H])[H])C(C([H])([H])[H])(C([H])([H])[H])C([H])([H])[H])C([H])([H])c2c([H])c(OC([H])([H])C([H])([H])[N+]3([H])C([H])([H])C(=O)c4c([H])c(C([H])(N([H])C(=O)N5C([H])([H])C([H])([H])C([H])([H])C([H])(n6nc(-c7c([H])c([H])c(Oc8c([H])c([H])c(F)c([H])c8F)c([H])c7[H])c(C(=O)N([H])[H])c6N([H])[H])C5([H])[H])C([H])([H])C([H])([H])[N+]([H])([H])[H])c([H])c([H])c4C([H])([H])C3([H])[H])c([H])c([H])c2C1([H])[H]

$$$$
21:0:0
     RDKit          3D

 90 94  0  0  1  0  0  0  0  0999 V2000
  -27.5980  -19.2920   21.0280 C   0  0  0  0  0  3  0  0  0  0  0  0
  -27.9330  -18.3490   20.0190 C   0  0  0  0  0  1  0  0  0  0  0  0
  -27.5680  -21.0350   21.0330 C   0  0  0  0  0  3  0  0  0  0  0  0
  -28.1300  -20.1390   19.1890 C   0  0  0  0  0 15  0  0  0  0  0  0
  -27.6730  -22.1240   19.7060 C   0  0  0  0  0  1  0  0  0  0  0  0
  -27.7000  -13.0230   21.4010 C   0  0  0  0  0  3  0  0  0  0  0  0
  -27.6270  -12.1020   19.7070 C   0  0  0  0  0  1  0  0  0  0  0  0
  -27.9340  -14.9220   21.3640 C   0  0  0  0  0  3  0  0  0  0  0  0
  -27.7860  -13.3940   18.1710 C   0  0  0  0  0  1  0  0  0  0  0  0
  -28.0290  -16.1530   20.0270 C   0  0  0  0  0  2  0  0  0  0  0  0
  -28.2540  -15.2250   18.6060 C   0  0  0  0  0  3  0  0  0  0  0  0
  -31.1070  -15.2660   19.4980 C   0  0  0  0  0  0  0  0  0  0  0  0
  -31.9630  -12.9160   19.6760 C   0  0  0  0  0  2  0  0  0  0  0  0
  -31.2090  -12.3030   18.5100 C   0  0  0  0  0  2  0  0  0  0  0  0
  -29.8990  -12.1870   19.1970 C   0  0  0  0  0  2  0  0  0  0  0  0
  -29.2210  -13.6480   19.9880 C   0  0  0  0  0  2  0  0  0  0  0  0
  -30.1900  -13.7050   21.1410 C   0  0  0  0  0  2  0  0  0  0  0  0
  -31.2230  -14.0930   20.2500 N   0  0  0  0  0  0  0  0  0  0  0  0
  -32.2330  -15.7410   19.4020 O   0  0  0  0  0  0  0  0  0  0  0  0
  -29.8710  -15.6730   18.6810 N   0  0  0  0  0  0  0  0  0  0  0  0
  -30.0670  -16.5050   18.1420 H   0  0  0  0  0  0  0  0  0  0  0  0
  -25.3850  -14.4960   20.6230 C   0  0  0  0  0  3  0  0  0  0  0  0
  -24.5780  -13.4490   21.0820 C   0  0  1  0  0  0  0  0  0  0  0  0
  -25.0740  -12.2010   20.6910 C   0  0  0  0  0  3  0  0  0  0  0  0
  -26.4080  -14.0780   19.8630 N   0  0  0  0  0  2  0  0  0  0  0  0
  -25.4180  -12.9200   19.5830 N   0  0  0  0  0  0  0  0  0  0  0  0
  -24.5920  -10.7190   20.8580 C   0  0  0  0  0  0  0  0  0  0  0  0
  -24.9590   -9.8250   21.9290 C   0  0  0  0  0  3  0  0  0  0  0  0
  -24.3290   -8.5510   22.1450 C   0  0  0  0  0  3  0  0  0  0  0  0
  -23.2820   -8.1140   21.2950 C   0  0  0  0  0  0  0  0  0  0  0  0
  -22.9490   -8.9590   20.2180 C   0  0  0  0  0  3  0  0  0  0  0  0
  -23.5860  -10.2080   20.0040 C   0  0  0  0  0  3  0  0  0  0  0  0
  -22.5950   -6.9090   21.3820 O   0  0  0  0  0  0  0  0  0  0  0  0
  -22.2590   -6.2850   22.5670 C   0  0  0  0  0  0  0  0  0  0  0  0
  -21.4970   -6.9290   23.5680 C   0  0  0  0  0  3  0  0  0  0  0  0
  -21.1210   -6.2300   24.7360 C   0  0  0  0  0  3  0  0  0  0  0  0
  -21.4920   -4.8840   24.9090 C   0  0  0  0  0  0  0  0  0  0  0  0
  -22.2260   -4.2280   23.9060 C   0  0  0  0  0  3  0  0  0  0  0  0
  -22.5990   -4.9230   22.7390 C   0  0  0  0  0  0  0  0  0  0  0  0
  -23.2820   -4.2670   21.7700 F   0  0  0  0  0  0  0  0  0  0  0  0
  -21.1410   -4.2170   26.0340 F   0  0  0  0  0  0  0  0  0  0  0  0
  -23.1350  -13.6340   21.1800 C   0  0  0  0  0  0  0  0  0  0  0  0
  -22.4830  -12.8230   21.9920 N   0  0  0  0  0  0  0  0  0  0  0  0
  -22.5970  -14.4850   20.4780 O   0  0  0  0  0  0  0  0  0  0  0  0
  -22.9720  -12.1290   22.5380 H   0  0  0  0  0  0  0  0  0  0  0  0
  -21.4800  -12.8990   22.0810 H   0  0  0  0  0  0  0  0  0  0  0  0
  -25.2760  -15.8500   20.5540 N   0  0  0  0  0  0  0  0  0  0  0  0
  -24.5030  -16.3700   20.9540 H   0  0  0  0  0  0  0  0  0  0  0  0
  -25.9550  -16.4290   20.0810 H   0  0  0  0  0  0  0  0  0  0  0  0
  -27.9550  -24.2430   19.6030 O   0  0  0  0  0  1  0  0  0  0  0  0
  -25.0440  -31.4900   22.7090 C   0  0  0  0  0  0  0  0  0  0  0  0
  -27.2700  -25.8520   19.6250 C   0  0  0  0  0  0  0  0  0  0  0  0
  -23.8740  -30.1230   21.0560 C   0  0  0  0  0  3  0  0  0  0  0  0
  -25.2750  -28.4120   19.5900 C   0  0  0  0  0  0  0  0  0  0  0  0
  -26.4660  -30.0490   20.9930 C   0  0  0  0  0  2  0  0  0  0  0  0
  -26.4730  -28.5650   20.2890 C   0  0  0  0  0  0  0  0  0  0  0  0
  -27.4430  -27.3330   20.2590 C   0  0  0  0  0  3  0  0  0  0  0  0
  -26.1130  -26.1250   18.8250 C   0  0  0  0  0  3  0  0  0  0  0  0
  -25.1870  -27.2370   18.8210 C   0  0  0  0  0  3  0  0  0  0  0  0
  -24.1270  -29.4570   19.6650 C   0  0  0  0  0  2  0  0  0  0  0  0
  -25.1660  -30.6080   21.6350 N   0  0  0  0  0  0  0  0  0  0  0  0
  -23.9380  -31.7870   23.2030 O   0  0  0  0  0  0  0  0  0  0  0  0
  -23.1400  -29.1400   22.0110 C   0  0  0  0  0  0  0  0  0  0  0  0
  -21.7960  -29.0440   21.9460 N   0  0  0  0  0  0  0  0  0  0  0  0
  -23.8000  -28.4590   22.7990 O   0  0  0  0  0  0  0  0  0  0  0  0
  -21.3030  -29.6450   21.3000 H   0  0  0  0  0  0  0  0  0  0  0  0
  -18.3980  -27.9300   22.6460 C   0  0  0  0  0  0  0  0  0  0  0  0
  -20.9820  -28.0820   22.7060 C   0  0  0  0  0  3  0  0  0  0  0  0
  -20.9670  -26.7000   22.0100 C   0  0  0  0  0  2  0  0  0  0  0  0
  -19.7760  -26.5150   21.0650 C   0  0  0  0  0  2  0  0  0  0  0  0
  -18.4580  -26.6490   21.8320 C   0  0  0  0  0  2  0  0  0  0  0  0
  -19.5800  -28.6120   23.0420 C   0  0  0  0  0  0  0  0  0  0  0  0
  -19.4610  -29.8130   23.7770 C   0  0  0  0  0  3  0  0  0  0  0  0
  -18.1950  -30.3310   24.1090 C   0  0  0  0  0  3  0  0  0  0  0  0
  -17.0300  -29.6480   23.7220 C   0  0  0  0  0  3  0  0  0  0  0  0
  -17.1330  -28.4470   22.9970 C   0  0  0  0  0  3  0  0  0  0  0  0
  -26.2710  -32.1800   23.3810 C   0  0  0  0  0  3  0  0  0  0  0  0
  -25.8570  -33.5110   23.8940 N   0  0  0  0  0  0  0  0  0  0  0  0
  -26.1180  -34.6950   23.3180 C   0  0  0  0  0  0  0  0  0  0  0  0
  -26.7740  -34.7890   22.2790 O   0  0  0  0  0  0  0  0  0  0  0  0
  -25.2610  -33.5050   24.7070 H   0  0  0  0  0  0  0  0  0  0  0  0
  -24.2770  -36.4270   23.2970 C   0  0  0  0  0  1  0  0  0  0  0  0
  -25.5710  -35.9760   23.9940 C   0  0  0  0  0  3  0  0  0  0  0  0
  -27.6770  -36.8830   24.8870 C   0  0  0  0  0  1  0  0  0  0  0  0
  -26.5330  -37.1030   24.0060 N   0  0  0  0  0  0  0  0  0  0  0  0
  -26.0730  -37.9620   24.2960 H   0  0  0  0  0  0  0  0  0  0  0  0
  -26.8690  -31.3390   24.5780 C   0  0  1  0  0  0  0  0  0  0  0  0
  -25.8250  -30.9440   25.6520 C   0  0  0  0  0  1  0  0  0  0  0  0
  -27.5240  -30.0360   24.0790 C   0  0  0  0  0  1  0  0  0  0  0  0
  -27.9910  -32.1440   25.2760 C   0  0  0  0  0  1  0  0  0  0  0  0
  1  3  2  0
  2  1  1  0
  5  3  1  0
  7  6  1  0
  8  6  2  0
 10  8  1  0
 11  9  1  0
 11 20  1  0
 11 10  1  0
 12 18  1  0
 13 18  1  0
 14 15  1  0
 14 13  1  0
 15 16  1  0
 16 17  1  0
 18 17  1  0
 19 12  2  0
 20 12  1  0
 21 20  1  0
 22 47  1  0
 22 23  1  0
 23 42  1  1
 24 27  1  0
 24 23  1  0
 25 22  1  0
 26 25  1  0
 26 24  1  0
 26 23  1  0
 27 28  1  0
 28 29  2  0
 30 33  1  0
 30 29  1  0
 31 30  2  0
 32 31  1  0
 32 27  2  0
 33 34  1  0
 34 39  2  0
 34 35  1  0
 35 36  2  0
 36 37  1  0
 37 41  1  0
 38 37  2  0
 39 38  1  0
 40 39  1  0
 42 43  1  0
 43 46  1  0
 43 45  1  0
 44 42  2  0
 47 48  1  0
 49 47  1  0
 50 52  1  0
 51 62  2  0
 52 57  1  0
 53 61  1  0
 53 63  1  0
 54 60  1  0
 54 56  1  0
 55 61  1  0
 56 55  1  0
 57 56  2  0
 58 52  2  0
 59 58  1  0
 59 54  2  0
 60 53  1  0
 61 51  1  0
 63 65  2  0
 64 63  1  0
 66 64  1  0
 67 76  2  0
 67 72  1  0
 68 64  1  0
 68 72  1  0
 69 68  1  0
 70 71  1  0
 70 69  1  0
 71 67  1  0
 72 73  2  0
 73 74  1  0
 75 74  2  0
 76 75  1  0
 77 51  1  0
 77 78  1  0
 77 87  1  0
 78 81  1  0
 79 78  1  0
 79 83  1  0
 80 79  2  0
 83 82  1  0
 83 85  1  0
 85 86  1  0
 85 84  1  0
 87 90  1  1
 87 88  1  0
 89 87  1  0
M  ISO  4   5 101  12 100  20 100  50 101
M  END
>  <TORSDO>  (21) 
F 17

>  <SCORE>  (21) 
-12.265

>  <name>  (21) 
21

>  <ligand_id>  (21) 
21

>  <original_smiles>  (21) 
[H]C1=C(c2c([H])c([H])c([H])c([H])c2N([H])C(=O)N2C([H])([H])C([H])([H])C([H])([H])C([H])(n3nc(-c4c([H])c([H])c(Oc5c([H])c([H])c(F)c([H])c5F)c([H])c4[H])c(C(=O)N([H])[H])c3N([H])[H])C2([H])[H])C([H])([H])C([H])(Oc2c([H])c([H])c3c(c2[H])C([H])([H])N(C(=O)C([H])(N([H])C(=O)C([H])(N([H])C([H])([H])[H])C([H])([H])[H])C(C([H])([H])[H])(C([H])([H])[H])C([H])([H])[H])C([H])(C(=O)N([H])C2([H])c4c([H])c([H])c([H])c([H])c4C([H])([H])C([H])([H])C2([H])[H])C3([H])[H])C1([H])[H]

>  <smiles>  (21) 
[H]C1=C(c2c([H])c([H])c([H])c([H])c2N([H])C(=O)N2C([H])([H])C([H])([H])C([H])([H])C([H])(n3nc(-c4c([H])c([H])c(Oc5c([H])c([H])c(F)c([H])c5F)c([H])c4[H])c(C(=O)N([H])[H])c3N([H])[H])C2([H])[H])C([H])([H])C([H])(Oc2c([H])c([H])c3c(c2[H])C([H])([H])N(C(=O)C([H])(N([H])C(=O)C([H])(N([H])C([H])([H])[H])C([H])([H])[H])C(C([H])([H])[H])(C([H])([H])[H])C([H])([H])[H])C([H])(C(=O)N([H])C2([H])c4c([H])c([H])c([H])c([H])c4C([H])([H])C([H])([H])C2([H])[H])C3([H])[H])C1([H])[H]

$$$$
22:0:0
     RDKit          3D

 89 97  0  0  1  0  0  0  0  0999 V2000
  -28.9700  -21.0750   20.2200 N   0  0  0  0  0  4  0  0  0  0  0  0
  -28.0030  -20.7970   20.1700 H   0  0  0  0  0  0  0  0  0  0  0  0
  -29.2960  -21.1750   19.2730 H   0  0  0  0  0  0  0  0  0  0  0  0
  -29.7600  -19.9220   20.8490 C   0  0  0  0  0  2  0  0  0  0  0  0
  -30.5750  -14.7380   20.3270 C   0  0  0  0  0  0  0  0  0  0  0  0
  -30.3560  -12.4670   19.3240 C   0  0  0  0  0  2  0  0  0  0  0  0
  -29.4040  -12.5260   18.1100 C   0  0  0  0  0  2  0  0  0  0  0  0
  -27.9390  -12.3490   18.5590 C   0  0  0  0  0  2  0  0  0  0  0  0
  -27.5710  -13.2440   19.7720 C   0  0  0  0  0  3  0  0  0  0  0  0
  -28.6440  -13.1840   20.8790 C   0  0  0  0  0  2  0  0  0  0  0  0
  -29.9300  -13.5250   20.2630 N   0  0  0  0  0  0  0  0  0  0  0  0
  -31.7860  -14.8080   20.1020 O   0  0  0  0  0  0  0  0  0  0  0  0
  -29.3460  -17.9470   19.0720 C   0  0  0  0  0  2  0  0  0  0  0  0
  -29.1660  -16.4110   19.1570 C   0  0  0  0  0  2  0  0  0  0  0  0
  -30.1400  -17.1690   21.1310 C   0  0  0  0  0  2  0  0  0  0  0  0
  -29.3300  -18.3980   20.5250 C   0  0  0  0  0  3  0  0  0  0  0  0
  -29.8040  -15.8980   20.3900 N   0  0  0  0  0  0  0  0  0  0  0  0
  -25.1990  -13.8640   20.5240 C   0  0  0  0  0  0  0  0  0  0  0  0
  -24.1290  -13.0960   20.8960 C   0  0  0  0  0  0  0  0  0  0  0  0
  -24.5850  -11.7430   20.8620 C   0  0  0  0  0  0  0  0  0  0  0  0
  -26.2330  -12.9740   20.2780 N   0  0  0  0  0  0  0  0  0  0  0  0
  -25.8720  -11.6960   20.5470 N   0  0  0  0  0  0  0  0  0  0  0  0
  -23.8570  -10.4830   21.0530 C   0  0  0  0  0  0  0  0  0  0  0  0
  -24.2960   -9.5110   21.9780 C   0  0  0  0  0  3  0  0  0  0  0  0
  -23.5690   -8.3150   22.1570 C   0  0  0  0  0  3  0  0  0  0  0  0
  -22.3890   -8.0840   21.4100 C   0  0  0  0  0  0  0  0  0  0  0  0
  -21.9700   -9.0450   20.4740 C   0  0  0  0  0  3  0  0  0  0  0  0
  -22.6980  -10.2320   20.2920 C   0  0  0  0  0  3  0  0  0  0  0  0
  -21.6320   -6.9410   21.4990 O   0  0  0  0  0  0  0  0  0  0  0  0
  -21.5910   -6.1940   22.6490 C   0  0  0  0  0  0  0  0  0  0  0  0
  -21.1720   -6.7430   23.8800 C   0  0  0  0  0  3  0  0  0  0  0  0
  -21.0790   -5.9220   25.0230 C   0  0  0  0  0  3  0  0  0  0  0  0
  -21.3950   -4.5530   24.9320 C   0  0  0  0  0  0  0  0  0  0  0  0
  -21.8060   -4.0040   23.7050 C   0  0  0  0  0  3  0  0  0  0  0  0
  -21.9000   -4.8220   22.5660 C   0  0  0  0  0  0  0  0  0  0  0  0
  -22.2780   -4.2840   21.3810 F   0  0  0  0  0  0  0  0  0  0  0  0
  -21.2980   -3.7610   26.0260 F   0  0  0  0  0  0  0  0  0  0  0  0
  -22.7350  -13.5810   21.1740 C   0  0  0  0  0  0  0  0  0  0  0  0
  -22.0060  -12.8840   22.0380 N   0  0  0  0  0  0  0  0  0  0  0  0
  -22.3020  -14.6110   20.6610 O   0  0  0  0  0  0  0  0  0  0  0  0
  -22.3700  -12.0500   22.4760 H   0  0  0  0  0  0  0  0  0  0  0  0
  -21.0700  -13.1890   22.2680 H   0  0  0  0  0  0  0  0  0  0  0  0
  -25.3730  -15.2330   20.3500 N   0  0  0  0  0  0  0  0  0  0  0  0
  -24.6180  -15.8970   20.4820 H   0  0  0  0  0  0  0  0  0  0  0  0
  -26.2380  -15.6690   20.0560 H   0  0  0  0  0  0  0  0  0  0  0  0
  -29.0070  -22.4540   20.8940 C   0  0  0  0  0  3  0  0  0  0  0  0
  -28.5890  -23.7700   20.0530 C   0  0  0  0  0  3  0  0  0  0  0  0
  -28.2870  -25.1370   20.8520 C   0  0  0  0  0  2  0  0  0  0  0  0
  -28.3810  -26.4830   20.2190 O   0  0  0  0  0  0  0  0  0  0  0  0
  -24.6180  -31.8840   23.2490 C   0  0  0  0  0  0  0  0  0  0  0  0
  -27.2560  -27.3210   20.2260 C   0  0  0  0  0  0  0  0  0  0  0  0
  -23.4240  -30.4780   21.6070 C   0  0  0  0  0  3  0  0  0  0  0  0
  -24.8860  -28.9220   20.1930 C   0  0  0  0  0  0  0  0  0  0  0  0
  -25.9620  -30.8050   21.4300 C   0  0  0  0  0  2  0  0  0  0  0  0
  -26.0500  -29.4220   20.7900 C   0  0  0  0  0  0  0  0  0  0  0  0
  -27.2420  -28.6350   20.7910 C   0  0  0  0  0  3  0  0  0  0  0  0
  -26.0720  -26.8660   19.6130 C   0  0  0  0  0  3  0  0  0  0  0  0
  -24.8990  -27.6500   19.5950 C   0  0  0  0  0  3  0  0  0  0  0  0
  -23.6460  -29.7950   20.2300 C   0  0  0  0  0  2  0  0  0  0  0  0
  -24.6860  -31.0730   22.1510 N   0  0  0  0  0  0  0  0  0  0  0  0
  -23.5320  -32.1580   23.7800 O   0  0  0  0  0  0  0  0  0  0  0  0
  -22.7610  -29.4620   22.5680 C   0  0  0  0  0  0  0  0  0  0  0  0
  -21.4360  -29.2820   22.4380 N   0  0  0  0  0  0  0  0  0  0  0  0
  -23.4390  -28.8380   23.3880 O   0  0  0  0  0  0  0  0  0  0  0  0
  -20.9470  -29.8370   21.7480 H   0  0  0  0  0  0  0  0  0  0  0  0
  -18.0580  -28.0900   22.9390 C   0  0  0  0  0  0  0  0  0  0  0  0
  -20.6170  -28.3440   23.2070 C   0  0  0  0  0  3  0  0  0  0  0  0
  -20.7160  -26.9140   22.6290 C   0  0  0  0  0  2  0  0  0  0  0  0
  -19.6130  -26.5960   21.6140 C   0  0  0  0  0  2  0  0  0  0  0  0
  -18.2320  -26.7410   22.2590 C   0  0  0  0  0  2  0  0  0  0  0  0
  -19.1780  -28.8490   23.3690 C   0  0  0  0  0  0  0  0  0  0  0  0
  -18.9620  -30.1110   23.9650 C   0  0  0  0  0  3  0  0  0  0  0  0
  -17.6570  -30.6150   24.1320 C   0  0  0  0  0  3  0  0  0  0  0  0
  -16.5510  -29.8510   23.7180 C   0  0  0  0  0  3  0  0  0  0  0  0
  -16.7520  -28.5910   23.1270 C   0  0  0  0  0  3  0  0  0  0  0  0
  -25.8970  -32.5210   23.8750 C   0  0  0  0  0  3  0  0  0  0  0  0
  -26.4040  -31.7610   25.1620 C   0  0  1  0  0  0  0  0  0  0  0  0
  -25.3030  -31.5330   26.2240 C   0  0  0  0  0  1  0  0  0  0  0  0
  -26.9880  -30.3790   24.7850 C   0  0  0  0  0  1  0  0  0  0  0  0
  -27.5500  -32.5600   25.8260 C   0  0  0  0  0  1  0  0  0  0  0  0
  -25.5840  -33.9220   24.1940 N   0  0  0  0  0  0  0  0  0  0  0  0
  -25.9230  -34.9700   23.4320 C   0  0  0  0  0  0  0  0  0  0  0  0
  -26.5990  -34.8590   22.4050 O   0  0  0  0  0  0  0  0  0  0  0  0
  -24.9840  -34.0820   24.9890 H   0  0  0  0  0  0  0  0  0  0  0  0
  -24.2010  -36.7640   23.0530 C   0  0  0  0  0  1  0  0  0  0  0  0
  -25.4350  -36.3620   23.8780 C   0  0  0  0  0  3  0  0  0  0  0  0
  -27.5620  -37.2480   24.7220 C   0  0  0  0  0  1  0  0  0  0  0  0
  -26.4700  -37.4130   23.7670 N   0  0  0  0  0  0  0  0  0  0  0  0
  -26.0640  -38.3340   23.9050 H   0  0  0  0  0  0  0  0  0  0  0  0
  1  4  1  0
  1 46  1  0
  2  1  1  0
  3  1  1  0
  5 17  1  0
  6 11  1  0
  7  8  1  0
  7  6  1  0
  9  8  1  0
  9 21  1  0
  9 10  1  0
 11  5  1  0
 11 10  1  0
 12  5  2  0
 13 14  1  0
 13 16  1  0
 14 17  1  0
 16  4  1  0
 16 15  1  0
 17 15  1  0
 18 19  2  0
 19 38  1  0
 20 19  1  0
 20 23  1  0
 21 18  1  0
 21 22  1  0
 22 20  2  0
 23 24  1  0
 24 25  2  0
 26 29  1  0
 26 25  1  0
 27 26  2  0
 28 27  1  0
 28 23  2  0
 29 30  1  0
 30 31  1  0
 31 32  2  0
 33 32  1  0
 33 37  1  0
 34 33  2  0
 35 30  2  0
 35 34  1  0
 36 35  1  0
 38 39  1  0
 39 42  1  0
 39 41  1  0
 40 38  2  0
 43 44  1  0
 43 18  1  0
 45 43  1  0
 47 48  1  0
 47 46  2  0
 49 51  1  0
 49 48  1  0
 50 61  2  0
 51 56  1  0
 52 60  1  0
 52 62  1  0
 53 59  1  0
 53 55  1  0
 54 60  1  0
 55 56  2  0
 55 54  1  0
 57 51  2  0
 58 57  1  0
 58 53  2  0
 59 52  1  0
 60 50  1  0
 62 64  2  0
 63 62  1  0
 65 63  1  0
 66 75  2  0
 66 71  1  0
 67 63  1  0
 67 71  1  0
 68 67  1  0
 69 70  1  0
 69 68  1  0
 70 66  1  0
 71 72  2  0
 72 73  1  0
 74 73  2  0
 75 74  1  0
 76 50  1  0
 76 81  1  0
 76 77  1  0
 77 80  1  1
 77 78  1  0
 79 77  1  0
 81 84  1  0
 82 86  1  0
 82 81  1  0
 83 82  2  0
 86 85  1  0
 88 86  1  0
 88 89  1  0
 88 87  1  0
M  ISO  4   5 100  17 100  48 101  49 101
M  END
>  <TORSDO>  (22) 
F 20

>  <SCORE>  (22) 
-13.756

>  <name>  (22) 
22

>  <ligand_id>  (22) 
22

>  <original_smiles>  (22) 
[H]c1c([H])c([H])c2c(c1[H])C([H])([H])C([H])([H])C([H])([H])C2([H])N([H])C(=O)C1([H])N(C(=O)C([H])(N([H])C(=O)C([H])(N([H])C([H])([H])[H])C([H])([H])[H])C(C([H])([H])[H])(C([H])([H])[H])C([H])([H])[H])C([H])([H])c2c([H])c(OC([H])([H])C([H])([H])C([H])([H])[N+]([H])([H])C([H])([H])C3([H])C([H])([H])N(C(=O)N4C([H])([H])C([H])([H])C([H])([H])C([H])(n5nc(-c6c([H])c([H])c(Oc7c([H])c([H])c(F)c([H])c7F)c([H])c6[H])c(C(=O)N([H])[H])c5N([H])[H])C4([H])[H])C([H])([H])C3([H])[H])c([H])c([H])c2C1([H])[H]

>  <smiles>  (22) 
[H]c1c([H])c([H])c2c(c1[H])C([H])([H])C([H])([H])C([H])([H])C2([H])N([H])C(=O)C1([H])N(C(=O)C([H])(N([H])C(=O)C([H])(N([H])C([H])([H])[H])C([H])([H])[H])C(C([H])([H])[H])(C([H])([H])[H])C([H])([H])[H])C([H])([H])c2c([H])c(OC([H])([H])C([H])([H])C([H])([H])[N+]([H])([H])C([H])([H])C3([H])C([H])([H])N(C(=O)N4C([H])([H])C([H])([H])C([H])([H])C([H])(n5nc(-c6c([H])c([H])c(Oc7c([H])c([H])c(F)c([H])c7F)c([H])c6[H])c(C(=O)N([H])[H])c5N([H])[H])C4([H])[H])C([H])([H])C3([H])[H])c([H])c([H])c2C1([H])[H]

$$$$
23:0:0
     RDKit          3D

 90 99  0  0  1  0  0  0  0  0999 V2000
  -28.4890  -21.5400   19.1130 C   0  0  0  0  0  3  0  0  0  0  0  0
  -27.7500  -20.1970   19.0270 C   0  0  0  0  0  0  0  0  0  0  0  0
  -28.5450  -18.8070   18.8660 C   0  0  0  0  0  2  0  0  0  0  0  0
  -29.7740  -19.7350   20.9170 C   0  0  0  0  0  2  0  0  0  0  0  0
  -29.7490  -21.4460   20.4720 C   0  0  0  0  0  3  0  0  0  0  0  0
  -29.7190  -18.3580   19.8710 C   0  0  0  0  0  3  0  0  0  0  0  0
  -28.4960  -22.6180   20.3020 C   0  0  2  0  0  0  0  0  0  0  0  0
  -27.3480  -22.4270   21.2920 C   0  0  0  0  0  1  0  0  0  0  0  0
  -29.7360  -21.5180   18.9700 N   0  0  0  0  0  2  0  0  0  0  0  0
  -26.5180  -20.1460   19.0710 O   0  0  0  0  0  0  0  0  0  0  0  0
  -30.4910  -15.4340   20.0060 C   0  0  0  0  0  0  0  0  0  0  0  0
  -30.4420  -12.9840   19.1210 C   0  0  0  0  0  2  0  0  0  0  0  0
  -29.4760  -12.7930   17.9240 C   0  0  0  0  0  2  0  0  0  0  0  0
  -28.0450  -12.5130   18.4140 C   0  0  0  0  0  2  0  0  0  0  0  0
  -27.6420  -13.4590   19.5720 C   0  0  0  0  0  3  0  0  0  0  0  0
  -28.7320  -13.5970   20.6580 C   0  0  0  0  0  2  0  0  0  0  0  0
  -29.9370  -14.1160   19.9910 N   0  0  0  0  0  0  0  0  0  0  0  0
  -31.6810  -15.4460   19.6530 O   0  0  0  0  0  0  0  0  0  0  0  0
  -29.7230  -16.6960   20.2240 N   0  0  0  0  0  0  0  0  0  0  0  0
  -28.8220  -16.4340   20.5960 H   0  0  0  0  0  0  0  0  0  0  0  0
  -25.3080  -14.0070   20.4340 C   0  0  0  0  0  0  0  0  0  0  0  0
  -24.2620  -13.2260   20.8380 C   0  0  0  0  0  0  0  0  0  0  0  0
  -24.7230  -11.8770   20.7640 C   0  0  0  0  0  0  0  0  0  0  0  0
  -26.3360  -13.1340   20.1310 N   0  0  0  0  0  0  0  0  0  0  0  0
  -26.0000  -11.8450   20.3960 N   0  0  0  0  0  0  0  0  0  0  0  0
  -24.0000  -10.6140   20.9650 C   0  0  0  0  0  0  0  0  0  0  0  0
  -24.4440   -9.6450   21.8920 C   0  0  0  0  0  3  0  0  0  0  0  0
  -23.7170   -8.4490   22.0820 C   0  0  0  0  0  3  0  0  0  0  0  0
  -22.5330   -8.2130   21.3450 C   0  0  0  0  0  0  0  0  0  0  0  0
  -22.1070   -9.1690   20.4060 C   0  0  0  0  0  3  0  0  0  0  0  0
  -22.8340  -10.3570   20.2150 C   0  0  0  0  0  3  0  0  0  0  0  0
  -21.7770   -7.0700   21.4450 O   0  0  0  0  0  0  0  0  0  0  0  0
  -21.7160   -6.3460   22.6090 C   0  0  0  0  0  0  0  0  0  0  0  0
  -21.2300   -6.9060   23.8100 C   0  0  0  0  0  3  0  0  0  0  0  0
  -21.1190   -6.1070   24.9660 C   0  0  0  0  0  3  0  0  0  0  0  0
  -21.4860   -4.7490   24.9210 C   0  0  0  0  0  0  0  0  0  0  0  0
  -21.9650   -4.1880   23.7240 C   0  0  0  0  0  3  0  0  0  0  0  0
  -22.0760   -4.9840   22.5700 C   0  0  0  0  0  0  0  0  0  0  0  0
  -22.5190   -4.4330   21.4140 F   0  0  0  0  0  0  0  0  0  0  0  0
  -21.3730   -3.9790   26.0270 F   0  0  0  0  0  0  0  0  0  0  0  0
  -22.8790  -13.7030   21.1710 C   0  0  0  0  0  0  0  0  0  0  0  0
  -22.1840  -12.9950   22.0530 N   0  0  0  0  0  0  0  0  0  0  0  0
  -22.4260  -14.7390   20.6840 O   0  0  0  0  0  0  0  0  0  0  0  0
  -22.5680  -12.1590   22.4690 H   0  0  0  0  0  0  0  0  0  0  0  0
  -21.2550  -13.2920   22.3170 H   0  0  0  0  0  0  0  0  0  0  0  0
  -25.4650  -15.3810   20.2720 N   0  0  0  0  0  0  0  0  0  0  0  0
  -24.7000  -16.0290   20.4210 H   0  0  0  0  0  0  0  0  0  0  0  0
  -26.2820  -15.8220   19.8720 H   0  0  0  0  0  0  0  0  0  0  0  0
  -28.3600  -24.3600   19.7410 C   0  0  0  0  0  2  0  0  0  0  0  0
  -28.2790  -25.9250   20.3060 O   0  0  0  0  0  0  0  0  0  0  0  0
  -24.6230  -31.8790   23.1760 C   0  0  0  0  0  0  0  0  0  0  0  0
  -27.2640  -27.0200   20.1670 C   0  0  0  0  0  0  0  0  0  0  0  0
  -23.4630  -30.4770   21.5170 C   0  0  0  0  0  3  0  0  0  0  0  0
  -24.9450  -28.8930   20.0980 C   0  0  0  0  0  0  0  0  0  0  0  0
  -26.0280  -30.7100   21.4050 C   0  0  0  0  0  2  0  0  0  0  0  0
  -26.1200  -29.3010   20.7430 C   0  0  0  0  0  0  0  0  0  0  0  0
  -27.2660  -28.3830   20.7570 C   0  0  0  0  0  3  0  0  0  0  0  0
  -26.0620  -26.7760   19.4620 C   0  0  0  0  0  3  0  0  0  0  0  0
  -24.9450  -27.6530   19.4370 C   0  0  0  0  0  3  0  0  0  0  0  0
  -23.7160  -29.8010   20.1400 C   0  0  0  0  0  2  0  0  0  0  0  0
  -24.7260  -31.0500   22.0870 N   0  0  0  0  0  0  0  0  0  0  0  0
  -23.5240  -32.1570   23.6840 O   0  0  0  0  0  0  0  0  0  0  0  0
  -22.7670  -29.4720   22.4710 C   0  0  0  0  0  0  0  0  0  0  0  0
  -21.4350  -29.3160   22.3490 N   0  0  0  0  0  0  0  0  0  0  0  0
  -23.4320  -28.8330   23.2920 O   0  0  0  0  0  0  0  0  0  0  0  0
  -20.9520  -29.8830   21.6660 H   0  0  0  0  0  0  0  0  0  0  0  0
  -18.0450  -28.1340   22.8780 C   0  0  0  0  0  0  0  0  0  0  0  0
  -20.6120  -28.3700   23.1090 C   0  0  0  0  0  3  0  0  0  0  0  0
  -20.6900  -26.9500   22.5000 C   0  0  0  0  0  2  0  0  0  0  0  0
  -19.5700  -26.6630   21.4940 C   0  0  0  0  0  2  0  0  0  0  0  0
  -18.1990  -26.8020   22.1620 C   0  0  0  0  0  2  0  0  0  0  0  0
  -19.1770  -28.8770   23.3080 C   0  0  0  0  0  0  0  0  0  0  0  0
  -18.9770  -30.1220   23.9420 C   0  0  0  0  0  3  0  0  0  0  0  0
  -17.6780  -30.6270   24.1450 C   0  0  0  0  0  3  0  0  0  0  0  0
  -16.5610  -29.8820   23.7280 C   0  0  0  0  0  3  0  0  0  0  0  0
  -16.7460  -28.6370   23.1010 C   0  0  0  0  0  3  0  0  0  0  0  0
  -25.8790  -32.5340   23.8280 C   0  0  0  0  0  3  0  0  0  0  0  0
  -25.5470  -33.9340   24.1480 N   0  0  0  0  0  0  0  0  0  0  0  0
  -25.8870  -34.9940   23.4030 C   0  0  0  0  0  0  0  0  0  0  0  0
  -26.5710  -34.8960   22.3820 O   0  0  0  0  0  0  0  0  0  0  0  0
  -24.9390  -34.0830   24.9400 H   0  0  0  0  0  0  0  0  0  0  0  0
  -24.1640  -36.7920   23.0270 C   0  0  0  0  0  1  0  0  0  0  0  0
  -25.3890  -36.3810   23.8590 C   0  0  0  0  0  3  0  0  0  0  0  0
  -27.5000  -37.2750   24.7440 C   0  0  0  0  0  1  0  0  0  0  0  0
  -26.4220  -37.4370   23.7710 N   0  0  0  0  0  0  0  0  0  0  0  0
  -26.0100  -38.3570   23.9060 H   0  0  0  0  0  0  0  0  0  0  0  0
  -26.3640  -31.7810   25.1290 C   0  0  1  0  0  0  0  0  0  0  0  0
  -25.2430  -31.5470   26.1690 C   0  0  0  0  0  1  0  0  0  0  0  0
  -26.9690  -30.4020   24.7780 C   0  0  0  0  0  1  0  0  0  0  0  0
  -27.4900  -32.5910   25.8140 C   0  0  0  0  0  1  0  0  0  0  0  0
  1  9  1  0
  1  7  1  0
  2 10  2  0
  2  1  1  0
  3  2  1  0
  3  6  1  0
  5  4  1  0
  6 19  1  0
  6  4  1  0
  7  5  1  0
  7  8  1  1
  9  5  1  0
 11 19  1  0
 12 17  1  0
 13 14  1  0
 13 12  1  0
 15 14  1  0
 15 24  1  0
 15 16  1  0
 17 11  1  0
 17 16  1  0
 18 11  2  0
 19 20  1  0
 21 22  2  0
 22 41  1  0
 23 22  1  0
 23 26  1  0
 24 25  1  0
 24 21  1  0
 25 23  2  0
 26 27  1  0
 27 28  2  0
 29 32  1  0
 29 28  1  0
 30 29  2  0
 31 30  1  0
 31 26  2  0
 32 33  1  0
 33 34  1  0
 34 35  2  0
 36 35  1  0
 36 40  1  0
 37 36  2  0
 38 33  2  0
 38 37  1  0
 39 38  1  0
 41 42  1  0
 42 45  1  0
 42 44  1  0
 43 41  2  0
 46 47  1  0
 46 21  1  0
 48 46  1  0
 49  7  1  0
 49 50  1  0
 51 62  2  0
 52 50  1  0
 52 57  1  0
 53 61  1  0
 53 63  1  0
 54 60  1  0
 54 56  1  0
 55 61  1  0
 56 57  2  0
 56 55  1  0
 58 52  2  0
 59 58  1  0
 59 54  2  0
 60 53  1  0
 61 51  1  0
 63 65  2  0
 64 63  1  0
 66 64  1  0
 67 76  2  0
 67 72  1  0
 68 64  1  0
 68 72  1  0
 69 68  1  0
 70 71  1  0
 70 69  1  0
 71 67  1  0
 72 73  2  0
 73 74  1  0
 75 74  2  0
 76 75  1  0
 77 51  1  0
 77 78  1  0
 77 87  1  0
 78 81  1  0
 79 83  1  0
 79 78  1  0
 80 79  2  0
 83 82  1  0
 85 83  1  0
 85 86  1  0
 85 84  1  0
 87 90  1  1
 87 88  1  0
 89 87  1  0
M  ISO  4  11 100  19 100  49 101  50 101
M  END
>  <TORSDO>  (23) 
F 17

>  <SCORE>  (23) 
-16.721

>  <name>  (23) 
23

>  <ligand_id>  (23) 
23

>  <original_smiles>  (23) 
[H]c1c([H])c([H])c2c(c1[H])C([H])([H])C([H])([H])C([H])([H])C2([H])N([H])C(=O)C1([H])N(C(=O)C([H])(N([H])C(=O)C([H])(N([H])C([H])([H])[H])C([H])([H])[H])C(C([H])([H])[H])(C([H])([H])[H])C([H])([H])[H])C([H])([H])c2c([H])c(OC([H])([H])C3(C([H])([H])[H])C4=NC3([H])C([H])([H])C([H])(N([H])C(=O)N3C([H])([H])C([H])([H])C([H])([H])C([H])(n5nc(-c6c([H])c([H])c(Oc7c([H])c([H])c(F)c([H])c7F)c([H])c6[H])c(C(=O)N([H])[H])c5N([H])[H])C3([H])[H])C([H])([H])C4=O)c([H])c([H])c2C1([H])[H]

>  <smiles>  (23) 
[H]c1c([H])c([H])c2c(c1[H])C([H])([H])C([H])([H])C([H])([H])C2([H])N([H])C(=O)C1([H])N(C(=O)C([H])(N([H])C(=O)C([H])(N([H])C([H])([H])[H])C([H])([H])[H])C(C([H])([H])[H])(C([H])([H])[H])C([H])([H])[H])C([H])([H])c2c([H])c(OC([H])([H])C3(C([H])([H])[H])C4=NC3([H])C([H])([H])C([H])(N([H])C(=O)N3C([H])([H])C([H])([H])C([H])([H])C([H])(n5nc(-c6c([H])c([H])c(Oc7c([H])c([H])c(F)c([H])c7F)c([H])c6[H])c(C(=O)N([H])[H])c5N([H])[H])C3([H])[H])C([H])([H])C4=O)c([H])c([H])c2C1([H])[H]

$$$$
24:0:0
     RDKit          3D

 90 99  0  0  1  0  0  0  0  0999 V2000
  -27.8840  -20.8360   18.8530 C   0  0  0  0  0  3  0  0  0  0  0  0
  -28.4330  -19.5520   19.2410 C   0  0  0  0  0  3  0  0  0  0  0  0
  -29.5940  -20.6600   21.0160 C   0  0  0  0  0  3  0  0  0  0  0  0
  -28.1710  -22.0590   19.5400 C   0  0  0  0  0  0  0  0  0  0  0  0
  -29.0140  -21.9780   20.6340 C   0  0  0  0  0  0  0  0  0  0  0  0
  -29.3380  -19.3610   20.3340 C   0  0  0  0  0  0  0  0  0  0  0  0
  -27.7420  -23.5270   19.2660 C   0  0  0  0  0  0  0  0  0  0  0  0
  -29.1610  -23.4830   21.1710 C   0  0  0  0  0  2  0  0  0  0  0  0
  -28.0670  -24.5030   20.4770 C   0  0  0  0  0  3  0  0  0  0  0  0
  -27.1930  -23.9130   18.2300 O   0  0  0  0  0  0  0  0  0  0  0  0
  -28.2390  -26.0860   20.2620 O   0  0  0  0  0  0  0  0  0  0  0  0
  -24.6450  -31.8920   23.2480 C   0  0  0  0  0  0  0  0  0  0  0  0
  -27.1790  -27.0910   20.2420 C   0  0  0  0  0  0  0  0  0  0  0  0
  -23.4350  -30.4970   21.6180 C   0  0  0  0  0  3  0  0  0  0  0  0
  -24.8690  -28.8950   20.2010 C   0  0  0  0  0  0  0  0  0  0  0  0
  -25.9950  -30.7310   21.4470 C   0  0  0  0  0  2  0  0  0  0  0  0
  -26.0580  -29.3280   20.8020 C   0  0  0  0  0  0  0  0  0  0  0  0
  -27.2140  -28.4470   20.7920 C   0  0  0  0  0  3  0  0  0  0  0  0
  -25.9570  -26.7720   19.6130 C   0  0  0  0  0  3  0  0  0  0  0  0
  -24.8360  -27.6340   19.5870 C   0  0  0  0  0  3  0  0  0  0  0  0
  -23.6510  -29.8100   20.2430 C   0  0  0  0  0  2  0  0  0  0  0  0
  -24.7130  -31.0650   22.1590 N   0  0  0  0  0  0  0  0  0  0  0  0
  -23.5600  -32.1850   23.7760 O   0  0  0  0  0  0  0  0  0  0  0  0
  -22.7490  -29.5020   22.5890 C   0  0  0  0  0  0  0  0  0  0  0  0
  -21.4200  -29.3350   22.4650 N   0  0  0  0  0  0  0  0  0  0  0  0
  -23.4180  -28.8800   23.4190 O   0  0  0  0  0  0  0  0  0  0  0  0
  -20.9360  -29.8880   21.7720 H   0  0  0  0  0  0  0  0  0  0  0  0
  -18.0380  -28.1270   22.9660 C   0  0  0  0  0  0  0  0  0  0  0  0
  -20.5960  -28.4030   23.2410 C   0  0  0  0  0  3  0  0  0  0  0  0
  -20.7050  -26.9650   22.6830 C   0  0  0  0  0  2  0  0  0  0  0  0
  -19.6090  -26.6270   21.6680 C   0  0  0  0  0  2  0  0  0  0  0  0
  -18.2240  -26.7720   22.3030 C   0  0  0  0  0  2  0  0  0  0  0  0
  -19.1520  -28.9000   23.3920 C   0  0  0  0  0  0  0  0  0  0  0  0
  -18.9250  -30.1650   23.9750 C   0  0  0  0  0  3  0  0  0  0  0  0
  -17.6160  -30.6600   24.1350 C   0  0  0  0  0  3  0  0  0  0  0  0
  -16.5170  -29.8860   23.7240 C   0  0  0  0  0  3  0  0  0  0  0  0
  -16.7290  -28.6220   23.1450 C   0  0  0  0  0  3  0  0  0  0  0  0
  -25.9250  -32.5280   23.8720 C   0  0  0  0  0  3  0  0  0  0  0  0
  -25.6180  -33.9290   24.2040 N   0  0  0  0  0  0  0  0  0  0  0  0
  -25.9400  -34.9850   23.4450 C   0  0  0  0  0  0  0  0  0  0  0  0
  -26.5930  -34.8830   22.4040 O   0  0  0  0  0  0  0  0  0  0  0  0
  -25.0400  -34.0820   25.0170 H   0  0  0  0  0  0  0  0  0  0  0  0
  -24.2060  -36.7840   23.1340 C   0  0  0  0  0  1  0  0  0  0  0  0
  -25.4650  -36.3750   23.9170 C   0  0  0  0  0  3  0  0  0  0  0  0
  -27.6150  -37.2610   24.7020 C   0  0  0  0  0  1  0  0  0  0  0  0
  -26.4940  -37.4280   23.7800 N   0  0  0  0  0  0  0  0  0  0  0  0
  -26.0910  -38.3480   23.9360 H   0  0  0  0  0  0  0  0  0  0  0  0
  -26.4340  -31.7630   25.1570 C   0  0  1  0  0  0  0  0  0  0  0  0
  -25.3370  -31.5410   26.2260 C   0  0  0  0  0  1  0  0  0  0  0  0
  -27.0130  -30.3810   24.7800 C   0  0  0  0  0  1  0  0  0  0  0  0
  -27.5880  -32.5570   25.8140 C   0  0  0  0  0  1  0  0  0  0  0  0
  -30.1140  -17.8890   20.6650 C   0  0  0  0  0  2  0  0  0  0  0  0
  -30.4730  -15.1110   20.3850 C   0  0  0  0  0  0  0  0  0  0  0  0
  -30.3990  -12.7190   19.4740 C   0  0  0  0  0  2  0  0  0  0  0  0
  -29.4760  -12.5870   18.2390 C   0  0  0  0  0  2  0  0  0  0  0  0
  -28.0170  -12.3520   18.6750 C   0  0  0  0  0  2  0  0  0  0  0  0
  -27.5830  -13.3060   19.8180 C   0  0  0  0  0  3  0  0  0  0  0  0
  -28.6300  -13.3900   20.9460 C   0  0  0  0  0  2  0  0  0  0  0  0
  -29.8820  -13.8380   20.3230 N   0  0  0  0  0  0  0  0  0  0  0  0
  -31.6910  -15.1390   20.1740 O   0  0  0  0  0  0  0  0  0  0  0  0
  -29.7100  -16.3370   20.4870 N   0  0  0  0  0  0  0  0  0  0  0  0
  -28.7180  -16.1750   20.5550 H   0  0  0  0  0  0  0  0  0  0  0  0
  -25.2040  -13.8720   20.5560 C   0  0  0  0  0  0  0  0  0  0  0  0
  -24.1410  -13.0940   20.9200 C   0  0  0  0  0  0  0  0  0  0  0  0
  -24.6100  -11.7440   20.8900 C   0  0  0  0  0  0  0  0  0  0  0  0
  -26.2490  -12.9980   20.3180 N   0  0  0  0  0  0  0  0  0  0  0  0
  -25.9030  -11.7120   20.5860 N   0  0  0  0  0  0  0  0  0  0  0  0
  -23.8850  -10.4800   21.0730 C   0  0  0  0  0  0  0  0  0  0  0  0
  -24.3160   -9.5060   22.0000 C   0  0  0  0  0  3  0  0  0  0  0  0
  -23.5880   -8.3090   22.1710 C   0  0  0  0  0  3  0  0  0  0  0  0
  -22.4150   -8.0770   21.4160 C   0  0  0  0  0  0  0  0  0  0  0  0
  -22.0010   -9.0400   20.4770 C   0  0  0  0  0  3  0  0  0  0  0  0
  -22.7300  -10.2280   20.3040 C   0  0  0  0  0  3  0  0  0  0  0  0
  -21.6570   -6.9340   21.4990 O   0  0  0  0  0  0  0  0  0  0  0  0
  -21.6090   -6.1830   22.6450 C   0  0  0  0  0  0  0  0  0  0  0  0
  -21.1750   -6.7280   23.8740 C   0  0  0  0  0  3  0  0  0  0  0  0
  -21.0750   -5.9040   25.0120 C   0  0  0  0  0  3  0  0  0  0  0  0
  -21.3980   -4.5370   24.9240 C   0  0  0  0  0  0  0  0  0  0  0  0
  -21.8250   -3.9920   23.7010 C   0  0  0  0  0  3  0  0  0  0  0  0
  -21.9270   -4.8130   22.5640 C   0  0  0  0  0  0  0  0  0  0  0  0
  -22.3180   -4.2780   21.3820 F   0  0  0  0  0  0  0  0  0  0  0  0
  -21.2950   -3.7430   26.0160 F   0  0  0  0  0  0  0  0  0  0  0  0
  -22.7410  -13.5680   21.1810 C   0  0  0  0  0  0  0  0  0  0  0  0
  -22.0080  -12.8700   22.0400 N   0  0  0  0  0  0  0  0  0  0  0  0
  -22.3070  -14.5950   20.6580 O   0  0  0  0  0  0  0  0  0  0  0  0
  -22.3720  -12.0390   22.4830 H   0  0  0  0  0  0  0  0  0  0  0  0
  -21.0690  -13.1710   22.2610 H   0  0  0  0  0  0  0  0  0  0  0  0
  -25.3630  -15.2440   20.3800 N   0  0  0  0  0  0  0  0  0  0  0  0
  -24.5900  -15.8920   20.4820 H   0  0  0  0  0  0  0  0  0  0  0  0
  -26.2020  -15.6850   20.0270 H   0  0  0  0  0  0  0  0  0  0  0  0
  1  2  2  0
  1  4  1  0
  2  6  1  0
  4  5  2  0
  5  3  1  0
  5  8  1  0
  6 52  1  0
  6  3  2  0
  7  4  1  0
  7  9  1  0
  9 11  1  0
  9  8  1  0
 10  7  2  0
 12 23  2  0
 13 11  1  0
 13 18  1  0
 14 22  1  0
 14 24  1  0
 15 21  1  0
 15 17  1  0
 16 22  1  0
 17 16  1  0
 18 17  2  0
 19 13  2  0
 20 19  1  0
 20 15  2  0
 21 14  1  0
 22 12  1  0
 24 26  2  0
 25 24  1  0
 27 25  1  0
 28 37  2  0
 28 33  1  0
 29 25  1  0
 29 33  1  0
 30 29  1  0
 31 32  1  0
 31 30  1  0
 32 28  1  0
 33 34  2  0
 34 35  1  0
 36 35  2  0
 37 36  1  0
 38 12  1  0
 38 39  1  0
 38 48  1  0
 39 42  1  0
 40 44  1  0
 40 39  1  0
 41 40  2  0
 44 43  1  0
 46 44  1  0
 46 47  1  0
 46 45  1  0
 48 51  1  1
 48 49  1  0
 50 48  1  0
 53 61  1  0
 54 59  1  0
 55 56  1  0
 55 54  1  0
 57 56  1  0
 57 66  1  0
 57 58  1  0
 59 53  1  0
 59 58  1  0
 60 53  2  0
 61 62  1  0
 61 52  1  0
 63 64  2  0
 64 83  1  0
 65 64  1  0
 65 68  1  0
 66 63  1  0
 66 67  1  0
 67 65  2  0
 68 69  1  0
 69 70  2  0
 71 74  1  0
 71 70  1  0
 72 71  2  0
 73 72  1  0
 73 68  2  0
 74 75  1  0
 75 76  1  0
 76 77  2  0
 78 77  1  0
 78 82  1  0
 79 78  2  0
 80 75  2  0
 80 79  1  0
 81 80  1  0
 83 84  1  0
 84 87  1  0
 84 86  1  0
 85 83  2  0
 88 89  1  0
 88 63  1  0
 90 88  1  0
M  ISO  4   9 101  11 101  53 100  61 100
M  END
>  <TORSDO>  (24) 
F 17

>  <SCORE>  (24) 
-15.851

>  <name>  (24) 
24

>  <ligand_id>  (24) 
24

>  <original_smiles>  (24) 
[H]c1c([H])c([H])c2c(c1[H])C([H])([H])C([H])([H])C([H])([H])C2([H])N([H])C(=O)C1([H])N(C(=O)C([H])(N([H])C(=O)C([H])(N([H])C([H])([H])[H])C([H])([H])[H])C(C([H])([H])[H])(C([H])([H])[H])C([H])([H])[H])C([H])([H])c2c([H])c(OC3([H])C(=O)c4c([H])c([H])c(C([H])([H])N([H])C(=O)N5C([H])([H])C([H])([H])C([H])([H])C([H])(n6nc(-c7c([H])c([H])c(Oc8c([H])c([H])c(F)c([H])c8F)c([H])c7[H])c(C(=O)N([H])[H])c6N([H])[H])C5([H])[H])c([H])c4C3([H])[H])c([H])c([H])c2C1([H])[H]

>  <smiles>  (24) 
[H]c1c([H])c([H])c2c(c1[H])C([H])([H])C([H])([H])C([H])([H])C2([H])N([H])C(=O)C1([H])N(C(=O)C([H])(N([H])C(=O)C([H])(N([H])C([H])([H])[H])C([H])([H])[H])C(C([H])([H])[H])(C([H])([H])[H])C([H])([H])[H])C([H])([H])c2c([H])c(OC3([H])C(=O)c4c([H])c([H])c(C([H])([H])N([H])C(=O)N5C([H])([H])C([H])([H])C([H])([H])C([H])(n6nc(-c7c([H])c([H])c(Oc8c([H])c([H])c(F)c([H])c8F)c([H])c7[H])c(C(=O)N([H])[H])c6N([H])[H])C5([H])[H])c([H])c4C3([H])[H])c([H])c([H])c2C1([H])[H]

$$$$
26:0:0
     RDKit          3D

 89 97  0  0  1  0  0  0  0  0999 V2000
  -29.5570  -17.8180   20.2680 C   0  0  0  0  0  0  0  0  0  0  0  0
  -30.3910  -20.4810   19.7070 C   0  0  0  0  0  0  0  0  0  0  0  0
  -30.5200  -18.8520   19.5230 C   0  0  0  0  0  2  0  0  0  0  0  0
  -28.2800  -18.7220   20.5940 C   0  0  0  0  0  2  0  0  0  0  0  0
  -28.3140  -20.3650   20.7590 C   0  0  0  0  0  2  0  0  0  0  0  0
  -29.0210  -21.3440   19.7000 C   0  0  2  0  0  0  0  0  0  0  0  0
  -29.5580  -16.4430   20.5250 N   0  0  0  0  0  0  0  0  0  0  0  0
  -31.4430  -21.1070   19.8580 O   0  0  0  0  0  0  0  0  0  0  0  0
  -30.4760  -15.2560   20.3180 C   0  0  0  0  0  0  0  0  0  0  0  0
  -30.5140  -12.7810   19.5960 C   0  0  0  0  0  2  0  0  0  0  0  0
  -29.6270  -12.5770   18.3410 C   0  0  0  0  0  2  0  0  0  0  0  0
  -28.1570  -12.3430   18.7400 C   0  0  0  0  0  2  0  0  0  0  0  0
  -27.6820  -13.3520   19.8160 C   0  0  0  0  0  3  0  0  0  0  0  0
  -28.6950  -13.5000   20.9690 C   0  0  0  0  0  2  0  0  0  0  0  0
  -29.9700  -13.9390   20.3810 N   0  0  0  0  0  0  0  0  0  0  0  0
  -31.6690  -15.3170   20.0030 O   0  0  0  0  0  0  0  0  0  0  0  0
  -25.3060  -13.9610   20.5290 C   0  0  0  0  0  0  0  0  0  0  0  0
  -24.2220  -13.2040   20.8790 C   0  0  0  0  0  0  0  0  0  0  0  0
  -24.6630  -11.8450   20.8530 C   0  0  0  0  0  0  0  0  0  0  0  0
  -26.3360  -13.0650   20.2970 N   0  0  0  0  0  0  0  0  0  0  0  0
  -25.9590  -11.7860   20.5580 N   0  0  0  0  0  0  0  0  0  0  0  0
  -23.9110  -10.5960   21.0320 C   0  0  0  0  0  0  0  0  0  0  0  0
  -24.3080   -9.6200   21.9730 C   0  0  0  0  0  3  0  0  0  0  0  0
  -23.5550   -8.4380   22.1410 C   0  0  0  0  0  3  0  0  0  0  0  0
  -22.3890   -8.2230   21.3670 C   0  0  0  0  0  0  0  0  0  0  0  0
  -22.0110   -9.1860   20.4170 C   0  0  0  0  0  3  0  0  0  0  0  0
  -22.7640  -10.3600   20.2470 C   0  0  0  0  0  3  0  0  0  0  0  0
  -21.6100   -7.0930   21.4440 O   0  0  0  0  0  0  0  0  0  0  0  0
  -21.5240   -6.3540   22.5970 C   0  0  0  0  0  0  0  0  0  0  0  0
  -21.0530   -6.9120   23.8050 C   0  0  0  0  0  3  0  0  0  0  0  0
  -20.9140   -6.0990   24.9490 C   0  0  0  0  0  3  0  0  0  0  0  0
  -21.2370   -4.7300   24.8830 C   0  0  0  0  0  0  0  0  0  0  0  0
  -21.7000   -4.1720   23.6780 C   0  0  0  0  0  3  0  0  0  0  0  0
  -21.8410   -4.9820   22.5380 C   0  0  0  0  0  0  0  0  0  0  0  0
  -22.2680   -4.4350   21.3750 F   0  0  0  0  0  0  0  0  0  0  0  0
  -21.0960   -3.9470   25.9780 F   0  0  0  0  0  0  0  0  0  0  0  0
  -22.8300  -13.7070   21.1260 C   0  0  0  0  0  0  0  0  0  0  0  0
  -22.0810  -13.0380   21.9950 N   0  0  0  0  0  0  0  0  0  0  0  0
  -22.4150  -14.7300   20.5840 O   0  0  0  0  0  0  0  0  0  0  0  0
  -22.4320  -12.2130   22.4580 H   0  0  0  0  0  0  0  0  0  0  0  0
  -21.1440  -13.3560   22.2010 H   0  0  0  0  0  0  0  0  0  0  0  0
  -25.5000  -15.3280   20.3610 N   0  0  0  0  0  0  0  0  0  0  0  0
  -24.7570  -16.0060   20.4870 H   0  0  0  0  0  0  0  0  0  0  0  0
  -26.3880  -15.7470   20.1120 H   0  0  0  0  0  0  0  0  0  0  0  0
  -29.0920  -21.7160   17.1170 C   0  0  0  0  0  1  0  0  0  0  0  0
  -28.3210  -21.1610   18.3290 C   0  0  0  0  0  2  0  0  0  0  0  0
  -29.1290  -23.0950   19.9910 C   0  0  0  0  0  3  0  0  0  0  0  0
  -28.0760  -24.4760   19.7120 C   0  0  0  0  0  3  0  0  0  0  0  0
  -28.2840  -26.0640   19.9290 O   0  0  0  0  0  0  0  0  0  0  0  0
  -24.5270  -31.7280   23.0500 C   0  0  0  0  0  0  0  0  0  0  0  0
  -27.2310  -27.0900   19.8870 C   0  0  0  0  0  0  0  0  0  0  0  0
  -23.3790  -30.3700   21.3480 C   0  0  0  0  0  3  0  0  0  0  0  0
  -24.8780  -28.8620   19.8840 C   0  0  0  0  0  0  0  0  0  0  0  0
  -25.9360  -30.6660   21.2300 C   0  0  0  0  0  2  0  0  0  0  0  0
  -26.0470  -29.2880   20.5270 C   0  0  0  0  0  0  0  0  0  0  0  0
  -27.2190  -28.4220   20.5070 C   0  0  0  0  0  3  0  0  0  0  0  0
  -26.0290  -26.7910   19.2070 C   0  0  0  0  0  3  0  0  0  0  0  0
  -24.8880  -27.6320   19.2080 C   0  0  0  0  0  3  0  0  0  0  0  0
  -23.6350  -29.7440   19.9490 C   0  0  0  0  0  2  0  0  0  0  0  0
  -24.6340  -30.9460   21.9310 N   0  0  0  0  0  0  0  0  0  0  0  0
  -23.4270  -31.9720   23.5720 O   0  0  0  0  0  0  0  0  0  0  0  0
  -22.7030  -29.3190   22.2660 C   0  0  0  0  0  0  0  0  0  0  0  0
  -21.3730  -29.1550   22.1460 N   0  0  0  0  0  0  0  0  0  0  0  0
  -23.3820  -28.6530   23.0530 O   0  0  0  0  0  0  0  0  0  0  0  0
  -20.8790  -29.7440   21.4900 H   0  0  0  0  0  0  0  0  0  0  0  0
  -17.9900  -27.9570   22.6710 C   0  0  0  0  0  0  0  0  0  0  0  0
  -20.5600  -28.1780   22.8780 C   0  0  0  0  0  3  0  0  0  0  0  0
  -20.6270  -26.7850   22.2080 C   0  0  0  0  0  2  0  0  0  0  0  0
  -19.4920  -26.5430   21.2080 C   0  0  0  0  0  2  0  0  0  0  0  0
  -18.1310  -26.6560   21.9000 C   0  0  0  0  0  2  0  0  0  0  0  0
  -19.1290  -28.6800   23.1160 C   0  0  0  0  0  0  0  0  0  0  0  0
  -18.9400  -29.9000   23.8020 C   0  0  0  0  0  3  0  0  0  0  0  0
  -17.6450  -30.3970   24.0430 C   0  0  0  0  0  3  0  0  0  0  0  0
  -16.5210  -29.6720   23.6100 C   0  0  0  0  0  3  0  0  0  0  0  0
  -16.6950  -28.4540   22.9310 C   0  0  0  0  0  3  0  0  0  0  0  0
  -25.7780  -32.3710   23.7200 C   0  0  0  0  0  3  0  0  0  0  0  0
  -26.2730  -31.5820   24.9950 C   0  0  1  0  0  0  0  0  0  0  0  0
  -25.1590  -31.3180   26.0350 C   0  0  0  0  0  1  0  0  0  0  0  0
  -26.8780  -30.2170   24.5970 C   0  0  0  0  0  1  0  0  0  0  0  0
  -27.4010  -32.3760   25.6960 C   0  0  0  0  0  1  0  0  0  0  0  0
  -25.4340  -33.7560   24.0820 N   0  0  0  0  0  0  0  0  0  0  0  0
  -25.7460  -34.8400   23.3580 C   0  0  0  0  0  0  0  0  0  0  0  0
  -26.4180  -34.7770   22.3260 O   0  0  0  0  0  0  0  0  0  0  0  0
  -24.8350  -33.8740   24.8860 H   0  0  0  0  0  0  0  0  0  0  0  0
  -23.9840  -36.6120   23.0580 C   0  0  0  0  0  1  0  0  0  0  0  0
  -25.2340  -36.2060   23.8560 C   0  0  0  0  0  3  0  0  0  0  0  0
  -27.3460  -37.1180   24.7160 C   0  0  0  0  0  1  0  0  0  0  0  0
  -26.2460  -37.2830   23.7690 N   0  0  0  0  0  0  0  0  0  0  0  0
  -25.8210  -38.1920   23.9310 H   0  0  0  0  0  0  0  0  0  0  0  0
  1  7  2  0
  1  4  1  0
  2  8  2  0
  3  2  1  0
  3  1  1  0
  4  5  1  0
  6 46  1  6
  6  2  1  0
  6 47  1  0
  6  5  1  0
  9 15  1  0
  9  7  1  0
 10 15  1  0
 11 12  1  0
 11 10  1  0
 13 12  1  0
 13 20  1  0
 13 14  1  0
 15 14  1  0
 16  9  2  0
 17 18  2  0
 18 37  1  0
 19 18  1  0
 19 22  1  0
 20 17  1  0
 20 21  1  0
 21 19  2  0
 22 23  1  0
 23 24  2  0
 25 28  1  0
 25 24  1  0
 26 25  2  0
 27 26  1  0
 27 22  2  0
 28 29  1  0
 29 30  1  0
 30 31  2  0
 32 31  1  0
 32 36  1  0
 33 32  2  0
 34 29  2  0
 34 33  1  0
 35 34  1  0
 37 38  1  0
 38 41  1  0
 38 40  1  0
 39 37  2  0
 42 43  1  0
 42 17  1  0
 44 42  1  0
 45 46  1  0
 48 49  1  0
 48 47  2  0
 50 61  2  0
 51 49  1  0
 51 56  1  0
 52 60  1  0
 52 62  1  0
 53 59  1  0
 53 55  1  0
 54 60  1  0
 55 54  1  0
 56 55  2  0
 57 58  1  0
 57 51  2  0
 58 53  2  0
 59 52  1  0
 60 50  1  0
 62 64  2  0
 63 62  1  0
 65 63  1  0
 66 75  2  0
 66 71  1  0
 67 63  1  0
 67 71  1  0
 68 67  1  0
 69 70  1  0
 69 68  1  0
 70 66  1  0
 71 72  2  0
 72 73  1  0
 74 73  2  0
 75 74  1  0
 76 50  1  0
 76 81  1  0
 76 77  1  0
 77 80  1  1
 77 78  1  0
 79 77  1  0
 81 84  1  0
 82 86  1  0
 82 81  1  0
 83 82  2  0
 86 85  1  0
 88 86  1  0
 88 89  1  0
 88 87  1  0
M  ISO  4   7 100   9 100  48 101  49 101
M  END
>  <TORSDO>  (25) 
F 19

>  <SCORE>  (25) 
-14.898

>  <name>  (25) 
26

>  <ligand_id>  (25) 
26

>  <original_smiles>  (25) 
[H]c1c([H])c([H])c2c(c1[H])C([H])([H])C([H])([H])C([H])([H])C2([H])N([H])C(=O)C1([H])N(C(=O)C([H])(N([H])C(=O)C([H])(N([H])C([H])([H])[H])C([H])([H])[H])C(C([H])([H])[H])(C([H])([H])[H])C([H])([H])[H])C([H])([H])c2c([H])c(OC([H])([H])C([H])([H])C3(C([H])([H])C([H])([H])[H])C(=O)C([H])([H])C(=NC(=O)N4C([H])([H])C([H])([H])C([H])([H])C([H])(n5nc(-c6c([H])c([H])c(Oc7c([H])c([H])c(F)c([H])c7F)c([H])c6[H])c(C(=O)N([H])[H])c5N([H])[H])C4([H])[H])C([H])([H])C3([H])[H])c([H])c([H])c2C1([H])[H]

>  <smiles>  (25) 
[H]c1c([H])c([H])c2c(c1[H])C([H])([H])C([H])([H])C([H])([H])C2([H])N([H])C(=O)C1([H])N(C(=O)C([H])(N([H])C(=O)C([H])(N([H])C([H])([H])[H])C([H])([H])[H])C(C([H])([H])[H])(C([H])([H])[H])C([H])([H])[H])C([H])([H])c2c([H])c(OC([H])([H])C([H])([H])C3(C([H])([H])C([H])([H])[H])C(=O)C([H])([H])C(=NC(=O)N4C([H])([H])C([H])([H])C([H])([H])C([H])(n5nc(-c6c([H])c([H])c(Oc7c([H])c([H])c(F)c([H])c7F)c([H])c6[H])c(C(=O)N([H])[H])c5N([H])[H])C4([H])[H])C([H])([H])C3([H])[H])c([H])c([H])c2C1([H])[H]

$$$$
27:0:0
     RDKit          3D

 93101  0  0  1  0  0  0  0  0999 V2000
  -28.2700  -19.2120   19.2870 C   0  0  0  0  0  0  0  0  0  0  0  0
  -29.2260  -19.2790   20.2520 C   0  0  0  0  0  0  0  0  0  0  0  0
  -28.6070  -22.1000   20.3710 C   0  0  0  0  0  0  0  0  0  0  0  0
  -28.8740  -23.4990   20.4850 C   0  0  0  0  0  3  0  0  0  0  0  0
  -27.4200  -20.4110   18.8340 C   0  0  0  0  0  2  0  0  0  0  0  0
  -29.4780  -20.7900   20.8410 C   0  0  0  0  0  2  0  0  0  0  0  0
  -27.2810  -21.6060   19.8140 C   0  0  0  0  0  2  0  0  0  0  0  0
  -28.0250  -17.9710   18.5750 C   0  0  0  0  0  0  0  0  0  0  0  0
  -28.6470  -17.9220   17.4070 N   0  0  0  0  0  0  0  0  0  0  0  0
  -27.3130  -17.0510   18.9520 O   0  0  0  0  0  0  0  0  0  0  0  0
  -29.2190  -18.6950   17.1050 H   0  0  0  0  0  0  0  0  0  0  0  0
  -28.5200  -17.1240   16.8010 H   0  0  0  0  0  0  0  0  0  0  0  0
  -30.1650  -17.9710   20.6990 C   0  0  0  0  0  2  0  0  0  0  0  0
  -30.6410  -15.2380   20.5810 C   0  0  0  0  0  0  0  0  0  0  0  0
  -30.6130  -12.8940   19.6190 C   0  0  0  0  0  2  0  0  0  0  0  0
  -29.7200  -12.8410   18.3560 C   0  0  0  0  0  2  0  0  0  0  0  0
  -28.2470  -12.6020   18.7420 C   0  0  0  0  0  2  0  0  0  0  0  0
  -27.7830  -13.5010   19.9180 C   0  0  0  0  0  3  0  0  0  0  0  0
  -28.8050  -13.5170   21.0750 C   0  0  0  0  0  2  0  0  0  0  0  0
  -30.0770  -13.9660   20.5030 N   0  0  0  0  0  0  0  0  0  0  0  0
  -31.8590  -15.3180   20.3890 O   0  0  0  0  0  0  0  0  0  0  0  0
  -29.8300  -16.4120   20.6650 N   0  0  0  0  0  0  0  0  0  0  0  0
  -28.8410  -16.2100   20.7380 H   0  0  0  0  0  0  0  0  0  0  0  0
  -25.3630  -14.0110   20.5740 C   0  0  0  0  0  0  0  0  0  0  0  0
  -24.3080  -13.2120   20.9060 C   0  0  0  0  0  0  0  0  0  0  0  0
  -24.8140  -11.8760   20.9030 C   0  0  0  0  0  0  0  0  0  0  0  0
  -26.4390  -13.1670   20.3720 N   0  0  0  0  0  0  0  0  0  0  0  0
  -26.1160  -11.8760   20.6410 N   0  0  0  0  0  0  0  0  0  0  0  0
  -24.1170  -10.6000   21.0730 C   0  0  0  0  0  0  0  0  0  0  0  0
  -24.5270   -9.6560   22.0400 C   0  0  0  0  0  3  0  0  0  0  0  0
  -23.8230   -8.4440   22.1970 C   0  0  0  0  0  3  0  0  0  0  0  0
  -22.6970   -8.1680   21.3860 C   0  0  0  0  0  0  0  0  0  0  0  0
  -22.3060   -9.1020   20.4090 C   0  0  0  0  0  3  0  0  0  0  0  0
  -23.0130  -10.3050   20.2500 C   0  0  0  0  0  3  0  0  0  0  0  0
  -21.9640   -7.0070   21.4530 O   0  0  0  0  0  0  0  0  0  0  0  0
  -21.8580   -6.2890   22.6170 C   0  0  0  0  0  0  0  0  0  0  0  0
  -21.2820   -6.8400   23.7840 C   0  0  0  0  0  3  0  0  0  0  0  0
  -21.1310   -6.0440   24.9360 C   0  0  0  0  0  3  0  0  0  0  0  0
  -21.5420   -4.6970   24.9220 C   0  0  0  0  0  0  0  0  0  0  0  0
  -22.1120   -4.1470   23.7610 C   0  0  0  0  0  3  0  0  0  0  0  0
  -22.2650   -4.9390   22.6100 C   0  0  0  0  0  0  0  0  0  0  0  0
  -22.7930   -4.3980   21.4860 F   0  0  0  0  0  0  0  0  0  0  0  0
  -21.3920   -3.9300   26.0260 F   0  0  0  0  0  0  0  0  0  0  0  0
  -22.8900  -13.6570   21.1070 C   0  0  0  0  0  0  0  0  0  0  0  0
  -22.1420  -12.9530   21.9490 N   0  0  0  0  0  0  0  0  0  0  0  0
  -22.4500  -14.6640   20.5550 O   0  0  0  0  0  0  0  0  0  0  0  0
  -22.5120  -12.1360   22.4150 H   0  0  0  0  0  0  0  0  0  0  0  0
  -21.1910  -13.2360   22.1330 H   0  0  0  0  0  0  0  0  0  0  0  0
  -25.4660  -15.3810   20.3970 N   0  0  0  0  0  0  0  0  0  0  0  0
  -24.6260  -15.9470   20.4190 H   0  0  0  0  0  0  0  0  0  0  0  0
  -26.1980  -15.8300   19.8420 H   0  0  0  0  0  0  0  0  0  0  0  0
  -27.9740  -24.8250   20.0810 C   0  0  0  0  0  2  0  0  0  0  0  0
  -28.3070  -26.3300   20.3540 O   0  0  0  0  0  0  0  0  0  0  0  0
  -24.6510  -32.0300   23.3210 C   0  0  0  0  0  0  0  0  0  0  0  0
  -27.2710  -27.3370   20.2810 C   0  0  0  0  0  0  0  0  0  0  0  0
  -23.4720  -30.6340   21.6710 C   0  0  0  0  0  3  0  0  0  0  0  0
  -24.9370  -29.0830   20.2400 C   0  0  0  0  0  0  0  0  0  0  0  0
  -26.0260  -30.9190   21.5180 C   0  0  0  0  0  2  0  0  0  0  0  0
  -26.1120  -29.5280   20.8620 C   0  0  0  0  0  0  0  0  0  0  0  0
  -27.2790  -28.6700   20.8650 C   0  0  0  0  0  3  0  0  0  0  0  0
  -26.0710  -27.0090   19.6090 C   0  0  0  0  0  3  0  0  0  0  0  0
  -24.9320  -27.8380   19.5990 C   0  0  0  0  0  3  0  0  0  0  0  0
  -23.7020  -29.9670   20.2890 C   0  0  0  0  0  2  0  0  0  0  0  0
  -24.7370  -31.2170   22.2240 N   0  0  0  0  0  0  0  0  0  0  0  0
  -23.5610  -32.2990   23.8480 O   0  0  0  0  0  0  0  0  0  0  0  0
  -22.7970  -29.6170   22.6270 C   0  0  0  0  0  0  0  0  0  0  0  0
  -21.4770  -29.4050   22.4710 N   0  0  0  0  0  0  0  0  0  0  0  0
  -23.4660  -29.0160   23.4700 O   0  0  0  0  0  0  0  0  0  0  0  0
  -20.9880  -29.9440   21.7690 H   0  0  0  0  0  0  0  0  0  0  0  0
  -18.1180  -28.1340   22.9340 C   0  0  0  0  0  0  0  0  0  0  0  0
  -20.6660  -28.4550   23.2350 C   0  0  0  0  0  3  0  0  0  0  0  0
  -20.8090  -27.0220   22.6710 C   0  0  0  0  0  2  0  0  0  0  0  0
  -19.7300  -26.6710   21.6410 C   0  0  0  0  0  2  0  0  0  0  0  0
  -18.3360  -26.7880   22.2640 C   0  0  0  0  0  2  0  0  0  0  0  0
  -19.2140  -28.9230   23.3750 C   0  0  0  0  0  0  0  0  0  0  0  0
  -18.9550  -30.1830   23.9580 C   0  0  0  0  0  3  0  0  0  0  0  0
  -17.6340  -30.6520   24.1050 C   0  0  0  0  0  3  0  0  0  0  0  0
  -16.5560  -29.8610   23.6770 C   0  0  0  0  0  3  0  0  0  0  0  0
  -16.7970  -28.6050   23.0960 C   0  0  0  0  0  3  0  0  0  0  0  0
  -25.9200  -32.6800   23.9530 C   0  0  0  0  0  3  0  0  0  0  0  0
  -26.4220  -31.9250   25.2460 C   0  0  1  0  0  0  0  0  0  0  0  0
  -25.3090  -31.6650   26.2870 C   0  0  0  0  0  1  0  0  0  0  0  0
  -27.0480  -30.5610   24.8770 C   0  0  0  0  0  1  0  0  0  0  0  0
  -27.5360  -32.7490   25.9310 C   0  0  0  0  0  1  0  0  0  0  0  0
  -25.6020  -34.0830   24.2670 N   0  0  0  0  0  0  0  0  0  0  0  0
  -25.9190  -35.1340   23.5000 C   0  0  0  0  0  0  0  0  0  0  0  0
  -26.5810  -35.0260   22.4650 O   0  0  0  0  0  0  0  0  0  0  0  0
  -25.0220  -34.2430   25.0780 H   0  0  0  0  0  0  0  0  0  0  0  0
  -24.1760  -36.9120   23.1470 C   0  0  0  0  0  1  0  0  0  0  0  0
  -25.4240  -36.5210   23.9540 C   0  0  0  0  0  3  0  0  0  0  0  0
  -27.5550  -37.4340   24.7650 C   0  0  0  0  0  1  0  0  0  0  0  0
  -26.4450  -37.5840   23.8290 N   0  0  0  0  0  0  0  0  0  0  0  0
  -26.0300  -38.5000   23.9710 H   0  0  0  0  0  0  0  0  0  0  0  0
  1  2  2  0
  2 13  1  0
  2  6  1  0
  3  4  2  0
  3  6  1  0
  5  1  1  0
  5  7  1  0
  7  3  1  0
  8 10  2  0
  8  1  1  0
  9  8  1  0
 11  9  1  0
 12  9  1  0
 14 22  1  0
 15 20  1  0
 16 17  1  0
 16 15  1  0
 18 17  1  0
 18 27  1  0
 18 19  1  0
 20 14  1  0
 20 19  1  0
 21 14  2  0
 22 13  1  0
 22 23  1  0
 24 25  2  0
 25 44  1  0
 26 25  1  0
 26 29  1  0
 27 24  1  0
 27 28  1  0
 28 26  2  0
 29 30  1  0
 30 31  2  0
 32 35  1  0
 32 31  1  0
 33 32  2  0
 34 33  1  0
 34 29  2  0
 35 36  1  0
 36 37  1  0
 37 38  2  0
 39 38  1  0
 39 43  1  0
 40 39  2  0
 41 36  2  0
 41 40  1  0
 42 41  1  0
 44 45  1  0
 45 48  1  0
 45 47  1  0
 46 44  2  0
 49 50  1  0
 49 24  1  0
 51 49  1  0
 52 53  1  0
 52  4  1  0
 54 65  2  0
 55 53  1  0
 55 60  1  0
 56 64  1  0
 56 66  1  0
 57 63  1  0
 57 59  1  0
 58 64  1  0
 59 60  2  0
 59 58  1  0
 61 55  2  0
 62 61  1  0
 62 57  2  0
 63 56  1  0
 64 54  1  0
 66 68  2  0
 67 66  1  0
 69 67  1  0
 70 79  2  0
 70 75  1  0
 71 67  1  0
 71 75  1  0
 72 71  1  0
 73 74  1  0
 73 72  1  0
 74 70  1  0
 75 76  2  0
 76 77  1  0
 78 77  2  0
 79 78  1  0
 80 54  1  0
 80 85  1  0
 80 81  1  0
 81 84  1  1
 81 82  1  0
 83 81  1  0
 85 88  1  0
 86 90  1  0
 86 85  1  0
 87 86  2  0
 90 89  1  0
 92 90  1  0
 92 93  1  0
 92 91  1  0
M  ISO  4  14 100  22 100  52 101  53 101
M  END
>  <TORSDO>  (26) 
F 19

>  <SCORE>  (26) 
-14.459

>  <name>  (26) 
27

>  <ligand_id>  (26) 
27

>  <original_smiles>  (26) 
[H]C(=C1C([H])([H])C(C([H])([H])N([H])C(=O)N2C([H])([H])C([H])([H])C([H])([H])C([H])(n3nc(-c4c([H])c([H])c(Oc5c([H])c([H])c(F)c([H])c5F)c([H])c4[H])c(C(=O)N([H])[H])c3N([H])[H])C2([H])[H])=C(C(=O)N([H])[H])C([H])([H])C1([H])[H])C([H])([H])Oc1c([H])c([H])c2c(c1[H])C([H])([H])N(C(=O)C([H])(N([H])C(=O)C([H])(N([H])C([H])([H])[H])C([H])([H])[H])C(C([H])([H])[H])(C([H])([H])[H])C([H])([H])[H])C([H])(C(=O)N([H])C1([H])c3c([H])c([H])c([H])c([H])c3C([H])([H])C([H])([H])C1([H])[H])C2([H])[H]

>  <smiles>  (26) 
[H]C(=C1C([H])([H])C(C([H])([H])N([H])C(=O)N2C([H])([H])C([H])([H])C([H])([H])C([H])(n3nc(-c4c([H])c([H])c(Oc5c([H])c([H])c(F)c([H])c5F)c([H])c4[H])c(C(=O)N([H])[H])c3N([H])[H])C2([H])[H])=C(C(=O)N([H])[H])C([H])([H])C1([H])[H])C([H])([H])Oc1c([H])c([H])c2c(c1[H])C([H])([H])N(C(=O)C([H])(N([H])C(=O)C([H])(N([H])C([H])([H])[H])C([H])([H])[H])C(C([H])([H])[H])(C([H])([H])[H])C([H])([H])[H])C([H])(C(=O)N([H])C1([H])c3c([H])c([H])c([H])c([H])c3C([H])([H])C([H])([H])C1([H])[H])C2([H])[H]

$$$$
28:0:0
     RDKit          3D

 90 99  0  0  1  0  0  0  0  0999 V2000
  -30.6490  -15.4220   20.2930 C   0  0  0  0  0  0  0  0  0  0  0  0
  -30.6780  -12.9300   19.4900 C   0  0  0  0  0  2  0  0  0  0  0  0
  -29.8340  -12.6640   18.2180 C   0  0  0  0  0  2  0  0  0  0  0  0
  -28.3790  -12.3530   18.6040 C   0  0  0  0  0  2  0  0  0  0  0  0
  -27.8510  -13.3450   19.6710 C   0  0  0  0  0  3  0  0  0  0  0  0
  -28.8350  -13.5890   20.8350 C   0  0  0  0  0  2  0  0  0  0  0  0
  -30.0760  -14.1060   20.2350 N   0  0  0  0  0  0  0  0  0  0  0  0
  -31.8830  -15.3580   20.1670 O   0  0  0  0  0  0  0  0  0  0  0  0
  -30.3690  -18.0910   21.1380 C   0  0  0  0  0  2  0  0  0  0  0  0
  -29.2590  -17.7880   19.4570 C   0  0  0  0  0  3  0  0  0  0  0  0
  -29.8400  -19.2120   20.0510 C   0  0  0  0  0  3  0  0  0  0  0  0
  -29.9600  -16.7650   20.4180 N   0  0  0  0  0  0  0  0  0  0  0  0
  -24.9620  -18.3510   19.6100 C   0  0  0  0  0  3  0  0  0  0  0  0
  -25.6540  -18.5480   18.4000 C   0  0  0  0  0  3  0  0  0  0  0  0
  -25.6490  -17.8760   20.7450 C   0  0  0  0  0  3  0  0  0  0  0  0
  -27.0380  -18.2910   18.3290 C   0  0  0  0  0  3  0  0  0  0  0  0
  -27.0280  -17.5950   20.6640 C   0  0  0  0  0  3  0  0  0  0  0  0
  -27.7360  -17.8220   19.4620 C   0  0  0  0  0  0  0  0  0  0  0  0
  -25.4400  -13.8750   20.2620 C   0  0  0  0  0  0  0  0  0  0  0  0
  -24.3720  -13.1060   20.6200 C   0  0  0  0  0  0  0  0  0  0  0  0
  -24.8640  -11.7690   20.6960 C   0  0  0  0  0  0  0  0  0  0  0  0
  -26.5100  -13.0140   20.1290 N   0  0  0  0  0  0  0  0  0  0  0  0
  -26.1750  -11.7410   20.4610 N   0  0  0  0  0  0  0  0  0  0  0  0
  -24.1450  -10.5100   20.9140 C   0  0  0  0  0  0  0  0  0  0  0  0
  -24.5250   -9.6100   21.9330 C   0  0  0  0  0  3  0  0  0  0  0  0
  -23.8020   -8.4160   22.1360 C   0  0  0  0  0  3  0  0  0  0  0  0
  -22.6840   -8.1160   21.3230 C   0  0  0  0  0  0  0  0  0  0  0  0
  -22.3250   -9.0060   20.2950 C   0  0  0  0  0  3  0  0  0  0  0  0
  -23.0480  -10.1910   20.0900 C   0  0  0  0  0  3  0  0  0  0  0  0
  -21.9370   -6.9690   21.4340 O   0  0  0  0  0  0  0  0  0  0  0  0
  -21.8030   -6.3110   22.6300 C   0  0  0  0  0  0  0  0  0  0  0  0
  -21.2480   -6.9380   23.7670 C   0  0  0  0  0  3  0  0  0  0  0  0
  -21.0630   -6.2040   24.9560 C   0  0  0  0  0  3  0  0  0  0  0  0
  -21.4220   -4.8430   25.0080 C   0  0  0  0  0  0  0  0  0  0  0  0
  -21.9700   -4.2160   23.8750 C   0  0  0  0  0  3  0  0  0  0  0  0
  -22.1570   -4.9470   22.6890 C   0  0  0  0  0  0  0  0  0  0  0  0
  -22.6640   -4.3320   21.5950 F   0  0  0  0  0  0  0  0  0  0  0  0
  -21.2360   -4.1360   26.1470 F   0  0  0  0  0  0  0  0  0  0  0  0
  -22.9560  -13.5800   20.7730 C   0  0  0  0  0  0  0  0  0  0  0  0
  -22.1970  -12.9540   21.6670 N   0  0  0  0  0  0  0  0  0  0  0  0
  -22.5280  -14.5450   20.1400 O   0  0  0  0  0  0  0  0  0  0  0  0
  -22.5570  -12.1780   22.2000 H   0  0  0  0  0  0  0  0  0  0  0  0
  -21.2460  -13.2580   21.8200 H   0  0  0  0  0  0  0  0  0  0  0  0
  -25.5840  -15.2250   20.0050 N   0  0  0  0  0  0  0  0  0  0  0  0
  -24.8090  -15.8760   20.0510 H   0  0  0  0  0  0  0  0  0  0  0  0
  -26.4310  -15.6810   19.6870 H   0  0  0  0  0  0  0  0  0  0  0  0
  -28.9440  -20.8160   20.2460 C   0  0  0  0  0  2  0  0  0  0  0  0
  -29.2840  -22.6050   19.9960 C   0  0  0  0  0  3  0  0  0  0  0  0
  -28.2890  -24.1550   20.0620 C   0  0  0  0  0  3  0  0  0  0  0  0
  -28.5520  -25.8130   20.0600 O   0  0  0  0  0  0  0  0  0  0  0  0
  -24.9880  -31.6530   23.4080 C   0  0  0  0  0  0  0  0  0  0  0  0
  -27.5590  -26.9470   20.0870 C   0  0  0  0  0  0  0  0  0  0  0  0
  -23.8280  -30.4130   21.6280 C   0  0  0  0  0  3  0  0  0  0  0  0
  -25.2960  -28.8940   20.1290 C   0  0  0  0  0  0  0  0  0  0  0  0
  -26.4020  -30.5790   21.5790 C   0  0  0  0  0  2  0  0  0  0  0  0
  -26.4720  -29.2200   20.8140 C   0  0  0  0  0  0  0  0  0  0  0  0
  -27.5990  -28.2710   20.7640 C   0  0  0  0  0  3  0  0  0  0  0  0
  -26.3510  -26.7890   19.3690 C   0  0  0  0  0  3  0  0  0  0  0  0
  -25.2620  -27.7020   19.3880 C   0  0  0  0  0  3  0  0  0  0  0  0
  -24.0940  -29.8360   20.2090 C   0  0  0  0  0  2  0  0  0  0  0  0
  -25.0930  -30.9060   22.2610 N   0  0  0  0  0  0  0  0  0  0  0  0
  -23.8870  -31.9230   23.9150 O   0  0  0  0  0  0  0  0  0  0  0  0
  -23.0840  -29.3590   22.4900 C   0  0  0  0  0  0  0  0  0  0  0  0
  -21.7530  -29.2340   22.3150 N   0  0  0  0  0  0  0  0  0  0  0  0
  -23.7110  -28.6540   23.2850 O   0  0  0  0  0  0  0  0  0  0  0  0
  -21.3010  -29.8370   21.6430 H   0  0  0  0  0  0  0  0  0  0  0  0
  -18.3220  -28.1130   22.7080 C   0  0  0  0  0  0  0  0  0  0  0  0
  -20.8900  -28.2550   22.9870 C   0  0  0  0  0  3  0  0  0  0  0  0
  -20.9410  -26.8840   22.2720 C   0  0  0  0  0  2  0  0  0  0  0  0
  -19.8190  -26.6830   21.2470 C   0  0  0  0  0  2  0  0  0  0  0  0
  -18.4470  -26.8290   21.9110 C   0  0  0  0  0  2  0  0  0  0  0  0
  -19.4680  -28.7900   23.2050 C   0  0  0  0  0  0  0  0  0  0  0  0
  -19.2930  -29.9870   23.9310 C   0  0  0  0  0  3  0  0  0  0  0  0
  -18.0080  -30.5100   24.1630 C   0  0  0  0  0  3  0  0  0  0  0  0
  -16.8780  -29.8330   23.6740 C   0  0  0  0  0  3  0  0  0  0  0  0
  -17.0350  -28.6370   22.9530 C   0  0  0  0  0  3  0  0  0  0  0  0
  -26.2470  -32.2200   24.1300 C   0  0  0  0  0  3  0  0  0  0  0  0
  -26.7040  -31.3400   25.3600 C   0  0  1  0  0  0  0  0  0  0  0  0
  -25.5680  -31.0450   26.3680 C   0  0  0  0  0  1  0  0  0  0  0  0
  -27.2770  -29.9830   24.8890 C   0  0  0  0  0  1  0  0  0  0  0  0
  -27.8430  -32.0560   26.1220 C   0  0  0  0  0  1  0  0  0  0  0  0
  -25.9360  -33.5900   24.5780 N   0  0  0  0  0  0  0  0  0  0  0  0
  -26.2790  -34.7080   23.9240 C   0  0  0  0  0  0  0  0  0  0  0  0
  -26.9540  -34.6940   22.8920 O   0  0  0  0  0  0  0  0  0  0  0  0
  -25.3370  -33.6740   25.3850 H   0  0  0  0  0  0  0  0  0  0  0  0
  -24.5610  -36.5400   23.7480 C   0  0  0  0  0  1  0  0  0  0  0  0
  -25.8050  -36.0550   24.5080 C   0  0  0  0  0  3  0  0  0  0  0  0
  -27.9440  -36.8630   25.4060 C   0  0  0  0  0  1  0  0  0  0  0  0
  -26.8420  -37.1100   24.4800 N   0  0  0  0  0  0  0  0  0  0  0  0
  -26.4380  -38.0160   24.7010 H   0  0  0  0  0  0  0  0  0  0  0  0
  1 12  1  0
  2  7  1  0
  3  4  1  0
  3  2  1  0
  5  4  1  0
  5 22  1  0
  5  6  1  0
  7  1  1  0
  7  6  1  0
  8  1  2  0
 10 18  1  0
 10 11  1  0
 10 12  1  0
 11 47  1  0
 11  9  1  0
 12  9  1  0
 13 15  1  0
 14 13  2  0
 16 14  1  0
 16 18  2  0
 17 15  2  0
 18 17  1  0
 19 20  2  0
 20 21  1  0
 20 39  1  0
 21 24  1  0
 22 19  1  0
 22 23  1  0
 23 21  2  0
 24 25  1  0
 25 26  2  0
 27 30  1  0
 27 26  1  0
 28 27  2  0
 29 28  1  0
 29 24  2  0
 30 31  1  0
 31 36  2  0
 31 32  1  0
 32 33  2  0
 33 34  1  0
 34 38  1  0
 35 34  2  0
 36 35  1  0
 37 36  1  0
 39 40  1  0
 40 43  1  0
 40 42  1  0
 41 39  2  0
 44 45  1  0
 44 19  1  0
 46 44  1  0
 48 49  2  0
 48 47  1  0
 50 49  1  0
 50 52  1  0
 51 62  2  0
 52 57  1  0
 53 61  1  0
 53 63  1  0
 54 60  1  0
 54 56  1  0
 55 61  1  0
 56 55  1  0
 57 56  2  0
 58 59  1  0
 58 52  2  0
 59 54  2  0
 60 53  1  0
 61 51  1  0
 63 65  2  0
 64 63  1  0
 66 64  1  0
 67 76  2  0
 67 72  1  0
 68 64  1  0
 68 72  1  0
 69 68  1  0
 70 71  1  0
 70 69  1  0
 71 67  1  0
 72 73  2  0
 73 74  1  0
 75 74  2  0
 76 75  1  0
 77 51  1  0
 77 82  1  0
 77 78  1  0
 78 81  1  1
 78 79  1  0
 80 78  1  0
 82 85  1  0
 83 87  1  0
 83 82  1  0
 84 83  2  0
 87 86  1  0
 89 87  1  0
 89 90  1  0
 89 88  1  0
M  ISO  4   1 100  12 100  49 101  50 101
M  END
>  <TORSDO>  (27) 
F 19

>  <SCORE>  (27) 
-10.991

>  <name>  (27) 
28

>  <ligand_id>  (27) 
28

>  <original_smiles>  (27) 
[H]c1c([H])c([H])c(C2([H])N(C(=O)N3C([H])([H])C([H])([H])C([H])([H])C([H])(n4nc(-c5c([H])c([H])c(Oc6c([H])c([H])c(F)c([H])c6F)c([H])c5[H])c(C(=O)N([H])[H])c4N([H])[H])C3([H])[H])C([H])([H])C2([H])C([H])([H])C([H])([H])C([H])([H])Oc2c([H])c([H])c3c(c2[H])C([H])([H])N(C(=O)C([H])(N([H])C(=O)C([H])(N([H])C([H])([H])[H])C([H])([H])[H])C(C([H])([H])[H])(C([H])([H])[H])C([H])([H])[H])C([H])(C(=O)N([H])C2([H])c4c([H])c([H])c([H])c([H])c4C([H])([H])C([H])([H])C2([H])[H])C3([H])[H])c([H])c1[H]

>  <smiles>  (27) 
[H]c1c([H])c([H])c(C2([H])N(C(=O)N3C([H])([H])C([H])([H])C([H])([H])C([H])(n4nc(-c5c([H])c([H])c(Oc6c([H])c([H])c(F)c([H])c6F)c([H])c5[H])c(C(=O)N([H])[H])c4N([H])[H])C3([H])[H])C([H])([H])C2([H])C([H])([H])C([H])([H])C([H])([H])Oc2c([H])c([H])c3c(c2[H])C([H])([H])N(C(=O)C([H])(N([H])C(=O)C([H])(N([H])C([H])([H])[H])C([H])([H])[H])C(C([H])([H])[H])(C([H])([H])[H])C([H])([H])[H])C([H])(C(=O)N([H])C2([H])c4c([H])c([H])c([H])c([H])c4C([H])([H])C([H])([H])C2([H])[H])C3([H])[H])c([H])c1[H]

$$$$
29:0:0
     RDKit          3D

 95104  0  0  1  0  0  0  0  0999 V2000
  -30.1220  -21.8620   19.4340 C   0  0  0  0  0  3  0  0  0  0  0  0
  -27.8630  -21.7790   20.2440 C   0  0  0  0  0  3  0  0  0  0  0  0
  -30.0170  -23.2850   19.3370 C   0  0  0  0  0  3  0  0  0  0  0  0
  -27.7700  -23.2070   20.1630 C   0  0  0  0  0  3  0  0  0  0  0  0
  -29.0340  -21.0590   19.8610 C   0  0  0  0  0  0  0  0  0  0  0  0
  -28.8330  -24.0050   19.6620 C   0  0  0  0  0  0  0  0  0  0  0  0
  -28.6980  -25.4930   19.2860 C   0  0  0  0  0  0  0  0  0  0  0  0
  -29.0030  -25.9210   18.1340 N   0  0  0  0  0  0  0  0  0  0  0  0
  -28.8880  -26.9280   18.0780 H   0  0  0  0  0  0  0  0  0  0  0  0
  -28.3060  -26.4050   20.2730 O   0  0  0  0  0  0  0  0  0  0  0  0
  -24.6540  -31.8570   23.1940 C   0  0  0  0  0  0  0  0  0  0  0  0
  -27.2110  -27.2740   20.1380 C   0  0  0  0  0  0  0  0  0  0  0  0
  -23.4240  -30.4580   21.5690 C   0  0  0  0  0  3  0  0  0  0  0  0
  -24.8530  -28.8910   20.1370 C   0  0  0  0  0  0  0  0  0  0  0  0
  -25.9610  -30.7620   21.3600 C   0  0  0  0  0  2  0  0  0  0  0  0
  -26.0270  -29.3790   20.7220 C   0  0  0  0  0  0  0  0  0  0  0  0
  -27.2050  -28.5770   20.7220 C   0  0  0  0  0  3  0  0  0  0  0  0
  -26.0120  -26.8310   19.5360 C   0  0  0  0  0  3  0  0  0  0  0  0
  -24.8450  -27.6220   19.5370 C   0  0  0  0  0  3  0  0  0  0  0  0
  -23.6210  -29.7720   20.1910 C   0  0  0  0  0  2  0  0  0  0  0  0
  -24.6990  -31.0420   22.1000 N   0  0  0  0  0  0  0  0  0  0  0  0
  -23.5790  -32.1490   23.7370 O   0  0  0  0  0  0  0  0  0  0  0  0
  -22.7610  -29.4550   22.5420 C   0  0  0  0  0  0  0  0  0  0  0  0
  -21.4330  -29.2900   22.4270 N   0  0  0  0  0  0  0  0  0  0  0  0
  -23.4400  -28.8250   23.3580 O   0  0  0  0  0  0  0  0  0  0  0  0
  -20.9450  -29.8480   21.7410 H   0  0  0  0  0  0  0  0  0  0  0  0
  -18.0490  -28.1270   22.9500 C   0  0  0  0  0  0  0  0  0  0  0  0
  -20.6110  -28.3660   23.2100 C   0  0  0  0  0  3  0  0  0  0  0  0
  -20.7000  -26.9290   22.6470 C   0  0  0  0  0  2  0  0  0  0  0  0
  -19.5910  -26.6080   21.6390 C   0  0  0  0  0  2  0  0  0  0  0  0
  -18.2120  -26.7700   22.2860 C   0  0  0  0  0  2  0  0  0  0  0  0
  -19.1760  -28.8830   23.3690 C   0  0  0  0  0  0  0  0  0  0  0  0
  -18.9720  -30.1530   23.9500 C   0  0  0  0  0  3  0  0  0  0  0  0
  -17.6730  -30.6680   24.1170 C   0  0  0  0  0  3  0  0  0  0  0  0
  -16.5600  -29.9110   23.7160 C   0  0  0  0  0  3  0  0  0  0  0  0
  -16.7480  -28.6420   23.1370 C   0  0  0  0  0  3  0  0  0  0  0  0
  -25.9480  -32.4810   23.8030 C   0  0  0  0  0  3  0  0  0  0  0  0
  -25.6480  -33.8750   24.1590 N   0  0  0  0  0  0  0  0  0  0  0  0
  -25.9660  -34.9380   23.4090 C   0  0  0  0  0  0  0  0  0  0  0  0
  -26.6130  -34.8500   22.3620 O   0  0  0  0  0  0  0  0  0  0  0  0
  -25.0730  -34.0200   24.9770 H   0  0  0  0  0  0  0  0  0  0  0  0
  -24.2290  -36.7340   23.1180 C   0  0  0  0  0  1  0  0  0  0  0  0
  -25.4880  -36.3190   23.8970 C   0  0  0  0  0  3  0  0  0  0  0  0
  -27.6350  -37.1970   24.6980 C   0  0  0  0  0  1  0  0  0  0  0  0
  -26.5160  -37.3740   23.7770 N   0  0  0  0  0  0  0  0  0  0  0  0
  -26.1110  -38.2910   23.9460 H   0  0  0  0  0  0  0  0  0  0  0  0
  -26.4890  -31.6910   25.0560 C   0  0  1  0  0  0  0  0  0  0  0  0
  -25.4140  -31.4320   26.1380 C   0  0  0  0  0  1  0  0  0  0  0  0
  -27.0680  -30.3220   24.6290 C   0  0  0  0  0  1  0  0  0  0  0  0
  -27.6480  -32.4770   25.7130 C   0  0  0  0  0  1  0  0  0  0  0  0
  -29.0020  -19.5350   19.6250 C   0  0  0  0  0  0  0  0  0  0  0  0
  -28.3060  -19.1220   18.6910 O   0  0  0  0  0  0  0  0  0  0  0  0
  -30.5240  -17.3080   19.8050 C   0  0  0  0  0  2  0  0  0  0  0  0
  -28.9060  -16.1980   21.1610 C   0  0  0  0  0  2  0  0  0  0  0  0
  -29.7060  -18.4390   20.5410 C   0  0  0  0  0  3  0  0  0  0  0  0
  -30.3330  -15.9690   20.6150 C   0  0  0  0  0  3  0  0  0  0  0  0
  -28.6040  -17.6630   21.1550 N   0  0  0  0  0  4  0  0  0  0  0  0
  -28.4110  -18.0100   22.0810 H   0  0  0  0  0  0  0  0  0  0  0  0
  -27.7890  -17.8370   20.5840 H   0  0  0  0  0  0  0  0  0  0  0  0
  -30.7850  -14.6110   19.8900 C   0  0  0  0  0  0  0  0  0  0  0  0
  -30.4340  -12.3860   18.8070 C   0  0  0  0  0  2  0  0  0  0  0  0
  -29.4050  -12.4990   17.6610 C   0  0  0  0  0  2  0  0  0  0  0  0
  -27.9720  -12.3290   18.2020 C   0  0  0  0  0  2  0  0  0  0  0  0
  -27.7090  -13.2020   19.4540 C   0  0  0  0  0  3  0  0  0  0  0  0
  -28.8470  -13.0480   20.4920 C   0  0  0  0  0  2  0  0  0  0  0  0
  -30.1050  -13.4130   19.8280 N   0  0  0  0  0  0  0  0  0  0  0  0
  -31.8650  -14.6970   19.2980 O   0  0  0  0  0  0  0  0  0  0  0  0
  -25.3960  -13.8200   20.3900 C   0  0  0  0  0  0  0  0  0  0  0  0
  -24.3530  -13.0530   20.8350 C   0  0  0  0  0  0  0  0  0  0  0  0
  -24.7840  -11.6970   20.7150 C   0  0  0  0  0  0  0  0  0  0  0  0
  -26.4000  -12.9310   20.0400 N   0  0  0  0  0  0  0  0  0  0  0  0
  -26.0420  -11.6470   20.2940 N   0  0  0  0  0  0  0  0  0  0  0  0
  -24.0500  -10.4410   20.9150 C   0  0  0  0  0  0  0  0  0  0  0  0
  -24.4900   -9.4690   21.8390 C   0  0  0  0  0  3  0  0  0  0  0  0
  -23.7570   -8.2780   22.0290 C   0  0  0  0  0  3  0  0  0  0  0  0
  -22.5690   -8.0510   21.2940 C   0  0  0  0  0  0  0  0  0  0  0  0
  -22.1480   -9.0120   20.3580 C   0  0  0  0  0  3  0  0  0  0  0  0
  -22.8820  -10.1950   20.1670 C   0  0  0  0  0  3  0  0  0  0  0  0
  -21.8080   -6.9120   21.3930 O   0  0  0  0  0  0  0  0  0  0  0  0
  -21.7090   -6.2140   22.5690 C   0  0  0  0  0  0  0  0  0  0  0  0
  -21.2240   -6.8110   23.7540 C   0  0  0  0  0  3  0  0  0  0  0  0
  -21.0730   -6.0390   24.9220 C   0  0  0  0  0  3  0  0  0  0  0  0
  -21.3970   -4.6690   24.9080 C   0  0  0  0  0  0  0  0  0  0  0  0
  -21.8730   -4.0700   23.7290 C   0  0  0  0  0  3  0  0  0  0  0  0
  -22.0260   -4.8390   22.5620 C   0  0  0  0  0  0  0  0  0  0  0  0
  -22.4670   -4.2540   21.4230 F   0  0  0  0  0  0  0  0  0  0  0  0
  -21.2450   -3.9250   26.0280 F   0  0  0  0  0  0  0  0  0  0  0  0
  -22.9940  -13.5450   21.2370 C   0  0  0  0  0  0  0  0  0  0  0  0
  -22.3210  -12.8320   22.1340 N   0  0  0  0  0  0  0  0  0  0  0  0
  -22.5390  -14.5950   20.7870 O   0  0  0  0  0  0  0  0  0  0  0  0
  -22.7020  -11.9800   22.5180 H   0  0  0  0  0  0  0  0  0  0  0  0
  -21.4090  -13.1430   22.4380 H   0  0  0  0  0  0  0  0  0  0  0  0
  -25.5540  -15.1920   20.2200 N   0  0  0  0  0  0  0  0  0  0  0  0
  -24.6830  -15.7130   20.2510 H   0  0  0  0  0  0  0  0  0  0  0  0
  -26.1250  -15.4820   19.4360 H   0  0  0  0  0  0  0  0  0  0  0  0
  1  5  1  0
  3  1  2  0
  3  6  1  0
  4  2  1  0
  5  2  2  0
  6  4  2  0
  7  6  1  0
  7 10  1  0
  8  7  2  0
  9  8  1  0
 11 22  2  0
 12 10  1  0
 12 17  1  0
 13 21  1  0
 13 23  1  0
 14 20  1  0
 14 16  1  0
 15 21  1  0
 16 15  1  0
 17 16  2  0
 18 19  1  0
 18 12  2  0
 19 14  2  0
 20 13  1  0
 21 11  1  0
 23 25  2  0
 24 23  1  0
 26 24  1  0
 27 36  2  0
 27 32  1  0
 28 24  1  0
 28 32  1  0
 29 28  1  0
 30 31  1  0
 30 29  1  0
 31 27  1  0
 32 33  2  0
 33 34  1  0
 35 34  2  0
 36 35  1  0
 37 11  1  0
 37 38  1  0
 37 47  1  0
 38 41  1  0
 39 43  1  0
 39 38  1  0
 40 39  2  0
 43 42  1  0
 45 43  1  0
 45 46  1  0
 45 44  1  0
 47 50  1  1
 47 48  1  0
 49 47  1  0
 51  5  1  0
 52 51  2  0
 53 55  1  0
 53 56  1  0
 55 51  1  0
 55 57  1  0
 56 60  1  0
 56 54  1  0
 57 54  1  0
 57 58  1  0
 59 57  1  0
 61 66  1  0
 62 63  1  0
 62 61  1  0
 64 63  1  0
 64 71  1  0
 64 65  1  0
 66 60  1  0
 66 65  1  0
 67 60  2  0
 68 69  2  0
 69 88  1  0
 70 69  1  0
 70 73  1  0
 71 72  1  0
 71 68  1  0
 72 70  2  0
 73 74  1  0
 74 75  2  0
 76 79  1  0
 76 75  1  0
 77 76  2  0
 78 77  1  0
 78 73  2  0
 79 80  1  0
 80 81  1  0
 81 82  2  0
 83 82  1  0
 83 87  1  0
 84 83  2  0
 85 80  2  0
 85 84  1  0
 86 85  1  0
 88 89  1  0
 89 92  1  0
 89 91  1  0
 90 88  2  0
 93 94  1  0
 93 68  1  0
 95 93  1  0
M  ISO  4   7 101  10 101  56 100  60 100
M  END
>  <TORSDO>  (28) 
F 19

>  <SCORE>  (28) 
-13.830

>  <name>  (28) 
29

>  <ligand_id>  (28) 
29

>  <original_smiles>  (28) 
[H]N=C(Oc1c([H])c([H])c2c(c1[H])C([H])([H])N(C(=O)C([H])(N([H])C(=O)C([H])(N([H])C([H])([H])[H])C([H])([H])[H])C(C([H])([H])[H])(C([H])([H])[H])C([H])([H])[H])C([H])(C(=O)N([H])C1([H])c3c([H])c([H])c([H])c([H])c3C([H])([H])C([H])([H])C1([H])[H])C2([H])[H])c1c([H])c([H])c(C(=O)C2([H])C([H])([H])C([H])(C(=O)N3C([H])([H])C([H])([H])C([H])([H])C([H])(n4nc(-c5c([H])c([H])c(Oc6c([H])c([H])c(F)c([H])c6F)c([H])c5[H])c(C(=O)N([H])[H])c4N([H])[H])C3([H])[H])C([H])([H])[N+]2([H])[H])c([H])c1[H]

>  <smiles>  (28) 
[H]N=C(Oc1c([H])c([H])c2c(c1[H])C([H])([H])N(C(=O)C([H])(N([H])C(=O)C([H])(N([H])C([H])([H])[H])C([H])([H])[H])C(C([H])([H])[H])(C([H])([H])[H])C([H])([H])[H])C([H])(C(=O)N([H])C1([H])c3c([H])c([H])c([H])c([H])c3C([H])([H])C([H])([H])C1([H])[H])C2([H])[H])c1c([H])c([H])c(C(=O)C2([H])C([H])([H])C([H])(C(=O)N3C([H])([H])C([H])([H])C([H])([H])C([H])(n4nc(-c5c([H])c([H])c(Oc6c([H])c([H])c(F)c([H])c6F)c([H])c5[H])c(C(=O)N([H])[H])c4N([H])[H])C3([H])[H])C([H])([H])[N+]2([H])[H])c([H])c1[H]

$$$$
30:0:0
     RDKit          3D

 91100  0  0  1  0  0  0  0  0999 V2000
  -29.3100  -19.9480   21.8170 C   0  0  0  0  0  3  0  0  0  0  0  0
  -29.7250  -20.5630   19.5050 C   0  0  0  0  0  3  0  0  0  0  0  0
  -29.3190  -21.3120   22.1760 C   0  0  0  0  0  3  0  0  0  0  0  0
  -29.7510  -21.9230   19.8630 C   0  0  0  0  0  3  0  0  0  0  0  0
  -29.5070  -19.5600   20.4740 C   0  0  0  0  0  0  0  0  0  0  0  0
  -29.5360  -22.3130   21.2030 C   0  0  0  0  0  0  0  0  0  0  0  0
  -30.3720  -17.6320   18.9680 C   0  0  0  0  0  2  0  0  0  0  0  0
  -29.4500  -18.1160   20.0630 C   0  0  0  0  0  3  0  0  0  0  0  0
  -30.5350  -17.0980   20.3750 C   0  0  0  0  0  3  0  0  0  0  0  0
  -30.9020  -14.6950   20.0820 C   0  0  0  0  0  0  0  0  0  0  0  0
  -30.5260  -12.5720   18.9110 C   0  0  0  0  0  2  0  0  0  0  0  0
  -29.5300  -12.8310   17.7630 C   0  0  0  0  0  2  0  0  0  0  0  0
  -28.0780  -12.6890   18.2620 C   0  0  0  0  0  2  0  0  0  0  0  0
  -27.8100  -13.4940   19.5620 C   0  0  0  0  0  3  0  0  0  0  0  0
  -28.9190  -13.2360   20.6090 C   0  0  0  0  0  2  0  0  0  0  0  0
  -30.2190  -13.5280   19.9820 N   0  0  0  0  0  0  0  0  0  0  0  0
  -32.0110  -14.8830   19.5700 O   0  0  0  0  0  0  0  0  0  0  0  0
  -30.1910  -15.7220   20.5660 N   0  0  0  0  0  0  0  0  0  0  0  0
  -29.2870  -15.5090   20.9610 H   0  0  0  0  0  0  0  0  0  0  0  0
  -25.4570  -14.0930   20.4220 C   0  0  0  0  0  0  0  0  0  0  0  0
  -24.4050  -13.3140   20.8260 C   0  0  0  0  0  0  0  0  0  0  0  0
  -24.8550  -11.9610   20.7270 C   0  0  0  0  0  0  0  0  0  0  0  0
  -26.4810  -13.2140   20.1040 N   0  0  0  0  0  0  0  0  0  0  0  0
  -26.1250  -11.9250   20.3430 N   0  0  0  0  0  0  0  0  0  0  0  0
  -24.1330  -10.6970   20.9180 C   0  0  0  0  0  0  0  0  0  0  0  0
  -24.5700   -9.7300   21.8510 C   0  0  0  0  0  3  0  0  0  0  0  0
  -23.8490   -8.5300   22.0280 C   0  0  0  0  0  3  0  0  0  0  0  0
  -22.6770   -8.2880   21.2740 C   0  0  0  0  0  0  0  0  0  0  0  0
  -22.2580   -9.2430   20.3330 C   0  0  0  0  0  3  0  0  0  0  0  0
  -22.9790  -10.4350   20.1530 C   0  0  0  0  0  3  0  0  0  0  0  0
  -21.9270   -7.1390   21.3620 O   0  0  0  0  0  0  0  0  0  0  0  0
  -21.8360   -6.4270   22.5310 C   0  0  0  0  0  0  0  0  0  0  0  0
  -21.3010   -6.9930   23.7100 C   0  0  0  0  0  3  0  0  0  0  0  0
  -21.1610   -6.2040   24.8690 C   0  0  0  0  0  3  0  0  0  0  0  0
  -21.5460   -4.8500   24.8500 C   0  0  0  0  0  0  0  0  0  0  0  0
  -22.0730   -4.2830   23.6770 C   0  0  0  0  0  3  0  0  0  0  0  0
  -22.2160   -5.0700   22.5200 C   0  0  0  0  0  0  0  0  0  0  0  0
  -22.7060   -4.5140   21.3850 F   0  0  0  0  0  0  0  0  0  0  0  0
  -21.4060   -4.0890   25.9620 F   0  0  0  0  0  0  0  0  0  0  0  0
  -23.0280  -13.7890   21.1910 C   0  0  0  0  0  0  0  0  0  0  0  0
  -22.3450  -13.0720   22.0780 N   0  0  0  0  0  0  0  0  0  0  0  0
  -22.5670  -14.8310   20.7280 O   0  0  0  0  0  0  0  0  0  0  0  0
  -22.7310  -12.2290   22.4790 H   0  0  0  0  0  0  0  0  0  0  0  0
  -21.4250  -13.3740   22.3610 H   0  0  0  0  0  0  0  0  0  0  0  0
  -25.6200  -15.4680   20.2770 N   0  0  0  0  0  0  0  0  0  0  0  0
  -24.8610  -16.1200   20.4370 H   0  0  0  0  0  0  0  0  0  0  0  0
  -26.4460  -15.9090   19.8940 H   0  0  0  0  0  0  0  0  0  0  0  0
  -29.5820  -23.7830   21.6130 C   0  0  0  0  0  2  0  0  0  0  0  0
  -28.8340  -24.7500   20.6700 C   0  0  0  0  0  2  0  0  0  0  0  0
  -28.9420  -26.2220   21.1090 C   0  0  0  0  0  2  0  0  0  0  0  0
  -28.6430  -27.0590   19.9970 O   0  0  0  0  0  0  0  0  0  0  0  0
  -24.6350  -31.9830   23.2150 C   0  0  0  0  0  0  0  0  0  0  0  0
  -27.4480  -27.7240   20.0670 C   0  0  0  0  0  0  0  0  0  0  0  0
  -23.4860  -30.5830   21.5280 C   0  0  0  0  0  3  0  0  0  0  0  0
  -25.0010  -29.1200   20.0910 C   0  0  0  0  0  0  0  0  0  0  0  0
  -25.9960  -31.0320   21.3620 C   0  0  0  0  0  2  0  0  0  0  0  0
  -26.1320  -29.6780   20.7010 C   0  0  0  0  0  0  0  0  0  0  0  0
  -27.3600  -28.9840   20.6920 C   0  0  0  0  0  3  0  0  0  0  0  0
  -26.3070  -27.1670   19.4550 C   0  0  0  0  0  3  0  0  0  0  0  0
  -25.0800  -27.8600   19.4690 C   0  0  0  0  0  3  0  0  0  0  0  0
  -23.7300  -29.9360   20.1370 C   0  0  0  0  0  2  0  0  0  0  0  0
  -24.7220  -31.2130   22.0940 N   0  0  0  0  0  0  0  0  0  0  0  0
  -23.5420  -32.2100   23.7520 O   0  0  0  0  0  0  0  0  0  0  0  0
  -22.8590  -29.5210   22.4600 C   0  0  0  0  0  0  0  0  0  0  0  0
  -21.5370  -29.3250   22.3370 N   0  0  0  0  0  0  0  0  0  0  0  0
  -23.5590  -28.8790   23.2470 O   0  0  0  0  0  0  0  0  0  0  0  0
  -21.0310  -29.9000   21.6780 H   0  0  0  0  0  0  0  0  0  0  0  0
  -18.1780  -28.1010   22.8500 C   0  0  0  0  0  0  0  0  0  0  0  0
  -20.7390  -28.3490   23.0810 C   0  0  0  0  0  3  0  0  0  0  0  0
  -20.8310  -26.9460   22.4380 C   0  0  0  0  0  2  0  0  0  0  0  0
  -19.7090  -26.6690   21.4320 C   0  0  0  0  0  2  0  0  0  0  0  0
  -18.3410  -26.7830   22.1110 C   0  0  0  0  0  2  0  0  0  0  0  0
  -19.3040  -28.8440   23.2900 C   0  0  0  0  0  0  0  0  0  0  0  0
  -19.0970  -30.0790   23.9410 C   0  0  0  0  0  3  0  0  0  0  0  0
  -17.7960  -30.5730   24.1530 C   0  0  0  0  0  3  0  0  0  0  0  0
  -16.6840  -29.8260   23.7280 C   0  0  0  0  0  3  0  0  0  0  0  0
  -16.8760  -28.5900   23.0840 C   0  0  0  0  0  3  0  0  0  0  0  0
  -25.8980  -32.6380   23.8600 C   0  0  0  0  0  3  0  0  0  0  0  0
  -26.4050  -31.8770   25.1460 C   0  0  1  0  0  0  0  0  0  0  0  0
  -25.2950  -31.6130   26.1890 C   0  0  0  0  0  1  0  0  0  0  0  0
  -27.0280  -30.5140   24.7620 C   0  0  0  0  0  1  0  0  0  0  0  0
  -27.5220  -32.6970   25.8340 C   0  0  0  0  0  1  0  0  0  0  0  0
  -25.5600  -34.0310   24.1770 N   0  0  0  0  0  0  0  0  0  0  0  0
  -25.8950  -35.0850   23.4210 C   0  0  0  0  0  0  0  0  0  0  0  0
  -26.5900  -34.9880   22.4060 O   0  0  0  0  0  0  0  0  0  0  0  0
  -24.9410  -34.1790   24.9610 H   0  0  0  0  0  0  0  0  0  0  0  0
  -24.1560  -36.8540   23.0070 C   0  0  0  0  0  1  0  0  0  0  0  0
  -25.3730  -36.4660   23.8620 C   0  0  0  0  0  3  0  0  0  0  0  0
  -27.4600  -37.3840   24.7750 C   0  0  0  0  0  1  0  0  0  0  0  0
  -26.3950  -37.5330   23.7870 N   0  0  0  0  0  0  0  0  0  0  0  0
  -25.9700  -38.4470   23.9150 H   0  0  0  0  0  0  0  0  0  0  0  0
  1  3  1  0
  2  4  2  0
  2  5  1  0
  4  6  1  0
  5  1  2  0
  6 48  1  0
  6  3  2  0
  7  8  1  0
  7  9  1  0
  8  9  1  0
  8  5  1  0
  9 18  1  0
 10 18  1  0
 11 16  1  0
 12 13  1  0
 12 11  1  0
 14 13  1  0
 14 23  1  0
 14 15  1  0
 16 10  1  0
 16 15  1  0
 17 10  2  0
 18 19  1  0
 20 21  2  0
 21 40  1  0
 22 21  1  0
 22 25  1  0
 23 24  1  0
 23 20  1  0
 24 22  2  0
 25 26  1  0
 26 27  2  0
 28 31  1  0
 28 27  1  0
 29 28  2  0
 30 29  1  0
 30 25  2  0
 31 32  1  0
 32 33  1  0
 33 34  2  0
 35 34  1  0
 35 39  1  0
 36 35  2  0
 37 32  2  0
 37 36  1  0
 38 37  1  0
 40 41  1  0
 41 44  1  0
 41 43  1  0
 42 40  2  0
 45 20  1  0
 45 46  1  0
 47 45  1  0
 49 50  1  0
 49 48  1  0
 51 53  1  0
 51 50  1  0
 52 63  2  0
 53 58  1  0
 54 62  1  0
 54 64  1  0
 55 61  1  0
 55 57  1  0
 56 62  1  0
 57 56  1  0
 58 57  2  0
 59 60  1  0
 59 53  2  0
 60 55  2  0
 61 54  1  0
 62 52  1  0
 64 66  2  0
 65 64  1  0
 67 65  1  0
 68 77  2  0
 68 73  1  0
 69 65  1  0
 69 73  1  0
 70 69  1  0
 71 72  1  0
 71 70  1  0
 72 68  1  0
 73 74  2  0
 74 75  1  0
 76 75  2  0
 77 76  1  0
 78 52  1  0
 78 83  1  0
 78 79  1  0
 79 82  1  1
 79 80  1  0
 81 79  1  0
 83 86  1  0
 84 88  1  0
 84 83  1  0
 85 84  2  0
 88 87  1  0
 90 88  1  0
 90 91  1  0
 90 89  1  0
M  ISO  4  10 100  18 100  50 101  51 101
M  END
>  <TORSDO>  (29) 
F 20

>  <SCORE>  (29) 
-12.882

>  <name>  (29) 
30

>  <ligand_id>  (29) 
30

>  <original_smiles>  (29) 
[H]c1c([H])c([H])c2c(c1[H])C([H])([H])C([H])([H])C([H])([H])C2([H])N([H])C(=O)C1([H])N(C(=O)C([H])(N([H])C(=O)C([H])(N([H])C([H])([H])[H])C([H])([H])[H])C(C([H])([H])[H])(C([H])([H])[H])C([H])([H])[H])C([H])([H])c2c([H])c(OC([H])([H])C([H])([H])C([H])([H])c3c([H])c([H])c(C4([H])C([H])([H])C4([H])N([H])C(=O)N4C([H])([H])C([H])([H])C([H])([H])C([H])(n5nc(-c6c([H])c([H])c(Oc7c([H])c([H])c(F)c([H])c7F)c([H])c6[H])c(C(=O)N([H])[H])c5N([H])[H])C4([H])[H])c([H])c3[H])c([H])c([H])c2C1([H])[H]

>  <smiles>  (29) 
[H]c1c([H])c([H])c2c(c1[H])C([H])([H])C([H])([H])C([H])([H])C2([H])N([H])C(=O)C1([H])N(C(=O)C([H])(N([H])C(=O)C([H])(N([H])C([H])([H])[H])C([H])([H])[H])C(C([H])([H])[H])(C([H])([H])[H])C([H])([H])[H])C([H])([H])c2c([H])c(OC([H])([H])C([H])([H])C([H])([H])c3c([H])c([H])c(C4([H])C([H])([H])C4([H])N([H])C(=O)N4C([H])([H])C([H])([H])C([H])([H])C([H])(n5nc(-c6c([H])c([H])c(Oc7c([H])c([H])c(F)c([H])c7F)c([H])c6[H])c(C(=O)N([H])[H])c5N([H])[H])C4([H])[H])c([H])c3[H])c([H])c([H])c2C1([H])[H]

$$$$
31:0:0
     RDKit          3D

 86 94  0  0  1  0  0  0  0  0999 V2000
  -30.4900  -15.7440   19.9650 C   0  0  0  0  0  0  0  0  0  0  0  0
  -30.6060  -13.1160   19.3970 C   0  0  0  0  0  2  0  0  0  0  0  0
  -29.7370  -12.5740   18.2220 C   0  0  0  0  0  2  0  0  0  0  0  0
  -28.3080  -12.2580   18.6840 C   0  0  0  0  0  2  0  0  0  0  0  0
  -27.7820  -13.3580   19.6310 C   0  0  0  0  0  3  0  0  0  0  0  0
  -28.7920  -13.7770   20.7240 C   0  0  0  0  0  2  0  0  0  0  0  0
  -29.9660  -14.3680   20.0270 N   0  0  0  0  0  0  0  0  0  0  0  0
  -31.7120  -15.6420   19.7320 O   0  0  0  0  0  0  0  0  0  0  0  0
  -28.2790  -18.7100   21.3370 C   0  0  0  0  0  2  0  0  0  0  0  0
  -29.0100  -21.2890   20.8120 C   0  0  0  0  0  2  0  0  0  0  0  0
  -29.1940  -20.2730   18.8090 C   0  0  0  0  0  2  0  0  0  0  0  0
  -28.7130  -17.2360   21.0210 C   0  0  0  0  0  2  0  0  0  0  0  0
  -29.4170  -19.6770   20.9770 C   0  0  0  0  0  3  0  0  0  0  0  0
  -29.1600  -21.9980   19.3770 C   0  0  0  0  0  2  0  0  0  0  0  0
  -29.9430  -18.9000   19.7300 C   0  0  0  0  0  3  0  0  0  0  0  0
  -29.7470  -17.1460   19.9660 N   0  0  0  0  0  0  0  0  0  0  0  0
  -25.4490  -13.9790   20.4140 C   0  0  0  0  0  0  0  0  0  0  0  0
  -24.3660  -13.2400   20.7960 C   0  0  0  0  0  0  0  0  0  0  0  0
  -24.7830  -11.8740   20.7540 C   0  0  0  0  0  0  0  0  0  0  0  0
  -26.4560  -13.0690   20.1590 N   0  0  0  0  0  0  0  0  0  0  0  0
  -26.0700  -11.7930   20.4280 N   0  0  0  0  0  0  0  0  0  0  0  0
  -24.0070  -10.6420   20.9470 C   0  0  0  0  0  0  0  0  0  0  0  0
  -24.4080   -9.6520   21.8710 C   0  0  0  0  0  3  0  0  0  0  0  0
  -23.6330   -8.4880   22.0570 C   0  0  0  0  0  3  0  0  0  0  0  0
  -22.4390   -8.3040   21.3190 C   0  0  0  0  0  0  0  0  0  0  0  0
  -22.0540   -9.2830   20.3840 C   0  0  0  0  0  3  0  0  0  0  0  0
  -22.8320  -10.4380   20.1960 C   0  0  0  0  0  3  0  0  0  0  0  0
  -21.6370   -7.1930   21.4140 O   0  0  0  0  0  0  0  0  0  0  0  0
  -21.5710   -6.4450   22.5630 C   0  0  0  0  0  0  0  0  0  0  0  0
  -21.1840   -7.0120   23.7960 C   0  0  0  0  0  3  0  0  0  0  0  0
  -21.0610   -6.1940   24.9380 C   0  0  0  0  0  3  0  0  0  0  0  0
  -21.3170   -4.8140   24.8470 C   0  0  0  0  0  0  0  0  0  0  0  0
  -21.6990   -4.2470   23.6190 C   0  0  0  0  0  3  0  0  0  0  0  0
  -21.8230   -5.0610   22.4790 C   0  0  0  0  0  0  0  0  0  0  0  0
  -22.1690   -4.5060   21.2920 F   0  0  0  0  0  0  0  0  0  0  0  0
  -21.1930   -4.0280   25.9430 F   0  0  0  0  0  0  0  0  0  0  0  0
  -22.9930  -13.7720   21.0770 C   0  0  0  0  0  0  0  0  0  0  0  0
  -22.2470  -13.1130   21.9540 N   0  0  0  0  0  0  0  0  0  0  0  0
  -22.5930  -14.8080   20.5490 O   0  0  0  0  0  0  0  0  0  0  0  0
  -22.5840  -12.2730   22.3990 H   0  0  0  0  0  0  0  0  0  0  0  0
  -21.3230  -13.4550   22.1800 H   0  0  0  0  0  0  0  0  0  0  0  0
  -25.6530  -15.3430   20.2280 N   0  0  0  0  0  0  0  0  0  0  0  0
  -24.8980  -16.0140   20.3230 H   0  0  0  0  0  0  0  0  0  0  0  0
  -26.4860  -15.7440   19.8190 H   0  0  0  0  0  0  0  0  0  0  0  0
  -28.2960  -23.7110   18.9150 C   0  0  0  0  0  1  0  0  0  0  0  0
  -28.3670  -25.4770   19.1030 O   0  0  0  0  0  0  0  0  0  0  0  0
  -24.6140  -31.3200   22.6130 C   0  0  0  0  0  0  0  0  0  0  0  0
  -27.3290  -26.6460   19.1480 C   0  0  0  0  0  0  0  0  0  0  0  0
  -23.4530  -29.9920   20.8980 C   0  0  0  0  0  3  0  0  0  0  0  0
  -24.9460  -28.5520   19.3100 C   0  0  0  0  0  0  0  0  0  0  0  0
  -26.0140  -30.2940   20.7190 C   0  0  0  0  0  2  0  0  0  0  0  0
  -26.1380  -28.9230   19.9430 C   0  0  0  0  0  0  0  0  0  0  0  0
  -27.3080  -28.0000   19.8340 C   0  0  0  0  0  3  0  0  0  0  0  0
  -26.0910  -26.4950   18.4720 C   0  0  0  0  0  3  0  0  0  0  0  0
  -24.9610  -27.3680   18.5490 C   0  0  0  0  0  3  0  0  0  0  0  0
  -23.6890  -29.4250   19.4670 C   0  0  0  0  0  2  0  0  0  0  0  0
  -24.7160  -30.5670   21.4640 N   0  0  0  0  0  0  0  0  0  0  0  0
  -23.5230  -31.5120   23.1770 O   0  0  0  0  0  0  0  0  0  0  0  0
  -22.8250  -28.8980   21.8040 C   0  0  0  0  0  0  0  0  0  0  0  0
  -21.4940  -28.7040   21.7340 N   0  0  0  0  0  0  0  0  0  0  0  0
  -23.5470  -28.2250   22.5440 O   0  0  0  0  0  0  0  0  0  0  0  0
  -20.9580  -29.3010   21.1190 H   0  0  0  0  0  0  0  0  0  0  0  0
  -18.1780  -27.3420   22.3320 C   0  0  0  0  0  0  0  0  0  0  0  0
  -20.7440  -27.6650   22.4520 C   0  0  0  0  0  3  0  0  0  0  0  0
  -20.8410  -26.3050   21.7190 C   0  0  0  0  0  2  0  0  0  0  0  0
  -19.6800  -26.0600   20.7490 C   0  0  0  0  0  2  0  0  0  0  0  0
  -18.3430  -26.0850   21.4940 C   0  0  0  0  0  2  0  0  0  0  0  0
  -19.3030  -28.0920   22.7670 C   0  0  0  0  0  0  0  0  0  0  0  0
  -19.0900  -29.2700   23.5180 C   0  0  0  0  0  3  0  0  0  0  0  0
  -17.7860  -29.6970   23.8330 C   0  0  0  0  0  3  0  0  0  0  0  0
  -16.6770  -28.9440   23.4090 C   0  0  0  0  0  3  0  0  0  0  0  0
  -16.8750  -27.7680   22.6640 C   0  0  0  0  0  3  0  0  0  0  0  0
  -25.8600  -31.9870   23.2720 C   0  0  0  0  0  3  0  0  0  0  0  0
  -25.4450  -33.2960   23.8160 N   0  0  0  0  0  0  0  0  0  0  0  0
  -25.6690  -34.4820   23.2350 C   0  0  0  0  0  0  0  0  0  0  0  0
  -26.3020  -34.5940   22.1820 O   0  0  0  0  0  0  0  0  0  0  0  0
  -24.8720  -33.2740   24.6470 H   0  0  0  0  0  0  0  0  0  0  0  0
  -23.8050  -36.1790   23.2330 C   0  0  0  0  0  1  0  0  0  0  0  0
  -25.1060  -35.7420   23.9260 C   0  0  0  0  0  3  0  0  0  0  0  0
  -27.2030  -36.6570   24.8240 C   0  0  0  0  0  1  0  0  0  0  0  0
  -26.0540  -36.8790   23.9490 N   0  0  0  0  0  0  0  0  0  0  0  0
  -25.5880  -37.7320   24.2460 H   0  0  0  0  0  0  0  0  0  0  0  0
  -26.4960  -31.1080   24.4210 C   0  0  1  0  0  0  0  0  0  0  0  0
  -25.4830  -30.6610   25.4990 C   0  0  0  0  0  1  0  0  0  0  0  0
  -27.1570  -29.8340   23.8460 C   0  0  0  0  0  1  0  0  0  0  0  0
  -27.6180  -31.9030   25.1270 C   0  0  0  0  0  1  0  0  0  0  0  0
  1 16  1  0
  1  7  1  0
  2  7  1  0
  3  4  1  0
  3  2  1  0
  5  4  1  0
  5 20  1  0
  5  6  1  0
  7  6  1  0
  8  1  2  0
 11 14  1  0
 12  9  1  0
 13 10  1  0
 13  9  1  0
 14 10  1  0
 15 11  1  0
 15 16  1  0
 15 13  1  0
 16 12  1  0
 17 18  2  0
 18 37  1  0
 19 18  1  0
 19 22  1  0
 20 17  1  0
 20 21  1  0
 21 19  2  0
 22 23  1  0
 23 24  2  0
 25 28  1  0
 25 24  1  0
 26 25  2  0
 27 26  1  0
 27 22  2  0
 28 29  1  0
 29 30  1  0
 30 31  2  0
 32 31  1  0
 32 36  1  0
 33 32  2  0
 34 29  2  0
 34 33  1  0
 35 34  1  0
 37 38  1  0
 38 41  1  0
 38 40  1  0
 39 37  2  0
 42 43  1  0
 42 17  1  0
 44 42  1  0
 45 46  1  0
 46 48  1  0
 47 58  2  0
 48 53  1  0
 49 57  1  0
 49 59  1  0
 50 56  1  0
 50 52  1  0
 51 57  1  0
 52 51  1  0
 53 52  2  0
 54 55  1  0
 54 48  2  0
 55 50  2  0
 56 49  1  0
 57 47  1  0
 59 61  2  0
 60 59  1  0
 62 60  1  0
 63 72  2  0
 63 68  1  0
 64 60  1  0
 64 68  1  0
 65 64  1  0
 66 67  1  0
 66 65  1  0
 67 63  1  0
 68 69  2  0
 69 70  1  0
 71 70  2  0
 72 71  1  0
 73 47  1  0
 73 74  1  0
 73 83  1  0
 74 77  1  0
 75 74  1  0
 75 79  1  0
 76 75  2  0
 79 78  1  0
 79 81  1  0
 81 82  1  0
 81 80  1  0
 83 86  1  1
 83 84  1  0
 85 83  1  0
M  ISO  4   1 100  16 100  45 101  46 101
M  END
>  <TORSDO>  (30) 
F 16

>  <SCORE>  (30) 
-13.012

>  <name>  (30) 
31

>  <ligand_id>  (30) 
31

>  <original_smiles>  (30) 
[H]c1c([H])c([H])c2c(c1[H])C([H])([H])C([H])([H])C([H])([H])C2([H])N([H])C(=O)C1([H])N(C(=O)C([H])(N([H])C(=O)C([H])(N([H])C([H])([H])[H])C([H])([H])[H])C(C([H])([H])[H])(C([H])([H])[H])C([H])([H])[H])C([H])([H])c2c([H])c(OC([H])([H])C3([H])C([H])([H])C4([H])N(C(=O)N5C([H])([H])C([H])([H])C([H])([H])C([H])(n6nc(-c7c([H])c([H])c(Oc8c([H])c([H])c(F)c([H])c8F)c([H])c7[H])c(C(=O)N([H])[H])c6N([H])[H])C5([H])[H])C([H])([H])C([H])([H])C4([H])C3([H])[H])c([H])c([H])c2C1([H])[H]

>  <smiles>  (30) 
[H]c1c([H])c([H])c2c(c1[H])C([H])([H])C([H])([H])C([H])([H])C2([H])N([H])C(=O)C1([H])N(C(=O)C([H])(N([H])C(=O)C([H])(N([H])C([H])([H])[H])C([H])([H])[H])C(C([H])([H])[H])(C([H])([H])[H])C([H])([H])[H])C([H])([H])c2c([H])c(OC([H])([H])C3([H])C([H])([H])C4([H])N(C(=O)N5C([H])([H])C([H])([H])C([H])([H])C([H])(n6nc(-c7c([H])c([H])c(Oc8c([H])c([H])c(F)c([H])c8F)c([H])c7[H])c(C(=O)N([H])[H])c6N([H])[H])C5([H])[H])C([H])([H])C([H])([H])C4([H])C3([H])[H])c([H])c([H])c2C1([H])[H]

$$$$
32:0:0
     RDKit          3D

 91 99  0  0  1  0  0  0  0  0999 V2000
  -28.1640  -24.7110   21.6680 C   0  0  0  0  0  3  0  0  0  0  0  0
  -28.3370  -24.6120   20.3360 C   0  0  0  0  0  0  0  0  0  0  0  0
  -27.6110  -23.5990   22.5380 C   0  0  0  0  0  2  0  0  0  0  0  0
  -27.9970  -23.3320   19.5710 C   0  0  0  0  0  2  0  0  0  0  0  0
  -26.8910  -22.5280   21.7070 C   0  0  0  0  0  2  0  0  0  0  0  0
  -27.7040  -22.1030   20.4710 C   0  0  0  0  0  3  0  0  0  0  0  0
  -28.8750  -25.7700   19.4990 C   0  0  0  0  0  2  0  0  0  0  0  0
  -28.7240  -27.0450   20.1360 O   0  0  0  0  0  0  0  0  0  0  0  0
  -24.7030  -31.9670   23.3220 C   0  0  0  0  0  0  0  0  0  0  0  0
  -27.4950  -27.6770   20.1500 C   0  0  0  0  0  0  0  0  0  0  0  0
  -23.5460  -30.5660   21.6440 C   0  0  0  0  0  3  0  0  0  0  0  0
  -25.0480  -29.1000   20.1980 C   0  0  0  0  0  0  0  0  0  0  0  0
  -26.0600  -31.0030   21.4670 C   0  0  0  0  0  2  0  0  0  0  0  0
  -26.1860  -29.6490   20.7990 C   0  0  0  0  0  0  0  0  0  0  0  0
  -27.4100  -28.9430   20.7720 C   0  0  0  0  0  3  0  0  0  0  0  0
  -26.3270  -27.1290   19.5680 C   0  0  0  0  0  3  0  0  0  0  0  0
  -25.1110  -27.8380   19.5860 C   0  0  0  0  0  3  0  0  0  0  0  0
  -23.7800  -29.9220   20.2520 C   0  0  0  0  0  2  0  0  0  0  0  0
  -24.7880  -31.1930   22.2030 N   0  0  0  0  0  0  0  0  0  0  0  0
  -23.6100  -32.1960   23.8600 O   0  0  0  0  0  0  0  0  0  0  0  0
  -22.9180  -29.5050   22.5770 C   0  0  0  0  0  0  0  0  0  0  0  0
  -21.6010  -29.2890   22.4350 N   0  0  0  0  0  0  0  0  0  0  0  0
  -23.6140  -28.8830   23.3850 O   0  0  0  0  0  0  0  0  0  0  0  0
  -21.1010  -29.8450   21.7550 H   0  0  0  0  0  0  0  0  0  0  0  0
  -18.2580  -27.9930   22.8870 C   0  0  0  0  0  0  0  0  0  0  0  0
  -20.8070  -28.3120   23.1780 C   0  0  0  0  0  3  0  0  0  0  0  0
  -20.9520  -26.9000   22.5650 C   0  0  0  0  0  2  0  0  0  0  0  0
  -19.8610  -26.5690   21.5440 C   0  0  0  0  0  2  0  0  0  0  0  0
  -18.4750  -26.6610   22.1900 C   0  0  0  0  0  2  0  0  0  0  0  0
  -19.3550  -28.7740   23.3400 C   0  0  0  0  0  0  0  0  0  0  0  0
  -19.1010  -30.0200   23.9550 C   0  0  0  0  0  3  0  0  0  0  0  0
  -17.7820  -30.4840   24.1240 C   0  0  0  0  0  3  0  0  0  0  0  0
  -16.7010  -29.7000   23.6860 C   0  0  0  0  0  3  0  0  0  0  0  0
  -16.9390  -28.4570   23.0720 C   0  0  0  0  0  3  0  0  0  0  0  0
  -25.9670  -32.6190   23.9640 C   0  0  0  0  0  3  0  0  0  0  0  0
  -25.6320  -34.0140   24.2780 N   0  0  0  0  0  0  0  0  0  0  0  0
  -25.9640  -35.0650   23.5180 C   0  0  0  0  0  0  0  0  0  0  0  0
  -26.6570  -34.9640   22.5020 O   0  0  0  0  0  0  0  0  0  0  0  0
  -25.0200  -34.1660   25.0670 H   0  0  0  0  0  0  0  0  0  0  0  0
  -24.2150  -36.8260   23.1170 C   0  0  0  0  0  1  0  0  0  0  0  0
  -25.4460  -36.4490   23.9550 C   0  0  0  0  0  3  0  0  0  0  0  0
  -27.5520  -37.3750   24.8160 C   0  0  0  0  0  1  0  0  0  0  0  0
  -26.4640  -37.5170   23.8520 N   0  0  0  0  0  0  0  0  0  0  0  0
  -26.0400  -38.4310   23.9850 H   0  0  0  0  0  0  0  0  0  0  0  0
  -26.4730  -31.8620   25.2520 C   0  0  1  0  0  0  0  0  0  0  0  0
  -25.3610  -31.6040   26.2970 C   0  0  0  0  0  1  0  0  0  0  0  0
  -27.0920  -30.4950   24.8750 C   0  0  0  0  0  1  0  0  0  0  0  0
  -27.5920  -32.6810   25.9370 C   0  0  0  0  0  1  0  0  0  0  0  0
  -28.9690  -21.2920   20.8650 C   0  0  0  0  0  2  0  0  0  0  0  0
  -29.2920  -20.1370   19.8950 C   0  0  0  0  0  2  0  0  0  0  0  0
  -30.2950  -19.1460   20.4650 C   0  0  0  0  0  3  0  0  0  0  0  0
  -29.9730  -17.9100   20.8950 C   0  0  0  0  0  3  0  0  0  0  0  0
  -30.9510  -16.8940   21.4590 C   0  0  0  0  0  2  0  0  0  0  0  0
  -31.1040  -14.6170   20.3900 C   0  0  0  0  0  0  0  0  0  0  0  0
  -30.7680  -12.4620   19.2310 C   0  0  0  0  0  2  0  0  0  0  0  0
  -29.8290  -12.6470   18.0220 C   0  0  0  0  0  2  0  0  0  0  0  0
  -28.3500  -12.5460   18.4470 C   0  0  0  0  0  2  0  0  0  0  0  0
  -28.0240  -13.4250   19.6830 C   0  0  0  0  0  3  0  0  0  0  0  0
  -29.0640  -13.1880   20.8010 C   0  0  0  0  0  2  0  0  0  0  0  0
  -30.4050  -13.4600   20.2460 N   0  0  0  0  0  0  0  0  0  0  0  0
  -32.1690  -14.8450   19.8120 O   0  0  0  0  0  0  0  0  0  0  0  0
  -30.5150  -15.5260   21.1800 N   0  0  0  0  0  0  0  0  0  0  0  0
  -29.6520  -15.2300   21.6130 H   0  0  0  0  0  0  0  0  0  0  0  0
  -25.6420  -14.1080   20.3870 C   0  0  0  0  0  0  0  0  0  0  0  0
  -24.5520  -13.3680   20.7590 C   0  0  0  0  0  0  0  0  0  0  0  0
  -24.9720  -12.0030   20.7280 C   0  0  0  0  0  0  0  0  0  0  0  0
  -26.6610  -13.1950   20.1580 N   0  0  0  0  0  0  0  0  0  0  0  0
  -26.2590  -11.9240   20.4180 N   0  0  0  0  0  0  0  0  0  0  0  0
  -24.2100  -10.7630   20.9190 C   0  0  0  0  0  0  0  0  0  0  0  0
  -24.6020   -9.7940   21.8680 C   0  0  0  0  0  3  0  0  0  0  0  0
  -23.8410   -8.6180   22.0460 C   0  0  0  0  0  3  0  0  0  0  0  0
  -22.6750   -8.4030   21.2740 C   0  0  0  0  0  0  0  0  0  0  0  0
  -22.3010   -9.3610   20.3160 C   0  0  0  0  0  3  0  0  0  0  0  0
  -23.0610  -10.5290   20.1350 C   0  0  0  0  0  3  0  0  0  0  0  0
  -21.8890   -7.2790   21.3600 O   0  0  0  0  0  0  0  0  0  0  0  0
  -21.7830   -6.5640   22.5250 C   0  0  0  0  0  0  0  0  0  0  0  0
  -21.3310   -7.1550   23.7260 C   0  0  0  0  0  3  0  0  0  0  0  0
  -21.1720   -6.3660   24.8820 C   0  0  0  0  0  3  0  0  0  0  0  0
  -21.4520   -4.9880   24.8400 C   0  0  0  0  0  0  0  0  0  0  0  0
  -21.8970   -4.3960   23.6450 C   0  0  0  0  0  3  0  0  0  0  0  0
  -22.0590   -5.1810   22.4910 C   0  0  0  0  0  0  0  0  0  0  0  0
  -22.4670   -4.6020   21.3350 F   0  0  0  0  0  0  0  0  0  0  0  0
  -21.2910   -4.2280   25.9500 F   0  0  0  0  0  0  0  0  0  0  0  0
  -23.1690  -13.8870   21.0350 C   0  0  0  0  0  0  0  0  0  0  0  0
  -22.4260  -13.2230   21.9140 N   0  0  0  0  0  0  0  0  0  0  0  0
  -22.7560  -14.9160   20.5030 O   0  0  0  0  0  0  0  0  0  0  0  0
  -22.7720  -12.3900   22.3660 H   0  0  0  0  0  0  0  0  0  0  0  0
  -21.4990  -13.5570   22.1370 H   0  0  0  0  0  0  0  0  0  0  0  0
  -25.8480  -15.4720   20.2050 N   0  0  0  0  0  0  0  0  0  0  0  0
  -25.0990  -16.1480   20.2990 H   0  0  0  0  0  0  0  0  0  0  0  0
  -26.7070  -15.8770   19.8530 H   0  0  0  0  0  0  0  0  0  0  0  0
  1  3  1  0
  2  1  2  0
  4  2  1  0
  4  6  1  0
  5  3  1  0
  6 49  1  0
  6  5  1  0
  7  8  1  0
  7  2  1  0
  8 10  1  0
  9 20  2  0
 10 15  1  0
 11 19  1  0
 11 21  1  0
 12 18  1  0
 12 14  1  0
 13 19  1  0
 14 13  1  0
 15 14  2  0
 16 17  1  0
 16 10  2  0
 17 12  2  0
 18 11  1  0
 19  9  1  0
 21 23  2  0
 22 21  1  0
 24 22  1  0
 25 34  2  0
 25 30  1  0
 26 22  1  0
 26 30  1  0
 27 26  1  0
 28 29  1  0
 28 27  1  0
 29 25  1  0
 30 31  2  0
 31 32  1  0
 33 32  2  0
 34 33  1  0
 35  9  1  0
 35 36  1  0
 35 45  1  0
 36 39  1  0
 37 41  1  0
 37 36  1  0
 38 37  2  0
 41 40  1  0
 43 41  1  0
 43 44  1  0
 43 42  1  0
 45 48  1  1
 45 46  1  0
 47 45  1  0
 50 51  1  0
 50 49  1  0
 51 52  2  0
 52 53  1  0
 54 62  1  0
 55 60  1  0
 56 57  1  0
 56 55  1  0
 58 57  1  0
 58 67  1  0
 58 59  1  0
 60 54  1  0
 60 59  1  0
 61 54  2  0
 62 53  1  0
 62 63  1  0
 64 65  2  0
 65 84  1  0
 66 65  1  0
 66 69  1  0
 67 64  1  0
 67 68  1  0
 68 66  2  0
 69 70  1  0
 70 71  2  0
 72 75  1  0
 72 71  1  0
 73 72  2  0
 74 73  1  0
 74 69  2  0
 75 76  1  0
 76 77  1  0
 77 78  2  0
 79 78  1  0
 79 83  1  0
 80 79  2  0
 81 76  2  0
 81 80  1  0
 82 81  1  0
 84 85  1  0
 85 88  1  0
 85 87  1  0
 86 84  2  0
 89 90  1  0
 89 64  1  0
 91 89  1  0
M  ISO  4   7 101   8 101  54 100  62 100
M  END
>  <TORSDO>  (31) 
F 21

>  <SCORE>  (31) 
-12.490

>  <name>  (31) 
32

>  <ligand_id>  (31) 
32

>  <original_smiles>  (31) 
[H]C(=C([H])C([H])([H])C([H])([H])C1([H])C([H])([H])C(C([H])([H])Oc2c([H])c([H])c3c(c2[H])C([H])([H])N(C(=O)C([H])(N([H])C(=O)C([H])(N([H])C([H])([H])[H])C([H])([H])[H])C(C([H])([H])[H])(C([H])([H])[H])C([H])([H])[H])C([H])(C(=O)N([H])C2([H])c4c([H])c([H])c([H])c([H])c4C([H])([H])C([H])([H])C2([H])[H])C3([H])[H])=C([H])C([H])([H])C1([H])[H])C([H])([H])N([H])C(=O)N1C([H])([H])C([H])([H])C([H])([H])C([H])(n2nc(-c3c([H])c([H])c(Oc4c([H])c([H])c(F)c([H])c4F)c([H])c3[H])c(C(=O)N([H])[H])c2N([H])[H])C1([H])[H]

>  <smiles>  (31) 
[H]C(=C([H])C([H])([H])C([H])([H])C1([H])C([H])([H])C(C([H])([H])Oc2c([H])c([H])c3c(c2[H])C([H])([H])N(C(=O)C([H])(N([H])C(=O)C([H])(N([H])C([H])([H])[H])C([H])([H])[H])C(C([H])([H])[H])(C([H])([H])[H])C([H])([H])[H])C([H])(C(=O)N([H])C2([H])c4c([H])c([H])c([H])c([H])c4C([H])([H])C([H])([H])C2([H])[H])C3([H])[H])=C([H])C([H])([H])C1([H])[H])C([H])([H])N([H])C(=O)N1C([H])([H])C([H])([H])C([H])([H])C([H])(n2nc(-c3c([H])c([H])c(Oc4c([H])c([H])c(F)c([H])c4F)c([H])c3[H])c(C(=O)N([H])[H])c2N([H])[H])C1([H])[H]

$$$$
33:0:0
     RDKit          3D

 86 95  0  0  1  0  0  0  0  0999 V2000
  -30.4350  -15.4630   20.2950 C   0  0  0  0  0  0  0  0  0  0  0  0
  -30.4210  -12.9420   19.5480 C   0  0  0  0  0  2  0  0  0  0  0  0
  -29.5540  -12.5700   18.3190 C   0  0  0  0  0  2  0  0  0  0  0  0
  -28.1080  -12.2860   18.7470 C   0  0  0  0  0  2  0  0  0  0  0  0
  -27.5990  -13.3300   19.7700 C   0  0  0  0  0  3  0  0  0  0  0  0
  -28.6070  -13.6370   20.9000 C   0  0  0  0  0  2  0  0  0  0  0  0
  -29.8200  -14.1590   20.2420 N   0  0  0  0  0  0  0  0  0  0  0  0
  -31.6650  -15.3330   20.1570 O   0  0  0  0  0  0  0  0  0  0  0  0
  -30.4170  -19.0380   21.2570 C   0  0  0  0  0  2  0  0  0  0  0  0
  -29.8670  -19.5650   19.0840 C   0  0  0  0  0  2  0  0  0  0  0  0
  -28.6270  -17.6860   20.7100 C   0  0  0  0  0  2  0  0  0  0  0  0
  -28.9350  -19.3250   21.0440 C   0  0  0  0  0  3  0  0  0  0  0  0
  -28.8310  -20.5660   19.9030 C   0  0  0  0  0  3  0  0  0  0  0  0
  -30.5380  -18.2730   19.9410 C   0  0  0  0  0  3  0  0  0  0  0  0
  -29.8390  -16.8740   20.1810 N   0  0  0  0  0  0  0  0  0  0  0  0
  -25.2280  -13.9090   20.4790 C   0  0  0  0  0  0  0  0  0  0  0  0
  -24.1510  -13.1460   20.8330 C   0  0  0  0  0  0  0  0  0  0  0  0
  -24.6060  -11.7920   20.8320 C   0  0  0  0  0  0  0  0  0  0  0  0
  -26.2660  -13.0220   20.2690 N   0  0  0  0  0  0  0  0  0  0  0  0
  -25.9050  -11.7430   20.5520 N   0  0  0  0  0  0  0  0  0  0  0  0
  -23.8630  -10.5390   21.0220 C   0  0  0  0  0  0  0  0  0  0  0  0
  -24.2700   -9.5710   21.9670 C   0  0  0  0  0  3  0  0  0  0  0  0
  -23.5230   -8.3870   22.1470 C   0  0  0  0  0  3  0  0  0  0  0  0
  -22.3540   -8.1620   21.3830 C   0  0  0  0  0  0  0  0  0  0  0  0
  -21.9640   -9.1180   20.4290 C   0  0  0  0  0  3  0  0  0  0  0  0
  -22.7110  -10.2940   20.2470 C   0  0  0  0  0  3  0  0  0  0  0  0
  -21.5800   -7.0300   21.4720 O   0  0  0  0  0  0  0  0  0  0  0  0
  -21.5180   -6.2890   22.6260 C   0  0  0  0  0  0  0  0  0  0  0  0
  -21.1180   -6.8570   23.8550 C   0  0  0  0  0  3  0  0  0  0  0  0
  -21.0010   -6.0440   25.0000 C   0  0  0  0  0  3  0  0  0  0  0  0
  -21.2730   -4.6650   24.9170 C   0  0  0  0  0  0  0  0  0  0  0  0
  -21.6650   -4.0980   23.6920 C   0  0  0  0  0  3  0  0  0  0  0  0
  -21.7840   -4.9080   22.5490 C   0  0  0  0  0  0  0  0  0  0  0  0
  -22.1410   -4.3510   21.3670 F   0  0  0  0  0  0  0  0  0  0  0  0
  -21.1530   -3.8840   26.0150 F   0  0  0  0  0  0  0  0  0  0  0  0
  -22.7530  -13.6420   21.0560 C   0  0  0  0  0  0  0  0  0  0  0  0
  -21.9990  -12.9770   21.9240 N   0  0  0  0  0  0  0  0  0  0  0  0
  -22.3380  -14.6550   20.4950 O   0  0  0  0  0  0  0  0  0  0  0  0
  -22.3470  -12.1580   22.3990 H   0  0  0  0  0  0  0  0  0  0  0  0
  -21.0580  -13.2930   22.1150 H   0  0  0  0  0  0  0  0  0  0  0  0
  -25.4070  -15.2760   20.2860 N   0  0  0  0  0  0  0  0  0  0  0  0
  -24.6460  -15.9380   20.3780 H   0  0  0  0  0  0  0  0  0  0  0  0
  -26.2710  -15.7020   19.9760 H   0  0  0  0  0  0  0  0  0  0  0  0
  -28.9880  -22.4310   20.0960 C   0  0  0  0  0  3  0  0  0  0  0  0
  -28.0360  -24.0100   19.7530 C   0  0  0  0  0  3  0  0  0  0  0  0
  -28.2270  -25.6940   19.9390 O   0  0  0  0  0  0  0  0  0  0  0  0
  -24.6670  -31.7220   23.0240 C   0  0  0  0  0  0  0  0  0  0  0  0
  -27.2250  -26.8380   19.8960 C   0  0  0  0  0  0  0  0  0  0  0  0
  -23.4740  -30.3470   21.3690 C   0  0  0  0  0  3  0  0  0  0  0  0
  -24.9230  -28.7660   19.9030 C   0  0  0  0  0  0  0  0  0  0  0  0
  -26.0430  -30.5550   21.2130 C   0  0  0  0  0  2  0  0  0  0  0  0
  -26.1170  -29.1500   20.5260 C   0  0  0  0  0  0  0  0  0  0  0  0
  -27.2570  -28.2090   20.4940 C   0  0  0  0  0  3  0  0  0  0  0  0
  -25.9980  -26.6340   19.2220 C   0  0  0  0  0  3  0  0  0  0  0  0
  -24.8950  -27.5340   19.2280 C   0  0  0  0  0  3  0  0  0  0  0  0
  -23.7000  -29.6870   19.9790 C   0  0  0  0  0  2  0  0  0  0  0  0
  -24.7520  -30.9040   21.9210 N   0  0  0  0  0  0  0  0  0  0  0  0
  -23.5780  -31.9940   23.5570 O   0  0  0  0  0  0  0  0  0  0  0  0
  -22.7890  -29.3330   22.3240 C   0  0  0  0  0  0  0  0  0  0  0  0
  -21.4550  -29.1810   22.2280 N   0  0  0  0  0  0  0  0  0  0  0  0
  -23.4680  -28.6810   23.1220 O   0  0  0  0  0  0  0  0  0  0  0  0
  -20.9590  -29.7580   21.5640 H   0  0  0  0  0  0  0  0  0  0  0  0
  -18.0770  -27.9790   22.7990 C   0  0  0  0  0  0  0  0  0  0  0  0
  -20.6460  -28.2240   22.9920 C   0  0  0  0  0  3  0  0  0  0  0  0
  -20.7190  -26.8110   22.3670 C   0  0  0  0  0  2  0  0  0  0  0  0
  -19.5860  -26.5290   21.3760 C   0  0  0  0  0  2  0  0  0  0  0  0
  -18.2250  -26.6560   22.0670 C   0  0  0  0  0  2  0  0  0  0  0  0
  -19.2130  -28.7230   23.2180 C   0  0  0  0  0  0  0  0  0  0  0  0
  -19.0150  -29.9600   23.8690 C   0  0  0  0  0  3  0  0  0  0  0  0
  -17.7170  -30.4550   24.1000 C   0  0  0  0  0  3  0  0  0  0  0  0
  -16.5980  -29.7090   23.6930 C   0  0  0  0  0  3  0  0  0  0  0  0
  -16.7780  -28.4720   23.0480 C   0  0  0  0  0  3  0  0  0  0  0  0
  -25.9340  -32.3690   23.6610 C   0  0  0  0  0  3  0  0  0  0  0  0
  -25.5890  -33.7420   24.0720 N   0  0  0  0  0  0  0  0  0  0  0  0
  -25.8810  -34.8500   23.3790 C   0  0  0  0  0  0  0  0  0  0  0  0
  -26.5310  -34.8260   22.3300 O   0  0  0  0  0  0  0  0  0  0  0  0
  -25.0070  -33.8320   24.8920 H   0  0  0  0  0  0  0  0  0  0  0  0
  -24.1060  -36.6280   23.1840 C   0  0  0  0  0  1  0  0  0  0  0  0
  -25.3770  -36.2010   23.9340 C   0  0  0  0  0  3  0  0  0  0  0  0
  -27.5150  -37.0890   24.7570 C   0  0  0  0  0  1  0  0  0  0  0  0
  -26.3830  -37.2830   23.8540 N   0  0  0  0  0  0  0  0  0  0  0  0
  -25.9600  -38.1840   24.0660 H   0  0  0  0  0  0  0  0  0  0  0  0
  -26.4850  -31.5590   24.9010 C   0  0  1  0  0  0  0  0  0  0  0  0
  -25.4160  -31.2630   25.9790 C   0  0  0  0  0  1  0  0  0  0  0  0
  -27.0840  -30.2060   24.4570 C   0  0  0  0  0  1  0  0  0  0  0  0
  -27.6340  -32.3480   25.5720 C   0  0  0  0  0  1  0  0  0  0  0  0
  2  7  1  0
  3  4  1  0
  3  2  1  0
  5  4  1  0
  5 19  1  0
  5  6  1  0
  7  1  1  0
  7  6  1  0
  8  1  2  0
 10 13  1  0
 12 11  1  0
 12  9  1  0
 13 44  1  0
 13 12  1  0
 14 10  1  0
 14 15  1  0
 14  9  1  0
 15  1  1  0
 15 11  1  0
 16 17  2  0
 17 36  1  0
 18 17  1  0
 18 21  1  0
 19 16  1  0
 19 20  1  0
 20 18  2  0
 21 22  1  0
 22 23  2  0
 24 27  1  0
 24 23  1  0
 25 24  2  0
 26 25  1  0
 26 21  2  0
 27 28  1  0
 28 29  1  0
 29 30  2  0
 31 30  1  0
 31 35  1  0
 32 31  2  0
 33 28  2  0
 33 32  1  0
 34 33  1  0
 36 37  1  0
 37 40  1  0
 37 39  1  0
 38 36  2  0
 41 42  1  0
 41 16  1  0
 43 41  1  0
 45 46  1  0
 45 44  2  0
 47 58  2  0
 48 46  1  0
 48 53  1  0
 49 57  1  0
 49 59  1  0
 50 56  1  0
 50 52  1  0
 51 57  1  0
 52 51  1  0
 53 52  2  0
 54 55  1  0
 54 48  2  0
 55 50  2  0
 56 49  1  0
 57 47  1  0
 59 61  2  0
 60 59  1  0
 62 60  1  0
 63 72  2  0
 63 68  1  0
 64 60  1  0
 64 68  1  0
 65 64  1  0
 66 67  1  0
 66 65  1  0
 67 63  1  0
 68 69  2  0
 69 70  1  0
 71 70  2  0
 72 71  1  0
 73 47  1  0
 73 74  1  0
 73 83  1  0
 74 77  1  0
 75 79  1  0
 75 74  1  0
 76 75  2  0
 79 78  1  0
 81 79  1  0
 81 82  1  0
 81 80  1  0
 83 86  1  1
 83 84  1  0
 85 83  1  0
M  ISO  4   1 100  15 100  45 101  46 101
M  END
>  <TORSDO>  (32) 
F 17

>  <SCORE>  (32) 
-15.881

>  <name>  (32) 
33

>  <ligand_id>  (32) 
33

>  <original_smiles>  (32) 
[H]c1c([H])c([H])c2c(c1[H])C([H])([H])C([H])([H])C([H])([H])C2([H])N([H])C(=O)C1([H])N(C(=O)C([H])(N([H])C(=O)C([H])(N([H])C([H])([H])[H])C([H])([H])[H])C(C([H])([H])[H])(C([H])([H])[H])C([H])([H])[H])C([H])([H])c2c([H])c(OC([H])([H])C([H])([H])C3([H])C([H])([H])C4([H])N(C(=O)N5C([H])([H])C([H])([H])C([H])([H])C([H])(n6nc(-c7c([H])c([H])c(Oc8c([H])c([H])c(F)c([H])c8F)c([H])c7[H])c(C(=O)N([H])[H])c6N([H])[H])C5([H])[H])C([H])([H])C3([H])C4([H])[H])c([H])c([H])c2C1([H])[H]

>  <smiles>  (32) 
[H]c1c([H])c([H])c2c(c1[H])C([H])([H])C([H])([H])C([H])([H])C2([H])N([H])C(=O)C1([H])N(C(=O)C([H])(N([H])C(=O)C([H])(N([H])C([H])([H])[H])C([H])([H])[H])C(C([H])([H])[H])(C([H])([H])[H])C([H])([H])[H])C([H])([H])c2c([H])c(OC([H])([H])C([H])([H])C3([H])C([H])([H])C4([H])N(C(=O)N5C([H])([H])C([H])([H])C([H])([H])C([H])(n6nc(-c7c([H])c([H])c(Oc8c([H])c([H])c(F)c([H])c8F)c([H])c7[H])c(C(=O)N([H])[H])c6N([H])[H])C5([H])[H])C([H])([H])C3([H])C4([H])[H])c([H])c([H])c2C1([H])[H]

$$$$
34:0:0
     RDKit          3D

 96105  0  0  1  0  0  0  0  0999 V2000
  -31.5930  -23.1690   21.3270 C   0  0  0  0  0  0  0  0  0  0  0  0
  -31.8310  -21.8340   22.0470 C   0  0  0  0  0  2  0  0  0  0  0  0
  -29.1620  -23.0870   21.9270 C   0  0  0  0  0  2  0  0  0  0  0  0
  -30.5540  -21.0020   22.2660 C   0  0  0  0  0  3  0  0  0  0  0  0
  -29.4700  -21.9090   22.8800 C   0  0  0  0  0  3  0  0  0  0  0  0
  -29.8440  -22.4010   24.2920 C   0  0  0  0  0  1  0  0  0  0  0  0
  -30.3480  -23.7100   21.2940 N   0  0  0  0  0  0  0  0  0  0  0  0
  -32.5650  -23.7120   20.7920 O   0  0  0  0  0  0  0  0  0  0  0  0
  -30.0680  -20.3090   20.9690 C   0  0  0  0  0  2  0  0  0  0  0  0
  -31.4250  -18.3520   20.0590 C   0  0  0  0  0  3  0  0  0  0  0  0
  -29.7000  -17.9190   21.7230 C   0  0  0  0  0  3  0  0  0  0  0  0
  -31.7150  -16.9750   19.9960 C   0  0  0  0  0  3  0  0  0  0  0  0
  -29.9820  -16.5420   21.6540 C   0  0  0  0  0  3  0  0  0  0  0  0
  -30.4120  -18.8300   20.9170 C   0  0  0  0  0  0  0  0  0  0  0  0
  -30.9770  -16.0570   20.7810 C   0  0  0  0  0  0  0  0  0  0  0  0
  -31.3810  -13.9000   19.6470 C   0  0  0  0  0  0  0  0  0  0  0  0
  -30.8020  -11.7630   18.5550 C   0  0  0  0  0  2  0  0  0  0  0  0
  -29.7400  -11.9610   17.4570 C   0  0  0  0  0  2  0  0  0  0  0  0
  -28.3180  -11.9290   18.0480 C   0  0  0  0  0  2  0  0  0  0  0  0
  -28.1690  -12.8600   19.2790 C   0  0  0  0  0  3  0  0  0  0  0  0
  -29.3150  -12.6130   20.2840 C   0  0  0  0  0  2  0  0  0  0  0  0
  -30.6090  -12.7870   19.5900 N   0  0  0  0  0  0  0  0  0  0  0  0
  -32.2930  -14.1410   18.8480 O   0  0  0  0  0  0  0  0  0  0  0  0
  -31.1560  -14.6510   20.7320 N   0  0  0  0  0  0  0  0  0  0  0  0
  -30.6400  -14.1490   21.4390 H   0  0  0  0  0  0  0  0  0  0  0  0
  -25.9540  -13.6760   20.3170 C   0  0  0  0  0  0  0  0  0  0  0  0
  -24.8560  -13.0010   20.7770 C   0  0  0  0  0  0  0  0  0  0  0  0
  -25.1490  -11.6130   20.6090 C   0  0  0  0  0  0  0  0  0  0  0  0
  -26.8550  -12.7050   19.9070 N   0  0  0  0  0  0  0  0  0  0  0  0
  -26.3780  -11.4550   20.1360 N   0  0  0  0  0  0  0  0  0  0  0  0
  -24.3120  -10.4250   20.8230 C   0  0  0  0  0  0  0  0  0  0  0  0
  -24.6950   -9.4040   21.7220 C   0  0  0  0  0  3  0  0  0  0  0  0
  -23.8650   -8.2800   21.9230 C   0  0  0  0  0  3  0  0  0  0  0  0
  -22.6390   -8.1680   21.2270 C   0  0  0  0  0  0  0  0  0  0  0  0
  -22.2730   -9.1770   20.3180 C   0  0  0  0  0  3  0  0  0  0  0  0
  -23.1010  -10.2920   20.1150 C   0  0  0  0  0  3  0  0  0  0  0  0
  -21.7830   -7.0980   21.3390 O   0  0  0  0  0  0  0  0  0  0  0  0
  -21.6410   -6.4090   22.5160 C   0  0  0  0  0  0  0  0  0  0  0  0
  -21.2480   -7.0510   23.7120 C   0  0  0  0  0  3  0  0  0  0  0  0
  -21.0440   -6.2940   24.8830 C   0  0  0  0  0  3  0  0  0  0  0  0
  -21.2260   -4.8990   24.8600 C   0  0  0  0  0  0  0  0  0  0  0  0
  -21.6120   -4.2580   23.6710 C   0  0  0  0  0  3  0  0  0  0  0  0
  -21.8160   -5.0110   22.5010 C   0  0  0  0  0  0  0  0  0  0  0  0
  -22.1670   -4.3850   21.3520 F   0  0  0  0  0  0  0  0  0  0  0  0
  -21.0240   -4.1710   25.9840 F   0  0  0  0  0  0  0  0  0  0  0  0
  -23.5660  -13.6050   21.2540 C   0  0  0  0  0  0  0  0  0  0  0  0
  -22.8900  -12.9480   22.1910 N   0  0  0  0  0  0  0  0  0  0  0  0
  -23.1730  -14.6910   20.8320 O   0  0  0  0  0  0  0  0  0  0  0  0
  -23.2240  -12.0690   22.5570 H   0  0  0  0  0  0  0  0  0  0  0  0
  -22.0270  -13.3330   22.5490 H   0  0  0  0  0  0  0  0  0  0  0  0
  -26.2530  -15.0290   20.1990 N   0  0  0  0  0  0  0  0  0  0  0  0
  -25.5930  -15.7560   20.4550 H   0  0  0  0  0  0  0  0  0  0  0  0
  -27.1140  -15.3950   19.8110 H   0  0  0  0  0  0  0  0  0  0  0  0
  -30.1530  -24.9220   20.4660 C   0  0  0  0  0  2  0  0  0  0  0  0
  -28.7630  -25.5790   20.5050 C   0  0  0  0  0  2  0  0  0  0  0  0
  -28.7300  -26.6680   19.5860 O   0  0  0  0  0  0  0  0  0  0  0  0
  -24.7690  -31.4420   23.0190 C   0  0  0  0  0  0  0  0  0  0  0  0
  -27.5440  -27.3470   19.6350 C   0  0  0  0  0  0  0  0  0  0  0  0
  -23.5910  -30.0850   21.3160 C   0  0  0  0  0  3  0  0  0  0  0  0
  -25.0830  -28.7080   19.7740 C   0  0  0  0  0  0  0  0  0  0  0  0
  -26.0870  -30.5860   21.0860 C   0  0  0  0  0  2  0  0  0  0  0  0
  -26.2240  -29.2620   20.3690 C   0  0  0  0  0  0  0  0  0  0  0  0
  -27.4600  -28.5870   20.2990 C   0  0  0  0  0  3  0  0  0  0  0  0
  -26.3950  -26.7970   19.0330 C   0  0  0  0  0  3  0  0  0  0  0  0
  -25.1620  -27.4740   19.1020 C   0  0  0  0  0  3  0  0  0  0  0  0
  -23.8000  -29.4970   19.8950 C   0  0  0  0  0  2  0  0  0  0  0  0
  -24.8350  -30.7140   21.8680 N   0  0  0  0  0  0  0  0  0  0  0  0
  -23.6880  -31.6310   23.5940 O   0  0  0  0  0  0  0  0  0  0  0  0
  -23.0100  -28.9790   22.2270 C   0  0  0  0  0  0  0  0  0  0  0  0
  -21.6960  -28.7320   22.1020 N   0  0  0  0  0  0  0  0  0  0  0  0
  -23.7380  -28.3490   22.9980 O   0  0  0  0  0  0  0  0  0  0  0  0
  -21.1660  -29.2990   21.4560 H   0  0  0  0  0  0  0  0  0  0  0  0
  -18.4090  -27.2930   22.5120 C   0  0  0  0  0  0  0  0  0  0  0  0
  -20.9400  -27.7120   22.8280 C   0  0  0  0  0  3  0  0  0  0  0  0
  -21.1460  -26.3140   22.1990 C   0  0  0  0  0  2  0  0  0  0  0  0
  -20.0780  -25.9570   21.1600 C   0  0  0  0  0  2  0  0  0  0  0  0
  -18.6840  -25.9850   21.7900 C   0  0  0  0  0  2  0  0  0  0  0  0
  -19.4690  -28.1120   22.9860 C   0  0  0  0  0  0  0  0  0  0  0  0
  -19.1570  -29.3350   23.6170 C   0  0  0  0  0  3  0  0  0  0  0  0
  -17.8190  -29.7400   23.7820 C   0  0  0  0  0  3  0  0  0  0  0  0
  -16.7740  -28.9180   23.3250 C   0  0  0  0  0  3  0  0  0  0  0  0
  -17.0700  -27.6960   22.6950 C   0  0  0  0  0  3  0  0  0  0  0  0
  -26.0400  -32.0910   23.6510 C   0  0  0  0  0  3  0  0  0  0  0  0
  -26.6020  -31.2850   24.8850 C   0  0  1  0  0  0  0  0  0  0  0  0
  -25.5360  -30.9670   25.9600 C   0  0  0  0  0  1  0  0  0  0  0  0
  -27.2240  -29.9470   24.4220 C   0  0  0  0  0  1  0  0  0  0  0  0
  -27.7390  -32.0890   25.5600 C   0  0  0  0  0  1  0  0  0  0  0  0
  -25.6870  -33.4630   24.0410 N   0  0  0  0  0  0  0  0  0  0  0  0
  -25.9950  -34.5570   23.3310 C   0  0  0  0  0  0  0  0  0  0  0  0
  -26.6730  -34.5180   22.3000 O   0  0  0  0  0  0  0  0  0  0  0  0
  -25.0780  -33.5620   24.8400 H   0  0  0  0  0  0  0  0  0  0  0  0
  -24.2120  -36.3100   23.0410 C   0  0  0  0  0  1  0  0  0  0  0  0
  -25.4600  -35.9080   23.8440 C   0  0  0  0  0  3  0  0  0  0  0  0
  -27.5600  -36.8210   24.7310 C   0  0  0  0  0  1  0  0  0  0  0  0
  -26.4610  -36.9950   23.7850 N   0  0  0  0  0  0  0  0  0  0  0  0
  -26.0250  -37.8950   23.9650 H   0  0  0  0  0  0  0  0  0  0  0  0
  1  2  1  0
  2  4  1  0
  3  5  1  0
  4  9  1  0
  4  5  1  0
  5  6  1  0
  7  1  1  0
  7  3  1  0
  8  1  2  0
 10 14  1  0
 12 10  2  0
 12 15  1  0
 13 11  1  0
 14  9  1  0
 14 11  2  0
 15 13  2  0
 16 24  1  0
 17 22  1  0
 18 19  1  0
 18 17  1  0
 20 19  1  0
 20 29  1  0
 20 21  1  0
 22 16  1  0
 22 21  1  0
 23 16  2  0
 24 15  1  0
 24 25  1  0
 26 27  2  0
 27 46  1  0
 28 27  1  0
 28 31  1  0
 29 30  1  0
 29 26  1  0
 30 28  2  0
 31 32  1  0
 32 33  2  0
 34 37  1  0
 34 33  1  0
 35 34  2  0
 36 35  1  0
 36 31  2  0
 37 38  1  0
 38 39  1  0
 39 40  2  0
 41 40  1  0
 41 45  1  0
 42 41  2  0
 43 38  2  0
 43 42  1  0
 44 43  1  0
 46 47  1  0
 47 50  1  0
 47 49  1  0
 48 46  2  0
 51 26  1  0
 51 52  1  0
 53 51  1  0
 54 55  1  0
 54  7  1  0
 56 58  1  0
 56 55  1  0
 57 68  2  0
 58 63  1  0
 59 67  1  0
 59 69  1  0
 60 66  1  0
 60 62  1  0
 61 67  1  0
 62 61  1  0
 63 62  2  0
 64 65  1  0
 64 58  2  0
 65 60  2  0
 66 59  1  0
 67 57  1  0
 69 71  2  0
 70 69  1  0
 72 70  1  0
 73 82  2  0
 73 78  1  0
 74 70  1  0
 74 78  1  0
 75 74  1  0
 76 77  1  0
 76 75  1  0
 77 73  1  0
 78 79  2  0
 79 80  1  0
 81 80  2  0
 82 81  1  0
 83 57  1  0
 83 88  1  0
 83 84  1  0
 84 87  1  1
 84 85  1  0
 86 84  1  0
 88 91  1  0
 89 93  1  0
 89 88  1  0
 90 89  2  0
 93 92  1  0
 95 93  1  0
 95 96  1  0
 95 94  1  0
M  ISO  4  16 100  24 100  55 101  56 101
M  END
>  <TORSDO>  (33) 
F 20

>  <SCORE>  (33) 
-11.284

>  <name>  (33) 
34

>  <ligand_id>  (33) 
34

>  <original_smiles>  (33) 
[H]c1c([H])c([H])c2c(c1[H])C([H])([H])C([H])([H])C([H])([H])C2([H])N([H])C(=O)C1([H])N(C(=O)C([H])(N([H])C(=O)C([H])(N([H])C([H])([H])[H])C([H])([H])[H])C(C([H])([H])[H])(C([H])([H])[H])C([H])([H])[H])C([H])([H])c2c([H])c(OC([H])([H])C([H])([H])N3C(=O)C([H])([H])C([H])(C([H])([H])c4c([H])c([H])c(N([H])C(=O)N5C([H])([H])C([H])([H])C([H])([H])C([H])(n6nc(-c7c([H])c([H])c(Oc8c([H])c([H])c(F)c([H])c8F)c([H])c7[H])c(C(=O)N([H])[H])c6N([H])[H])C5([H])[H])c([H])c4[H])C([H])(C([H])([H])[H])C3([H])[H])c([H])c([H])c2C1([H])[H]

>  <smiles>  (33) 
[H]c1c([H])c([H])c2c(c1[H])C([H])([H])C([H])([H])C([H])([H])C2([H])N([H])C(=O)C1([H])N(C(=O)C([H])(N([H])C(=O)C([H])(N([H])C([H])([H])[H])C([H])([H])[H])C(C([H])([H])[H])(C([H])([H])[H])C([H])([H])[H])C([H])([H])c2c([H])c(OC([H])([H])C([H])([H])N3C(=O)C([H])([H])C([H])(C([H])([H])c4c([H])c([H])c(N([H])C(=O)N5C([H])([H])C([H])([H])C([H])([H])C([H])(n6nc(-c7c([H])c([H])c(Oc8c([H])c([H])c(F)c([H])c8F)c([H])c7[H])c(C(=O)N([H])[H])c6N([H])[H])C5([H])[H])c([H])c4[H])C([H])(C([H])([H])[H])C3([H])[H])c([H])c([H])c2C1([H])[H]

$$$$
35:0:0
     RDKit          3D

 95104  0  0  1  0  0  0  0  0999 V2000
  -29.9690  -21.0270   21.7260 C   0  0  0  0  0  3  0  0  0  0  0  0
  -30.7210  -20.7780   20.6260 C   0  0  0  0  0  0  0  0  0  0  0  0
  -29.5270  -22.4240   22.1690 C   0  0  0  0  0  2  0  0  0  0  0  0
  -31.2610  -21.9720   19.8240 C   0  0  0  0  0  2  0  0  0  0  0  0
  -31.0360  -23.3290   20.4900 C   0  0  0  0  0  2  0  0  0  0  0  0
  -29.6680  -23.3800   21.0430 N   0  0  2  0  0  4  0  0  0  0  0  0
  -29.0610  -23.0010   20.3320 H   0  0  0  0  0  0  0  0  0  0  0  0
  -31.4290  -19.2980   18.7800 C   0  0  0  0  0  3  0  0  0  0  0  0
  -31.4750  -18.0710   18.1270 C   0  0  0  0  0  3  0  0  0  0  0  0
  -30.6110  -18.1960   20.7970 C   0  0  0  0  0  3  0  0  0  0  0  0
  -30.9440  -19.3970   20.1030 C   0  0  0  0  0  0  0  0  0  0  0  0
  -31.0790  -16.8990   18.7820 C   0  0  0  0  0  0  0  0  0  0  0  0
  -30.7090  -16.9270   20.1570 C   0  0  0  0  0  0  0  0  0  0  0  0
  -31.0350  -15.6500   17.9380 C   0  0  0  0  0  1  0  0  0  0  0  0
  -31.1160  -14.5940   20.8690 C   0  0  0  0  0  0  0  0  0  0  0  0
  -30.8670  -12.3560   19.8730 C   0  0  0  0  0  2  0  0  0  0  0  0
  -30.0080  -12.4160   18.5870 C   0  0  0  0  0  2  0  0  0  0  0  0
  -28.5000  -12.4220   18.8990 C   0  0  0  0  0  2  0  0  0  0  0  0
  -28.0910  -13.3400   20.0880 C   0  0  0  0  0  3  0  0  0  0  0  0
  -29.0670  -13.1750   21.2780 C   0  0  0  0  0  2  0  0  0  0  0  0
  -30.4260  -13.4230   20.7850 N   0  0  0  0  0  0  0  0  0  0  0  0
  -32.3320  -14.6650   20.6920 O   0  0  0  0  0  0  0  0  0  0  0  0
  -30.3640  -15.7190   20.8650 N   0  0  0  0  0  0  0  0  0  0  0  0
  -29.3920  -15.6030   21.1000 H   0  0  0  0  0  0  0  0  0  0  0  0
  -25.6550  -14.0010   20.6050 C   0  0  0  0  0  0  0  0  0  0  0  0
  -24.5450  -13.2490   20.8960 C   0  0  0  0  0  0  0  0  0  0  0  0
  -24.9880  -11.8930   20.9320 C   0  0  0  0  0  0  0  0  0  0  0  0
  -26.7010  -13.1020   20.4760 N   0  0  0  0  0  0  0  0  0  0  0  0
  -26.2970  -11.8300   20.7350 N   0  0  0  0  0  0  0  0  0  0  0  0
  -24.2290  -10.6470   21.0870 C   0  0  0  0  0  0  0  0  0  0  0  0
  -24.5820   -9.6830   22.0580 C   0  0  0  0  0  3  0  0  0  0  0  0
  -23.8270   -8.5010   22.2000 C   0  0  0  0  0  3  0  0  0  0  0  0
  -22.7010   -8.2740   21.3750 C   0  0  0  0  0  0  0  0  0  0  0  0
  -22.3670   -9.2230   20.3930 C   0  0  0  0  0  3  0  0  0  0  0  0
  -23.1250  -10.3980   20.2480 C   0  0  0  0  0  3  0  0  0  0  0  0
  -21.9220   -7.1440   21.4280 O   0  0  0  0  0  0  0  0  0  0  0  0
  -21.7880   -6.4140   22.5830 C   0  0  0  0  0  0  0  0  0  0  0  0
  -21.2850   -6.9850   23.7720 C   0  0  0  0  0  3  0  0  0  0  0  0
  -21.1010   -6.1820   24.9150 C   0  0  0  0  0  3  0  0  0  0  0  0
  -21.4070   -4.8100   24.8690 C   0  0  0  0  0  0  0  0  0  0  0  0
  -21.8980   -4.2380   23.6840 C   0  0  0  0  0  3  0  0  0  0  0  0
  -22.0850   -5.0370   22.5420 C   0  0  0  0  0  0  0  0  0  0  0  0
  -22.5400   -4.4750   21.3950 F   0  0  0  0  0  0  0  0  0  0  0  0
  -21.2270   -4.0380   25.9670 F   0  0  0  0  0  0  0  0  0  0  0  0
  -23.1370  -13.7500   21.0390 C   0  0  0  0  0  0  0  0  0  0  0  0
  -22.3370  -13.1020   21.8780 N   0  0  0  0  0  0  0  0  0  0  0  0
  -22.7530  -14.7560   20.4490 O   0  0  0  0  0  0  0  0  0  0  0  0
  -22.6520  -12.2820   22.3750 H   0  0  0  0  0  0  0  0  0  0  0  0
  -21.4030  -13.4490   22.0450 H   0  0  0  0  0  0  0  0  0  0  0  0
  -25.8360  -15.3700   20.4290 N   0  0  0  0  0  0  0  0  0  0  0  0
  -25.0500  -16.0030   20.5480 H   0  0  0  0  0  0  0  0  0  0  0  0
  -26.7150  -15.8480   20.2790 H   0  0  0  0  0  0  0  0  0  0  0  0
  -29.1770  -24.7630   21.2750 C   0  0  0  0  0  2  0  0  0  0  0  0
  -28.3970  -25.2600   20.0390 C   0  0  0  0  0  2  0  0  0  0  0  0
  -28.4390  -26.6890   19.9510 O   0  0  0  0  0  0  0  0  0  0  0  0
  -24.5460  -31.7310   23.0480 C   0  0  0  0  0  0  0  0  0  0  0  0
  -27.2480  -27.3780   19.9080 C   0  0  0  0  0  0  0  0  0  0  0  0
  -23.3570  -30.3300   21.3890 C   0  0  0  0  0  3  0  0  0  0  0  0
  -24.8310  -28.8450   19.9280 C   0  0  0  0  0  0  0  0  0  0  0  0
  -25.8770  -30.7330   21.1940 C   0  0  0  0  0  2  0  0  0  0  0  0
  -25.9790  -29.3780   20.5290 C   0  0  0  0  0  0  0  0  0  0  0  0
  -27.1890  -28.6500   20.5150 C   0  0  0  0  0  3  0  0  0  0  0  0
  -26.0890  -26.8720   19.2740 C   0  0  0  0  0  3  0  0  0  0  0  0
  -24.8830  -27.5950   19.2920 C   0  0  0  0  0  3  0  0  0  0  0  0
  -23.5690  -29.6750   19.9980 C   0  0  0  0  0  2  0  0  0  0  0  0
  -24.6100  -30.9480   21.9330 N   0  0  0  0  0  0  0  0  0  0  0  0
  -23.4630  -31.9830   23.5930 O   0  0  0  0  0  0  0  0  0  0  0  0
  -22.7220  -29.2850   22.3350 C   0  0  0  0  0  0  0  0  0  0  0  0
  -21.3920  -29.1230   22.2420 N   0  0  0  0  0  0  0  0  0  0  0  0
  -23.4210  -28.6230   23.1050 O   0  0  0  0  0  0  0  0  0  0  0  0
  -20.8900  -29.7090   21.5910 H   0  0  0  0  0  0  0  0  0  0  0  0
  -18.0130  -27.9950   22.8300 C   0  0  0  0  0  0  0  0  0  0  0  0
  -20.5850  -28.1690   23.0010 C   0  0  0  0  0  3  0  0  0  0  0  0
  -20.6230  -26.7660   22.3510 C   0  0  0  0  0  2  0  0  0  0  0  0
  -19.4680  -26.5230   21.3750 C   0  0  0  0  0  2  0  0  0  0  0  0
  -18.1200  -26.6770   22.0870 C   0  0  0  0  0  2  0  0  0  0  0  0
  -19.1700  -28.7070   23.2450 C   0  0  0  0  0  0  0  0  0  0  0  0
  -19.0110  -29.9510   23.8950 C   0  0  0  0  0  3  0  0  0  0  0  0
  -17.7280  -30.4760   24.1410 C   0  0  0  0  0  3  0  0  0  0  0  0
  -16.5870  -29.7560   23.7480 C   0  0  0  0  0  3  0  0  0  0  0  0
  -16.7300  -28.5210   23.0940 C   0  0  0  0  0  3  0  0  0  0  0  0
  -25.8270  -32.3670   23.6780 C   0  0  0  0  0  3  0  0  0  0  0  0
  -26.3790  -31.5680   24.9210 C   0  0  1  0  0  0  0  0  0  0  0  0
  -25.3110  -31.2710   25.9980 C   0  0  0  0  0  1  0  0  0  0  0  0
  -26.9830  -30.2180   24.4720 C   0  0  0  0  0  1  0  0  0  0  0  0
  -27.5200  -32.3690   25.5900 C   0  0  0  0  0  1  0  0  0  0  0  0
  -25.5000  -33.7490   24.0490 N   0  0  0  0  0  0  0  0  0  0  0  0
  -25.8400  -34.8300   23.3350 C   0  0  0  0  0  0  0  0  0  0  0  0
  -26.5310  -34.7690   22.3140 O   0  0  0  0  0  0  0  0  0  0  0  0
  -24.9000  -33.8750   24.8500 H   0  0  0  0  0  0  0  0  0  0  0  0
  -24.1070  -36.6200   22.9920 C   0  0  0  0  0  1  0  0  0  0  0  0
  -25.3230  -36.1930   23.8310 C   0  0  0  0  0  3  0  0  0  0  0  0
  -27.4150  -37.0630   24.7740 C   0  0  0  0  0  1  0  0  0  0  0  0
  -26.3470  -37.2580   23.7970 N   0  0  0  0  0  0  0  0  0  0  0  0
  -25.9280  -38.1680   23.9630 H   0  0  0  0  0  0  0  0  0  0  0  0
  1  3  1  0
  2  1  2  0
  4  5  1  0
  4  2  1  0
  5  6  1  0
  6 53  1  0
  6  3  1  0
  6  7  1  6
  8 11  1  0
  9  8  2  0
  9 12  1  0
 11  2  1  0
 11 10  2  0
 12 13  2  0
 13 10  1  0
 13 23  1  0
 14 12  1  0
 16 21  1  0
 17 18  1  0
 17 16  1  0
 19 18  1  0
 19 28  1  0
 19 20  1  0
 21 15  1  0
 21 20  1  0
 22 15  2  0
 23 15  1  0
 23 24  1  0
 25 26  2  0
 26 27  1  0
 26 45  1  0
 27 30  1  0
 28 25  1  0
 28 29  1  0
 29 27  2  0
 30 31  1  0
 31 32  2  0
 33 36  1  0
 33 32  1  0
 34 33  2  0
 35 34  1  0
 35 30  2  0
 36 37  1  0
 37 38  1  0
 38 39  2  0
 40 39  1  0
 40 44  1  0
 41 40  2  0
 42 37  2  0
 42 41  1  0
 43 42  1  0
 45 46  1  0
 46 49  1  0
 46 48  1  0
 47 45  2  0
 50 51  1  0
 50 25  1  0
 52 50  1  0
 54 53  1  0
 55 54  1  0
 56 67  2  0
 57 55  1  0
 57 62  1  0
 58 66  1  0
 58 68  1  0
 59 65  1  0
 59 61  1  0
 60 66  1  0
 61 60  1  0
 62 61  2  0
 63 64  1  0
 63 57  2  0
 64 59  2  0
 65 58  1  0
 66 56  1  0
 68 70  2  0
 69 68  1  0
 71 69  1  0
 72 81  2  0
 72 77  1  0
 73 69  1  0
 73 77  1  0
 74 73  1  0
 75 76  1  0
 75 74  1  0
 76 72  1  0
 77 78  2  0
 78 79  1  0
 80 79  2  0
 81 80  1  0
 82 56  1  0
 82 87  1  0
 82 83  1  0
 83 86  1  1
 83 84  1  0
 85 83  1  0
 87 90  1  0
 88 92  1  0
 88 87  1  0
 89 88  2  0
 92 91  1  0
 94 92  1  0
 94 95  1  0
 94 93  1  0
M  ISO  4  15 100  23 100  54 101  55 101
M  END
>  <TORSDO>  (34) 
F 19

>  <SCORE>  (34) 
-13.758

>  <name>  (34) 
35

>  <ligand_id>  (34) 
35

>  <original_smiles>  (34) 
[H]C1=C(c2c([H])c([H])c(C([H])([H])[H])c(N([H])C(=O)N3C([H])([H])C([H])([H])C([H])([H])C([H])(n4nc(-c5c([H])c([H])c(Oc6c([H])c([H])c(F)c([H])c6F)c([H])c5[H])c(C(=O)N([H])[H])c4N([H])[H])C3([H])[H])c2[H])C([H])([H])C([H])([H])[N+]([H])(C([H])([H])C([H])([H])Oc2c([H])c([H])c3c(c2[H])C([H])([H])N(C(=O)C([H])(N([H])C(=O)C([H])(N([H])C([H])([H])[H])C([H])([H])[H])C(C([H])([H])[H])(C([H])([H])[H])C([H])([H])[H])C([H])(C(=O)N([H])C2([H])c4c([H])c([H])c([H])c([H])c4C([H])([H])C([H])([H])C2([H])[H])C3([H])[H])C1([H])[H]

>  <smiles>  (34) 
[H]C1=C(c2c([H])c([H])c(C([H])([H])[H])c(N([H])C(=O)N3C([H])([H])C([H])([H])C([H])([H])C([H])(n4nc(-c5c([H])c([H])c(Oc6c([H])c([H])c(F)c([H])c6F)c([H])c5[H])c(C(=O)N([H])[H])c4N([H])[H])C3([H])[H])c2[H])C([H])([H])C([H])([H])[N+]([H])(C([H])([H])C([H])([H])Oc2c([H])c([H])c3c(c2[H])C([H])([H])N(C(=O)C([H])(N([H])C(=O)C([H])(N([H])C([H])([H])[H])C([H])([H])[H])C(C([H])([H])[H])(C([H])([H])[H])C([H])([H])[H])C([H])(C(=O)N([H])C2([H])c4c([H])c([H])c([H])c([H])c4C([H])([H])C([H])([H])C2([H])[H])C3([H])[H])C1([H])[H]

$$$$
36:0:0
     RDKit          3D

 92101  0  0  1  0  0  0  0  0999 V2000
  -30.6150  -15.2510   20.5460 C   0  0  0  0  0  0  0  0  0  0  0  0
  -30.4100  -13.0140   19.2650 C   0  0  0  0  0  2  0  0  0  0  0  0
  -29.4460  -13.0360   18.0550 C   0  0  0  0  0  2  0  0  0  0  0  0
  -28.0030  -12.7250   18.5000 C   0  0  0  0  0  2  0  0  0  0  0  0
  -27.6170  -13.4940   19.7850 C   0  0  0  0  0  3  0  0  0  0  0  0
  -28.7110  -13.4860   20.8750 C   0  0  0  0  0  2  0  0  0  0  0  0
  -29.9370  -14.0320   20.2610 N   0  0  0  0  0  0  0  0  0  0  0  0
  -31.8490  -15.1310   20.4580 O   0  0  0  0  0  0  0  0  0  0  0  0
  -28.7200  -18.1920   19.1330 C   0  0  0  0  0  2  0  0  0  0  0  0
  -28.7180  -16.9470   20.0730 C   0  0  0  0  0  2  0  0  0  0  0  0
  -30.4130  -18.0440   21.3830 C   0  0  0  0  0  2  0  0  0  0  0  0
  -29.4410  -19.4820   19.6030 C   0  0  0  0  0  3  0  0  0  0  0  0
  -29.5890  -19.5900   21.1460 C   0  0  0  0  0  3  0  0  0  0  0  0
  -29.9830  -16.5960   20.7390 N   0  0  0  0  0  0  0  0  0  0  0  0
  -28.0510  -22.7380   17.0540 C   0  0  0  0  0  3  0  0  0  0  0  0
  -29.3880  -22.3020   16.9870 C   0  0  0  0  0  3  0  0  0  0  0  0
  -27.1840  -22.1860   18.0180 C   0  0  0  0  0  3  0  0  0  0  0  0
  -29.8460  -21.2990   17.8670 C   0  0  0  0  0  3  0  0  0  0  0  0
  -27.6410  -21.1770   18.8930 C   0  0  0  0  0  3  0  0  0  0  0  0
  -28.9720  -20.7070   18.8090 C   0  0  0  0  0  0  0  0  0  0  0  0
  -25.2450  -14.0680   20.5090 C   0  0  0  0  0  0  0  0  0  0  0  0
  -24.1770  -13.2910   20.8490 C   0  0  0  0  0  0  0  0  0  0  0  0
  -24.6520  -11.9440   20.8290 C   0  0  0  0  0  0  0  0  0  0  0  0
  -26.2930  -13.1890   20.2890 N   0  0  0  0  0  0  0  0  0  0  0  0
  -25.9480  -11.9080   20.5460 N   0  0  0  0  0  0  0  0  0  0  0  0
  -23.9330  -10.6810   21.0030 C   0  0  0  0  0  0  0  0  0  0  0  0
  -24.3470   -9.7240   21.9540 C   0  0  0  0  0  3  0  0  0  0  0  0
  -23.6280   -8.5240   22.1170 C   0  0  0  0  0  3  0  0  0  0  0  0
  -22.4810   -8.2700   21.3260 C   0  0  0  0  0  0  0  0  0  0  0  0
  -22.0900   -9.2160   20.3620 C   0  0  0  0  0  3  0  0  0  0  0  0
  -22.8120  -10.4080   20.1970 C   0  0  0  0  0  3  0  0  0  0  0  0
  -21.7370   -7.1190   21.3960 O   0  0  0  0  0  0  0  0  0  0  0  0
  -21.6530   -6.3870   22.5520 C   0  0  0  0  0  0  0  0  0  0  0  0
  -21.1990   -6.9540   23.7610 C   0  0  0  0  0  3  0  0  0  0  0  0
  -21.0600   -6.1500   24.9080 C   0  0  0  0  0  3  0  0  0  0  0  0
  -21.3660   -4.7750   24.8480 C   0  0  0  0  0  0  0  0  0  0  0  0
  -21.8200   -4.2090   23.6430 C   0  0  0  0  0  3  0  0  0  0  0  0
  -21.9580   -5.0120   22.4990 C   0  0  0  0  0  0  0  0  0  0  0  0
  -22.3730   -4.4570   21.3350 F   0  0  0  0  0  0  0  0  0  0  0  0
  -21.2300   -4.0010   25.9490 F   0  0  0  0  0  0  0  0  0  0  0  0
  -22.7720  -13.7610   21.0820 C   0  0  0  0  0  0  0  0  0  0  0  0
  -22.0340  -13.0830   21.9530 N   0  0  0  0  0  0  0  0  0  0  0  0
  -22.3350  -14.7720   20.5280 O   0  0  0  0  0  0  0  0  0  0  0  0
  -22.3940  -12.2750   22.4340 H   0  0  0  0  0  0  0  0  0  0  0  0
  -21.0890  -13.3860   22.1500 H   0  0  0  0  0  0  0  0  0  0  0  0
  -25.3940  -15.4430   20.3390 N   0  0  0  0  0  0  0  0  0  0  0  0
  -24.6070  -16.0750   20.4680 H   0  0  0  0  0  0  0  0  0  0  0  0
  -26.2330  -15.9170   20.0490 H   0  0  0  0  0  0  0  0  0  0  0  0
  -30.0610  -21.2390   21.6250 C   0  0  0  0  0  2  0  0  0  0  0  0
  -29.2530  -22.7950   21.9500 C   0  0  0  0  0  2  0  0  0  0  0  0
  -29.1510  -24.3710   21.1470 C   0  0  0  0  0  2  0  0  0  0  0  0
  -28.9150  -25.9050   21.6330 O   0  0  0  0  0  0  0  0  0  0  0  0
  -24.8380  -31.8740   23.5610 C   0  0  0  0  0  0  0  0  0  0  0  0
  -27.8620  -26.8910   21.3100 C   0  0  0  0  0  0  0  0  0  0  0  0
  -23.8700  -30.2880   21.9450 C   0  0  0  0  0  3  0  0  0  0  0  0
  -25.5130  -28.6200   20.8480 C   0  0  0  0  0  0  0  0  0  0  0  0
  -26.4230  -30.6010   22.0460 C   0  0  0  0  0  2  0  0  0  0  0  0
  -26.6060  -29.1430   21.5470 C   0  0  0  0  0  0  0  0  0  0  0  0
  -27.7720  -28.2910   21.7640 C   0  0  0  0  0  3  0  0  0  0  0  0
  -26.7420  -26.5000   20.5450 C   0  0  0  0  0  3  0  0  0  0  0  0
  -25.6010  -27.3150   20.3340 C   0  0  0  0  0  3  0  0  0  0  0  0
  -24.2690  -29.4850   20.6730 C   0  0  0  0  0  2  0  0  0  0  0  0
  -25.0580  -30.9510   22.5720 N   0  0  0  0  0  0  0  0  0  0  0  0
  -23.6910  -32.1670   23.9370 O   0  0  0  0  0  0  0  0  0  0  0  0
  -23.1060  -29.3580   22.9220 C   0  0  0  0  0  0  0  0  0  0  0  0
  -21.8050  -29.1260   22.6690 N   0  0  0  0  0  0  0  0  0  0  0  0
  -23.6910  -28.8410   23.8780 O   0  0  0  0  0  0  0  0  0  0  0  0
  -21.3820  -29.5920   21.8780 H   0  0  0  0  0  0  0  0  0  0  0  0
  -18.4160  -27.8600   22.9360 C   0  0  0  0  0  0  0  0  0  0  0  0
  -20.9300  -28.2320   23.4350 C   0  0  0  0  0  3  0  0  0  0  0  0
  -21.1230  -26.7590   23.0070 C   0  0  0  0  0  2  0  0  0  0  0  0
  -20.1410  -26.3120   21.9180 C   0  0  0  0  0  2  0  0  0  0  0  0
  -18.6980  -26.4640   22.4030 C   0  0  0  0  0  2  0  0  0  0  0  0
  -19.4660  -28.6940   23.4080 C   0  0  0  0  0  0  0  0  0  0  0  0
  -19.1510  -29.9920   23.8650 C   0  0  0  0  0  3  0  0  0  0  0  0
  -17.8230  -30.4600   23.8540 C   0  0  0  0  0  3  0  0  0  0  0  0
  -16.7880  -29.6240   23.4010 C   0  0  0  0  0  3  0  0  0  0  0  0
  -17.0860  -28.3250   22.9480 C   0  0  0  0  0  3  0  0  0  0  0  0
  -26.0130  -32.6200   24.2620 C   0  0  0  0  0  3  0  0  0  0  0  0
  -26.4150  -31.9810   25.6480 C   0  0  1  0  0  0  0  0  0  0  0  0
  -25.2180  -31.7440   26.5990 C   0  0  0  0  0  1  0  0  0  0  0  0
  -27.1190  -30.6200   25.4390 C   0  0  0  0  0  1  0  0  0  0  0  0
  -27.4270  -32.8960   26.3770 C   0  0  0  0  0  1  0  0  0  0  0  0
  -25.6090  -34.0260   24.4500 N   0  0  0  0  0  0  0  0  0  0  0  0
  -25.9510  -35.0360   23.6400 C   0  0  0  0  0  0  0  0  0  0  0  0
  -26.7020  -34.8890   22.6700 O   0  0  0  0  0  0  0  0  0  0  0  0
  -24.9450  -34.2050   25.1870 H   0  0  0  0  0  0  0  0  0  0  0  0
  -24.1720  -36.7150   23.0370 C   0  0  0  0  0  1  0  0  0  0  0  0
  -25.3760  -36.4330   23.9520 C   0  0  0  0  0  3  0  0  0  0  0  0
  -27.4140  -37.4910   24.8280 C   0  0  0  0  0  1  0  0  0  0  0  0
  -26.3660  -37.5250   23.8110 N   0  0  0  0  0  0  0  0  0  0  0  0
  -25.9100  -38.4320   23.8530 H   0  0  0  0  0  0  0  0  0  0  0  0
  1 14  1  0
  2  7  1  0
  3  4  1  0
  3  2  1  0
  5  4  1  0
  5 24  1  0
  5  6  1  0
  7  1  1  0
  7  6  1  0
  8  1  2  0
  9 12  1  0
  9 10  1  0
 10 14  1  0
 12 20  1  0
 12 13  1  0
 13 11  1  0
 13 49  1  0
 14 11  1  0
 15 17  1  0
 16 15  2  0
 16 18  1  0
 17 19  2  0
 18 20  2  0
 20 19  1  0
 21 22  2  0
 22 41  1  0
 23 22  1  0
 23 26  1  0
 24 21  1  0
 24 25  1  0
 25 23  2  0
 26 27  1  0
 27 28  2  0
 29 32  1  0
 29 28  1  0
 30 29  2  0
 31 30  1  0
 31 26  2  0
 32 33  1  0
 33 34  1  0
 34 35  2  0
 36 35  1  0
 36 40  1  0
 37 36  2  0
 38 33  2  0
 38 37  1  0
 39 38  1  0
 41 42  1  0
 42 45  1  0
 42 44  1  0
 43 41  2  0
 46 47  1  0
 46 21  1  0
 48 46  1  0
 49 50  1  0
 51 52  1  0
 51 50  1  0
 53 64  2  0
 54 52  1  0
 54 59  1  0
 55 63  1  0
 55 65  1  0
 56 58  1  0
 57 63  1  0
 58 59  2  0
 58 57  1  0
 60 54  2  0
 61 60  1  0
 61 56  2  0
 62 56  1  0
 62 55  1  0
 63 53  1  0
 65 67  2  0
 66 65  1  0
 68 66  1  0
 69 78  2  0
 69 74  1  0
 70 66  1  0
 71 70  1  0
 72 73  1  0
 72 71  1  0
 73 69  1  0
 74 70  1  0
 74 75  2  0
 76 75  1  0
 77 76  2  0
 78 77  1  0
 79 53  1  0
 79 84  1  0
 79 80  1  0
 80 83  1  1
 80 81  1  0
 82 80  1  0
 84 87  1  0
 85 89  1  0
 85 84  1  0
 86 85  2  0
 89 88  1  0
 91 92  1  0
 91 89  1  0
 91 90  1  0
M  ISO  4   1 100  14 100  51 101  52 101
M  END
>  <TORSDO>  (35) 
F 19

>  <SCORE>  (35) 
-14.543

>  <name>  (35) 
36

>  <ligand_id>  (35) 
36

>  <original_smiles>  (35) 
[H]c1c([H])c([H])c(C2([H])C([H])([H])C([H])([H])N(C(=O)N3C([H])([H])C([H])([H])C([H])([H])C([H])(n4nc(-c5c([H])c([H])c(Oc6c([H])c([H])c(F)c([H])c6F)c([H])c5[H])c(C(=O)N([H])[H])c4N([H])[H])C3([H])[H])C([H])([H])C2([H])C([H])([H])C([H])([H])C([H])([H])Oc2c([H])c([H])c3c(c2[H])C([H])([H])N(C(=O)C([H])(N([H])C(=O)C([H])(N([H])C([H])([H])[H])C([H])([H])[H])C(C([H])([H])[H])(C([H])([H])[H])C([H])([H])[H])C([H])(C(=O)N([H])C2([H])c4c([H])c([H])c([H])c([H])c4C([H])([H])C([H])([H])C2([H])[H])C3([H])[H])c([H])c1[H]

>  <smiles>  (35) 
[H]c1c([H])c([H])c(C2([H])C([H])([H])C([H])([H])N(C(=O)N3C([H])([H])C([H])([H])C([H])([H])C([H])(n4nc(-c5c([H])c([H])c(Oc6c([H])c([H])c(F)c([H])c6F)c([H])c5[H])c(C(=O)N([H])[H])c4N([H])[H])C3([H])[H])C([H])([H])C2([H])C([H])([H])C([H])([H])C([H])([H])Oc2c([H])c([H])c3c(c2[H])C([H])([H])N(C(=O)C([H])(N([H])C(=O)C([H])(N([H])C([H])([H])[H])C([H])([H])[H])C(C([H])([H])[H])(C([H])([H])[H])C([H])([H])[H])C([H])(C(=O)N([H])C2([H])c4c([H])c([H])c([H])c([H])c4C([H])([H])C([H])([H])C2([H])[H])C3([H])[H])c([H])c1[H]

$$$$
37:0:0
     RDKit          3D

 94102  0  0  1  0  0  0  0  0999 V2000
  -28.6660  -20.8300   19.7050 C   0  0  0  0  0  2  0  0  0  0  0  0
  -28.5770  -18.7320   21.1220 C   0  0  0  0  0  3  0  0  0  0  0  0
  -28.9070  -17.3900   21.3980 C   0  0  0  0  0  3  0  0  0  0  0  0
  -30.5850  -17.4500   19.6480 C   0  0  0  0  0  3  0  0  0  0  0  0
  -29.2140  -19.4440   20.0830 C   0  0  0  0  0  0  0  0  0  0  0  0
  -30.2500  -18.7960   19.3560 C   0  0  0  0  0  0  0  0  0  0  0  0
  -29.8930  -16.7190   20.6460 C   0  0  0  0  0  0  0  0  0  0  0  0
  -30.6690  -14.4010   20.1300 C   0  0  0  0  0  0  0  0  0  0  0  0
  -30.2690  -12.2990   18.9050 C   0  0  0  0  0  2  0  0  0  0  0  0
  -29.2570  -12.5780   17.7730 C   0  0  0  0  0  2  0  0  0  0  0  0
  -27.8080  -12.4540   18.2860 C   0  0  0  0  0  2  0  0  0  0  0  0
  -27.5690  -13.2350   19.6040 C   0  0  0  0  0  3  0  0  0  0  0  0
  -28.6830  -12.9240   20.6300 C   0  0  0  0  0  2  0  0  0  0  0  0
  -29.9850  -13.2300   20.0080 N   0  0  0  0  0  0  0  0  0  0  0  0
  -31.7320  -14.6190   19.5420 O   0  0  0  0  0  0  0  0  0  0  0  0
  -30.0760  -15.3240   20.9090 N   0  0  0  0  0  0  0  0  0  0  0  0
  -29.3930  -14.9270   21.5340 H   0  0  0  0  0  0  0  0  0  0  0  0
  -25.2220  -13.8540   20.4650 C   0  0  0  0  0  0  0  0  0  0  0  0
  -24.1660  -13.0840   20.8750 C   0  0  0  0  0  0  0  0  0  0  0  0
  -24.6060  -11.7290   20.7790 C   0  0  0  0  0  0  0  0  0  0  0  0
  -26.2400  -12.9670   20.1500 N   0  0  0  0  0  0  0  0  0  0  0  0
  -25.8740  -11.6820   20.3940 N   0  0  0  0  0  0  0  0  0  0  0  0
  -23.8750  -10.4700   20.9760 C   0  0  0  0  0  0  0  0  0  0  0  0
  -24.3530   -9.4680   21.8490 C   0  0  0  0  0  3  0  0  0  0  0  0
  -23.6220   -8.2740   22.0360 C   0  0  0  0  0  3  0  0  0  0  0  0
  -22.4000   -8.0750   21.3520 C   0  0  0  0  0  0  0  0  0  0  0  0
  -21.9410   -9.0660   20.4660 C   0  0  0  0  0  3  0  0  0  0  0  0
  -22.6710  -10.2510   20.2770 C   0  0  0  0  0  3  0  0  0  0  0  0
  -21.6360   -6.9360   21.4520 O   0  0  0  0  0  0  0  0  0  0  0  0
  -21.6510   -6.1570   22.5800 C   0  0  0  0  0  0  0  0  0  0  0  0
  -21.3390   -6.6820   23.8530 C   0  0  0  0  0  3  0  0  0  0  0  0
  -21.2980   -5.8300   24.9760 C   0  0  0  0  0  3  0  0  0  0  0  0
  -21.5600   -4.4560   24.8270 C   0  0  0  0  0  0  0  0  0  0  0  0
  -21.8660   -3.9300   23.5600 C   0  0  0  0  0  3  0  0  0  0  0  0
  -21.9080   -4.7780   22.4400 C   0  0  0  0  0  0  0  0  0  0  0  0
  -22.1820   -4.2620   21.2180 F   0  0  0  0  0  0  0  0  0  0  0  0
  -21.5120   -3.6370   25.9040 F   0  0  0  0  0  0  0  0  0  0  0  0
  -22.7940  -13.5690   21.2450 C   0  0  0  0  0  0  0  0  0  0  0  0
  -22.1130  -12.8620   22.1410 N   0  0  0  0  0  0  0  0  0  0  0  0
  -22.3350  -14.6100   20.7750 O   0  0  0  0  0  0  0  0  0  0  0  0
  -22.4920  -12.0180   22.5430 H   0  0  0  0  0  0  0  0  0  0  0  0
  -21.1930  -13.1680   22.4260 H   0  0  0  0  0  0  0  0  0  0  0  0
  -25.3980  -15.2270   20.3150 N   0  0  0  0  0  0  0  0  0  0  0  0
  -24.6590  -15.8960   20.5000 H   0  0  0  0  0  0  0  0  0  0  0  0
  -26.2370  -15.6620   19.9500 H   0  0  0  0  0  0  0  0  0  0  0  0
  -30.4140  -19.0930   16.8450 C   0  0  0  0  0  1  0  0  0  0  0  0
  -30.9860  -19.4810   18.2130 C   0  0  0  0  0  2  0  0  0  0  0  0
  -29.3790  -22.0640   20.3150 C   0  0  0  0  0  2  0  0  0  0  0  0
  -28.7180  -23.3310   19.8950 N   0  0  0  0  0  4  0  0  0  0  0  0
  -27.9240  -23.4970   20.4950 H   0  0  0  0  0  0  0  0  0  0  0  0
  -28.3580  -23.1880   18.9640 H   0  0  0  0  0  0  0  0  0  0  0  0
  -29.5830  -24.5410   19.8680 C   0  0  0  0  0  2  0  0  0  0  0  0
  -28.9000  -25.7840   19.2330 C   0  0  0  0  0  2  0  0  0  0  0  0
  -28.5260  -26.7400   20.2330 O   0  0  0  0  0  0  0  0  0  0  0  0
  -24.6610  -31.8810   23.2260 C   0  0  0  0  0  0  0  0  0  0  0  0
  -27.3280  -27.4280   20.1650 C   0  0  0  0  0  0  0  0  0  0  0  0
  -23.4550  -30.4570   21.6010 C   0  0  0  0  0  3  0  0  0  0  0  0
  -24.9110  -28.9120   20.1820 C   0  0  0  0  0  0  0  0  0  0  0  0
  -25.9760  -30.8280   21.3870 C   0  0  0  0  0  2  0  0  0  0  0  0
  -26.0650  -29.4510   20.7600 C   0  0  0  0  0  0  0  0  0  0  0  0
  -27.2690  -28.7120   20.7570 C   0  0  0  0  0  3  0  0  0  0  0  0
  -26.1470  -26.8940   19.5990 C   0  0  0  0  0  3  0  0  0  0  0  0
  -24.9460  -27.6310   19.6020 C   0  0  0  0  0  3  0  0  0  0  0  0
  -23.6610  -29.7650   20.2260 C   0  0  0  0  0  2  0  0  0  0  0  0
  -24.7160  -31.0710   22.1290 N   0  0  0  0  0  0  0  0  0  0  0  0
  -23.5820  -32.1540   23.7680 O   0  0  0  0  0  0  0  0  0  0  0  0
  -22.8110  -29.4440   22.5740 C   0  0  0  0  0  0  0  0  0  0  0  0
  -21.4870  -29.2570   22.4540 N   0  0  0  0  0  0  0  0  0  0  0  0
  -23.5010  -28.8270   23.3900 O   0  0  0  0  0  0  0  0  0  0  0  0
  -20.9930  -29.8070   21.7660 H   0  0  0  0  0  0  0  0  0  0  0  0
  -18.1180  -28.0560   22.9640 C   0  0  0  0  0  0  0  0  0  0  0  0
  -20.6750  -28.3260   23.2350 C   0  0  0  0  0  3  0  0  0  0  0  0
  -20.7840  -26.8890   22.6740 C   0  0  0  0  0  2  0  0  0  0  0  0
  -19.6830  -26.5510   21.6630 C   0  0  0  0  0  2  0  0  0  0  0  0
  -18.3010  -26.6980   22.3040 C   0  0  0  0  0  2  0  0  0  0  0  0
  -19.2340  -28.8260   23.3860 C   0  0  0  0  0  0  0  0  0  0  0  0
  -19.0110  -30.0960   23.9610 C   0  0  0  0  0  3  0  0  0  0  0  0
  -17.7040  -30.5950   24.1180 C   0  0  0  0  0  3  0  0  0  0  0  0
  -16.6030  -29.8210   23.7130 C   0  0  0  0  0  3  0  0  0  0  0  0
  -16.8100  -28.5520   23.1410 C   0  0  0  0  0  3  0  0  0  0  0  0
  -25.9490  -32.5200   23.8350 C   0  0  0  0  0  3  0  0  0  0  0  0
  -25.6330  -33.9150   24.1690 N   0  0  0  0  0  0  0  0  0  0  0  0
  -25.9450  -34.9700   23.4060 C   0  0  0  0  0  0  0  0  0  0  0  0
  -26.6020  -34.8730   22.3660 O   0  0  0  0  0  0  0  0  0  0  0  0
  -25.0450  -34.0640   24.9770 H   0  0  0  0  0  0  0  0  0  0  0  0
  -24.1860  -36.7390   23.0860 C   0  0  0  0  0  1  0  0  0  0  0  0
  -25.4500  -36.3530   23.8700 C   0  0  0  0  0  3  0  0  0  0  0  0
  -27.5940  -37.2640   24.6470 C   0  0  0  0  0  1  0  0  0  0  0  0
  -26.4660  -37.4180   23.7320 N   0  0  0  0  0  0  0  0  0  0  0  0
  -26.0530  -38.3330   23.8910 H   0  0  0  0  0  0  0  0  0  0  0  0
  -26.4880  -31.7500   25.1020 C   0  0  1  0  0  0  0  0  0  0  0  0
  -25.4110  -31.5020   26.1840 C   0  0  0  0  0  1  0  0  0  0  0  0
  -27.0750  -30.3770   24.6960 C   0  0  0  0  0  1  0  0  0  0  0  0
  -27.6380  -32.5540   25.7540 C   0  0  0  0  0  1  0  0  0  0  0  0
  1  5  1  0
  1 48  1  0
  2  3  1  0
  4  7  1  0
  5  2  2  0
  6  4  2  0
  6  5  1  0
  7 16  1  0
  7  3  2  0
  8 16  1  0
  9 14  1  0
 10 11  1  0
 10  9  1  0
 12 11  1  0
 12 21  1  0
 12 13  1  0
 14  8  1  0
 14 13  1  0
 15  8  2  0
 16 17  1  0
 18 19  2  0
 19 38  1  0
 20 19  1  0
 20 23  1  0
 21 22  1  0
 21 18  1  0
 22 20  2  0
 23 24  1  0
 24 25  2  0
 26 29  1  0
 26 25  1  0
 27 26  2  0
 28 27  1  0
 28 23  2  0
 29 30  1  0
 30 31  1  0
 31 32  2  0
 33 32  1  0
 33 37  1  0
 34 33  2  0
 35 30  2  0
 35 34  1  0
 36 35  1  0
 38 39  1  0
 39 42  1  0
 39 41  1  0
 40 38  2  0
 43 18  1  0
 43 44  1  0
 45 43  1  0
 46 47  1  0
 47  6  1  0
 49 48  1  0
 49 50  1  0
 51 49  1  0
 52 49  1  0
 53 52  1  0
 53 54  1  0
 55 66  2  0
 56 54  1  0
 56 61  1  0
 57 65  1  0
 57 67  1  0
 58 64  1  0
 58 60  1  0
 59 65  1  0
 60 59  1  0
 61 60  2  0
 62 63  1  0
 62 56  2  0
 63 58  2  0
 64 57  1  0
 65 55  1  0
 67 69  2  0
 68 67  1  0
 70 68  1  0
 71 80  2  0
 71 76  1  0
 72 68  1  0
 72 76  1  0
 73 72  1  0
 74 75  1  0
 74 73  1  0
 75 71  1  0
 76 77  2  0
 77 78  1  0
 79 78  2  0
 80 79  1  0
 81 55  1  0
 81 82  1  0
 81 91  1  0
 82 85  1  0
 83 87  1  0
 83 82  1  0
 84 83  2  0
 87 86  1  0
 89 87  1  0
 89 90  1  0
 89 88  1  0
 91 94  1  1
 91 92  1  0
 93 91  1  0
M  ISO  4   8 100  16 100  53 101  54 101
M  END
>  <TORSDO>  (36) 
F 22

>  <SCORE>  (36) 
-12.119

>  <name>  (36) 
37

>  <ligand_id>  (36) 
37

>  <original_smiles>  (36) 
[H]c1c([H])c([H])c2c(c1[H])C([H])([H])C([H])([H])C([H])([H])C2([H])N([H])C(=O)C1([H])N(C(=O)C([H])(N([H])C(=O)C([H])(N([H])C([H])([H])[H])C([H])([H])[H])C(C([H])([H])[H])(C([H])([H])[H])C([H])([H])[H])C([H])([H])c2c([H])c(OC([H])([H])C([H])([H])[N+]([H])([H])C([H])([H])C([H])([H])c3c([H])c([H])c(N([H])C(=O)N4C([H])([H])C([H])([H])C([H])([H])C([H])(n5nc(-c6c([H])c([H])c(Oc7c([H])c([H])c(F)c([H])c7F)c([H])c6[H])c(C(=O)N([H])[H])c5N([H])[H])C4([H])[H])c([H])c3C([H])([H])C([H])([H])[H])c([H])c([H])c2C1([H])[H]

>  <smiles>  (36) 
[H]c1c([H])c([H])c2c(c1[H])C([H])([H])C([H])([H])C([H])([H])C2([H])N([H])C(=O)C1([H])N(C(=O)C([H])(N([H])C(=O)C([H])(N([H])C([H])([H])[H])C([H])([H])[H])C(C([H])([H])[H])(C([H])([H])[H])C([H])([H])[H])C([H])([H])c2c([H])c(OC([H])([H])C([H])([H])[N+]([H])([H])C([H])([H])C([H])([H])c3c([H])c([H])c(N([H])C(=O)N4C([H])([H])C([H])([H])C([H])([H])C([H])(n5nc(-c6c([H])c([H])c(Oc7c([H])c([H])c(F)c([H])c7F)c([H])c6[H])c(C(=O)N([H])[H])c5N([H])[H])C4([H])[H])c([H])c3C([H])([H])C([H])([H])[H])c([H])c([H])c2C1([H])[H]

$$$$
38:0:0
     RDKit          3D

 85 94  0  0  1  0  0  0  0  0999 V2000
  -28.9880  -22.2940   20.3090 C   0  0  0  0  0  3  0  0  0  0  0  0
  -30.2850  -15.6490   20.1500 C   0  0  0  0  0  0  0  0  0  0  0  0
  -30.3380  -13.1310   19.3040 C   0  0  0  0  0  2  0  0  0  0  0  0
  -29.4220  -12.7600   18.1070 C   0  0  0  0  0  2  0  0  0  0  0  0
  -28.0060  -12.4060   18.5900 C   0  0  0  0  0  2  0  0  0  0  0  0
  -27.5180  -13.3940   19.6750 C   0  0  0  0  0  3  0  0  0  0  0  0
  -28.5720  -13.6940   20.7650 C   0  0  0  0  0  2  0  0  0  0  0  0
  -29.7370  -14.3010   20.0820 N   0  0  0  0  0  0  0  0  0  0  0  0
  -31.5190  -15.5750   19.9960 O   0  0  0  0  0  0  0  0  0  0  0  0
  -28.0470  -19.8750   19.0000 C   0  0  0  0  0  2  0  0  0  0  0  0
  -28.2120  -17.2550   19.7140 C   0  0  0  0  0  2  0  0  0  0  0  0
  -28.7560  -18.5000   18.9720 C   0  0  0  0  0  3  0  0  0  0  0  0
  -28.7500  -20.3850   20.2620 C   0  0  0  0  0  3  0  0  0  0  0  0
  -29.7450  -18.7660   20.1060 C   0  0  0  0  0  3  0  0  0  0  0  0
  -29.5590  -17.0230   20.2230 N   0  0  0  0  0  0  0  0  0  0  0  0
  -25.1690  -13.9070   20.4950 C   0  0  0  0  0  0  0  0  0  0  0  0
  -24.1230  -13.1150   20.8710 C   0  0  0  0  0  0  0  0  0  0  0  0
  -24.6040  -11.7700   20.8180 C   0  0  0  0  0  0  0  0  0  0  0  0
  -26.2160  -13.0450   20.2210 N   0  0  0  0  0  0  0  0  0  0  0  0
  -25.8910  -11.7530   20.4830 N   0  0  0  0  0  0  0  0  0  0  0  0
  -23.8900  -10.5000   21.0060 C   0  0  0  0  0  0  0  0  0  0  0  0
  -24.3270   -9.5380   21.9420 C   0  0  0  0  0  3  0  0  0  0  0  0
  -23.6080   -8.3350   22.1210 C   0  0  0  0  0  3  0  0  0  0  0  0
  -22.4390   -8.0880   21.3630 C   0  0  0  0  0  0  0  0  0  0  0  0
  -22.0220   -9.0380   20.4160 C   0  0  0  0  0  3  0  0  0  0  0  0
  -22.7410  -10.2330   20.2350 C   0  0  0  0  0  3  0  0  0  0  0  0
  -21.6930   -6.9370   21.4510 O   0  0  0  0  0  0  0  0  0  0  0  0
  -21.6250   -6.2110   22.6130 C   0  0  0  0  0  0  0  0  0  0  0  0
  -21.1370   -6.7710   23.8140 C   0  0  0  0  0  3  0  0  0  0  0  0
  -21.0170   -5.9700   24.9680 C   0  0  0  0  0  3  0  0  0  0  0  0
  -21.3750   -4.6100   24.9190 C   0  0  0  0  0  0  0  0  0  0  0  0
  -21.8570   -4.0490   23.7230 C   0  0  0  0  0  3  0  0  0  0  0  0
  -21.9770   -4.8470   22.5730 C   0  0  0  0  0  0  0  0  0  0  0  0
  -22.4210   -4.2970   21.4170 F   0  0  0  0  0  0  0  0  0  0  0  0
  -21.2550   -3.8370   26.0250 F   0  0  0  0  0  0  0  0  0  0  0  0
  -22.7260  -13.5780   21.1640 C   0  0  0  0  0  0  0  0  0  0  0  0
  -22.0170  -12.8720   22.0360 N   0  0  0  0  0  0  0  0  0  0  0  0
  -22.2740  -14.6030   20.6550 O   0  0  0  0  0  0  0  0  0  0  0  0
  -22.3980  -12.0430   22.4690 H   0  0  0  0  0  0  0  0  0  0  0  0
  -21.0810  -13.1640   22.2750 H   0  0  0  0  0  0  0  0  0  0  0  0
  -25.3120  -15.2800   20.3300 N   0  0  0  0  0  0  0  0  0  0  0  0
  -24.5400  -15.9230   20.4710 H   0  0  0  0  0  0  0  0  0  0  0  0
  -26.1550  -15.7340   20.0070 H   0  0  0  0  0  0  0  0  0  0  0  0
  -27.9640  -23.9160   20.2140 C   0  0  0  0  0  3  0  0  0  0  0  0
  -28.1580  -25.6460   20.3260 O   0  0  0  0  0  0  0  0  0  0  0  0
  -24.6790  -31.9000   23.2440 C   0  0  0  0  0  0  0  0  0  0  0  0
  -27.1800  -26.8360   20.2690 C   0  0  0  0  0  0  0  0  0  0  0  0
  -23.4820  -30.5070   21.6080 C   0  0  0  0  0  3  0  0  0  0  0  0
  -24.9190  -28.8540   20.2020 C   0  0  0  0  0  0  0  0  0  0  0  0
  -26.0590  -30.6440   21.4860 C   0  0  0  0  0  2  0  0  0  0  0  0
  -26.1150  -29.2140   20.8330 C   0  0  0  0  0  0  0  0  0  0  0  0
  -27.2330  -28.2330   20.8340 C   0  0  0  0  0  3  0  0  0  0  0  0
  -25.9500  -26.6710   19.5860 C   0  0  0  0  0  3  0  0  0  0  0  0
  -24.8730  -27.6060   19.5550 C   0  0  0  0  0  3  0  0  0  0  0  0
  -23.7180  -29.8080   20.2390 C   0  0  0  0  0  2  0  0  0  0  0  0
  -24.7640  -31.0490   22.1660 N   0  0  0  0  0  0  0  0  0  0  0  0
  -23.5880  -32.2070   23.7540 O   0  0  0  0  0  0  0  0  0  0  0  0
  -22.7600  -29.5360   22.5800 C   0  0  0  0  0  0  0  0  0  0  0  0
  -21.4280  -29.3870   22.4500 N   0  0  0  0  0  0  0  0  0  0  0  0
  -23.4100  -28.9110   23.4220 O   0  0  0  0  0  0  0  0  0  0  0  0
  -20.9530  -29.9400   21.7500 H   0  0  0  0  0  0  0  0  0  0  0  0
  -18.0330  -28.1940   22.9500 C   0  0  0  0  0  0  0  0  0  0  0  0
  -20.5920  -28.4600   23.2240 C   0  0  0  0  0  3  0  0  0  0  0  0
  -20.6920  -27.0220   22.6620 C   0  0  0  0  0  2  0  0  0  0  0  0
  -19.5970  -26.6940   21.6430 C   0  0  0  0  0  2  0  0  0  0  0  0
  -18.2110  -26.8430   22.2780 C   0  0  0  0  0  2  0  0  0  0  0  0
  -19.1500  -28.9600   23.3800 C   0  0  0  0  0  0  0  0  0  0  0  0
  -18.9250  -30.2220   23.9720 C   0  0  0  0  0  3  0  0  0  0  0  0
  -17.6190  -30.7180   24.1360 C   0  0  0  0  0  3  0  0  0  0  0  0
  -16.5170  -29.9520   23.7200 C   0  0  0  0  0  3  0  0  0  0  0  0
  -16.7250  -28.6910   23.1330 C   0  0  0  0  0  3  0  0  0  0  0  0
  -25.9470  -32.5410   23.8850 C   0  0  0  0  0  3  0  0  0  0  0  0
  -25.6340  -33.9430   24.2190 N   0  0  0  0  0  0  0  0  0  0  0  0
  -25.9490  -35.0060   23.4640 C   0  0  0  0  0  0  0  0  0  0  0  0
  -26.5910  -34.9070   22.4160 O   0  0  0  0  0  0  0  0  0  0  0  0
  -25.0590  -34.0930   25.0350 H   0  0  0  0  0  0  0  0  0  0  0  0
  -24.2020  -36.8020   23.1960 C   0  0  0  0  0  1  0  0  0  0  0  0
  -25.4810  -36.3960   23.9460 C   0  0  0  0  0  3  0  0  0  0  0  0
  -27.6460  -37.2970   24.6790 C   0  0  0  0  0  1  0  0  0  0  0  0
  -26.5040  -37.4540   23.7820 N   0  0  0  0  0  0  0  0  0  0  0  0
  -26.1020  -38.3720   23.9400 H   0  0  0  0  0  0  0  0  0  0  0  0
  -26.4380  -31.7790   25.1800 C   0  0  1  0  0  0  0  0  0  0  0  0
  -25.3270  -31.5660   26.2370 C   0  0  0  0  0  1  0  0  0  0  0  0
  -27.0120  -30.3900   24.8220 C   0  0  0  0  0  1  0  0  0  0  0  0
  -27.5870  -32.5690   25.8480 C   0  0  0  0  0  1  0  0  0  0  0  0
  2 15  1  0
  3  8  1  0
  4  5  1  0
  4  3  1  0
  6  5  1  0
  6 19  1  0
  6  7  1  0
  8  2  1  0
  8  7  1  0
  9  2  2  0
 10 13  1  0
 11 15  1  0
 12 10  1  0
 12 11  1  0
 12 14  1  0
 13  1  1  0
 14 15  1  0
 14 13  1  0
 16 17  2  0
 17 36  1  0
 18 17  1  0
 18 21  1  0
 19 20  1  0
 19 16  1  0
 20 18  2  0
 21 22  1  0
 22 23  2  0
 24 27  1  0
 24 23  1  0
 25 24  2  0
 26 25  1  0
 26 21  2  0
 27 28  1  0
 28 29  1  0
 29 30  2  0
 31 30  1  0
 31 35  1  0
 32 31  2  0
 33 28  2  0
 33 32  1  0
 34 33  1  0
 36 37  1  0
 37 40  1  0
 37 39  1  0
 38 36  2  0
 41 42  1  0
 41 16  1  0
 43 41  1  0
 44  1  2  0
 44 45  1  0
 46 57  2  0
 47 45  1  0
 47 52  1  0
 48 56  1  0
 48 58  1  0
 49 55  1  0
 49 51  1  0
 50 56  1  0
 51 52  2  0
 51 50  1  0
 53 47  2  0
 54 53  1  0
 54 49  2  0
 55 48  1  0
 56 46  1  0
 58 60  2  0
 59 58  1  0
 61 59  1  0
 62 71  2  0
 62 67  1  0
 63 59  1  0
 63 67  1  0
 64 63  1  0
 65 66  1  0
 65 64  1  0
 66 62  1  0
 67 68  2  0
 68 69  1  0
 70 69  2  0
 71 70  1  0
 72 46  1  0
 72 73  1  0
 72 82  1  0
 73 76  1  0
 74 78  1  0
 74 73  1  0
 75 74  2  0
 78 77  1  0
 80 81  1  0
 80 78  1  0
 80 79  1  0
 82 85  1  1
 82 83  1  0
 84 82  1  0
M  ISO  4   2 100  15 100  44 101  45 101
M  END
>  <TORSDO>  (37) 
F 17

>  <SCORE>  (37) 
-16.695

>  <name>  (37) 
38

>  <ligand_id>  (37) 
38

>  <original_smiles>  (37) 
[H]c1c([H])c([H])c2c(c1[H])C([H])([H])C([H])([H])C([H])([H])C2([H])N([H])C(=O)C1([H])N(C(=O)C([H])(N([H])C(=O)C([H])(N([H])C([H])([H])[H])C([H])([H])[H])C(C([H])([H])[H])(C([H])([H])[H])C([H])([H])[H])C([H])([H])c2c([H])c(OC([H])([H])C([H])([H])C3([H])C([H])([H])C4([H])C([H])([H])N(C(=O)N5C([H])([H])C([H])([H])C([H])([H])C([H])(n6nc(-c7c([H])c([H])c(Oc8c([H])c([H])c(F)c([H])c8F)c([H])c7[H])c(C(=O)N([H])[H])c6N([H])[H])C5([H])[H])C43[H])c([H])c([H])c2C1([H])[H]

>  <smiles>  (37) 
[H]c1c([H])c([H])c2c(c1[H])C([H])([H])C([H])([H])C([H])([H])C2([H])N([H])C(=O)C1([H])N(C(=O)C([H])(N([H])C(=O)C([H])(N([H])C([H])([H])[H])C([H])([H])[H])C(C([H])([H])[H])(C([H])([H])[H])C([H])([H])[H])C([H])([H])c2c([H])c(OC([H])([H])C([H])([H])C3([H])C([H])([H])C4([H])C([H])([H])N(C(=O)N5C([H])([H])C([H])([H])C([H])([H])C([H])(n6nc(-c7c([H])c([H])c(Oc8c([H])c([H])c(F)c([H])c8F)c([H])c7[H])c(C(=O)N([H])[H])c6N([H])[H])C5([H])[H])C43[H])c([H])c([H])c2C1([H])[H]

$$$$
39:0:0
     RDKit          3D

 92101  0  0  1  0  0  0  0  0999 V2000
  -29.3080  -21.5660   18.7880 C   0  0  0  0  0  2  0  0  0  0  0  0
  -28.4970  -20.7210   19.7360 C   0  0  0  0  0  3  0  0  0  0  0  0
  -29.2040  -21.9780   20.2400 C   0  0  0  0  0  3  0  0  0  0  0  0
  -28.9180  -18.3200   19.0390 C   0  0  0  0  0  3  0  0  0  0  0  0
  -29.4490  -18.9550   21.3200 C   0  0  0  0  0  3  0  0  0  0  0  0
  -29.3380  -16.9970   19.3000 C   0  0  0  0  0  3  0  0  0  0  0  0
  -29.8600  -17.6300   21.5900 C   0  0  0  0  0  3  0  0  0  0  0  0
  -28.9670  -19.3160   20.0400 C   0  0  0  0  0  0  0  0  0  0  0  0
  -29.8180  -16.6400   20.5850 C   0  0  0  0  0  0  0  0  0  0  0  0
  -30.7440  -14.3970   20.1160 C   0  0  0  0  0  0  0  0  0  0  0  0
  -30.3930  -12.2780   18.9060 C   0  0  0  0  0  2  0  0  0  0  0  0
  -29.3800  -12.5380   17.7700 C   0  0  0  0  0  2  0  0  0  0  0  0
  -27.9320  -12.4050   18.2820 C   0  0  0  0  0  2  0  0  0  0  0  0
  -27.6830  -13.1880   19.6010 C   0  0  0  0  0  3  0  0  0  0  0  0
  -28.7960  -12.8910   20.6290 C   0  0  0  0  0  2  0  0  0  0  0  0
  -30.0940  -13.2090   20.0060 N   0  0  0  0  0  0  0  0  0  0  0  0
  -31.7790  -14.6610   19.4940 O   0  0  0  0  0  0  0  0  0  0  0  0
  -30.1510  -15.2940   20.9190 N   0  0  0  0  0  0  0  0  0  0  0  0
  -29.5600  -14.8820   21.6270 H   0  0  0  0  0  0  0  0  0  0  0  0
  -25.3310  -13.7980   20.4580 C   0  0  0  0  0  0  0  0  0  0  0  0
  -24.2790  -13.0250   20.8710 C   0  0  0  0  0  0  0  0  0  0  0  0
  -24.7270  -11.6710   20.7800 C   0  0  0  0  0  0  0  0  0  0  0  0
  -26.3530  -12.9140   20.1450 N   0  0  0  0  0  0  0  0  0  0  0  0
  -25.9950  -11.6280   20.3910 N   0  0  0  0  0  0  0  0  0  0  0  0
  -24.0030  -10.4090   20.9890 C   0  0  0  0  0  0  0  0  0  0  0  0
  -24.4480   -9.4500   21.9260 C   0  0  0  0  0  3  0  0  0  0  0  0
  -23.7290   -8.2510   22.1200 C   0  0  0  0  0  3  0  0  0  0  0  0
  -22.5490   -8.0020   21.3760 C   0  0  0  0  0  0  0  0  0  0  0  0
  -22.1200   -8.9520   20.4310 C   0  0  0  0  0  3  0  0  0  0  0  0
  -22.8410  -10.1430   20.2370 C   0  0  0  0  0  3  0  0  0  0  0  0
  -21.8010   -6.8540   21.4770 O   0  0  0  0  0  0  0  0  0  0  0  0
  -21.7170   -6.1510   22.6520 C   0  0  0  0  0  0  0  0  0  0  0  0
  -21.2300   -6.7430   23.8380 C   0  0  0  0  0  3  0  0  0  0  0  0
  -21.0900   -5.9660   25.0060 C   0  0  0  0  0  3  0  0  0  0  0  0
  -21.4310   -4.6000   24.9880 C   0  0  0  0  0  0  0  0  0  0  0  0
  -21.9130   -4.0090   23.8080 C   0  0  0  0  0  3  0  0  0  0  0  0
  -22.0510   -4.7830   22.6410 C   0  0  0  0  0  0  0  0  0  0  0  0
  -22.4960   -4.2030   21.4990 F   0  0  0  0  0  0  0  0  0  0  0  0
  -21.2900   -3.8520   26.1080 F   0  0  0  0  0  0  0  0  0  0  0  0
  -22.9070  -13.5060   21.2450 C   0  0  0  0  0  0  0  0  0  0  0  0
  -22.2310  -12.8000   22.1430 N   0  0  0  0  0  0  0  0  0  0  0  0
  -22.4420  -14.5430   20.7720 O   0  0  0  0  0  0  0  0  0  0  0  0
  -22.6200  -11.9610   22.5480 H   0  0  0  0  0  0  0  0  0  0  0  0
  -21.3110  -13.1040   22.4310 H   0  0  0  0  0  0  0  0  0  0  0  0
  -25.5000  -15.1720   20.3090 N   0  0  0  0  0  0  0  0  0  0  0  0
  -24.7580  -15.8350   20.5050 H   0  0  0  0  0  0  0  0  0  0  0  0
  -26.3510  -15.6110   19.9790 H   0  0  0  0  0  0  0  0  0  0  0  0
  -28.4640  -23.2830   20.4750 C   0  0  0  0  0  0  0  0  0  0  0  0
  -27.2800  -23.4300   20.1580 O   0  0  0  0  0  0  0  0  0  0  0  0
  -29.2790  -24.4360   21.0850 C   0  0  0  0  0  2  0  0  0  0  0  0
  -28.5270  -25.7620   21.3510 C   0  0  0  0  0  2  0  0  0  0  0  0
  -28.4830  -26.6240   20.2080 O   0  0  0  0  0  0  0  0  0  0  0  0
  -24.5440  -31.7760   23.1490 C   0  0  0  0  0  0  0  0  0  0  0  0
  -27.3400  -27.3800   20.1620 C   0  0  0  0  0  0  0  0  0  0  0  0
  -23.4100  -30.3560   21.4710 C   0  0  0  0  0  3  0  0  0  0  0  0
  -24.9290  -28.8390   20.0950 C   0  0  0  0  0  0  0  0  0  0  0  0
  -25.9340  -30.7560   21.3510 C   0  0  0  0  0  2  0  0  0  0  0  0
  -26.0590  -29.3840   20.7200 C   0  0  0  0  0  0  0  0  0  0  0  0
  -27.2710  -28.6590   20.7570 C   0  0  0  0  0  3  0  0  0  0  0  0
  -26.1990  -26.8430   19.5340 C   0  0  0  0  0  3  0  0  0  0  0  0
  -24.9920  -27.5650   19.5040 C   0  0  0  0  0  3  0  0  0  0  0  0
  -23.6730  -29.6810   20.0990 C   0  0  0  0  0  2  0  0  0  0  0  0
  -24.6450  -30.9790   22.0480 N   0  0  0  0  0  0  0  0  0  0  0  0
  -23.4430  -32.0330   23.6560 O   0  0  0  0  0  0  0  0  0  0  0  0
  -22.7460  -29.3250   22.4120 C   0  0  0  0  0  0  0  0  0  0  0  0
  -21.4240  -29.1470   22.2660 N   0  0  0  0  0  0  0  0  0  0  0  0
  -23.4180  -28.6930   23.2330 O   0  0  0  0  0  0  0  0  0  0  0  0
  -20.9450  -29.7110   21.5780 H   0  0  0  0  0  0  0  0  0  0  0  0
  -18.0380  -27.9720   22.7230 C   0  0  0  0  0  0  0  0  0  0  0  0
  -20.5950  -28.2040   23.0160 C   0  0  0  0  0  3  0  0  0  0  0  0
  -20.6900  -26.7810   22.4190 C   0  0  0  0  0  2  0  0  0  0  0  0
  -19.5920  -26.4830   21.3940 C   0  0  0  0  0  2  0  0  0  0  0  0
  -18.2070  -26.6320   22.0280 C   0  0  0  0  0  2  0  0  0  0  0  0
  -19.1580  -28.7170   23.1740 C   0  0  0  0  0  0  0  0  0  0  0  0
  -18.9470  -29.9720   23.7830 C   0  0  0  0  0  3  0  0  0  0  0  0
  -17.6460  -30.4830   23.9470 C   0  0  0  0  0  3  0  0  0  0  0  0
  -16.5380  -29.7350   23.5110 C   0  0  0  0  0  3  0  0  0  0  0  0
  -16.7340  -28.4820   22.9050 C   0  0  0  0  0  3  0  0  0  0  0  0
  -25.8020  -32.4260   23.8070 C   0  0  0  0  0  3  0  0  0  0  0  0
  -26.3080  -31.6470   25.0820 C   0  0  1  0  0  0  0  0  0  0  0  0
  -25.1980  -31.3690   26.1230 C   0  0  0  0  0  1  0  0  0  0  0  0
  -26.9330  -30.2910   24.6810 C   0  0  0  0  0  1  0  0  0  0  0  0
  -27.4250  -32.4580   25.7800 C   0  0  0  0  0  1  0  0  0  0  0  0
  -25.4550  -33.8130   24.1470 N   0  0  0  0  0  0  0  0  0  0  0  0
  -25.7740  -34.8800   23.4030 C   0  0  0  0  0  0  0  0  0  0  0  0
  -26.4640  -34.8020   22.3820 O   0  0  0  0  0  0  0  0  0  0  0  0
  -24.8400  -33.9440   24.9360 H   0  0  0  0  0  0  0  0  0  0  0  0
  -24.0070  -36.6310   23.0400 C   0  0  0  0  0  1  0  0  0  0  0  0
  -25.2460  -36.2500   23.8650 C   0  0  0  0  0  3  0  0  0  0  0  0
  -27.3440  -37.1820   24.7360 C   0  0  0  0  0  1  0  0  0  0  0  0
  -26.2540  -37.3290   23.7750 N   0  0  0  0  0  0  0  0  0  0  0  0
  -25.8230  -38.2370   23.9200 H   0  0  0  0  0  0  0  0  0  0  0  0
  1  2  1  0
  1  3  1  0
  2  8  1  0
  2  3  1  0
  3 48  1  0
  4  6  2  0
  4  8  1  0
  5  7  1  0
  6  9  1  0
  8  5  2  0
  9 18  1  0
  9  7  2  0
 10 18  1  0
 11 16  1  0
 12 13  1  0
 12 11  1  0
 14 13  1  0
 14 23  1  0
 14 15  1  0
 16 10  1  0
 16 15  1  0
 17 10  2  0
 18 19  1  0
 20 21  2  0
 21 40  1  0
 22 21  1  0
 22 25  1  0
 23 24  1  0
 23 20  1  0
 24 22  2  0
 25 26  1  0
 26 27  2  0
 28 31  1  0
 28 27  1  0
 29 28  2  0
 30 29  1  0
 30 25  2  0
 31 32  1  0
 32 33  1  0
 33 34  2  0
 35 34  1  0
 35 39  1  0
 36 35  2  0
 37 32  2  0
 37 36  1  0
 38 37  1  0
 40 41  1  0
 41 44  1  0
 41 43  1  0
 42 40  2  0
 45 20  1  0
 45 46  1  0
 47 45  1  0
 48 50  1  0
 49 48  2  0
 50 51  1  0
 52 51  1  0
 53 64  2  0
 54 52  1  0
 54 59  1  0
 55 63  1  0
 55 65  1  0
 56 62  1  0
 56 58  1  0
 57 63  1  0
 58 59  2  0
 58 57  1  0
 60 54  2  0
 61 60  1  0
 61 56  2  0
 62 55  1  0
 63 53  1  0
 65 67  2  0
 66 65  1  0
 68 66  1  0
 69 78  2  0
 69 74  1  0
 70 66  1  0
 70 74  1  0
 71 70  1  0
 72 73  1  0
 72 71  1  0
 73 69  1  0
 74 75  2  0
 75 76  1  0
 77 76  2  0
 78 77  1  0
 79 53  1  0
 79 84  1  0
 79 80  1  0
 80 83  1  1
 80 81  1  0
 82 80  1  0
 84 87  1  0
 85 89  1  0
 85 84  1  0
 86 85  2  0
 89 88  1  0
 91 89  1  0
 91 92  1  0
 91 90  1  0
M  ISO  4  10 100  18 100  51 101  52 101
M  END
>  <TORSDO>  (38) 
F 20

>  <SCORE>  (38) 
-13.425

>  <name>  (38) 
39

>  <ligand_id>  (38) 
39

>  <original_smiles>  (38) 
[H]c1c([H])c([H])c2c(c1[H])C([H])([H])C([H])([H])C([H])([H])C2([H])N([H])C(=O)C1([H])N(C(=O)C([H])(N([H])C(=O)C([H])(N([H])C([H])([H])[H])C([H])([H])[H])C(C([H])([H])[H])(C([H])([H])[H])C([H])([H])[H])C([H])([H])c2c([H])c(OC([H])([H])C([H])([H])C(=O)C3([H])C([H])([H])C3([H])c3c([H])c([H])c(N([H])C(=O)N4C([H])([H])C([H])([H])C([H])([H])C([H])(n5nc(-c6c([H])c([H])c(Oc7c([H])c([H])c(F)c([H])c7F)c([H])c6[H])c(C(=O)N([H])[H])c5N([H])[H])C4([H])[H])c([H])c3[H])c([H])c([H])c2C1([H])[H]

>  <smiles>  (38) 
[H]c1c([H])c([H])c2c(c1[H])C([H])([H])C([H])([H])C([H])([H])C2([H])N([H])C(=O)C1([H])N(C(=O)C([H])(N([H])C(=O)C([H])(N([H])C([H])([H])[H])C([H])([H])[H])C(C([H])([H])[H])(C([H])([H])[H])C([H])([H])[H])C([H])([H])c2c([H])c(OC([H])([H])C([H])([H])C(=O)C3([H])C([H])([H])C3([H])c3c([H])c([H])c(N([H])C(=O)N4C([H])([H])C([H])([H])C([H])([H])C([H])(n5nc(-c6c([H])c([H])c(Oc7c([H])c([H])c(F)c([H])c7F)c([H])c6[H])c(C(=O)N([H])[H])c5N([H])[H])C4([H])[H])c([H])c3[H])c([H])c([H])c2C1([H])[H]

$$$$
40:0:0
     RDKit          3D

 89 97  0  0  1  0  0  0  0  0999 V2000
  -29.7140  -21.1220   19.7060 C   0  0  0  0  0  0  0  0  0  0  0  0
  -30.5530  -21.8530   18.6650 C   0  0  0  0  0  2  0  0  0  0  0  0
  -28.7530  -22.1750   20.4340 C   0  0  0  0  0  2  0  0  0  0  0  0
  -29.6880  -22.7190   17.7260 C   0  0  0  0  0  2  0  0  0  0  0  0
  -28.8540  -23.8010   18.4460 C   0  0  0  0  0  2  0  0  0  0  0  0
  -28.9420  -23.7390   19.9820 C   0  0  0  0  0  3  0  0  0  0  0  0
  -29.9500  -19.8230   19.7550 N   0  0  0  0  0  0  0  0  0  0  0  0
  -28.0450  -24.9330   20.6060 C   0  0  0  0  0  2  0  0  0  0  0  0
  -28.3010  -26.3800   20.2510 O   0  0  0  0  0  0  0  0  0  0  0  0
  -24.6160  -31.8830   23.2400 C   0  0  0  0  0  0  0  0  0  0  0  0
  -27.2110  -27.2760   20.2120 C   0  0  0  0  0  0  0  0  0  0  0  0
  -23.4100  -30.4850   21.6020 C   0  0  0  0  0  3  0  0  0  0  0  0
  -24.8580  -28.9230   20.1810 C   0  0  0  0  0  0  0  0  0  0  0  0
  -25.9540  -30.7920   21.4170 C   0  0  0  0  0  2  0  0  0  0  0  0
  -26.0310  -29.4060   20.7770 C   0  0  0  0  0  0  0  0  0  0  0  0
  -27.2120  -28.5970   20.7780 C   0  0  0  0  0  3  0  0  0  0  0  0
  -26.0200  -26.8650   19.5790 C   0  0  0  0  0  3  0  0  0  0  0  0
  -24.8580  -27.6580   19.5730 C   0  0  0  0  0  3  0  0  0  0  0  0
  -23.6240  -29.8050   20.2250 C   0  0  0  0  0  2  0  0  0  0  0  0
  -24.6790  -31.0740   22.1410 N   0  0  0  0  0  0  0  0  0  0  0  0
  -23.5330  -32.1580   23.7760 O   0  0  0  0  0  0  0  0  0  0  0  0
  -22.7480  -29.4680   22.5640 C   0  0  0  0  0  0  0  0  0  0  0  0
  -21.4220  -29.2880   22.4400 N   0  0  0  0  0  0  0  0  0  0  0  0
  -23.4300  -28.8430   23.3800 O   0  0  0  0  0  0  0  0  0  0  0  0
  -20.9250  -29.8530   21.7650 H   0  0  0  0  0  0  0  0  0  0  0  0
  -18.0480  -28.0870   22.9620 C   0  0  0  0  0  0  0  0  0  0  0  0
  -20.6080  -28.3470   23.2140 C   0  0  0  0  0  3  0  0  0  0  0  0
  -20.7020  -26.9150   22.6400 C   0  0  0  0  0  2  0  0  0  0  0  0
  -19.5960  -26.5920   21.6300 C   0  0  0  0  0  2  0  0  0  0  0  0
  -18.2180  -26.7370   22.2830 C   0  0  0  0  0  2  0  0  0  0  0  0
  -19.1700  -28.8490   23.3840 C   0  0  0  0  0  0  0  0  0  0  0  0
  -18.9550  -30.1100   23.9800 C   0  0  0  0  0  3  0  0  0  0  0  0
  -17.6530  -30.6150   24.1500 C   0  0  0  0  0  3  0  0  0  0  0  0
  -16.5450  -29.8510   23.7410 C   0  0  0  0  0  3  0  0  0  0  0  0
  -16.7430  -28.5870   23.1570 C   0  0  0  0  0  3  0  0  0  0  0  0
  -25.8970  -32.5200   23.8610 C   0  0  0  0  0  3  0  0  0  0  0  0
  -26.4120  -31.7540   25.1420 C   0  0  1  0  0  0  0  0  0  0  0  0
  -25.3190  -31.5260   26.2120 C   0  0  0  0  0  1  0  0  0  0  0  0
  -26.9980  -30.3750   24.7600 C   0  0  0  0  0  1  0  0  0  0  0  0
  -27.5590  -32.5540   25.8000 C   0  0  0  0  0  1  0  0  0  0  0  0
  -25.5830  -33.9190   24.1890 N   0  0  0  0  0  0  0  0  0  0  0  0
  -25.9130  -34.9710   23.4280 C   0  0  0  0  0  0  0  0  0  0  0  0
  -26.5810  -34.8670   22.3970 O   0  0  0  0  0  0  0  0  0  0  0  0
  -24.9910  -34.0740   24.9920 H   0  0  0  0  0  0  0  0  0  0  0  0
  -24.1860  -36.7650   23.0660 C   0  0  0  0  0  1  0  0  0  0  0  0
  -25.4230  -36.3590   23.8840 C   0  0  0  0  0  3  0  0  0  0  0  0
  -27.5550  -37.2450   24.7200 C   0  0  0  0  0  1  0  0  0  0  0  0
  -26.4560  -37.4120   23.7740 N   0  0  0  0  0  0  0  0  0  0  0  0
  -26.0480  -38.3320   23.9170 H   0  0  0  0  0  0  0  0  0  0  0  0
  -29.4060  -18.6320   20.4910 C   0  0  0  0  0  2  0  0  0  0  0  0
  -30.2860  -17.3060   20.1530 C   0  0  0  0  0  2  0  0  0  0  0  0
  -30.6300  -14.7440   20.3570 C   0  0  0  0  0  0  0  0  0  0  0  0
  -30.4120  -12.4770   19.3430 C   0  0  0  0  0  2  0  0  0  0  0  0
  -29.4780  -12.5740   18.1170 C   0  0  0  0  0  2  0  0  0  0  0  0
  -28.0050  -12.4070   18.5430 C   0  0  0  0  0  2  0  0  0  0  0  0
  -27.6360  -13.2810   19.7730 C   0  0  0  0  0  3  0  0  0  0  0  0
  -28.6960  -13.1840   20.8910 C   0  0  0  0  0  2  0  0  0  0  0  0
  -29.9940  -13.5270   20.3000 N   0  0  0  0  0  0  0  0  0  0  0  0
  -31.8150  -14.8360   20.0230 O   0  0  0  0  0  0  0  0  0  0  0  0
  -29.8730  -15.8890   20.5380 N   0  0  0  0  0  0  0  0  0  0  0  0
  -28.9030  -15.7510   20.7780 H   0  0  0  0  0  0  0  0  0  0  0  0
  -25.2480  -13.8590   20.5040 C   0  0  0  0  0  0  0  0  0  0  0  0
  -24.1880  -13.0810   20.8760 C   0  0  0  0  0  0  0  0  0  0  0  0
  -24.6560  -11.7300   20.8410 C   0  0  0  0  0  0  0  0  0  0  0  0
  -26.2960  -12.9850   20.2650 N   0  0  0  0  0  0  0  0  0  0  0  0
  -25.9460  -11.7000   20.5320 N   0  0  0  0  0  0  0  0  0  0  0  0
  -23.9340  -10.4650   21.0290 C   0  0  0  0  0  0  0  0  0  0  0  0
  -24.3700   -9.5000   21.9640 C   0  0  0  0  0  3  0  0  0  0  0  0
  -23.6490   -8.2990   22.1430 C   0  0  0  0  0  3  0  0  0  0  0  0
  -22.4770   -8.0560   21.3870 C   0  0  0  0  0  0  0  0  0  0  0  0
  -22.0600   -9.0090   20.4430 C   0  0  0  0  0  3  0  0  0  0  0  0
  -22.7820  -10.2010   20.2620 C   0  0  0  0  0  3  0  0  0  0  0  0
  -21.7280   -6.9070   21.4750 O   0  0  0  0  0  0  0  0  0  0  0  0
  -21.6810   -6.1630   22.6260 C   0  0  0  0  0  0  0  0  0  0  0  0
  -21.2480   -6.7140   23.8520 C   0  0  0  0  0  3  0  0  0  0  0  0
  -21.1500   -5.8960   24.9970 C   0  0  0  0  0  3  0  0  0  0  0  0
  -21.4750   -4.5290   24.9160 C   0  0  0  0  0  0  0  0  0  0  0  0
  -21.9030   -3.9780   23.6940 C   0  0  0  0  0  3  0  0  0  0  0  0
  -22.0020   -4.7930   22.5530 C   0  0  0  0  0  0  0  0  0  0  0  0
  -22.3940   -4.2530   21.3740 F   0  0  0  0  0  0  0  0  0  0  0  0
  -21.3730   -3.7410   26.0110 F   0  0  0  0  0  0  0  0  0  0  0  0
  -22.7890  -13.5490   21.1530 C   0  0  0  0  0  0  0  0  0  0  0  0
  -22.0660  -12.8420   22.0140 N   0  0  0  0  0  0  0  0  0  0  0  0
  -22.3460  -14.5760   20.6380 O   0  0  0  0  0  0  0  0  0  0  0  0
  -22.4400  -12.0110   22.4470 H   0  0  0  0  0  0  0  0  0  0  0  0
  -21.1280  -13.1340   22.2440 H   0  0  0  0  0  0  0  0  0  0  0  0
  -25.4060  -15.2310   20.3250 N   0  0  0  0  0  0  0  0  0  0  0  0
  -24.6300  -15.8790   20.4140 H   0  0  0  0  0  0  0  0  0  0  0  0
  -26.2450  -15.6690   19.9640 H   0  0  0  0  0  0  0  0  0  0  0  0
  1  7  2  0
  1  3  1  0
  2  1  1  0
  4  5  1  0
  4  2  1  0
  5  6  1  0
  6  3  1  0
  6  8  1  0
  7 50  1  0
  9  8  1  0
 10 21  2  0
 11  9  1  0
 11 16  1  0
 12 20  1  0
 12 22  1  0
 13 19  1  0
 13 15  1  0
 14 20  1  0
 15 16  2  0
 15 14  1  0
 17 11  2  0
 18 17  1  0
 18 13  2  0
 19 12  1  0
 20 10  1  0
 22 24  2  0
 23 22  1  0
 25 23  1  0
 26 35  2  0
 26 31  1  0
 27 23  1  0
 27 31  1  0
 28 27  1  0
 29 30  1  0
 29 28  1  0
 30 26  1  0
 31 32  2  0
 32 33  1  0
 34 33  2  0
 35 34  1  0
 36 10  1  0
 36 41  1  0
 36 37  1  0
 37 40  1  1
 37 38  1  0
 39 37  1  0
 41 44  1  0
 42 46  1  0
 42 41  1  0
 43 42  2  0
 46 45  1  0
 48 46  1  0
 48 49  1  0
 48 47  1  0
 51 50  1  0
 51 60  1  0
 52 60  1  0
 53 58  1  0
 54 55  1  0
 54 53  1  0
 56 55  1  0
 56 65  1  0
 56 57  1  0
 58 52  1  0
 58 57  1  0
 59 52  2  0
 60 61  1  0
 62 63  2  0
 63 82  1  0
 64 63  1  0
 64 67  1  0
 65 62  1  0
 65 66  1  0
 66 64  2  0
 67 68  1  0
 68 69  2  0
 70 73  1  0
 70 69  1  0
 71 70  2  0
 72 71  1  0
 72 67  2  0
 73 74  1  0
 74 75  1  0
 75 76  2  0
 77 76  1  0
 77 81  1  0
 78 77  2  0
 79 74  2  0
 79 78  1  0
 80 79  1  0
 82 83  1  0
 83 86  1  0
 83 85  1  0
 84 82  2  0
 87 88  1  0
 87 62  1  0
 89 87  1  0
M  ISO  4   8 101   9 101  52 100  60 100
M  END
>  <TORSDO>  (39) 
F 19

>  <SCORE>  (39) 
-14.041

>  <name>  (39) 
40

>  <ligand_id>  (39) 
40

>  <original_smiles>  (39) 
[H]c1c([H])c([H])c2c(c1[H])C([H])([H])C([H])([H])C([H])([H])C2([H])N([H])C(=O)C1([H])N(C(=O)C([H])(N([H])C(=O)C([H])(N([H])C([H])([H])[H])C([H])([H])[H])C(C([H])([H])[H])(C([H])([H])[H])C([H])([H])[H])C([H])([H])c2c([H])c(OC([H])([H])C3([H])C([H])([H])C(=NC([H])([H])C([H])([H])N([H])C(=O)N4C([H])([H])C([H])([H])C([H])([H])C([H])(n5nc(-c6c([H])c([H])c(Oc7c([H])c([H])c(F)c([H])c7F)c([H])c6[H])c(C(=O)N([H])[H])c5N([H])[H])C4([H])[H])C([H])([H])C([H])([H])C3([H])[H])c([H])c([H])c2C1([H])[H]

>  <smiles>  (39) 
[H]c1c([H])c([H])c2c(c1[H])C([H])([H])C([H])([H])C([H])([H])C2([H])N([H])C(=O)C1([H])N(C(=O)C([H])(N([H])C(=O)C([H])(N([H])C([H])([H])[H])C([H])([H])[H])C(C([H])([H])[H])(C([H])([H])[H])C([H])([H])[H])C([H])([H])c2c([H])c(OC([H])([H])C3([H])C([H])([H])C(=NC([H])([H])C([H])([H])N([H])C(=O)N4C([H])([H])C([H])([H])C([H])([H])C([H])(n5nc(-c6c([H])c([H])c(Oc7c([H])c([H])c(F)c([H])c7F)c([H])c6[H])c(C(=O)N([H])[H])c5N([H])[H])C4([H])[H])C([H])([H])C([H])([H])C3([H])[H])c([H])c([H])c2C1([H])[H]

$$$$
41:0:0
     RDKit          3D

 93101  0  0  1  0  0  0  0  0999 V2000
  -30.1150  -23.6410   19.8110 C   0  0  0  0  0  0  0  0  0  0  0  0
  -30.5630  -22.2720   20.3740 C   0  0  0  0  0  2  0  0  0  0  0  0
  -27.6960  -22.7290   19.9710 C   0  0  0  0  0  2  0  0  0  0  0  0
  -28.6140  -24.0000   19.8340 C   0  0  0  0  0  3  0  0  0  0  0  0
  -29.5660  -21.0890   20.1960 C   0  0  0  0  0  3  0  0  0  0  0  0
  -30.9690  -24.4560   19.3480 N   0  0  0  0  0  0  0  0  0  0  0  0
  -28.2510  -21.5490   20.7080 N   0  0  0  0  0  4  0  0  0  0  0  0
  -31.9180  -24.1030   19.4040 H   0  0  0  0  0  0  0  0  0  0  0  0
  -27.5880  -20.7940   20.6220 H   0  0  0  0  0  0  0  0  0  0  0  0
  -28.3200  -21.7680   21.6890 H   0  0  0  0  0  0  0  0  0  0  0  0
  -28.2290  -25.2290   20.7560 C   0  0  0  0  0  2  0  0  0  0  0  0
  -28.3720  -26.5800   20.2000 O   0  0  0  0  0  0  0  0  0  0  0  0
  -24.6050  -31.8810   23.2300 C   0  0  0  0  0  0  0  0  0  0  0  0
  -27.2320  -27.3780   20.1770 C   0  0  0  0  0  0  0  0  0  0  0  0
  -23.3980  -30.4770   21.5920 C   0  0  0  0  0  3  0  0  0  0  0  0
  -24.8510  -28.9310   20.1660 C   0  0  0  0  0  0  0  0  0  0  0  0
  -25.9280  -30.8220   21.3920 C   0  0  0  0  0  2  0  0  0  0  0  0
  -26.0140  -29.4450   20.7540 C   0  0  0  0  0  0  0  0  0  0  0  0
  -27.2110  -28.6800   20.7470 C   0  0  0  0  0  3  0  0  0  0  0  0
  -26.0530  -26.8970   19.5710 C   0  0  0  0  0  3  0  0  0  0  0  0
  -24.8690  -27.6610   19.5650 C   0  0  0  0  0  3  0  0  0  0  0  0
  -23.6070  -29.7940   20.2140 C   0  0  0  0  0  2  0  0  0  0  0  0
  -24.6620  -31.0760   22.1300 N   0  0  0  0  0  0  0  0  0  0  0  0
  -23.5240  -32.1560   23.7700 O   0  0  0  0  0  0  0  0  0  0  0  0
  -22.7430  -29.4620   22.5570 C   0  0  0  0  0  0  0  0  0  0  0  0
  -21.4180  -29.2790   22.4300 N   0  0  0  0  0  0  0  0  0  0  0  0
  -23.4250  -28.8390   23.3760 O   0  0  0  0  0  0  0  0  0  0  0  0
  -20.9280  -29.8350   21.7430 H   0  0  0  0  0  0  0  0  0  0  0  0
  -18.0450  -28.0710   22.9190 C   0  0  0  0  0  0  0  0  0  0  0  0
  -20.6010  -28.3430   23.2020 C   0  0  0  0  0  3  0  0  0  0  0  0
  -20.7120  -26.9090   22.6360 C   0  0  0  0  0  2  0  0  0  0  0  0
  -19.6180  -26.5760   21.6160 C   0  0  0  0  0  2  0  0  0  0  0  0
  -18.2320  -26.7190   22.2500 C   0  0  0  0  0  2  0  0  0  0  0  0
  -19.1580  -28.8420   23.3490 C   0  0  0  0  0  0  0  0  0  0  0  0
  -18.9300  -30.1060   23.9320 C   0  0  0  0  0  3  0  0  0  0  0  0
  -17.6230  -30.6030   24.0900 C   0  0  0  0  0  3  0  0  0  0  0  0
  -16.5250  -29.8300   23.6750 C   0  0  0  0  0  3  0  0  0  0  0  0
  -16.7360  -28.5660   23.0950 C   0  0  0  0  0  3  0  0  0  0  0  0
  -25.8900  -32.5140   23.8490 C   0  0  0  0  0  3  0  0  0  0  0  0
  -26.4130  -31.7430   25.1230 C   0  0  1  0  0  0  0  0  0  0  0  0
  -25.3250  -31.5050   26.1970 C   0  0  0  0  0  1  0  0  0  0  0  0
  -26.9920  -30.3650   24.7260 C   0  0  0  0  0  1  0  0  0  0  0  0
  -27.5680  -32.5370   25.7790 C   0  0  0  0  0  1  0  0  0  0  0  0
  -25.5820  -33.9130   24.1810 N   0  0  0  0  0  0  0  0  0  0  0  0
  -25.9100  -34.9660   23.4200 C   0  0  0  0  0  0  0  0  0  0  0  0
  -26.5730  -34.8630   22.3850 O   0  0  0  0  0  0  0  0  0  0  0  0
  -25.0000  -34.0690   24.9910 H   0  0  0  0  0  0  0  0  0  0  0  0
  -24.1760  -36.7550   23.0760 C   0  0  0  0  0  1  0  0  0  0  0  0
  -25.4220  -36.3540   23.8810 C   0  0  0  0  0  3  0  0  0  0  0  0
  -27.5630  -37.2390   24.6950 C   0  0  0  0  0  1  0  0  0  0  0  0
  -26.4510  -37.4090   23.7620 N   0  0  0  0  0  0  0  0  0  0  0  0
  -26.0460  -38.3270   23.9180 H   0  0  0  0  0  0  0  0  0  0  0  0
  -30.1020  -19.7480   20.8670 C   0  0  0  0  0  2  0  0  0  0  0  0
  -29.5360  -18.3300   20.4490 C   0  0  0  0  0  2  0  0  0  0  0  0
  -30.4740  -17.1120   20.8270 C   0  0  0  0  0  2  0  0  0  0  0  0
  -30.6230  -14.6000   20.3870 C   0  0  0  0  0  0  0  0  0  0  0  0
  -30.3220  -12.3840   19.3200 C   0  0  0  0  0  2  0  0  0  0  0  0
  -29.3780  -12.5330   18.1080 C   0  0  0  0  0  2  0  0  0  0  0  0
  -27.9080  -12.3890   18.5490 C   0  0  0  0  0  2  0  0  0  0  0  0
  -27.5660  -13.2560   19.7920 C   0  0  0  0  0  3  0  0  0  0  0  0
  -28.6340  -13.1150   20.9010 C   0  0  0  0  0  2  0  0  0  0  0  0
  -29.9410  -13.4170   20.3020 N   0  0  0  0  0  0  0  0  0  0  0  0
  -31.7890  -14.6960   19.9970 O   0  0  0  0  0  0  0  0  0  0  0  0
  -29.9230  -15.7200   20.7320 N   0  0  0  0  0  0  0  0  0  0  0  0
  -28.9590  -15.5860   20.9990 H   0  0  0  0  0  0  0  0  0  0  0  0
  -25.1790  -13.8540   20.5300 C   0  0  0  0  0  0  0  0  0  0  0  0
  -24.1140  -13.0810   20.9040 C   0  0  0  0  0  0  0  0  0  0  0  0
  -24.5750  -11.7290   20.8700 C   0  0  0  0  0  0  0  0  0  0  0  0
  -26.2220  -12.9730   20.2900 N   0  0  0  0  0  0  0  0  0  0  0  0
  -25.8630  -11.6910   20.5550 N   0  0  0  0  0  0  0  0  0  0  0  0
  -23.8470  -10.4670   21.0640 C   0  0  0  0  0  0  0  0  0  0  0  0
  -24.2960   -9.4900   21.9800 C   0  0  0  0  0  3  0  0  0  0  0  0
  -23.5700   -8.2950   22.1640 C   0  0  0  0  0  3  0  0  0  0  0  0
  -22.3810   -8.0650   21.4310 C   0  0  0  0  0  0  0  0  0  0  0  0
  -21.9490   -9.0330   20.5050 C   0  0  0  0  0  3  0  0  0  0  0  0
  -22.6770  -10.2200   20.3200 C   0  0  0  0  0  3  0  0  0  0  0  0
  -21.6230   -6.9230   21.5240 O   0  0  0  0  0  0  0  0  0  0  0  0
  -21.6100   -6.1590   22.6630 C   0  0  0  0  0  0  0  0  0  0  0  0
  -21.2390   -6.6950   23.9160 C   0  0  0  0  0  3  0  0  0  0  0  0
  -21.1720   -5.8590   25.0480 C   0  0  0  0  0  3  0  0  0  0  0  0
  -21.4670   -4.4870   24.9290 C   0  0  0  0  0  0  0  0  0  0  0  0
  -21.8330   -3.9510   23.6830 C   0  0  0  0  0  3  0  0  0  0  0  0
  -21.9010   -4.7840   22.5520 C   0  0  0  0  0  0  0  0  0  0  0  0
  -22.2330   -4.2580   21.3490 F   0  0  0  0  0  0  0  0  0  0  0  0
  -21.3970   -3.6820   26.0150 F   0  0  0  0  0  0  0  0  0  0  0  0
  -22.7190  -13.5590   21.1860 C   0  0  0  0  0  0  0  0  0  0  0  0
  -21.9980  -12.8630   22.0580 N   0  0  0  0  0  0  0  0  0  0  0  0
  -22.2780  -14.5850   20.6700 O   0  0  0  0  0  0  0  0  0  0  0  0
  -22.3680  -12.0330   22.4960 H   0  0  0  0  0  0  0  0  0  0  0  0
  -21.0620  -13.1640   22.2920 H   0  0  0  0  0  0  0  0  0  0  0  0
  -25.3430  -15.2250   20.3540 N   0  0  0  0  0  0  0  0  0  0  0  0
  -24.5770  -15.8790   20.4720 H   0  0  0  0  0  0  0  0  0  0  0  0
  -26.1910  -15.6650   20.0210 H   0  0  0  0  0  0  0  0  0  0  0  0
  1  4  1  0
  1  2  1  0
  3  7  1  0
  4  3  1  0
  4 11  1  0
  5  2  1  0
  5  7  1  0
  5 53  1  0
  6  8  1  0
  6  1  2  0
  7 10  1  0
  9  7  1  0
 12 11  1  0
 13 24  2  0
 14 12  1  0
 14 19  1  0
 15 23  1  0
 15 25  1  0
 16 22  1  0
 16 18  1  0
 17 23  1  0
 18 17  1  0
 19 18  2  0
 20 14  2  0
 21 20  1  0
 21 16  2  0
 22 15  1  0
 23 13  1  0
 25 27  2  0
 26 25  1  0
 28 26  1  0
 29 38  2  0
 29 34  1  0
 30 26  1  0
 30 34  1  0
 31 30  1  0
 32 33  1  0
 32 31  1  0
 33 29  1  0
 34 35  2  0
 35 36  1  0
 37 36  2  0
 38 37  1  0
 39 13  1  0
 39 44  1  0
 39 40  1  0
 40 43  1  1
 40 41  1  0
 42 40  1  0
 44 47  1  0
 45 49  1  0
 45 44  1  0
 46 45  2  0
 49 48  1  0
 51 49  1  0
 51 52  1  0
 51 50  1  0
 54 55  1  0
 54 53  1  0
 56 64  1  0
 57 62  1  0
 58 59  1  0
 58 57  1  0
 60 59  1  0
 60 69  1  0
 60 61  1  0
 62 56  1  0
 62 61  1  0
 63 56  2  0
 64 55  1  0
 64 65  1  0
 66 67  2  0
 67 86  1  0
 68 67  1  0
 68 71  1  0
 69 66  1  0
 69 70  1  0
 70 68  2  0
 71 72  1  0
 72 73  2  0
 74 77  1  0
 74 73  1  0
 75 74  2  0
 76 75  1  0
 76 71  2  0
 77 78  1  0
 78 79  1  0
 79 80  2  0
 81 80  1  0
 81 85  1  0
 82 81  2  0
 83 78  2  0
 83 82  1  0
 84 83  1  0
 86 87  1  0
 87 90  1  0
 87 89  1  0
 88 86  2  0
 91 92  1  0
 91 66  1  0
 93 91  1  0
M  ISO  4  11 101  12 101  56 100  64 100
M  END
>  <TORSDO>  (40) 
F 20

>  <SCORE>  (40) 
-13.859

>  <name>  (40) 
41

>  <ligand_id>  (40) 
41

>  <original_smiles>  (40) 
[H]N=C1C([H])([H])C([H])(C([H])([H])C([H])([H])C([H])([H])N([H])C(=O)N2C([H])([H])C([H])([H])C([H])([H])C([H])(n3nc(-c4c([H])c([H])c(Oc5c([H])c([H])c(F)c([H])c5F)c([H])c4[H])c(C(=O)N([H])[H])c3N([H])[H])C2([H])[H])[N+]([H])([H])C([H])([H])C1([H])C([H])([H])Oc1c([H])c([H])c2c(c1[H])C([H])([H])N(C(=O)C([H])(N([H])C(=O)C([H])(N([H])C([H])([H])[H])C([H])([H])[H])C(C([H])([H])[H])(C([H])([H])[H])C([H])([H])[H])C([H])(C(=O)N([H])C1([H])c3c([H])c([H])c([H])c([H])c3C([H])([H])C([H])([H])C1([H])[H])C2([H])[H]

>  <smiles>  (40) 
[H]N=C1C([H])([H])C([H])(C([H])([H])C([H])([H])C([H])([H])N([H])C(=O)N2C([H])([H])C([H])([H])C([H])([H])C([H])(n3nc(-c4c([H])c([H])c(Oc5c([H])c([H])c(F)c([H])c5F)c([H])c4[H])c(C(=O)N([H])[H])c3N([H])[H])C2([H])[H])[N+]([H])([H])C([H])([H])C1([H])C([H])([H])Oc1c([H])c([H])c2c(c1[H])C([H])([H])N(C(=O)C([H])(N([H])C(=O)C([H])(N([H])C([H])([H])[H])C([H])([H])[H])C(C([H])([H])[H])(C([H])([H])[H])C([H])([H])[H])C([H])(C(=O)N([H])C1([H])c3c([H])c([H])c([H])c([H])c3C([H])([H])C([H])([H])C1([H])[H])C2([H])[H]

$$$$
42:0:0
     RDKit          3D

 92 96  0  0  1  0  0  0  0  0999 V2000
  -30.1950  -16.2970   19.0800 C   0  0  0  0  0  2  0  0  0  0  0  0
  -29.0420  -15.6740   19.4290 C   0  0  0  0  0  1  0  0  0  0  0  0
  -28.7090  -17.6870   19.9790 C   0  0  0  0  0  2  0  0  0  0  0  0
  -28.2090  -19.4200   19.7070 C   0  0  0  0  0  1  0  0  0  0  0  0
  -29.7690  -17.5870   21.0750 C   0  0  0  0  0  2  0  0  0  0  0  0
  -30.8740  -16.6770   20.3900 C   0  0  1  0  0  0  0  0  0  0  0  0
  -31.2580  -15.2610   21.0590 C   0  0  0  0  0  0  0  0  0  0  0  0
  -30.9060  -13.7360   19.2860 C   0  0  0  0  0  2  0  0  0  0  0  0
  -29.5930  -13.8020   17.9040 C   0  0  0  0  0  3  0  0  0  0  0  0
  -27.6940  -14.0050   18.3370 C   0  0  0  0  0  3  0  0  0  0  0  0
  -27.2110  -14.2410   20.2220 C   0  0  0  0  0  2  0  0  0  0  0  0
  -28.6840  -14.4300   21.5370 C   0  0  0  0  0  1  0  0  0  0  0  0
  -30.4040  -14.2830   20.9090 N   0  0  0  0  0  0  0  0  0  0  0  0
  -32.4320  -14.9310   21.0310 O   0  0  0  0  0  0  0  0  0  0  0  0
  -24.9620  -13.9030   20.8570 C   0  0  0  0  0  0  0  0  0  0  0  0
  -24.0740  -12.9430   21.1200 C   0  0  0  0  0  0  0  0  0  0  0  0
  -24.7240  -11.6760   21.0140 C   0  0  0  0  0  0  0  0  0  0  0  0
  -26.1320  -13.3070   20.6150 N   0  0  0  0  0  0  0  0  0  0  0  0
  -26.0280  -11.9090   20.7240 N   0  0  0  0  0  0  0  0  0  0  0  0
  -24.0670  -10.3390   21.1370 C   0  0  0  0  0  0  0  0  0  0  0  0
  -24.4260   -9.3700   22.1060 C   0  0  0  0  0  3  0  0  0  0  0  0
  -23.6750   -8.1740   22.2570 C   0  0  0  0  0  3  0  0  0  0  0  0
  -22.5420   -7.9270   21.4430 C   0  0  0  0  0  0  0  0  0  0  0  0
  -22.1950   -8.8800   20.4700 C   0  0  0  0  0  3  0  0  0  0  0  0
  -22.9480  -10.0600   20.3180 C   0  0  0  0  0  3  0  0  0  0  0  0
  -21.7720   -6.7850   21.4910 O   0  0  0  0  0  0  0  0  0  0  0  0
  -21.6180   -6.0530   22.6440 C   0  0  0  0  0  0  0  0  0  0  0  0
  -21.0700   -6.6170   23.8160 C   0  0  0  0  0  3  0  0  0  0  0  0
  -20.8650   -5.8140   24.9570 C   0  0  0  0  0  3  0  0  0  0  0  0
  -21.1990   -4.4470   24.9270 C   0  0  0  0  0  0  0  0  0  0  0  0
  -21.7340   -3.8800   23.7580 C   0  0  0  0  0  3  0  0  0  0  0  0
  -21.9390   -4.6790   22.6190 C   0  0  0  0  0  0  0  0  0  0  0  0
  -22.4330   -4.1180   21.4880 F   0  0  0  0  0  0  0  0  0  0  0  0
  -21.0020   -3.6760   26.0230 F   0  0  0  0  0  0  0  0  0  0  0  0
  -22.6560  -13.2910   21.3620 C   0  0  0  0  0  0  0  0  0  0  0  0
  -22.0080  -12.5940   22.2750 N   0  0  0  0  0  0  0  0  0  0  0  0
  -22.1560  -14.2700   20.8040 O   0  0  0  0  0  0  0  0  0  0  0  0
  -22.4520  -11.8210   22.7500 H   0  0  0  0  0  0  0  0  0  0  0  0
  -21.0530  -12.8280   22.5020 H   0  0  0  0  0  0  0  0  0  0  0  0
  -24.8070  -15.2850   20.7970 N   0  0  0  0  0  0  0  0  0  0  0  0
  -23.8820  -15.6940   20.8810 H   0  0  0  0  0  0  0  0  0  0  0  0
  -25.5170  -15.9540   20.5320 H   0  0  0  0  0  0  0  0  0  0  0  0
  -28.9660   -9.6360   20.2190 C   0  0  0  0  0  3  0  0  0  0  0  0
  -28.6880  -10.2210   18.9980 C   0  0  0  0  0  3  0  0  0  0  0  0
  -29.2950  -10.5160   21.2350 C   0  0  0  0  0  3  0  0  0  0  0  0
  -28.7180  -11.6240   18.8430 C   0  0  0  0  0  3  0  0  0  0  0  0
  -29.3080  -11.9090   21.0080 C   0  0  0  0  0  3  0  0  0  0  0  0
  -28.9960  -12.7540   19.7980 C   0  0  0  0  0  3  0  0  0  0  0  0
  -33.1110  -17.2030   19.0070 C   0  0  0  0  0  1  0  0  0  0  0  0
  -32.1290  -17.5840   20.1370 C   0  0  0  0  0  2  0  0  0  0  0  0
  -27.8110  -21.6870   20.2140 C   0  0  0  0  0 15  0  0  0  0  0  0
  -27.8190  -23.9270   20.0190 O   0  0  0  0  0  1  0  0  0  0  0  0
  -24.5930  -31.4930   22.9570 C   0  0  0  0  0  0  0  0  0  0  0  0
  -27.0200  -25.5650   20.1240 C   0  0  0  0  0  0  0  0  0  0  0  0
  -23.4710  -30.0410   21.3440 C   0  0  0  0  0  3  0  0  0  0  0  0
  -24.9190  -28.1930   20.0320 C   0  0  0  0  0  0  0  0  0  0  0  0
  -26.0740  -29.9020   21.3740 C   0  0  0  0  0  2  0  0  0  0  0  0
  -26.1190  -28.3640   20.7280 C   0  0  0  0  0  0  0  0  0  0  0  0
  -27.1200  -27.1120   20.7140 C   0  0  0  0  0  3  0  0  0  0  0  0
  -25.8040  -25.8490   19.3770 C   0  0  0  0  0  3  0  0  0  0  0  0
  -24.8560  -26.9660   19.3340 C   0  0  0  0  0  3  0  0  0  0  0  0
  -23.7700  -29.2610   20.0180 C   0  0  0  0  0  2  0  0  0  0  0  0
  -24.7520  -30.5370   21.9430 N   0  0  0  0  0  0  0  0  0  0  0  0
  -23.4700  -31.8350   23.3870 O   0  0  0  0  0  0  0  0  0  0  0  0
  -22.6620  -29.1550   22.3360 C   0  0  0  0  0  0  0  0  0  0  0  0
  -21.3180  -29.0900   22.2280 N   0  0  0  0  0  0  0  0  0  0  0  0
  -23.2730  -28.5130   23.1920 O   0  0  0  0  0  0  0  0  0  0  0  0
  -20.8640  -29.6560   21.5250 H   0  0  0  0  0  0  0  0  0  0  0  0
  -17.8760  -28.0340   22.8400 C   0  0  0  0  0  0  0  0  0  0  0  0
  -20.4570  -28.1830   23.0080 C   0  0  0  0  0  3  0  0  0  0  0  0
  -20.4640  -26.7600   22.3990 C   0  0  0  0  0  2  0  0  0  0  0  0
  -19.3160  -26.5220   21.4120 C   0  0  0  0  0  2  0  0  0  0  0  0
  -17.9660  -26.7050   22.1080 C   0  0  0  0  0  2  0  0  0  0  0  0
  -19.0430  -28.7360   23.2460 C   0  0  0  0  0  0  0  0  0  0  0  0
  -18.8960  -29.9770   23.9050 C   0  0  0  0  0  3  0  0  0  0  0  0
  -17.6200  -30.5160   24.1510 C   0  0  0  0  0  3  0  0  0  0  0  0
  -16.4690  -29.8130   23.7540 C   0  0  0  0  0  3  0  0  0  0  0  0
  -16.5990  -28.5720   23.1050 C   0  0  0  0  0  3  0  0  0  0  0  0
  -25.7910  -32.2220   23.6470 C   0  0  0  0  0  3  0  0  0  0  0  0
  -26.2560  -31.5060   24.9780 C   0  0  1  0  0  0  0  0  0  0  0  0
  -25.1180  -31.2850   26.0050 C   0  0  0  0  0  1  0  0  0  0  0  0
  -26.8760  -30.1270   24.6810 C   0  0  0  0  0  1  0  0  0  0  0  0
  -27.3640  -32.3390   25.6650 C   0  0  0  0  0  1  0  0  0  0  0  0
  -25.4020  -33.6200   23.9780 N   0  0  0  0  0  0  0  0  0  0  0  0
  -25.7750  -34.7250   23.3130 C   0  0  0  0  0  0  0  0  0  0  0  0
  -26.5170  -34.6780   22.3300 O   0  0  0  0  0  0  0  0  0  0  0  0
  -24.7420  -33.7280   24.7330 H   0  0  0  0  0  0  0  0  0  0  0  0
  -24.0600  -36.5470   22.9470 C   0  0  0  0  0  1  0  0  0  0  0  0
  -25.2530  -36.0980   23.8060 C   0  0  0  0  0  3  0  0  0  0  0  0
  -27.3230  -36.9810   24.8060 C   0  0  0  0  0  1  0  0  0  0  0  0
  -26.2810  -37.1670   23.7990 N   0  0  0  0  0  0  0  0  0  0  0  0
  -25.8550  -38.0770   23.9490 H   0  0  0  0  0  0  0  0  0  0  0  0
  1  2  1  0
  6  1  1  6
  3  5  1  0
  4  3  1  0
  6  7  1  0
  6  5  1  0
  8 13  1  0
  9 10  2  0
  9  8  1  0
 10 11  1  0
 11 18  1  0
 13  7  1  0
 13 12  1  0
 14  7  2  0
 15 16  2  0
 16 35  1  0
 17 16  1  0
 17 20  1  0
 18 19  1  0
 18 15  1  0
 19 17  2  0
 20 21  1  0
 21 22  2  0
 23 26  1  0
 23 22  1  0
 24 23  2  0
 25 24  1  0
 25 20  2  0
 26 27  1  0
 27 28  1  0
 28 29  2  0
 30 29  1  0
 30 34  1  0
 31 30  2  0
 32 27  2  0
 32 31  1  0
 33 32  1  0
 35 36  1  0
 36 39  1  0
 36 38  1  0
 37 35  2  0
 40 15  1  0
 40 41  1  0
 42 40  1  0
 43 45  1  0
 44 43  2  0
 46 44  1  0
 46 48  2  0
 47 45  2  0
 48 47  1  0
 49 50  1  0
 50  6  1  0
 52 54  1  0
 53 64  2  0
 54 59  1  0
 55 63  1  0
 55 65  1  0
 56 58  1  0
 57 63  1  0
 58 57  1  0
 59 58  2  0
 60 54  2  0
 61 60  1  0
 61 56  2  0
 62 56  1  0
 62 55  1  0
 63 53  1  0
 65 67  2  0
 66 65  1  0
 68 66  1  0
 69 78  2  0
 69 74  1  0
 70 66  1  0
 70 74  1  0
 71 70  1  0
 72 73  1  0
 72 71  1  0
 73 69  1  0
 74 75  2  0
 75 76  1  0
 77 76  2  0
 78 77  1  0
 79 53  1  0
 79 84  1  0
 79 80  1  0
 80 83  1  1
 80 81  1  0
 82 80  1  0
 84 87  1  0
 85 89  1  0
 85 84  1  0
 86 85  2  0
 89 88  1  0
 91 89  1  0
 91 92  1  0
 91 90  1  0
M  ISO  4   6 100   7 100  51 101  52 101
M  END
>  <TORSDO>  (41) 
F 19

>  <SCORE>  (41) 
-14.543

>  <name>  (41) 
42

>  <ligand_id>  (41) 
42

>  <original_smiles>  (41) 
[H]C(=C1C(c2c([H])c([H])c([H])c([H])c2[H])=C([H])C(C(=O)N2C([H])([H])C([H])([H])C([H])([H])C([H])(n3nc(-c4c([H])c([H])c(Oc5c([H])c([H])c(F)c([H])c5F)c([H])c4[H])c(C(=O)N([H])[H])c3N([H])[H])C2([H])[H])(C([H])([H])C([H])([H])[H])C1([H])[H])C([H])([H])Oc1c([H])c([H])c2c(c1[H])C([H])([H])N(C(=O)C([H])(N([H])C(=O)C([H])(N([H])C([H])([H])[H])C([H])([H])[H])C(C([H])([H])[H])(C([H])([H])[H])C([H])([H])[H])C([H])(C(=O)N([H])C1([H])c3c([H])c([H])c([H])c([H])c3C([H])([H])C([H])([H])C1([H])[H])C2([H])[H]

>  <smiles>  (41) 
[H]C(=C1C(c2c([H])c([H])c([H])c([H])c2[H])=C([H])C(C(=O)N2C([H])([H])C([H])([H])C([H])([H])C([H])(n3nc(-c4c([H])c([H])c(Oc5c([H])c([H])c(F)c([H])c5F)c([H])c4[H])c(C(=O)N([H])[H])c3N([H])[H])C2([H])[H])(C([H])([H])C([H])([H])[H])C1([H])[H])C([H])([H])Oc1c([H])c([H])c2c(c1[H])C([H])([H])N(C(=O)C([H])(N([H])C(=O)C([H])(N([H])C([H])([H])[H])C([H])([H])[H])C(C([H])([H])[H])(C([H])([H])[H])C([H])([H])[H])C([H])(C(=O)N([H])C1([H])c3c([H])c([H])c([H])c([H])c3C([H])([H])C([H])([H])C1([H])[H])C2([H])[H]

$$$$
43:0:0
     RDKit          3D

 93102  0  0  1  0  0  0  0  0999 V2000
  -31.1390  -22.6220   20.4140 C   0  0  0  0  0  3  0  0  0  0  0  0
  -31.7330  -23.8170   20.4780 C   0  0  0  0  0  2  0  0  0  0  0  0
  -29.7070  -22.7880   20.3190 C   0  0  0  0  0  0  0  0  0  0  0  0
  -29.4460  -24.1510   20.2930 C   0  0  0  0  0  0  0  0  0  0  0  0
  -30.7360  -24.9460   20.4220 C   0  0  0  0  0  3  0  0  0  0  0  0
  -28.7680  -21.5900   20.1840 C   0  0  0  0  0  0  0  0  0  0  0  0
  -27.5820  -21.8310   19.9370 O   0  0  0  0  0  0  0  0  0  0  0  0
  -30.2630  -19.5360   21.0730 C   0  0  0  0  0  3  0  0  0  0  0  0
  -28.4090  -19.1050   19.6260 C   0  0  0  0  0  3  0  0  0  0  0  0
  -30.5110  -18.1230   21.1730 C   0  0  0  0  0  3  0  0  0  0  0  0
  -28.6410  -17.7020   19.7360 C   0  0  0  0  0  3  0  0  0  0  0  0
  -29.1910  -20.0860   20.3020 C   0  0  0  0  0  0  0  0  0  0  0  0
  -29.6950  -17.1600   20.5150 C   0  0  0  0  0  0  0  0  0  0  0  0
  -30.5560  -14.6950   20.3880 C   0  0  0  0  0  0  0  0  0  0  0  0
  -30.3870  -12.4470   19.3230 C   0  0  0  0  0  2  0  0  0  0  0  0
  -29.4320  -12.5600   18.1120 C   0  0  0  0  0  2  0  0  0  0  0  0
  -27.9620  -12.3850   18.5490 C   0  0  0  0  0  2  0  0  0  0  0  0
  -27.6020  -13.2470   19.7880 C   0  0  0  0  0  3  0  0  0  0  0  0
  -28.6660  -13.0900   20.8980 C   0  0  0  0  0  2  0  0  0  0  0  0
  -29.9700  -13.4550   20.3180 N   0  0  0  0  0  0  0  0  0  0  0  0
  -31.7120  -14.8820   19.9940 O   0  0  0  0  0  0  0  0  0  0  0  0
  -29.7210  -15.7160   20.7760 N   0  0  0  0  0  0  0  0  0  0  0  0
  -28.8240  -15.3440   21.0480 H   0  0  0  0  0  0  0  0  0  0  0  0
  -25.2090  -13.8400   20.5110 C   0  0  0  0  0  0  0  0  0  0  0  0
  -24.1450  -13.0640   20.8850 C   0  0  0  0  0  0  0  0  0  0  0  0
  -24.6120  -11.7150   20.8560 C   0  0  0  0  0  0  0  0  0  0  0  0
  -26.2560  -12.9630   20.2760 N   0  0  0  0  0  0  0  0  0  0  0  0
  -25.9020  -11.6800   20.5440 N   0  0  0  0  0  0  0  0  0  0  0  0
  -23.8900  -10.4510   21.0510 C   0  0  0  0  0  0  0  0  0  0  0  0
  -24.3390   -9.4800   21.9740 C   0  0  0  0  0  3  0  0  0  0  0  0
  -23.6170   -8.2810   22.1580 C   0  0  0  0  0  3  0  0  0  0  0  0
  -22.4350   -8.0440   21.4170 C   0  0  0  0  0  0  0  0  0  0  0  0
  -22.0060   -9.0040   20.4840 C   0  0  0  0  0  3  0  0  0  0  0  0
  -22.7270  -10.1950   20.2990 C   0  0  0  0  0  3  0  0  0  0  0  0
  -21.6840   -6.8960   21.5100 O   0  0  0  0  0  0  0  0  0  0  0  0
  -21.6610   -6.1420   22.6560 C   0  0  0  0  0  0  0  0  0  0  0  0
  -21.2660   -6.6860   23.8980 C   0  0  0  0  0  3  0  0  0  0  0  0
  -21.1900   -5.8580   25.0360 C   0  0  0  0  0  3  0  0  0  0  0  0
  -21.4980   -4.4880   24.9340 C   0  0  0  0  0  0  0  0  0  0  0  0
  -21.8870   -3.9450   23.6970 C   0  0  0  0  0  3  0  0  0  0  0  0
  -21.9650   -4.7700   22.5600 C   0  0  0  0  0  0  0  0  0  0  0  0
  -22.3190   -4.2370   21.3670 F   0  0  0  0  0  0  0  0  0  0  0  0
  -21.4170   -3.6920   26.0250 F   0  0  0  0  0  0  0  0  0  0  0  0
  -22.7480  -13.5390   21.1610 C   0  0  0  0  0  0  0  0  0  0  0  0
  -22.0270  -12.8470   22.0360 N   0  0  0  0  0  0  0  0  0  0  0  0
  -22.3030  -14.5570   20.6340 O   0  0  0  0  0  0  0  0  0  0  0  0
  -22.4000  -12.0220   22.4840 H   0  0  0  0  0  0  0  0  0  0  0  0
  -21.0890  -13.1470   22.2640 H   0  0  0  0  0  0  0  0  0  0  0  0
  -25.3660  -15.2120   20.3320 N   0  0  0  0  0  0  0  0  0  0  0  0
  -24.5930  -15.8580   20.4420 H   0  0  0  0  0  0  0  0  0  0  0  0
  -26.2060  -15.6570   19.9860 H   0  0  0  0  0  0  0  0  0  0  0  0
  -28.1490  -25.0140   20.1150 C   0  0  0  0  0  2  0  0  0  0  0  0
  -28.3250  -26.4900   20.2200 O   0  0  0  0  0  0  0  0  0  0  0  0
  -24.6330  -31.9110   23.2530 C   0  0  0  0  0  0  0  0  0  0  0  0
  -27.1980  -27.3300   20.1840 C   0  0  0  0  0  0  0  0  0  0  0  0
  -23.4090  -30.5230   21.6200 C   0  0  0  0  0  3  0  0  0  0  0  0
  -24.8400  -28.9590   20.1870 C   0  0  0  0  0  0  0  0  0  0  0  0
  -25.9490  -30.8230   21.4210 C   0  0  0  0  0  2  0  0  0  0  0  0
  -26.0160  -29.4430   20.7740 C   0  0  0  0  0  0  0  0  0  0  0  0
  -27.1980  -28.6420   20.7580 C   0  0  0  0  0  3  0  0  0  0  0  0
  -25.9940  -26.8980   19.5810 C   0  0  0  0  0  3  0  0  0  0  0  0
  -24.8310  -27.6930   19.5830 C   0  0  0  0  0  3  0  0  0  0  0  0
  -23.6110  -29.8430   20.2390 C   0  0  0  0  0  2  0  0  0  0  0  0
  -24.6830  -31.1030   22.1550 N   0  0  0  0  0  0  0  0  0  0  0  0
  -23.5540  -32.1980   23.7930 O   0  0  0  0  0  0  0  0  0  0  0  0
  -22.7430  -29.5120   22.5840 C   0  0  0  0  0  0  0  0  0  0  0  0
  -21.4150  -29.3430   22.4600 N   0  0  0  0  0  0  0  0  0  0  0  0
  -23.4200  -28.8830   23.4010 O   0  0  0  0  0  0  0  0  0  0  0  0
  -20.9290  -29.9020   21.7740 H   0  0  0  0  0  0  0  0  0  0  0  0
  -18.0330  -28.1650   22.9650 C   0  0  0  0  0  0  0  0  0  0  0  0
  -20.5920  -28.4130   23.2350 C   0  0  0  0  0  3  0  0  0  0  0  0
  -20.6880  -26.9790   22.6650 C   0  0  0  0  0  2  0  0  0  0  0  0
  -19.5840  -26.6570   21.6520 C   0  0  0  0  0  2  0  0  0  0  0  0
  -18.2030  -26.8110   22.2950 C   0  0  0  0  0  2  0  0  0  0  0  0
  -19.1550  -28.9240   23.3920 C   0  0  0  0  0  0  0  0  0  0  0  0
  -18.9410  -30.1900   23.9790 C   0  0  0  0  0  3  0  0  0  0  0  0
  -17.6380  -30.6970   24.1420 C   0  0  0  0  0  3  0  0  0  0  0  0
  -16.5310  -29.9360   23.7310 C   0  0  0  0  0  3  0  0  0  0  0  0
  -16.7280  -28.6720   23.1480 C   0  0  0  0  0  3  0  0  0  0  0  0
  -25.9230  -32.5340   23.8690 C   0  0  0  0  0  3  0  0  0  0  0  0
  -26.4460  -31.7510   25.1360 C   0  0  1  0  0  0  0  0  0  0  0  0
  -25.3600  -31.5130   26.2120 C   0  0  0  0  0  1  0  0  0  0  0  0
  -27.0170  -30.3730   24.7310 C   0  0  0  0  0  1  0  0  0  0  0  0
  -27.6070  -32.5340   25.7930 C   0  0  0  0  0  1  0  0  0  0  0  0
  -25.6230  -33.9310   24.2140 N   0  0  0  0  0  0  0  0  0  0  0  0
  -25.9330  -34.9870   23.4500 C   0  0  0  0  0  0  0  0  0  0  0  0
  -26.5730  -34.8880   22.4000 O   0  0  0  0  0  0  0  0  0  0  0  0
  -25.0500  -34.0820   25.0320 H   0  0  0  0  0  0  0  0  0  0  0  0
  -24.1840  -36.7730   23.1700 C   0  0  0  0  0  1  0  0  0  0  0  0
  -25.4610  -36.3740   23.9280 C   0  0  0  0  0  3  0  0  0  0  0  0
  -27.6250  -37.2680   24.6650 C   0  0  0  0  0  1  0  0  0  0  0  0
  -26.4820  -37.4310   23.7700 N   0  0  0  0  0  0  0  0  0  0  0  0
  -26.0790  -38.3500   23.9340 H   0  0  0  0  0  0  0  0  0  0  0  0
  1  2  1  0
  3  1  2  0
  4  3  1  0
  4  5  2  0
  5  2  1  0
  6 12  1  0
  6  3  1  0
  7  6  2  0
  8 10  1  0
  9 11  2  0
  9 12  1  0
 11 13  1  0
 12  8  2  0
 13 22  1  0
 13 10  2  0
 14 22  1  0
 15 20  1  0
 16 17  1  0
 16 15  1  0
 18 17  1  0
 18 27  1  0
 18 19  1  0
 20 14  1  0
 20 19  1  0
 21 14  2  0
 22 23  1  0
 24 25  2  0
 25 44  1  0
 26 25  1  0
 26 29  1  0
 27 24  1  0
 27 28  1  0
 28 26  2  0
 29 30  1  0
 30 31  2  0
 32 35  1  0
 32 31  1  0
 33 32  2  0
 34 33  1  0
 34 29  2  0
 35 36  1  0
 36 37  1  0
 37 38  2  0
 39 38  1  0
 39 43  1  0
 40 39  2  0
 41 36  2  0
 41 40  1  0
 42 41  1  0
 44 45  1  0
 45 48  1  0
 45 47  1  0
 46 44  2  0
 49 50  1  0
 49 24  1  0
 51 49  1  0
 52 53  1  0
 52  4  1  0
 54 65  2  0
 55 53  1  0
 55 60  1  0
 56 64  1  0
 56 66  1  0
 57 63  1  0
 57 59  1  0
 58 64  1  0
 59 58  1  0
 60 59  2  0
 61 62  1  0
 61 55  2  0
 62 57  2  0
 63 56  1  0
 64 54  1  0
 66 68  2  0
 67 66  1  0
 69 67  1  0
 70 79  2  0
 70 75  1  0
 71 67  1  0
 71 75  1  0
 72 71  1  0
 73 74  1  0
 73 72  1  0
 74 70  1  0
 75 76  2  0
 76 77  1  0
 78 77  2  0
 79 78  1  0
 80 54  1  0
 80 85  1  0
 80 81  1  0
 81 84  1  1
 81 82  1  0
 83 81  1  0
 85 88  1  0
 86 90  1  0
 86 85  1  0
 87 86  2  0
 90 89  1  0
 92 90  1  0
 92 93  1  0
 92 91  1  0
M  ISO  4  14 100  22 100  52 101  53 101
M  END
>  <TORSDO>  (42) 
F 19

>  <SCORE>  (42) 
-14.534

>  <name>  (42) 
43

>  <ligand_id>  (42) 
43

>  <original_smiles>  (42) 
[H]C1=C([H])C([H])([H])C(C([H])([H])Oc2c([H])c([H])c3c(c2[H])C([H])([H])N(C(=O)C([H])(N([H])C(=O)C([H])(N([H])C([H])([H])[H])C([H])([H])[H])C(C([H])([H])[H])(C([H])([H])[H])C([H])([H])[H])C([H])(C(=O)N([H])C2([H])c4c([H])c([H])c([H])c([H])c4C([H])([H])C([H])([H])C2([H])[H])C3([H])[H])=C1C(=O)c1c([H])c([H])c(N([H])C(=O)N2C([H])([H])C([H])([H])C([H])([H])C([H])(n3nc(-c4c([H])c([H])c(Oc5c([H])c([H])c(F)c([H])c5F)c([H])c4[H])c(C(=O)N([H])[H])c3N([H])[H])C2([H])[H])c([H])c1[H]

>  <smiles>  (42) 
[H]C1=C([H])C([H])([H])C(C([H])([H])Oc2c([H])c([H])c3c(c2[H])C([H])([H])N(C(=O)C([H])(N([H])C(=O)C([H])(N([H])C([H])([H])[H])C([H])([H])[H])C(C([H])([H])[H])(C([H])([H])[H])C([H])([H])[H])C([H])(C(=O)N([H])C2([H])c4c([H])c([H])c([H])c([H])c4C([H])([H])C([H])([H])C2([H])[H])C3([H])[H])=C1C(=O)c1c([H])c([H])c(N([H])C(=O)N2C([H])([H])C([H])([H])C([H])([H])C([H])(n3nc(-c4c([H])c([H])c(Oc5c([H])c([H])c(F)c([H])c5F)c([H])c4[H])c(C(=O)N([H])[H])c3N([H])[H])C2([H])[H])c([H])c1[H]

$$$$
44:0:0
     RDKit          3D

 97106  0  0  1  0  0  0  0  0999 V2000
  -28.1490  -21.6990   19.7780 C   0  0  0  0  0  2  0  0  0  0  0  0
  -30.5070  -21.7580   19.0430 C   0  0  0  0  0  2  0  0  0  0  0  0
  -27.8850  -23.0360   19.0460 C   0  0  0  0  0  2  0  0  0  0  0  0
  -30.2670  -23.1070   18.3270 C   0  0  0  0  0  2  0  0  0  0  0  0
  -29.2320  -20.9040   19.0320 C   0  0  0  0  0  3  0  0  0  0  0  0
  -29.1080  -23.8780   18.8670 N   0  0  1  0  0  4  0  0  0  0  0  0
  -29.3540  -24.2100   19.7880 H   0  0  0  0  0  0  0  0  0  0  0  0
  -29.6200  -19.2200   20.9150 C   0  0  0  0  0  3  0  0  0  0  0  0
  -29.8350  -17.9140   21.4070 C   0  0  0  0  0  3  0  0  0  0  0  0
  -29.7640  -17.0620   19.1340 C   0  0  0  0  0  3  0  0  0  0  0  0
  -29.4600  -19.4660   19.5300 C   0  0  0  0  0  0  0  0  0  0  0  0
  -29.5300  -18.3630   18.6330 C   0  0  0  0  0  0  0  0  0  0  0  0
  -29.9280  -16.8250   20.5170 C   0  0  0  0  0  0  0  0  0  0  0  0
  -30.8040  -14.5320   20.4160 C   0  0  0  0  0  0  0  0  0  0  0  0
  -30.5240  -12.3970   19.2310 C   0  0  0  0  0  2  0  0  0  0  0  0
  -29.5800  -12.6450   18.0340 C   0  0  0  0  0  2  0  0  0  0  0  0
  -28.1050  -12.5050   18.4590 C   0  0  0  0  0  2  0  0  0  0  0  0
  -27.7740  -13.3080   19.7460 C   0  0  0  0  0  3  0  0  0  0  0  0
  -28.8250  -13.0350   20.8460 C   0  0  0  0  0  2  0  0  0  0  0  0
  -30.1570  -13.3430   20.2950 N   0  0  0  0  0  0  0  0  0  0  0  0
  -31.9090  -14.7550   19.9120 O   0  0  0  0  0  0  0  0  0  0  0  0
  -30.1040  -15.5050   21.0250 N   0  0  0  0  0  0  0  0  0  0  0  0
  -29.3750  -15.1830   21.6450 H   0  0  0  0  0  0  0  0  0  0  0  0
  -25.3680  -13.9090   20.4370 C   0  0  0  0  0  0  0  0  0  0  0  0
  -24.3000  -13.1350   20.8060 C   0  0  0  0  0  0  0  0  0  0  0  0
  -24.7660  -11.7840   20.7800 C   0  0  0  0  0  0  0  0  0  0  0  0
  -26.4170  -13.0310   20.2140 N   0  0  0  0  0  0  0  0  0  0  0  0
  -26.0570  -11.7480   20.4760 N   0  0  0  0  0  0  0  0  0  0  0  0
  -24.0480  -10.5190   20.9760 C   0  0  0  0  0  0  0  0  0  0  0  0
  -24.4690   -9.5690   21.9320 C   0  0  0  0  0  3  0  0  0  0  0  0
  -23.7500   -8.3670   22.1120 C   0  0  0  0  0  3  0  0  0  0  0  0
  -22.5970   -8.1060   21.3350 C   0  0  0  0  0  0  0  0  0  0  0  0
  -22.1970   -9.0450   20.3680 C   0  0  0  0  0  3  0  0  0  0  0  0
  -22.9150  -10.2370   20.1870 C   0  0  0  0  0  3  0  0  0  0  0  0
  -21.8520   -6.9550   21.4230 O   0  0  0  0  0  0  0  0  0  0  0  0
  -21.7670   -6.2410   22.5910 C   0  0  0  0  0  0  0  0  0  0  0  0
  -21.2730   -6.8160   23.7820 C   0  0  0  0  0  3  0  0  0  0  0  0
  -21.1360   -6.0270   24.9410 C   0  0  0  0  0  3  0  0  0  0  0  0
  -21.4810   -4.6630   24.9100 C   0  0  0  0  0  0  0  0  0  0  0  0
  -21.9670   -4.0860   23.7230 C   0  0  0  0  0  3  0  0  0  0  0  0
  -22.1060   -4.8730   22.5660 C   0  0  0  0  0  0  0  0  0  0  0  0
  -22.5550   -4.3080   21.4200 F   0  0  0  0  0  0  0  0  0  0  0  0
  -21.3420   -3.9020   26.0210 F   0  0  0  0  0  0  0  0  0  0  0  0
  -22.8990  -13.6060   21.0730 C   0  0  0  0  0  0  0  0  0  0  0  0
  -22.1720  -12.9080   21.9370 N   0  0  0  0  0  0  0  0  0  0  0  0
  -22.4570  -14.6270   20.5490 O   0  0  0  0  0  0  0  0  0  0  0  0
  -22.5440  -12.0860   22.3880 H   0  0  0  0  0  0  0  0  0  0  0  0
  -21.2300  -13.2030   22.1540 H   0  0  0  0  0  0  0  0  0  0  0  0
  -25.5300  -15.2780   20.2550 N   0  0  0  0  0  0  0  0  0  0  0  0
  -24.7640  -15.9350   20.3590 H   0  0  0  0  0  0  0  0  0  0  0  0
  -26.3870  -15.7160   19.9430 H   0  0  0  0  0  0  0  0  0  0  0  0
  -27.8980  -18.6380   16.6920 C   0  0  0  0  0  1  0  0  0  0  0  0
  -29.3670  -18.5120   17.1220 C   0  0  0  0  0  2  0  0  0  0  0  0
  -28.8040  -25.0780   18.0280 C   0  0  0  0  0  2  0  0  0  0  0  0
  -29.7120  -26.3150   18.2450 C   0  0  0  0  0  2  0  0  0  0  0  0
  -29.5490  -27.1070   19.5650 C   0  0  0  0  0  2  0  0  0  0  0  0
  -28.3880  -26.7080   20.2760 O   0  0  0  0  0  0  0  0  0  0  0  0
  -24.6000  -31.9690   23.2430 C   0  0  0  0  0  0  0  0  0  0  0  0
  -27.2800  -27.5160   20.2230 C   0  0  0  0  0  0  0  0  0  0  0  0
  -23.4100  -30.5390   21.6160 C   0  0  0  0  0  3  0  0  0  0  0  0
  -24.8780  -29.0010   20.2150 C   0  0  0  0  0  0  0  0  0  0  0  0
  -25.9350  -30.9210   21.4160 C   0  0  0  0  0  2  0  0  0  0  0  0
  -26.0360  -29.5450   20.7880 C   0  0  0  0  0  0  0  0  0  0  0  0
  -27.2460  -28.8140   20.7850 C   0  0  0  0  0  3  0  0  0  0  0  0
  -26.0980  -26.9720   19.6820 C   0  0  0  0  0  3  0  0  0  0  0  0
  -24.9040  -27.7110   19.6580 C   0  0  0  0  0  3  0  0  0  0  0  0
  -23.6280  -29.8460   20.2470 C   0  0  0  0  0  2  0  0  0  0  0  0
  -24.6670  -31.1550   22.1510 N   0  0  0  0  0  0  0  0  0  0  0  0
  -23.5140  -32.2390   23.7760 O   0  0  0  0  0  0  0  0  0  0  0  0
  -22.7620  -29.5220   22.5860 C   0  0  0  0  0  0  0  0  0  0  0  0
  -21.4390  -29.3300   22.4570 N   0  0  0  0  0  0  0  0  0  0  0  0
  -23.4480  -28.9110   23.4100 O   0  0  0  0  0  0  0  0  0  0  0  0
  -20.9490  -29.8770   21.7640 H   0  0  0  0  0  0  0  0  0  0  0  0
  -18.0660  -28.1420   22.9710 C   0  0  0  0  0  0  0  0  0  0  0  0
  -20.6240  -28.3980   23.2350 C   0  0  0  0  0  3  0  0  0  0  0  0
  -20.7230  -26.9630   22.6650 C   0  0  0  0  0  2  0  0  0  0  0  0
  -19.6180  -26.6360   21.6570 C   0  0  0  0  0  2  0  0  0  0  0  0
  -18.2380  -26.7880   22.3040 C   0  0  0  0  0  2  0  0  0  0  0  0
  -19.1870  -28.9040   23.3950 C   0  0  0  0  0  0  0  0  0  0  0  0
  -18.9730  -30.1730   23.9770 C   0  0  0  0  0  3  0  0  0  0  0  0
  -17.6690  -30.6780   24.1420 C   0  0  0  0  0  3  0  0  0  0  0  0
  -16.5620  -29.9120   23.7360 C   0  0  0  0  0  3  0  0  0  0  0  0
  -16.7620  -28.6450   23.1570 C   0  0  0  0  0  3  0  0  0  0  0  0
  -25.8790  -32.6160   23.8600 C   0  0  0  0  0  3  0  0  0  0  0  0
  -25.5580  -34.0140   24.1760 N   0  0  0  0  0  0  0  0  0  0  0  0
  -25.9020  -35.0630   23.4150 C   0  0  0  0  0  0  0  0  0  0  0  0
  -26.5920  -34.9550   22.3980 O   0  0  0  0  0  0  0  0  0  0  0  0
  -24.9470  -34.1720   24.9630 H   0  0  0  0  0  0  0  0  0  0  0  0
  -24.1860  -36.8520   22.9970 C   0  0  0  0  0  1  0  0  0  0  0  0
  -25.3980  -36.4510   23.8530 C   0  0  0  0  0  3  0  0  0  0  0  0
  -27.5010  -37.3360   24.7570 C   0  0  0  0  0  1  0  0  0  0  0  0
  -26.4330  -37.5040   23.7740 N   0  0  0  0  0  0  0  0  0  0  0  0
  -26.0220  -38.4240   23.9050 H   0  0  0  0  0  0  0  0  0  0  0  0
  -26.4020  -31.8600   25.1420 C   0  0  1  0  0  0  0  0  0  0  0  0
  -25.3070  -31.6000   26.2020 C   0  0  0  0  0  1  0  0  0  0  0  0
  -27.0190  -30.4950   24.7540 C   0  0  0  0  0  1  0  0  0  0  0  0
  -27.5290  -32.6810   25.8100 C   0  0  0  0  0  1  0  0  0  0  0  0
  3  1  1  0
  4  6  1  0
  4  2  1  0
  5  2  1  0
  5 11  1  0
  5  1  1  0
  6  3  1  0
  6  7  1  1
  8  9  1  0
 10 13  1  0
 11  8  2  0
 12 10  2  0
 12 11  1  0
 13 22  1  0
 13  9  2  0
 14 22  1  0
 15 20  1  0
 16 17  1  0
 16 15  1  0
 18 17  1  0
 18 27  1  0
 18 19  1  0
 20 14  1  0
 20 19  1  0
 21 14  2  0
 22 23  1  0
 24 25  2  0
 25 44  1  0
 26 25  1  0
 26 29  1  0
 27 24  1  0
 27 28  1  0
 28 26  2  0
 29 30  1  0
 30 31  2  0
 32 35  1  0
 32 31  1  0
 33 32  2  0
 34 33  1  0
 34 29  2  0
 35 36  1  0
 36 37  1  0
 37 38  2  0
 39 38  1  0
 39 43  1  0
 40 39  2  0
 41 36  2  0
 41 40  1  0
 42 41  1  0
 44 45  1  0
 45 48  1  0
 45 47  1  0
 46 44  2  0
 49 50  1  0
 49 24  1  0
 51 49  1  0
 52 53  1  0
 53 12  1  0
 54 55  1  0
 54  6  1  0
 55 56  1  0
 56 57  1  0
 58 69  2  0
 59 57  1  0
 59 64  1  0
 60 68  1  0
 60 70  1  0
 61 67  1  0
 61 63  1  0
 62 68  1  0
 63 62  1  0
 64 63  2  0
 65 59  2  0
 66 65  1  0
 66 61  2  0
 67 60  1  0
 68 58  1  0
 70 72  2  0
 71 70  1  0
 73 71  1  0
 74 83  2  0
 74 79  1  0
 75 71  1  0
 75 79  1  0
 76 75  1  0
 77 78  1  0
 77 76  1  0
 78 74  1  0
 79 80  2  0
 80 81  1  0
 82 81  2  0
 83 82  1  0
 84 58  1  0
 84 85  1  0
 84 94  1  0
 85 88  1  0
 86 90  1  0
 86 85  1  0
 87 86  2  0
 90 89  1  0
 92 90  1  0
 92 93  1  0
 92 91  1  0
 94 97  1  1
 94 95  1  0
 96 94  1  0
M  ISO  4  14 100  22 100  56 101  57 101
M  END
>  <TORSDO>  (43) 
F 21

>  <SCORE>  (43) 
-13.529

>  <name>  (43) 
44

>  <ligand_id>  (43) 
44

>  <original_smiles>  (43) 
[H]c1c([H])c([H])c2c(c1[H])C([H])([H])C([H])([H])C([H])([H])C2([H])N([H])C(=O)C1([H])N(C(=O)C([H])(N([H])C(=O)C([H])(N([H])C([H])([H])[H])C([H])([H])[H])C(C([H])([H])[H])(C([H])([H])[H])C([H])([H])[H])C([H])([H])c2c([H])c(OC([H])([H])C([H])([H])C([H])([H])[N+]3([H])C([H])([H])C([H])([H])C([H])(c4c([H])c([H])c(N([H])C(=O)N5C([H])([H])C([H])([H])C([H])([H])C([H])(n6nc(-c7c([H])c([H])c(Oc8c([H])c([H])c(F)c([H])c8F)c([H])c7[H])c(C(=O)N([H])[H])c6N([H])[H])C5([H])[H])c([H])c4C([H])([H])C([H])([H])[H])C([H])([H])C3([H])[H])c([H])c([H])c2C1([H])[H]

>  <smiles>  (43) 
[H]c1c([H])c([H])c2c(c1[H])C([H])([H])C([H])([H])C([H])([H])C2([H])N([H])C(=O)C1([H])N(C(=O)C([H])(N([H])C(=O)C([H])(N([H])C([H])([H])[H])C([H])([H])[H])C(C([H])([H])[H])(C([H])([H])[H])C([H])([H])[H])C([H])([H])c2c([H])c(OC([H])([H])C([H])([H])C([H])([H])[N+]3([H])C([H])([H])C([H])([H])C([H])(c4c([H])c([H])c(N([H])C(=O)N5C([H])([H])C([H])([H])C([H])([H])C([H])(n6nc(-c7c([H])c([H])c(Oc8c([H])c([H])c(F)c([H])c8F)c([H])c7[H])c(C(=O)N([H])[H])c6N([H])[H])C5([H])[H])c([H])c4C([H])([H])C([H])([H])[H])C([H])([H])C3([H])[H])c([H])c([H])c2C1([H])[H]

$$$$
45:0:0
     RDKit          3D

 92101  0  0  1  0  0  0  0  0999 V2000
  -29.1010  -20.5160   19.5250 C   0  0  0  0  0  3  0  0  0  0  0  0
  -29.9370  -20.0530   21.6350 C   0  0  0  0  0  2  0  0  0  0  0  0
  -29.9350  -22.8420   21.3560 C   0  0  0  0  0  2  0  0  0  0  0  0
  -29.8230  -19.2600   20.2810 C   0  0  0  0  0  3  0  0  0  0  0  0
  -29.2320  -21.4750   21.5960 C   0  0  0  0  0  3  0  0  0  0  0  0
  -29.0360  -23.1810   20.1350 C   0  0  0  0  0  3  0  0  0  0  0  0
  -28.7210  -21.6330   20.2590 N   0  0  0  0  0  0  0  0  0  0  0  0
  -28.9460  -20.5280   18.1920 N   0  0  0  0  0  0  0  0  0  0  0  0
  -29.2540  -19.7560   17.6210 H   0  0  0  0  0  0  0  0  0  0  0  0
  -28.4960  -21.3020   17.7280 H   0  0  0  0  0  0  0  0  0  0  0  0
  -30.4410  -15.2360   20.2030 C   0  0  0  0  0  0  0  0  0  0  0  0
  -30.4500  -12.8410   19.2770 C   0  0  0  0  0  2  0  0  0  0  0  0
  -29.4810  -12.7310   18.0720 C   0  0  0  0  0  2  0  0  0  0  0  0
  -28.0340  -12.4730   18.5390 C   0  0  0  0  0  2  0  0  0  0  0  0
  -27.6280  -13.3940   19.7180 C   0  0  0  0  0  3  0  0  0  0  0  0
  -28.7130  -13.4330   20.8170 C   0  0  0  0  0  2  0  0  0  0  0  0
  -29.9490  -13.9190   20.1830 N   0  0  0  0  0  0  0  0  0  0  0  0
  -31.6340  -15.3780   19.9050 O   0  0  0  0  0  0  0  0  0  0  0  0
  -29.1370  -17.7190   20.3980 C   0  0  0  0  0  0  0  0  0  0  0  0
  -29.4860  -16.3010   20.3760 N   0  0  0  0  0  0  0  0  0  0  0  0
  -27.9240  -17.8330   20.5760 O   0  0  0  0  0  0  0  0  0  0  0  0
  -28.6140  -15.8330   20.5540 H   0  0  0  0  0  0  0  0  0  0  0  0
  -25.2690  -13.9440   20.5380 C   0  0  0  0  0  0  0  0  0  0  0  0
  -24.2160  -13.1570   20.9170 C   0  0  0  0  0  0  0  0  0  0  0  0
  -24.6840  -11.8080   20.8410 C   0  0  0  0  0  0  0  0  0  0  0  0
  -26.3070  -13.0750   20.2480 N   0  0  0  0  0  0  0  0  0  0  0  0
  -25.9670  -11.7840   20.4950 N   0  0  0  0  0  0  0  0  0  0  0  0
  -23.9650  -10.5400   21.0210 C   0  0  0  0  0  0  0  0  0  0  0  0
  -24.3980   -9.5690   21.9490 C   0  0  0  0  0  3  0  0  0  0  0  0
  -23.6780   -8.3670   22.1170 C   0  0  0  0  0  3  0  0  0  0  0  0
  -22.5080   -8.1280   21.3570 C   0  0  0  0  0  0  0  0  0  0  0  0
  -22.0930   -9.0880   20.4170 C   0  0  0  0  0  3  0  0  0  0  0  0
  -22.8150  -10.2820   20.2480 C   0  0  0  0  0  3  0  0  0  0  0  0
  -21.7590   -6.9780   21.4350 O   0  0  0  0  0  0  0  0  0  0  0  0
  -21.6740   -6.2510   22.5960 C   0  0  0  0  0  0  0  0  0  0  0  0
  -21.1530   -6.8060   23.7850 C   0  0  0  0  0  3  0  0  0  0  0  0
  -21.0180   -6.0040   24.9350 C   0  0  0  0  0  3  0  0  0  0  0  0
  -21.3960   -4.6480   24.8970 C   0  0  0  0  0  0  0  0  0  0  0  0
  -21.9090   -4.0940   23.7120 C   0  0  0  0  0  3  0  0  0  0  0  0
  -22.0450   -4.8920   22.5640 C   0  0  0  0  0  0  0  0  0  0  0  0
  -22.5210   -4.3470   21.4190 F   0  0  0  0  0  0  0  0  0  0  0  0
  -21.2590   -3.8750   26.0010 F   0  0  0  0  0  0  0  0  0  0  0  0
  -22.8260  -13.6230   21.2350 C   0  0  0  0  0  0  0  0  0  0  0  0
  -22.1240  -12.9100   22.1080 N   0  0  0  0  0  0  0  0  0  0  0  0
  -22.3700  -14.6550   20.7440 O   0  0  0  0  0  0  0  0  0  0  0  0
  -22.5060  -12.0760   22.5280 H   0  0  0  0  0  0  0  0  0  0  0  0
  -21.1910  -13.2030   22.3630 H   0  0  0  0  0  0  0  0  0  0  0  0
  -25.4170  -15.3200   20.3920 N   0  0  0  0  0  0  0  0  0  0  0  0
  -24.6440  -15.9560   20.5570 H   0  0  0  0  0  0  0  0  0  0  0  0
  -26.2480  -15.8000   20.0680 H   0  0  0  0  0  0  0  0  0  0  0  0
  -27.9690  -24.5580   20.2060 C   0  0  0  0  0  2  0  0  0  0  0  0
  -28.2330  -26.1430   20.2240 O   0  0  0  0  0  0  0  0  0  0  0  0
  -24.6390  -31.9470   23.2580 C   0  0  0  0  0  0  0  0  0  0  0  0
  -27.1870  -27.1720   20.1910 C   0  0  0  0  0  0  0  0  0  0  0  0
  -23.4300  -30.5650   21.6170 C   0  0  0  0  0  3  0  0  0  0  0  0
  -24.8690  -28.9820   20.1780 C   0  0  0  0  0  0  0  0  0  0  0  0
  -25.9900  -30.8020   21.4480 C   0  0  0  0  0  2  0  0  0  0  0  0
  -26.0570  -29.4050   20.7850 C   0  0  0  0  0  0  0  0  0  0  0  0
  -27.2140  -28.5200   20.7680 C   0  0  0  0  0  3  0  0  0  0  0  0
  -25.9660  -26.8740   19.5450 C   0  0  0  0  0  3  0  0  0  0  0  0
  -24.8410  -27.7330   19.5400 C   0  0  0  0  0  3  0  0  0  0  0  0
  -23.6470  -29.8910   20.2350 C   0  0  0  0  0  2  0  0  0  0  0  0
  -24.7080  -31.1290   22.1620 N   0  0  0  0  0  0  0  0  0  0  0  0
  -23.5550  -32.2330   23.7900 O   0  0  0  0  0  0  0  0  0  0  0  0
  -22.7460  -29.5590   22.5790 C   0  0  0  0  0  0  0  0  0  0  0  0
  -21.4190  -29.3830   22.4470 N   0  0  0  0  0  0  0  0  0  0  0  0
  -23.4160  -28.9370   23.4070 O   0  0  0  0  0  0  0  0  0  0  0  0
  -20.9340  -29.9350   21.7540 H   0  0  0  0  0  0  0  0  0  0  0  0
  -18.0410  -28.1650   22.9470 C   0  0  0  0  0  0  0  0  0  0  0  0
  -20.5990  -28.4410   23.2160 C   0  0  0  0  0  3  0  0  0  0  0  0
  -20.7080  -27.0100   22.6390 C   0  0  0  0  0  2  0  0  0  0  0  0
  -19.6080  -26.6840   21.6230 C   0  0  0  0  0  2  0  0  0  0  0  0
  -18.2250  -26.8200   22.2660 C   0  0  0  0  0  2  0  0  0  0  0  0
  -19.1550  -28.9340   23.3790 C   0  0  0  0  0  0  0  0  0  0  0  0
  -18.9280  -30.1910   23.9780 C   0  0  0  0  0  3  0  0  0  0  0  0
  -17.6190  -30.6820   24.1480 C   0  0  0  0  0  3  0  0  0  0  0  0
  -16.5200  -29.9110   23.7320 C   0  0  0  0  0  3  0  0  0  0  0  0
  -16.7320  -28.6550   23.1370 C   0  0  0  0  0  3  0  0  0  0  0  0
  -25.9180  -32.5800   23.8850 C   0  0  0  0  0  3  0  0  0  0  0  0
  -25.6100  -33.9790   24.2240 N   0  0  0  0  0  0  0  0  0  0  0  0
  -25.9110  -35.0380   23.4590 C   0  0  0  0  0  0  0  0  0  0  0  0
  -26.5430  -34.9380   22.4050 O   0  0  0  0  0  0  0  0  0  0  0  0
  -25.0430  -34.1290   25.0460 H   0  0  0  0  0  0  0  0  0  0  0  0
  -24.1550  -36.8220   23.1930 C   0  0  0  0  0  1  0  0  0  0  0  0
  -25.4390  -36.4260   23.9400 C   0  0  0  0  0  3  0  0  0  0  0  0
  -27.6010  -37.3360   24.6670 C   0  0  0  0  0  1  0  0  0  0  0  0
  -26.4570  -37.4850   23.7710 N   0  0  0  0  0  0  0  0  0  0  0  0
  -26.0500  -38.4040   23.9270 H   0  0  0  0  0  0  0  0  0  0  0  0
  -26.4270  -31.8070   25.1650 C   0  0  1  0  0  0  0  0  0  0  0  0
  -25.3280  -31.5740   26.2300 C   0  0  0  0  0  1  0  0  0  0  0  0
  -27.0080  -30.4280   24.7830 C   0  0  0  0  0  1  0  0  0  0  0  0
  -27.5770  -32.5990   25.8320 C   0  0  0  0  0  1  0  0  0  0  0  0
  1  8  1  0
  1  7  1  0
  1  4  1  0
  4 19  1  0
  4  2  1  0
  5  3  1  0
  5  2  1  0
  6 51  1  0
  6  7  1  0
  6  3  1  0
  7  5  1  0
  9  8  1  0
 10  8  1  0
 11 20  1  0
 12 17  1  0
 13 14  1  0
 13 12  1  0
 14 15  1  0
 15 26  1  0
 15 16  1  0
 17 11  1  0
 17 16  1  0
 18 11  2  0
 19 21  2  0
 20 19  1  0
 20 22  1  0
 23 24  2  0
 24 43  1  0
 25 24  1  0
 25 28  1  0
 26 27  1  0
 26 23  1  0
 27 25  2  0
 28 29  1  0
 29 30  2  0
 31 34  1  0
 31 30  1  0
 32 31  2  0
 33 32  1  0
 33 28  2  0
 34 35  1  0
 35 36  1  0
 36 37  2  0
 38 37  1  0
 38 42  1  0
 39 38  2  0
 40 35  2  0
 40 39  1  0
 41 40  1  0
 43 44  1  0
 44 47  1  0
 44 46  1  0
 45 43  2  0
 48 23  1  0
 48 49  1  0
 50 48  1  0
 51 52  1  0
 53 64  2  0
 53 79  1  0
 54 52  1  0
 54 59  1  0
 55 63  1  0
 55 65  1  0
 56 62  1  0
 56 58  1  0
 57 63  1  0
 58 57  1  0
 59 58  2  0
 60 54  2  0
 61 60  1  0
 61 56  2  0
 62 55  1  0
 63 53  1  0
 65 67  2  0
 66 65  1  0
 66 70  1  0
 68 66  1  0
 69 78  2  0
 69 74  1  0
 70 74  1  0
 71 70  1  0
 72 73  1  0
 72 71  1  0
 73 69  1  0
 74 75  2  0
 75 76  1  0
 77 76  2  0
 78 77  1  0
 79 80  1  0
 79 89  1  0
 80 83  1  0
 81 85  1  0
 81 80  1  0
 82 81  2  0
 84 85  1  0
 87 88  1  0
 87 85  1  0
 87 86  1  0
 89 92  1  1
 89 90  1  0
 91 89  1  0
M  ISO  4  11 100  20 100  51 101  52 101
M  END
>  <TORSDO>  (44) 
F 17

>  <SCORE>  (44) 
-15.892

>  <name>  (44) 
45

>  <ligand_id>  (44) 
45

>  <original_smiles>  (44) 
[H]c1c([H])c([H])c2c(c1[H])C([H])([H])C([H])([H])C([H])([H])C2([H])N([H])C(=O)C1([H])N(C(=O)C([H])(N([H])C(=O)C([H])(N([H])C([H])([H])[H])C([H])([H])[H])C(C([H])([H])[H])(C([H])([H])[H])C([H])([H])[H])C([H])([H])c2c([H])c(OC([H])([H])C3([H])N4C(=[N+]([H])[H])C([H])(C(=O)N([H])C(=O)N5C([H])([H])C([H])([H])C([H])([H])C([H])(n6nc(-c7c([H])c([H])c(Oc8c([H])c([H])c(F)c([H])c8F)c([H])c7[H])c(C(=O)N([H])[H])c6N([H])[H])C5([H])[H])C([H])([H])C4([H])C3([H])[H])c([H])c([H])c2C1([H])[H]

>  <smiles>  (44) 
[H]c1c([H])c([H])c2c(c1[H])C([H])([H])C([H])([H])C([H])([H])C2([H])N([H])C(=O)C1([H])N(C(=O)C([H])(N([H])C(=O)C([H])(N([H])C([H])([H])[H])C([H])([H])[H])C(C([H])([H])[H])(C([H])([H])[H])C([H])([H])[H])C([H])([H])c2c([H])c(OC([H])([H])C3([H])N4C(=[N+]([H])[H])C([H])(C(=O)N([H])C(=O)N5C([H])([H])C([H])([H])C([H])([H])C([H])(n6nc(-c7c([H])c([H])c(Oc8c([H])c([H])c(F)c([H])c8F)c([H])c7[H])c(C(=O)N([H])[H])c6N([H])[H])C5([H])[H])C([H])([H])C4([H])C3([H])[H])c([H])c([H])c2C1([H])[H]

$$$$
46:0:0
     RDKit          3D

 92101  0  0  1  0  0  0  0  0999 V2000
  -28.3280  -20.2710   20.2740 C   0  0  0  0  0  2  0  0  0  0  0  0
  -30.3450  -20.7240   20.2840 C   0  0  0  0  0  3  0  0  0  0  0  0
  -29.0780  -21.6720   20.5700 C   0  0  0  0  0  3  0  0  0  0  0  0
  -29.6000  -19.3190   19.9840 C   0  0  0  0  0  3  0  0  0  0  0  0
  -33.4190  -22.4470   17.7170 C   0  0  0  0  0  3  0  0  0  0  0  0
  -33.4000  -22.7170   19.0970 C   0  0  0  0  0  3  0  0  0  0  0  0
  -32.4420  -21.5990   17.1580 C   0  0  0  0  0  3  0  0  0  0  0  0
  -32.4090  -22.1430   19.9140 C   0  0  0  0  0  3  0  0  0  0  0  0
  -31.4450  -21.0300   17.9760 C   0  0  0  0  0  3  0  0  0  0  0  0
  -31.4230  -21.2950   19.3630 C   0  0  0  0  0  0  0  0  0  0  0  0
  -28.8730  -23.2540   19.9190 C   0  0  0  0  0  2  0  0  0  0  0  0
  -28.0940  -24.6180   20.6070 C   0  0  0  0  0  2  0  0  0  0  0  0
  -28.2870  -26.1600   20.3110 O   0  0  0  0  0  0  0  0  0  0  0  0
  -24.5880  -31.9010   23.2510 C   0  0  0  0  0  0  0  0  0  0  0  0
  -27.2140  -27.1370   20.2990 C   0  0  0  0  0  0  0  0  0  0  0  0
  -23.4100  -30.4790   21.6180 C   0  0  0  0  0  3  0  0  0  0  0  0
  -24.8790  -28.8890   20.2270 C   0  0  0  0  0  0  0  0  0  0  0  0
  -25.9670  -30.7500   21.4720 C   0  0  0  0  0  2  0  0  0  0  0  0
  -26.0540  -29.3450   20.8390 C   0  0  0  0  0  0  0  0  0  0  0  0
  -27.2240  -28.4880   20.8490 C   0  0  0  0  0  3  0  0  0  0  0  0
  -26.0110  -26.7840   19.6570 C   0  0  0  0  0  3  0  0  0  0  0  0
  -24.8730  -27.6220   19.6200 C   0  0  0  0  0  3  0  0  0  0  0  0
  -23.6500  -29.7860   20.2490 C   0  0  0  0  0  2  0  0  0  0  0  0
  -24.6760  -31.0650   22.1720 N   0  0  0  0  0  0  0  0  0  0  0  0
  -23.4950  -32.1870   23.7650 O   0  0  0  0  0  0  0  0  0  0  0  0
  -22.7260  -29.4810   22.5860 C   0  0  0  0  0  0  0  0  0  0  0  0
  -21.3980  -29.2960   22.4430 N   0  0  0  0  0  0  0  0  0  0  0  0
  -23.3880  -28.8730   23.4290 O   0  0  0  0  0  0  0  0  0  0  0  0
  -20.9210  -29.8300   21.7300 H   0  0  0  0  0  0  0  0  0  0  0  0
  -18.0190  -28.0840   22.9290 C   0  0  0  0  0  0  0  0  0  0  0  0
  -20.5740  -28.3630   23.2170 C   0  0  0  0  0  3  0  0  0  0  0  0
  -20.6890  -26.9270   22.6540 C   0  0  0  0  0  2  0  0  0  0  0  0
  -19.5960  -26.5850   21.6360 C   0  0  0  0  0  2  0  0  0  0  0  0
  -18.2110  -26.7270   22.2740 C   0  0  0  0  0  2  0  0  0  0  0  0
  -19.1300  -28.8600   23.3600 C   0  0  0  0  0  0  0  0  0  0  0  0
  -18.8960  -30.1250   23.9420 C   0  0  0  0  0  3  0  0  0  0  0  0
  -17.5870  -30.6170   24.0910 C   0  0  0  0  0  3  0  0  0  0  0  0
  -16.4920  -29.8410   23.6710 C   0  0  0  0  0  3  0  0  0  0  0  0
  -16.7080  -28.5760   23.1000 C   0  0  0  0  0  3  0  0  0  0  0  0
  -25.8550  -32.5520   23.8840 C   0  0  0  0  0  3  0  0  0  0  0  0
  -26.3470  -31.8080   25.1870 C   0  0  1  0  0  0  0  0  0  0  0  0
  -25.2330  -31.5920   26.2380 C   0  0  0  0  0  1  0  0  0  0  0  0
  -26.9380  -30.4220   24.8390 C   0  0  0  0  0  1  0  0  0  0  0  0
  -27.4850  -32.6180   25.8550 C   0  0  0  0  0  1  0  0  0  0  0  0
  -25.5350  -33.9570   24.1890 N   0  0  0  0  0  0  0  0  0  0  0  0
  -25.8840  -35.0020   23.4290 C   0  0  0  0  0  0  0  0  0  0  0  0
  -26.5730  -34.8880   22.4120 O   0  0  0  0  0  0  0  0  0  0  0  0
  -24.9220  -34.1210   24.9740 H   0  0  0  0  0  0  0  0  0  0  0  0
  -24.1740  -36.8030   23.0150 C   0  0  0  0  0  1  0  0  0  0  0  0
  -25.3920  -36.3980   23.8620 C   0  0  0  0  0  3  0  0  0  0  0  0
  -27.5050  -37.2840   24.7470 C   0  0  0  0  0  1  0  0  0  0  0  0
  -26.4320  -37.4460   23.7680 N   0  0  0  0  0  0  0  0  0  0  0  0
  -26.0260  -38.3710   23.8920 H   0  0  0  0  0  0  0  0  0  0  0  0
  -30.1190  -17.8260   20.6710 C   0  0  0  0  0  2  0  0  0  0  0  0
  -30.5000  -15.0790   20.2640 C   0  0  0  0  0  0  0  0  0  0  0  0
  -30.3810  -12.7240   19.2970 C   0  0  0  0  0  2  0  0  0  0  0  0
  -29.4250  -12.6440   18.0840 C   0  0  0  0  0  2  0  0  0  0  0  0
  -27.9750  -12.4100   18.5460 C   0  0  0  0  0  2  0  0  0  0  0  0
  -27.5720  -13.3300   19.7280 C   0  0  0  0  0  3  0  0  0  0  0  0
  -28.6520  -13.3740   20.8300 C   0  0  0  0  0  2  0  0  0  0  0  0
  -29.8930  -13.8190   20.1850 N   0  0  0  0  0  0  0  0  0  0  0  0
  -31.7180  -15.1080   20.0600 O   0  0  0  0  0  0  0  0  0  0  0  0
  -29.7430  -16.2990   20.3560 N   0  0  0  0  0  0  0  0  0  0  0  0
  -28.7490  -16.1330   20.3620 H   0  0  0  0  0  0  0  0  0  0  0  0
  -25.2030  -13.8820   20.5130 C   0  0  0  0  0  0  0  0  0  0  0  0
  -24.1500  -13.0960   20.8890 C   0  0  0  0  0  0  0  0  0  0  0  0
  -24.6260  -11.7490   20.8440 C   0  0  0  0  0  0  0  0  0  0  0  0
  -26.2480  -13.0130   20.2490 N   0  0  0  0  0  0  0  0  0  0  0  0
  -25.9120  -11.7250   20.5170 N   0  0  0  0  0  0  0  0  0  0  0  0
  -23.9070  -10.4820   21.0310 C   0  0  0  0  0  0  0  0  0  0  0  0
  -24.3450   -9.5170   21.9660 C   0  0  0  0  0  3  0  0  0  0  0  0
  -23.6290   -8.3140   22.1420 C   0  0  0  0  0  3  0  0  0  0  0  0
  -22.4580   -8.0670   21.3840 C   0  0  0  0  0  0  0  0  0  0  0  0
  -22.0390   -9.0200   20.4390 C   0  0  0  0  0  3  0  0  0  0  0  0
  -22.7570  -10.2150   20.2610 C   0  0  0  0  0  3  0  0  0  0  0  0
  -21.7110   -6.9180   21.4730 O   0  0  0  0  0  0  0  0  0  0  0  0
  -21.6570   -6.1820   22.6290 C   0  0  0  0  0  0  0  0  0  0  0  0
  -21.1990   -6.7360   23.8450 C   0  0  0  0  0  3  0  0  0  0  0  0
  -21.0920   -5.9240   24.9920 C   0  0  0  0  0  3  0  0  0  0  0  0
  -21.4340   -4.5600   24.9250 C   0  0  0  0  0  0  0  0  0  0  0  0
  -21.8830   -4.0050   23.7150 C   0  0  0  0  0  3  0  0  0  0  0  0
  -21.9920   -4.8130   22.5690 C   0  0  0  0  0  0  0  0  0  0  0  0
  -22.4060   -4.2680   21.4000 F   0  0  0  0  0  0  0  0  0  0  0  0
  -21.3240   -3.7800   26.0240 F   0  0  0  0  0  0  0  0  0  0  0  0
  -22.7530  -13.5620   21.1740 C   0  0  0  0  0  0  0  0  0  0  0  0
  -22.0320  -12.8520   22.0370 N   0  0  0  0  0  0  0  0  0  0  0  0
  -22.3080  -14.5930   20.6700 O   0  0  0  0  0  0  0  0  0  0  0  0
  -22.4060  -12.0200   22.4670 H   0  0  0  0  0  0  0  0  0  0  0  0
  -21.0910  -13.1430   22.2630 H   0  0  0  0  0  0  0  0  0  0  0  0
  -25.3530  -15.2550   20.3480 N   0  0  0  0  0  0  0  0  0  0  0  0
  -24.5860  -15.9020   20.5020 H   0  0  0  0  0  0  0  0  0  0  0  0
  -26.1820  -15.7080   19.9890 H   0  0  0  0  0  0  0  0  0  0  0  0
  1  3  1  0
  2 10  1  0
  2  3  1  0
  3 11  1  0
  4  1  1  0
  4  2  1  0
  4 54  1  0
  5  6  1  0
  6  8  2  0
  7  5  2  0
  7  9  1  0
  9 10  2  0
 10  8  1  0
 11 12  1  0
 13 12  1  0
 14 25  2  0
 15 13  1  0
 15 20  1  0
 16 24  1  0
 16 26  1  0
 17 23  1  0
 17 19  1  0
 18 24  1  0
 19 20  2  0
 19 18  1  0
 21 15  2  0
 22 21  1  0
 22 17  2  0
 23 16  1  0
 24 14  1  0
 26 28  2  0
 27 26  1  0
 29 27  1  0
 30 39  2  0
 30 35  1  0
 31 27  1  0
 31 35  1  0
 32 31  1  0
 33 34  1  0
 33 32  1  0
 34 30  1  0
 35 36  2  0
 36 37  1  0
 38 37  2  0
 39 38  1  0
 40 14  1  0
 40 45  1  0
 40 41  1  0
 41 44  1  1
 41 42  1  0
 43 41  1  0
 45 48  1  0
 46 50  1  0
 46 45  1  0
 47 46  2  0
 50 49  1  0
 52 50  1  0
 52 53  1  0
 52 51  1  0
 55 63  1  0
 56 61  1  0
 57 58  1  0
 57 56  1  0
 59 58  1  0
 59 68  1  0
 59 60  1  0
 61 55  1  0
 61 60  1  0
 62 55  2  0
 63 64  1  0
 63 54  1  0
 65 66  2  0
 66 85  1  0
 67 66  1  0
 67 70  1  0
 68 65  1  0
 68 69  1  0
 69 67  2  0
 70 71  1  0
 71 72  2  0
 73 76  1  0
 73 72  1  0
 74 73  2  0
 75 74  1  0
 75 70  2  0
 76 77  1  0
 77 78  1  0
 78 79  2  0
 80 79  1  0
 80 84  1  0
 81 80  2  0
 82 77  2  0
 82 81  1  0
 83 82  1  0
 85 86  1  0
 86 89  1  0
 86 88  1  0
 87 85  2  0
 90 91  1  0
 90 65  1  0
 92 90  1  0
M  ISO  4  12 101  13 101  55 100  63 100
M  END
>  <TORSDO>  (45) 
F 20

>  <SCORE>  (45) 
-15.571

>  <name>  (45) 
46

>  <ligand_id>  (45) 
46

>  <original_smiles>  (45) 
[H]c1c([H])c([H])c(C2([H])C([H])(C([H])([H])N([H])C(=O)N3C([H])([H])C([H])([H])C([H])([H])C([H])(n4nc(-c5c([H])c([H])c(Oc6c([H])c([H])c(F)c([H])c6F)c([H])c5[H])c(C(=O)N([H])[H])c4N([H])[H])C3([H])[H])C([H])([H])C2([H])C([H])([H])C([H])([H])Oc2c([H])c([H])c3c(c2[H])C([H])([H])N(C(=O)C([H])(N([H])C(=O)C([H])(N([H])C([H])([H])[H])C([H])([H])[H])C(C([H])([H])[H])(C([H])([H])[H])C([H])([H])[H])C([H])(C(=O)N([H])C2([H])c4c([H])c([H])c([H])c([H])c4C([H])([H])C([H])([H])C2([H])[H])C3([H])[H])c([H])c1[H]

>  <smiles>  (45) 
[H]c1c([H])c([H])c(C2([H])C([H])(C([H])([H])N([H])C(=O)N3C([H])([H])C([H])([H])C([H])([H])C([H])(n4nc(-c5c([H])c([H])c(Oc6c([H])c([H])c(F)c([H])c6F)c([H])c5[H])c(C(=O)N([H])[H])c4N([H])[H])C3([H])[H])C([H])([H])C2([H])C([H])([H])C([H])([H])Oc2c([H])c([H])c3c(c2[H])C([H])([H])N(C(=O)C([H])(N([H])C(=O)C([H])(N([H])C([H])([H])[H])C([H])([H])[H])C(C([H])([H])[H])(C([H])([H])[H])C([H])([H])[H])C([H])(C(=O)N([H])C2([H])c4c([H])c([H])c([H])c([H])c4C([H])([H])C([H])([H])C2([H])[H])C3([H])[H])c([H])c1[H]

$$$$
47:0:0
     RDKit          3D

 92101  0  0  1  0  0  0  0  0999 V2000
  -29.6340  -22.3640   20.8480 C   0  0  0  0  0  3  0  0  0  0  0  0
  -27.5790  -22.1500   19.5780 C   0  0  0  0  0  3  0  0  0  0  0  0
  -29.6870  -23.7390   20.5220 C   0  0  0  0  0  3  0  0  0  0  0  0
  -27.6390  -23.5190   19.2410 C   0  0  0  0  0  3  0  0  0  0  0  0
  -28.5910  -21.5420   20.3590 C   0  0  0  0  0  0  0  0  0  0  0  0
  -28.7000  -24.3290   19.6980 C   0  0  0  0  0  0  0  0  0  0  0  0
  -27.9390  -19.1810   19.5190 C   0  0  0  0  0  2  0  0  0  0  0  0
  -28.6420  -17.8120   19.5720 C   0  0  0  0  0  2  0  0  0  0  0  0
  -29.8210  -19.3050   21.0420 C   0  0  0  0  0  2  0  0  0  0  0  0
  -28.5110  -20.0350   20.6720 C   0  0  0  0  0  3  0  0  0  0  0  0
  -29.4880  -17.8110   20.8480 C   0  0  0  0  0  3  0  0  0  0  0  0
  -30.7000  -16.8460   20.8040 C   0  0  0  0  0  2  0  0  0  0  0  0
  -30.9210  -14.4470   20.0870 C   0  0  0  0  0  0  0  0  0  0  0  0
  -30.5830  -12.2580   18.9960 C   0  0  0  0  0  2  0  0  0  0  0  0
  -29.5810  -12.4140   17.8330 C   0  0  0  0  0  2  0  0  0  0  0  0
  -28.1310  -12.2790   18.3380 C   0  0  0  0  0  2  0  0  0  0  0  0
  -27.8470  -13.1570   19.5850 C   0  0  0  0  0  3  0  0  0  0  0  0
  -28.9530  -12.9730   20.6490 C   0  0  0  0  0  2  0  0  0  0  0  0
  -30.2490  -13.2680   20.0130 N   0  0  0  0  0  0  0  0  0  0  0  0
  -31.9940  -14.6470   19.5080 O   0  0  0  0  0  0  0  0  0  0  0  0
  -30.2880  -15.4350   20.7420 N   0  0  0  0  0  0  0  0  0  0  0  0
  -29.4120  -15.1920   21.1810 H   0  0  0  0  0  0  0  0  0  0  0  0
  -25.5040  -13.7800   20.4530 C   0  0  0  0  0  0  0  0  0  0  0  0
  -24.4470  -13.0140   20.8650 C   0  0  0  0  0  0  0  0  0  0  0  0
  -24.8800  -11.6570   20.7630 C   0  0  0  0  0  0  0  0  0  0  0  0
  -26.5170  -12.8890   20.1340 N   0  0  0  0  0  0  0  0  0  0  0  0
  -26.1480  -11.6050   20.3740 N   0  0  0  0  0  0  0  0  0  0  0  0
  -24.1410  -10.4020   20.9560 C   0  0  0  0  0  0  0  0  0  0  0  0
  -24.5670   -9.4330   21.8900 C   0  0  0  0  0  3  0  0  0  0  0  0
  -23.8310   -8.2420   22.0730 C   0  0  0  0  0  3  0  0  0  0  0  0
  -22.6540   -8.0140   21.3210 C   0  0  0  0  0  0  0  0  0  0  0  0
  -22.2460   -8.9720   20.3760 C   0  0  0  0  0  3  0  0  0  0  0  0
  -22.9830  -10.1540   20.1920 C   0  0  0  0  0  3  0  0  0  0  0  0
  -21.8890   -6.8760   21.4130 O   0  0  0  0  0  0  0  0  0  0  0  0
  -21.7840   -6.1720   22.5860 C   0  0  0  0  0  0  0  0  0  0  0  0
  -21.2770   -6.7600   23.7650 C   0  0  0  0  0  3  0  0  0  0  0  0
  -21.1210   -5.9810   24.9300 C   0  0  0  0  0  3  0  0  0  0  0  0
  -21.4620   -4.6150   24.9150 C   0  0  0  0  0  0  0  0  0  0  0  0
  -21.9630   -4.0270   23.7400 C   0  0  0  0  0  3  0  0  0  0  0  0
  -22.1210   -4.8040   22.5780 C   0  0  0  0  0  0  0  0  0  0  0  0
  -22.5830   -4.2260   21.4430 F   0  0  0  0  0  0  0  0  0  0  0  0
  -21.3060   -3.8640   26.0300 F   0  0  0  0  0  0  0  0  0  0  0  0
  -23.0780  -13.5070   21.2380 C   0  0  0  0  0  0  0  0  0  0  0  0
  -22.3890  -12.7930   22.1220 N   0  0  0  0  0  0  0  0  0  0  0  0
  -22.6300  -14.5580   20.7820 O   0  0  0  0  0  0  0  0  0  0  0  0
  -22.7610  -11.9410   22.5150 H   0  0  0  0  0  0  0  0  0  0  0  0
  -21.4710  -13.1020   22.4100 H   0  0  0  0  0  0  0  0  0  0  0  0
  -25.6780  -15.1520   20.3060 N   0  0  0  0  0  0  0  0  0  0  0  0
  -24.9260  -15.8130   20.4660 H   0  0  0  0  0  0  0  0  0  0  0  0
  -26.5110  -15.5820   19.9260 H   0  0  0  0  0  0  0  0  0  0  0  0
  -28.8510  -25.7750   19.2150 C   0  0  0  0  0  2  0  0  0  0  0  0
  -28.5780  -26.7940   20.1900 O   0  0  0  0  0  0  0  0  0  0  0  0
  -24.6700  -31.9020   23.2430 C   0  0  0  0  0  0  0  0  0  0  0  0
  -27.3750  -27.4730   20.1720 C   0  0  0  0  0  0  0  0  0  0  0  0
  -23.5050  -30.4800   21.6150 C   0  0  0  0  0  3  0  0  0  0  0  0
  -24.9570  -28.9510   20.1880 C   0  0  0  0  0  0  0  0  0  0  0  0
  -26.0120  -30.8640   21.4080 C   0  0  0  0  0  2  0  0  0  0  0  0
  -26.1080  -29.4890   20.7740 C   0  0  0  0  0  0  0  0  0  0  0  0
  -27.3140  -28.7540   20.7690 C   0  0  0  0  0  3  0  0  0  0  0  0
  -26.1970  -26.9450   19.5940 C   0  0  0  0  0  3  0  0  0  0  0  0
  -24.9940  -27.6760   19.5990 C   0  0  0  0  0  3  0  0  0  0  0  0
  -23.7070  -29.7980   20.2340 C   0  0  0  0  0  2  0  0  0  0  0  0
  -24.7500  -31.0970   22.1470 N   0  0  0  0  0  0  0  0  0  0  0  0
  -23.5790  -32.1600   23.7750 O   0  0  0  0  0  0  0  0  0  0  0  0
  -22.8660  -29.4630   22.5830 C   0  0  0  0  0  0  0  0  0  0  0  0
  -21.5490  -29.3710   22.4400 N   0  0  0  0  0  0  0  0  0  0  0  0
  -23.5280  -28.7840   23.3690 O   0  0  0  0  0  0  0  0  0  0  0  0
  -21.1520  -30.0560   21.8120 H   0  0  0  0  0  0  0  0  0  0  0  0
  -18.1370  -27.9090   22.8630 C   0  0  0  0  0  0  0  0  0  0  0  0
  -20.6060  -28.3540   22.8290 C   0  0  0  0  0  3  0  0  0  0  0  0
  -20.8900  -26.8590   22.6370 C   0  0  0  0  0  2  0  0  0  0  0  0
  -19.8030  -26.2780   21.7080 C   0  0  0  0  0  2  0  0  0  0  0  0
  -18.3780  -26.5280   22.2480 C   0  0  0  0  0  2  0  0  0  0  0  0
  -19.2120  -28.7480   23.2480 C   0  0  0  0  0  0  0  0  0  0  0  0
  -18.9600  -30.0090   23.8240 C   0  0  0  0  0  3  0  0  0  0  0  0
  -17.6360  -30.4590   23.9750 C   0  0  0  0  0  3  0  0  0  0  0  0
  -16.5650  -29.6440   23.5640 C   0  0  0  0  0  3  0  0  0  0  0  0
  -16.8150  -28.3680   23.0250 C   0  0  0  0  0  3  0  0  0  0  0  0
  -25.9400  -32.5520   23.8650 C   0  0  0  0  0  3  0  0  0  0  0  0
  -26.4610  -31.7890   25.1420 C   0  0  1  0  0  0  0  0  0  0  0  0
  -25.3650  -31.5310   26.2040 C   0  0  0  0  0  1  0  0  0  0  0  0
  -27.0690  -30.4220   24.7510 C   0  0  0  0  0  1  0  0  0  0  0  0
  -27.5920  -32.6030   25.8120 C   0  0  0  0  0  1  0  0  0  0  0  0
  -25.6080  -33.9460   24.1870 N   0  0  0  0  0  0  0  0  0  0  0  0
  -25.9250  -34.9980   23.4210 C   0  0  0  0  0  0  0  0  0  0  0  0
  -26.6010  -34.8980   22.3920 O   0  0  0  0  0  0  0  0  0  0  0  0
  -25.0100  -34.0960   24.9860 H   0  0  0  0  0  0  0  0  0  0  0  0
  -24.1820  -36.7690   23.0340 C   0  0  0  0  0  1  0  0  0  0  0  0
  -25.4140  -36.3800   23.8660 C   0  0  0  0  0  3  0  0  0  0  0  0
  -27.5230  -37.2910   24.7330 C   0  0  0  0  0  1  0  0  0  0  0  0
  -26.4360  -37.4440   23.7700 N   0  0  0  0  0  0  0  0  0  0  0  0
  -26.0170  -38.3600   23.9070 H   0  0  0  0  0  0  0  0  0  0  0  0
  2  5  1  0
  3  1  1  0
  4  2  2  0
  4  6  1  0
  5  1  2  0
  6  3  2  0
  7  8  1  0
  7 10  1  0
  8 11  1  0
 10  5  1  0
 10  9  1  0
 11 12  1  0
 11  9  1  0
 13 21  1  0
 14 19  1  0
 15 16  1  0
 15 14  1  0
 17 16  1  0
 17 26  1  0
 17 18  1  0
 19 13  1  0
 19 18  1  0
 20 13  2  0
 21 12  1  0
 21 22  1  0
 23 24  2  0
 24 43  1  0
 25 24  1  0
 25 28  1  0
 26 27  1  0
 26 23  1  0
 27 25  2  0
 28 29  1  0
 29 30  2  0
 31 34  1  0
 31 30  1  0
 32 31  2  0
 33 32  1  0
 33 28  2  0
 34 35  1  0
 35 36  1  0
 36 37  2  0
 38 37  1  0
 38 42  1  0
 39 38  2  0
 40 35  2  0
 40 39  1  0
 41 40  1  0
 43 44  1  0
 44 47  1  0
 44 46  1  0
 45 43  2  0
 48 23  1  0
 48 49  1  0
 50 48  1  0
 51  6  1  0
 51 52  1  0
 53 64  2  0
 54 52  1  0
 54 59  1  0
 55 63  1  0
 55 65  1  0
 56 62  1  0
 56 58  1  0
 57 63  1  0
 58 57  1  0
 59 58  2  0
 60 61  1  0
 60 54  2  0
 61 56  2  0
 62 55  1  0
 63 53  1  0
 65 67  2  0
 66 65  1  0
 68 66  1  0
 69 78  2  0
 69 74  1  0
 70 66  1  0
 70 74  1  0
 71 70  1  0
 72 73  1  0
 72 71  1  0
 73 69  1  0
 74 75  2  0
 75 76  1  0
 77 76  2  0
 78 77  1  0
 79 53  1  0
 79 84  1  0
 79 80  1  0
 80 83  1  1
 80 81  1  0
 82 80  1  0
 84 87  1  0
 85 89  1  0
 85 84  1  0
 86 85  2  0
 89 88  1  0
 91 89  1  0
 91 92  1  0
 91 90  1  0
M  ISO  4  13 100  21 100  51 101  52 101
M  END
>  <TORSDO>  (46) 
F 19

>  <SCORE>  (46) 
-14.159

>  <name>  (46) 
47

>  <ligand_id>  (46) 
47

>  <original_smiles>  (46) 
[H]c1c([H])c([H])c2c(c1[H])C([H])([H])C([H])([H])C([H])([H])C2([H])N([H])C(=O)C1([H])N(C(=O)C([H])(N([H])C(=O)C([H])(N([H])C([H])([H])[H])C([H])([H])[H])C(C([H])([H])[H])(C([H])([H])[H])C([H])([H])[H])C([H])([H])c2c([H])c(OC([H])([H])c3c([H])c([H])c(C4([H])C([H])([H])C([H])([H])C([H])(C([H])([H])N([H])C(=O)N5C([H])([H])C([H])([H])C([H])([H])C([H])(n6nc(-c7c([H])c([H])c(Oc8c([H])c([H])c(F)c([H])c8F)c([H])c7[H])c(C(=O)N([H])[H])c6N([H])[H])C5([H])[H])C4([H])[H])c([H])c3[H])c([H])c([H])c2C1([H])[H]

>  <smiles>  (46) 
[H]c1c([H])c([H])c2c(c1[H])C([H])([H])C([H])([H])C([H])([H])C2([H])N([H])C(=O)C1([H])N(C(=O)C([H])(N([H])C(=O)C([H])(N([H])C([H])([H])[H])C([H])([H])[H])C(C([H])([H])[H])(C([H])([H])[H])C([H])([H])[H])C([H])([H])c2c([H])c(OC([H])([H])c3c([H])c([H])c(C4([H])C([H])([H])C([H])([H])C([H])(C([H])([H])N([H])C(=O)N5C([H])([H])C([H])([H])C([H])([H])C([H])(n6nc(-c7c([H])c([H])c(Oc8c([H])c([H])c(F)c([H])c8F)c([H])c7[H])c(C(=O)N([H])[H])c6N([H])[H])C5([H])[H])C4([H])[H])c([H])c3[H])c([H])c([H])c2C1([H])[H]

$$$$
48:0:0
     RDKit          3D

 91 99  0  0  1  0  0  0  0  0999 V2000
  -29.2420  -21.9630   19.5310 N   0  0  0  0  0  4  0  0  0  0  0  0
  -28.3250  -21.6950   19.2090 H   0  0  0  0  0  0  0  0  0  0  0  0
  -29.7950  -22.0910   18.6990 H   0  0  0  0  0  0  0  0  0  0  0  0
  -29.8240  -20.6850   20.2810 C   0  0  0  0  0  3  0  0  0  0  0  0
  -30.3530  -19.2060   19.5860 C   0  0  0  0  0  3  0  0  0  0  0  0
  -31.1660  -15.2070   19.3820 C   0  0  0  0  0  0  0  0  0  0  0  0
  -30.8420  -12.9410   18.2520 C   0  0  0  0  0  2  0  0  0  0  0  0
  -29.7170  -13.0150   17.1890 C   0  0  0  0  0  2  0  0  0  0  0  0
  -28.3310  -12.7970   17.8270 C   0  0  0  0  0  2  0  0  0  0  0  0
  -28.1550  -13.6270   19.1210 C   0  0  0  0  0  3  0  0  0  0  0  0
  -29.3680  -13.4740   20.0590 C   0  0  0  0  0  2  0  0  0  0  0  0
  -30.5660  -13.9390   19.3310 N   0  0  0  0  0  0  0  0  0  0  0  0
  -32.1540  -15.4080   18.6620 O   0  0  0  0  0  0  0  0  0  0  0  0
  -30.3240  -18.0450   21.8420 C   0  0  0  0  0  3  0  0  0  0  0  0
  -30.7310  -15.8600   21.6810 C   0  0  0  0  0  3  0  0  0  0  0  0
  -30.4430  -16.8410   22.5670 C   0  0  0  0  0  0  0  0  0  0  0  0
  -30.5190  -17.8500   20.4950 C   0  0  0  0  0  0  0  0  0  0  0  0
  -30.7630  -16.3520   20.3790 N   0  0  0  0  0  0  0  0  0  0  0  0
  -25.9510  -14.2190   20.2880 C   0  0  0  0  0  0  0  0  0  0  0  0
  -24.9300  -13.4490   20.7710 C   0  0  0  0  0  0  0  0  0  0  0  0
  -25.3240  -12.0910   20.5580 C   0  0  0  0  0  0  0  0  0  0  0  0
  -26.9000  -13.3330   19.8050 N   0  0  0  0  0  0  0  0  0  0  0  0
  -26.5410  -12.0430   20.0290 N   0  0  0  0  0  0  0  0  0  0  0  0
  -24.5850  -10.8400   20.7700 C   0  0  0  0  0  0  0  0  0  0  0  0
  -25.0070   -9.8840   21.7190 C   0  0  0  0  0  3  0  0  0  0  0  0
  -24.2690   -8.6970   21.9180 C   0  0  0  0  0  3  0  0  0  0  0  0
  -23.0940   -8.4590   21.1660 C   0  0  0  0  0  0  0  0  0  0  0  0
  -22.6900   -9.4030   20.2050 C   0  0  0  0  0  3  0  0  0  0  0  0
  -23.4300  -10.5820   20.0050 C   0  0  0  0  0  3  0  0  0  0  0  0
  -22.3280   -7.3230   21.2710 O   0  0  0  0  0  0  0  0  0  0  0  0
  -22.1040   -6.7160   22.4810 C   0  0  0  0  0  0  0  0  0  0  0  0
  -21.5410   -7.4130   23.5710 C   0  0  0  0  0  3  0  0  0  0  0  0
  -21.2640   -6.7330   24.7750 C   0  0  0  0  0  3  0  0  0  0  0  0
  -21.5400   -5.3580   24.8860 C   0  0  0  0  0  0  0  0  0  0  0  0
  -22.0960   -4.6600   23.7990 C   0  0  0  0  0  3  0  0  0  0  0  0
  -22.3740   -5.3370   22.5980 C   0  0  0  0  0  0  0  0  0  0  0  0
  -22.8900   -4.6570   21.5470 F   0  0  0  0  0  0  0  0  0  0  0  0
  -21.2660   -4.7020   26.0380 F   0  0  0  0  0  0  0  0  0  0  0  0
  -23.6190  -13.9420   21.3110 C   0  0  0  0  0  0  0  0  0  0  0  0
  -23.0600  -13.2480   22.2960 N   0  0  0  0  0  0  0  0  0  0  0  0
  -23.1060  -14.9800   20.8940 O   0  0  0  0  0  0  0  0  0  0  0  0
  -23.4920  -12.4070   22.6520 H   0  0  0  0  0  0  0  0  0  0  0  0
  -22.1880  -13.5600   22.6980 H   0  0  0  0  0  0  0  0  0  0  0  0
  -26.1440  -15.5950   20.1970 N   0  0  0  0  0  0  0  0  0  0  0  0
  -25.4440  -16.2610   20.5030 H   0  0  0  0  0  0  0  0  0  0  0  0
  -26.9650  -16.0370   19.8030 H   0  0  0  0  0  0  0  0  0  0  0  0
  -30.3150  -16.6880   23.9130 O   0  0  0  0  0  0  0  0  0  0  0  0
  -30.0850  -17.4970   24.3630 H   0  0  0  0  0  0  0  0  0  0  0  0
  -29.1000  -23.4050   20.2140 C   0  0  0  0  0  3  0  0  0  0  0  0
  -28.2100  -24.7020   19.5770 C   0  0  0  0  0  3  0  0  0  0  0  0
  -28.3150  -26.2290   19.9270 O   0  0  0  0  0  0  0  0  0  0  0  0
  -24.6020  -31.8110   23.0030 C   0  0  0  0  0  0  0  0  0  0  0  0
  -27.2160  -27.1700   19.8730 C   0  0  0  0  0  0  0  0  0  0  0  0
  -23.3840  -30.3690   21.4200 C   0  0  0  0  0  3  0  0  0  0  0  0
  -24.8240  -28.8390   19.9340 C   0  0  0  0  0  0  0  0  0  0  0  0
  -25.9180  -30.7180   21.1490 C   0  0  0  0  0  2  0  0  0  0  0  0
  -26.0120  -29.3250   20.4970 C   0  0  0  0  0  0  0  0  0  0  0  0
  -27.2020  -28.5060   20.4520 C   0  0  0  0  0  3  0  0  0  0  0  0
  -25.9990  -26.7950   19.2570 C   0  0  0  0  0  3  0  0  0  0  0  0
  -24.8320  -27.5880   19.2980 C   0  0  0  0  0  3  0  0  0  0  0  0
  -23.5690  -29.6940   20.0340 C   0  0  0  0  0  2  0  0  0  0  0  0
  -24.6560  -30.9890   21.9110 N   0  0  0  0  0  0  0  0  0  0  0  0
  -23.5290  -32.0610   23.5750 O   0  0  0  0  0  0  0  0  0  0  0  0
  -22.7810  -29.3430   22.4120 C   0  0  0  0  0  0  0  0  0  0  0  0
  -21.4690  -29.0740   22.2940 N   0  0  0  0  0  0  0  0  0  0  0  0
  -23.4970  -28.7900   23.2510 O   0  0  0  0  0  0  0  0  0  0  0  0
  -20.9440  -29.5740   21.5910 H   0  0  0  0  0  0  0  0  0  0  0  0
  -18.1950  -27.6040   22.8000 C   0  0  0  0  0  0  0  0  0  0  0  0
  -20.7160  -28.1030   23.0940 C   0  0  0  0  0  3  0  0  0  0  0  0
  -20.9540  -26.6610   22.5860 C   0  0  0  0  0  2  0  0  0  0  0  0
  -19.9030  -26.1990   21.5700 C   0  0  0  0  0  2  0  0  0  0  0  0
  -18.5020  -26.2480   22.1860 C   0  0  0  0  0  2  0  0  0  0  0  0
  -19.2350  -28.4800   23.2120 C   0  0  0  0  0  0  0  0  0  0  0  0
  -18.8940  -29.7420   23.7470 C   0  0  0  0  0  3  0  0  0  0  0  0
  -17.5470  -30.1300   23.8730 C   0  0  0  0  0  3  0  0  0  0  0  0
  -16.5220  -29.2530   23.4780 C   0  0  0  0  0  3  0  0  0  0  0  0
  -16.8470  -27.9920   22.9480 C   0  0  0  0  0  3  0  0  0  0  0  0
  -25.8820  -32.4930   23.5750 C   0  0  0  0  0  3  0  0  0  0  0  0
  -25.5050  -33.8390   24.0380 N   0  0  0  0  0  0  0  0  0  0  0  0
  -25.7240  -34.9710   23.3580 C   0  0  0  0  0  0  0  0  0  0  0  0
  -26.3340  -34.9970   22.2850 O   0  0  0  0  0  0  0  0  0  0  0  0
  -24.9520  -33.8860   24.8820 H   0  0  0  0  0  0  0  0  0  0  0  0
  -23.8910  -36.6920   23.2380 C   0  0  0  0  0  1  0  0  0  0  0  0
  -25.1850  -36.2850   23.9600 C   0  0  0  0  0  3  0  0  0  0  0  0
  -27.3020  -37.2110   24.7920 C   0  0  0  0  0  1  0  0  0  0  0  0
  -26.1550  -37.4000   23.9070 N   0  0  0  0  0  0  0  0  0  0  0  0
  -25.7080  -38.2790   24.1540 H   0  0  0  0  0  0  0  0  0  0  0  0
  -26.5480  -31.6760   24.7510 C   0  0  1  0  0  0  0  0  0  0  0  0
  -25.5550  -31.2640   25.8630 C   0  0  0  0  0  1  0  0  0  0  0  0
  -27.2150  -30.3880   24.2160 C   0  0  0  0  0  1  0  0  0  0  0  0
  -27.6730  -32.5160   25.4010 C   0  0  0  0  0  1  0  0  0  0  0  0
  1 49  1  0
  1  4  1  0
  2  1  1  0
  3  1  1  0
  5  4  2  0
  5 17  1  0
  6 18  1  0
  7 12  1  0
  8  9  1  0
  8  7  1  0
 10  9  1  0
 10 22  1  0
 10 11  1  0
 12  6  1  0
 12 11  1  0
 13  6  2  0
 14 16  1  0
 15 16  2  0
 16 47  1  0
 17 14  2  0
 18 17  1  0
 18 15  1  0
 19 20  2  0
 20 39  1  0
 21 24  1  0
 21 20  1  0
 22 23  1  0
 22 19  1  0
 23 21  2  0
 24 25  1  0
 25 26  2  0
 27 30  1  0
 27 26  1  0
 28 27  2  0
 29 28  1  0
 29 24  2  0
 30 31  1  0
 31 36  2  0
 31 32  1  0
 32 33  2  0
 33 34  1  0
 34 38  1  0
 35 34  2  0
 36 35  1  0
 37 36  1  0
 39 40  1  0
 40 42  1  0
 40 43  1  0
 41 39  2  0
 44 19  1  0
 44 45  1  0
 46 44  1  0
 47 48  1  0
 50 51  1  0
 50 49  2  0
 52 63  2  0
 53 51  1  0
 53 58  1  0
 54 62  1  0
 54 64  1  0
 55 61  1  0
 55 57  1  0
 56 62  1  0
 57 56  1  0
 58 57  2  0
 59 60  1  0
 59 53  2  0
 60 55  2  0
 61 54  1  0
 62 52  1  0
 64 66  2  0
 65 64  1  0
 67 65  1  0
 68 77  2  0
 68 73  1  0
 69 65  1  0
 69 73  1  0
 70 69  1  0
 71 72  1  0
 71 70  1  0
 72 68  1  0
 73 74  2  0
 74 75  1  0
 76 75  2  0
 77 76  1  0
 78 52  1  0
 78 79  1  0
 78 88  1  0
 79 82  1  0
 80 84  1  0
 80 79  1  0
 81 80  2  0
 84 83  1  0
 86 84  1  0
 86 87  1  0
 86 85  1  0
 88 91  1  1
 88 89  1  0
 90 88  1  0
M  ISO  4   6 100  18 100  50 101  51 101
M  END
>  <TORSDO>  (47) 
F 21

>  <SCORE>  (47) 
-11.184

>  <name>  (47) 
48

>  <ligand_id>  (47) 
48

>  <original_smiles>  (47) 
[H]Oc1c([H])c(C([H])([H])C([H])([H])[N+]([H])([H])C([H])([H])C([H])([H])Oc2c([H])c([H])c3c(c2[H])C([H])([H])N(C(=O)C([H])(N([H])C(=O)C([H])(N([H])C([H])([H])[H])C([H])([H])[H])C(C([H])([H])[H])(C([H])([H])[H])C([H])([H])[H])C([H])(C(=O)N([H])C2([H])c4c([H])c([H])c([H])c([H])c4C([H])([H])C([H])([H])C2([H])[H])C3([H])[H])n(C(=O)N2C([H])([H])C([H])([H])C([H])([H])C([H])(n3nc(-c4c([H])c([H])c(Oc5c([H])c([H])c(F)c([H])c5F)c([H])c4[H])c(C(=O)N([H])[H])c3N([H])[H])C2([H])[H])c1[H]

>  <smiles>  (47) 
[H]Oc1c([H])c(C([H])([H])C([H])([H])[N+]([H])([H])C([H])([H])C([H])([H])Oc2c([H])c([H])c3c(c2[H])C([H])([H])N(C(=O)C([H])(N([H])C(=O)C([H])(N([H])C([H])([H])[H])C([H])([H])[H])C(C([H])([H])[H])(C([H])([H])[H])C([H])([H])[H])C([H])(C(=O)N([H])C2([H])c4c([H])c([H])c([H])c([H])c4C([H])([H])C([H])([H])C2([H])[H])C3([H])[H])n(C(=O)N2C([H])([H])C([H])([H])C([H])([H])C([H])(n3nc(-c4c([H])c([H])c(Oc5c([H])c([H])c(F)c([H])c5F)c([H])c4[H])c(C(=O)N([H])[H])c3N([H])[H])C2([H])[H])c1[H]

$$$$
49:0:0
     RDKit          3D

 92101  0  0  1  0  0  0  0  0999 V2000
  -29.3580  -21.1060   21.1360 C   0  0  0  0  0  3  0  0  0  0  0  0
  -29.9400  -20.9590   18.8630 C   0  0  0  0  0  3  0  0  0  0  0  0
  -29.1910  -22.5480   21.0460 C   0  0  0  0  0  3  0  0  0  0  0  0
  -29.7830  -22.4100   18.7750 C   0  0  0  0  0  3  0  0  0  0  0  0
  -29.6810  -20.1980   20.0520 C   0  0  0  0  0  0  0  0  0  0  0  0
  -29.3520  -23.2940   19.8370 C   0  0  0  0  0  0  0  0  0  0  0  0
  -29.0540  -16.1110   20.9890 C   0  0  0  0  0  3  0  0  0  0  0  0
  -27.7450  -16.3540   21.1210 C   0  0  0  0  0  3  0  0  0  0  0  0
  -29.3120  -18.6200   20.2120 C   0  0  0  0  0  0  0  0  0  0  0  0
  -29.9490  -17.0410   20.2430 C   0  0  0  0  0  0  0  0  0  0  0  0
  -27.1870  -17.5840   20.6210 C   0  0  0  0  0  0  0  0  0  0  0  0
  -25.8640  -17.7610   20.4970 C   0  0  0  0  0  1  0  0  0  0  0  0
  -28.0300  -18.6620   20.3700 N   0  0  0  0  0  0  0  0  0  0  0  0
  -31.1060  -16.4890   19.8610 N   0  0  0  0  0  2  0  0  0  0  0  0
  -31.6720  -15.1260   20.0790 C   0  0  0  0  0  0  0  0  0  0  0  0
  -31.4810  -12.6780   19.4960 C   0  0  0  0  0  2  0  0  0  0  0  0
  -30.6480  -12.4820   18.2080 C   0  0  0  0  0  2  0  0  0  0  0  0
  -29.1550  -12.3320   18.5500 C   0  0  0  0  0  2  0  0  0  0  0  0
  -28.6790  -13.3970   19.5680 C   0  0  0  0  0  3  0  0  0  0  0  0
  -29.6580  -13.5830   20.7410 C   0  0  0  0  0  2  0  0  0  0  0  0
  -30.9820  -13.9090   20.1930 N   0  0  0  0  0  0  0  0  0  0  0  0
  -32.8820  -15.0060   19.8980 O   0  0  0  0  0  0  0  0  0  0  0  0
  -26.2890  -14.0540   20.1850 C   0  0  0  0  0  0  0  0  0  0  0  0
  -25.1950  -13.3220   20.5500 C   0  0  0  0  0  0  0  0  0  0  0  0
  -25.6310  -11.9640   20.6180 C   0  0  0  0  0  0  0  0  0  0  0  0
  -27.3190  -13.1450   20.0330 N   0  0  0  0  0  0  0  0  0  0  0  0
  -26.9330  -11.8850   20.3670 N   0  0  0  0  0  0  0  0  0  0  0  0
  -24.8700  -10.7280   20.8480 C   0  0  0  0  0  0  0  0  0  0  0  0
  -25.1870   -9.8490   21.9070 C   0  0  0  0  0  3  0  0  0  0  0  0
  -24.4230   -8.6810   22.1220 C   0  0  0  0  0  3  0  0  0  0  0  0
  -23.3310   -8.3820   21.2740 C   0  0  0  0  0  0  0  0  0  0  0  0
  -23.0340   -9.2490   20.2080 C   0  0  0  0  0  3  0  0  0  0  0  0
  -23.7980  -10.4070   19.9930 C   0  0  0  0  0  3  0  0  0  0  0  0
  -22.5540   -7.2530   21.3860 O   0  0  0  0  0  0  0  0  0  0  0  0
  -22.2600   -6.7000   22.6060 C   0  0  0  0  0  0  0  0  0  0  0  0
  -21.6650   -7.4530   23.6410 C   0  0  0  0  0  3  0  0  0  0  0  0
  -21.3170   -6.8300   24.8560 C   0  0  0  0  0  3  0  0  0  0  0  0
  -21.5540   -5.4530   25.0340 C   0  0  0  0  0  0  0  0  0  0  0  0
  -22.1400   -4.6990   24.0020 C   0  0  0  0  0  3  0  0  0  0  0  0
  -22.4900   -5.3220   22.7890 C   0  0  0  0  0  0  0  0  0  0  0  0
  -23.0350   -4.5880   21.7900 F   0  0  0  0  0  0  0  0  0  0  0  0
  -21.2130   -4.8490   26.1970 F   0  0  0  0  0  0  0  0  0  0  0  0
  -23.7980  -13.8410   20.7290 C   0  0  0  0  0  0  0  0  0  0  0  0
  -23.0290  -13.2290   21.6200 N   0  0  0  0  0  0  0  0  0  0  0  0
  -23.4010  -14.8270   20.1110 O   0  0  0  0  0  0  0  0  0  0  0  0
  -23.3680  -12.4360   22.1460 H   0  0  0  0  0  0  0  0  0  0  0  0
  -22.0880  -13.5570   21.7830 H   0  0  0  0  0  0  0  0  0  0  0  0
  -26.4930  -15.4090   19.9420 N   0  0  0  0  0  0  0  0  0  0  0  0
  -25.7450  -16.0920   19.9960 H   0  0  0  0  0  0  0  0  0  0  0  0
  -27.3800  -15.8100   19.6660 H   0  0  0  0  0  0  0  0  0  0  0  0
  -28.7760  -24.8150   19.5240 C   0  0  0  0  0  2  0  0  0  0  0  0
  -29.0300  -26.2130   20.1630 O   0  0  0  0  0  0  0  0  0  0  0  0
  -25.0840  -31.5610   23.3920 C   0  0  0  0  0  0  0  0  0  0  0  0
  -27.9720  -27.2040   20.1080 C   0  0  0  0  0  0  0  0  0  0  0  0
  -24.0160  -30.2680   21.5900 C   0  0  0  0  0  3  0  0  0  0  0  0
  -25.5870  -28.8800   20.1090 C   0  0  0  0  0  0  0  0  0  0  0  0
  -26.5670  -30.6310   21.5750 C   0  0  0  0  0  2  0  0  0  0  0  0
  -26.7220  -29.3050   20.8110 C   0  0  0  0  0  0  0  0  0  0  0  0
  -27.9160  -28.4830   20.7980 C   0  0  0  0  0  3  0  0  0  0  0  0
  -26.8040  -26.9000   19.3640 C   0  0  0  0  0  3  0  0  0  0  0  0
  -25.6410  -27.6910   19.3740 C   0  0  0  0  0  3  0  0  0  0  0  0
  -24.3250  -29.7270   20.1720 C   0  0  0  0  0  2  0  0  0  0  0  0
  -25.2400  -30.8370   22.2420 N   0  0  0  0  0  0  0  0  0  0  0  0
  -23.9640  -31.7610   23.8870 O   0  0  0  0  0  0  0  0  0  0  0  0
  -23.3340  -29.1560   22.4280 C   0  0  0  0  0  0  0  0  0  0  0  0
  -22.0280  -28.9300   22.2010 N   0  0  0  0  0  0  0  0  0  0  0  0
  -23.9870  -28.5040   23.2480 O   0  0  0  0  0  0  0  0  0  0  0  0
  -21.5580  -29.5080   21.5190 H   0  0  0  0  0  0  0  0  0  0  0  0
  -18.6850  -27.5430   22.4010 C   0  0  0  0  0  0  0  0  0  0  0  0
  -21.2080  -27.9010   22.8490 C   0  0  0  0  0  3  0  0  0  0  0  0
  -21.4170  -26.5220   22.1820 C   0  0  0  0  0  2  0  0  0  0  0  0
  -20.3960  -26.2250   21.0790 C   0  0  0  0  0  2  0  0  0  0  0  0
  -18.9720  -26.2570   21.6420 C   0  0  0  0  0  2  0  0  0  0  0  0
  -19.7360  -28.3220   22.9530 C   0  0  0  0  0  0  0  0  0  0  0  0
  -19.4180  -29.5240   23.6220 C   0  0  0  0  0  3  0  0  0  0  0  0
  -18.0810  -29.9500   23.7420 C   0  0  0  0  0  3  0  0  0  0  0  0
  -17.0440  -29.1670   23.2060 C   0  0  0  0  0  3  0  0  0  0  0  0
  -17.3470  -27.9650   22.5410 C   0  0  0  0  0  3  0  0  0  0  0  0
  -26.3050  -32.1860   24.1280 C   0  0  0  0  0  3  0  0  0  0  0  0
  -25.9430  -33.5610   24.5070 N   0  0  0  0  0  0  0  0  0  0  0  0
  -26.2780  -34.6580   23.8130 C   0  0  0  0  0  0  0  0  0  0  0  0
  -26.9880  -34.6180   22.8060 O   0  0  0  0  0  0  0  0  0  0  0  0
  -25.3110  -33.6630   25.2880 H   0  0  0  0  0  0  0  0  0  0  0  0
  -24.5090  -36.4180   23.4870 C   0  0  0  0  0  1  0  0  0  0  0  0
  -25.7380  -36.0110   24.3150 C   0  0  0  0  0  3  0  0  0  0  0  0
  -27.8240  -36.9180   25.2440 C   0  0  0  0  0  1  0  0  0  0  0  0
  -26.7440  -37.0960   24.2770 N   0  0  0  0  0  0  0  0  0  0  0  0
  -26.3090  -37.9990   24.4480 H   0  0  0  0  0  0  0  0  0  0  0  0
  -26.7480  -31.3620   25.4020 C   0  0  1  0  0  0  0  0  0  0  0  0
  -25.5850  -31.0400   26.3700 C   0  0  0  0  0  1  0  0  0  0  0  0
  -27.4010  -30.0220   24.9930 C   0  0  0  0  0  1  0  0  0  0  0  0
  -27.8220  -32.1520   26.1870 C   0  0  0  0  0  1  0  0  0  0  0  0
  2  5  1  0
  3  1  1  0
  4  2  2  0
  4  6  1  0
  5  9  1  0
  5  1  2  0
  6  3  2  0
  7  8  1  0
  9 10  1  0
  9 13  2  0
 10  7  2  0
 11  8  2  0
 12 11  1  0
 13 11  1  0
 14 15  1  0
 14 10  1  0
 15 21  1  0
 16 21  1  0
 17 18  1  0
 17 16  1  0
 19 18  1  0
 19 26  1  0
 19 20  1  0
 21 20  1  0
 22 15  2  0
 23 24  2  0
 24 25  1  0
 24 43  1  0
 25 28  1  0
 26 23  1  0
 26 27  1  0
 27 25  2  0
 28 29  1  0
 29 30  2  0
 31 34  1  0
 31 30  1  0
 32 31  2  0
 33 32  1  0
 33 28  2  0
 34 35  1  0
 35 40  2  0
 35 36  1  0
 36 37  2  0
 37 38  1  0
 38 42  1  0
 39 38  2  0
 40 39  1  0
 41 40  1  0
 43 44  1  0
 44 47  1  0
 44 46  1  0
 45 43  2  0
 48 49  1  0
 48 23  1  0
 50 48  1  0
 51  6  1  0
 51 52  1  0
 53 64  2  0
 54 52  1  0
 54 59  1  0
 55 63  1  0
 55 65  1  0
 56 62  1  0
 56 58  1  0
 57 63  1  0
 58 57  1  0
 59 58  2  0
 60 61  1  0
 60 54  2  0
 61 56  2  0
 62 55  1  0
 63 53  1  0
 65 67  2  0
 66 65  1  0
 68 66  1  0
 69 78  2  0
 69 74  1  0
 70 66  1  0
 70 74  1  0
 71 70  1  0
 72 73  1  0
 72 71  1  0
 73 69  1  0
 74 75  2  0
 75 76  1  0
 77 76  2  0
 78 77  1  0
 79 53  1  0
 79 80  1  0
 79 89  1  0
 80 83  1  0
 81 85  1  0
 81 80  1  0
 82 81  2  0
 85 84  1  0
 87 85  1  0
 87 88  1  0
 87 86  1  0
 89 92  1  1
 89 90  1  0
 91 89  1  0
M  ISO  4  14 100  15 100  51 101  52 101
M  END
>  <TORSDO>  (48) 
F 18

>  <SCORE>  (48) 
-10.572

>  <name>  (48) 
49

>  <ligand_id>  (48) 
49

>  <original_smiles>  (48) 
[H]C([H])=C1N=C(c2c([H])c([H])c(C([H])([H])Oc3c([H])c([H])c4c(c3[H])C([H])([H])N(C(=O)C([H])(N([H])C(=O)C([H])(N([H])C([H])([H])[H])C([H])([H])[H])C(C([H])([H])[H])(C([H])([H])[H])C([H])([H])[H])C([H])(C(=O)N([H])C3([H])c5c([H])c([H])c([H])c([H])c5C([H])([H])C([H])([H])C3([H])[H])C4([H])[H])c([H])c2[H])C(=NC(=O)N2C([H])([H])C([H])([H])C([H])([H])C([H])(n3nc(-c4c([H])c([H])c(Oc5c([H])c([H])c(F)c([H])c5F)c([H])c4[H])c(C(=O)N([H])[H])c3N([H])[H])C2([H])[H])C([H])=C1[H]

>  <smiles>  (48) 
[H]C([H])=C1N=C(c2c([H])c([H])c(C([H])([H])Oc3c([H])c([H])c4c(c3[H])C([H])([H])N(C(=O)C([H])(N([H])C(=O)C([H])(N([H])C([H])([H])[H])C([H])([H])[H])C(C([H])([H])[H])(C([H])([H])[H])C([H])([H])[H])C([H])(C(=O)N([H])C3([H])c5c([H])c([H])c([H])c([H])c5C([H])([H])C([H])([H])C3([H])[H])C4([H])[H])c([H])c2[H])C(=NC(=O)N2C([H])([H])C([H])([H])C([H])([H])C([H])(n3nc(-c4c([H])c([H])c(Oc5c([H])c([H])c(F)c([H])c5F)c([H])c4[H])c(C(=O)N([H])[H])c3N([H])[H])C2([H])[H])C([H])=C1[H]

$$$$
50:0:0
     RDKit          3D

 87 96  0  0  1  0  0  0  0  0999 V2000
  -29.6270  -21.8250   19.3330 C   0  0  0  0  0  2  0  0  0  0  0  0
  -29.7790  -20.4660   19.6180 C   0  0  0  0  0  3  0  0  0  0  0  0
  -29.9800  -19.1430   18.7950 C   0  0  0  0  0  2  0  0  0  0  0  0
  -28.1600  -21.1720   20.8140 C   0  0  0  0  0  2  0  0  0  0  0  0
  -28.8150  -22.6770   20.3770 C   0  0  0  0  0  3  0  0  0  0  0  0
  -29.2150  -19.8250   20.8840 C   0  0  0  0  0  3  0  0  0  0  0  0
  -29.9330  -18.3760   20.1580 C   0  0  0  0  0  3  0  0  0  0  0  0
  -30.3980  -15.4290   20.1150 C   0  0  0  0  0  0  0  0  0  0  0  0
  -30.3720  -12.9800   19.2210 C   0  0  0  0  0  2  0  0  0  0  0  0
  -29.4230  -12.7560   18.0170 C   0  0  0  0  0  2  0  0  0  0  0  0
  -27.9930  -12.4640   18.5000 C   0  0  0  0  0  2  0  0  0  0  0  0
  -27.5620  -13.4190   19.6400 C   0  0  0  0  0  3  0  0  0  0  0  0
  -28.6380  -13.5850   20.7340 C   0  0  0  0  0  2  0  0  0  0  0  0
  -29.8370  -14.1160   20.0650 N   0  0  0  0  0  0  0  0  0  0  0  0
  -31.6130  -15.4210   19.8670 O   0  0  0  0  0  0  0  0  0  0  0  0
  -29.6410  -16.7150   20.2410 N   0  0  0  0  0  0  0  0  0  0  0  0
  -28.6620  -16.5190   20.4000 H   0  0  0  0  0  0  0  0  0  0  0  0
  -25.2150  -13.9540   20.4700 C   0  0  0  0  0  0  0  0  0  0  0  0
  -24.1680  -13.1670   20.8590 C   0  0  0  0  0  0  0  0  0  0  0  0
  -24.6400  -11.8200   20.7970 C   0  0  0  0  0  0  0  0  0  0  0  0
  -26.2530  -13.0880   20.1850 N   0  0  0  0  0  0  0  0  0  0  0  0
  -25.9220  -11.7960   20.4500 N   0  0  0  0  0  0  0  0  0  0  0  0
  -23.9220  -10.5520   20.9890 C   0  0  0  0  0  0  0  0  0  0  0  0
  -24.3640   -9.5840   21.9170 C   0  0  0  0  0  3  0  0  0  0  0  0
  -23.6450   -8.3830   22.0990 C   0  0  0  0  0  3  0  0  0  0  0  0
  -22.4680   -8.1420   21.3510 C   0  0  0  0  0  0  0  0  0  0  0  0
  -22.0450   -9.0970   20.4100 C   0  0  0  0  0  3  0  0  0  0  0  0
  -22.7650  -10.2890   20.2270 C   0  0  0  0  0  3  0  0  0  0  0  0
  -21.7190   -6.9930   21.4410 O   0  0  0  0  0  0  0  0  0  0  0  0
  -21.6590   -6.2630   22.6010 C   0  0  0  0  0  0  0  0  0  0  0  0
  -21.1720   -6.8140   23.8050 C   0  0  0  0  0  3  0  0  0  0  0  0
  -21.0620   -6.0070   24.9550 C   0  0  0  0  0  3  0  0  0  0  0  0
  -21.4310   -4.6510   24.9020 C   0  0  0  0  0  0  0  0  0  0  0  0
  -21.9110   -4.0980   23.7030 C   0  0  0  0  0  3  0  0  0  0  0  0
  -22.0220   -4.9010   22.5540 C   0  0  0  0  0  0  0  0  0  0  0  0
  -22.4660   -4.3590   21.3940 F   0  0  0  0  0  0  0  0  0  0  0  0
  -21.3190   -3.8730   26.0050 F   0  0  0  0  0  0  0  0  0  0  0  0
  -22.7750  -13.6340   21.1690 C   0  0  0  0  0  0  0  0  0  0  0  0
  -22.0760  -12.9320   22.0510 N   0  0  0  0  0  0  0  0  0  0  0  0
  -22.3190  -14.6600   20.6630 O   0  0  0  0  0  0  0  0  0  0  0  0
  -22.4600  -12.1030   22.4800 H   0  0  0  0  0  0  0  0  0  0  0  0
  -21.1420  -13.2260   22.3010 H   0  0  0  0  0  0  0  0  0  0  0  0
  -25.3640  -15.3290   20.3050 N   0  0  0  0  0  0  0  0  0  0  0  0
  -24.5900  -15.9710   20.4350 H   0  0  0  0  0  0  0  0  0  0  0  0
  -26.1860  -15.7720   19.9180 H   0  0  0  0  0  0  0  0  0  0  0  0
  -27.9670  -24.2670   20.0390 C   0  0  0  0  0  2  0  0  0  0  0  0
  -28.2060  -25.8960   20.2910 O   0  0  0  0  0  0  0  0  0  0  0  0
  -24.6620  -31.8840   23.2980 C   0  0  0  0  0  0  0  0  0  0  0  0
  -27.2050  -27.0120   20.2330 C   0  0  0  0  0  0  0  0  0  0  0  0
  -23.4670  -30.5070   21.6470 C   0  0  0  0  0  3  0  0  0  0  0  0
  -24.9120  -28.9110   20.2080 C   0  0  0  0  0  0  0  0  0  0  0  0
  -26.0340  -30.7100   21.5030 C   0  0  0  0  0  2  0  0  0  0  0  0
  -26.1020  -29.3040   20.8340 C   0  0  0  0  0  0  0  0  0  0  0  0
  -27.2410  -28.3760   20.8210 C   0  0  0  0  0  3  0  0  0  0  0  0
  -25.9840  -26.7780   19.5610 C   0  0  0  0  0  3  0  0  0  0  0  0
  -24.8790  -27.6690   19.5520 C   0  0  0  0  0  3  0  0  0  0  0  0
  -23.6960  -29.8370   20.2630 C   0  0  0  0  0  2  0  0  0  0  0  0
  -24.7430  -31.0620   22.2030 N   0  0  0  0  0  0  0  0  0  0  0  0
  -23.5730  -32.1710   23.8230 O   0  0  0  0  0  0  0  0  0  0  0  0
  -22.7690  -29.5030   22.6030 C   0  0  0  0  0  0  0  0  0  0  0  0
  -21.4410  -29.3310   22.4690 N   0  0  0  0  0  0  0  0  0  0  0  0
  -23.4320  -28.8790   23.4360 O   0  0  0  0  0  0  0  0  0  0  0  0
  -20.9590  -29.8860   21.7760 H   0  0  0  0  0  0  0  0  0  0  0  0
  -18.0640  -28.0920   22.9430 C   0  0  0  0  0  0  0  0  0  0  0  0
  -20.6190  -28.3850   23.2310 C   0  0  0  0  0  3  0  0  0  0  0  0
  -20.7400  -26.9540   22.6550 C   0  0  0  0  0  2  0  0  0  0  0  0
  -19.6520  -26.6240   21.6280 C   0  0  0  0  0  2  0  0  0  0  0  0
  -18.2620  -26.7490   22.2610 C   0  0  0  0  0  2  0  0  0  0  0  0
  -19.1710  -28.8670   23.3840 C   0  0  0  0  0  0  0  0  0  0  0  0
  -18.9300  -30.1210   23.9850 C   0  0  0  0  0  3  0  0  0  0  0  0
  -17.6160  -30.6020   24.1470 C   0  0  0  0  0  3  0  0  0  0  0  0
  -16.5250  -29.8260   23.7210 C   0  0  0  0  0  3  0  0  0  0  0  0
  -16.7500  -28.5720   23.1250 C   0  0  0  0  0  3  0  0  0  0  0  0
  -25.9330  -32.5220   23.9380 C   0  0  0  0  0  3  0  0  0  0  0  0
  -25.6260  -33.9280   24.2560 N   0  0  0  0  0  0  0  0  0  0  0  0
  -25.9430  -34.9770   23.4830 C   0  0  0  0  0  0  0  0  0  0  0  0
  -26.5840  -34.8610   22.4360 O   0  0  0  0  0  0  0  0  0  0  0  0
  -25.0510  -34.0890   25.0690 H   0  0  0  0  0  0  0  0  0  0  0  0
  -24.1950  -36.7680   23.1870 C   0  0  0  0  0  1  0  0  0  0  0  0
  -25.4750  -36.3730   23.9420 C   0  0  0  0  0  3  0  0  0  0  0  0
  -27.6400  -37.2860   24.6610 C   0  0  0  0  0  1  0  0  0  0  0  0
  -26.4980  -37.4280   23.7620 N   0  0  0  0  0  0  0  0  0  0  0  0
  -26.0950  -38.3500   23.9040 H   0  0  0  0  0  0  0  0  0  0  0  0
  -26.4130  -31.7660   25.2390 C   0  0  1  0  0  0  0  0  0  0  0  0
  -25.2980  -31.5600   26.2910 C   0  0  0  0  0  1  0  0  0  0  0  0
  -26.9890  -30.3750   24.8900 C   0  0  0  0  0  1  0  0  0  0  0  0
  -27.5600  -32.5590   25.9100 C   0  0  0  0  0  1  0  0  0  0  0  0
  1  2  1  0
  1  5  1  0
  2  3  1  0
  2  6  1  0
  3  7  1  0
  5 46  1  0
  5  4  1  0
  6  4  1  0
  7 16  1  0
  7  6  1  0
  8 16  1  0
  9 14  1  0
 10 11  1  0
 10  9  1  0
 12 11  1  0
 12 21  1  0
 12 13  1  0
 14  8  1  0
 14 13  1  0
 15  8  2  0
 16 17  1  0
 18 19  2  0
 19 38  1  0
 20 19  1  0
 20 23  1  0
 21 22  1  0
 21 18  1  0
 22 20  2  0
 23 24  1  0
 24 25  2  0
 26 29  1  0
 26 25  1  0
 27 26  2  0
 28 27  1  0
 28 23  2  0
 29 30  1  0
 30 31  1  0
 31 32  2  0
 33 32  1  0
 33 37  1  0
 34 33  2  0
 35 30  2  0
 35 34  1  0
 36 35  1  0
 38 39  1  0
 39 42  1  0
 39 41  1  0
 40 38  2  0
 43 44  1  0
 43 18  1  0
 45 43  1  0
 46 47  1  0
 48 59  2  0
 49 47  1  0
 49 54  1  0
 50 58  1  0
 50 60  1  0
 51 57  1  0
 51 53  1  0
 52 58  1  0
 53 52  1  0
 54 53  2  0
 55 49  2  0
 56 55  1  0
 56 51  2  0
 57 50  1  0
 58 48  1  0
 60 62  2  0
 61 60  1  0
 63 61  1  0
 64 73  2  0
 64 69  1  0
 65 61  1  0
 65 69  1  0
 66 65  1  0
 67 68  1  0
 67 66  1  0
 68 64  1  0
 69 70  2  0
 70 71  1  0
 72 71  2  0
 73 72  1  0
 74 48  1  0
 74 75  1  0
 74 84  1  0
 75 78  1  0
 76 80  1  0
 76 75  1  0
 77 76  2  0
 80 79  1  0
 82 83  1  0
 82 80  1  0
 82 81  1  0
 84 87  1  1
 84 85  1  0
 86 84  1  0
M  ISO  4   8 100  16 100  46 101  47 101
M  END
>  <TORSDO>  (49) 
F 17

>  <SCORE>  (49) 
-16.539

>  <name>  (49) 
50

>  <ligand_id>  (49) 
50

>  <original_smiles>  (49) 
[H]C1=C2C([H])([H])C([H])(N([H])C(=O)N3C([H])([H])C([H])([H])C([H])([H])C([H])(n4nc(-c5c([H])c([H])c(Oc6c([H])c([H])c(F)c([H])c6F)c([H])c5[H])c(C(=O)N([H])[H])c4N([H])[H])C3([H])[H])C2([H])C([H])([H])C1([H])C([H])([H])Oc1c([H])c([H])c2c(c1[H])C([H])([H])N(C(=O)C([H])(N([H])C(=O)C([H])(N([H])C([H])([H])[H])C([H])([H])[H])C(C([H])([H])[H])(C([H])([H])[H])C([H])([H])[H])C([H])(C(=O)N([H])C1([H])c3c([H])c([H])c([H])c([H])c3C([H])([H])C([H])([H])C1([H])[H])C2([H])[H]

>  <smiles>  (49) 
[H]C1=C2C([H])([H])C([H])(N([H])C(=O)N3C([H])([H])C([H])([H])C([H])([H])C([H])(n4nc(-c5c([H])c([H])c(Oc6c([H])c([H])c(F)c([H])c6F)c([H])c5[H])c(C(=O)N([H])[H])c4N([H])[H])C3([H])[H])C2([H])C([H])([H])C1([H])C([H])([H])Oc1c([H])c([H])c2c(c1[H])C([H])([H])N(C(=O)C([H])(N([H])C(=O)C([H])(N([H])C([H])([H])[H])C([H])([H])[H])C(C([H])([H])[H])(C([H])([H])[H])C([H])([H])[H])C([H])(C(=O)N([H])C1([H])c3c([H])c([H])c([H])c([H])c3C([H])([H])C([H])([H])C1([H])[H])C2([H])[H]

$$$$
51:0:0
     RDKit          3D

 89100  0  0  1  0  0  0  0  0999 V2000
  -28.8790  -17.8560   18.2620 C   0  0  0  0  0  2  0  0  0  0  0  0
  -28.6550  -19.2370   18.1990 C   0  0  2  0  0  0  0  0  0  0  0  0
  -27.5600  -19.9630   17.5010 C   0  0  0  0  0  2  0  0  0  0  0  0
  -27.2440  -20.2930   18.9840 C   0  0  0  0  0  3  0  0  0  0  0  0
  -29.6660  -18.8760   20.0790 C   0  0  0  0  0  2  0  0  0  0  0  0
  -29.3960  -17.1630   19.5720 C   0  0  2  0  0  0  0  0  0  0  0  0
  -28.7610  -20.2880   19.3750 C   0  0  1  0  0  0  0  0  0  0  0  0
  -30.3480  -15.5410   19.5530 C   0  0  0  0  0  0  0  0  0  0  0  0
  -30.6210  -12.9260   19.0700 C   0  0  0  0  0  2  0  0  0  0  0  0
  -29.7220  -12.3680   17.9240 C   0  0  0  0  0  2  0  0  0  0  0  0
  -28.3000  -12.0380   18.4140 C   0  0  0  0  0  2  0  0  0  0  0  0
  -27.7750  -13.1260   19.3770 C   0  0  0  0  0  3  0  0  0  0  0  0
  -28.8210  -13.5000   20.4480 C   0  0  0  0  0  2  0  0  0  0  0  0
  -29.9590  -14.1370   19.7310 N   0  0  0  0  0  0  0  0  0  0  0  0
  -31.5670  -15.5430   19.2940 O   0  0  0  0  0  0  0  0  0  0  0  0
  -25.4420  -13.6970   20.2220 C   0  0  0  0  0  0  0  0  0  0  0  0
  -24.3860  -12.9300   20.6240 C   0  0  0  0  0  0  0  0  0  0  0  0
  -24.8330  -11.5750   20.5630 C   0  0  0  0  0  0  0  0  0  0  0  0
  -26.4660  -12.8120   19.9340 N   0  0  0  0  0  0  0  0  0  0  0  0
  -26.1140  -11.5270   20.2030 N   0  0  0  0  0  0  0  0  0  0  0  0
  -24.0930  -10.3220   20.7680 C   0  0  0  0  0  0  0  0  0  0  0  0
  -24.4460   -9.4110   21.7870 C   0  0  0  0  0  3  0  0  0  0  0  0
  -23.7030   -8.2270   21.9780 C   0  0  0  0  0  3  0  0  0  0  0  0
  -22.5910   -7.9440   21.1490 C   0  0  0  0  0  0  0  0  0  0  0  0
  -22.2570   -8.8430   20.1200 C   0  0  0  0  0  3  0  0  0  0  0  0
  -23.0020  -10.0190   19.9290 C   0  0  0  0  0  3  0  0  0  0  0  0
  -21.8270   -6.8060   21.2440 O   0  0  0  0  0  0  0  0  0  0  0  0
  -21.5250   -6.2410   22.4570 C   0  0  0  0  0  0  0  0  0  0  0  0
  -20.8000   -6.9410   23.4450 C   0  0  0  0  0  3  0  0  0  0  0  0
  -20.4510   -6.2990   24.6500 C   0  0  0  0  0  3  0  0  0  0  0  0
  -20.8180   -4.9580   24.8660 C   0  0  0  0  0  0  0  0  0  0  0  0
  -21.5370   -4.2570   23.8810 C   0  0  0  0  0  3  0  0  0  0  0  0
  -21.8860   -4.8970   22.6790 C   0  0  0  0  0  0  0  0  0  0  0  0
  -22.5600   -4.2100   21.7250 F   0  0  0  0  0  0  0  0  0  0  0  0
  -20.4770   -4.3390   26.0210 F   0  0  0  0  0  0  0  0  0  0  0  0
  -23.0070  -13.4260   20.9480 C   0  0  0  0  0  0  0  0  0  0  0  0
  -22.3020  -12.7380   21.8380 N   0  0  0  0  0  0  0  0  0  0  0  0
  -22.5660  -14.4610   20.4470 O   0  0  0  0  0  0  0  0  0  0  0  0
  -22.6720  -11.9010   22.2640 H   0  0  0  0  0  0  0  0  0  0  0  0
  -21.3780  -13.0530   22.0980 H   0  0  0  0  0  0  0  0  0  0  0  0
  -25.6070  -15.0660   20.0450 N   0  0  0  0  0  4  0  0  0  0  0  0
  -24.8570  -15.7250   20.2190 H   0  0  0  0  0  0  0  0  0  0  0  0
  -26.4530  -15.5090   19.7180 H   0  0  0  0  0  0  0  0  0  0  0  0
  -28.1930  -16.6240   20.4060 C   0  0  0  0  0  2  0  0  0  0  0  0
  -25.7860  -16.4040   21.2000 C   0  0  0  0  0  2  0  0  0  0  0  0
  -26.7510  -17.1250   20.2510 C   0  0  0  0  0  2  0  0  0  0  0  0
  -29.0900  -22.1770   19.3070 C   0  0  0  0  0  3  0  0  0  0  0  0
  -28.0680  -23.8040   19.2500 C   0  0  0  0  0  3  0  0  0  0  0  0
  -28.2400  -25.5300   19.3930 O   0  0  0  0  0  0  0  0  0  0  0  0
  -24.6930  -31.3810   22.9930 C   0  0  0  0  0  0  0  0  0  0  0  0
  -27.2340  -26.6940   19.4850 C   0  0  0  0  0  0  0  0  0  0  0  0
  -23.4920  -30.1420   21.2410 C   0  0  0  0  0  3  0  0  0  0  0  0
  -24.9350  -28.6610   19.6560 C   0  0  0  0  0  0  0  0  0  0  0  0
  -26.0660  -30.3370   21.0960 C   0  0  0  0  0  2  0  0  0  0  0  0
  -26.1360  -28.9810   20.3030 C   0  0  0  0  0  0  0  0  0  0  0  0
  -27.2710  -28.0280   20.1860 C   0  0  0  0  0  3  0  0  0  0  0  0
  -25.9950  -26.5730   18.8090 C   0  0  0  0  0  3  0  0  0  0  0  0
  -24.9000  -27.4850   18.8890 C   0  0  0  0  0  3  0  0  0  0  0  0
  -23.7180  -29.5860   19.8040 C   0  0  0  0  0  2  0  0  0  0  0  0
  -24.7750  -30.6460   21.8320 N   0  0  0  0  0  0  0  0  0  0  0  0
  -23.6060  -31.6170   23.5460 O   0  0  0  0  0  0  0  0  0  0  0  0
  -22.8010  -29.0650   22.1180 C   0  0  0  0  0  0  0  0  0  0  0  0
  -21.4690  -28.9080   21.9930 N   0  0  0  0  0  0  0  0  0  0  0  0
  -23.4740  -28.3690   22.8840 O   0  0  0  0  0  0  0  0  0  0  0  0
  -20.9760  -29.5210   21.3590 H   0  0  0  0  0  0  0  0  0  0  0  0
  -18.0850  -27.6920   22.5110 C   0  0  0  0  0  0  0  0  0  0  0  0
  -20.6600  -27.8930   22.6790 C   0  0  0  0  0  3  0  0  0  0  0  0
  -20.7060  -26.5430   21.9240 C   0  0  0  0  0  2  0  0  0  0  0  0
  -19.5520  -26.3660   20.9310 C   0  0  0  0  0  2  0  0  0  0  0  0
  -18.2050  -26.4420   21.6560 C   0  0  0  0  0  2  0  0  0  0  0  0
  -19.2360  -28.3820   22.9780 C   0  0  0  0  0  0  0  0  0  0  0  0
  -19.0650  -29.5530   23.7460 C   0  0  0  0  0  3  0  0  0  0  0  0
  -17.7770  -30.0370   24.0450 C   0  0  0  0  0  3  0  0  0  0  0  0
  -16.6420  -29.3450   23.5900 C   0  0  0  0  0  3  0  0  0  0  0  0
  -16.7980  -28.1710   22.8300 C   0  0  0  0  0  3  0  0  0  0  0  0
  -25.9610  -31.9740   23.6780 C   0  0  0  0  0  3  0  0  0  0  0  0
  -26.4080  -31.1630   24.9580 C   0  0  1  0  0  0  0  0  0  0  0  0
  -25.2760  -30.9470   25.9900 C   0  0  0  0  0  1  0  0  0  0  0  0
  -26.9550  -29.7710   24.5700 C   0  0  0  0  0  1  0  0  0  0  0  0
  -27.5660  -31.9040   25.6690 C   0  0  0  0  0  1  0  0  0  0  0  0
  -25.6720  -33.3730   24.0490 N   0  0  0  0  0  0  0  0  0  0  0  0
  -26.0320  -34.4510   23.3380 C   0  0  0  0  0  0  0  0  0  0  0  0
  -26.7030  -34.3700   22.3060 O   0  0  0  0  0  0  0  0  0  0  0  0
  -25.0760  -33.5100   24.8530 H   0  0  0  0  0  0  0  0  0  0  0  0
  -24.3450  -36.3030   23.0680 C   0  0  0  0  0  1  0  0  0  0  0  0
  -25.5830  -35.8360   23.8510 C   0  0  0  0  0  3  0  0  0  0  0  0
  -27.7330  -36.6600   24.7090 C   0  0  0  0  0  1  0  0  0  0  0  0
  -26.6380  -36.8690   23.7650 N   0  0  0  0  0  0  0  0  0  0  0  0
  -26.2520  -37.7950   23.9280 H   0  0  0  0  0  0  0  0  0  0  0  0
  2  3  1  6
  2  1  1  0
  2  4  1  0
  2  7  1  0
  4  3  1  0
  4  7  1  0
  6  1  1  6
  6  5  1  0
  6 44  1  0
  7 47  1  6
  7  5  1  0
  8  6  1  0
  8 14  1  0
  9 14  1  0
 10 11  1  0
 10  9  1  0
 12 11  1  0
 12 19  1  0
 12 13  1  0
 14 13  1  0
 15  8  2  0
 16 17  2  0
 17 36  1  0
 18 17  1  0
 18 21  1  0
 19 20  1  0
 19 16  1  0
 20 18  2  0
 21 22  1  0
 22 23  2  0
 24 27  1  0
 24 23  1  0
 25 24  2  0
 26 25  1  0
 26 21  2  0
 27 28  1  0
 28 33  2  0
 28 29  1  0
 29 30  2  0
 30 31  1  0
 31 35  1  0
 32 31  2  0
 33 32  1  0
 34 33  1  0
 36 37  1  0
 37 40  1  0
 37 39  1  0
 38 36  2  0
 41 42  1  0
 41 16  1  0
 41 45  1  0
 43 41  1  0
 46 44  1  0
 46 45  1  0
 48 47  2  0
 48 49  1  0
 49 51  1  0
 50 61  2  0
 51 56  1  0
 52 60  1  0
 52 62  1  0
 53 59  1  0
 53 55  1  0
 54 60  1  0
 55 54  1  0
 56 55  2  0
 57 58  1  0
 57 51  2  0
 58 53  2  0
 59 52  1  0
 60 50  1  0
 62 64  2  0
 63 62  1  0
 65 63  1  0
 66 75  2  0
 66 71  1  0
 67 63  1  0
 67 71  1  0
 68 67  1  0
 69 70  1  0
 69 68  1  0
 70 66  1  0
 71 72  2  0
 72 73  1  0
 74 73  2  0
 75 74  1  0
 76 50  1  0
 76 81  1  0
 76 77  1  0
 77 80  1  1
 77 78  1  0
 79 77  1  0
 81 84  1  0
 82 86  1  0
 82 81  1  0
 83 82  2  0
 86 85  1  0
 88 86  1  0
 88 89  1  0
 88 87  1  0
M  ISO  4   6 100   8 100  48 101  49 101
M  END
>  <TORSDO>  (50) 
F 20

>  <SCORE>  (50) 
-12.556

>  <name>  (50) 
51

>  <ligand_id>  (50) 
51

>  <original_smiles>  (50) 
[H]C1=C2C([H])([H])C([H])([H])C2(C([H])([H])C([H])([H])Oc2c([H])c([H])c3c(c2[H])C([H])([H])N(C(=O)C([H])(N([H])C(=O)C([H])(N([H])C([H])([H])[H])C([H])([H])[H])C(C([H])([H])[H])(C([H])([H])[H])C([H])([H])[H])C([H])(C(=O)N([H])C2([H])c4c([H])c([H])c([H])c([H])c4C([H])([H])C([H])([H])C2([H])[H])C3([H])[H])C([H])([H])C1(C(=O)N1C([H])([H])C([H])([H])C([H])([H])C([H])(n2nc(-c3c([H])c([H])c(Oc4c([H])c([H])c(F)c([H])c4F)c([H])c3[H])c(C(=O)N([H])[H])c2N([H])[H])C1([H])[H])C([H])([H])C([H])([H])C([H])([H])[H]

>  <smiles>  (50) 
[H]C1=C2C([H])([H])C([H])([H])C2(C([H])([H])C([H])([H])Oc2c([H])c([H])c3c(c2[H])C([H])([H])N(C(=O)C([H])(N([H])C(=O)C([H])(N([H])C([H])([H])[H])C([H])([H])[H])C(C([H])([H])[H])(C([H])([H])[H])C([H])([H])[H])C([H])(C(=O)N([H])C2([H])c4c([H])c([H])c([H])c([H])c4C([H])([H])C([H])([H])C2([H])[H])C3([H])[H])C([H])([H])C1(C(=O)N1C([H])([H])C([H])([H])C([H])([H])C([H])(n2nc(-c3c([H])c([H])c(Oc4c([H])c([H])c(F)c([H])c4F)c([H])c3[H])c(C(=O)N([H])[H])c2N([H])[H])C1([H])[H])C([H])([H])C([H])([H])C([H])([H])[H]

$$$$
52:0:0
     RDKit          3D

 99108  0  0  1  0  0  0  0  0999 V2000
  -29.1620  -21.1880   22.0040 C   0  0  0  0  0  2  0  0  0  0  0  0
  -28.5690  -24.3060   18.8750 C   0  0  0  0  0  2  0  0  0  0  0  0
  -27.6380  -22.3350   20.3700 C   0  0  0  0  0  2  0  0  0  0  0  0
  -29.5150  -23.5510   21.2430 C   0  0  0  0  0  2  0  0  0  0  0  0
  -27.5530  -23.7510   19.8460 C   0  0  0  0  0  3  0  0  0  0  0  0
  -28.7290  -24.5200   20.3740 C   0  0  2  0  0  0  0  0  0  0  0  0
  -29.0110  -22.1930   20.9160 N   0  0  1  0  0  4  0  0  0  0  0  0
  -29.5820  -21.8880   20.1410 H   0  0  0  0  0  0  0  0  0  0  0  0
  -28.6240  -25.9240   20.9770 C   0  0  0  0  0  2  0  0  0  0  0  0
  -28.4830  -26.9500   19.9930 O   0  0  0  0  0  0  0  0  0  0  0  0
  -24.7060  -31.9860   23.3270 C   0  0  0  0  0  0  0  0  0  0  0  0
  -27.3150  -27.6620   20.0760 C   0  0  0  0  0  0  0  0  0  0  0  0
  -23.4810  -30.6190   21.6700 C   0  0  0  0  0  3  0  0  0  0  0  0
  -24.9140  -29.1290   20.1810 C   0  0  0  0  0  0  0  0  0  0  0  0
  -25.9960  -31.0060   21.4340 C   0  0  0  0  0  2  0  0  0  0  0  0
  -26.0770  -29.6500   20.7630 C   0  0  0  0  0  0  0  0  0  0  0  0
  -27.2850  -28.9220   20.7120 C   0  0  0  0  0  3  0  0  0  0  0  0
  -26.1430  -27.1490   19.4900 C   0  0  0  0  0  3  0  0  0  0  0  0
  -24.9380  -27.8750   19.5440 C   0  0  0  0  0  3  0  0  0  0  0  0
  -23.6680  -29.9810   20.2670 C   0  0  0  0  0  2  0  0  0  0  0  0
  -24.7480  -31.2160   22.2030 N   0  0  0  0  0  0  0  0  0  0  0  0
  -23.6340  -32.2390   23.8900 O   0  0  0  0  0  0  0  0  0  0  0  0
  -22.8520  -29.5670   22.6120 C   0  0  0  0  0  0  0  0  0  0  0  0
  -21.5340  -29.3550   22.4750 N   0  0  0  0  0  0  0  0  0  0  0  0
  -23.5480  -28.9450   23.4190 O   0  0  0  0  0  0  0  0  0  0  0  0
  -21.0340  -29.9130   21.7970 H   0  0  0  0  0  0  0  0  0  0  0  0
  -18.1930  -28.0460   22.9050 C   0  0  0  0  0  0  0  0  0  0  0  0
  -20.7360  -28.3860   23.2250 C   0  0  0  0  0  3  0  0  0  0  0  0
  -20.8940  -26.9620   22.6450 C   0  0  0  0  0  2  0  0  0  0  0  0
  -19.8200  -26.6070   21.6110 C   0  0  0  0  0  2  0  0  0  0  0  0
  -18.4240  -26.7050   22.2290 C   0  0  0  0  0  2  0  0  0  0  0  0
  -19.2780  -28.8420   23.3580 C   0  0  0  0  0  0  0  0  0  0  0  0
  -19.0060  -30.0970   23.9460 C   0  0  0  0  0  3  0  0  0  0  0  0
  -17.6830  -30.5550   24.0870 C   0  0  0  0  0  3  0  0  0  0  0  0
  -16.6130  -29.7560   23.6500 C   0  0  0  0  0  3  0  0  0  0  0  0
  -16.8680  -28.5040   23.0640 C   0  0  0  0  0  3  0  0  0  0  0  0
  -26.0000  -32.6040   23.9420 C   0  0  0  0  0  3  0  0  0  0  0  0
  -26.5320  -31.8100   25.1960 C   0  0  1  0  0  0  0  0  0  0  0  0
  -25.4430  -31.5240   26.2580 C   0  0  0  0  0  1  0  0  0  0  0  0
  -27.1410  -30.4570   24.7600 C   0  0  0  0  0  1  0  0  0  0  0  0
  -27.6740  -32.6070   25.8750 C   0  0  0  0  0  1  0  0  0  0  0  0
  -25.7000  -33.9980   24.2980 N   0  0  0  0  0  0  0  0  0  0  0  0
  -26.0360  -35.0590   23.5490 C   0  0  0  0  0  0  0  0  0  0  0  0
  -26.7020  -34.9680   22.5160 O   0  0  0  0  0  0  0  0  0  0  0  0
  -25.1150  -34.1440   25.1080 H   0  0  0  0  0  0  0  0  0  0  0  0
  -24.3130  -36.8580   23.2230 C   0  0  0  0  0  1  0  0  0  0  0  0
  -25.5550  -36.4400   24.0280 C   0  0  0  0  0  3  0  0  0  0  0  0
  -27.6990  -37.2970   24.8630 C   0  0  0  0  0  1  0  0  0  0  0  0
  -26.5920  -37.4900   23.9290 N   0  0  0  0  0  0  0  0  0  0  0  0
  -26.1920  -38.4090   24.0980 H   0  0  0  0  0  0  0  0  0  0  0  0
  -28.9180  -19.7500   21.4960 C   0  0  0  0  0  2  0  0  0  0  0  0
  -30.0720  -18.7730   21.7220 C   0  0  0  0  0  0  0  0  0  0  0  0
  -30.8410  -18.8890   22.6810 O   0  0  0  0  0  0  0  0  0  0  0  0
  -30.2200  -17.6560   20.6730 C   0  0  0  0  0  2  0  0  0  0  0  0
  -31.4790  -16.7490   20.7770 C   0  0  0  0  0  3  0  0  0  0  0  0
  -31.3640  -14.4420   19.6540 C   0  0  0  0  0  0  0  0  0  0  0  0
  -30.9740  -12.1300   18.8690 C   0  0  0  0  0  2  0  0  0  0  0  0
  -29.9670  -12.0520   17.7070 C   0  0  0  0  0  2  0  0  0  0  0  0
  -28.5280  -11.9780   18.2460 C   0  0  0  0  0  2  0  0  0  0  0  0
  -28.2290  -13.0880   19.2870 C   0  0  0  0  0  3  0  0  0  0  0  0
  -29.3310  -13.1330   20.3700 C   0  0  0  0  0  2  0  0  0  0  0  0
  -30.6460  -13.2890   19.7140 N   0  0  0  0  0  0  0  0  0  0  0  0
  -32.2620  -14.6320   18.8290 O   0  0  0  0  0  0  0  0  0  0  0  0
  -31.0780  -15.3340   20.6200 N   0  0  0  0  0  0  0  0  0  0  0  0
  -30.4120  -14.9970   21.3000 H   0  0  0  0  0  0  0  0  0  0  0  0
  -25.9500  -13.8730   20.2050 C   0  0  0  0  0  0  0  0  0  0  0  0
  -24.8550  -13.1810   20.6460 C   0  0  0  0  0  0  0  0  0  0  0  0
  -25.1960  -11.7980   20.5460 C   0  0  0  0  0  0  0  0  0  0  0  0
  -26.8980  -12.9160   19.8700 N   0  0  0  0  0  0  0  0  0  0  0  0
  -26.4480  -11.6610   20.1270 N   0  0  0  0  0  0  0  0  0  0  0  0
  -24.3840  -10.5950   20.7710 C   0  0  0  0  0  0  0  0  0  0  0  0
  -24.7620   -9.6130   21.7130 C   0  0  0  0  0  3  0  0  0  0  0  0
  -23.9560   -8.4740   21.9230 C   0  0  0  0  0  3  0  0  0  0  0  0
  -22.7570   -8.3090   21.1890 C   0  0  0  0  0  0  0  0  0  0  0  0
  -22.3980   -9.2770   20.2360 C   0  0  0  0  0  3  0  0  0  0  0  0
  -23.2030  -10.4080   20.0250 C   0  0  0  0  0  3  0  0  0  0  0  0
  -21.9230   -7.2220   21.3100 O   0  0  0  0  0  0  0  0  0  0  0  0
  -21.7780   -6.5530   22.5000 C   0  0  0  0  0  0  0  0  0  0  0  0
  -21.3460   -7.2070   23.6740 C   0  0  0  0  0  3  0  0  0  0  0  0
  -21.1450   -6.4700   24.8570 C   0  0  0  0  0  3  0  0  0  0  0  0
  -21.3660   -5.0790   24.8670 C   0  0  0  0  0  0  0  0  0  0  0  0
  -21.7880   -4.4250   23.6960 C   0  0  0  0  0  3  0  0  0  0  0  0
  -21.9920   -5.1600   22.5160 C   0  0  0  0  0  0  0  0  0  0  0  0
  -22.3810   -4.5220   21.3860 F   0  0  0  0  0  0  0  0  0  0  0  0
  -21.1640   -4.3680   26.0000 F   0  0  0  0  0  0  0  0  0  0  0  0
  -23.5310  -13.7650   21.0520 C   0  0  0  0  0  0  0  0  0  0  0  0
  -22.8360  -13.1230   21.9840 N   0  0  0  0  0  0  0  0  0  0  0  0
  -23.1270  -14.8240   20.5750 O   0  0  0  0  0  0  0  0  0  0  0  0
  -23.1740  -12.2620   22.3900 H   0  0  0  0  0  0  0  0  0  0  0  0
  -21.9520  -13.4980   22.2980 H   0  0  0  0  0  0  0  0  0  0  0  0
  -26.2150  -15.2300   20.0440 N   0  0  0  0  0  0  0  0  0  0  0  0
  -25.5150  -15.9390   20.2310 H   0  0  0  0  0  0  0  0  0  0  0  0
  -27.0700  -15.6080   19.6540 H   0  0  0  0  0  0  0  0  0  0  0  0
  -32.6280  -17.2040   19.8330 C   0  0  0  0  0  2  0  0  0  0  0  0
  -33.0710  -18.6790   19.9970 C   0  0  0  0  0  2  0  0  0  0  0  0
  -33.9210  -19.1410   18.8870 N   0  0  0  0  0  4  0  0  0  0  0  0
  -34.7360  -18.5620   18.7850 H   0  0  0  0  0  0  0  0  0  0  0  0
  -34.2220  -20.0830   19.0660 H   0  0  0  0  0  0  0  0  0  0  0  0
  -33.4100  -19.1390   18.0200 H   0  0  0  0  0  0  0  0  0  0  0  0
  2  6  1  0
  3  7  1  0
  5  2  1  0
  5  3  1  0
  5  6  1  0
  6  9  1  6
  6  4  1  0
  7  4  1  0
  7  1  1  0
  7  8  1  6
 10 12  1  0
 10  9  1  0
 11 22  2  0
 12 17  1  0
 13 21  1  0
 13 23  1  0
 14 20  1  0
 14 16  1  0
 15 21  1  0
 16 15  1  0
 17 16  2  0
 18 19  1  0
 18 12  2  0
 19 14  2  0
 20 13  1  0
 21 11  1  0
 23 25  2  0
 24 23  1  0
 26 24  1  0
 27 36  2  0
 27 32  1  0
 28 24  1  0
 28 32  1  0
 29 28  1  0
 30 31  1  0
 30 29  1  0
 31 27  1  0
 32 33  2  0
 33 34  1  0
 35 34  2  0
 36 35  1  0
 37 11  1  0
 37 42  1  0
 37 38  1  0
 38 41  1  1
 38 39  1  0
 40 38  1  0
 42 45  1  0
 43 47  1  0
 43 42  1  0
 44 43  2  0
 47 46  1  0
 49 47  1  0
 49 50  1  0
 49 48  1  0
 51 52  1  0
 51  1  1  0
 52 53  2  0
 54 55  1  0
 54 52  1  0
 55 94  1  0
 56 62  1  0
 56 64  1  0
 57 62  1  0
 58 59  1  0
 58 57  1  0
 60 59  1  0
 60 69  1  0
 60 61  1  0
 62 61  1  0
 63 56  2  0
 64 55  1  0
 64 65  1  0
 66 67  2  0
 67 86  1  0
 68 67  1  0
 68 71  1  0
 69 70  1  0
 69 66  1  0
 70 68  2  0
 71 72  1  0
 72 73  2  0
 74 77  1  0
 74 73  1  0
 75 74  2  0
 76 75  1  0
 76 71  2  0
 77 78  1  0
 78 83  2  0
 78 79  1  0
 79 80  2  0
 80 81  1  0
 81 85  1  0
 82 81  2  0
 83 82  1  0
 84 83  1  0
 86 87  1  0
 87 90  1  0
 87 89  1  0
 88 86  2  0
 91 66  1  0
 91 92  1  0
 93 91  1  0
 94 95  1  0
 96 98  1  0
 96 95  1  0
 97 96  1  0
 99 96  1  0
M  ISO  4   9 101  10 101  56 100  64 100
M  END
>  <TORSDO>  (51) 
F 25

>  <SCORE>  (51) 
-10.948

>  <name>  (51) 
52

>  <ligand_id>  (51) 
52

>  <original_smiles>  (51) 
[H]c1c([H])c([H])c2c(c1[H])C([H])([H])C([H])([H])C([H])([H])C2([H])N([H])C(=O)C1([H])N(C(=O)C([H])(N([H])C(=O)C([H])(N([H])C([H])([H])[H])C([H])([H])[H])C(C([H])([H])[H])(C([H])([H])[H])C([H])([H])[H])C([H])([H])c2c([H])c(OC([H])([H])C34C([H])([H])C3([H])C([H])([H])[N+]([H])(C([H])([H])C([H])([H])C(=O)C([H])([H])C([H])(N([H])C(=O)N3C([H])([H])C([H])([H])C([H])([H])C([H])(n5nc(-c6c([H])c([H])c(Oc7c([H])c([H])c(F)c([H])c7F)c([H])c6[H])c(C(=O)N([H])[H])c5N([H])[H])C3([H])[H])C([H])([H])C([H])([H])[N+]([H])([H])[H])C4([H])[H])c([H])c([H])c2C1([H])[H]

>  <smiles>  (51) 
[H]c1c([H])c([H])c2c(c1[H])C([H])([H])C([H])([H])C([H])([H])C2([H])N([H])C(=O)C1([H])N(C(=O)C([H])(N([H])C(=O)C([H])(N([H])C([H])([H])[H])C([H])([H])[H])C(C([H])([H])[H])(C([H])([H])[H])C([H])([H])[H])C([H])([H])c2c([H])c(OC([H])([H])C34C([H])([H])C3([H])C([H])([H])[N+]([H])(C([H])([H])C([H])([H])C(=O)C([H])([H])C([H])(N([H])C(=O)N3C([H])([H])C([H])([H])C([H])([H])C([H])(n5nc(-c6c([H])c([H])c(Oc7c([H])c([H])c(F)c([H])c7F)c([H])c6[H])c(C(=O)N([H])[H])c5N([H])[H])C3([H])[H])C([H])([H])C([H])([H])[N+]([H])([H])[H])C4([H])[H])c([H])c([H])c2C1([H])[H]

$$$$
53:0:0
     RDKit          3D

 92100  0  0  1  0  0  0  0  0999 V2000
  -29.6790  -22.1380   22.8530 C   0  0  0  0  0  3  0  0  0  0  0  0
  -29.4700  -22.1800   21.5190 C   0  0  0  0  0  0  0  0  0  0  0  0
  -29.7690  -23.3320   23.7090 C   0  0  0  0  0  0  0  0  0  0  0  0
  -29.2620  -23.5420   20.7940 C   0  0  0  0  0  2  0  0  0  0  0  0
  -29.7490  -24.6910   23.0370 C   0  0  0  0  0  2  0  0  0  0  0  0
  -28.9070  -24.7550   21.7420 C   0  0  0  0  0  3  0  0  0  0  0  0
  -29.8890  -23.2320   24.9640 N   0  0  0  0  0  0  0  0  0  0  0  0
  -29.9000  -22.2660   25.2750 H   0  0  0  0  0  0  0  0  0  0  0  0
  -29.4320  -20.8790   20.6620 C   0  0  0  0  0  3  0  0  0  0  0  0
  -29.9770  -19.5510   21.3200 C   0  0  0  0  0  3  0  0  0  0  0  0
  -29.7330  -18.1910   20.5700 C   0  0  0  0  0  2  0  0  0  0  0  0
  -30.5330  -16.9740   21.1620 C   0  0  0  0  0  2  0  0  0  0  0  0
  -30.7360  -14.5800   20.2760 C   0  0  0  0  0  0  0  0  0  0  0  0
  -30.4360  -12.4010   19.1330 C   0  0  0  0  0  2  0  0  0  0  0  0
  -29.4690  -12.5730   17.9420 C   0  0  0  0  0  2  0  0  0  0  0  0
  -28.0030  -12.4310   18.3990 C   0  0  0  0  0  2  0  0  0  0  0  0
  -27.6840  -13.2760   19.6600 C   0  0  0  0  0  3  0  0  0  0  0  0
  -28.7600  -13.0780   20.7520 C   0  0  0  0  0  2  0  0  0  0  0  0
  -30.0660  -13.3980   20.1530 N   0  0  0  0  0  0  0  0  0  0  0  0
  -31.8690  -14.7440   19.8150 O   0  0  0  0  0  0  0  0  0  0  0  0
  -30.0390  -15.6120   20.8180 N   0  0  0  0  0  0  0  0  0  0  0  0
  -29.1030  -15.3860   21.1180 H   0  0  0  0  0  0  0  0  0  0  0  0
  -25.3020  -13.8900   20.4080 C   0  0  0  0  0  0  0  0  0  0  0  0
  -24.2390  -13.1210   20.7990 C   0  0  0  0  0  0  0  0  0  0  0  0
  -24.6980  -11.7680   20.7710 C   0  0  0  0  0  0  0  0  0  0  0  0
  -26.3410  -13.0050   20.1660 N   0  0  0  0  0  0  0  0  0  0  0  0
  -25.9820  -11.7250   20.4400 N   0  0  0  0  0  0  0  0  0  0  0  0
  -23.9730  -10.5080   20.9810 C   0  0  0  0  0  0  0  0  0  0  0  0
  -24.4230   -9.5440   21.9100 C   0  0  0  0  0  3  0  0  0  0  0  0
  -23.6990   -8.3490   22.1090 C   0  0  0  0  0  3  0  0  0  0  0  0
  -22.5100   -8.1100   21.3790 C   0  0  0  0  0  0  0  0  0  0  0  0
  -22.0790   -9.0630   20.4390 C   0  0  0  0  0  3  0  0  0  0  0  0
  -22.8040  -10.2490   20.2390 C   0  0  0  0  0  3  0  0  0  0  0  0
  -21.7570   -6.9660   21.4860 O   0  0  0  0  0  0  0  0  0  0  0  0
  -21.7320   -6.2250   22.6410 C   0  0  0  0  0  0  0  0  0  0  0  0
  -21.3380   -6.7860   23.8760 C   0  0  0  0  0  3  0  0  0  0  0  0
  -21.2580   -5.9740   25.0250 C   0  0  0  0  0  3  0  0  0  0  0  0
  -21.5640   -4.6010   24.9400 C   0  0  0  0  0  0  0  0  0  0  0  0
  -21.9510   -4.0400   23.7110 C   0  0  0  0  0  3  0  0  0  0  0  0
  -22.0320   -4.8510   22.5640 C   0  0  0  0  0  0  0  0  0  0  0  0
  -22.3850   -4.3010   21.3770 F   0  0  0  0  0  0  0  0  0  0  0  0
  -21.4810   -3.8190   26.0410 F   0  0  0  0  0  0  0  0  0  0  0  0
  -22.8480  -13.6020   21.0950 C   0  0  0  0  0  0  0  0  0  0  0  0
  -22.1370  -12.9110   21.9780 N   0  0  0  0  0  0  0  0  0  0  0  0
  -22.4010  -14.6240   20.5750 O   0  0  0  0  0  0  0  0  0  0  0  0
  -22.5150  -12.0840   22.4170 H   0  0  0  0  0  0  0  0  0  0  0  0
  -21.2020  -13.2100   22.2180 H   0  0  0  0  0  0  0  0  0  0  0  0
  -25.4660  -15.2590   20.2180 N   0  0  0  0  0  0  0  0  0  0  0  0
  -24.7020  -15.9150   20.3330 H   0  0  0  0  0  0  0  0  0  0  0  0
  -26.3090  -15.6940   19.8620 H   0  0  0  0  0  0  0  0  0  0  0  0
  -29.0600  -26.2230   21.1830 C   0  0  0  0  0  2  0  0  0  0  0  0
  -28.2900  -26.5960   20.0320 O   0  0  0  0  0  0  0  0  0  0  0  0
  -24.5690  -31.9020   23.2360 C   0  0  0  0  0  0  0  0  0  0  0  0
  -27.1830  -27.4210   20.1480 C   0  0  0  0  0  0  0  0  0  0  0  0
  -23.3560  -30.5130   21.5900 C   0  0  0  0  0  3  0  0  0  0  0  0
  -24.8040  -28.9710   20.1600 C   0  0  0  0  0  0  0  0  0  0  0  0
  -25.8880  -30.8490   21.3960 C   0  0  0  0  0  2  0  0  0  0  0  0
  -25.9680  -29.4730   20.7600 C   0  0  0  0  0  0  0  0  0  0  0  0
  -27.1620  -28.7030   20.7600 C   0  0  0  0  0  3  0  0  0  0  0  0
  -26.0080  -26.9550   19.5280 C   0  0  0  0  0  3  0  0  0  0  0  0
  -24.8200  -27.7100   19.5420 C   0  0  0  0  0  3  0  0  0  0  0  0
  -23.5630  -29.8380   20.2090 C   0  0  0  0  0  2  0  0  0  0  0  0
  -24.6220  -31.1050   22.1310 N   0  0  0  0  0  0  0  0  0  0  0  0
  -23.4900  -32.1760   23.7790 O   0  0  0  0  0  0  0  0  0  0  0  0
  -22.7010  -29.4900   22.5490 C   0  0  0  0  0  0  0  0  0  0  0  0
  -21.3750  -29.3110   22.4240 N   0  0  0  0  0  0  0  0  0  0  0  0
  -23.3840  -28.8600   23.3600 O   0  0  0  0  0  0  0  0  0  0  0  0
  -20.8860  -29.8690   21.7380 H   0  0  0  0  0  0  0  0  0  0  0  0
  -18.0010  -28.1160   22.9240 C   0  0  0  0  0  0  0  0  0  0  0  0
  -20.5590  -28.3720   23.1920 C   0  0  0  0  0  3  0  0  0  0  0  0
  -20.6590  -26.9430   22.6100 C   0  0  0  0  0  2  0  0  0  0  0  0
  -19.5550  -26.6250   21.5960 C   0  0  0  0  0  2  0  0  0  0  0  0
  -18.1750  -26.7690   22.2430 C   0  0  0  0  0  2  0  0  0  0  0  0
  -19.1200  -28.8760   23.3550 C   0  0  0  0  0  0  0  0  0  0  0  0
  -18.9050  -30.1370   23.9500 C   0  0  0  0  0  3  0  0  0  0  0  0
  -17.6010  -30.6400   24.1210 C   0  0  0  0  0  3  0  0  0  0  0  0
  -16.4950  -29.8780   23.7060 C   0  0  0  0  0  3  0  0  0  0  0  0
  -16.6950  -28.6190   23.1130 C   0  0  0  0  0  3  0  0  0  0  0  0
  -25.8590  -32.5280   23.8530 C   0  0  0  0  0  3  0  0  0  0  0  0
  -25.5560  -33.9250   24.1870 N   0  0  0  0  0  0  0  0  0  0  0  0
  -25.8950  -34.9780   23.4310 C   0  0  0  0  0  0  0  0  0  0  0  0
  -26.5670  -34.8740   22.4010 O   0  0  0  0  0  0  0  0  0  0  0  0
  -24.9590  -34.0800   24.9860 H   0  0  0  0  0  0  0  0  0  0  0  0
  -24.1800  -36.7840   23.0700 C   0  0  0  0  0  1  0  0  0  0  0  0
  -25.4130  -36.3680   23.8890 C   0  0  0  0  0  3  0  0  0  0  0  0
  -27.5490  -37.2360   24.7350 C   0  0  0  0  0  1  0  0  0  0  0  0
  -26.4520  -37.4150   23.7860 N   0  0  0  0  0  0  0  0  0  0  0  0
  -26.0520  -38.3370   23.9350 H   0  0  0  0  0  0  0  0  0  0  0  0
  -26.3760  -31.7500   25.1250 C   0  0  1  0  0  0  0  0  0  0  0  0
  -25.2860  -31.5130   26.1980 C   0  0  0  0  0  1  0  0  0  0  0  0
  -26.9550  -30.3710   24.7290 C   0  0  0  0  0  1  0  0  0  0  0  0
  -27.5320  -32.5390   25.7860 C   0  0  0  0  0  1  0  0  0  0  0  0
  1  3  1  0
  2  1  2  0
  3  7  2  0
  4  2  1  0
  4  6  1  0
  5  3  1  0
  6 51  1  0
  6  5  1  0
  7  8  1  0
  9 10  2  0
  9  2  1  0
 11 12  1  0
 11 10  1  0
 13 21  1  0
 14 19  1  0
 15 16  1  0
 15 14  1  0
 17 16  1  0
 17 26  1  0
 17 18  1  0
 19 13  1  0
 19 18  1  0
 20 13  2  0
 21 22  1  0
 21 12  1  0
 23 24  2  0
 24 43  1  0
 25 24  1  0
 25 28  1  0
 26 23  1  0
 26 27  1  0
 27 25  2  0
 28 29  1  0
 29 30  2  0
 31 34  1  0
 31 30  1  0
 32 31  2  0
 33 32  1  0
 33 28  2  0
 34 35  1  0
 35 36  1  0
 36 37  2  0
 38 37  1  0
 38 42  1  0
 39 38  2  0
 40 35  2  0
 40 39  1  0
 41 40  1  0
 43 44  1  0
 44 47  1  0
 44 46  1  0
 45 43  2  0
 48 49  1  0
 48 23  1  0
 50 48  1  0
 52 54  1  0
 52 51  1  0
 53 64  2  0
 54 59  1  0
 55 63  1  0
 55 65  1  0
 56 62  1  0
 56 58  1  0
 57 63  1  0
 58 59  2  0
 58 57  1  0
 60 61  1  0
 60 54  2  0
 61 56  2  0
 62 55  1  0
 63 53  1  0
 65 67  2  0
 66 65  1  0
 68 66  1  0
 69 78  2  0
 69 74  1  0
 70 66  1  0
 70 74  1  0
 71 70  1  0
 72 73  1  0
 72 71  1  0
 73 69  1  0
 74 75  2  0
 75 76  1  0
 77 76  2  0
 78 77  1  0
 79 53  1  0
 79 80  1  0
 79 89  1  0
 80 83  1  0
 81 85  1  0
 81 80  1  0
 82 81  2  0
 85 84  1  0
 87 85  1  0
 87 88  1  0
 87 86  1  0
 89 92  1  1
 89 90  1  0
 91 89  1  0
M  ISO  4  13 100  21 100  51 101  52 101
M  END
>  <TORSDO>  (52) 
F 21

>  <SCORE>  (52) 
-13.362

>  <name>  (52) 
53

>  <ligand_id>  (52) 
53

>  <original_smiles>  (52) 
[H]N=C1C([H])=C(C([H])([H])C([H])([H])C([H])([H])C([H])([H])N([H])C(=O)N2C([H])([H])C([H])([H])C([H])([H])C([H])(n3nc(-c4c([H])c([H])c(Oc5c([H])c([H])c(F)c([H])c5F)c([H])c4[H])c(C(=O)N([H])[H])c3N([H])[H])C2([H])[H])C([H])([H])C([H])(C([H])([H])Oc2c([H])c([H])c3c(c2[H])C([H])([H])N(C(=O)C([H])(N([H])C(=O)C([H])(N([H])C([H])([H])[H])C([H])([H])[H])C(C([H])([H])[H])(C([H])([H])[H])C([H])([H])[H])C([H])(C(=O)N([H])C2([H])c4c([H])c([H])c([H])c([H])c4C([H])([H])C([H])([H])C2([H])[H])C3([H])[H])C1([H])[H]

>  <smiles>  (52) 
[H]N=C1C([H])=C(C([H])([H])C([H])([H])C([H])([H])C([H])([H])N([H])C(=O)N2C([H])([H])C([H])([H])C([H])([H])C([H])(n3nc(-c4c([H])c([H])c(Oc5c([H])c([H])c(F)c([H])c5F)c([H])c4[H])c(C(=O)N([H])[H])c3N([H])[H])C2([H])[H])C([H])([H])C([H])(C([H])([H])Oc2c([H])c([H])c3c(c2[H])C([H])([H])N(C(=O)C([H])(N([H])C(=O)C([H])(N([H])C([H])([H])[H])C([H])([H])[H])C(C([H])([H])[H])(C([H])([H])[H])C([H])([H])[H])C([H])(C(=O)N([H])C2([H])c4c([H])c([H])c([H])c([H])c4C([H])([H])C([H])([H])C2([H])[H])C3([H])[H])C1([H])[H]

$$$$
54:0:0
     RDKit          3D

 94103  0  0  1  0  0  0  0  0999 V2000
  -26.4610  -21.4780   20.3190 C   0  0  0  0  0  2  0  0  0  0  0  0
  -27.0220  -21.2060   18.8980 C   0  0  0  0  0  2  0  0  0  0  0  0
  -28.5920  -20.7410   21.4200 C   0  0  0  0  0  2  0  0  0  0  0  0
  -28.9400  -20.0950   20.0550 C   0  0  0  0  0  3  0  0  0  0  0  0
  -27.7320  -21.9780   21.0620 C   0  0  0  0  0  3  0  0  0  0  0  0
  -28.5400  -21.4140   19.1450 C   0  0  0  0  0  3  0  0  0  0  0  0
  -28.4940  -22.6870   20.0080 N   0  0  1  0  0  4  0  0  0  0  0  0
  -29.4200  -22.8940   20.3630 H   0  0  0  0  0  0  0  0  0  0  0  0
  -30.3260  -19.2380   20.1690 C   0  0  0  0  0  2  0  0  0  0  0  0
  -31.0960  -15.2440   19.7860 C   0  0  0  0  0  0  0  0  0  0  0  0
  -30.8570  -12.8880   18.9800 C   0  0  0  0  0  2  0  0  0  0  0  0
  -29.8840  -12.8630   17.7810 C   0  0  0  0  0  2  0  0  0  0  0  0
  -28.4280  -12.7290   18.2640 C   0  0  0  0  0  2  0  0  0  0  0  0
  -28.0970  -13.7010   19.4260 C   0  0  0  0  0  3  0  0  0  0  0  0
  -29.1870  -13.6980   20.5220 C   0  0  0  0  0  2  0  0  0  0  0  0
  -30.4650  -14.0150   19.8700 N   0  0  0  0  0  0  0  0  0  0  0  0
  -32.2330  -15.3030   19.2950 O   0  0  0  0  0  0  0  0  0  0  0  0
  -30.6000  -17.8200   19.4840 C   0  0  0  0  0  0  0  0  0  0  0  0
  -30.3810  -16.5510   20.0750 N   0  0  0  0  0  0  0  0  0  0  0  0
  -31.1760  -17.9220   18.2630 N   0  0  0  0  0  4  0  0  0  0  0  0
  -29.6020  -16.5580   20.7130 H   0  0  0  0  0  0  0  0  0  0  0  0
  -31.3510  -18.8210   17.8370 H   0  0  0  0  0  0  0  0  0  0  0  0
  -31.5270  -17.1190   17.7560 H   0  0  0  0  0  0  0  0  0  0  0  0
  -25.7900  -14.3790   20.3180 C   0  0  0  0  0  0  0  0  0  0  0  0
  -24.7060  -13.6450   20.7190 C   0  0  0  0  0  0  0  0  0  0  0  0
  -25.0920  -12.2750   20.5990 C   0  0  0  0  0  0  0  0  0  0  0  0
  -26.7680  -13.4580   19.9790 N   0  0  0  0  0  0  0  0  0  0  0  0
  -26.3580  -12.1850   20.2110 N   0  0  0  0  0  0  0  0  0  0  0  0
  -24.3070  -11.0460   20.7710 C   0  0  0  0  0  0  0  0  0  0  0  0
  -24.6960  -10.0480   21.6910 C   0  0  0  0  0  3  0  0  0  0  0  0
  -23.9180   -8.8820   21.8570 C   0  0  0  0  0  3  0  0  0  0  0  0
  -22.7350   -8.7080   21.1010 C   0  0  0  0  0  0  0  0  0  0  0  0
  -22.3650   -9.6910   20.1660 C   0  0  0  0  0  3  0  0  0  0  0  0
  -23.1440  -10.8490   19.9990 C   0  0  0  0  0  3  0  0  0  0  0  0
  -21.9310   -7.5960   21.1740 O   0  0  0  0  0  0  0  0  0  0  0  0
  -21.7900   -6.8850   22.3390 C   0  0  0  0  0  0  0  0  0  0  0  0
  -21.3080   -7.4820   23.5240 C   0  0  0  0  0  3  0  0  0  0  0  0
  -21.1130   -6.6970   24.6790 C   0  0  0  0  0  3  0  0  0  0  0  0
  -21.3900   -5.3180   24.6480 C   0  0  0  0  0  0  0  0  0  0  0  0
  -21.8680   -4.7210   23.4670 C   0  0  0  0  0  3  0  0  0  0  0  0
  -22.0620   -5.5020   22.3150 C   0  0  0  0  0  0  0  0  0  0  0  0
  -22.4980   -4.9180   21.1740 F   0  0  0  0  0  0  0  0  0  0  0  0
  -21.1990   -4.5630   25.7540 F   0  0  0  0  0  0  0  0  0  0  0  0
  -23.3560  -14.1820   21.0950 C   0  0  0  0  0  0  0  0  0  0  0  0
  -22.6440  -13.4930   21.9810 N   0  0  0  0  0  0  0  0  0  0  0  0
  -22.9420  -15.2460   20.6370 O   0  0  0  0  0  0  0  0  0  0  0  0
  -22.9910  -12.6290   22.3700 H   0  0  0  0  0  0  0  0  0  0  0  0
  -21.7370  -13.8350   22.2700 H   0  0  0  0  0  0  0  0  0  0  0  0
  -26.0250  -15.7440   20.1880 N   0  0  0  0  0  0  0  0  0  0  0  0
  -25.3070  -16.4350   20.3730 H   0  0  0  0  0  0  0  0  0  0  0  0
  -26.8430  -16.1410   19.7450 H   0  0  0  0  0  0  0  0  0  0  0  0
  -27.7650  -24.0380   19.6510 C   0  0  0  0  0  2  0  0  0  0  0  0
  -28.4570  -25.3260   18.9680 C   0  0  0  0  0  2  0  0  0  0  0  0
  -28.3590  -26.7440   19.4870 O   0  0  0  0  0  0  0  0  0  0  0  0
  -24.6890  -31.7480   23.1980 C   0  0  0  0  0  0  0  0  0  0  0  0
  -27.2190  -27.5790   19.5220 C   0  0  0  0  0  0  0  0  0  0  0  0
  -23.4360  -30.5280   21.4530 C   0  0  0  0  0  3  0  0  0  0  0  0
  -24.8400  -29.1770   19.7850 C   0  0  0  0  0  0  0  0  0  0  0  0
  -25.9600  -30.9020   21.2050 C   0  0  0  0  0  2  0  0  0  0  0  0
  -26.0270  -29.6070   20.3950 C   0  0  0  0  0  0  0  0  0  0  0  0
  -27.2110  -28.8170   20.2550 C   0  0  0  0  0  3  0  0  0  0  0  0
  -26.0130  -27.2190   18.8900 C   0  0  0  0  0  3  0  0  0  0  0  0
  -24.8410  -27.9980   19.0230 C   0  0  0  0  0  3  0  0  0  0  0  0
  -23.5930  -30.0170   19.9950 C   0  0  0  0  0  2  0  0  0  0  0  0
  -24.7170  -31.0740   22.0100 N   0  0  0  0  0  0  0  0  0  0  0  0
  -23.6280  -31.9410   23.8080 O   0  0  0  0  0  0  0  0  0  0  0  0
  -22.8260  -29.3990   22.3190 C   0  0  0  0  0  0  0  0  0  0  0  0
  -21.5020  -29.1920   22.2060 N   0  0  0  0  0  0  0  0  0  0  0  0
  -23.5430  -28.7160   23.0540 O   0  0  0  0  0  0  0  0  0  0  0  0
  -20.9810  -29.8010   21.5900 H   0  0  0  0  0  0  0  0  0  0  0  0
  -18.1930  -27.7840   22.5730 C   0  0  0  0  0  0  0  0  0  0  0  0
  -20.7330  -28.1480   22.8840 C   0  0  0  0  0  3  0  0  0  0  0  0
  -20.9130  -26.7780   22.1850 C   0  0  0  0  0  2  0  0  0  0  0  0
  -19.8300  -26.4900   21.1410 C   0  0  0  0  0  2  0  0  0  0  0  0
  -18.4410  -26.5120   21.7860 C   0  0  0  0  0  2  0  0  0  0  0  0
  -19.2690  -28.5610   23.0770 C   0  0  0  0  0  0  0  0  0  0  0  0
  -18.9830  -29.7580   23.7710 C   0  0  0  0  0  3  0  0  0  0  0  0
  -17.6530  -30.1730   23.9730 C   0  0  0  0  0  3  0  0  0  0  0  0
  -16.5920  -29.3880   23.4890 C   0  0  0  0  0  3  0  0  0  0  0  0
  -16.8630  -28.1970   22.7930 C   0  0  0  0  0  3  0  0  0  0  0  0
  -25.9890  -32.3290   23.8380 C   0  0  0  0  0  3  0  0  0  0  0  0
  -26.5480  -31.4440   25.0180 C   0  0  1  0  0  0  0  0  0  0  0  0
  -25.4920  -31.1050   26.0940 C   0  0  0  0  0  1  0  0  0  0  0  0
  -27.1100  -30.1100   24.4800 C   0  0  0  0  0  1  0  0  0  0  0  0
  -27.7300  -32.1700   25.7050 C   0  0  0  0  0  1  0  0  0  0  0  0
  -25.6880  -33.6900   24.3140 N   0  0  0  0  0  0  0  0  0  0  0  0
  -26.0250  -34.8130   23.6670 C   0  0  0  0  0  0  0  0  0  0  0  0
  -26.6890  -34.8120   22.6270 O   0  0  0  0  0  0  0  0  0  0  0  0
  -25.0990  -33.7680   25.1310 H   0  0  0  0  0  0  0  0  0  0  0  0
  -24.3010  -36.6390   23.5190 C   0  0  0  0  0  1  0  0  0  0  0  0
  -25.5480  -36.1500   24.2700 C   0  0  0  0  0  3  0  0  0  0  0  0
  -27.6930  -36.9330   25.1760 C   0  0  0  0  0  1  0  0  0  0  0  0
  -26.5860  -37.2040   24.2610 N   0  0  0  0  0  0  0  0  0  0  0  0
  -26.1840  -38.1050   24.5080 H   0  0  0  0  0  0  0  0  0  0  0  0
  2  1  1  0
  4  9  1  0
  4  3  1  0
  5  1  1  0
  5  3  1  0
  6  2  1  0
  6  7  1  0
  6  4  1  0
  7  8  1  1
  7  5  1  0
 10 16  1  0
 10 19  1  0
 11 16  1  0
 12 13  1  0
 12 11  1  0
 14 13  1  0
 14 27  1  0
 14 15  1  0
 16 15  1  0
 17 10  2  0
 18 19  1  0
 18  9  1  0
 19 21  1  0
 20 18  2  0
 22 20  1  0
 23 20  1  0
 24 25  2  0
 25 44  1  0
 26 25  1  0
 26 29  1  0
 27 28  1  0
 27 24  1  0
 28 26  2  0
 29 30  1  0
 30 31  2  0
 32 35  1  0
 32 31  1  0
 33 32  2  0
 34 33  1  0
 34 29  2  0
 35 36  1  0
 36 37  1  0
 37 38  2  0
 39 38  1  0
 39 43  1  0
 40 39  2  0
 41 36  2  0
 41 40  1  0
 42 41  1  0
 44 45  1  0
 45 48  1  0
 45 47  1  0
 46 44  2  0
 49 24  1  0
 49 50  1  0
 51 49  1  0
 52  7  1  0
 53 54  1  0
 53 52  1  0
 54 56  1  0
 55 66  2  0
 56 61  1  0
 57 65  1  0
 57 67  1  0
 58 64  1  0
 58 60  1  0
 59 65  1  0
 60 59  1  0
 61 60  2  0
 62 63  1  0
 62 56  2  0
 63 58  2  0
 64 57  1  0
 65 55  1  0
 67 69  2  0
 68 67  1  0
 70 68  1  0
 71 80  2  0
 71 76  1  0
 72 68  1  0
 72 76  1  0
 73 72  1  0
 74 75  1  0
 74 73  1  0
 75 71  1  0
 76 77  2  0
 77 78  1  0
 79 78  2  0
 80 79  1  0
 81 55  1  0
 81 86  1  0
 81 82  1  0
 82 85  1  1
 82 83  1  0
 84 82  1  0
 86 89  1  0
 87 91  1  0
 87 86  1  0
 88 87  2  0
 91 90  1  0
 93 91  1  0
 93 94  1  0
 93 92  1  0
M  ISO  4  10 100  19 100  53 101  54 101
M  END
>  <TORSDO>  (53) 
F 19

>  <SCORE>  (53) 
-11.598

>  <name>  (53) 
54

>  <ligand_id>  (53) 
54

>  <original_smiles>  (53) 
[H]c1c([H])c([H])c2c(c1[H])C([H])([H])C([H])([H])C([H])([H])C2([H])N([H])C(=O)C1([H])N(C(=O)C([H])(N([H])C(=O)C([H])(N([H])C([H])([H])[H])C([H])([H])[H])C(C([H])([H])[H])(C([H])([H])[H])C([H])([H])[H])C([H])([H])c2c([H])c(OC([H])([H])C([H])([H])[N+]3([H])C4([H])C([H])([H])C([H])([H])C3([H])C([H])(C([H])([H])C(N([H])C(=O)N3C([H])([H])C([H])([H])C([H])([H])C([H])(n5nc(-c6c([H])c([H])c(Oc7c([H])c([H])c(F)c([H])c7F)c([H])c6[H])c(C(=O)N([H])[H])c5N([H])[H])C3([H])[H])=[N+]([H])[H])C4([H])[H])c([H])c([H])c2C1([H])[H]

>  <smiles>  (53) 
[H]c1c([H])c([H])c2c(c1[H])C([H])([H])C([H])([H])C([H])([H])C2([H])N([H])C(=O)C1([H])N(C(=O)C([H])(N([H])C(=O)C([H])(N([H])C([H])([H])[H])C([H])([H])[H])C(C([H])([H])[H])(C([H])([H])[H])C([H])([H])[H])C([H])([H])c2c([H])c(OC([H])([H])C([H])([H])[N+]3([H])C4([H])C([H])([H])C([H])([H])C3([H])C([H])(C([H])([H])C(N([H])C(=O)N3C([H])([H])C([H])([H])C([H])([H])C([H])(n5nc(-c6c([H])c([H])c(Oc7c([H])c([H])c(F)c([H])c7F)c([H])c6[H])c(C(=O)N([H])[H])c5N([H])[H])C3([H])[H])=[N+]([H])[H])C4([H])[H])c([H])c([H])c2C1([H])[H]

$$$$
55:0:0
     RDKit          3D

 97106  0  0  1  0  0  0  0  0999 V2000
  -29.4320  -19.8580   21.2410 C   0  0  0  0  0  3  0  0  0  0  0  0
  -29.1470  -21.2780   21.2660 C   0  0  0  0  0  3  0  0  0  0  0  0
  -29.1270  -21.2950   18.9080 C   0  0  0  0  0  3  0  0  0  0  0  0
  -29.6830  -19.0850   20.0550 C   0  0  0  0  0  0  0  0  0  0  0  0
  -29.0270  -22.0930   20.0980 C   0  0  0  0  0  0  0  0  0  0  0  0
  -29.4310  -19.8680   18.8700 C   0  0  0  0  0  0  0  0  0  0  0  0
  -30.4580  -15.0030   19.6870 C   0  0  0  0  0  0  0  0  0  0  0  0
  -30.0880  -12.7530   18.5880 C   0  0  0  0  0  2  0  0  0  0  0  0
  -29.0010  -12.8120   17.4920 C   0  0  0  0  0  2  0  0  0  0  0  0
  -27.6110  -12.5640   18.1030 C   0  0  0  0  0  2  0  0  0  0  0  0
  -27.3770  -13.4130   19.3770 C   0  0  0  0  0  3  0  0  0  0  0  0
  -28.5710  -13.3370   20.3470 C   0  0  0  0  0  2  0  0  0  0  0  0
  -29.7730  -13.7880   19.6220 N   0  0  0  0  0  0  0  0  0  0  0  0
  -31.5170  -15.0640   19.0580 O   0  0  0  0  0  0  0  0  0  0  0  0
  -31.0210  -16.8440   22.2940 C   0  0  0  0  0  2  0  0  0  0  0  0
  -29.7560  -16.1930   21.7180 C   0  0  0  0  0  2  0  0  0  0  0  0
  -30.5000  -17.6480   20.0670 C   0  0  0  0  0  3  0  0  0  0  0  0
  -31.5760  -17.7560   21.1920 C   0  0  0  0  0  3  0  0  0  0  0  0
  -29.9330  -16.1960   20.2670 N   0  0  0  0  0  0  0  0  0  0  0  0
  -25.1400  -13.9300   20.5130 C   0  0  0  0  0  0  0  0  0  0  0  0
  -24.1290  -13.1260   20.9660 C   0  0  0  0  0  0  0  0  0  0  0  0
  -24.5610  -11.7830   20.7400 C   0  0  0  0  0  0  0  0  0  0  0  0
  -26.1190  -13.0750   20.0380 N   0  0  0  0  0  0  0  0  0  0  0  0
  -25.7920  -11.7720   20.2400 N   0  0  0  0  0  0  0  0  0  0  0  0
  -23.8490  -10.5110   20.9220 C   0  0  0  0  0  0  0  0  0  0  0  0
  -24.3550   -9.4910   21.7580 C   0  0  0  0  0  3  0  0  0  0  0  0
  -23.6400   -8.2860   21.9290 C   0  0  0  0  0  3  0  0  0  0  0  0
  -22.4060   -8.0910   21.2670 C   0  0  0  0  0  0  0  0  0  0  0  0
  -21.9190   -9.0990   20.4170 C   0  0  0  0  0  3  0  0  0  0  0  0
  -22.6330  -10.2970   20.2420 C   0  0  0  0  0  3  0  0  0  0  0  0
  -21.6570   -6.9420   21.3530 O   0  0  0  0  0  0  0  0  0  0  0  0
  -21.6520   -6.1690   22.4860 C   0  0  0  0  0  0  0  0  0  0  0  0
  -21.2700   -6.6900   23.7420 C   0  0  0  0  0  3  0  0  0  0  0  0
  -21.2140   -5.8440   24.8660 C   0  0  0  0  0  3  0  0  0  0  0  0
  -21.5280   -4.4780   24.7380 C   0  0  0  0  0  0  0  0  0  0  0  0
  -21.9040   -3.9570   23.4870 C   0  0  0  0  0  3  0  0  0  0  0  0
  -21.9640   -4.8000   22.3630 C   0  0  0  0  0  0  0  0  0  0  0  0
  -22.3050   -4.2890   21.1570 F   0  0  0  0  0  0  0  0  0  0  0  0
  -21.4670   -3.6620   25.8170 F   0  0  0  0  0  0  0  0  0  0  0  0
  -22.7960  -13.5810   21.4810 C   0  0  0  0  0  0  0  0  0  0  0  0
  -22.2000  -12.8230   22.3950 N   0  0  0  0  0  0  0  0  0  0  0  0
  -22.2950  -14.6420   21.1090 O   0  0  0  0  0  0  0  0  0  0  0  0
  -22.6210  -11.9640   22.7150 H   0  0  0  0  0  0  0  0  0  0  0  0
  -21.3100  -13.1080   22.7790 H   0  0  0  0  0  0  0  0  0  0  0  0
  -25.3030  -15.3100   20.4440 N   0  0  0  0  0  0  0  0  0  0  0  0
  -24.5760  -15.9570   20.7290 H   0  0  0  0  0  0  0  0  0  0  0  0
  -26.1150  -15.7750   20.0590 H   0  0  0  0  0  0  0  0  0  0  0  0
  -33.0390  -17.4140   20.7980 C   0  0  0  0  0  2  0  0  0  0  0  0
  -33.7090  -18.4970   20.0550 N   0  0  0  0  0  4  0  0  0  0  0  0
  -33.2420  -18.7070   19.1910 H   0  0  0  0  0  0  0  0  0  0  0  0
  -34.6510  -18.2260   19.8380 H   0  0  0  0  0  0  0  0  0  0  0  0
  -33.7600  -19.3320   20.6140 H   0  0  0  0  0  0  0  0  0  0  0  0
  -28.5830  -18.0360   17.2780 C   0  0  0  0  0  1  0  0  0  0  0  0
  -29.5570  -19.2060   17.4970 C   0  0  0  0  0  2  0  0  0  0  0  0
  -29.0850  -23.7360   20.1180 C   0  0  0  0  0  3  0  0  0  0  0  0
  -27.8480  -24.8420   20.1200 C   0  0  0  0  0  3  0  0  0  0  0  0
  -28.0760  -26.3700   20.0990 O   0  0  0  0  0  0  0  0  0  0  0  0
  -24.5220  -31.9560   23.2710 C   0  0  0  0  0  0  0  0  0  0  0  0
  -26.9930  -27.3110   20.0960 C   0  0  0  0  0  0  0  0  0  0  0  0
  -23.2590  -30.5830   21.6590 C   0  0  0  0  0  3  0  0  0  0  0  0
  -24.6520  -29.0230   20.1700 C   0  0  0  0  0  0  0  0  0  0  0  0
  -25.8020  -30.8560   21.4000 C   0  0  0  0  0  2  0  0  0  0  0  0
  -25.8510  -29.4740   20.7330 C   0  0  0  0  0  0  0  0  0  0  0  0
  -27.0240  -28.6350   20.6770 C   0  0  0  0  0  3  0  0  0  0  0  0
  -25.7630  -26.9460   19.5030 C   0  0  0  0  0  3  0  0  0  0  0  0
  -24.6180  -27.7680   19.5410 C   0  0  0  0  0  3  0  0  0  0  0  0
  -23.4280  -29.9180   20.2670 C   0  0  0  0  0  2  0  0  0  0  0  0
  -24.5500  -31.1520   22.1650 N   0  0  0  0  0  0  0  0  0  0  0  0
  -23.4560  -32.2340   23.8420 O   0  0  0  0  0  0  0  0  0  0  0  0
  -22.6150  -29.5640   22.6320 C   0  0  0  0  0  0  0  0  0  0  0  0
  -21.2990  -29.3340   22.4950 N   0  0  0  0  0  0  0  0  0  0  0  0
  -23.3070  -28.9800   23.4730 O   0  0  0  0  0  0  0  0  0  0  0  0
  -20.7980  -29.8590   21.7920 H   0  0  0  0  0  0  0  0  0  0  0  0
  -17.9780  -27.9520   22.9340 C   0  0  0  0  0  0  0  0  0  0  0  0
  -20.5060  -28.3770   23.2710 C   0  0  0  0  0  3  0  0  0  0  0  0
  -20.7110  -26.9340   22.7570 C   0  0  0  0  0  2  0  0  0  0  0  0
  -19.6660  -26.5080   21.7210 C   0  0  0  0  0  2  0  0  0  0  0  0
  -18.2570  -26.5920   22.3140 C   0  0  0  0  0  2  0  0  0  0  0  0
  -19.0340  -28.7960   23.3680 C   0  0  0  0  0  0  0  0  0  0  0  0
  -18.7220  -30.0640   23.9040 C   0  0  0  0  0  3  0  0  0  0  0  0
  -17.3840  -30.4910   24.0110 C   0  0  0  0  0  3  0  0  0  0  0  0
  -16.3420  -29.6470   23.5910 C   0  0  0  0  0  3  0  0  0  0  0  0
  -16.6380  -28.3800   23.0570 C   0  0  0  0  0  3  0  0  0  0  0  0
  -25.8250  -32.5820   23.8600 C   0  0  0  0  0  3  0  0  0  0  0  0
  -25.5470  -33.9950   24.1600 N   0  0  0  0  0  0  0  0  0  0  0  0
  -25.8940  -35.0250   23.3750 C   0  0  0  0  0  0  0  0  0  0  0  0
  -26.5500  -34.8860   22.3410 O   0  0  0  0  0  0  0  0  0  0  0  0
  -24.9710  -34.1810   24.9670 H   0  0  0  0  0  0  0  0  0  0  0  0
  -24.2030  -36.8510   23.0010 C   0  0  0  0  0  1  0  0  0  0  0  0
  -25.4420  -36.4340   23.8090 C   0  0  0  0  0  3  0  0  0  0  0  0
  -27.6030  -37.2840   24.6020 C   0  0  0  0  0  1  0  0  0  0  0  0
  -26.4960  -37.4620   23.6670 N   0  0  0  0  0  0  0  0  0  0  0  0
  -26.1130  -38.3930   23.8070 H   0  0  0  0  0  0  0  0  0  0  0  0
  -26.3380  -31.8360   25.1530 C   0  0  1  0  0  0  0  0  0  0  0  0
  -25.2460  -31.6220   26.2280 C   0  0  0  0  0  1  0  0  0  0  0  0
  -26.9150  -30.4490   24.7920 C   0  0  0  0  0  1  0  0  0  0  0  0
  -27.4930  -32.6390   25.7990 C   0  0  0  0  0  1  0  0  0  0  0  0
  1  2  1  0
  3  5  1  0
  4  1  2  0
  5 55  1  0
  5  2  2  0
  6  3  2  0
  6  4  1  0
  7 19  1  0
  8 13  1  0
  9 10  1  0
  9  8  1  0
 11 10  1  0
 11 23  1  0
 11 12  1  0
 13  7  1  0
 13 12  1  0
 14  7  2  0
 16 15  1  0
 17  4  1  0
 17 19  1  0
 17 18  1  0
 18 48  1  0
 18 15  1  0
 19 16  1  0
 20 21  2  0
 21 40  1  0
 22 25  1  0
 22 21  1  0
 23 24  1  0
 23 20  1  0
 24 22  2  0
 25 26  1  0
 26 27  2  0
 28 31  1  0
 28 27  1  0
 29 28  2  0
 30 29  1  0
 30 25  2  0
 31 32  1  0
 32 33  1  0
 33 34  2  0
 35 34  1  0
 35 39  1  0
 36 35  2  0
 37 32  2  0
 37 36  1  0
 38 37  1  0
 40 41  1  0
 41 43  1  0
 41 44  1  0
 42 40  2  0
 45 20  1  0
 45 46  1  0
 47 45  1  0
 49 52  1  0
 49 48  1  0
 50 49  1  0
 51 49  1  0
 53 54  1  0
 54  6  1  0
 55 56  2  0
 57 56  1  0
 58 69  2  0
 59 57  1  0
 59 64  1  0
 60 68  1  0
 60 70  1  0
 61 67  1  0
 61 63  1  0
 62 68  1  0
 63 62  1  0
 64 63  2  0
 65 66  1  0
 65 59  2  0
 66 61  2  0
 67 60  1  0
 68 58  1  0
 70 72  2  0
 71 70  1  0
 73 71  1  0
 74 83  2  0
 74 79  1  0
 75 71  1  0
 75 79  1  0
 76 75  1  0
 77 78  1  0
 77 76  1  0
 78 74  1  0
 79 80  2  0
 80 81  1  0
 82 81  2  0
 83 82  1  0
 84 58  1  0
 84 85  1  0
 84 94  1  0
 85 88  1  0
 86 90  1  0
 86 85  1  0
 87 86  2  0
 90 89  1  0
 92 93  1  0
 92 90  1  0
 92 91  1  0
 94 97  1  1
 94 95  1  0
 96 94  1  0
M  ISO  4   7 100  19 100  56 101  57 101
M  END
>  <TORSDO>  (54) 
F 21

>  <SCORE>  (54) 
-11.959

>  <name>  (54) 
55

>  <ligand_id>  (54) 
55

>  <original_smiles>  (54) 
[H]c1c([H])c([H])c2c(c1[H])C([H])([H])C([H])([H])C([H])([H])C2([H])N([H])C(=O)C1([H])N(C(=O)C([H])(N([H])C(=O)C([H])(N([H])C([H])([H])[H])C([H])([H])[H])C(C([H])([H])[H])(C([H])([H])[H])C([H])([H])[H])C([H])([H])c2c([H])c(OC([H])([H])C([H])([H])c3c([H])c([H])c(C4([H])N(C(=O)N5C([H])([H])C([H])([H])C([H])([H])C([H])(n6nc(-c7c([H])c([H])c(Oc8c([H])c([H])c(F)c([H])c8F)c([H])c7[H])c(C(=O)N([H])[H])c6N([H])[H])C5([H])[H])C([H])([H])C([H])([H])C4([H])C([H])([H])[N+]([H])([H])[H])c(C([H])([H])C([H])([H])[H])c3[H])c([H])c([H])c2C1([H])[H]

>  <smiles>  (54) 
[H]c1c([H])c([H])c2c(c1[H])C([H])([H])C([H])([H])C([H])([H])C2([H])N([H])C(=O)C1([H])N(C(=O)C([H])(N([H])C(=O)C([H])(N([H])C([H])([H])[H])C([H])([H])[H])C(C([H])([H])[H])(C([H])([H])[H])C([H])([H])[H])C([H])([H])c2c([H])c(OC([H])([H])C([H])([H])c3c([H])c([H])c(C4([H])N(C(=O)N5C([H])([H])C([H])([H])C([H])([H])C([H])(n6nc(-c7c([H])c([H])c(Oc8c([H])c([H])c(F)c([H])c8F)c([H])c7[H])c(C(=O)N([H])[H])c6N([H])[H])C5([H])[H])C([H])([H])C([H])([H])C4([H])C([H])([H])[N+]([H])([H])[H])c(C([H])([H])C([H])([H])[H])c3[H])c([H])c([H])c2C1([H])[H]

$$$$
56:0:0
     RDKit          3D

 92100  0  0  1  0  0  0  0  0999 V2000
  -27.3150  -20.1260   20.7900 C   0  0  0  0  0  2  0  0  0  0  0  0
  -27.8520  -21.5590   20.9320 C   0  0  0  0  0  2  0  0  0  0  0  0
  -28.4610  -19.1050   20.7860 C   0  0  0  0  0  2  0  0  0  0  0  0
  -28.9820  -21.8950   19.9240 C   0  0  0  0  0  3  0  0  0  0  0  0
  -29.5180  -19.4520   19.7130 C   0  0  0  0  0  3  0  0  0  0  0  0
  -30.0440  -20.8320   19.9740 N   0  0  0  0  0  4  0  0  0  0  0  0
  -30.5000  -20.8480   20.8730 H   0  0  0  0  0  0  0  0  0  0  0  0
  -30.7410  -21.0500   19.2790 H   0  0  0  0  0  0  0  0  0  0  0  0
  -29.5340  -23.3400   20.1740 C   0  0  0  0  0  2  0  0  0  0  0  0
  -28.6850  -24.4990   19.5540 C   0  0  0  0  0  2  0  0  0  0  0  0
  -28.9560  -25.9000   20.1720 C   0  0  0  0  0  2  0  0  0  0  0  0
  -28.6310  -26.9900   19.2910 O   0  0  0  0  0  0  0  0  0  0  0  0
  -24.7190  -31.5790   23.1240 C   0  0  0  0  0  0  0  0  0  0  0  0
  -27.4310  -27.6380   19.4890 C   0  0  0  0  0  0  0  0  0  0  0  0
  -23.5090  -30.3210   21.3720 C   0  0  0  0  0  3  0  0  0  0  0  0
  -24.9710  -29.0220   19.7320 C   0  0  0  0  0  0  0  0  0  0  0  0
  -26.0070  -30.8220   21.1310 C   0  0  0  0  0  2  0  0  0  0  0  0
  -26.1290  -29.5350   20.3360 C   0  0  0  0  0  0  0  0  0  0  0  0
  -27.3610  -28.8490   20.2130 C   0  0  0  0  0  3  0  0  0  0  0  0
  -26.2620  -27.1380   18.8790 C   0  0  0  0  0  3  0  0  0  0  0  0
  -25.0330  -27.8230   19.0000 C   0  0  0  0  0  3  0  0  0  0  0  0
  -23.6920  -29.8090   19.9180 C   0  0  0  0  0  2  0  0  0  0  0  0
  -24.7630  -30.9140   21.9350 N   0  0  0  0  0  0  0  0  0  0  0  0
  -23.6510  -31.7400   23.7290 O   0  0  0  0  0  0  0  0  0  0  0  0
  -22.9320  -29.1720   22.2280 C   0  0  0  0  0  0  0  0  0  0  0  0
  -21.6210  -28.9150   22.0880 N   0  0  0  0  0  0  0  0  0  0  0  0
  -23.6600  -28.5120   22.9720 O   0  0  0  0  0  0  0  0  0  0  0  0
  -21.0900  -29.5010   21.4610 H   0  0  0  0  0  0  0  0  0  0  0  0
  -18.3490  -27.4220   22.4310 C   0  0  0  0  0  0  0  0  0  0  0  0
  -20.8780  -27.8550   22.7670 C   0  0  0  0  0  3  0  0  0  0  0  0
  -21.1000  -26.4900   22.0750 C   0  0  0  0  0  2  0  0  0  0  0  0
  -20.0380  -26.1710   21.0190 C   0  0  0  0  0  2  0  0  0  0  0  0
  -18.6400  -26.1520   21.6470 C   0  0  0  0  0  2  0  0  0  0  0  0
  -19.3990  -28.2300   22.9400 C   0  0  0  0  0  0  0  0  0  0  0  0
  -19.0780  -29.4160   23.6320 C   0  0  0  0  0  3  0  0  0  0  0  0
  -17.7370  -29.8020   23.8150 C   0  0  0  0  0  3  0  0  0  0  0  0
  -16.6980  -28.9900   23.3250 C   0  0  0  0  0  3  0  0  0  0  0  0
  -17.0070  -27.8020   22.6380 C   0  0  0  0  0  3  0  0  0  0  0  0
  -26.0020  -32.1930   23.7650 C   0  0  0  0  0  3  0  0  0  0  0  0
  -25.6630  -33.5450   24.2280 N   0  0  0  0  0  0  0  0  0  0  0  0
  -25.9750  -34.6680   23.5730 C   0  0  0  0  0  0  0  0  0  0  0  0
  -26.6480  -34.6760   22.5370 O   0  0  0  0  0  0  0  0  0  0  0  0
  -25.0600  -33.6100   25.0350 H   0  0  0  0  0  0  0  0  0  0  0  0
  -24.2080  -36.4450   23.3860 C   0  0  0  0  0  1  0  0  0  0  0  0
  -25.4610  -35.9980   24.1560 C   0  0  0  0  0  3  0  0  0  0  0  0
  -27.5710  -36.8500   25.0700 C   0  0  0  0  0  1  0  0  0  0  0  0
  -26.4700  -37.0790   24.1400 N   0  0  0  0  0  0  0  0  0  0  0  0
  -26.0440  -37.9740   24.3690 H   0  0  0  0  0  0  0  0  0  0  0  0
  -26.5750  -31.3240   24.9510 C   0  0  1  0  0  0  0  0  0  0  0  0
  -25.5100  -30.9280   26.0000 C   0  0  0  0  0  1  0  0  0  0  0  0
  -27.2140  -30.0210   24.4150 C   0  0  0  0  0  1  0  0  0  0  0  0
  -27.7080  -32.0980   25.6660 C   0  0  0  0  0  1  0  0  0  0  0  0
  -30.6100  -18.3370   19.6540 C   0  0  0  0  0  2  0  0  0  0  0  0
  -30.0560  -16.9540   19.1970 C   0  0  0  0  0  2  0  0  0  0  0  0
  -31.1930  -14.7910   19.7530 C   0  0  0  0  0  0  0  0  0  0  0  0
  -31.0000  -12.4790   18.9420 C   0  0  0  0  0  2  0  0  0  0  0  0
  -30.0030  -12.4900   17.7610 C   0  0  0  0  0  2  0  0  0  0  0  0
  -28.5460  -12.3790   18.2540 C   0  0  0  0  0  2  0  0  0  0  0  0
  -28.2270  -13.3650   19.4090 C   0  0  0  0  0  3  0  0  0  0  0  0
  -29.3220  -13.2860   20.5020 C   0  0  0  0  0  2  0  0  0  0  0  0
  -30.6230  -13.5610   19.8630 N   0  0  0  0  0  0  0  0  0  0  0  0
  -32.2810  -14.9920   19.2020 O   0  0  0  0  0  0  0  0  0  0  0  0
  -30.3570  -15.7990   20.0630 N   0  0  0  0  0  0  0  0  0  0  0  0
  -29.5740  -15.4800   20.6150 H   0  0  0  0  0  0  0  0  0  0  0  0
  -25.9000  -14.0560   20.2750 C   0  0  0  0  0  0  0  0  0  0  0  0
  -24.8270  -13.3160   20.6970 C   0  0  0  0  0  0  0  0  0  0  0  0
  -25.2320  -11.9490   20.6110 C   0  0  0  0  0  0  0  0  0  0  0  0
  -26.8930  -13.1390   19.9640 N   0  0  0  0  0  0  0  0  0  0  0  0
  -26.4970  -11.8670   20.2210 N   0  0  0  0  0  0  0  0  0  0  0  0
  -24.4730  -10.7110   20.8200 C   0  0  0  0  0  0  0  0  0  0  0  0
  -24.8480   -9.7750   21.8080 C   0  0  0  0  0  3  0  0  0  0  0  0
  -24.0920   -8.6000   22.0050 C   0  0  0  0  0  3  0  0  0  0  0  0
  -22.9480   -8.3500   21.2110 C   0  0  0  0  0  0  0  0  0  0  0  0
  -22.5920   -9.2760   20.2130 C   0  0  0  0  0  3  0  0  0  0  0  0
  -23.3480  -10.4420   20.0160 C   0  0  0  0  0  3  0  0  0  0  0  0
  -22.1660   -7.2240   21.3130 O   0  0  0  0  0  0  0  0  0  0  0  0
  -21.9610   -6.5980   22.5170 C   0  0  0  0  0  0  0  0  0  0  0  0
  -21.3530   -7.2590   23.6060 C   0  0  0  0  0  3  0  0  0  0  0  0
  -21.0960   -6.5590   24.8000 C   0  0  0  0  0  3  0  0  0  0  0  0
  -21.4380   -5.1980   24.9070 C   0  0  0  0  0  0  0  0  0  0  0  0
  -22.0370   -4.5360   23.8210 C   0  0  0  0  0  3  0  0  0  0  0  0
  -22.2950   -5.2340   22.6290 C   0  0  0  0  0  0  0  0  0  0  0  0
  -22.8550   -4.5860   21.5790 F   0  0  0  0  0  0  0  0  0  0  0  0
  -21.1850   -4.5220   26.0510 F   0  0  0  0  0  0  0  0  0  0  0  0
  -23.4690  -13.8380   21.0690 C   0  0  0  0  0  0  0  0  0  0  0  0
  -22.7740  -13.1520   21.9710 N   0  0  0  0  0  0  0  0  0  0  0  0
  -23.0340  -14.8860   20.5930 O   0  0  0  0  0  0  0  0  0  0  0  0
  -23.1410  -12.3030   22.3770 H   0  0  0  0  0  0  0  0  0  0  0  0
  -21.8610  -13.4800   22.2600 H   0  0  0  0  0  0  0  0  0  0  0  0
  -26.1070  -15.4220   20.1120 N   0  0  0  0  0  0  0  0  0  0  0  0
  -25.3760  -16.1030   20.2740 H   0  0  0  0  0  0  0  0  0  0  0  0
  -26.9480  -15.8280   19.7250 H   0  0  0  0  0  0  0  0  0  0  0  0
  1  2  1  0
  3  1  1  0
  4  6  1  0
  4  9  1  0
  4  2  1  0
  5 53  1  0
  5  6  1  0
  5  3  1  0
  6  7  1  0
  8  6  1  0
 10 11  1  0
 10  9  1  0
 12 14  1  0
 12 11  1  0
 13 24  2  0
 14 19  1  0
 15 23  1  0
 15 25  1  0
 16 22  1  0
 16 18  1  0
 17 23  1  0
 18 17  1  0
 19 18  2  0
 20 21  1  0
 20 14  2  0
 21 16  2  0
 22 15  1  0
 23 13  1  0
 25 27  2  0
 26 25  1  0
 28 26  1  0
 29 38  2  0
 29 34  1  0
 30 26  1  0
 30 34  1  0
 31 30  1  0
 32 33  1  0
 32 31  1  0
 33 29  1  0
 34 35  2  0
 35 36  1  0
 37 36  2  0
 38 37  1  0
 39 13  1  0
 39 40  1  0
 39 49  1  0
 40 43  1  0
 41 45  1  0
 41 40  1  0
 42 41  2  0
 45 44  1  0
 47 45  1  0
 47 48  1  0
 47 46  1  0
 49 52  1  1
 49 50  1  0
 51 49  1  0
 54 53  1  0
 54 63  1  0
 55 61  1  0
 55 63  1  0
 56 61  1  0
 57 58  1  0
 57 56  1  0
 59 58  1  0
 59 68  1  0
 59 60  1  0
 61 60  1  0
 62 55  2  0
 63 64  1  0
 65 66  2  0
 66 85  1  0
 67 66  1  0
 67 70  1  0
 68 69  1  0
 68 65  1  0
 69 67  2  0
 70 71  1  0
 71 72  2  0
 73 76  1  0
 73 72  1  0
 74 73  2  0
 75 74  1  0
 75 70  2  0
 76 77  1  0
 77 82  2  0
 77 78  1  0
 78 79  2  0
 79 80  1  0
 80 84  1  0
 81 80  2  0
 82 81  1  0
 83 82  1  0
 85 86  1  0
 86 89  1  0
 86 88  1  0
 87 85  2  0
 90 91  1  0
 90 65  1  0
 92 90  1  0
M  ISO  4  11 101  12 101  55 100  63 100
M  END
>  <TORSDO>  (55) 
F 21

>  <SCORE>  (55) 
-10.518

>  <name>  (55) 
56

>  <ligand_id>  (55) 
56

>  <original_smiles>  (55) 
[H]c1c([H])c([H])c2c(c1[H])C([H])([H])C([H])([H])C([H])([H])C2([H])N([H])C(=O)C1([H])N(C(=O)C([H])(N([H])C(=O)C([H])(N([H])C([H])([H])[H])C([H])([H])[H])C(C([H])([H])[H])(C([H])([H])[H])C([H])([H])[H])C([H])([H])c2c([H])c(OC([H])([H])C([H])([H])C([H])([H])C3([H])C([H])([H])C([H])([H])C([H])([H])C([H])(C([H])([H])C([H])([H])N([H])C(=O)N4C([H])([H])C([H])([H])C([H])([H])C([H])(n5nc(-c6c([H])c([H])c(Oc7c([H])c([H])c(F)c([H])c7F)c([H])c6[H])c(C(=O)N([H])[H])c5N([H])[H])C4([H])[H])[N+]3([H])[H])c([H])c([H])c2C1([H])[H]

>  <smiles>  (55) 
[H]c1c([H])c([H])c2c(c1[H])C([H])([H])C([H])([H])C([H])([H])C2([H])N([H])C(=O)C1([H])N(C(=O)C([H])(N([H])C(=O)C([H])(N([H])C([H])([H])[H])C([H])([H])[H])C(C([H])([H])[H])(C([H])([H])[H])C([H])([H])[H])C([H])([H])c2c([H])c(OC([H])([H])C([H])([H])C([H])([H])C3([H])C([H])([H])C([H])([H])C([H])([H])C([H])(C([H])([H])C([H])([H])N([H])C(=O)N4C([H])([H])C([H])([H])C([H])([H])C([H])(n5nc(-c6c([H])c([H])c(Oc7c([H])c([H])c(F)c([H])c7F)c([H])c6[H])c(C(=O)N([H])[H])c5N([H])[H])C4([H])[H])[N+]3([H])[H])c([H])c([H])c2C1([H])[H]

$$$$
57:0:0
     RDKit          3D

 92101  0  0  1  0  0  0  0  0999 V2000
  -27.9340  -19.9370   20.4170 C   0  0  0  0  0  3  0  0  0  0  0  0
  -28.5420  -18.6480   20.4380 C   0  0  0  0  0  3  0  0  0  0  0  0
  -30.6820  -19.7150   20.7480 C   0  0  0  0  0  3  0  0  0  0  0  0
  -30.0850  -21.0150   20.7300 C   0  0  0  0  0  0  0  0  0  0  0  0
  -28.6860  -21.1350   20.5690 C   0  0  0  0  0  0  0  0  0  0  0  0
  -29.9370  -18.5060   20.6140 C   0  0  0  0  0  0  0  0  0  0  0  0
  -30.9250  -22.2520   20.8580 C   0  0  0  0  0  0  0  0  0  0  0  0
  -27.9810  -22.5190   20.5920 C   0  0  0  0  0  2  0  0  0  0  0  0
  -30.2220  -23.6030   21.1250 C   0  0  0  0  0  2  0  0  0  0  0  0
  -28.8660  -23.8150   20.4100 C   0  0  0  0  0  3  0  0  0  0  0  0
  -32.1580  -22.2270   20.8050 O   0  0  0  0  0  0  0  0  0  0  0  0
  -30.7010  -17.1360   20.6730 C   0  0  0  0  0  2  0  0  0  0  0  0
  -30.6980  -14.6510   20.1950 C   0  0  0  0  0  0  0  0  0  0  0  0
  -30.3630  -12.4520   19.0980 C   0  0  0  0  0  2  0  0  0  0  0  0
  -29.3890  -12.6020   17.9120 C   0  0  0  0  0  2  0  0  0  0  0  0
  -27.9320  -12.4500   18.3900 C   0  0  0  0  0  2  0  0  0  0  0  0
  -27.6200  -13.3070   19.6470 C   0  0  0  0  0  3  0  0  0  0  0  0
  -28.7130  -13.1620   20.7280 C   0  0  0  0  0  2  0  0  0  0  0  0
  -30.0010  -13.4770   20.0990 N   0  0  0  0  0  0  0  0  0  0  0  0
  -31.8600  -14.7260   19.7910 O   0  0  0  0  0  0  0  0  0  0  0  0
  -30.0370  -15.7910   20.5710 N   0  0  0  0  0  0  0  0  0  0  0  0
  -29.0680  -15.7160   20.8410 H   0  0  0  0  0  0  0  0  0  0  0  0
  -25.2600  -13.9000   20.4640 C   0  0  0  0  0  0  0  0  0  0  0  0
  -24.2030  -13.1250   20.8590 C   0  0  0  0  0  0  0  0  0  0  0  0
  -24.6580  -11.7720   20.7890 C   0  0  0  0  0  0  0  0  0  0  0  0
  -26.2900  -13.0200   20.1760 N   0  0  0  0  0  0  0  0  0  0  0  0
  -25.9370  -11.7340   20.4350 N   0  0  0  0  0  0  0  0  0  0  0  0
  -23.9320  -10.5100   20.9800 C   0  0  0  0  0  0  0  0  0  0  0  0
  -24.3620   -9.5440   21.9170 C   0  0  0  0  0  3  0  0  0  0  0  0
  -23.6360   -8.3470   22.0960 C   0  0  0  0  0  3  0  0  0  0  0  0
  -22.4650   -8.1060   21.3400 C   0  0  0  0  0  0  0  0  0  0  0  0
  -22.0540   -9.0610   20.3920 C   0  0  0  0  0  3  0  0  0  0  0  0
  -22.7800  -10.2490   20.2100 C   0  0  0  0  0  3  0  0  0  0  0  0
  -21.7100   -6.9620   21.4290 O   0  0  0  0  0  0  0  0  0  0  0  0
  -21.6240   -6.2460   22.5970 C   0  0  0  0  0  0  0  0  0  0  0  0
  -21.1010   -6.8110   23.7810 C   0  0  0  0  0  3  0  0  0  0  0  0
  -20.9660   -6.0180   24.9380 C   0  0  0  0  0  3  0  0  0  0  0  0
  -21.3420   -4.6630   24.9120 C   0  0  0  0  0  0  0  0  0  0  0  0
  -21.8570   -4.0970   23.7330 C   0  0  0  0  0  3  0  0  0  0  0  0
  -21.9940   -4.8870   22.5770 C   0  0  0  0  0  0  0  0  0  0  0  0
  -22.4710   -4.3310   21.4380 F   0  0  0  0  0  0  0  0  0  0  0  0
  -21.2050   -3.8990   26.0220 F   0  0  0  0  0  0  0  0  0  0  0  0
  -22.8170  -13.6030   21.1840 C   0  0  0  0  0  0  0  0  0  0  0  0
  -22.1100  -12.8910   22.0560 N   0  0  0  0  0  0  0  0  0  0  0  0
  -22.3700  -14.6410   20.7000 O   0  0  0  0  0  0  0  0  0  0  0  0
  -22.4840  -12.0500   22.4700 H   0  0  0  0  0  0  0  0  0  0  0  0
  -21.1820  -13.1940   22.3130 H   0  0  0  0  0  0  0  0  0  0  0  0
  -25.4250  -15.2720   20.3040 N   0  0  0  0  0  0  0  0  0  0  0  0
  -24.6650  -15.9270   20.4490 H   0  0  0  0  0  0  0  0  0  0  0  0
  -26.2550  -15.7090   19.9230 H   0  0  0  0  0  0  0  0  0  0  0  0
  -28.1150  -25.1360   20.8980 C   0  0  0  0  0  2  0  0  0  0  0  0
  -28.4370  -26.4900   20.3870 O   0  0  0  0  0  0  0  0  0  0  0  0
  -24.6180  -31.8940   23.2580 C   0  0  0  0  0  0  0  0  0  0  0  0
  -27.3440  -27.3600   20.2940 C   0  0  0  0  0  0  0  0  0  0  0  0
  -23.4680  -30.4720   21.5990 C   0  0  0  0  0  3  0  0  0  0  0  0
  -24.9680  -28.9370   20.2120 C   0  0  0  0  0  0  0  0  0  0  0  0
  -26.0050  -30.8220   21.4720 C   0  0  0  0  0  2  0  0  0  0  0  0
  -26.1170  -29.4440   20.8360 C   0  0  0  0  0  0  0  0  0  0  0  0
  -27.3100  -28.6650   20.8700 C   0  0  0  0  0  3  0  0  0  0  0  0
  -26.1840  -26.9170   19.6200 C   0  0  0  0  0  3  0  0  0  0  0  0
  -25.0030  -27.6780   19.5930 C   0  0  0  0  0  3  0  0  0  0  0  0
  -23.7200  -29.7930   20.2280 C   0  0  0  0  0  2  0  0  0  0  0  0
  -24.7140  -31.0810   22.1660 N   0  0  0  0  0  0  0  0  0  0  0  0
  -23.5200  -32.1620   23.7660 O   0  0  0  0  0  0  0  0  0  0  0  0
  -22.7980  -29.4510   22.5500 C   0  0  0  0  0  0  0  0  0  0  0  0
  -21.4730  -29.2720   22.4090 N   0  0  0  0  0  0  0  0  0  0  0  0
  -23.4700  -28.8230   23.3730 O   0  0  0  0  0  0  0  0  0  0  0  0
  -20.9910  -29.8310   21.7190 H   0  0  0  0  0  0  0  0  0  0  0  0
  -18.0820  -28.1250   22.9260 C   0  0  0  0  0  0  0  0  0  0  0  0
  -20.6470  -28.3350   23.1720 C   0  0  0  0  0  3  0  0  0  0  0  0
  -20.7170  -26.9130   22.5690 C   0  0  0  0  0  2  0  0  0  0  0  0
  -19.6000  -26.6280   21.5620 C   0  0  0  0  0  2  0  0  0  0  0  0
  -18.2270  -26.7850   22.2230 C   0  0  0  0  0  2  0  0  0  0  0  0
  -19.2180  -28.8600   23.3570 C   0  0  0  0  0  0  0  0  0  0  0  0
  -19.0280  -30.1140   23.9750 C   0  0  0  0  0  3  0  0  0  0  0  0
  -17.7350  -30.6360   24.1630 C   0  0  0  0  0  3  0  0  0  0  0  0
  -16.6130  -29.8990   23.7470 C   0  0  0  0  0  3  0  0  0  0  0  0
  -16.7870  -28.6450   23.1350 C   0  0  0  0  0  3  0  0  0  0  0  0
  -25.8790  -32.5460   23.9020 C   0  0  0  0  0  3  0  0  0  0  0  0
  -25.5520  -33.9470   24.1980 N   0  0  0  0  0  0  0  0  0  0  0  0
  -25.9050  -34.9900   23.4350 C   0  0  0  0  0  0  0  0  0  0  0  0
  -26.6100  -34.8730   22.4280 O   0  0  0  0  0  0  0  0  0  0  0  0
  -24.9280  -34.1120   24.9740 H   0  0  0  0  0  0  0  0  0  0  0  0
  -24.1990  -36.7800   22.9750 C   0  0  0  0  0  1  0  0  0  0  0  0
  -25.3960  -36.3820   23.8530 C   0  0  0  0  0  3  0  0  0  0  0  0
  -27.4790  -37.2800   24.7940 C   0  0  0  0  0  1  0  0  0  0  0  0
  -26.4340  -37.4340   23.7850 N   0  0  0  0  0  0  0  0  0  0  0  0
  -26.0210  -38.3560   23.8970 H   0  0  0  0  0  0  0  0  0  0  0  0
  -26.3660  -31.8010   25.2060 C   0  0  1  0  0  0  0  0  0  0  0  0
  -25.2430  -31.5690   26.2440 C   0  0  0  0  0  1  0  0  0  0  0  0
  -26.9750  -30.4240   24.8550 C   0  0  0  0  0  1  0  0  0  0  0  0
  -27.4870  -32.6200   25.8890 C   0  0  0  0  0  1  0  0  0  0  0  0
  1  2  2  0
  1  5  1  0
  2  6  1  0
  4  3  1  0
  4  7  1  0
  5  8  1  0
  5  4  2  0
  6 12  1  0
  6  3  2  0
  7  9  1  0
 10  8  1  0
 10 51  1  0
 10  9  1  0
 11  7  2  0
 13 21  1  0
 14 19  1  0
 15 16  1  0
 15 14  1  0
 17 16  1  0
 17 26  1  0
 17 18  1  0
 19 13  1  0
 19 18  1  0
 20 13  2  0
 21 12  1  0
 21 22  1  0
 23 24  2  0
 24 43  1  0
 25 24  1  0
 25 28  1  0
 26 27  1  0
 26 23  1  0
 27 25  2  0
 28 29  1  0
 29 30  2  0
 31 34  1  0
 31 30  1  0
 32 31  2  0
 33 32  1  0
 33 28  2  0
 34 35  1  0
 35 36  1  0
 36 37  2  0
 38 37  1  0
 38 42  1  0
 39 38  2  0
 40 35  2  0
 40 39  1  0
 41 40  1  0
 43 44  1  0
 44 47  1  0
 44 46  1  0
 45 43  2  0
 48 49  1  0
 48 23  1  0
 50 48  1  0
 52 51  1  0
 53 64  2  0
 54 52  1  0
 54 59  1  0
 55 63  1  0
 55 65  1  0
 56 62  1  0
 56 58  1  0
 57 63  1  0
 58 59  2  0
 58 57  1  0
 60 54  2  0
 61 60  1  0
 61 56  2  0
 62 55  1  0
 63 53  1  0
 65 67  2  0
 66 65  1  0
 68 66  1  0
 69 78  2  0
 69 74  1  0
 70 66  1  0
 70 74  1  0
 71 70  1  0
 72 73  1  0
 72 71  1  0
 73 69  1  0
 74 75  2  0
 75 76  1  0
 77 76  2  0
 78 77  1  0
 79 53  1  0
 79 80  1  0
 79 89  1  0
 80 83  1  0
 81 85  1  0
 81 80  1  0
 82 81  2  0
 85 84  1  0
 87 85  1  0
 87 88  1  0
 87 86  1  0
 89 92  1  1
 89 90  1  0
 91 89  1  0
M  ISO  4  13 100  21 100  51 101  52 101
M  END
>  <TORSDO>  (56) 
F 18

>  <SCORE>  (56) 
-14.854

>  <name>  (56) 
57

>  <ligand_id>  (56) 
57

>  <original_smiles>  (56) 
[H]c1c([H])c([H])c2c(c1[H])C([H])([H])C([H])([H])C([H])([H])C2([H])N([H])C(=O)C1([H])N(C(=O)C([H])(N([H])C(=O)C([H])(N([H])C([H])([H])[H])C([H])([H])[H])C(C([H])([H])[H])(C([H])([H])[H])C([H])([H])[H])C([H])([H])c2c([H])c(OC([H])([H])C3([H])C([H])([H])C(=O)c4c([H])c(C([H])([H])N([H])C(=O)N5C([H])([H])C([H])([H])C([H])([H])C([H])(n6nc(-c7c([H])c([H])c(Oc8c([H])c([H])c(F)c([H])c8F)c([H])c7[H])c(C(=O)N([H])[H])c6N([H])[H])C5([H])[H])c([H])c([H])c4C3([H])[H])c([H])c([H])c2C1([H])[H]

>  <smiles>  (56) 
[H]c1c([H])c([H])c2c(c1[H])C([H])([H])C([H])([H])C([H])([H])C2([H])N([H])C(=O)C1([H])N(C(=O)C([H])(N([H])C(=O)C([H])(N([H])C([H])([H])[H])C([H])([H])[H])C(C([H])([H])[H])(C([H])([H])[H])C([H])([H])[H])C([H])([H])c2c([H])c(OC([H])([H])C3([H])C([H])([H])C(=O)c4c([H])c(C([H])([H])N([H])C(=O)N5C([H])([H])C([H])([H])C([H])([H])C([H])(n6nc(-c7c([H])c([H])c(Oc8c([H])c([H])c(F)c([H])c8F)c([H])c7[H])c(C(=O)N([H])[H])c6N([H])[H])C5([H])[H])c([H])c([H])c4C3([H])[H])c([H])c([H])c2C1([H])[H]

$$$$
58:0:0
     RDKit          3D

 93102  0  0  1  0  0  0  0  0999 V2000
  -32.1780  -23.3210   20.1290 C   0  0  0  0  0  2  0  0  0  0  0  0
  -31.3690  -24.0540   20.8910 C   0  0  0  0  0  2  0  0  0  0  0  0
  -31.5020  -22.0750   19.6280 C   0  0  0  0  0  2  0  0  0  0  0  0
  -29.9970  -23.4380   21.0270 C   0  0  0  0  0  3  0  0  0  0  0  0
  -30.2320  -21.9780   20.5110 C   0  0  0  0  0  3  0  0  0  0  0  0
  -30.4580  -21.0030   21.6990 C   0  0  0  0  0  2  0  0  0  0  0  0
  -29.1840  -18.8580   21.2230 C   0  0  0  0  0  3  0  0  0  0  0  0
  -31.6120  -18.7490   21.3050 C   0  0  0  0  0  3  0  0  0  0  0  0
  -29.1300  -17.4580   21.0650 C   0  0  0  0  0  3  0  0  0  0  0  0
  -31.5610  -17.3490   21.1350 C   0  0  0  0  0  3  0  0  0  0  0  0
  -30.4230  -19.5130   21.3660 C   0  0  0  0  0  0  0  0  0  0  0  0
  -30.3120  -16.6900   21.0270 C   0  0  0  0  0  0  0  0  0  0  0  0
  -30.8140  -14.3830   20.1900 C   0  0  0  0  0  0  0  0  0  0  0  0
  -30.4650  -12.2830   18.9400 C   0  0  0  0  0  2  0  0  0  0  0  0
  -29.4540  -12.5340   17.8020 C   0  0  0  0  0  2  0  0  0  0  0  0
  -28.0030  -12.3850   18.3010 C   0  0  0  0  0  2  0  0  0  0  0  0
  -27.7390  -13.1770   19.6090 C   0  0  0  0  0  3  0  0  0  0  0  0
  -28.8430  -12.8790   20.6490 C   0  0  0  0  0  2  0  0  0  0  0  0
  -30.1460  -13.2090   20.0370 N   0  0  0  0  0  0  0  0  0  0  0  0
  -31.8780  -14.6310   19.6120 O   0  0  0  0  0  0  0  0  0  0  0  0
  -30.1690  -15.2770   20.9580 N   0  0  0  0  0  0  0  0  0  0  0  0
  -29.3180  -14.9100   21.3560 H   0  0  0  0  0  0  0  0  0  0  0  0
  -25.3760  -13.7810   20.4440 C   0  0  0  0  0  0  0  0  0  0  0  0
  -24.3230  -13.0040   20.8470 C   0  0  0  0  0  0  0  0  0  0  0  0
  -24.7780  -11.6530   20.7690 C   0  0  0  0  0  0  0  0  0  0  0  0
  -26.4060  -12.9020   20.1450 N   0  0  0  0  0  0  0  0  0  0  0  0
  -26.0500  -11.6150   20.3960 N   0  0  0  0  0  0  0  0  0  0  0  0
  -24.0590  -10.3880   20.9730 C   0  0  0  0  0  0  0  0  0  0  0  0
  -24.4910   -9.4390   21.9250 C   0  0  0  0  0  3  0  0  0  0  0  0
  -23.7740   -8.2390   22.1140 C   0  0  0  0  0  3  0  0  0  0  0  0
  -22.6120   -7.9770   21.3510 C   0  0  0  0  0  0  0  0  0  0  0  0
  -22.2000   -8.9150   20.3870 C   0  0  0  0  0  3  0  0  0  0  0  0
  -22.9180  -10.1070   20.1960 C   0  0  0  0  0  3  0  0  0  0  0  0
  -21.8670   -6.8260   21.4470 O   0  0  0  0  0  0  0  0  0  0  0  0
  -21.7560   -6.1390   22.6290 C   0  0  0  0  0  0  0  0  0  0  0  0
  -21.2400   -6.7420   23.7980 C   0  0  0  0  0  3  0  0  0  0  0  0
  -21.0770   -5.9790   24.9710 C   0  0  0  0  0  3  0  0  0  0  0  0
  -21.4190   -4.6150   24.9770 C   0  0  0  0  0  0  0  0  0  0  0  0
  -21.9280   -4.0100   23.8140 C   0  0  0  0  0  3  0  0  0  0  0  0
  -22.0940   -4.7710   22.6430 C   0  0  0  0  0  0  0  0  0  0  0  0
  -22.5640   -4.1790   21.5200 F   0  0  0  0  0  0  0  0  0  0  0  0
  -21.2540   -3.8800   26.1020 F   0  0  0  0  0  0  0  0  0  0  0  0
  -22.9420  -13.4780   21.1980 C   0  0  0  0  0  0  0  0  0  0  0  0
  -22.2570  -12.7710   22.0900 N   0  0  0  0  0  0  0  0  0  0  0  0
  -22.4800  -14.5120   20.7160 O   0  0  0  0  0  0  0  0  0  0  0  0
  -22.6430  -11.9350   22.5010 H   0  0  0  0  0  0  0  0  0  0  0  0
  -21.3330  -13.0730   22.3660 H   0  0  0  0  0  0  0  0  0  0  0  0
  -25.5400  -15.1540   20.2910 N   0  0  0  0  0  0  0  0  0  0  0  0
  -24.7900  -15.8140   20.4680 H   0  0  0  0  0  0  0  0  0  0  0  0
  -26.3820  -15.5970   19.9480 H   0  0  0  0  0  0  0  0  0  0  0  0
  -28.9680  -24.2500   20.1970 C   0  0  0  0  0  2  0  0  0  0  0  0
  -28.5380  -25.5880   20.8450 C   0  0  0  0  0  2  0  0  0  0  0  0
  -28.3550  -26.5940   19.8470 O   0  0  0  0  0  0  0  0  0  0  0  0
  -24.5760  -31.6970   23.0870 C   0  0  0  0  0  0  0  0  0  0  0  0
  -27.1850  -27.3070   19.9290 C   0  0  0  0  0  0  0  0  0  0  0  0
  -23.3480  -30.3180   21.4400 C   0  0  0  0  0  3  0  0  0  0  0  0
  -24.7860  -28.7930   19.9870 C   0  0  0  0  0  0  0  0  0  0  0  0
  -25.8680  -30.6830   21.2150 C   0  0  0  0  0  2  0  0  0  0  0  0
  -25.9500  -29.3180   20.5660 C   0  0  0  0  0  0  0  0  0  0  0  0
  -27.1540  -28.5810   20.5360 C   0  0  0  0  0  3  0  0  0  0  0  0
  -26.0110  -26.7870   19.3480 C   0  0  0  0  0  3  0  0  0  0  0  0
  -24.8100  -27.5240   19.3780 C   0  0  0  0  0  3  0  0  0  0  0  0
  -23.5430  -29.6490   20.0520 C   0  0  0  0  0  2  0  0  0  0  0  0
  -24.6160  -30.9130   21.9730 N   0  0  0  0  0  0  0  0  0  0  0  0
  -23.5010  -31.9640   23.6450 O   0  0  0  0  0  0  0  0  0  0  0  0
  -22.7060  -29.2860   22.3950 C   0  0  0  0  0  0  0  0  0  0  0  0
  -21.3770  -29.1200   22.2890 N   0  0  0  0  0  0  0  0  0  0  0  0
  -23.3980  -28.6370   23.1830 O   0  0  0  0  0  0  0  0  0  0  0  0
  -20.8810  -29.6930   21.6220 H   0  0  0  0  0  0  0  0  0  0  0  0
  -17.9980  -27.9700   22.8380 C   0  0  0  0  0  0  0  0  0  0  0  0
  -20.5640  -28.1780   23.0580 C   0  0  0  0  0  3  0  0  0  0  0  0
  -20.6290  -26.7590   22.4460 C   0  0  0  0  0  2  0  0  0  0  0  0
  -19.5000  -26.4820   21.4480 C   0  0  0  0  0  2  0  0  0  0  0  0
  -18.1350  -26.6370   22.1240 C   0  0  0  0  0  2  0  0  0  0  0  0
  -19.1400  -28.7010   23.2600 C   0  0  0  0  0  0  0  0  0  0  0  0
  -18.9580  -29.9550   23.8850 C   0  0  0  0  0  3  0  0  0  0  0  0
  -17.6660  -30.4760   24.0920 C   0  0  0  0  0  3  0  0  0  0  0  0
  -16.5390  -29.7390   23.6890 C   0  0  0  0  0  3  0  0  0  0  0  0
  -16.7060  -28.4890   23.0660 C   0  0  0  0  0  3  0  0  0  0  0  0
  -25.8720  -32.3150   23.7000 C   0  0  0  0  0  3  0  0  0  0  0  0
  -26.4240  -31.5000   24.9340 C   0  0  1  0  0  0  0  0  0  0  0  0
  -25.3620  -31.2260   26.0220 C   0  0  0  0  0  1  0  0  0  0  0  0
  -26.9950  -30.1370   24.4760 C   0  0  0  0  0  1  0  0  0  0  0  0
  -27.5950  -32.2700   25.5910 C   0  0  0  0  0  1  0  0  0  0  0  0
  -25.5620  -33.6980   24.0880 N   0  0  0  0  0  0  0  0  0  0  0  0
  -25.8760  -34.7780   23.3590 C   0  0  0  0  0  0  0  0  0  0  0  0
  -26.5300  -34.7140   22.3130 O   0  0  0  0  0  0  0  0  0  0  0  0
  -24.9880  -33.8210   24.9070 H   0  0  0  0  0  0  0  0  0  0  0  0
  -24.1400  -36.5730   23.0830 C   0  0  0  0  0  1  0  0  0  0  0  0
  -25.3890  -36.1460   23.8720 C   0  0  0  0  0  3  0  0  0  0  0  0
  -27.5270  -37.0100   24.7140 C   0  0  0  0  0  1  0  0  0  0  0  0
  -26.4170  -37.2070   23.7860 N   0  0  0  0  0  0  0  0  0  0  0  0
  -26.0100  -38.1200   23.9670 H   0  0  0  0  0  0  0  0  0  0  0  0
  1  2  1  0
  2  4  1  0
  3  1  1  0
  3  5  1  0
  4 51  1  0
  5  4  1  0
  5  6  1  0
  7 11  1  0
  8 11  2  0
  9  7  2  0
 10  8  1  0
 11  6  1  0
 12  9  1  0
 12 10  2  0
 13 21  1  0
 14 19  1  0
 15 16  1  0
 15 14  1  0
 17 16  1  0
 17 26  1  0
 17 18  1  0
 19 13  1  0
 19 18  1  0
 20 13  2  0
 21 12  1  0
 21 22  1  0
 23 24  2  0
 24 43  1  0
 25 24  1  0
 25 28  1  0
 26 27  1  0
 26 23  1  0
 27 25  2  0
 28 29  1  0
 29 30  2  0
 31 34  1  0
 31 30  1  0
 32 31  2  0
 33 32  1  0
 33 28  2  0
 34 35  1  0
 35 40  2  0
 35 36  1  0
 36 37  2  0
 37 38  1  0
 38 42  1  0
 39 38  2  0
 40 39  1  0
 41 40  1  0
 43 44  1  0
 44 47  1  0
 44 46  1  0
 45 43  2  0
 48 23  1  0
 48 49  1  0
 50 48  1  0
 51 52  1  0
 53 55  1  0
 53 52  1  0
 54 65  2  0
 55 60  1  0
 56 64  1  0
 56 66  1  0
 57 63  1  0
 57 59  1  0
 58 64  1  0
 59 58  1  0
 60 59  2  0
 61 62  1  0
 61 55  2  0
 62 57  2  0
 63 56  1  0
 64 54  1  0
 66 68  2  0
 67 66  1  0
 69 67  1  0
 70 79  2  0
 70 75  1  0
 71 67  1  0
 71 75  1  0
 72 71  1  0
 73 74  1  0
 73 72  1  0
 74 70  1  0
 75 76  2  0
 76 77  1  0
 78 77  2  0
 79 78  1  0
 80 54  1  0
 80 85  1  0
 80 81  1  0
 81 84  1  1
 81 82  1  0
 83 81  1  0
 85 88  1  0
 86 90  1  0
 86 85  1  0
 87 86  2  0
 90 89  1  0
 92 90  1  0
 92 93  1  0
 92 91  1  0
M  ISO  4  13 100  21 100  52 101  53 101
M  END
>  <TORSDO>  (57) 
F 20

>  <SCORE>  (57) 
-13.188

>  <name>  (57) 
58

>  <ligand_id>  (57) 
58

>  <original_smiles>  (57) 
[H]C1=C([H])C([H])(C([H])([H])C([H])([H])Oc2c([H])c([H])c3c(c2[H])C([H])([H])N(C(=O)C([H])(N([H])C(=O)C([H])(N([H])C([H])([H])[H])C([H])([H])[H])C(C([H])([H])[H])(C([H])([H])[H])C([H])([H])[H])C([H])(C(=O)N([H])C2([H])c4c([H])c([H])c([H])c([H])c4C([H])([H])C([H])([H])C2([H])[H])C3([H])[H])C([H])(C([H])([H])c2c([H])c([H])c(N([H])C(=O)N3C([H])([H])C([H])([H])C([H])([H])C([H])(n4nc(-c5c([H])c([H])c(Oc6c([H])c([H])c(F)c([H])c6F)c([H])c5[H])c(C(=O)N([H])[H])c4N([H])[H])C3([H])[H])c([H])c2[H])C1([H])[H]

>  <smiles>  (57) 
[H]C1=C([H])C([H])(C([H])([H])C([H])([H])Oc2c([H])c([H])c3c(c2[H])C([H])([H])N(C(=O)C([H])(N([H])C(=O)C([H])(N([H])C([H])([H])[H])C([H])([H])[H])C(C([H])([H])[H])(C([H])([H])[H])C([H])([H])[H])C([H])(C(=O)N([H])C2([H])c4c([H])c([H])c([H])c([H])c4C([H])([H])C([H])([H])C2([H])[H])C3([H])[H])C([H])(C([H])([H])c2c([H])c([H])c(N([H])C(=O)N3C([H])([H])C([H])([H])C([H])([H])C([H])(n4nc(-c5c([H])c([H])c(Oc6c([H])c([H])c(F)c([H])c6F)c([H])c5[H])c(C(=O)N([H])[H])c4N([H])[H])C3([H])[H])c([H])c2[H])C1([H])[H]

$$$$
59:0:0
     RDKit          3D

 91100  0  0  1  0  0  0  0  0999 V2000
  -29.9900  -20.2090   22.0950 C   0  0  0  0  0  0  0  0  0  0  0  0
  -29.9830  -18.7420   21.6150 C   0  0  0  0  0  2  0  0  0  0  0  0
  -27.6730  -20.8840   21.1520 C   0  0  0  0  0  2  0  0  0  0  0  0
  -27.8210  -21.1930   19.6720 C   0  0  0  0  0  2  0  0  0  0  0  0
  -30.1710  -19.8970   19.2580 C   0  0  0  0  0  2  0  0  0  0  0  0
  -29.1480  -21.2600   21.3330 C   0  0  0  0  0  3  0  0  0  0  0  0
  -30.6250  -18.4850   20.2260 C   0  0  0  0  0  3  0  0  0  0  0  0
  -29.3570  -21.3830   19.7900 C   0  0  2  0  0  0  0  0  0  0  0  0
  -30.6500  -20.5510   23.1190 N   0  0  0  0  0  0  0  0  0  0  0  0
  -31.1430  -19.7690   23.5420 H   0  0  0  0  0  0  0  0  0  0  0  0
  -31.3950  -15.6200   20.0210 C   0  0  0  0  0  0  0  0  0  0  0  0
  -31.4380  -13.1130   19.3480 C   0  0  0  0  0  2  0  0  0  0  0  0
  -30.5210  -12.7660   18.1490 C   0  0  0  0  0  2  0  0  0  0  0  0
  -29.0740  -12.5140   18.6130 C   0  0  0  0  0  2  0  0  0  0  0  0
  -28.6020  -13.5740   19.6390 C   0  0  0  0  0  3  0  0  0  0  0  0
  -29.6440  -13.8410   20.7420 C   0  0  0  0  0  2  0  0  0  0  0  0
  -30.8600  -14.3060   20.0590 N   0  0  0  0  0  0  0  0  0  0  0  0
  -32.6250  -15.6500   19.8680 O   0  0  0  0  0  0  0  0  0  0  0  0
  -30.5640  -16.8380   19.9590 N   0  0  0  0  0  0  0  0  0  0  0  0
  -29.6000  -16.5440   19.9020 H   0  0  0  0  0  0  0  0  0  0  0  0
  -26.2780  -14.1820   20.4900 C   0  0  0  0  0  0  0  0  0  0  0  0
  -25.2040  -13.4280   20.8660 C   0  0  0  0  0  0  0  0  0  0  0  0
  -25.6230  -12.0650   20.7680 C   0  0  0  0  0  0  0  0  0  0  0  0
  -27.2810  -13.2840   20.1780 N   0  0  0  0  0  0  0  0  0  0  0  0
  -26.9020  -12.0000   20.4140 N   0  0  0  0  0  0  0  0  0  0  0  0
  -24.8590  -10.8200   20.9220 C   0  0  0  0  0  0  0  0  0  0  0  0
  -25.1590   -9.8930   21.9430 C   0  0  0  0  0  3  0  0  0  0  0  0
  -24.3960   -8.7160   22.0900 C   0  0  0  0  0  3  0  0  0  0  0  0
  -23.3170   -8.4530   21.2110 C   0  0  0  0  0  0  0  0  0  0  0  0
  -23.0370   -9.3690   20.1800 C   0  0  0  0  0  3  0  0  0  0  0  0
  -23.8010  -10.5380   20.0330 C   0  0  0  0  0  3  0  0  0  0  0  0
  -22.5380   -7.3250   21.2630 O   0  0  0  0  0  0  0  0  0  0  0  0
  -22.0950   -6.8070   22.4550 C   0  0  0  0  0  0  0  0  0  0  0  0
  -21.3220   -7.5680   23.3580 C   0  0  0  0  0  3  0  0  0  0  0  0
  -20.8320   -6.9740   24.5360 C   0  0  0  0  0  3  0  0  0  0  0  0
  -21.1050   -5.6210   24.8100 C   0  0  0  0  0  0  0  0  0  0  0  0
  -21.8710   -4.8610   23.9100 C   0  0  0  0  0  3  0  0  0  0  0  0
  -22.3620   -5.4510   22.7340 C   0  0  0  0  0  0  0  0  0  0  0  0
  -23.0820   -4.7070   21.8590 F   0  0  0  0  0  0  0  0  0  0  0  0
  -20.6240   -5.0490   25.9390 F   0  0  0  0  0  0  0  0  0  0  0  0
  -23.8310  -13.9350   21.1920 C   0  0  0  0  0  0  0  0  0  0  0  0
  -23.1150  -13.2550   22.0760 N   0  0  0  0  0  0  0  0  0  0  0  0
  -23.4040  -14.9760   20.6910 O   0  0  0  0  0  0  0  0  0  0  0  0
  -23.4750  -12.4140   22.5020 H   0  0  0  0  0  0  0  0  0  0  0  0
  -22.1950  -13.5820   22.3380 H   0  0  0  0  0  0  0  0  0  0  0  0
  -26.4750  -15.5540   20.3520 N   0  0  0  0  0  0  0  0  0  0  0  0
  -25.7010  -16.2000   20.4690 H   0  0  0  0  0  0  0  0  0  0  0  0
  -27.2540  -15.9630   19.8560 H   0  0  0  0  0  0  0  0  0  0  0  0
  -29.6840  -23.0750   19.2830 C   0  0  0  0  0  2  0  0  0  0  0  0
  -28.6360  -24.5360   19.2790 C   0  0  0  0  0  2  0  0  0  0  0  0
  -28.8800  -26.1610   19.3110 O   0  0  0  0  0  0  0  0  0  0  0  0
  -25.1230  -31.1740   23.4990 C   0  0  0  0  0  0  0  0  0  0  0  0
  -27.8510  -27.2190   19.4870 C   0  0  0  0  0  0  0  0  0  0  0  0
  -24.0080  -30.2240   21.5190 C   0  0  0  0  0  3  0  0  0  0  0  0
  -25.5290  -29.0310   19.8050 C   0  0  0  0  0  0  0  0  0  0  0  0
  -26.5720  -30.4830   21.5310 C   0  0  0  0  0  2  0  0  0  0  0  0
  -26.6840  -29.2770   20.5560 C   0  0  0  0  0  0  0  0  0  0  0  0
  -27.8410  -28.3960   20.3790 C   0  0  0  0  0  3  0  0  0  0  0  0
  -26.6690  -27.1310   18.7180 C   0  0  0  0  0  3  0  0  0  0  0  0
  -25.5470  -27.9830   18.8710 C   0  0  0  0  0  3  0  0  0  0  0  0
  -24.2970  -29.9040   20.0270 C   0  0  0  0  0  2  0  0  0  0  0  0
  -25.2520  -30.6400   22.2420 N   0  0  0  0  0  0  0  0  0  0  0  0
  -24.0120  -31.3200   24.0340 O   0  0  0  0  0  0  0  0  0  0  0  0
  -23.2940  -29.0170   22.1800 C   0  0  0  0  0  0  0  0  0  0  0  0
  -21.9870  -28.8440   21.9110 N   0  0  0  0  0  0  0  0  0  0  0  0
  -23.9260  -28.2420   22.9010 O   0  0  0  0  0  0  0  0  0  0  0  0
  -21.5290  -29.5220   21.3170 H   0  0  0  0  0  0  0  0  0  0  0  0
  -18.6190  -27.4970   21.9150 C   0  0  0  0  0  0  0  0  0  0  0  0
  -21.1530  -27.7330   22.3830 C   0  0  0  0  0  3  0  0  0  0  0  0
  -21.3300  -26.4830   21.4870 C   0  0  0  0  0  2  0  0  0  0  0  0
  -20.2900  -26.3930   20.3650 C   0  0  0  0  0  2  0  0  0  0  0  0
  -18.8730  -26.3560   20.9430 C   0  0  0  0  0  2  0  0  0  0  0  0
  -19.6900  -28.1540   22.5770 C   0  0  0  0  0  0  0  0  0  0  0  0
  -19.3980  -29.2290   23.4450 C   0  0  0  0  0  3  0  0  0  0  0  0
  -18.0700  -29.6410   23.6580 C   0  0  0  0  0  3  0  0  0  0  0  0
  -17.0140  -28.9770   23.0120 C   0  0  0  0  0  3  0  0  0  0  0  0
  -17.2890  -27.9070   22.1450 C   0  0  0  0  0  3  0  0  0  0  0  0
  -26.3620  -31.6420   24.3170 C   0  0  0  0  0  3  0  0  0  0  0  0
  -26.0850  -32.9960   24.8250 N   0  0  0  0  0  0  0  0  0  0  0  0
  -26.5200  -34.1310   24.2620 C   0  0  0  0  0  0  0  0  0  0  0  0
  -27.2560  -34.1450   23.2730 O   0  0  0  0  0  0  0  0  0  0  0  0
  -25.4410  -33.0630   25.5990 H   0  0  0  0  0  0  0  0  0  0  0  0
  -24.9060  -36.0580   24.0740 C   0  0  0  0  0  1  0  0  0  0  0  0
  -26.0630  -35.4620   24.8930 C   0  0  0  0  0  3  0  0  0  0  0  0
  -28.1570  -36.1090   26.0020 C   0  0  0  0  0  1  0  0  0  0  0  0
  -27.1470  -36.4640   25.0090 N   0  0  0  0  0  0  0  0  0  0  0  0
  -26.7710  -37.3760   25.2550 H   0  0  0  0  0  0  0  0  0  0  0  0
  -26.7140  -30.6730   25.5140 C   0  0  1  0  0  0  0  0  0  0  0  0
  -25.5170  -30.3690   26.4440 C   0  0  0  0  0  1  0  0  0  0  0  0
  -27.2530  -29.3210   24.9940 C   0  0  0  0  0  1  0  0  0  0  0  0
  -27.8380  -31.2920   26.3780 C   0  0  0  0  0  1  0  0  0  0  0  0
  1  9  2  0
  2  1  1  0
  4  8  1  0
  4  3  1  0
  5  8  1  0
  5  7  1  0
  6  3  1  0
  6  1  1  0
  7 19  1  0
  7  2  1  0
  8 49  1  1
  8  6  1  0
  9 10  1  0
 11 17  1  0
 12 17  1  0
 13 14  1  0
 13 12  1  0
 15 14  1  0
 15 24  1  0
 15 16  1  0
 17 16  1  0
 18 11  2  0
 19 11  1  0
 20 19  1  0
 21 22  2  0
 22 41  1  0
 23 22  1  0
 23 26  1  0
 24 25  1  0
 24 21  1  0
 25 23  2  0
 26 27  1  0
 27 28  2  0
 29 32  1  0
 29 28  1  0
 30 29  2  0
 31 30  1  0
 31 26  2  0
 32 33  1  0
 33 38  2  0
 33 34  1  0
 34 35  2  0
 35 36  1  0
 36 40  1  0
 37 36  2  0
 38 37  1  0
 39 38  1  0
 41 42  1  0
 42 45  1  0
 42 44  1  0
 43 41  2  0
 46 47  1  0
 46 21  1  0
 48 46  1  0
 50 49  1  0
 50 51  1  0
 51 53  1  0
 52 63  2  0
 53 58  1  0
 54 64  1  0
 54 62  1  0
 55 61  1  0
 55 57  1  0
 56 62  1  0
 57 56  1  0
 58 57  2  0
 59 60  1  0
 59 53  2  0
 60 55  2  0
 61 54  1  0
 62 52  1  0
 64 66  2  0
 65 64  1  0
 67 65  1  0
 68 77  2  0
 68 73  1  0
 69 65  1  0
 69 73  1  0
 70 69  1  0
 71 72  1  0
 71 70  1  0
 72 68  1  0
 73 74  2  0
 74 75  1  0
 76 75  2  0
 77 76  1  0
 78 52  1  0
 78 79  1  0
 78 88  1  0
 79 82  1  0
 80 79  1  0
 80 84  1  0
 81 80  2  0
 84 83  1  0
 84 86  1  0
 86 87  1  0
 86 85  1  0
 88 91  1  1
 88 89  1  0
 90 88  1  0
M  ISO  4  11 100  19 100  50 101  51 101
M  END
>  <TORSDO>  (58) 
F 18

>  <SCORE>  (58) 
-10.811

>  <name>  (58) 
59

>  <ligand_id>  (58) 
59

>  <original_smiles>  (58) 
[H]N=C1C([H])([H])C([H])(N([H])C(=O)N2C([H])([H])C([H])([H])C([H])([H])C([H])(n3nc(-c4c([H])c([H])c(Oc5c([H])c([H])c(F)c([H])c5F)c([H])c4[H])c(C(=O)N([H])[H])c3N([H])[H])C2([H])[H])C([H])([H])C2(C([H])([H])C([H])([H])Oc3c([H])c([H])c4c(c3[H])C([H])([H])N(C(=O)C([H])(N([H])C(=O)C([H])(N([H])C([H])([H])[H])C([H])([H])[H])C(C([H])([H])[H])(C([H])([H])[H])C([H])([H])[H])C([H])(C(=O)N([H])C3([H])c5c([H])c([H])c([H])c([H])c5C([H])([H])C([H])([H])C3([H])[H])C4([H])[H])C([H])([H])C([H])([H])C12[H]

>  <smiles>  (58) 
[H]N=C1C([H])([H])C([H])(N([H])C(=O)N2C([H])([H])C([H])([H])C([H])([H])C([H])(n3nc(-c4c([H])c([H])c(Oc5c([H])c([H])c(F)c([H])c5F)c([H])c4[H])c(C(=O)N([H])[H])c3N([H])[H])C2([H])[H])C([H])([H])C2(C([H])([H])C([H])([H])Oc3c([H])c([H])c4c(c3[H])C([H])([H])N(C(=O)C([H])(N([H])C(=O)C([H])(N([H])C([H])([H])[H])C([H])([H])[H])C(C([H])([H])[H])(C([H])([H])[H])C([H])([H])[H])C([H])(C(=O)N([H])C3([H])c5c([H])c([H])c([H])c([H])c5C([H])([H])C([H])([H])C3([H])[H])C4([H])[H])C([H])([H])C([H])([H])C12[H]

$$$$
60:0:0
     RDKit          3D

 92101  0  0  1  0  0  0  0  0999 V2000
  -30.7480  -22.3090   21.2840 C   0  0  0  0  0  2  0  0  0  0  0  0
  -29.9620  -21.2720   20.9660 C   0  0  0  0  0  3  0  0  0  0  0  0
  -28.7070  -22.1110   20.8080 C   0  0  0  0  0  2  0  0  0  0  0  0
  -29.5520  -23.2780   21.3690 C   0  0  0  0  0  3  0  0  0  0  0  0
  -31.2430  -19.0970   21.4330 C   0  0  0  0  0  3  0  0  0  0  0  0
  -31.2500  -17.6760   21.4620 C   0  0  0  0  0  3  0  0  0  0  0  0
  -29.0770  -19.0640   20.3460 C   0  0  0  0  0  3  0  0  0  0  0  0
  -30.1340  -19.8000   20.9030 C   0  0  0  0  0  0  0  0  0  0  0  0
  -29.0750  -17.6570   20.3850 C   0  0  0  0  0  0  0  0  0  0  0  0
  -30.1480  -16.9350   20.9620 C   0  0  0  0  0  0  0  0  0  0  0  0
  -27.8710  -16.9440   19.8390 C   0  0  0  0  0  1  0  0  0  0  0  0
  -30.6770  -14.5260   20.5190 C   0  0  0  0  0  0  0  0  0  0  0  0
  -30.3600  -12.3650   19.3510 C   0  0  0  0  0  2  0  0  0  0  0  0
  -29.4160  -12.5650   18.1480 C   0  0  0  0  0  2  0  0  0  0  0  0
  -27.9430  -12.4100   18.5770 C   0  0  0  0  0  2  0  0  0  0  0  0
  -27.6000  -13.2440   19.8390 C   0  0  0  0  0  3  0  0  0  0  0  0
  -28.6620  -13.0420   20.9470 C   0  0  0  0  0  2  0  0  0  0  0  0
  -29.9910  -13.3510   20.3830 N   0  0  0  0  0  0  0  0  0  0  0  0
  -31.7930  -14.7080   20.0260 O   0  0  0  0  0  0  0  0  0  0  0  0
  -30.0120  -15.5150   21.1480 N   0  0  0  0  0  0  0  0  0  0  0  0
  -29.1110  -15.2140   21.4870 H   0  0  0  0  0  0  0  0  0  0  0  0
  -25.1850  -13.8480   20.5300 C   0  0  0  0  0  0  0  0  0  0  0  0
  -24.1220  -13.0790   20.9090 C   0  0  0  0  0  0  0  0  0  0  0  0
  -24.5870  -11.7320   20.8760 C   0  0  0  0  0  0  0  0  0  0  0  0
  -26.2420  -12.9740   20.3130 N   0  0  0  0  0  0  0  0  0  0  0  0
  -25.8800  -11.6920   20.5740 N   0  0  0  0  0  0  0  0  0  0  0  0
  -23.8570  -10.4730   21.0570 C   0  0  0  0  0  0  0  0  0  0  0  0
  -24.2790   -9.5060   21.9930 C   0  0  0  0  0  3  0  0  0  0  0  0
  -23.5480   -8.3100   22.1620 C   0  0  0  0  0  3  0  0  0  0  0  0
  -22.3830   -8.0770   21.3940 C   0  0  0  0  0  0  0  0  0  0  0  0
  -21.9810   -9.0340   20.4460 C   0  0  0  0  0  3  0  0  0  0  0  0
  -22.7120  -10.2210   20.2750 C   0  0  0  0  0  3  0  0  0  0  0  0
  -21.6240   -6.9340   21.4720 O   0  0  0  0  0  0  0  0  0  0  0  0
  -21.5560   -6.1970   22.6270 C   0  0  0  0  0  0  0  0  0  0  0  0
  -21.1070   -6.7570   23.8430 C   0  0  0  0  0  3  0  0  0  0  0  0
  -20.9850   -5.9450   24.9880 C   0  0  0  0  0  3  0  0  0  0  0  0
  -21.3020   -4.5750   24.9190 C   0  0  0  0  0  0  0  0  0  0  0  0
  -21.7430   -4.0150   23.7070 C   0  0  0  0  0  3  0  0  0  0  0  0
  -21.8670   -4.8230   22.5630 C   0  0  0  0  0  0  0  0  0  0  0  0
  -22.2730   -4.2750   21.3930 F   0  0  0  0  0  0  0  0  0  0  0  0
  -21.1770   -3.7930   26.0160 F   0  0  0  0  0  0  0  0  0  0  0  0
  -22.7260  -13.5630   21.1780 C   0  0  0  0  0  0  0  0  0  0  0  0
  -21.9940  -12.8690   22.0430 N   0  0  0  0  0  0  0  0  0  0  0  0
  -22.2940  -14.5930   20.6610 O   0  0  0  0  0  0  0  0  0  0  0  0
  -22.3570  -12.0380   22.4850 H   0  0  0  0  0  0  0  0  0  0  0  0
  -21.0590  -13.1760   22.2680 H   0  0  0  0  0  0  0  0  0  0  0  0
  -25.3080  -15.2140   20.3300 N   0  0  0  0  0  0  0  0  0  0  0  0
  -24.5090  -15.8340   20.4050 H   0  0  0  0  0  0  0  0  0  0  0  0
  -26.1120  -15.6520   19.9060 H   0  0  0  0  0  0  0  0  0  0  0  0
  -29.6730  -24.6140   20.6060 C   0  0  0  0  0  2  0  0  0  0  0  0
  -28.3020  -25.3080   20.3920 C   0  0  0  0  0  2  0  0  0  0  0  0
  -28.4070  -26.7260   20.1760 O   0  0  0  0  0  0  0  0  0  0  0  0
  -24.5740  -31.8860   23.2580 C   0  0  0  0  0  0  0  0  0  0  0  0
  -27.2220  -27.4400   20.1750 C   0  0  0  0  0  0  0  0  0  0  0  0
  -23.3630  -30.4820   21.6210 C   0  0  0  0  0  3  0  0  0  0  0  0
  -24.8150  -28.9420   20.1950 C   0  0  0  0  0  0  0  0  0  0  0  0
  -25.8880  -30.8440   21.4130 C   0  0  0  0  0  2  0  0  0  0  0  0
  -25.9750  -29.4700   20.7740 C   0  0  0  0  0  0  0  0  0  0  0  0
  -27.1810  -28.7300   20.7550 C   0  0  0  0  0  3  0  0  0  0  0  0
  -26.0390  -26.9250   19.5940 C   0  0  0  0  0  3  0  0  0  0  0  0
  -24.8420  -27.6690   19.6010 C   0  0  0  0  0  3  0  0  0  0  0  0
  -23.5690  -29.7980   20.2430 C   0  0  0  0  0  2  0  0  0  0  0  0
  -24.6270  -31.0850   22.1560 N   0  0  0  0  0  0  0  0  0  0  0  0
  -23.4940  -32.1590   23.8010 O   0  0  0  0  0  0  0  0  0  0  0  0
  -22.7130  -29.4630   22.5850 C   0  0  0  0  0  0  0  0  0  0  0  0
  -21.3890  -29.2790   22.4590 N   0  0  0  0  0  0  0  0  0  0  0  0
  -23.3990  -28.8390   23.3990 O   0  0  0  0  0  0  0  0  0  0  0  0
  -20.8980  -29.8360   21.7740 H   0  0  0  0  0  0  0  0  0  0  0  0
  -18.0160  -28.0860   22.9630 C   0  0  0  0  0  0  0  0  0  0  0  0
  -20.5740  -28.3430   23.2330 C   0  0  0  0  0  3  0  0  0  0  0  0
  -20.6750  -26.9110   22.6570 C   0  0  0  0  0  2  0  0  0  0  0  0
  -19.5720  -26.5880   21.6440 C   0  0  0  0  0  2  0  0  0  0  0  0
  -18.1910  -26.7350   22.2900 C   0  0  0  0  0  2  0  0  0  0  0  0
  -19.1350  -28.8480   23.3920 C   0  0  0  0  0  0  0  0  0  0  0  0
  -18.9180  -30.1130   23.9800 C   0  0  0  0  0  3  0  0  0  0  0  0
  -17.6140  -30.6160   24.1470 C   0  0  0  0  0  3  0  0  0  0  0  0
  -16.5090  -29.8500   23.7340 C   0  0  0  0  0  3  0  0  0  0  0  0
  -16.7110  -28.5880   23.1490 C   0  0  0  0  0  3  0  0  0  0  0  0
  -25.8620  -32.5170   23.8730 C   0  0  0  0  0  3  0  0  0  0  0  0
  -26.3840  -31.7470   25.1480 C   0  0  1  0  0  0  0  0  0  0  0  0
  -25.2960  -31.5110   26.2210 C   0  0  0  0  0  1  0  0  0  0  0  0
  -26.9640  -30.3690   24.7520 C   0  0  0  0  0  1  0  0  0  0  0  0
  -27.5380  -32.5410   25.8040 C   0  0  0  0  0  1  0  0  0  0  0  0
  -25.5560  -33.9160   24.2000 N   0  0  0  0  0  0  0  0  0  0  0  0
  -25.8890  -34.9650   23.4360 C   0  0  0  0  0  0  0  0  0  0  0  0
  -26.5560  -34.8560   22.4030 O   0  0  0  0  0  0  0  0  0  0  0  0
  -24.9630  -34.0750   25.0020 H   0  0  0  0  0  0  0  0  0  0  0  0
  -24.1630  -36.7580   23.0770 C   0  0  0  0  0  1  0  0  0  0  0  0
  -25.4040  -36.3560   23.8890 C   0  0  0  0  0  3  0  0  0  0  0  0
  -27.5410  -37.2390   24.7140 C   0  0  0  0  0  1  0  0  0  0  0  0
  -26.4380  -37.4060   23.7710 N   0  0  0  0  0  0  0  0  0  0  0  0
  -26.0340  -38.3270   23.9170 H   0  0  0  0  0  0  0  0  0  0  0  0
  1  4  1  0
  2  8  1  0
  2  1  1  0
  3  2  1  0
  3  4  1  0
  4 50  1  0
  5  6  1  0
  7  9  2  0
  7  8  1  0
  8  5  2  0
  9 10  1  0
 10 20  1  0
 10  6  2  0
 11  9  1  0
 12 20  1  0
 13 18  1  0
 14 15  1  0
 14 13  1  0
 16 15  1  0
 16 25  1  0
 16 17  1  0
 18 12  1  0
 18 17  1  0
 19 12  2  0
 20 21  1  0
 22 23  2  0
 23 42  1  0
 24 23  1  0
 24 27  1  0
 25 22  1  0
 25 26  1  0
 26 24  2  0
 27 28  1  0
 28 29  2  0
 30 33  1  0
 30 29  1  0
 31 30  2  0
 32 31  1  0
 32 27  2  0
 33 34  1  0
 34 35  1  0
 35 36  2  0
 37 36  1  0
 37 41  1  0
 38 37  2  0
 39 34  2  0
 39 38  1  0
 40 39  1  0
 42 43  1  0
 43 46  1  0
 43 45  1  0
 44 42  2  0
 47 48  1  0
 47 22  1  0
 49 47  1  0
 51 50  1  0
 52 51  1  0
 53 64  2  0
 54 52  1  0
 54 59  1  0
 55 63  1  0
 55 65  1  0
 56 62  1  0
 56 58  1  0
 57 63  1  0
 58 57  1  0
 59 58  2  0
 60 61  1  0
 60 54  2  0
 61 56  2  0
 62 55  1  0
 63 53  1  0
 65 67  2  0
 66 65  1  0
 68 66  1  0
 69 78  2  0
 69 74  1  0
 70 66  1  0
 70 74  1  0
 71 70  1  0
 72 73  1  0
 72 71  1  0
 73 69  1  0
 74 75  2  0
 75 76  1  0
 77 76  2  0
 78 77  1  0
 79 53  1  0
 79 84  1  0
 79 80  1  0
 80 83  1  1
 80 81  1  0
 82 80  1  0
 84 87  1  0
 85 89  1  0
 85 84  1  0
 86 85  2  0
 89 88  1  0
 91 89  1  0
 91 92  1  0
 91 90  1  0
M  ISO  4  12 100  20 100  51 101  52 101
M  END
>  <TORSDO>  (59) 
F 19

>  <SCORE>  (59) 
-14.787

>  <name>  (59) 
60

>  <ligand_id>  (59) 
60

>  <original_smiles>  (59) 
[H]C1=C(c2c([H])c([H])c(N([H])C(=O)N3C([H])([H])C([H])([H])C([H])([H])C([H])(n4nc(-c5c([H])c([H])c(Oc6c([H])c([H])c(F)c([H])c6F)c([H])c5[H])c(C(=O)N([H])[H])c4N([H])[H])C3([H])[H])c(C([H])([H])[H])c2[H])C([H])([H])C1([H])C([H])([H])C([H])([H])Oc1c([H])c([H])c2c(c1[H])C([H])([H])N(C(=O)C([H])(N([H])C(=O)C([H])(N([H])C([H])([H])[H])C([H])([H])[H])C(C([H])([H])[H])(C([H])([H])[H])C([H])([H])[H])C([H])(C(=O)N([H])C1([H])c3c([H])c([H])c([H])c([H])c3C([H])([H])C([H])([H])C1([H])[H])C2([H])[H]

>  <smiles>  (59) 
[H]C1=C(c2c([H])c([H])c(N([H])C(=O)N3C([H])([H])C([H])([H])C([H])([H])C([H])(n4nc(-c5c([H])c([H])c(Oc6c([H])c([H])c(F)c([H])c6F)c([H])c5[H])c(C(=O)N([H])[H])c4N([H])[H])C3([H])[H])c(C([H])([H])[H])c2[H])C([H])([H])C1([H])C([H])([H])C([H])([H])Oc1c([H])c([H])c2c(c1[H])C([H])([H])N(C(=O)C([H])(N([H])C(=O)C([H])(N([H])C([H])([H])[H])C([H])([H])[H])C(C([H])([H])[H])(C([H])([H])[H])C([H])([H])[H])C([H])(C(=O)N([H])C1([H])c3c([H])c([H])c([H])c([H])c3C([H])([H])C([H])([H])C1([H])[H])C2([H])[H]

$$$$
61:0:0
     RDKit          3D

 95 99  0  0  1  0  0  0  0  0999 V2000
  -25.1830  -16.9360   19.9020 C   0  0  0  0  0  2  0  0  0  0  0  0
  -26.5400  -17.6310   18.4370 C   0  0  0  0  0  2  0  0  0  0  0  0
  -25.0960  -15.2040   18.9820 C   0  0  0  0  0  2  0  0  0  0  0  0
  -25.7320  -18.7230   19.4840 C   0  0  0  0  0  2  0  0  0  0  0  0
  -26.1750  -16.0280   18.1860 N   0  0  0  0  0  4  0  0  0  0  0  0
  -27.0430  -15.5300   18.2950 H   0  0  0  0  0  0  0  0  0  0  0  0
  -25.9440  -15.9290   17.2100 H   0  0  0  0  0  0  0  0  0  0  0  0
  -24.1000  -11.0740   21.7990 C   0  0  0  0  0  1  0  0  0  0  0  0
  -23.6450  -12.2120   20.2410 C   0  0  0  0  0  1  0  0  0  0  0  0
  -25.9680  -10.5130   21.9170 C   0  0  1  0  0  0  0  0  0  0  0  0
  -26.3540  -12.0940   19.1450 C   0  0  0  0  0  2  0  0  0  0  0  0
  -24.8880  -13.0780   19.1650 C   0  0  0  0  0  2  0  0  0  0  0  0
  -27.1150  -11.0710   20.4510 C   0  0  0  0  0  3  0  0  0  0  0  0
  -28.9100  -11.3630   20.5940 C   0  0  0  0  0  1  0  0  0  0  0  0
  -31.2400  -13.3330   21.8510 C   0  0  0  0  0  3  0  0  0  0  0  0
  -31.3100  -11.3850   20.0470 C   0  0  0  0  0  1  0  0  0  0  0  0
  -30.2720  -12.3050   18.6980 C   0  0  0  0  0  2  0  0  0  0  0  0
  -28.8140  -13.4300   19.2360 C   0  0  0  0  0  1  0  0  0  0  0  0
  -28.2210  -13.6830   21.1190 C   0  0  0  0  0  2  0  0  0  0  0  0
  -29.1510  -12.7240   22.5500 C   0  0  0  0  0  2  0  0  0  0  0  0
  -30.7550  -12.1520   21.7320 N   0  0  0  0  0  0  0  0  0  0  0  0
  -32.2600  -13.9860   21.5640 O   0  0  0  0  0  1  0  0  0  0  0  0
  -30.4120  -13.0910   20.8910 N   0  0  0  0  0  0  0  0  0  0  0  0
  -30.5170  -13.6880   20.0890 H   0  0  0  0  0  0  0  0  0  0  0  0
  -25.8880  -14.3570   21.8640 C   0  0  0  0  0  3  0  0  0  0  0  0
  -24.8600  -13.5420   22.1180 C   0  0  0  0  0  3  0  0  0  0  0  0
  -25.6750  -12.4250   21.7570 C   0  0  2  0  0  0  0  0  0  0  0  0
  -26.9060  -13.5890   21.4660 N   0  0  1  0  0  4  0  0  0  0  0  0
  -26.6770  -12.8440   22.4470 N   0  0  0  0  0  2  0  0  0  0  0  0
  -25.2390   -9.8740   20.6030 C   0  0  0  0  0  3  0  0  0  0  0  0
  -25.4220   -8.5330   21.3550 C   0  0  0  0  0  2  0  0  0  0  0  0
  -24.4740   -7.7660   22.1510 C   0  0  0  0  0  2  0  0  0  0  0  0
  -23.1950   -7.6260   21.6200 C   0  0  0  0  0  0  0  0  0  0  0  0
  -22.9920   -8.4420   20.4890 C   0  0  0  0  0  3  0  0  0  0  0  0
  -23.9930   -9.3470   19.9640 C   0  0  0  0  0  2  0  0  0  0  0  0
  -22.3250   -6.5560   21.8360 O   0  0  0  0  0  0  0  0  0  0  0  0
  -22.1830   -5.8130   22.9970 C   0  0  0  0  0  0  0  0  0  0  0  0
  -21.5140   -6.3540   24.1160 C   0  0  0  0  0  3  0  0  0  0  0  0
  -21.2010   -5.5460   25.2320 C   0  0  0  0  0  3  0  0  0  0  0  0
  -21.5490   -4.1820   25.2410 C   0  0  0  0  0  0  0  0  0  0  0  0
  -22.2090   -3.6270   24.1300 C   0  0  0  0  0  3  0  0  0  0  0  0
  -22.5160   -4.4310   23.0140 C   0  0  0  0  0  0  0  0  0  0  0  0
  -23.1070   -3.8540   21.9390 F   0  0  0  0  0  0  0  0  0  0  0  0
  -21.2440   -3.4070   26.3110 F   0  0  0  0  0  0  0  0  0  0  0  0
  -23.3500  -13.8120   22.0960 C   0  0  0  0  0  0  0  0  0  0  0  0
  -22.5640  -12.9730   22.7910 N   0  0  0  0  0  0  0  0  0  0  0  0
  -22.8570  -14.4430   21.1640 O   0  0  0  0  0  0  0  0  0  0  0  0
  -22.9750  -12.3250   23.4450 H   0  0  0  0  0  0  0  0  0  0  0  0
  -21.5590  -13.0200   22.6950 H   0  0  0  0  0  0  0  0  0  0  0  0
  -26.1430  -15.6180   22.1770 N   0  0  0  0  0  0  0  0  0  0  0  0
  -25.4970  -16.1510   22.7470 H   0  0  0  0  0  0  0  0  0  0  0  0
  -27.0970  -15.9340   22.2840 H   0  0  0  0  0  0  0  0  0  0  0  0
  -26.4020  -20.6350   20.3630 C   0  0  0  0  0 15  0  0  0  0  0  0
  -26.5200  -22.8340   20.4630 C   0  0  0  0  0 15  0  0  0  0  0  0
  -27.2920  -24.5350   21.1240 O   0  0  0  0  0  1  0  0  0  0  0  0
  -25.0270  -31.9340   23.6210 C   0  0  0  0  0  0  0  0  0  0  0  0
  -26.9510  -26.1330   21.0560 C   0  0  0  0  0  0  0  0  0  0  0  0
  -23.9020  -30.4960   22.0190 C   0  0  0  0  0  3  0  0  0  0  0  0
  -25.2740  -28.6740   20.7660 C   0  0  0  0  0  0  0  0  0  0  0  0
  -26.4830  -30.3060   22.1630 C   0  0  0  0  0  2  0  0  0  0  0  0
  -26.4210  -28.8120   21.5450 C   0  0  0  0  0  0  0  0  0  0  0  0
  -27.2770  -27.5490   21.6700 C   0  0  0  0  0  3  0  0  0  0  0  0
  -25.9300  -26.3580   20.1500 C   0  0  0  0  0  3  0  0  0  0  0  0
  -25.1110  -27.4980   20.0400 C   0  0  0  0  0  3  0  0  0  0  0  0
  -24.2020  -29.7640   20.6890 C   0  0  0  0  0  2  0  0  0  0  0  0
  -25.1750  -30.9630   22.6460 N   0  0  0  0  0  0  0  0  0  0  0  0
  -23.9050  -32.3310   23.9950 O   0  0  0  0  0  0  0  0  0  0  0  0
  -23.0710  -29.5970   22.9750 C   0  0  0  0  0  0  0  0  0  0  0  0
  -21.7480  -29.4790   22.7510 N   0  0  0  0  0  0  0  0  0  0  0  0
  -23.6290  -29.0160   23.9100 O   0  0  0  0  0  0  0  0  0  0  0  0
  -21.3460  -29.9990   21.9830 H   0  0  0  0  0  0  0  0  0  0  0  0
  -18.2810  -28.4460   23.0980 C   0  0  0  0  0  0  0  0  0  0  0  0
  -20.8280  -28.6310   23.5210 C   0  0  0  0  0  3  0  0  0  0  0  0
  -20.9030  -27.1600   23.0500 C   0  0  0  0  0  2  0  0  0  0  0  0
  -19.8610  -26.8150   21.9820 C   0  0  0  0  0  2  0  0  0  0  0  0
  -18.4460  -27.0520   22.5160 C   0  0  0  0  0  2  0  0  0  0  0  0
  -19.4010  -29.1930   23.5550 C   0  0  0  0  0  0  0  0  0  0  0  0
  -19.1900  -30.4940   24.0620 C   0  0  0  0  0  3  0  0  0  0  0  0
  -17.8960  -31.0470   24.1150 C   0  0  0  0  0  3  0  0  0  0  0  0
  -16.7930  -30.2980   23.6700 C   0  0  0  0  0  3  0  0  0  0  0  0
  -16.9850  -28.9990   23.1690 C   0  0  0  0  0  3  0  0  0  0  0  0
  -26.2430  -32.6140   24.3160 C   0  0  0  0  0  3  0  0  0  0  0  0
  -26.5440  -32.0160   25.7460 C   0  0  1  0  0  0  0  0  0  0  0  0
  -25.3020  -31.9320   26.6660 C   0  0  0  0  0  1  0  0  0  0  0  0
  -27.1390  -30.5960   25.6460 C   0  0  0  0  0  1  0  0  0  0  0  0
  -27.6080  -32.8820   26.4620 C   0  0  0  0  0  1  0  0  0  0  0  0
  -25.9560  -34.0610   24.4490 N   0  0  0  0  0  0  0  0  0  0  0  0
  -26.4290  -35.0320   23.6540 C   0  0  0  0  0  0  0  0  0  0  0  0
  -27.2090  -34.8010   22.7270 O   0  0  0  0  0  0  0  0  0  0  0  0
  -25.2760  -34.3160   25.1500 H   0  0  0  0  0  0  0  0  0  0  0  0
  -24.8560  -36.8770   22.9450 C   0  0  0  0  0  1  0  0  0  0  0  0
  -25.9730  -36.4840   23.9270 C   0  0  0  0  0  3  0  0  0  0  0  0
  -28.0510  -37.3520   24.9150 C   0  0  0  0  0  1  0  0  0  0  0  0
  -27.0660  -37.4780   23.8440 N   0  0  0  0  0  0  0  0  0  0  0  0
  -26.6950  -38.4240   23.8660 H   0  0  0  0  0  0  0  0  0  0  0  0
  2  4  1  0
  3  1  1  0
  4  1  1  0
  5  6  1  0
  5  2  1  0
  5  3  1  0
  7  5  1  0
 10  8  1  6
 11 12  1  0
 11 13  1  0
 12  9  1  0
 13 14  1  0
 13 10  1  0
 15 22  1  0
 17 18  1  0
 17 16  1  0
 19 20  1  0
 21 15  1  0
 21 20  1  0
 23 21  1  0
 23 15  1  0
 24 23  1  0
 25 26  1  0
 25 50  1  0
 26 45  1  0
 27 10  1  0
 27 26  1  0
 27 29  1  1
 28 19  1  1
 28 27  1  0
 28 25  1  0
 28 29  1  0
 30 31  1  0
 30 10  1  0
 31 32  1  0
 33 36  1  0
 33 32  1  0
 34 33  2  0
 35 34  1  0
 35 30  1  0
 36 37  1  0
 37 42  2  0
 37 38  1  0
 38 39  2  0
 39 40  1  0
 40 44  1  0
 41 40  2  0
 42 41  1  0
 43 42  1  0
 45 46  1  0
 46 48  1  0
 47 45  2  0
 49 46  1  0
 50 52  1  0
 50 51  1  0
 56 67  2  0
 57 55  1  0
 57 62  1  0
 58 66  1  0
 58 68  1  0
 59 61  1  0
 60 66  1  0
 61 62  2  0
 61 60  1  0
 63 57  2  0
 64 63  1  0
 64 59  2  0
 65 59  1  0
 65 58  1  0
 66 56  1  0
 68 70  2  0
 69 68  1  0
 71 69  1  0
 72 81  2  0
 72 77  1  0
 73 69  1  0
 73 77  1  0
 74 73  1  0
 75 76  1  0
 75 74  1  0
 76 72  1  0
 77 78  2  0
 78 79  1  0
 80 79  2  0
 81 80  1  0
 82 56  1  0
 82 87  1  0
 82 83  1  0
 83 86  1  1
 83 84  1  0
 85 83  1  0
 87 90  1  0
 88 92  1  0
 88 87  1  0
 89 88  2  0
 92 91  1  0
 94 95  1  0
 94 92  1  0
 94 93  1  0
M  ISO  4  15 100  23 100  54 101  55 101
M  END
>  <TORSDO>  (60) 
F 20

>  <SCORE>  (60) 
6.774

>  <name>  (60) 
61

>  <ligand_id>  (60) 
61

>  <original_smiles>  (60) 
[H]c1c([H])c([H])c2c(c1[H])C([H])([H])C([H])([H])C([H])([H])C2([H])N([H])C(=O)C1([H])N(C(=O)C([H])(N([H])C(=O)C([H])(N([H])C([H])([H])[H])C([H])([H])[H])C(C([H])([H])[H])(C([H])([H])[H])C([H])([H])[H])C([H])([H])c2c([H])c(OC([H])([H])C([H])([H])C3([H])C([H])([H])C([H])(c4c([H])c([H])c([H])c(C([H])([H])N([H])C(=O)N5C([H])([H])C([H])([H])C([H])([H])C([H])(n6nc(-c7c([H])c([H])c(Oc8c([H])c([H])c(F)c([H])c8F)c([H])c7[H])c(C(=O)N([H])[H])c6N([H])[H])C5([H])[H])c4[H])[N+]([H])([H])C3([H])[H])c([H])c([H])c2C1([H])[H]

>  <smiles>  (60) 
[H]c1c([H])c([H])c2c(c1[H])C([H])([H])C([H])([H])C([H])([H])C2([H])N([H])C(=O)C1([H])N(C(=O)C([H])(N([H])C(=O)C([H])(N([H])C([H])([H])[H])C([H])([H])[H])C(C([H])([H])[H])(C([H])([H])[H])C([H])([H])[H])C([H])([H])c2c([H])c(OC([H])([H])C([H])([H])C3([H])C([H])([H])C([H])(c4c([H])c([H])c([H])c(C([H])([H])N([H])C(=O)N5C([H])([H])C([H])([H])C([H])([H])C([H])(n6nc(-c7c([H])c([H])c(Oc8c([H])c([H])c(F)c([H])c8F)c([H])c7[H])c(C(=O)N([H])[H])c6N([H])[H])C5([H])[H])c4[H])[N+]([H])([H])C3([H])[H])c([H])c([H])c2C1([H])[H]

$$$$
62:0:0
     RDKit          3D

 89 97  0  0  1  0  0  0  0  0999 V2000
  -29.9460  -20.4910   19.9230 C   0  0  0  0  0  0  0  0  0  0  0  0
  -31.1500  -20.7710   19.6610 N   0  0  0  0  0  0  0  0  0  0  0  0
  -31.7320  -19.9390   19.6360 H   0  0  0  0  0  0  0  0  0  0  0  0
  -30.9280  -14.9520   19.5720 C   0  0  0  0  0  0  0  0  0  0  0  0
  -30.5920  -12.6780   18.4940 C   0  0  0  0  0  2  0  0  0  0  0  0
  -29.4630  -12.7090   17.4380 C   0  0  0  0  0  2  0  0  0  0  0  0
  -28.0940  -12.4600   18.0970 C   0  0  0  0  0  2  0  0  0  0  0  0
  -27.9010  -13.3050   19.3810 C   0  0  0  0  0  3  0  0  0  0  0  0
  -29.1290  -13.2340   20.3070 C   0  0  0  0  0  2  0  0  0  0  0  0
  -30.2910  -13.7070   19.5350 N   0  0  0  0  0  0  0  0  0  0  0  0
  -31.9910  -15.0460   18.9480 O   0  0  0  0  0  0  0  0  0  0  0  0
  -29.0800  -17.1610   22.0110 C   0  0  0  0  0  2  0  0  0  0  0  0
  -29.3690  -18.6400   21.6770 C   0  0  0  0  0  2  0  0  0  0  0  0
  -30.2240  -16.2330   21.5530 C   0  0  0  0  0  2  0  0  0  0  0  0
  -30.4850  -17.6150   19.5830 C   0  0  0  0  0  2  0  0  0  0  0  0
  -29.5620  -18.8890   20.1710 C   0  0  0  0  0  3  0  0  0  0  0  0
  -30.3050  -16.1330   20.0870 N   0  0  0  0  0  0  0  0  0  0  0  0
  -25.7680  -13.8190   20.7020 C   0  0  0  0  0  0  0  0  0  0  0  0
  -24.7440  -13.0260   21.1410 C   0  0  0  0  0  0  0  0  0  0  0  0
  -25.0880  -11.6910   20.7660 C   0  0  0  0  0  0  0  0  0  0  0  0
  -26.6700  -12.9680   20.0860 N   0  0  0  0  0  0  0  0  0  0  0  0
  -26.2820  -11.6690   20.1860 N   0  0  0  0  0  0  0  0  0  0  0  0
  -24.3200  -10.4440   20.8720 C   0  0  0  0  0  0  0  0  0  0  0  0
  -24.8030   -9.3390   21.6090 C   0  0  0  0  0  3  0  0  0  0  0  0
  -24.0360   -8.1580   21.7130 C   0  0  0  0  0  3  0  0  0  0  0  0
  -22.7730   -8.0730   21.0790 C   0  0  0  0  0  0  0  0  0  0  0  0
  -22.3080   -9.1680   20.3280 C   0  0  0  0  0  3  0  0  0  0  0  0
  -23.0760  -10.3410   20.2220 C   0  0  0  0  0  3  0  0  0  0  0  0
  -21.9720   -6.9580   21.1020 O   0  0  0  0  0  0  0  0  0  0  0  0
  -21.9490   -6.1100   22.1810 C   0  0  0  0  0  0  0  0  0  0  0  0
  -21.6240   -6.5640   23.4780 C   0  0  0  0  0  3  0  0  0  0  0  0
  -21.5440   -5.6460   24.5440 C   0  0  0  0  0  3  0  0  0  0  0  0
  -21.7810   -4.2770   24.3160 C   0  0  0  0  0  0  0  0  0  0  0  0
  -22.1000   -3.8230   23.0250 C   0  0  0  0  0  3  0  0  0  0  0  0
  -22.1800   -4.7370   21.9590 C   0  0  0  0  0  0  0  0  0  0  0  0
  -22.4670   -4.2920   20.7120 F   0  0  0  0  0  0  0  0  0  0  0  0
  -21.6970   -3.3950   25.3390 F   0  0  0  0  0  0  0  0  0  0  0  0
  -23.4700  -13.4930   21.7840 C   0  0  0  0  0  0  0  0  0  0  0  0
  -22.9040  -12.6910   22.6780 N   0  0  0  0  0  0  0  0  0  0  0  0
  -22.9970  -14.6000   21.5310 O   0  0  0  0  0  0  0  0  0  0  0  0
  -23.3030  -11.7910   22.9020 H   0  0  0  0  0  0  0  0  0  0  0  0
  -22.0580  -12.9820   23.1470 H   0  0  0  0  0  0  0  0  0  0  0  0
  -25.9990  -15.1900   20.7500 N   0  0  0  0  0  0  0  0  0  0  0  0
  -25.3310  -15.8390   21.1520 H   0  0  0  0  0  0  0  0  0  0  0  0
  -26.8050  -15.6510   20.3470 H   0  0  0  0  0  0  0  0  0  0  0  0
  -28.8790  -21.7580   20.0060 C   0  0  0  0  0  2  0  0  0  0  0  0
  -29.3040  -23.3870   19.9780 C   0  0  0  0  0  3  0  0  0  0  0  0
  -28.2160  -24.6560   19.8350 C   0  0  0  0  0  3  0  0  0  0  0  0
  -28.4740  -26.1820   19.9590 O   0  0  0  0  0  0  0  0  0  0  0  0
  -24.6500  -31.6260   23.1150 C   0  0  0  0  0  0  0  0  0  0  0  0
  -27.3900  -27.1290   19.9220 C   0  0  0  0  0  0  0  0  0  0  0  0
  -23.5120  -30.2800   21.3940 C   0  0  0  0  0  3  0  0  0  0  0  0
  -25.0190  -28.8070   19.9280 C   0  0  0  0  0  0  0  0  0  0  0  0
  -26.0600  -30.6140   21.2870 C   0  0  0  0  0  2  0  0  0  0  0  0
  -26.1770  -29.2570   20.5740 C   0  0  0  0  0  0  0  0  0  0  0  0
  -27.3650  -28.4350   20.5530 C   0  0  0  0  0  3  0  0  0  0  0  0
  -26.2000  -26.7770   19.2460 C   0  0  0  0  0  3  0  0  0  0  0  0
  -25.0410  -27.5810   19.2500 C   0  0  0  0  0  3  0  0  0  0  0  0
  -23.7700  -29.6710   19.9910 C   0  0  0  0  0  2  0  0  0  0  0  0
  -24.7590  -30.8590   21.9880 N   0  0  0  0  0  0  0  0  0  0  0  0
  -23.5500  -31.8620   23.6350 O   0  0  0  0  0  0  0  0  0  0  0  0
  -22.8400  -29.2140   22.2960 C   0  0  0  0  0  0  0  0  0  0  0  0
  -21.5190  -29.0220   22.1380 N   0  0  0  0  0  0  0  0  0  0  0  0
  -23.5110  -28.5650   23.1020 O   0  0  0  0  0  0  0  0  0  0  0  0
  -21.0330  -29.5990   21.4660 H   0  0  0  0  0  0  0  0  0  0  0  0
  -18.1460  -27.7700   22.5660 C   0  0  0  0  0  0  0  0  0  0  0  0
  -20.7030  -28.0360   22.8520 C   0  0  0  0  0  3  0  0  0  0  0  0
  -20.8160  -26.6400   22.1950 C   0  0  0  0  0  2  0  0  0  0  0  0
  -19.7170  -26.3690   21.1620 C   0  0  0  0  0  2  0  0  0  0  0  0
  -18.3330  -26.4650   21.8120 C   0  0  0  0  0  2  0  0  0  0  0  0
  -19.2580  -28.5150   23.0410 C   0  0  0  0  0  0  0  0  0  0  0  0
  -19.0280  -29.7380   23.7070 C   0  0  0  0  0  3  0  0  0  0  0  0
  -17.7190  -30.2160   23.9030 C   0  0  0  0  0  3  0  0  0  0  0  0
  -16.6220  -29.4680   23.4440 C   0  0  0  0  0  3  0  0  0  0  0  0
  -16.8360  -28.2460   22.7810 C   0  0  0  0  0  3  0  0  0  0  0  0
  -25.9030  -32.2600   23.7930 C   0  0  0  0  0  3  0  0  0  0  0  0
  -26.4120  -31.4420   25.0430 C   0  0  1  0  0  0  0  0  0  0  0  0
  -25.3020  -31.1250   26.0740 C   0  0  0  0  0  1  0  0  0  0  0  0
  -27.0410  -30.1000   24.6040 C   0  0  0  0  0  1  0  0  0  0  0  0
  -27.5250  -32.2340   25.7690 C   0  0  0  0  0  1  0  0  0  0  0  0
  -25.5510  -33.6330   24.1890 N   0  0  0  0  0  0  0  0  0  0  0  0
  -25.8690  -34.7340   23.4950 C   0  0  0  0  0  0  0  0  0  0  0  0
  -26.5570  -34.7000   22.4710 O   0  0  0  0  0  0  0  0  0  0  0  0
  -24.9400  -33.7310   24.9870 H   0  0  0  0  0  0  0  0  0  0  0  0
  -24.1140  -36.5130   23.2010 C   0  0  0  0  0  1  0  0  0  0  0  0
  -25.3430  -36.0850   24.0180 C   0  0  0  0  0  3  0  0  0  0  0  0
  -27.4350  -36.9670   24.9570 C   0  0  0  0  0  1  0  0  0  0  0  0
  -26.3570  -37.1620   23.9900 N   0  0  0  0  0  0  0  0  0  0  0  0
  -25.9280  -38.0650   24.1720 H   0  0  0  0  0  0  0  0  0  0  0  0
  1 46  1  0
  2  1  2  0
  3  2  1  0
  4 17  1  0
  5 10  1  0
  6  7  1  0
  6  5  1  0
  8  7  1  0
  8 21  1  0
  8  9  1  0
 10  4  1  0
 10  9  1  0
 11  4  2  0
 13 12  1  0
 14 12  1  0
 15 17  1  0
 15 16  1  0
 16  1  1  0
 16 13  1  0
 17 14  1  0
 18 43  1  0
 18 19  2  0
 19 38  1  0
 20 23  1  0
 20 19  1  0
 21 22  1  0
 21 18  1  0
 22 20  2  0
 23 24  1  0
 24 25  2  0
 26 29  1  0
 26 25  1  0
 27 26  2  0
 28 27  1  0
 28 23  2  0
 29 30  1  0
 30 31  1  0
 31 32  2  0
 33 32  1  0
 33 37  1  0
 34 33  2  0
 35 30  2  0
 35 34  1  0
 36 35  1  0
 38 39  1  0
 39 41  1  0
 39 42  1  0
 40 38  2  0
 43 44  1  0
 45 43  1  0
 47 46  1  0
 48 49  1  0
 48 47  2  0
 50 61  2  0
 51 49  1  0
 51 56  1  0
 52 60  1  0
 52 62  1  0
 53 59  1  0
 53 55  1  0
 54 60  1  0
 55 54  1  0
 56 55  2  0
 57 58  1  0
 57 51  2  0
 58 53  2  0
 59 52  1  0
 60 50  1  0
 62 64  2  0
 63 62  1  0
 65 63  1  0
 66 75  2  0
 66 71  1  0
 67 63  1  0
 67 71  1  0
 68 67  1  0
 69 70  1  0
 69 68  1  0
 70 66  1  0
 71 72  2  0
 72 73  1  0
 74 73  2  0
 75 74  1  0
 76 50  1  0
 76 81  1  0
 76 77  1  0
 77 80  1  1
 77 78  1  0
 79 77  1  0
 81 84  1  0
 82 86  1  0
 82 81  1  0
 83 82  2  0
 86 85  1  0
 88 86  1  0
 88 89  1  0
 88 87  1  0
M  ISO  4   4 100  17 100  48 101  49 101
M  END
>  <TORSDO>  (61) 
F 19

>  <SCORE>  (61) 
-9.638

>  <name>  (61) 
62

>  <ligand_id>  (61) 
62

>  <original_smiles>  (61) 
[H]N=C(C([H])([H])C([H])([H])C([H])([H])Oc1c([H])c([H])c2c(c1[H])C([H])([H])N(C(=O)C([H])(N([H])C(=O)C([H])(N([H])C([H])([H])[H])C([H])([H])[H])C(C([H])([H])[H])(C([H])([H])[H])C([H])([H])[H])C([H])(C(=O)N([H])C1([H])c3c([H])c([H])c([H])c([H])c3C([H])([H])C([H])([H])C1([H])[H])C2([H])[H])C1([H])C([H])([H])N(C(=O)N2C([H])([H])C([H])([H])C([H])([H])C([H])(n3nc(-c4c([H])c([H])c(Oc5c([H])c([H])c(F)c([H])c5F)c([H])c4[H])c(C(=O)N([H])[H])c3N([H])[H])C2([H])[H])C([H])([H])C([H])([H])C1([H])[H]

>  <smiles>  (61) 
[H]N=C(C([H])([H])C([H])([H])C([H])([H])Oc1c([H])c([H])c2c(c1[H])C([H])([H])N(C(=O)C([H])(N([H])C(=O)C([H])(N([H])C([H])([H])[H])C([H])([H])[H])C(C([H])([H])[H])(C([H])([H])[H])C([H])([H])[H])C([H])(C(=O)N([H])C1([H])c3c([H])c([H])c([H])c([H])c3C([H])([H])C([H])([H])C1([H])[H])C2([H])[H])C1([H])C([H])([H])N(C(=O)N2C([H])([H])C([H])([H])C([H])([H])C([H])(n3nc(-c4c([H])c([H])c(Oc5c([H])c([H])c(F)c([H])c5F)c([H])c4[H])c(C(=O)N([H])[H])c3N([H])[H])C2([H])[H])C([H])([H])C([H])([H])C1([H])[H]

$$$$
63:0:0
     RDKit          3D

 95103  0  0  1  0  0  0  0  0999 V2000
  -31.0090  -15.5120   20.5980 C   0  0  0  0  0  0  0  0  0  0  0  0
  -30.8880  -13.1490   19.5160 C   0  0  0  0  0  2  0  0  0  0  0  0
  -29.9960  -13.0790   18.2510 C   0  0  0  0  0  2  0  0  0  0  0  0
  -28.5230  -12.8360   18.6290 C   0  0  0  0  0  2  0  0  0  0  0  0
  -28.0740  -13.7070   19.8280 C   0  0  0  0  0  3  0  0  0  0  0  0
  -29.1040  -13.7440   20.9780 C   0  0  0  0  0  2  0  0  0  0  0  0
  -30.3670  -14.2480   20.4090 N   0  0  0  0  0  0  0  0  0  0  0  0
  -32.2440  -15.4230   20.5510 O   0  0  0  0  0  0  0  0  0  0  0  0
  -31.0840  -18.8010   19.3120 C   0  0  0  0  0  0  0  0  0  0  0  0
  -29.5510  -16.9520   19.3250 C   0  0  0  0  0  2  0  0  0  0  0  0
  -30.3680  -17.8440   18.3790 C   0  0  0  0  0  3  0  0  0  0  0  0
  -30.7870  -18.4610   20.7600 C   0  0  0  0  0  3  0  0  0  0  0  0
  -30.3290  -16.8530   20.5710 N   0  0  0  0  0  0  0  0  0  0  0  0
  -31.8190  -19.7070   18.9100 O   0  0  0  0  0  0  0  0  0  0  0  0
  -25.6880  -14.3190   20.4680 C   0  0  0  0  0  0  0  0  0  0  0  0
  -24.5900  -13.5630   20.7630 C   0  0  0  0  0  0  0  0  0  0  0  0
  -25.0310  -12.2030   20.7450 C   0  0  0  0  0  0  0  0  0  0  0  0
  -26.7230  -13.4180   20.2740 N   0  0  0  0  0  0  0  0  0  0  0  0
  -26.3360  -12.1400   20.5080 N   0  0  0  0  0  0  0  0  0  0  0  0
  -24.2690  -10.9560   20.8770 C   0  0  0  0  0  0  0  0  0  0  0  0
  -24.6900   -9.9240   21.7450 C   0  0  0  0  0  3  0  0  0  0  0  0
  -23.9290   -8.7430   21.8720 C   0  0  0  0  0  3  0  0  0  0  0  0
  -22.7330   -8.5870   21.1320 C   0  0  0  0  0  0  0  0  0  0  0  0
  -22.3320   -9.6070   20.2520 C   0  0  0  0  0  3  0  0  0  0  0  0
  -23.0930  -10.7800   20.1220 C   0  0  0  0  0  3  0  0  0  0  0  0
  -21.9430   -7.4640   21.1740 O   0  0  0  0  0  0  0  0  0  0  0  0
  -21.9630   -6.6100   22.2460 C   0  0  0  0  0  0  0  0  0  0  0  0
  -21.7000   -7.0550   23.5600 C   0  0  0  0  0  3  0  0  0  0  0  0
  -21.6630   -6.1320   24.6230 C   0  0  0  0  0  3  0  0  0  0  0  0
  -21.8780   -4.7620   24.3740 C   0  0  0  0  0  0  0  0  0  0  0  0
  -22.1340   -4.3160   23.0660 C   0  0  0  0  0  3  0  0  0  0  0  0
  -22.1740   -5.2370   22.0050 C   0  0  0  0  0  0  0  0  0  0  0  0
  -22.4000   -4.7990   20.7420 F   0  0  0  0  0  0  0  0  0  0  0  0
  -21.8340   -3.8730   25.3930 F   0  0  0  0  0  0  0  0  0  0  0  0
  -23.1910  -14.0680   20.9540 C   0  0  0  0  0  0  0  0  0  0  0  0
  -22.4150  -13.4110   21.8070 N   0  0  0  0  0  0  0  0  0  0  0  0
  -22.7950  -15.0830   20.3830 O   0  0  0  0  0  0  0  0  0  0  0  0
  -22.7500  -12.5930   22.2930 H   0  0  0  0  0  0  0  0  0  0  0  0
  -21.4730  -13.7330   21.9790 H   0  0  0  0  0  0  0  0  0  0  0  0
  -25.8870  -15.6890   20.3190 N   0  0  0  0  0  0  0  0  0  0  0  0
  -25.1300  -16.3560   20.4130 H   0  0  0  0  0  0  0  0  0  0  0  0
  -26.7720  -16.1230   20.0920 H   0  0  0  0  0  0  0  0  0  0  0  0
  -29.8430  -19.9070   21.3100 C   0  0  0  0  0  2  0  0  0  0  0  0
  -29.5430  -21.5230   20.6820 C   0  0  0  0  0  3  0  0  0  0  0  0
  -29.1500  -22.8630   21.1780 C   0  0  0  0  0  3  0  0  0  0  0  0
  -28.5410  -24.3540   20.4840 C   0  0  0  0  0  2  0  0  0  0  0  0
  -28.5930  -25.9510   20.9160 O   0  0  0  0  0  0  0  0  0  0  0  0
  -24.8360  -32.0520   23.3120 C   0  0  0  0  0  0  0  0  0  0  0  0
  -27.5790  -27.0320   20.6970 C   0  0  0  0  0  0  0  0  0  0  0  0
  -23.7220  -30.5290   21.7300 C   0  0  0  0  0  3  0  0  0  0  0  0
  -25.2490  -28.8680   20.4560 C   0  0  0  0  0  0  0  0  0  0  0  0
  -26.2890  -30.7780   21.6580 C   0  0  0  0  0  2  0  0  0  0  0  0
  -26.4060  -29.3300   21.0960 C   0  0  0  0  0  0  0  0  0  0  0  0
  -27.5600  -28.4290   21.1960 C   0  0  0  0  0  3  0  0  0  0  0  0
  -26.3950  -26.7290   19.9840 C   0  0  0  0  0  3  0  0  0  0  0  0
  -25.2690  -27.5870   19.8820 C   0  0  0  0  0  3  0  0  0  0  0  0
  -24.0110  -29.7640   20.4080 C   0  0  0  0  0  2  0  0  0  0  0  0
  -24.9680  -31.1510   22.2850 N   0  0  0  0  0  0  0  0  0  0  0  0
  -23.7240  -32.3530   23.7760 O   0  0  0  0  0  0  0  0  0  0  0  0
  -23.0140  -29.5850   22.7350 C   0  0  0  0  0  0  0  0  0  0  0  0
  -21.6930  -29.3790   22.5730 N   0  0  0  0  0  0  0  0  0  0  0  0
  -23.6590  -29.0350   23.6310 O   0  0  0  0  0  0  0  0  0  0  0  0
  -21.2250  -29.8720   21.8250 H   0  0  0  0  0  0  0  0  0  0  0  0
  -18.3130  -28.1550   23.0650 C   0  0  0  0  0  0  0  0  0  0  0  0
  -20.8620  -28.4780   23.3770 C   0  0  0  0  0  3  0  0  0  0  0  0
  -20.9990  -27.0160   22.8910 C   0  0  0  0  0  2  0  0  0  0  0  0
  -19.9290  -26.6160   21.8690 C   0  0  0  0  0  2  0  0  0  0  0  0
  -18.5280  -26.7730   22.4690 C   0  0  0  0  0  2  0  0  0  0  0  0
  -19.4090  -28.9610   23.4760 C   0  0  0  0  0  0  0  0  0  0  0  0
  -19.1510  -30.2480   23.9940 C   0  0  0  0  0  3  0  0  0  0  0  0
  -17.8330  -30.7310   24.1050 C   0  0  0  0  0  3  0  0  0  0  0  0
  -16.7540  -29.9240   23.7080 C   0  0  0  0  0  3  0  0  0  0  0  0
  -16.9940  -28.6370   23.1930 C   0  0  0  0  0  3  0  0  0  0  0  0
  -26.0730  -32.7600   23.9430 C   0  0  0  0  0  3  0  0  0  0  0  0
  -26.5920  -32.0480   25.2530 C   0  0  1  0  0  0  0  0  0  0  0  0
  -25.4700  -31.6970   26.2600 C   0  0  0  0  0  1  0  0  0  0  0  0
  -27.3380  -30.7380   24.9130 C   0  0  0  0  0  1  0  0  0  0  0  0
  -27.6140  -32.9580   25.9740 C   0  0  0  0  0  1  0  0  0  0  0  0
  -25.6960  -34.1530   24.2410 N   0  0  0  0  0  0  0  0  0  0  0  0
  -26.0050  -35.2130   23.4800 C   0  0  0  0  0  0  0  0  0  0  0  0
  -26.7000  -35.1220   22.4650 O   0  0  0  0  0  0  0  0  0  0  0  0
  -25.0760  -34.2940   25.0260 H   0  0  0  0  0  0  0  0  0  0  0  0
  -24.2180  -36.9410   23.0810 C   0  0  0  0  0  1  0  0  0  0  0  0
  -25.4610  -36.5890   23.9130 C   0  0  0  0  0  3  0  0  0  0  0  0
  -27.5600  -37.5550   24.7500 C   0  0  0  0  0  1  0  0  0  0  0  0
  -26.4560  -37.6790   23.8030 N   0  0  0  0  0  0  0  0  0  0  0  0
  -26.0150  -38.5840   23.9480 H   0  0  0  0  0  0  0  0  0  0  0  0
  -29.5560  -18.5230   17.2600 C   0  0  0  0  0  2  0  0  0  0  0  0
  -30.0980  -18.1930   15.8570 C   0  0  0  0  0  2  0  0  0  0  0  0
  -29.7530  -19.2730   14.8160 C   0  0  0  0  0  2  0  0  0  0  0  0
  -30.6570  -19.2500   13.5670 C   0  0  0  0  0  2  0  0  0  0  0  0
  -32.0320  -19.7010   13.8430 N   0  0  0  0  0  4  0  0  0  0  0  0
  -32.0380  -20.6330   14.2180 H   0  0  0  0  0  0  0  0  0  0  0  0
  -32.5640  -19.7080   12.9900 H   0  0  0  0  0  0  0  0  0  0  0  0
  -32.4920  -19.0870   14.4900 H   0  0  0  0  0  0  0  0  0  0  0  0
  2  7  1  0
  3  4  1  0
  3  2  1  0
  5  4  1  0
  5 18  1  0
  5  6  1  0
  7  1  1  0
  7  6  1  0
  8  1  2  0
  9 12  1  0
 10 13  1  0
 11 88  1  0
 11  9  1  0
 11 10  1  0
 12 43  1  0
 13  1  1  0
 13 12  1  0
 14  9  2  0
 15 16  2  0
 16 35  1  0
 17 16  1  0
 17 20  1  0
 18 15  1  0
 18 19  1  0
 19 17  2  0
 20 21  1  0
 21 22  2  0
 23 26  1  0
 23 22  1  0
 24 23  2  0
 25 24  1  0
 25 20  2  0
 26 27  1  0
 27 28  1  0
 28 29  2  0
 30 29  1  0
 30 34  1  0
 31 30  2  0
 32 27  2  0
 32 31  1  0
 33 32  1  0
 35 36  1  0
 36 39  1  0
 36 38  1  0
 37 35  2  0
 40 41  1  0
 40 15  1  0
 42 40  1  0
 44 45  2  0
 44 43  1  0
 46 47  1  0
 46 45  1  0
 48 59  2  0
 49 47  1  0
 49 54  1  0
 50 58  1  0
 50 60  1  0
 51 53  1  0
 52 58  1  0
 53 54  2  0
 53 52  1  0
 55 49  2  0
 56 55  1  0
 56 51  2  0
 57 51  1  0
 57 50  1  0
 58 48  1  0
 60 62  2  0
 61 60  1  0
 63 61  1  0
 64 73  2  0
 64 69  1  0
 65 61  1  0
 65 69  1  0
 66 65  1  0
 67 68  1  0
 67 66  1  0
 68 64  1  0
 69 70  2  0
 70 71  1  0
 72 71  2  0
 73 72  1  0
 74 48  1  0
 74 79  1  0
 74 75  1  0
 75 78  1  1
 75 76  1  0
 77 75  1  0
 79 82  1  0
 80 84  1  0
 80 79  1  0
 81 80  2  0
 84 83  1  0
 86 84  1  0
 86 87  1  0
 86 85  1  0
 89 88  1  0
 90 89  1  0
 91 92  1  0
 91 90  1  0
 92 93  1  0
 92 95  1  0
 94 92  1  0
M  ISO  4   1 100  13 100  46 101  47 101
M  END
>  <TORSDO>  (62) 
F 23

>  <SCORE>  (62) 
-13.690

>  <name>  (62) 
63

>  <ligand_id>  (62) 
63

>  <original_smiles>  (62) 
[H]C(=C([H])C([H])([H])C1([H])C(=O)C([H])(C([H])([H])C([H])([H])C([H])([H])C([H])([H])[N+]([H])([H])[H])C([H])([H])N1C(=O)N1C([H])([H])C([H])([H])C([H])([H])C([H])(n2nc(-c3c([H])c([H])c(Oc4c([H])c([H])c(F)c([H])c4F)c([H])c3[H])c(C(=O)N([H])[H])c2N([H])[H])C1([H])[H])C([H])([H])Oc1c([H])c([H])c2c(c1[H])C([H])([H])N(C(=O)C([H])(N([H])C(=O)C([H])(N([H])C([H])([H])[H])C([H])([H])[H])C(C([H])([H])[H])(C([H])([H])[H])C([H])([H])[H])C([H])(C(=O)N([H])C1([H])c3c([H])c([H])c([H])c([H])c3C([H])([H])C([H])([H])C1([H])[H])C2([H])[H]

>  <smiles>  (62) 
[H]C(=C([H])C([H])([H])C1([H])C(=O)C([H])(C([H])([H])C([H])([H])C([H])([H])C([H])([H])[N+]([H])([H])[H])C([H])([H])N1C(=O)N1C([H])([H])C([H])([H])C([H])([H])C([H])(n2nc(-c3c([H])c([H])c(Oc4c([H])c([H])c(F)c([H])c4F)c([H])c3[H])c(C(=O)N([H])[H])c2N([H])[H])C1([H])[H])C([H])([H])Oc1c([H])c([H])c2c(c1[H])C([H])([H])N(C(=O)C([H])(N([H])C(=O)C([H])(N([H])C([H])([H])[H])C([H])([H])[H])C(C([H])([H])[H])(C([H])([H])[H])C([H])([H])[H])C([H])(C(=O)N([H])C1([H])c3c([H])c([H])c([H])c([H])c3C([H])([H])C([H])([H])C1([H])[H])C2([H])[H]

$$$$
64:0:0
     RDKit          3D

 93102  0  0  1  0  0  0  0  0999 V2000
  -30.7560  -18.6130   17.7200 C   0  0  0  0  0  0  0  0  0  0  0  0
  -29.5430  -18.0350   17.7490 C   0  0  0  0  0  0  0  0  0  0  0  0
  -31.6650  -18.9340   18.8440 C   0  0  0  0  0  0  0  0  0  0  0  0
  -31.2030  -18.9520   16.3180 C   0  0  0  0  0  3  0  0  0  0  0  0
  -28.9630  -17.9040   16.3610 C   0  0  0  0  0  3  0  0  0  0  0  0
  -28.7110  -17.5070   18.9110 C   0  0  0  0  0  3  0  0  0  0  0  0
  -31.1680  -19.6000   20.1340 C   0  0  0  0  0  2  0  0  0  0  0  0
  -30.0400  -18.4870   15.4220 C   0  0  0  0  0  3  0  0  0  0  0  0
  -29.4240  -17.4370   20.2690 C   0  0  0  0  0  3  0  0  0  0  0  0
  -29.7310  -19.2940   20.5880 C   0  0  0  0  0  3  0  0  0  0  0  0
  -32.8790  -18.7440   18.7440 O   0  0  0  0  0  0  0  0  0  0  0  0
  -30.3310  -15.8090   20.2360 C   0  0  0  0  0  0  0  0  0  0  0  0
  -30.4720  -13.2950   19.3750 C   0  0  0  0  0  2  0  0  0  0  0  0
  -29.5690  -12.9740   18.1480 C   0  0  0  0  0  2  0  0  0  0  0  0
  -28.1430  -12.6040   18.5900 C   0  0  0  0  0  2  0  0  0  0  0  0
  -27.6380  -13.5550   19.6960 C   0  0  0  0  0  3  0  0  0  0  0  0
  -28.6720  -13.8120   20.8140 C   0  0  0  0  0  2  0  0  0  0  0  0
  -29.8630  -14.4310   20.1940 N   0  0  0  0  0  0  0  0  0  0  0  0
  -31.5630  -15.7910   20.0500 O   0  0  0  0  0  0  0  0  0  0  0  0
  -25.2650  -14.0380   20.4690 C   0  0  0  0  0  0  0  0  0  0  0  0
  -24.2230  -13.2340   20.8340 C   0  0  0  0  0  0  0  0  0  0  0  0
  -24.7250  -11.8960   20.7980 C   0  0  0  0  0  0  0  0  0  0  0  0
  -26.3270  -13.1910   20.2160 N   0  0  0  0  0  0  0  0  0  0  0  0
  -26.0180  -11.8950   20.4830 N   0  0  0  0  0  0  0  0  0  0  0  0
  -24.0280  -10.6160   20.9830 C   0  0  0  0  0  0  0  0  0  0  0  0
  -24.4610   -9.6700   21.9380 C   0  0  0  0  0  3  0  0  0  0  0  0
  -23.7600   -8.4580   22.1140 C   0  0  0  0  0  3  0  0  0  0  0  0
  -22.6120   -8.1810   21.3330 C   0  0  0  0  0  0  0  0  0  0  0  0
  -22.2000   -9.1150   20.3670 C   0  0  0  0  0  3  0  0  0  0  0  0
  -22.9010  -10.3200   20.1910 C   0  0  0  0  0  3  0  0  0  0  0  0
  -21.8840   -7.0190   21.4160 O   0  0  0  0  0  0  0  0  0  0  0  0
  -21.8120   -6.2950   22.5790 C   0  0  0  0  0  0  0  0  0  0  0  0
  -21.3040   -6.8530   23.7740 C   0  0  0  0  0  3  0  0  0  0  0  0
  -21.1830   -6.0530   24.9280 C   0  0  0  0  0  3  0  0  0  0  0  0
  -21.5610   -4.6970   24.8890 C   0  0  0  0  0  0  0  0  0  0  0  0
  -22.0600   -4.1390   23.6990 C   0  0  0  0  0  3  0  0  0  0  0  0
  -22.1830   -4.9350   22.5470 C   0  0  0  0  0  0  0  0  0  0  0  0
  -22.6460   -4.3870   21.3980 F   0  0  0  0  0  0  0  0  0  0  0  0
  -21.4380   -3.9260   25.9950 F   0  0  0  0  0  0  0  0  0  0  0  0
  -22.8140  -13.6760   21.0990 C   0  0  0  0  0  0  0  0  0  0  0  0
  -22.1000  -12.9640   21.9620 N   0  0  0  0  0  0  0  0  0  0  0  0
  -22.3560  -14.6920   20.5770 O   0  0  0  0  0  0  0  0  0  0  0  0
  -22.4830  -12.1430   22.4080 H   0  0  0  0  0  0  0  0  0  0  0  0
  -21.1530  -13.2410   22.1800 H   0  0  0  0  0  0  0  0  0  0  0  0
  -25.3930  -15.4140   20.2980 N   0  0  0  0  0  0  0  0  0  0  0  0
  -24.6100  -16.0480   20.4230 H   0  0  0  0  0  0  0  0  0  0  0  0
  -26.2300  -15.8780   19.9730 H   0  0  0  0  0  0  0  0  0  0  0  0
  -28.7770  -20.7540   20.3820 N   0  0  0  0  0  4  0  0  0  0  0  0
  -27.9390  -20.5590   20.9070 H   0  0  0  0  0  0  0  0  0  0  0  0
  -28.4800  -20.7220   19.4200 H   0  0  0  0  0  0  0  0  0  0  0  0
  -29.0380  -22.4630   20.6730 C   0  0  0  0  0  3  0  0  0  0  0  0
  -28.0550  -24.0890   20.4340 C   0  0  0  0  0  3  0  0  0  0  0  0
  -28.2290  -25.8110   20.6510 O   0  0  0  0  0  0  0  0  0  0  0  0
  -24.7360  -32.0720   23.5070 C   0  0  0  0  0  0  0  0  0  0  0  0
  -27.2580  -27.0040   20.5630 C   0  0  0  0  0  0  0  0  0  0  0  0
  -23.5570  -30.6900   21.8480 C   0  0  0  0  0  3  0  0  0  0  0  0
  -25.0070  -29.0290   20.4620 C   0  0  0  0  0  0  0  0  0  0  0  0
  -26.1360  -30.8120   21.7690 C   0  0  0  0  0  2  0  0  0  0  0  0
  -26.1940  -29.3830   21.1140 C   0  0  0  0  0  0  0  0  0  0  0  0
  -27.3060  -28.3980   21.1340 C   0  0  0  0  0  3  0  0  0  0  0  0
  -26.0410  -26.8460   19.8540 C   0  0  0  0  0  3  0  0  0  0  0  0
  -24.9660  -27.7840   19.8090 C   0  0  0  0  0  3  0  0  0  0  0  0
  -23.8100  -29.9890   20.4820 C   0  0  0  0  0  2  0  0  0  0  0  0
  -24.8330  -31.2230   22.4270 N   0  0  0  0  0  0  0  0  0  0  0  0
  -23.6380  -32.3840   24.0000 O   0  0  0  0  0  0  0  0  0  0  0  0
  -22.8140  -29.7210   22.8060 C   0  0  0  0  0  0  0  0  0  0  0  0
  -21.4880  -29.5590   22.6360 N   0  0  0  0  0  0  0  0  0  0  0  0
  -23.4430  -29.1120   23.6750 O   0  0  0  0  0  0  0  0  0  0  0  0
  -21.0320  -30.0990   21.9130 H   0  0  0  0  0  0  0  0  0  0  0  0
  -18.0950  -28.3180   23.0180 C   0  0  0  0  0  0  0  0  0  0  0  0
  -20.6370  -28.6300   23.3910 C   0  0  0  0  0  3  0  0  0  0  0  0
  -20.7820  -27.1850   22.8580 C   0  0  0  0  0  2  0  0  0  0  0  0
  -19.7340  -26.8220   21.8010 C   0  0  0  0  0  2  0  0  0  0  0  0
  -18.3220  -26.9590   22.3790 C   0  0  0  0  0  2  0  0  0  0  0  0
  -19.1810  -29.1090   23.4790 C   0  0  0  0  0  0  0  0  0  0  0  0
  -18.9140  -30.3770   24.0400 C   0  0  0  0  0  3  0  0  0  0  0  0
  -17.5950  -30.8560   24.1440 C   0  0  0  0  0  3  0  0  0  0  0  0
  -16.5230  -30.0630   23.6970 C   0  0  0  0  0  3  0  0  0  0  0  0
  -16.7730  -28.7960   23.1400 C   0  0  0  0  0  3  0  0  0  0  0  0
  -25.9970  -32.7040   24.1690 C   0  0  0  0  0  3  0  0  0  0  0  0
  -26.4340  -31.9630   25.4940 C   0  0  1  0  0  0  0  0  0  0  0  0
  -25.2870  -31.7810   26.5160 C   0  0  0  0  0  1  0  0  0  0  0  0
  -27.0070  -30.5620   25.1840 C   0  0  0  0  0  1  0  0  0  0  0  0
  -27.5700  -32.7550   26.1850 C   0  0  0  0  0  1  0  0  0  0  0  0
  -25.7020  -34.1180   24.4620 N   0  0  0  0  0  0  0  0  0  0  0  0
  -26.0570  -35.1570   23.6940 C   0  0  0  0  0  0  0  0  0  0  0  0
  -26.7260  -35.0220   22.6660 O   0  0  0  0  0  0  0  0  0  0  0  0
  -25.1060  -34.2960   25.2570 H   0  0  0  0  0  0  0  0  0  0  0  0
  -24.3470  -36.9760   23.3430 C   0  0  0  0  0  1  0  0  0  0  0  0
  -25.6040  -36.5670   24.1300 C   0  0  0  0  0  3  0  0  0  0  0  0
  -27.7660  -37.4560   24.8880 C   0  0  0  0  0  1  0  0  0  0  0  0
  -26.6460  -37.6030   23.9610 N   0  0  0  0  0  0  0  0  0  0  0  0
  -26.2540  -38.5340   24.0820 H   0  0  0  0  0  0  0  0  0  0  0  0
  1  2  1  0
  1  3  1  0
  2  6  2  0
  3  7  1  0
  4  1  2  0
  5  2  1  0
  6  9  1  0
  7 10  1  0
  8  4  1  0
  8  5  2  0
  9 12  1  0
  9 10  1  0
 10 48  1  0
 11  3  2  0
 13 18  1  0
 14 15  1  0
 14 13  1  0
 16 15  1  0
 16 23  1  0
 16 17  1  0
 18 12  1  0
 18 17  1  0
 19 12  2  0
 20 21  2  0
 21 40  1  0
 22 21  1  0
 22 25  1  0
 23 20  1  0
 23 24  1  0
 24 22  2  0
 25 26  1  0
 26 27  2  0
 28 31  1  0
 28 27  1  0
 29 28  2  0
 30 29  1  0
 30 25  2  0
 31 32  1  0
 32 33  1  0
 33 34  2  0
 35 34  1  0
 35 39  1  0
 36 35  2  0
 37 32  2  0
 37 36  1  0
 38 37  1  0
 40 41  1  0
 41 44  1  0
 41 43  1  0
 42 40  2  0
 45 46  1  0
 45 20  1  0
 47 45  1  0
 48 51  1  0
 48 49  1  0
 50 48  1  0
 52 53  1  0
 52 51  2  0
 54 65  2  0
 55 53  1  0
 55 60  1  0
 56 64  1  0
 56 66  1  0
 57 63  1  0
 57 59  1  0
 58 64  1  0
 59 60  2  0
 59 58  1  0
 61 55  2  0
 62 61  1  0
 62 57  2  0
 63 56  1  0
 64 54  1  0
 66 68  2  0
 67 66  1  0
 69 67  1  0
 70 79  2  0
 70 75  1  0
 71 67  1  0
 71 75  1  0
 72 71  1  0
 73 74  1  0
 73 72  1  0
 74 70  1  0
 75 76  2  0
 76 77  1  0
 78 77  2  0
 79 78  1  0
 80 54  1  0
 80 85  1  0
 80 81  1  0
 81 84  1  1
 81 82  1  0
 83 81  1  0
 85 88  1  0
 86 90  1  0
 86 85  1  0
 87 86  2  0
 90 89  1  0
 92 93  1  0
 92 90  1  0
 92 91  1  0
M  ISO  4   9 100  12 100  52 101  53 101
M  END
>  <TORSDO>  (63) 
F 19

>  <SCORE>  (63) 
-15.463

>  <name>  (63) 
64

>  <ligand_id>  (63) 
64

>  <original_smiles>  (63) 
[H]c1c([H])c([H])c2c(c1[H])C([H])([H])C([H])([H])C([H])([H])C2([H])N([H])C(=O)C1([H])N(C(=O)C([H])(N([H])C(=O)C([H])(N([H])C([H])([H])[H])C([H])([H])[H])C(C([H])([H])[H])(C([H])([H])[H])C([H])([H])[H])C([H])([H])c2c([H])c(OC([H])([H])C([H])([H])[N+]([H])([H])C3([H])C([H])([H])C(=O)C4=C(C([H])([H])C([H])([H])C4([H])[H])C([H])([H])C3([H])C(=O)N3C([H])([H])C([H])([H])C([H])([H])C([H])(n4nc(-c5c([H])c([H])c(Oc6c([H])c([H])c(F)c([H])c6F)c([H])c5[H])c(C(=O)N([H])[H])c4N([H])[H])C3([H])[H])c([H])c([H])c2C1([H])[H]

>  <smiles>  (63) 
[H]c1c([H])c([H])c2c(c1[H])C([H])([H])C([H])([H])C([H])([H])C2([H])N([H])C(=O)C1([H])N(C(=O)C([H])(N([H])C(=O)C([H])(N([H])C([H])([H])[H])C([H])([H])[H])C(C([H])([H])[H])(C([H])([H])[H])C([H])([H])[H])C([H])([H])c2c([H])c(OC([H])([H])C([H])([H])[N+]([H])([H])C3([H])C([H])([H])C(=O)C4=C(C([H])([H])C([H])([H])C4([H])[H])C([H])([H])C3([H])C(=O)N3C([H])([H])C([H])([H])C([H])([H])C([H])(n4nc(-c5c([H])c([H])c(Oc6c([H])c([H])c(F)c([H])c6F)c([H])c5[H])c(C(=O)N([H])[H])c4N([H])[H])C3([H])[H])c([H])c([H])c2C1([H])[H]

$$$$
65:0:0
     RDKit          3D

 90 98  0  0  1  0  0  0  0  0999 V2000
  -30.2010  -21.8330   20.5310 C   0  0  0  0  0  3  0  0  0  0  0  0
  -29.1840  -22.5970   20.0640 C   0  0  0  0  0  0  0  0  0  0  0  0
  -28.0090  -21.8680   19.5060 C   0  0  0  0  0  0  0  0  0  0  0  0
  -30.2980  -20.2920   20.5260 C   0  0  0  0  0  2  0  0  0  0  0  0
  -28.1290  -20.3510   19.2140 C   0  0  0  0  0  2  0  0  0  0  0  0
  -28.9750  -19.5410   20.2390 C   0  0  0  0  0  3  0  0  0  0  0  0
  -26.9470  -22.4240   19.2180 O   0  0  0  0  0  0  0  0  0  0  0  0
  -29.2970  -24.1580   19.9150 C   0  0  0  0  0  3  0  0  0  0  0  0
  -28.1310  -25.0910   20.4040 C   0  0  0  0  0  3  0  0  0  0  0  0
  -28.3290  -26.5320   20.1790 O   0  0  0  0  0  0  0  0  0  0  0  0
  -24.6050  -31.8900   23.2360 C   0  0  0  0  0  0  0  0  0  0  0  0
  -27.1970  -27.3500   20.1620 C   0  0  0  0  0  0  0  0  0  0  0  0
  -23.3950  -30.4950   21.6020 C   0  0  0  0  0  3  0  0  0  0  0  0
  -24.8350  -28.9520   20.1680 C   0  0  0  0  0  0  0  0  0  0  0  0
  -25.9340  -30.8090   21.4120 C   0  0  0  0  0  2  0  0  0  0  0  0
  -26.0060  -29.4360   20.7640 C   0  0  0  0  0  0  0  0  0  0  0  0
  -27.1900  -28.6450   20.7550 C   0  0  0  0  0  3  0  0  0  0  0  0
  -26.0070  -26.9170   19.5310 C   0  0  0  0  0  3  0  0  0  0  0  0
  -24.8390  -27.6960   19.5460 C   0  0  0  0  0  3  0  0  0  0  0  0
  -23.6010  -29.8260   20.2200 C   0  0  0  0  0  2  0  0  0  0  0  0
  -24.6640  -31.0790   22.1400 N   0  0  0  0  0  0  0  0  0  0  0  0
  -23.5220  -32.1660   23.7710 O   0  0  0  0  0  0  0  0  0  0  0  0
  -22.7350  -29.4690   22.5580 C   0  0  0  0  0  0  0  0  0  0  0  0
  -21.4070  -29.2930   22.4290 N   0  0  0  0  0  0  0  0  0  0  0  0
  -23.4130  -28.8410   23.3740 O   0  0  0  0  0  0  0  0  0  0  0  0
  -20.9250  -29.8530   21.7410 H   0  0  0  0  0  0  0  0  0  0  0  0
  -18.0260  -28.1130   22.9400 C   0  0  0  0  0  0  0  0  0  0  0  0
  -20.5860  -28.3590   23.2030 C   0  0  0  0  0  3  0  0  0  0  0  0
  -20.6790  -26.9280   22.6260 C   0  0  0  0  0  2  0  0  0  0  0  0
  -19.5730  -26.6110   21.6150 C   0  0  0  0  0  2  0  0  0  0  0  0
  -18.1920  -26.7660   22.2600 C   0  0  0  0  0  2  0  0  0  0  0  0
  -19.1490  -28.8690   23.3690 C   0  0  0  0  0  0  0  0  0  0  0  0
  -18.9390  -30.1320   23.9610 C   0  0  0  0  0  3  0  0  0  0  0  0
  -17.6360  -30.6430   24.1270 C   0  0  0  0  0  3  0  0  0  0  0  0
  -16.5270  -29.8820   23.7210 C   0  0  0  0  0  3  0  0  0  0  0  0
  -16.7230  -28.6210   23.1320 C   0  0  0  0  0  3  0  0  0  0  0  0
  -25.8870  -32.5210   23.8540 C   0  0  0  0  0  3  0  0  0  0  0  0
  -26.4050  -31.7480   25.1290 C   0  0  1  0  0  0  0  0  0  0  0  0
  -25.3100  -31.4990   26.1990 C   0  0  0  0  0  1  0  0  0  0  0  0
  -26.9900  -30.3740   24.7280 C   0  0  0  0  0  1  0  0  0  0  0  0
  -27.5640  -32.5380   25.7820 C   0  0  0  0  0  1  0  0  0  0  0  0
  -25.5770  -33.9160   24.1900 N   0  0  0  0  0  0  0  0  0  0  0  0
  -25.9040  -34.9700   23.4310 C   0  0  0  0  0  0  0  0  0  0  0  0
  -26.5690  -34.8670   22.3950 O   0  0  0  0  0  0  0  0  0  0  0  0
  -24.9880  -34.0710   24.9950 H   0  0  0  0  0  0  0  0  0  0  0  0
  -24.1730  -36.7630   23.0830 C   0  0  0  0  0  1  0  0  0  0  0  0
  -25.4150  -36.3590   23.8910 C   0  0  0  0  0  3  0  0  0  0  0  0
  -27.5520  -37.2380   24.7190 C   0  0  0  0  0  1  0  0  0  0  0  0
  -26.4470  -37.4130   23.7810 N   0  0  0  0  0  0  0  0  0  0  0  0
  -26.0410  -38.3320   23.9370 H   0  0  0  0  0  0  0  0  0  0  0  0
  -29.1670  -18.0240   19.8180 C   0  0  0  0  0  2  0  0  0  0  0  0
  -29.9090  -17.0730   20.8320 C   0  0  0  0  0  2  0  0  0  0  0  0
  -30.5550  -14.5870   20.4330 C   0  0  0  0  0  0  0  0  0  0  0  0
  -30.3860  -12.3640   19.3560 C   0  0  0  0  0  2  0  0  0  0  0  0
  -29.4380  -12.5100   18.1430 C   0  0  0  0  0  2  0  0  0  0  0  0
  -27.9600  -12.3660   18.5650 C   0  0  0  0  0  2  0  0  0  0  0  0
  -27.6030  -13.2230   19.8120 C   0  0  0  0  0  3  0  0  0  0  0  0
  -28.6560  -13.0140   20.9230 C   0  0  0  0  0  2  0  0  0  0  0  0
  -29.9670  -13.3610   20.3540 N   0  0  0  0  0  0  0  0  0  0  0  0
  -31.7360  -14.7810   20.1250 O   0  0  0  0  0  0  0  0  0  0  0  0
  -29.6840  -15.6100   20.6600 N   0  0  0  0  0  0  0  0  0  0  0  0
  -28.7350  -15.3020   20.8040 H   0  0  0  0  0  0  0  0  0  0  0  0
  -25.2070  -13.8440   20.5050 C   0  0  0  0  0  0  0  0  0  0  0  0
  -24.1350  -13.0760   20.8720 C   0  0  0  0  0  0  0  0  0  0  0  0
  -24.5950  -11.7240   20.8530 C   0  0  0  0  0  0  0  0  0  0  0  0
  -26.2520  -12.9560   20.2880 N   0  0  0  0  0  0  0  0  0  0  0  0
  -25.8870  -11.6760   20.5560 N   0  0  0  0  0  0  0  0  0  0  0  0
  -23.8680  -10.4640   21.0450 C   0  0  0  0  0  0  0  0  0  0  0  0
  -24.3000   -9.4980   21.9820 C   0  0  0  0  0  3  0  0  0  0  0  0
  -23.5750   -8.3000   22.1600 C   0  0  0  0  0  3  0  0  0  0  0  0
  -22.4040   -8.0610   21.4020 C   0  0  0  0  0  0  0  0  0  0  0  0
  -21.9920   -9.0140   20.4560 C   0  0  0  0  0  3  0  0  0  0  0  0
  -22.7160  -10.2040   20.2750 C   0  0  0  0  0  3  0  0  0  0  0  0
  -21.6500   -6.9160   21.4930 O   0  0  0  0  0  0  0  0  0  0  0  0
  -21.6060   -6.1710   22.6430 C   0  0  0  0  0  0  0  0  0  0  0  0
  -21.1910   -6.7230   23.8730 C   0  0  0  0  0  3  0  0  0  0  0  0
  -21.0950   -5.9040   25.0160 C   0  0  0  0  0  3  0  0  0  0  0  0
  -21.4040   -4.5340   24.9300 C   0  0  0  0  0  0  0  0  0  0  0  0
  -21.8110   -3.9810   23.7030 C   0  0  0  0  0  3  0  0  0  0  0  0
  -21.9100   -4.7970   22.5630 C   0  0  0  0  0  0  0  0  0  0  0  0
  -22.2820   -4.2540   21.3790 F   0  0  0  0  0  0  0  0  0  0  0  0
  -21.3050   -3.7470   26.0250 F   0  0  0  0  0  0  0  0  0  0  0  0
  -22.7340  -13.5530   21.1280 C   0  0  0  0  0  0  0  0  0  0  0  0
  -21.9990  -12.8610   21.9890 N   0  0  0  0  0  0  0  0  0  0  0  0
  -22.3010  -14.5770   20.6000 O   0  0  0  0  0  0  0  0  0  0  0  0
  -22.3620  -12.0330   22.4410 H   0  0  0  0  0  0  0  0  0  0  0  0
  -21.0580  -13.1580   22.2040 H   0  0  0  0  0  0  0  0  0  0  0  0
  -25.3750  -15.2130   20.3190 N   0  0  0  0  0  0  0  0  0  0  0  0
  -24.6070  -15.8660   20.4250 H   0  0  0  0  0  0  0  0  0  0  0  0
  -26.2120  -15.6480   19.9580 H   0  0  0  0  0  0  0  0  0  0  0  0
  2  1  2  0
  3  2  1  0
  4  1  1  0
  5  3  1  0
  5  6  1  0
  6 51  1  0
  6  4  1  0
  7  3  2  0
  8  2  1  0
  8  9  2  0
 10  9  1  0
 11 22  2  0
 12 10  1  0
 12 17  1  0
 13 21  1  0
 13 23  1  0
 14 20  1  0
 14 16  1  0
 15 21  1  0
 16 15  1  0
 17 16  2  0
 18 19  1  0
 18 12  2  0
 19 14  2  0
 20 13  1  0
 21 11  1  0
 23 25  2  0
 24 23  1  0
 26 24  1  0
 27 36  2  0
 27 32  1  0
 28 24  1  0
 28 32  1  0
 29 28  1  0
 30 31  1  0
 30 29  1  0
 31 27  1  0
 32 33  2  0
 33 34  1  0
 35 34  2  0
 36 35  1  0
 37 11  1  0
 37 42  1  0
 37 38  1  0
 38 41  1  1
 38 39  1  0
 40 38  1  0
 42 45  1  0
 43 47  1  0
 43 42  1  0
 44 43  2  0
 47 46  1  0
 49 47  1  0
 49 50  1  0
 49 48  1  0
 51 52  1  0
 53 61  1  0
 54 59  1  0
 55 56  1  0
 55 54  1  0
 57 56  1  0
 57 66  1  0
 57 58  1  0
 59 53  1  0
 59 58  1  0
 60 53  2  0
 61 62  1  0
 61 52  1  0
 63 64  2  0
 64 83  1  0
 65 64  1  0
 65 68  1  0
 66 63  1  0
 66 67  1  0
 67 65  2  0
 68 69  1  0
 69 70  2  0
 71 74  1  0
 71 70  1  0
 72 71  2  0
 73 72  1  0
 73 68  2  0
 74 75  1  0
 75 76  1  0
 76 77  2  0
 78 77  1  0
 78 82  1  0
 79 78  2  0
 80 75  2  0
 80 79  1  0
 81 80  1  0
 83 84  1  0
 84 87  1  0
 84 86  1  0
 85 83  2  0
 88 89  1  0
 88 63  1  0
 90 88  1  0
M  ISO  4   9 101  10 101  53 100  61 100
M  END
>  <TORSDO>  (64) 
F 20

>  <SCORE>  (64) 
-13.978

>  <name>  (64) 
65

>  <ligand_id>  (64) 
65

>  <original_smiles>  (64) 
[H]C1=C(C([H])([H])C([H])([H])Oc2c([H])c([H])c3c(c2[H])C([H])([H])N(C(=O)C([H])(N([H])C(=O)C([H])(N([H])C([H])([H])[H])C([H])([H])[H])C(C([H])([H])[H])(C([H])([H])[H])C([H])([H])[H])C([H])(C(=O)N([H])C2([H])c4c([H])c([H])c([H])c([H])c4C([H])([H])C([H])([H])C2([H])[H])C3([H])[H])C(=O)C([H])([H])C([H])(C([H])([H])C([H])([H])N([H])C(=O)N2C([H])([H])C([H])([H])C([H])([H])C([H])(n3nc(-c4c([H])c([H])c(Oc5c([H])c([H])c(F)c([H])c5F)c([H])c4[H])c(C(=O)N([H])[H])c3N([H])[H])C2([H])[H])C1([H])[H]

>  <smiles>  (64) 
[H]C1=C(C([H])([H])C([H])([H])Oc2c([H])c([H])c3c(c2[H])C([H])([H])N(C(=O)C([H])(N([H])C(=O)C([H])(N([H])C([H])([H])[H])C([H])([H])[H])C(C([H])([H])[H])(C([H])([H])[H])C([H])([H])[H])C([H])(C(=O)N([H])C2([H])c4c([H])c([H])c([H])c([H])c4C([H])([H])C([H])([H])C2([H])[H])C3([H])[H])C(=O)C([H])([H])C([H])(C([H])([H])C([H])([H])N([H])C(=O)N2C([H])([H])C([H])([H])C([H])([H])C([H])(n3nc(-c4c([H])c([H])c(Oc5c([H])c([H])c(F)c([H])c5F)c([H])c4[H])c(C(=O)N([H])[H])c3N([H])[H])C2([H])[H])C1([H])[H]

$$$$
66:0:0
     RDKit          3D

 92101  0  0  1  0  0  0  0  0999 V2000
  -28.4870  -24.4160   20.1140 C   0  0  0  0  0  3  0  0  0  0  0  0
  -27.2590  -24.1170   20.9220 C   0  0  0  0  0  2  0  0  0  0  0  0
  -27.6770  -22.8590   21.6720 C   0  0  0  0  0  2  0  0  0  0  0  0
  -28.9190  -22.3660   20.9030 C   0  0  0  0  0  3  0  0  0  0  0  0
  -29.3770  -23.5090   20.1330 N   0  0  0  0  0  2  0  0  0  0  0  0
  -28.5900  -25.7220   19.3260 C   0  0  0  0  0  2  0  0  0  0  0  0
  -28.4120  -26.9000   20.1220 O   0  0  0  0  0  0  0  0  0  0  0  0
  -24.5560  -31.9400   23.3000 C   0  0  0  0  0  0  0  0  0  0  0  0
  -27.2050  -27.5720   20.1200 C   0  0  0  0  0  0  0  0  0  0  0  0
  -23.3480  -30.5590   21.6420 C   0  0  0  0  0  3  0  0  0  0  0  0
  -24.7970  -29.0560   20.1830 C   0  0  0  0  0  0  0  0  0  0  0  0
  -25.8680  -30.9360   21.4360 C   0  0  0  0  0  2  0  0  0  0  0  0
  -25.9540  -29.5770   20.7740 C   0  0  0  0  0  0  0  0  0  0  0  0
  -27.1560  -28.8350   20.7490 C   0  0  0  0  0  3  0  0  0  0  0  0
  -26.0250  -27.0640   19.5280 C   0  0  0  0  0  3  0  0  0  0  0  0
  -24.8260  -27.7970   19.5620 C   0  0  0  0  0  3  0  0  0  0  0  0
  -23.5520  -29.9090   20.2490 C   0  0  0  0  0  2  0  0  0  0  0  0
  -24.6090  -31.1580   22.1850 N   0  0  0  0  0  0  0  0  0  0  0  0
  -23.4780  -32.1960   23.8510 O   0  0  0  0  0  0  0  0  0  0  0  0
  -22.7110  -29.5150   22.5860 C   0  0  0  0  0  0  0  0  0  0  0  0
  -21.3870  -29.3250   22.4590 N   0  0  0  0  0  0  0  0  0  0  0  0
  -23.4010  -28.8810   23.3900 O   0  0  0  0  0  0  0  0  0  0  0  0
  -20.8920  -29.8900   21.7830 H   0  0  0  0  0  0  0  0  0  0  0  0
  -18.0210  -28.0990   22.9320 C   0  0  0  0  0  0  0  0  0  0  0  0
  -20.5770  -28.3710   23.2150 C   0  0  0  0  0  3  0  0  0  0  0  0
  -20.6900  -26.9490   22.6200 C   0  0  0  0  0  2  0  0  0  0  0  0
  -19.5930  -26.6360   21.5970 C   0  0  0  0  0  2  0  0  0  0  0  0
  -18.2090  -26.7590   22.2400 C   0  0  0  0  0  2  0  0  0  0  0  0
  -19.1340  -28.8640   23.3760 C   0  0  0  0  0  0  0  0  0  0  0  0
  -18.9040  -30.1180   23.9800 C   0  0  0  0  0  3  0  0  0  0  0  0
  -17.5950  -30.6090   24.1460 C   0  0  0  0  0  3  0  0  0  0  0  0
  -16.4980  -29.8420   23.7190 C   0  0  0  0  0  3  0  0  0  0  0  0
  -16.7120  -28.5880   23.1180 C   0  0  0  0  0  3  0  0  0  0  0  0
  -25.8440  -32.5650   23.9230 C   0  0  0  0  0  3  0  0  0  0  0  0
  -26.3440  -31.8020   25.2100 C   0  0  1  0  0  0  0  0  0  0  0  0
  -25.2390  -31.5800   26.2710 C   0  0  0  0  0  1  0  0  0  0  0  0
  -26.9220  -30.4180   24.8340 C   0  0  0  0  0  1  0  0  0  0  0  0
  -27.4930  -32.5970   25.8770 C   0  0  0  0  0  1  0  0  0  0  0  0
  -25.5480  -33.9700   24.2310 N   0  0  0  0  0  0  0  0  0  0  0  0
  -25.9070  -35.0080   23.4640 C   0  0  0  0  0  0  0  0  0  0  0  0
  -26.5940  -34.8830   22.4470 O   0  0  0  0  0  0  0  0  0  0  0  0
  -24.9380  -34.1410   25.0170 H   0  0  0  0  0  0  0  0  0  0  0  0
  -24.2040  -36.8130   23.0540 C   0  0  0  0  0  1  0  0  0  0  0  0
  -25.4260  -36.4070   23.8920 C   0  0  0  0  0  3  0  0  0  0  0  0
  -27.5560  -37.2770   24.7480 C   0  0  0  0  0  1  0  0  0  0  0  0
  -26.4720  -37.4470   23.7840 N   0  0  0  0  0  0  0  0  0  0  0  0
  -26.0750  -38.3730   23.9120 H   0  0  0  0  0  0  0  0  0  0  0  0
  -28.6190  -21.1930   19.9440 C   0  0  0  0  0  2  0  0  0  0  0  0
  -28.2770  -19.8510   20.6340 C   0  0  0  0  0  2  0  0  0  0  0  0
  -29.4910  -18.9670   21.0020 C   0  0  0  0  0  2  0  0  0  0  0  0
  -31.6590  -14.4610   20.5500 C   0  0  0  0  0  0  0  0  0  0  0  0
  -31.3410  -12.1700   19.7600 C   0  0  0  0  0  2  0  0  0  0  0  0
  -30.5250  -12.2420   18.4540 C   0  0  0  0  0  2  0  0  0  0  0  0
  -29.0120  -12.2300   18.7560 C   0  0  0  0  0  2  0  0  0  0  0  0
  -28.6010  -13.2340   19.8670 C   0  0  0  0  0  3  0  0  0  0  0  0
  -29.5580  -13.1780   21.0780 C   0  0  0  0  0  2  0  0  0  0  0  0
  -30.9310  -13.3180   20.5760 N   0  0  0  0  0  0  0  0  0  0  0  0
  -32.8910  -14.4590   20.4760 O   0  0  0  0  0  0  0  0  0  0  0  0
  -30.5090  -16.7720   17.9240 C   0  0  0  0  0  2  0  0  0  0  0  0
  -30.1720  -18.0330   18.7110 C   0  0  0  0  0  2  0  0  0  0  0  0
  -31.5460  -15.9770   18.7080 C   0  0  0  0  0  2  0  0  0  0  0  0
  -30.5950  -16.6530   20.8510 C   0  0  0  0  0  2  0  0  0  0  0  0
  -29.6760  -17.6930   20.1330 C   0  0  0  0  0  3  0  0  0  0  0  0
  -31.0010  -15.5160   20.0010 N   0  0  0  0  0  0  0  0  0  0  0  0
  -26.2010  -13.9980   20.3750 C   0  0  0  0  0  0  0  0  0  0  0  0
  -25.0650  -13.3040   20.6930 C   0  0  0  0  0  0  0  0  0  0  0  0
  -25.4490  -11.9290   20.7550 C   0  0  0  0  0  0  0  0  0  0  0  0
  -27.2080  -13.0530   20.2630 N   0  0  0  0  0  0  0  0  0  0  0  0
  -26.7540  -11.8050   20.5550 N   0  0  0  0  0  0  0  0  0  0  0  0
  -24.6340  -10.7190   20.9410 C   0  0  0  0  0  0  0  0  0  0  0  0
  -24.9280   -9.7810   21.9530 C   0  0  0  0  0  3  0  0  0  0  0  0
  -24.1230   -8.6350   22.1240 C   0  0  0  0  0  3  0  0  0  0  0  0
  -23.0090   -8.4170   21.2790 C   0  0  0  0  0  0  0  0  0  0  0  0
  -22.7340   -9.3420   20.2560 C   0  0  0  0  0  3  0  0  0  0  0  0
  -23.5400  -10.4810   20.0860 C   0  0  0  0  0  3  0  0  0  0  0  0
  -22.1890   -7.3190   21.3530 O   0  0  0  0  0  0  0  0  0  0  0  0
  -21.9740   -6.6590   22.5360 C   0  0  0  0  0  0  0  0  0  0  0  0
  -21.4470   -7.3160   23.6690 C   0  0  0  0  0  3  0  0  0  0  0  0
  -21.1750   -6.5850   24.8420 C   0  0  0  0  0  3  0  0  0  0  0  0
  -21.4200   -5.1970   24.8830 C   0  0  0  0  0  0  0  0  0  0  0  0
  -21.9400   -4.5410   23.7540 C   0  0  0  0  0  3  0  0  0  0  0  0
  -22.2150   -5.2700   22.5840 C   0  0  0  0  0  0  0  0  0  0  0  0
  -22.6950   -4.6280   21.4900 F   0  0  0  0  0  0  0  0  0  0  0  0
  -21.1530   -4.4950   26.0080 F   0  0  0  0  0  0  0  0  0  0  0  0
  -23.6820  -13.8680   20.8350 C   0  0  0  0  0  0  0  0  0  0  0  0
  -22.8600  -13.2660   21.6850 N   0  0  0  0  0  0  0  0  0  0  0  0
  -23.3380  -14.8800   20.2250 O   0  0  0  0  0  0  0  0  0  0  0  0
  -23.1540  -12.4520   22.2040 H   0  0  0  0  0  0  0  0  0  0  0  0
  -21.9280  -13.6340   21.8290 H   0  0  0  0  0  0  0  0  0  0  0  0
  -26.4550  -15.3470   20.1530 N   0  0  0  0  0  0  0  0  0  0  0  0
  -25.7150  -16.0420   20.1530 H   0  0  0  0  0  0  0  0  0  0  0  0
  -27.3570  -15.7180   19.8880 H   0  0  0  0  0  0  0  0  0  0  0  0
  1  6  1  0
  1  5  1  0
  1  2  1  0
  2  3  1  0
  4 48  1  0
  4  3  1  0
  5  4  1  0
  6  7  1  0
  8 19  2  0
  9  7  1  0
  9 14  1  0
 10 18  1  0
 10 20  1  0
 11 17  1  0
 11 13  1  0
 12 18  1  0
 13 12  1  0
 14 13  2  0
 15 16  1  0
 15  9  2  0
 16 11  2  0
 17 10  1  0
 18  8  1  0
 20 22  2  0
 21 20  1  0
 23 21  1  0
 24 33  2  0
 24 29  1  0
 25 21  1  0
 25 29  1  0
 26 25  1  0
 27 28  1  0
 27 26  1  0
 28 24  1  0
 29 30  2  0
 30 31  1  0
 32 31  2  0
 33 32  1  0
 34  8  1  0
 34 39  1  0
 34 35  1  0
 35 38  1  1
 35 36  1  0
 37 35  1  0
 39 42  1  0
 40 44  1  0
 40 39  1  0
 41 40  2  0
 44 43  1  0
 46 44  1  0
 46 47  1  0
 46 45  1  0
 48 49  1  0
 49 50  1  0
 51 57  1  0
 52 57  1  0
 53 54  1  0
 53 52  1  0
 55 54  1  0
 55 68  1  0
 55 56  1  0
 57 56  1  0
 58 51  2  0
 59 61  1  0
 59 60  1  0
 60 63  1  0
 61 64  1  0
 63 62  1  0
 63 50  1  0
 64 51  1  0
 64 62  1  0
 65 66  2  0
 66 67  1  0
 66 85  1  0
 67 70  1  0
 68 65  1  0
 68 69  1  0
 69 67  2  0
 70 71  1  0
 71 72  2  0
 73 76  1  0
 73 72  1  0
 74 73  2  0
 75 74  1  0
 75 70  2  0
 76 77  1  0
 77 82  2  0
 77 78  1  0
 78 79  2  0
 79 80  1  0
 80 84  1  0
 81 80  2  0
 82 81  1  0
 83 82  1  0
 85 86  1  0
 86 89  1  0
 86 88  1  0
 87 85  2  0
 90 65  1  0
 91 90  1  0
 92 90  1  0
M  ISO  4   6 101   7 101  51 100  64 100
M  END
>  <TORSDO>  (65) 
F 20

>  <SCORE>  (65) 
-12.634

>  <name>  (65) 
66

>  <ligand_id>  (65) 
66

>  <original_smiles>  (65) 
[H]c1c([H])c([H])c2c(c1[H])C([H])([H])C([H])([H])C([H])([H])C2([H])N([H])C(=O)C1([H])N(C(=O)C([H])(N([H])C(=O)C([H])(N([H])C([H])([H])[H])C([H])([H])[H])C(C([H])([H])[H])(C([H])([H])[H])C([H])([H])[H])C([H])([H])c2c([H])c(OC([H])([H])C3=NC([H])(C([H])([H])C([H])([H])C([H])([H])C4([H])C([H])([H])N(C(=O)N5C([H])([H])C([H])([H])C([H])([H])C([H])(n6nc(-c7c([H])c([H])c(Oc8c([H])c([H])c(F)c([H])c8F)c([H])c7[H])c(C(=O)N([H])[H])c6N([H])[H])C5([H])[H])C([H])([H])C([H])([H])C4([H])[H])C([H])([H])C3([H])[H])c([H])c([H])c2C1([H])[H]

>  <smiles>  (65) 
[H]c1c([H])c([H])c2c(c1[H])C([H])([H])C([H])([H])C([H])([H])C2([H])N([H])C(=O)C1([H])N(C(=O)C([H])(N([H])C(=O)C([H])(N([H])C([H])([H])[H])C([H])([H])[H])C(C([H])([H])[H])(C([H])([H])[H])C([H])([H])[H])C([H])([H])c2c([H])c(OC([H])([H])C3=NC([H])(C([H])([H])C([H])([H])C([H])([H])C4([H])C([H])([H])N(C(=O)N5C([H])([H])C([H])([H])C([H])([H])C([H])(n6nc(-c7c([H])c([H])c(Oc8c([H])c([H])c(F)c([H])c8F)c([H])c7[H])c(C(=O)N([H])[H])c6N([H])[H])C5([H])[H])C([H])([H])C([H])([H])C4([H])[H])C([H])([H])C3([H])[H])c([H])c([H])c2C1([H])[H]

$$$$
67:0:0
     RDKit          3D

 89 97  0  0  1  0  0  0  0  0999 V2000
  -28.5800  -18.7560   20.3680 C   0  0  0  0  0  3  0  0  0  0  0  0
  -28.3600  -20.1720   20.4110 C   0  0  0  0  0  3  0  0  0  0  0  0
  -29.7490  -17.6690   20.3820 C   0  0  0  0  0  0  0  0  0  0  0  0
  -30.6120  -21.0190   20.1210 C   0  0  0  0  0  0  0  0  0  0  0  0
  -31.1200  -18.3740   20.3100 C   0  0  0  0  0  2  0  0  0  0  0  0
  -31.2020  -19.8290   20.9320 C   0  0  0  0  0  2  0  0  0  0  0  0
  -29.2200  -21.5490   20.5570 C   0  0  0  0  0  3  0  0  0  0  0  0
  -31.2350  -21.4890   19.1250 N   0  0  0  0  0  0  0  0  0  0  0  0
  -29.5390  -16.3060   20.4300 N   0  0  0  0  0  0  0  0  0  0  0  0
  -32.1180  -21.0140   18.9690 H   0  0  0  0  0  0  0  0  0  0  0  0
  -30.4540  -15.1220   20.2900 C   0  0  0  0  0  0  0  0  0  0  0  0
  -30.4240  -12.7240   19.3930 C   0  0  0  0  0  2  0  0  0  0  0  0
  -29.4970  -12.6390   18.1550 C   0  0  0  0  0  2  0  0  0  0  0  0
  -28.0350  -12.4000   18.5770 C   0  0  0  0  0  2  0  0  0  0  0  0
  -27.6050  -13.3280   19.7420 C   0  0  0  0  0  3  0  0  0  0  0  0
  -28.6530  -13.3750   20.8700 C   0  0  0  0  0  2  0  0  0  0  0  0
  -29.9220  -13.8210   20.2790 N   0  0  0  0  0  0  0  0  0  0  0  0
  -31.6600  -15.1810   20.0290 O   0  0  0  0  0  0  0  0  0  0  0  0
  -25.2220  -13.8820   20.4800 C   0  0  0  0  0  0  0  0  0  0  0  0
  -24.1630  -13.0990   20.8470 C   0  0  0  0  0  0  0  0  0  0  0  0
  -24.6390  -11.7520   20.8240 C   0  0  0  0  0  0  0  0  0  0  0  0
  -26.2720  -13.0130   20.2420 N   0  0  0  0  0  0  0  0  0  0  0  0
  -25.9320  -11.7260   20.5170 N   0  0  0  0  0  0  0  0  0  0  0  0
  -23.9210  -10.4850   21.0170 C   0  0  0  0  0  0  0  0  0  0  0  0
  -24.3490   -9.5280   21.9630 C   0  0  0  0  0  3  0  0  0  0  0  0
  -23.6290   -8.3270   22.1440 C   0  0  0  0  0  3  0  0  0  0  0  0
  -22.4660   -8.0750   21.3770 C   0  0  0  0  0  0  0  0  0  0  0  0
  -22.0570   -9.0200   20.4200 C   0  0  0  0  0  3  0  0  0  0  0  0
  -22.7780  -10.2130   20.2380 C   0  0  0  0  0  3  0  0  0  0  0  0
  -21.7190   -6.9240   21.4650 O   0  0  0  0  0  0  0  0  0  0  0  0
  -21.6530   -6.1960   22.6260 C   0  0  0  0  0  0  0  0  0  0  0  0
  -21.1870   -6.7600   23.8330 C   0  0  0  0  0  3  0  0  0  0  0  0
  -21.0690   -5.9570   24.9860 C   0  0  0  0  0  3  0  0  0  0  0  0
  -21.4070   -4.5920   24.9310 C   0  0  0  0  0  0  0  0  0  0  0  0
  -21.8660   -4.0280   23.7270 C   0  0  0  0  0  3  0  0  0  0  0  0
  -21.9840   -4.8280   22.5780 C   0  0  0  0  0  0  0  0  0  0  0  0
  -22.4070   -4.2730   21.4160 F   0  0  0  0  0  0  0  0  0  0  0  0
  -21.2870   -3.8190   26.0360 F   0  0  0  0  0  0  0  0  0  0  0  0
  -22.7610  -13.5670   21.1110 C   0  0  0  0  0  0  0  0  0  0  0  0
  -22.0320  -12.8640   21.9690 N   0  0  0  0  0  0  0  0  0  0  0  0
  -22.3200  -14.5910   20.5890 O   0  0  0  0  0  0  0  0  0  0  0  0
  -22.4010  -12.0360   22.4120 H   0  0  0  0  0  0  0  0  0  0  0  0
  -21.0910  -13.1600   22.1880 H   0  0  0  0  0  0  0  0  0  0  0  0
  -25.3790  -15.2540   20.3010 N   0  0  0  0  0  0  0  0  0  0  0  0
  -24.6200  -15.9150   20.4180 H   0  0  0  0  0  0  0  0  0  0  0  0
  -26.2500  -15.6880   20.0210 H   0  0  0  0  0  0  0  0  0  0  0  0
  -28.7980  -23.1360   19.9380 C   0  0  0  0  0  2  0  0  0  0  0  0
  -28.0980  -24.5560   20.6420 C   0  0  0  0  0  2  0  0  0  0  0  0
  -28.2730  -26.1040   20.2970 O   0  0  0  0  0  0  0  0  0  0  0  0
  -24.6030  -31.9060   23.2210 C   0  0  0  0  0  0  0  0  0  0  0  0
  -27.2100  -27.1050   20.2810 C   0  0  0  0  0  0  0  0  0  0  0  0
  -23.4210  -30.4840   21.5930 C   0  0  0  0  0  3  0  0  0  0  0  0
  -24.8830  -28.8830   20.2010 C   0  0  0  0  0  0  0  0  0  0  0  0
  -25.9790  -30.7400   21.4440 C   0  0  0  0  0  2  0  0  0  0  0  0
  -26.0620  -29.3330   20.8120 C   0  0  0  0  0  0  0  0  0  0  0  0
  -27.2260  -28.4630   20.8230 C   0  0  0  0  0  3  0  0  0  0  0  0
  -26.0020  -26.7690   19.6340 C   0  0  0  0  0  3  0  0  0  0  0  0
  -24.8710  -27.6170   19.5930 C   0  0  0  0  0  3  0  0  0  0  0  0
  -23.6560  -29.7860   20.2260 C   0  0  0  0  0  2  0  0  0  0  0  0
  -24.6890  -31.0680   22.1400 N   0  0  0  0  0  0  0  0  0  0  0  0
  -23.5120  -32.1940   23.7370 O   0  0  0  0  0  0  0  0  0  0  0  0
  -22.7350  -29.4930   22.5650 C   0  0  0  0  0  0  0  0  0  0  0  0
  -21.4050  -29.3250   22.4390 N   0  0  0  0  0  0  0  0  0  0  0  0
  -23.4020  -28.8720   23.3970 O   0  0  0  0  0  0  0  0  0  0  0  0
  -20.9230  -29.8760   21.7430 H   0  0  0  0  0  0  0  0  0  0  0  0
  -18.0190  -28.1420   22.9620 C   0  0  0  0  0  0  0  0  0  0  0  0
  -20.5810  -28.3950   23.2180 C   0  0  0  0  0  3  0  0  0  0  0  0
  -20.6730  -26.9600   22.6510 C   0  0  0  0  0  2  0  0  0  0  0  0
  -19.5670  -26.6370   21.6410 C   0  0  0  0  0  2  0  0  0  0  0  0
  -18.1870  -26.7900   22.2900 C   0  0  0  0  0  2  0  0  0  0  0  0
  -19.1420  -28.9030   23.3830 C   0  0  0  0  0  0  0  0  0  0  0  0
  -18.9280  -30.1660   23.9760 C   0  0  0  0  0  3  0  0  0  0  0  0
  -17.6260  -30.6700   24.1480 C   0  0  0  0  0  3  0  0  0  0  0  0
  -16.5180  -29.9070   23.7410 C   0  0  0  0  0  3  0  0  0  0  0  0
  -16.7150  -28.6450   23.1550 C   0  0  0  0  0  3  0  0  0  0  0  0
  -25.8730  -32.5560   23.8510 C   0  0  0  0  0  3  0  0  0  0  0  0
  -25.5510  -33.9590   24.1620 N   0  0  0  0  0  0  0  0  0  0  0  0
  -25.8920  -35.0090   23.4030 C   0  0  0  0  0  0  0  0  0  0  0  0
  -26.5730  -34.9000   22.3800 O   0  0  0  0  0  0  0  0  0  0  0  0
  -24.9470  -34.1180   24.9540 H   0  0  0  0  0  0  0  0  0  0  0  0
  -24.1740  -36.8090   23.0150 C   0  0  0  0  0  1  0  0  0  0  0  0
  -25.4010  -36.4020   23.8470 C   0  0  0  0  0  3  0  0  0  0  0  0
  -27.5200  -37.2900   24.7130 C   0  0  0  0  0  1  0  0  0  0  0  0
  -26.4370  -37.4520   23.7480 N   0  0  0  0  0  0  0  0  0  0  0  0
  -26.0300  -38.3750   23.8810 H   0  0  0  0  0  0  0  0  0  0  0  0
  -26.3720  -31.8090   25.1490 C   0  0  1  0  0  0  0  0  0  0  0  0
  -25.2660  -31.5900   26.2080 C   0  0  0  0  0  1  0  0  0  0  0  0
  -26.9620  -30.4240   24.7960 C   0  0  0  0  0  1  0  0  0  0  0  0
  -27.5150  -32.6170   25.8100 C   0  0  0  0  0  1  0  0  0  0  0  0
  1  3  1  0
  1  2  2  0
  2  7  1  0
  3  9  2  0
  4  7  1  0
  4  6  1  0
  5  3  1  0
  5  6  1  0
  7 47  1  0
  8  4  2  0
 10  8  1  0
 11  9  1  0
 12 17  1  0
 13 14  1  0
 13 12  1  0
 15 14  1  0
 15 22  1  0
 15 16  1  0
 17 11  1  0
 17 16  1  0
 18 11  2  0
 19 20  2  0
 20 39  1  0
 21 20  1  0
 21 24  1  0
 22 19  1  0
 22 23  1  0
 23 21  2  0
 24 25  1  0
 25 26  2  0
 27 30  1  0
 27 26  1  0
 28 27  2  0
 29 28  1  0
 29 24  2  0
 30 31  1  0
 31 32  1  0
 32 33  2  0
 34 33  1  0
 34 38  1  0
 35 34  2  0
 36 31  2  0
 36 35  1  0
 37 36  1  0
 39 40  1  0
 40 43  1  0
 40 42  1  0
 41 39  2  0
 44 45  1  0
 44 19  1  0
 46 44  1  0
 47 48  1  0
 49 48  1  0
 50 61  2  0
 51 49  1  0
 51 56  1  0
 52 60  1  0
 52 62  1  0
 53 59  1  0
 53 55  1  0
 54 60  1  0
 55 56  2  0
 55 54  1  0
 57 51  2  0
 58 57  1  0
 58 53  2  0
 59 52  1  0
 60 50  1  0
 62 64  2  0
 63 62  1  0
 65 63  1  0
 66 75  2  0
 66 71  1  0
 67 63  1  0
 67 71  1  0
 68 67  1  0
 69 70  1  0
 69 68  1  0
 70 66  1  0
 71 72  2  0
 72 73  1  0
 74 73  2  0
 75 74  1  0
 76 50  1  0
 76 77  1  0
 76 86  1  0
 77 80  1  0
 78 82  1  0
 78 77  1  0
 79 78  2  0
 82 81  1  0
 84 82  1  0
 84 85  1  0
 84 83  1  0
 86 89  1  1
 86 87  1  0
 88 86  1  0
M  ISO  4   9 100  11 100  48 101  49 101
M  END
>  <TORSDO>  (66) 
F 18

>  <SCORE>  (66) 
-15.853

>  <name>  (66) 
67

>  <ligand_id>  (66) 
67

>  <original_smiles>  (66) 
[H]N=C1C([H])([H])C([H])([H])C(=NC(=O)N2C([H])([H])C([H])([H])C([H])([H])C([H])(n3nc(-c4c([H])c([H])c(Oc5c([H])c([H])c(F)c([H])c5F)c([H])c4[H])c(C(=O)N([H])[H])c3N([H])[H])C2([H])[H])C([H])=C([H])C1([H])C([H])([H])C([H])([H])Oc1c([H])c([H])c2c(c1[H])C([H])([H])N(C(=O)C([H])(N([H])C(=O)C([H])(N([H])C([H])([H])[H])C([H])([H])[H])C(C([H])([H])[H])(C([H])([H])[H])C([H])([H])[H])C([H])(C(=O)N([H])C1([H])c3c([H])c([H])c([H])c([H])c3C([H])([H])C([H])([H])C1([H])[H])C2([H])[H]

>  <smiles>  (66) 
[H]N=C1C([H])([H])C([H])([H])C(=NC(=O)N2C([H])([H])C([H])([H])C([H])([H])C([H])(n3nc(-c4c([H])c([H])c(Oc5c([H])c([H])c(F)c([H])c5F)c([H])c4[H])c(C(=O)N([H])[H])c3N([H])[H])C2([H])[H])C([H])=C([H])C1([H])C([H])([H])C([H])([H])Oc1c([H])c([H])c2c(c1[H])C([H])([H])N(C(=O)C([H])(N([H])C(=O)C([H])(N([H])C([H])([H])[H])C([H])([H])[H])C(C([H])([H])[H])(C([H])([H])[H])C([H])([H])[H])C([H])(C(=O)N([H])C1([H])c3c([H])c([H])c([H])c([H])c3C([H])([H])C([H])([H])C1([H])[H])C2([H])[H]

$$$$
68:0:0
     RDKit          3D

 93102  0  0  1  0  0  0  0  0999 V2000
  -27.6200  -22.9540   20.8240 C   0  0  0  0  0  3  0  0  0  0  0  0
  -28.0080  -21.9500   20.0330 C   0  0  0  0  0  0  0  0  0  0  0  0
  -28.3040  -22.4430   18.6350 C   0  0  0  0  0  3  0  0  0  0  0  0
  -27.9690  -23.9490   18.6710 C   0  0  0  0  0  3  0  0  0  0  0  0
  -27.5110  -24.2770   20.1130 C   0  0  0  0  0  3  0  0  0  0  0  0
  -27.9420  -20.4680   20.4090 C   0  0  0  0  0  2  0  0  0  0  0  0
  -30.7840  -18.6870   18.4890 C   0  0  0  0  0  3  0  0  0  0  0  0
  -29.7020  -19.5410   18.7710 C   0  0  0  0  0  3  0  0  0  0  0  0
  -31.2340  -17.7770   19.4580 C   0  0  0  0  0  3  0  0  0  0  0  0
  -29.5320  -18.5800   21.0010 C   0  0  0  0  0  3  0  0  0  0  0  0
  -29.1020  -19.5360   20.0490 C   0  0  0  0  0  0  0  0  0  0  0  0
  -30.5780  -17.6800   20.7010 C   0  0  0  0  0  0  0  0  0  0  0  0
  -30.9730  -16.5800   21.6820 C   0  0  0  0  0  2  0  0  0  0  0  0
  -30.8980  -14.4040   20.4440 C   0  0  0  0  0  0  0  0  0  0  0  0
  -30.5060  -12.3080   19.2040 C   0  0  0  0  0  2  0  0  0  0  0  0
  -29.5750  -12.5640   18.0050 C   0  0  0  0  0  2  0  0  0  0  0  0
  -28.0970  -12.4670   18.4260 C   0  0  0  0  0  2  0  0  0  0  0  0
  -27.7820  -13.2880   19.7060 C   0  0  0  0  0  3  0  0  0  0  0  0
  -28.8230  -13.0120   20.8110 C   0  0  0  0  0  2  0  0  0  0  0  0
  -30.1640  -13.2760   20.2590 N   0  0  0  0  0  0  0  0  0  0  0  0
  -31.9530  -14.6210   19.8440 O   0  0  0  0  0  0  0  0  0  0  0  0
  -30.4000  -15.2790   21.3300 N   0  0  0  0  0  0  0  0  0  0  0  0
  -29.5430  -15.0170   21.7970 H   0  0  0  0  0  0  0  0  0  0  0  0
  -25.3850  -13.9420   20.3810 C   0  0  0  0  0  0  0  0  0  0  0  0
  -24.3030  -13.1920   20.7550 C   0  0  0  0  0  0  0  0  0  0  0  0
  -24.7410  -11.8340   20.7450 C   0  0  0  0  0  0  0  0  0  0  0  0
  -26.4190  -13.0410   20.1720 N   0  0  0  0  0  0  0  0  0  0  0  0
  -26.0310  -11.7670   20.4420 N   0  0  0  0  0  0  0  0  0  0  0  0
  -23.9920  -10.5880   20.9520 C   0  0  0  0  0  0  0  0  0  0  0  0
  -24.4070   -9.6250   21.8990 C   0  0  0  0  0  3  0  0  0  0  0  0
  -23.6600   -8.4430   22.0940 C   0  0  0  0  0  3  0  0  0  0  0  0
  -22.4830   -8.2140   21.3400 C   0  0  0  0  0  0  0  0  0  0  0  0
  -22.0880   -9.1640   20.3820 C   0  0  0  0  0  3  0  0  0  0  0  0
  -22.8350  -10.3380   20.1870 C   0  0  0  0  0  3  0  0  0  0  0  0
  -21.7090   -7.0830   21.4430 O   0  0  0  0  0  0  0  0  0  0  0  0
  -21.6450   -6.3570   22.6050 C   0  0  0  0  0  0  0  0  0  0  0  0
  -21.2280   -6.9380   23.8220 C   0  0  0  0  0  3  0  0  0  0  0  0
  -21.1100   -6.1400   24.9780 C   0  0  0  0  0  3  0  0  0  0  0  0
  -21.3940   -4.7630   24.9160 C   0  0  0  0  0  0  0  0  0  0  0  0
  -21.8040   -4.1820   23.7030 C   0  0  0  0  0  3  0  0  0  0  0  0
  -21.9260   -4.9770   22.5500 C   0  0  0  0  0  0  0  0  0  0  0  0
  -22.3000   -4.4080   21.3790 F   0  0  0  0  0  0  0  0  0  0  0  0
  -21.2740   -3.9950   26.0240 F   0  0  0  0  0  0  0  0  0  0  0  0
  -22.9130  -13.6970   21.0190 C   0  0  0  0  0  0  0  0  0  0  0  0
  -22.1770  -13.0260   21.8980 N   0  0  0  0  0  0  0  0  0  0  0  0
  -22.4900  -14.7210   20.4830 O   0  0  0  0  0  0  0  0  0  0  0  0
  -22.5330  -12.1980   22.3510 H   0  0  0  0  0  0  0  0  0  0  0  0
  -21.2440  -13.3450   22.1210 H   0  0  0  0  0  0  0  0  0  0  0  0
  -25.5720  -15.3080   20.1870 N   0  0  0  0  0  0  0  0  0  0  0  0
  -24.8200  -15.9800   20.2840 H   0  0  0  0  0  0  0  0  0  0  0  0
  -26.4420  -15.7300   19.8840 H   0  0  0  0  0  0  0  0  0  0  0  0
  -28.2750  -25.4330   20.8140 C   0  0  0  0  0  2  0  0  0  0  0  0
  -28.3420  -26.6870   20.1080 O   0  0  0  0  0  0  0  0  0  0  0  0
  -24.5810  -31.9030   23.2270 C   0  0  0  0  0  0  0  0  0  0  0  0
  -27.1950  -27.4460   20.1270 C   0  0  0  0  0  0  0  0  0  0  0  0
  -23.3710  -30.5000   21.5920 C   0  0  0  0  0  3  0  0  0  0  0  0
  -24.8180  -28.9690   20.1590 C   0  0  0  0  0  0  0  0  0  0  0  0
  -25.9040  -30.8460   21.3980 C   0  0  0  0  0  2  0  0  0  0  0  0
  -25.9810  -29.4770   20.7520 C   0  0  0  0  0  0  0  0  0  0  0  0
  -27.1770  -28.7210   20.7380 C   0  0  0  0  0  3  0  0  0  0  0  0
  -26.0260  -26.9780   19.4920 C   0  0  0  0  0  3  0  0  0  0  0  0
  -24.8350  -27.7180   19.5240 C   0  0  0  0  0  3  0  0  0  0  0  0
  -23.5780  -29.8290   20.2110 C   0  0  0  0  0  2  0  0  0  0  0  0
  -24.6380  -31.0980   22.1290 N   0  0  0  0  0  0  0  0  0  0  0  0
  -23.4990  -32.1790   23.7660 O   0  0  0  0  0  0  0  0  0  0  0  0
  -22.7250  -29.4750   22.5490 C   0  0  0  0  0  0  0  0  0  0  0  0
  -21.3990  -29.2960   22.4250 N   0  0  0  0  0  0  0  0  0  0  0  0
  -23.4100  -28.8430   23.3580 O   0  0  0  0  0  0  0  0  0  0  0  0
  -20.9080  -29.8570   21.7430 H   0  0  0  0  0  0  0  0  0  0  0  0
  -18.0190  -28.1270   22.9480 C   0  0  0  0  0  0  0  0  0  0  0  0
  -20.5820  -28.3610   23.1970 C   0  0  0  0  0  3  0  0  0  0  0  0
  -20.6660  -26.9330   22.6120 C   0  0  0  0  0  2  0  0  0  0  0  0
  -19.5530  -26.6250   21.6060 C   0  0  0  0  0  2  0  0  0  0  0  0
  -18.1780  -26.7790   22.2630 C   0  0  0  0  0  2  0  0  0  0  0  0
  -19.1480  -28.8770   23.3700 C   0  0  0  0  0  0  0  0  0  0  0  0
  -18.9460  -30.1400   23.9680 C   0  0  0  0  0  3  0  0  0  0  0  0
  -17.6480  -30.6520   24.1490 C   0  0  0  0  0  3  0  0  0  0  0  0
  -16.5330  -29.8980   23.7420 C   0  0  0  0  0  3  0  0  0  0  0  0
  -16.7200  -28.6370   23.1470 C   0  0  0  0  0  3  0  0  0  0  0  0
  -25.8670  -32.5330   23.8440 C   0  0  0  0  0  3  0  0  0  0  0  0
  -26.3860  -31.7640   25.1200 C   0  0  1  0  0  0  0  0  0  0  0  0
  -25.2940  -31.5220   26.1890 C   0  0  0  0  0  1  0  0  0  0  0  0
  -26.9730  -30.3880   24.7280 C   0  0  0  0  0  1  0  0  0  0  0  0
  -27.5430  -32.5580   25.7730 C   0  0  0  0  0  1  0  0  0  0  0  0
  -25.5600  -33.9320   24.1680 N   0  0  0  0  0  0  0  0  0  0  0  0
  -25.8960  -34.9790   23.4020 C   0  0  0  0  0  0  0  0  0  0  0  0
  -26.5670  -34.8660   22.3700 O   0  0  0  0  0  0  0  0  0  0  0  0
  -24.9740  -34.0970   24.9720 H   0  0  0  0  0  0  0  0  0  0  0  0
  -24.1750  -36.7710   23.0270 C   0  0  0  0  0  1  0  0  0  0  0  0
  -25.4100  -36.3700   23.8490 C   0  0  0  0  0  3  0  0  0  0  0  0
  -27.5440  -37.2490   24.6870 C   0  0  0  0  0  1  0  0  0  0  0  0
  -26.4470  -37.4210   23.7380 N   0  0  0  0  0  0  0  0  0  0  0  0
  -26.0440  -38.3420   23.8830 H   0  0  0  0  0  0  0  0  0  0  0  0
  2  6  1  0
  2  1  2  0
  3  4  2  0
  3  2  1  0
  4  5  1  0
  5 52  1  0
  5  1  1  0
  7  8  2  0
  7  9  1  0
  8 11  1  0
  9 12  2  0
 11  6  1  0
 11 10  2  0
 12 10  1  0
 12 13  1  0
 14 22  1  0
 15 20  1  0
 16 17  1  0
 16 15  1  0
 18 17  1  0
 18 27  1  0
 18 19  1  0
 20 14  1  0
 20 19  1  0
 21 14  2  0
 22 13  1  0
 22 23  1  0
 24 25  2  0
 25 44  1  0
 26 25  1  0
 26 29  1  0
 27 24  1  0
 27 28  1  0
 28 26  2  0
 29 30  1  0
 30 31  2  0
 32 35  1  0
 32 31  1  0
 33 32  2  0
 34 33  1  0
 34 29  2  0
 35 36  1  0
 36 37  1  0
 37 38  2  0
 39 38  1  0
 39 43  1  0
 40 39  2  0
 41 36  2  0
 41 40  1  0
 42 41  1  0
 44 45  1  0
 45 48  1  0
 45 47  1  0
 46 44  2  0
 49 50  1  0
 49 24  1  0
 51 49  1  0
 53 55  1  0
 53 52  1  0
 54 65  2  0
 55 60  1  0
 56 64  1  0
 56 66  1  0
 57 63  1  0
 57 59  1  0
 58 64  1  0
 59 58  1  0
 60 59  2  0
 61 62  1  0
 61 55  2  0
 62 57  2  0
 63 56  1  0
 64 54  1  0
 66 68  2  0
 67 66  1  0
 69 67  1  0
 70 79  2  0
 70 75  1  0
 71 67  1  0
 71 75  1  0
 72 71  1  0
 73 74  1  0
 73 72  1  0
 74 70  1  0
 75 76  2  0
 76 77  1  0
 78 77  2  0
 79 78  1  0
 80 54  1  0
 80 85  1  0
 80 81  1  0
 81 84  1  1
 81 82  1  0
 83 81  1  0
 85 88  1  0
 86 90  1  0
 86 85  1  0
 87 86  2  0
 90 89  1  0
 92 90  1  0
 92 93  1  0
 92 91  1  0
M  ISO  4  14 100  22 100  52 101  53 101
M  END
>  <TORSDO>  (67) 
F 20

>  <SCORE>  (67) 
-14.021

>  <name>  (67) 
68

>  <ligand_id>  (67) 
68

>  <original_smiles>  (67) 
[H]C1=C(C([H])([H])c2c([H])c([H])c([H])c(C([H])([H])N([H])C(=O)N3C([H])([H])C([H])([H])C([H])([H])C([H])(n4nc(-c5c([H])c([H])c(Oc6c([H])c([H])c(F)c([H])c6F)c([H])c5[H])c(C(=O)N([H])[H])c4N([H])[H])C3([H])[H])c2[H])C([H])([H])C([H])([H])C1([H])C([H])([H])Oc1c([H])c([H])c2c(c1[H])C([H])([H])N(C(=O)C([H])(N([H])C(=O)C([H])(N([H])C([H])([H])[H])C([H])([H])[H])C(C([H])([H])[H])(C([H])([H])[H])C([H])([H])[H])C([H])(C(=O)N([H])C1([H])c3c([H])c([H])c([H])c([H])c3C([H])([H])C([H])([H])C1([H])[H])C2([H])[H]

>  <smiles>  (67) 
[H]C1=C(C([H])([H])c2c([H])c([H])c([H])c(C([H])([H])N([H])C(=O)N3C([H])([H])C([H])([H])C([H])([H])C([H])(n4nc(-c5c([H])c([H])c(Oc6c([H])c([H])c(F)c([H])c6F)c([H])c5[H])c(C(=O)N([H])[H])c4N([H])[H])C3([H])[H])c2[H])C([H])([H])C([H])([H])C1([H])C([H])([H])Oc1c([H])c([H])c2c(c1[H])C([H])([H])N(C(=O)C([H])(N([H])C(=O)C([H])(N([H])C([H])([H])[H])C([H])([H])[H])C(C([H])([H])[H])(C([H])([H])[H])C([H])([H])[H])C([H])(C(=O)N([H])C1([H])c3c([H])c([H])c([H])c([H])c3C([H])([H])C([H])([H])C1([H])[H])C2([H])[H]

$$$$
69:0:0
     RDKit          3D

 85 93  0  0  1  0  0  0  0  0999 V2000
  -28.8540  -20.6640   19.6240 C   0  0  0  0  0  3  0  0  0  0  0  0
  -28.8850  -22.2000   19.9000 C   0  0  0  0  0  3  0  0  0  0  0  0
  -27.6860  -19.9510   18.9750 C   0  0  0  0  0  2  0  0  0  0  0  0
  -27.8060  -18.9860   20.2020 C   0  0  0  0  0  2  0  0  0  0  0  0
  -29.3800  -18.9140   20.2150 C   0  0  0  0  0  3  0  0  0  0  0  0
  -30.2960  -15.8000   20.0250 C   0  0  0  0  0  0  0  0  0  0  0  0
  -30.4570  -13.2350   19.2720 C   0  0  0  0  0  2  0  0  0  0  0  0
  -29.5350  -12.7320   18.1290 C   0  0  0  0  0  2  0  0  0  0  0  0
  -28.1380  -12.3620   18.6590 C   0  0  0  0  0  2  0  0  0  0  0  0
  -27.6220  -13.3930   19.6850 C   0  0  0  0  0  3  0  0  0  0  0  0
  -28.6880  -13.8000   20.7270 C   0  0  0  0  0  2  0  0  0  0  0  0
  -29.7890  -14.4270   19.9600 N   0  0  0  0  0  0  0  0  0  0  0  0
  -31.5380  -15.7260   20.0520 O   0  0  0  0  0  0  0  0  0  0  0  0
  -29.5270  -17.1610   19.8290 N   0  0  0  0  0  0  0  0  0  0  0  0
  -28.6340  -16.8860   19.4410 H   0  0  0  0  0  0  0  0  0  0  0  0
  -25.2660  -13.9020   20.5090 C   0  0  0  0  0  0  0  0  0  0  0  0
  -24.2160  -13.1090   20.8720 C   0  0  0  0  0  0  0  0  0  0  0  0
  -24.6970  -11.7620   20.8260 C   0  0  0  0  0  0  0  0  0  0  0  0
  -26.3230  -13.0430   20.2530 N   0  0  0  0  0  0  0  0  0  0  0  0
  -25.9910  -11.7470   20.5030 N   0  0  0  0  0  0  0  0  0  0  0  0
  -23.9840  -10.4910   21.0130 C   0  0  0  0  0  0  0  0  0  0  0  0
  -24.4180   -9.5320   21.9530 C   0  0  0  0  0  3  0  0  0  0  0  0
  -23.6980   -8.3270   22.1270 C   0  0  0  0  0  3  0  0  0  0  0  0
  -22.5350   -8.0760   21.3650 C   0  0  0  0  0  0  0  0  0  0  0  0
  -22.1210   -9.0250   20.4120 C   0  0  0  0  0  3  0  0  0  0  0  0
  -22.8370  -10.2190   20.2360 C   0  0  0  0  0  3  0  0  0  0  0  0
  -21.7890   -6.9220   21.4480 O   0  0  0  0  0  0  0  0  0  0  0  0
  -21.7140   -6.1970   22.6090 C   0  0  0  0  0  0  0  0  0  0  0  0
  -21.1950   -6.7490   23.8030 C   0  0  0  0  0  3  0  0  0  0  0  0
  -21.0670   -5.9510   24.9550 C   0  0  0  0  0  3  0  0  0  0  0  0
  -21.4560   -4.5950   24.9190 C   0  0  0  0  0  0  0  0  0  0  0  0
  -21.9590   -4.0390   23.7310 C   0  0  0  0  0  3  0  0  0  0  0  0
  -22.0880   -4.8370   22.5800 C   0  0  0  0  0  0  0  0  0  0  0  0
  -22.5620   -4.2900   21.4340 F   0  0  0  0  0  0  0  0  0  0  0  0
  -21.3250   -3.8240   26.0230 F   0  0  0  0  0  0  0  0  0  0  0  0
  -22.8160  -13.5640   21.1510 C   0  0  0  0  0  0  0  0  0  0  0  0
  -22.1040  -12.8650   22.0230 N   0  0  0  0  0  0  0  0  0  0  0  0
  -22.3590  -14.5780   20.6180 O   0  0  0  0  0  0  0  0  0  0  0  0
  -22.4800  -12.0460   22.4770 H   0  0  0  0  0  0  0  0  0  0  0  0
  -21.1630  -13.1620   22.2440 H   0  0  0  0  0  0  0  0  0  0  0  0
  -25.4120  -15.2780   20.3310 N   0  0  0  0  0  0  0  0  0  0  0  0
  -24.6400  -15.9300   20.4380 H   0  0  0  0  0  0  0  0  0  0  0  0
  -26.2670  -15.7240   20.0260 H   0  0  0  0  0  0  0  0  0  0  0  0
  -27.9280  -23.8120   19.9320 C   0  0  0  0  0  3  0  0  0  0  0  0
  -28.1900  -25.5510   20.1540 O   0  0  0  0  0  0  0  0  0  0  0  0
  -24.6830  -31.8580   23.2580 C   0  0  0  0  0  0  0  0  0  0  0  0
  -27.2260  -26.7800   20.1910 C   0  0  0  0  0  0  0  0  0  0  0  0
  -23.4980  -30.4610   21.6220 C   0  0  0  0  0  3  0  0  0  0  0  0
  -24.9430  -28.8060   20.2040 C   0  0  0  0  0  0  0  0  0  0  0  0
  -26.0770  -30.5970   21.5000 C   0  0  0  0  0  2  0  0  0  0  0  0
  -26.1420  -29.1650   20.8310 C   0  0  0  0  0  0  0  0  0  0  0  0
  -27.2670  -28.1750   20.7960 C   0  0  0  0  0  3  0  0  0  0  0  0
  -25.9800  -26.6340   19.5410 C   0  0  0  0  0  3  0  0  0  0  0  0
  -24.8960  -27.5640   19.5480 C   0  0  0  0  0  3  0  0  0  0  0  0
  -23.7400  -29.7590   20.2510 C   0  0  0  0  0  2  0  0  0  0  0  0
  -24.7780  -31.0020   22.1810 N   0  0  0  0  0  0  0  0  0  0  0  0
  -23.5890  -32.1640   23.7630 O   0  0  0  0  0  0  0  0  0  0  0  0
  -22.7720  -29.4900   22.5960 C   0  0  0  0  0  0  0  0  0  0  0  0
  -21.4400  -29.3370   22.4660 N   0  0  0  0  0  0  0  0  0  0  0  0
  -23.4200  -28.8760   23.4470 O   0  0  0  0  0  0  0  0  0  0  0  0
  -20.9650  -29.8820   21.7590 H   0  0  0  0  0  0  0  0  0  0  0  0
  -18.0550  -28.1030   22.9590 C   0  0  0  0  0  0  0  0  0  0  0  0
  -20.6110  -28.3960   23.2350 C   0  0  0  0  0  3  0  0  0  0  0  0
  -20.7270  -26.9610   22.6710 C   0  0  0  0  0  2  0  0  0  0  0  0
  -19.6330  -26.6210   21.6540 C   0  0  0  0  0  2  0  0  0  0  0  0
  -18.2460  -26.7550   22.2900 C   0  0  0  0  0  2  0  0  0  0  0  0
  -19.1620  -28.8810   23.3910 C   0  0  0  0  0  0  0  0  0  0  0  0
  -18.9250  -30.1380   23.9810 C   0  0  0  0  0  3  0  0  0  0  0  0
  -17.6100  -30.6230   24.1450 C   0  0  0  0  0  3  0  0  0  0  0  0
  -16.5180  -29.8420   23.7260 C   0  0  0  0  0  3  0  0  0  0  0  0
  -16.7390  -28.5860   23.1410 C   0  0  0  0  0  3  0  0  0  0  0  0
  -25.9430  -32.5100   23.9030 C   0  0  0  0  0  3  0  0  0  0  0  0
  -25.6330  -33.9200   24.2130 N   0  0  0  0  0  0  0  0  0  0  0  0
  -25.9690  -34.9730   23.4560 C   0  0  0  0  0  0  0  0  0  0  0  0
  -26.6310  -34.8610   22.4210 O   0  0  0  0  0  0  0  0  0  0  0  0
  -25.0470  -34.0810   25.0190 H   0  0  0  0  0  0  0  0  0  0  0  0
  -24.2560  -36.7910   23.1170 C   0  0  0  0  0  1  0  0  0  0  0  0
  -25.5040  -36.3720   23.9130 C   0  0  0  0  0  3  0  0  0  0  0  0
  -27.6480  -37.2570   24.7200 C   0  0  0  0  0  1  0  0  0  0  0  0
  -26.5460  -37.4140   23.7770 N   0  0  0  0  0  0  0  0  0  0  0  0
  -26.1480  -38.3400   23.9010 H   0  0  0  0  0  0  0  0  0  0  0  0
  -26.4210  -31.7660   25.2120 C   0  0  1  0  0  0  0  0  0  0  0  0
  -25.3030  -31.5670   26.2620 C   0  0  0  0  0  1  0  0  0  0  0  0
  -26.9990  -30.3720   24.8820 C   0  0  0  0  0  1  0  0  0  0  0  0
  -27.5630  -32.5650   25.8810 C   0  0  0  0  0  1  0  0  0  0  0  0
  1  2  1  0
  1  5  1  0
  2 44  2  0
  3  1  1  0
  3  4  1  0
  4  5  1  0
  5 14  1  0
  6 13  2  0
  7 12  1  0
  8  9  1  0
  8  7  1  0
 10  9  1  0
 10 19  1  0
 10 11  1  0
 12  6  1  0
 12 11  1  0
 14  6  1  0
 15 14  1  0
 16 17  2  0
 17 36  1  0
 18 17  1  0
 18 21  1  0
 19 20  1  0
 19 16  1  0
 20 18  2  0
 21 22  1  0
 22 23  2  0
 24 27  1  0
 24 23  1  0
 25 24  2  0
 26 25  1  0
 26 21  2  0
 27 28  1  0
 28 29  1  0
 29 30  2  0
 31 30  1  0
 31 35  1  0
 32 31  2  0
 33 28  2  0
 33 32  1  0
 34 33  1  0
 36 37  1  0
 37 40  1  0
 37 39  1  0
 38 36  2  0
 41 42  1  0
 41 16  1  0
 43 41  1  0
 44 45  1  0
 45 47  1  0
 46 57  2  0
 47 52  1  0
 48 56  1  0
 48 58  1  0
 49 55  1  0
 49 51  1  0
 50 56  1  0
 51 50  1  0
 52 51  2  0
 53 54  1  0
 53 47  2  0
 54 49  2  0
 55 48  1  0
 56 46  1  0
 58 60  2  0
 59 58  1  0
 61 59  1  0
 62 71  2  0
 62 67  1  0
 63 59  1  0
 63 67  1  0
 64 63  1  0
 65 66  1  0
 65 64  1  0
 66 62  1  0
 67 68  2  0
 68 69  1  0
 70 69  2  0
 71 70  1  0
 72 46  1  0
 72 73  1  0
 72 82  1  0
 73 76  1  0
 74 78  1  0
 74 73  1  0
 75 74  2  0
 78 77  1  0
 80 81  1  0
 80 78  1  0
 80 79  1  0
 82 85  1  1
 82 83  1  0
 84 82  1  0
M  ISO  4   6 100  14 100  44 101  45 101
M  END
>  <TORSDO>  (68) 
F 17

>  <SCORE>  (68) 
-16.398

>  <name>  (68) 
69

>  <ligand_id>  (68) 
69

>  <original_smiles>  (68) 
[H]C(=C1C([H])([H])C([H])([H])C1([H])N([H])C(=O)N1C([H])([H])C([H])([H])C([H])([H])C([H])(n2nc(-c3c([H])c([H])c(Oc4c([H])c([H])c(F)c([H])c4F)c([H])c3[H])c(C(=O)N([H])[H])c2N([H])[H])C1([H])[H])C([H])([H])Oc1c([H])c([H])c2c(c1[H])C([H])([H])N(C(=O)C([H])(N([H])C(=O)C([H])(N([H])C([H])([H])[H])C([H])([H])[H])C(C([H])([H])[H])(C([H])([H])[H])C([H])([H])[H])C([H])(C(=O)N([H])C1([H])c3c([H])c([H])c([H])c([H])c3C([H])([H])C([H])([H])C1([H])[H])C2([H])[H]

>  <smiles>  (68) 
[H]C(=C1C([H])([H])C([H])([H])C1([H])N([H])C(=O)N1C([H])([H])C([H])([H])C([H])([H])C([H])(n2nc(-c3c([H])c([H])c(Oc4c([H])c([H])c(F)c([H])c4F)c([H])c3[H])c(C(=O)N([H])[H])c2N([H])[H])C1([H])[H])C([H])([H])Oc1c([H])c([H])c2c(c1[H])C([H])([H])N(C(=O)C([H])(N([H])C(=O)C([H])(N([H])C([H])([H])[H])C([H])([H])[H])C(C([H])([H])[H])(C([H])([H])[H])C([H])([H])[H])C([H])(C(=O)N([H])C1([H])c3c([H])c([H])c([H])c([H])c3C([H])([H])C([H])([H])C1([H])[H])C2([H])[H]

$$$$
70:0:0
     RDKit          3D

 90 99  0  0  1  0  0  0  0  0999 V2000
  -30.9390  -20.7150   19.1810 C   0  0  0  0  0  2  0  0  0  0  0  0
  -29.9520  -21.5830   18.8920 C   0  0  0  0  0  2  0  0  0  0  0  0
  -28.7580  -18.7790   20.3860 C   0  0  0  0  0  0  0  0  0  0  0  0
  -31.1160  -18.4550   20.5550 C   0  0  0  0  0  2  0  0  0  0  0  0
  -30.7750  -20.0070   20.5120 C   0  0  0  0  0  3  0  0  0  0  0  0
  -28.8670  -21.6850   19.9470 C   0  0  0  0  0  3  0  0  0  0  0  0
  -29.2720  -20.2700   20.7790 C   0  0  0  0  0  3  0  0  0  0  0  0
  -29.8900  -17.6490   20.0740 C   0  0  0  0  0  3  0  0  0  0  0  0
  -27.5520  -18.5290   20.3450 O   0  0  0  0  0  0  0  0  0  0  0  0
  -30.5090  -14.9510   20.2970 C   0  0  0  0  0  0  0  0  0  0  0  0
  -30.3710  -12.5980   19.3670 C   0  0  0  0  0  2  0  0  0  0  0  0
  -29.4340  -12.5720   18.1370 C   0  0  0  0  0  2  0  0  0  0  0  0
  -27.9690  -12.3750   18.5720 C   0  0  0  0  0  2  0  0  0  0  0  0
  -27.5770  -13.2930   19.7610 C   0  0  0  0  0  3  0  0  0  0  0  0
  -28.6390  -13.2890   20.8830 C   0  0  0  0  0  2  0  0  0  0  0  0
  -29.9130  -13.6910   20.2750 N   0  0  0  0  0  0  0  0  0  0  0  0
  -31.6920  -15.0200   19.9420 O   0  0  0  0  0  0  0  0  0  0  0  0
  -29.7420  -16.1290   20.5120 N   0  0  0  0  0  0  0  0  0  0  0  0
  -28.8120  -15.9230   20.8430 H   0  0  0  0  0  0  0  0  0  0  0  0
  -25.1990  -13.8740   20.5080 C   0  0  0  0  0  0  0  0  0  0  0  0
  -24.1370  -13.1010   20.8840 C   0  0  0  0  0  0  0  0  0  0  0  0
  -24.6000  -11.7500   20.8540 C   0  0  0  0  0  0  0  0  0  0  0  0
  -26.2400  -12.9950   20.2640 N   0  0  0  0  0  0  0  0  0  0  0  0
  -25.8890  -11.7120   20.5380 N   0  0  0  0  0  0  0  0  0  0  0  0
  -23.8710  -10.4880   21.0500 C   0  0  0  0  0  0  0  0  0  0  0  0
  -24.3150   -9.5140   21.9700 C   0  0  0  0  0  3  0  0  0  0  0  0
  -23.5850   -8.3200   22.1560 C   0  0  0  0  0  3  0  0  0  0  0  0
  -22.3980   -8.0910   21.4200 C   0  0  0  0  0  0  0  0  0  0  0  0
  -21.9730   -9.0560   20.4890 C   0  0  0  0  0  3  0  0  0  0  0  0
  -22.7030  -10.2410   20.3010 C   0  0  0  0  0  3  0  0  0  0  0  0
  -21.6390   -6.9500   21.5150 O   0  0  0  0  0  0  0  0  0  0  0  0
  -21.6210   -6.1900   22.6570 C   0  0  0  0  0  0  0  0  0  0  0  0
  -21.2510   -6.7340   23.9070 C   0  0  0  0  0  3  0  0  0  0  0  0
  -21.1780   -5.9020   25.0420 C   0  0  0  0  0  3  0  0  0  0  0  0
  -21.4650   -4.5290   24.9290 C   0  0  0  0  0  0  0  0  0  0  0  0
  -21.8280   -3.9850   23.6840 C   0  0  0  0  0  3  0  0  0  0  0  0
  -21.9020   -4.8130   22.5510 C   0  0  0  0  0  0  0  0  0  0  0  0
  -22.2310   -4.2810   21.3500 F   0  0  0  0  0  0  0  0  0  0  0  0
  -21.3880   -3.7280   26.0170 F   0  0  0  0  0  0  0  0  0  0  0  0
  -22.7400  -13.5810   21.1580 C   0  0  0  0  0  0  0  0  0  0  0  0
  -22.0150  -12.8910   22.0300 N   0  0  0  0  0  0  0  0  0  0  0  0
  -22.3030  -14.6050   20.6350 O   0  0  0  0  0  0  0  0  0  0  0  0
  -22.3830  -12.0640   22.4770 H   0  0  0  0  0  0  0  0  0  0  0  0
  -21.0790  -13.1950   22.2570 H   0  0  0  0  0  0  0  0  0  0  0  0
  -25.3620  -15.2460   20.3270 N   0  0  0  0  0  0  0  0  0  0  0  0
  -24.5940  -15.8970   20.4510 H   0  0  0  0  0  0  0  0  0  0  0  0
  -26.2000  -15.6920   19.9780 H   0  0  0  0  0  0  0  0  0  0  0  0
  -28.8360  -23.2700   20.5660 C   0  0  0  0  0  3  0  0  0  0  0  0
  -28.0680  -24.6270   19.8990 C   0  0  0  0  0  3  0  0  0  0  0  0
  -28.2420  -26.1420   20.2550 O   0  0  0  0  0  0  0  0  0  0  0  0
  -24.6450  -31.8570   23.2100 C   0  0  0  0  0  0  0  0  0  0  0  0
  -27.1890  -27.1290   20.1620 C   0  0  0  0  0  0  0  0  0  0  0  0
  -23.4290  -30.4620   21.5810 C   0  0  0  0  0  3  0  0  0  0  0  0
  -24.8630  -28.8850   20.1430 C   0  0  0  0  0  0  0  0  0  0  0  0
  -25.9830  -30.7190   21.3990 C   0  0  0  0  0  2  0  0  0  0  0  0
  -26.0480  -29.3270   20.7460 C   0  0  0  0  0  0  0  0  0  0  0  0
  -27.2070  -28.4630   20.7420 C   0  0  0  0  0  3  0  0  0  0  0  0
  -25.9830  -26.8000   19.5030 C   0  0  0  0  0  3  0  0  0  0  0  0
  -24.8450  -27.6350   19.5050 C   0  0  0  0  0  3  0  0  0  0  0  0
  -23.6370  -29.7840   20.2010 C   0  0  0  0  0  2  0  0  0  0  0  0
  -24.7060  -31.0350   22.1170 N   0  0  0  0  0  0  0  0  0  0  0  0
  -23.5640  -32.1440   23.7470 O   0  0  0  0  0  0  0  0  0  0  0  0
  -22.7560  -29.4570   22.5500 C   0  0  0  0  0  0  0  0  0  0  0  0
  -21.4260  -29.2910   22.4360 N   0  0  0  0  0  0  0  0  0  0  0  0
  -23.4330  -28.8290   23.3680 O   0  0  0  0  0  0  0  0  0  0  0  0
  -20.9360  -29.8480   21.7490 H   0  0  0  0  0  0  0  0  0  0  0  0
  -18.0480  -28.0940   22.9620 C   0  0  0  0  0  0  0  0  0  0  0  0
  -20.6090  -28.3570   23.2150 C   0  0  0  0  0  3  0  0  0  0  0  0
  -20.7070  -26.9220   22.6470 C   0  0  0  0  0  2  0  0  0  0  0  0
  -19.6000  -26.5950   21.6390 C   0  0  0  0  0  2  0  0  0  0  0  0
  -18.2220  -26.7430   22.2890 C   0  0  0  0  0  2  0  0  0  0  0  0
  -19.1680  -28.8590   23.3820 C   0  0  0  0  0  0  0  0  0  0  0  0
  -18.9510  -30.1230   23.9730 C   0  0  0  0  0  3  0  0  0  0  0  0
  -17.6470  -30.6220   24.1470 C   0  0  0  0  0  3  0  0  0  0  0  0
  -16.5410  -29.8550   23.7410 C   0  0  0  0  0  3  0  0  0  0  0  0
  -16.7420  -28.5930   23.1550 C   0  0  0  0  0  3  0  0  0  0  0  0
  -25.9290  -32.4900   23.8260 C   0  0  0  0  0  3  0  0  0  0  0  0
  -25.6170  -33.8860   24.1720 N   0  0  0  0  0  0  0  0  0  0  0  0
  -25.9360  -34.9500   23.4220 C   0  0  0  0  0  0  0  0  0  0  0  0
  -26.5890  -34.8580   22.3790 O   0  0  0  0  0  0  0  0  0  0  0  0
  -25.0350  -34.0310   24.9840 H   0  0  0  0  0  0  0  0  0  0  0  0
  -24.1940  -36.7430   23.1250 C   0  0  0  0  0  1  0  0  0  0  0  0
  -25.4560  -36.3340   23.9030 C   0  0  0  0  0  3  0  0  0  0  0  0
  -27.6070  -37.2190   24.6900 C   0  0  0  0  0  1  0  0  0  0  0  0
  -26.4820  -37.3910   23.7760 N   0  0  0  0  0  0  0  0  0  0  0  0
  -26.0760  -38.3090   23.9410 H   0  0  0  0  0  0  0  0  0  0  0  0
  -26.4550  -31.7140   25.0980 C   0  0  1  0  0  0  0  0  0  0  0  0
  -25.3700  -31.4770   26.1740 C   0  0  0  0  0  1  0  0  0  0  0  0
  -27.0320  -30.3370   24.7020 C   0  0  0  0  0  1  0  0  0  0  0  0
  -27.6130  -32.5050   25.7500 C   0  0  0  0  0  1  0  0  0  0  0  0
  2  1  1  0
  2  6  1  0
  5  1  1  0
  5  4  1  0
  5  7  1  0
  6 48  1  0
  6  7  1  0
  7  3  1  0
  8  3  1  0
  8 18  1  0
  8  4  1  0
  9  3  2  0
 10 18  1  0
 11 16  1  0
 12 13  1  0
 12 11  1  0
 14 13  1  0
 14 23  1  0
 14 15  1  0
 16 10  1  0
 16 15  1  0
 17 10  2  0
 18 19  1  0
 20 21  2  0
 21 40  1  0
 22 21  1  0
 22 25  1  0
 23 20  1  0
 23 24  1  0
 24 22  2  0
 25 26  1  0
 26 27  2  0
 28 31  1  0
 28 27  1  0
 29 28  2  0
 30 29  1  0
 30 25  2  0
 31 32  1  0
 32 33  1  0
 33 34  2  0
 35 34  1  0
 35 39  1  0
 36 35  2  0
 37 32  2  0
 37 36  1  0
 38 37  1  0
 40 41  1  0
 41 44  1  0
 41 43  1  0
 42 40  2  0
 45 46  1  0
 45 20  1  0
 47 45  1  0
 49 50  1  0
 49 48  2  0
 51 62  2  0
 52 50  1  0
 52 57  1  0
 53 61  1  0
 53 63  1  0
 54 60  1  0
 54 56  1  0
 55 61  1  0
 56 55  1  0
 57 56  2  0
 58 59  1  0
 58 52  2  0
 59 54  2  0
 60 53  1  0
 61 51  1  0
 63 65  2  0
 64 63  1  0
 66 64  1  0
 67 76  2  0
 67 72  1  0
 68 64  1  0
 68 72  1  0
 69 68  1  0
 70 71  1  0
 70 69  1  0
 71 67  1  0
 72 73  2  0
 73 74  1  0
 75 74  2  0
 76 75  1  0
 77 51  1  0
 77 78  1  0
 77 87  1  0
 78 81  1  0
 79 83  1  0
 79 78  1  0
 80 79  2  0
 83 82  1  0
 85 83  1  0
 85 86  1  0
 85 84  1  0
 87 90  1  1
 87 88  1  0
 89 87  1  0
M  ISO  4  10 100  18 100  49 101  50 101
M  END
>  <TORSDO>  (69) 
F 18

>  <SCORE>  (69) 
-15.897

>  <name>  (69) 
70

>  <ligand_id>  (69) 
70

>  <original_smiles>  (69) 
[H]C1=C([H])C2([H])C([H])([H])C([H])(N([H])C(=O)N3C([H])([H])C([H])([H])C([H])([H])C([H])(n4nc(-c5c([H])c([H])c(Oc6c([H])c([H])c(F)c([H])c6F)c([H])c5[H])c(C(=O)N([H])[H])c4N([H])[H])C3([H])[H])C(=O)C2([H])C1([H])C([H])([H])C([H])([H])Oc1c([H])c([H])c2c(c1[H])C([H])([H])N(C(=O)C([H])(N([H])C(=O)C([H])(N([H])C([H])([H])[H])C([H])([H])[H])C(C([H])([H])[H])(C([H])([H])[H])C([H])([H])[H])C([H])(C(=O)N([H])C1([H])c3c([H])c([H])c([H])c([H])c3C([H])([H])C([H])([H])C1([H])[H])C2([H])[H]

>  <smiles>  (69) 
[H]C1=C([H])C2([H])C([H])([H])C([H])(N([H])C(=O)N3C([H])([H])C([H])([H])C([H])([H])C([H])(n4nc(-c5c([H])c([H])c(Oc6c([H])c([H])c(F)c([H])c6F)c([H])c5[H])c(C(=O)N([H])[H])c4N([H])[H])C3([H])[H])C(=O)C2([H])C1([H])C([H])([H])C([H])([H])Oc1c([H])c([H])c2c(c1[H])C([H])([H])N(C(=O)C([H])(N([H])C(=O)C([H])(N([H])C([H])([H])[H])C([H])([H])[H])C(C([H])([H])[H])(C([H])([H])[H])C([H])([H])[H])C([H])(C(=O)N([H])C1([H])c3c([H])c([H])c([H])c([H])c3C([H])([H])C([H])([H])C1([H])[H])C2([H])[H]

$$$$
71:0:0
     RDKit          3D

 91 99  0  0  1  0  0  0  0  0999 V2000
  -30.5630  -18.6160   21.4200 C   0  0  0  0  0  0  0  0  0  0  0  0
  -29.6650  -19.7780   21.9910 C   0  0  0  0  0  2  0  0  0  0  0  0
  -29.8340  -21.2740   21.4810 C   0  0  0  0  0  2  0  0  0  0  0  0
  -29.2090  -19.0370   19.3430 C   0  0  0  0  0  2  0  0  0  0  0  0
  -30.3040  -17.9900   20.0070 C   0  0  0  0  0  3  0  0  0  0  0  0
  -29.0630  -21.6950   20.1810 C   0  0  0  0  0  3  0  0  0  0  0  0
  -29.4870  -20.5840   19.1690 N   0  0  0  0  0  4  0  0  0  0  0  0
  -31.4750  -18.1890   22.1320 O   0  0  0  0  0  0  0  0  0  0  0  0
  -28.9910  -20.8190   18.3220 H   0  0  0  0  0  0  0  0  0  0  0  0
  -30.4590  -20.7080   18.9390 H   0  0  0  0  0  0  0  0  0  0  0  0
  -30.7990  -15.2250   19.8870 C   0  0  0  0  0  0  0  0  0  0  0  0
  -30.6650  -12.8540   18.9610 C   0  0  0  0  0  2  0  0  0  0  0  0
  -29.6650  -12.7630   17.7830 C   0  0  0  0  0  2  0  0  0  0  0  0
  -28.2310  -12.5390   18.3000 C   0  0  0  0  0  2  0  0  0  0  0  0
  -27.8780  -13.4720   19.4870 C   0  0  0  0  0  3  0  0  0  0  0  0
  -28.9930  -13.5130   20.5520 C   0  0  0  0  0  2  0  0  0  0  0  0
  -30.2160  -13.9530   19.8680 N   0  0  0  0  0  0  0  0  0  0  0  0
  -31.9850  -15.2900   19.5450 O   0  0  0  0  0  0  0  0  0  0  0  0
  -30.0150  -16.4100   20.0700 N   0  0  0  0  0  0  0  0  0  0  0  0
  -29.0640  -16.1990   20.3270 H   0  0  0  0  0  0  0  0  0  0  0  0
  -25.5570  -14.0370   20.4000 C   0  0  0  0  0  0  0  0  0  0  0  0
  -24.5150  -13.2580   20.8160 C   0  0  0  0  0  0  0  0  0  0  0  0
  -24.9660  -11.9050   20.7130 C   0  0  0  0  0  0  0  0  0  0  0  0
  -26.5750  -13.1620   20.0630 N   0  0  0  0  0  0  0  0  0  0  0  0
  -26.2340  -11.8720   20.3170 N   0  0  0  0  0  0  0  0  0  0  0  0
  -24.2420  -10.6420   20.9090 C   0  0  0  0  0  0  0  0  0  0  0  0
  -24.6650   -9.6870   21.8580 C   0  0  0  0  0  3  0  0  0  0  0  0
  -23.9410   -8.4900   22.0410 C   0  0  0  0  0  3  0  0  0  0  0  0
  -22.7780   -8.2400   21.2730 C   0  0  0  0  0  0  0  0  0  0  0  0
  -22.3740   -9.1840   20.3120 C   0  0  0  0  0  3  0  0  0  0  0  0
  -23.1000  -10.3720   20.1280 C   0  0  0  0  0  3  0  0  0  0  0  0
  -22.0250   -7.0950   21.3660 O   0  0  0  0  0  0  0  0  0  0  0  0
  -21.8950   -6.4120   22.5490 C   0  0  0  0  0  0  0  0  0  0  0  0
  -21.2650   -6.9840   23.6760 C   0  0  0  0  0  3  0  0  0  0  0  0
  -21.0920   -6.2210   24.8490 C   0  0  0  0  0  3  0  0  0  0  0  0
  -21.5400   -4.8880   24.8940 C   0  0  0  0  0  0  0  0  0  0  0  0
  -22.1610   -4.3150   23.7710 C   0  0  0  0  0  3  0  0  0  0  0  0
  -22.3360   -5.0740   22.6010 C   0  0  0  0  0  0  0  0  0  0  0  0
  -22.9180   -4.5090   21.5140 F   0  0  0  0  0  0  0  0  0  0  0  0
  -21.3660   -4.1520   26.0170 F   0  0  0  0  0  0  0  0  0  0  0  0
  -23.1410  -13.7350   21.1890 C   0  0  0  0  0  0  0  0  0  0  0  0
  -22.4640  -13.0190   22.0790 N   0  0  0  0  0  0  0  0  0  0  0  0
  -22.6810  -14.7770   20.7240 O   0  0  0  0  0  0  0  0  0  0  0  0
  -22.8520  -12.1750   22.4730 H   0  0  0  0  0  0  0  0  0  0  0  0
  -21.5460  -13.3210   22.3720 H   0  0  0  0  0  0  0  0  0  0  0  0
  -25.7190  -15.4120   20.2500 N   0  0  0  0  0  0  0  0  0  0  0  0
  -24.9450  -16.0530   20.3910 H   0  0  0  0  0  0  0  0  0  0  0  0
  -26.5080  -15.8400   19.7850 H   0  0  0  0  0  0  0  0  0  0  0  0
  -29.1930  -23.3660   19.7420 C   0  0  0  0  0  3  0  0  0  0  0  0
  -28.2350  -24.7220   20.1760 C   0  0  0  0  0  3  0  0  0  0  0  0
  -28.4320  -26.2650   19.8670 O   0  0  0  0  0  0  0  0  0  0  0  0
  -24.6930  -31.8090   23.1060 C   0  0  0  0  0  0  0  0  0  0  0  0
  -27.3540  -27.2420   19.8870 C   0  0  0  0  0  0  0  0  0  0  0  0
  -23.5140  -30.4440   21.4300 C   0  0  0  0  0  3  0  0  0  0  0  0
  -24.9860  -28.9560   19.9350 C   0  0  0  0  0  0  0  0  0  0  0  0
  -26.0620  -30.7730   21.2510 C   0  0  0  0  0  2  0  0  0  0  0  0
  -26.1630  -29.4050   20.5470 C   0  0  0  0  0  0  0  0  0  0  0  0
  -27.3480  -28.5680   20.5010 C   0  0  0  0  0  3  0  0  0  0  0  0
  -26.1480  -26.9110   19.2330 C   0  0  0  0  0  3  0  0  0  0  0  0
  -24.9930  -27.7250   19.2620 C   0  0  0  0  0  3  0  0  0  0  0  0
  -23.7390  -29.8250   20.0250 C   0  0  0  0  0  2  0  0  0  0  0  0
  -24.7780  -31.0310   21.9840 N   0  0  0  0  0  0  0  0  0  0  0  0
  -23.6040  -32.0420   23.6550 O   0  0  0  0  0  0  0  0  0  0  0  0
  -22.8710  -29.3850   22.3610 C   0  0  0  0  0  0  0  0  0  0  0  0
  -21.5530  -29.1600   22.2230 N   0  0  0  0  0  0  0  0  0  0  0  0
  -23.5650  -28.7680   23.1750 O   0  0  0  0  0  0  0  0  0  0  0  0
  -21.0450  -29.7120   21.5450 H   0  0  0  0  0  0  0  0  0  0  0  0
  -18.2160  -27.8290   22.7080 C   0  0  0  0  0  0  0  0  0  0  0  0
  -20.7680  -28.1670   22.9640 C   0  0  0  0  0  3  0  0  0  0  0  0
  -20.9110  -26.7600   22.3370 C   0  0  0  0  0  2  0  0  0  0  0  0
  -19.8100  -26.4410   21.3190 C   0  0  0  0  0  2  0  0  0  0  0  0
  -18.4300  -26.5150   21.9770 C   0  0  0  0  0  2  0  0  0  0  0  0
  -19.3120  -28.6140   23.1560 C   0  0  0  0  0  0  0  0  0  0  0  0
  -19.0540  -29.8430   23.7990 C   0  0  0  0  0  3  0  0  0  0  0  0
  -17.7360  -30.2910   23.9990 C   0  0  0  0  0  3  0  0  0  0  0  0
  -16.6540  -29.5060   23.5640 C   0  0  0  0  0  3  0  0  0  0  0  0
  -16.8940  -28.2760   22.9250 C   0  0  0  0  0  3  0  0  0  0  0  0
  -25.9570  -32.4600   23.7450 C   0  0  0  0  0  3  0  0  0  0  0  0
  -25.6130  -33.8440   24.1110 N   0  0  0  0  0  0  0  0  0  0  0  0
  -25.9270  -34.9280   23.3890 C   0  0  0  0  0  0  0  0  0  0  0  0
  -26.6020  -34.8700   22.3580 O   0  0  0  0  0  0  0  0  0  0  0  0
  -25.0120  -33.9620   24.9130 H   0  0  0  0  0  0  0  0  0  0  0  0
  -24.1870  -36.7180   23.0630 C   0  0  0  0  0  1  0  0  0  0  0  0
  -25.4120  -36.2940   23.8890 C   0  0  0  0  0  3  0  0  0  0  0  0
  -27.5000  -37.1830   24.8270 C   0  0  0  0  0  1  0  0  0  0  0  0
  -26.4350  -37.3620   23.8440 N   0  0  0  0  0  0  0  0  0  0  0  0
  -26.0100  -38.2730   24.0000 H   0  0  0  0  0  0  0  0  0  0  0  0
  -26.4850  -31.6760   25.0100 C   0  0  1  0  0  0  0  0  0  0  0  0
  -25.3840  -31.3550   26.0490 C   0  0  0  0  0  1  0  0  0  0  0  0
  -27.1450  -30.3420   24.5940 C   0  0  0  0  0  1  0  0  0  0  0  0
  -27.5810  -32.5070   25.7180 C   0  0  0  0  0  1  0  0  0  0  0  0
  1  2  1  0
  1  8  2  0
  3  2  1  0
  4  5  1  0
  5 19  1  0
  5  1  1  0
  6 49  1  0
  6  3  1  0
  7  4  1  0
  7  6  1  0
  9  7  1  0
 10  7  1  0
 11 19  1  0
 12 17  1  0
 13 14  1  0
 13 12  1  0
 15 14  1  0
 15 24  1  0
 15 16  1  0
 17 11  1  0
 17 16  1  0
 18 11  2  0
 19 20  1  0
 21 22  2  0
 22 41  1  0
 23 22  1  0
 23 26  1  0
 24 25  1  0
 24 21  1  0
 25 23  2  0
 26 27  1  0
 27 28  2  0
 29 32  1  0
 29 28  1  0
 30 29  2  0
 31 30  1  0
 31 26  2  0
 32 33  1  0
 33 38  2  0
 33 34  1  0
 34 35  2  0
 35 36  1  0
 36 40  1  0
 37 36  2  0
 38 37  1  0
 39 38  1  0
 41 42  1  0
 42 45  1  0
 42 44  1  0
 43 41  2  0
 46 47  1  0
 46 21  1  0
 48 46  1  0
 49 50  2  0
 51 53  1  0
 51 50  1  0
 52 63  2  0
 53 58  1  0
 54 62  1  0
 54 64  1  0
 55 61  1  0
 55 57  1  0
 56 62  1  0
 57 56  1  0
 58 57  2  0
 59 60  1  0
 59 53  2  0
 60 55  2  0
 61 54  1  0
 62 52  1  0
 64 66  2  0
 65 64  1  0
 67 65  1  0
 68 77  2  0
 68 73  1  0
 69 65  1  0
 69 73  1  0
 70 69  1  0
 71 72  1  0
 71 70  1  0
 72 68  1  0
 73 74  2  0
 74 75  1  0
 76 75  2  0
 77 76  1  0
 78 52  1  0
 78 79  1  0
 78 88  1  0
 79 82  1  0
 80 84  1  0
 80 79  1  0
 81 80  2  0
 84 83  1  0
 86 84  1  0
 86 87  1  0
 86 85  1  0
 88 91  1  1
 88 89  1  0
 90 88  1  0
M  ISO  4  11 100  19 100  50 101  51 101
M  END
>  <TORSDO>  (70) 
F 18

>  <SCORE>  (70) 
-14.431

>  <name>  (70) 
71

>  <ligand_id>  (70) 
71

>  <original_smiles>  (70) 
[H]c1c([H])c([H])c2c(c1[H])C([H])([H])C([H])([H])C([H])([H])C2([H])N([H])C(=O)C1([H])N(C(=O)C([H])(N([H])C(=O)C([H])(N([H])C([H])([H])[H])C([H])([H])[H])C(C([H])([H])[H])(C([H])([H])[H])C([H])([H])[H])C([H])([H])c2c([H])c(OC([H])([H])C([H])([H])C3([H])C([H])([H])C([H])([H])C(=O)C([H])(N([H])C(=O)N4C([H])([H])C([H])([H])C([H])([H])C([H])(n5nc(-c6c([H])c([H])c(Oc7c([H])c([H])c(F)c([H])c7F)c([H])c6[H])c(C(=O)N([H])[H])c5N([H])[H])C4([H])[H])C([H])([H])[N+]3([H])[H])c([H])c([H])c2C1([H])[H]

>  <smiles>  (70) 
[H]c1c([H])c([H])c2c(c1[H])C([H])([H])C([H])([H])C([H])([H])C2([H])N([H])C(=O)C1([H])N(C(=O)C([H])(N([H])C(=O)C([H])(N([H])C([H])([H])[H])C([H])([H])[H])C(C([H])([H])[H])(C([H])([H])[H])C([H])([H])[H])C([H])([H])c2c([H])c(OC([H])([H])C([H])([H])C3([H])C([H])([H])C([H])([H])C(=O)C([H])(N([H])C(=O)N4C([H])([H])C([H])([H])C([H])([H])C([H])(n5nc(-c6c([H])c([H])c(Oc7c([H])c([H])c(F)c([H])c7F)c([H])c6[H])c(C(=O)N([H])[H])c5N([H])[H])C4([H])[H])C([H])([H])[N+]3([H])[H])c([H])c([H])c2C1([H])[H]

$$$$
72:0:0
     RDKit          3D

 88 97  0  0  1  0  0  0  0  0999 V2000
  -28.6660  -21.9070   20.7150 N   0  0  0  0  0  4  0  0  0  0  0  0
  -27.7720  -21.6840   21.1300 H   0  0  0  0  0  0  0  0  0  0  0  0
  -29.3010  -22.0200   21.4890 H   0  0  0  0  0  0  0  0  0  0  0  0
  -29.1340  -20.6030   19.9370 C   0  0  0  0  0  2  0  0  0  0  0  0
  -30.5370  -15.0040   20.1890 C   0  0  0  0  0  0  0  0  0  0  0  0
  -30.3470  -12.6770   19.1800 C   0  0  0  0  0  2  0  0  0  0  0  0
  -29.3770  -12.5840   17.9840 C   0  0  0  0  0  2  0  0  0  0  0  0
  -27.9500  -12.3160   18.4830 C   0  0  0  0  0  2  0  0  0  0  0  0
  -27.5490  -13.2930   19.6080 C   0  0  0  0  0  3  0  0  0  0  0  0
  -28.6240  -13.3490   20.7190 C   0  0  0  0  0  2  0  0  0  0  0  0
  -29.8900  -13.7670   20.0990 N   0  0  0  0  0  0  0  0  0  0  0  0
  -31.7250  -15.0280   19.8400 O   0  0  0  0  0  0  0  0  0  0  0  0
  -28.4730  -16.5440   20.7640 C   0  0  0  0  0  2  0  0  0  0  0  0
  -28.5680  -17.9380   20.1650 C   0  0  0  0  0  3  0  0  0  0  0  0
  -29.4130  -19.1070   20.6230 C   0  0  0  0  0  3  0  0  0  0  0  0
  -30.0430  -17.7040   19.9860 C   0  0  0  0  0  3  0  0  0  0  0  0
  -29.8540  -16.2410   20.4170 N   0  0  0  0  0  0  0  0  0  0  0  0
  -25.1860  -13.8910   20.4040 C   0  0  0  0  0  0  0  0  0  0  0  0
  -24.1410  -13.1210   20.8220 C   0  0  0  0  0  0  0  0  0  0  0  0
  -24.6090  -11.7730   20.7910 C   0  0  0  0  0  0  0  0  0  0  0  0
  -26.2260  -13.0110   20.1440 N   0  0  0  0  0  0  0  0  0  0  0  0
  -25.8910  -11.7360   20.4510 N   0  0  0  0  0  0  0  0  0  0  0  0
  -23.8890  -10.5120   20.9920 C   0  0  0  0  0  0  0  0  0  0  0  0
  -24.3400   -9.5480   21.9180 C   0  0  0  0  0  3  0  0  0  0  0  0
  -23.6150   -8.3510   22.1130 C   0  0  0  0  0  3  0  0  0  0  0  0
  -22.4280   -8.1140   21.3810 C   0  0  0  0  0  0  0  0  0  0  0  0
  -21.9950   -9.0690   20.4430 C   0  0  0  0  0  3  0  0  0  0  0  0
  -22.7200  -10.2550   20.2450 C   0  0  0  0  0  3  0  0  0  0  0  0
  -21.6740   -6.9700   21.4900 O   0  0  0  0  0  0  0  0  0  0  0  0
  -21.6530   -6.2310   22.6440 C   0  0  0  0  0  0  0  0  0  0  0  0
  -21.2550   -6.7870   23.8820 C   0  0  0  0  0  3  0  0  0  0  0  0
  -21.1770   -5.9710   25.0280 C   0  0  0  0  0  3  0  0  0  0  0  0
  -21.4910   -4.6020   24.9390 C   0  0  0  0  0  0  0  0  0  0  0  0
  -21.8850   -4.0450   23.7090 C   0  0  0  0  0  3  0  0  0  0  0  0
  -21.9630   -4.8570   22.5650 C   0  0  0  0  0  0  0  0  0  0  0  0
  -22.3250   -4.3140   21.3760 F   0  0  0  0  0  0  0  0  0  0  0  0
  -21.4090   -3.8160   26.0370 F   0  0  0  0  0  0  0  0  0  0  0  0
  -22.7530  -13.6020   21.1230 C   0  0  0  0  0  0  0  0  0  0  0  0
  -22.0440  -12.9100   22.0060 N   0  0  0  0  0  0  0  0  0  0  0  0
  -22.3080  -14.6290   20.6120 O   0  0  0  0  0  0  0  0  0  0  0  0
  -22.4200  -12.0830   22.4420 H   0  0  0  0  0  0  0  0  0  0  0  0
  -21.1160  -13.2210   22.2460 H   0  0  0  0  0  0  0  0  0  0  0  0
  -25.3110  -15.2590   20.1930 N   0  0  0  0  0  0  0  0  0  0  0  0
  -24.4840  -15.8420   20.2370 H   0  0  0  0  0  0  0  0  0  0  0  0
  -26.0430  -15.6540   19.6160 H   0  0  0  0  0  0  0  0  0  0  0  0
  -28.5410  -23.3310   20.0160 C   0  0  0  0  0  3  0  0  0  0  0  0
  -28.0250  -24.7360   20.7920 C   0  0  0  0  0  3  0  0  0  0  0  0
  -28.2610  -26.2140   20.3510 O   0  0  0  0  0  0  0  0  0  0  0  0
  -24.6110  -31.8950   23.2450 C   0  0  0  0  0  0  0  0  0  0  0  0
  -27.2060  -27.1850   20.2940 C   0  0  0  0  0  0  0  0  0  0  0  0
  -23.4220  -30.4940   21.5990 C   0  0  0  0  0  3  0  0  0  0  0  0
  -24.8840  -28.9200   20.1920 C   0  0  0  0  0  0  0  0  0  0  0  0
  -25.9700  -30.7780   21.4450 C   0  0  0  0  0  2  0  0  0  0  0  0
  -26.0560  -29.3830   20.8070 C   0  0  0  0  0  0  0  0  0  0  0  0
  -27.2230  -28.5330   20.8330 C   0  0  0  0  0  3  0  0  0  0  0  0
  -26.0140  -26.8170   19.6340 C   0  0  0  0  0  3  0  0  0  0  0  0
  -24.8790  -27.6560   19.5780 C   0  0  0  0  0  3  0  0  0  0  0  0
  -23.6520  -29.8090   20.2260 C   0  0  0  0  0  2  0  0  0  0  0  0
  -24.6880  -31.0760   22.1530 N   0  0  0  0  0  0  0  0  0  0  0  0
  -23.5200  -32.1780   23.7660 O   0  0  0  0  0  0  0  0  0  0  0  0
  -22.7450  -29.4860   22.5620 C   0  0  0  0  0  0  0  0  0  0  0  0
  -21.4180  -29.3070   22.4240 N   0  0  0  0  0  0  0  0  0  0  0  0
  -23.4150  -28.8670   23.3910 O   0  0  0  0  0  0  0  0  0  0  0  0
  -20.9390  -29.8510   21.7230 H   0  0  0  0  0  0  0  0  0  0  0  0
  -18.0410  -28.0920   22.8850 C   0  0  0  0  0  0  0  0  0  0  0  0
  -20.5970  -28.3700   23.1900 C   0  0  0  0  0  3  0  0  0  0  0  0
  -20.7130  -26.9380   22.6270 C   0  0  0  0  0  2  0  0  0  0  0  0
  -19.6340  -26.6040   21.5960 C   0  0  0  0  0  2  0  0  0  0  0  0
  -18.2370  -26.7450   22.2130 C   0  0  0  0  0  2  0  0  0  0  0  0
  -19.1500  -28.8620   23.3270 C   0  0  0  0  0  0  0  0  0  0  0  0
  -18.9120  -30.1220   23.9150 C   0  0  0  0  0  3  0  0  0  0  0  0
  -17.6020  -30.6170   24.0640 C   0  0  0  0  0  3  0  0  0  0  0  0
  -16.5090  -29.8420   23.6370 C   0  0  0  0  0  3  0  0  0  0  0  0
  -16.7280  -28.5830   23.0550 C   0  0  0  0  0  3  0  0  0  0  0  0
  -25.8840  -32.5330   23.8780 C   0  0  0  0  0  3  0  0  0  0  0  0
  -26.3820  -31.7730   25.1690 C   0  0  1  0  0  0  0  0  0  0  0  0
  -25.2730  -31.5530   26.2230 C   0  0  0  0  0  1  0  0  0  0  0  0
  -26.9680  -30.3900   24.8020 C   0  0  0  0  0  1  0  0  0  0  0  0
  -27.5250  -32.5720   25.8390 C   0  0  0  0  0  1  0  0  0  0  0  0
  -25.5680  -33.9350   24.1960 N   0  0  0  0  0  0  0  0  0  0  0  0
  -25.9050  -34.9860   23.4370 C   0  0  0  0  0  0  0  0  0  0  0  0
  -26.5850  -34.8810   22.4130 O   0  0  0  0  0  0  0  0  0  0  0  0
  -24.9610  -34.0910   24.9880 H   0  0  0  0  0  0  0  0  0  0  0  0
  -24.1780  -36.7790   23.0680 C   0  0  0  0  0  1  0  0  0  0  0  0
  -25.4150  -36.3750   23.8860 C   0  0  0  0  0  3  0  0  0  0  0  0
  -27.5420  -37.2690   24.7270 C   0  0  0  0  0  1  0  0  0  0  0  0
  -26.4460  -37.4300   23.7770 N   0  0  0  0  0  0  0  0  0  0  0  0
  -26.0370  -38.3490   23.9180 H   0  0  0  0  0  0  0  0  0  0  0  0
  1  2  1  0
  1  3  1  0
  4  1  1  0
  5 17  1  0
  6 11  1  0
  7  8  1  0
  7  6  1  0
  9  8  1  0
  9 21  1  0
  9 10  1  0
 11  5  1  0
 11 10  1  0
 12  5  2  0
 14 15  1  0
 14 13  1  0
 15  4  1  0
 16 14  1  0
 16 17  1  0
 16 15  1  0
 17 13  1  0
 18 19  2  0
 19 38  1  0
 20 19  1  0
 20 23  1  0
 21 18  1  0
 21 22  1  0
 22 20  2  0
 23 24  1  0
 24 25  2  0
 26 29  1  0
 26 25  1  0
 27 26  2  0
 28 27  1  0
 28 23  2  0
 29 30  1  0
 30 31  1  0
 31 32  2  0
 33 32  1  0
 33 37  1  0
 34 33  2  0
 35 30  2  0
 35 34  1  0
 36 35  1  0
 38 39  1  0
 39 42  1  0
 39 41  1  0
 40 38  2  0
 43 44  1  0
 43 18  1  0
 45 43  1  0
 46  1  1  0
 46 47  2  0
 48 47  1  0
 49 60  2  0
 50 48  1  0
 50 55  1  0
 51 59  1  0
 51 61  1  0
 52 58  1  0
 52 54  1  0
 53 59  1  0
 54 55  2  0
 54 53  1  0
 56 50  2  0
 57 56  1  0
 57 52  2  0
 58 51  1  0
 59 49  1  0
 61 63  2  0
 62 61  1  0
 64 62  1  0
 65 74  2  0
 65 70  1  0
 66 62  1  0
 66 70  1  0
 67 66  1  0
 68 69  1  0
 68 67  1  0
 69 65  1  0
 70 71  2  0
 71 72  1  0
 73 72  2  0
 74 73  1  0
 75 49  1  0
 75 80  1  0
 75 76  1  0
 76 79  1  1
 76 77  1  0
 78 76  1  0
 80 83  1  0
 81 85  1  0
 81 80  1  0
 82 81  2  0
 85 84  1  0
 87 85  1  0
 87 88  1  0
 87 86  1  0
M  ISO  4   5 100  17 100  47 101  48 101
M  END
>  <TORSDO>  (71) 
F 19

>  <SCORE>  (71) 
-14.031

>  <name>  (71) 
72

>  <ligand_id>  (71) 
72

>  <original_smiles>  (71) 
[H]c1c([H])c([H])c2c(c1[H])C([H])([H])C([H])([H])C([H])([H])C2([H])N([H])C(=O)C1([H])N(C(=O)C([H])(N([H])C(=O)C([H])(N([H])C([H])([H])[H])C([H])([H])[H])C(C([H])([H])[H])(C([H])([H])[H])C([H])([H])[H])C([H])([H])c2c([H])c(OC([H])([H])C([H])([H])[N+]([H])([H])C([H])([H])C3([H])C4([H])N(C(=O)N5C([H])([H])C([H])([H])C([H])([H])C([H])(n6nc(-c7c([H])c([H])c(Oc8c([H])c([H])c(F)c([H])c8F)c([H])c7[H])c(C(=O)N([H])[H])c6N([H])[H])C5([H])[H])C([H])([H])C43[H])c([H])c([H])c2C1([H])[H]

>  <smiles>  (71) 
[H]c1c([H])c([H])c2c(c1[H])C([H])([H])C([H])([H])C([H])([H])C2([H])N([H])C(=O)C1([H])N(C(=O)C([H])(N([H])C(=O)C([H])(N([H])C([H])([H])[H])C([H])([H])[H])C(C([H])([H])[H])(C([H])([H])[H])C([H])([H])[H])C([H])([H])c2c([H])c(OC([H])([H])C([H])([H])[N+]([H])([H])C([H])([H])C3([H])C4([H])N(C(=O)N5C([H])([H])C([H])([H])C([H])([H])C([H])(n6nc(-c7c([H])c([H])c(Oc8c([H])c([H])c(F)c([H])c8F)c([H])c7[H])c(C(=O)N([H])[H])c6N([H])[H])C5([H])[H])C([H])([H])C43[H])c([H])c([H])c2C1([H])[H]

$$$$
73:0:0
     RDKit          3D

 93102  0  0  1  0  0  0  0  0999 V2000
  -26.4470  -21.7830   20.4220 C   0  0  0  0  0  2  0  0  0  0  0  0
  -25.7840  -21.9430   19.0560 C   0  0  0  0  0  2  0  0  0  0  0  0
  -27.9650  -21.8350   20.1890 C   0  0  0  0  0  2  0  0  0  0  0  0
  -26.8510  -21.5540   18.0320 C   0  0  0  0  0  2  0  0  0  0  0  0
  -28.2350  -21.8370   18.6600 C   0  0  2  0  0  0  0  0  0  0  0  0
  -29.2290  -20.5080   18.2250 C   0  0  0  0  0  2  0  0  0  0  0  0
  -28.7500  -18.4030   21.1550 C   0  0  0  0  0  3  0  0  0  0  0  0
  -30.1360  -18.1870   21.3330 C   0  0  0  0  0  3  0  0  0  0  0  0
  -28.2730  -18.7810   19.8830 C   0  0  0  0  0  3  0  0  0  0  0  0
  -30.9840  -18.1100   20.2050 C   0  0  0  0  0  3  0  0  0  0  0  0
  -29.2220  -18.9710   18.8600 C   0  0  0  0  0  3  0  0  0  0  0  0
  -30.3530  -17.9840   18.9490 C   0  0  0  0  0  3  0  0  0  0  0  0
  -31.0690  -15.3640   19.1100 C   0  0  0  0  0  0  0  0  0  0  0  0
  -31.0080  -12.8490   18.8010 C   0  0  0  0  0  2  0  0  0  0  0  0
  -30.0280  -12.4530   17.6730 C   0  0  0  0  0  2  0  0  0  0  0  0
  -28.5900  -12.3270   18.2130 C   0  0  0  0  0  2  0  0  0  0  0  0
  -28.1890  -13.5200   19.1210 C   0  0  0  0  0  3  0  0  0  0  0  0
  -29.2860  -13.8580   20.1500 C   0  0  0  0  0  2  0  0  0  0  0  0
  -30.5130  -14.1210   19.3860 N   0  0  0  0  0  0  0  0  0  0  0  0
  -32.2780  -15.4050   18.8550 O   0  0  0  0  0  0  0  0  0  0  0  0
  -30.2210  -16.4680   18.8130 N   0  0  0  0  0  0  0  0  0  0  0  0
  -29.2620  -16.1790   18.7240 H   0  0  0  0  0  0  0  0  0  0  0  0
  -25.9470  -14.2890   20.0890 C   0  0  0  0  0  0  0  0  0  0  0  0
  -24.8550  -13.6000   20.5430 C   0  0  0  0  0  0  0  0  0  0  0  0
  -25.1970  -12.2160   20.4530 C   0  0  0  0  0  0  0  0  0  0  0  0
  -26.8830  -13.3300   19.7420 N   0  0  0  0  0  0  0  0  0  0  0  0
  -26.4470  -12.0750   20.0280 N   0  0  0  0  0  0  0  0  0  0  0  0
  -24.3840  -11.0170   20.6930 C   0  0  0  0  0  0  0  0  0  0  0  0
  -24.7440  -10.0590   21.6660 C   0  0  0  0  0  3  0  0  0  0  0  0
  -23.9330   -8.9260   21.8930 C   0  0  0  0  0  3  0  0  0  0  0  0
  -22.7470   -8.7420   21.1450 C   0  0  0  0  0  0  0  0  0  0  0  0
  -22.4030   -9.6850   20.1600 C   0  0  0  0  0  3  0  0  0  0  0  0
  -23.2140  -10.8100   19.9330 C   0  0  0  0  0  3  0  0  0  0  0  0
  -21.9150   -7.6560   21.2760 O   0  0  0  0  0  0  0  0  0  0  0  0
  -21.7460   -7.0190   22.4780 C   0  0  0  0  0  0  0  0  0  0  0  0
  -21.2870   -7.7010   23.6260 C   0  0  0  0  0  3  0  0  0  0  0  0
  -21.0640   -6.9940   24.8240 C   0  0  0  0  0  3  0  0  0  0  0  0
  -21.2910   -5.6060   24.8750 C   0  0  0  0  0  0  0  0  0  0  0  0
  -21.7420   -4.9230   23.7320 C   0  0  0  0  0  3  0  0  0  0  0  0
  -21.9670   -5.6270   22.5370 C   0  0  0  0  0  0  0  0  0  0  0  0
  -22.3830   -4.9610   21.4320 F   0  0  0  0  0  0  0  0  0  0  0  0
  -21.0680   -4.9240   26.0230 F   0  0  0  0  0  0  0  0  0  0  0  0
  -23.5340  -14.1900   20.9410 C   0  0  0  0  0  0  0  0  0  0  0  0
  -22.8470  -13.5660   21.8910 N   0  0  0  0  0  0  0  0  0  0  0  0
  -23.1250  -15.2390   20.4450 O   0  0  0  0  0  0  0  0  0  0  0  0
  -23.1950  -12.7160   22.3100 H   0  0  0  0  0  0  0  0  0  0  0  0
  -21.9640  -13.9400   22.2060 H   0  0  0  0  0  0  0  0  0  0  0  0
  -26.2120  -15.6430   19.9170 N   0  0  0  0  0  0  0  0  0  0  0  0
  -25.5220  -16.3570   20.1240 H   0  0  0  0  0  0  0  0  0  0  0  0
  -27.0720  -16.0230   19.5450 H   0  0  0  0  0  0  0  0  0  0  0  0
  -28.6040  -23.4620   18.3200 C   0  0  0  0  0  3  0  0  0  0  0  0
  -27.5590  -24.7720   18.5640 C   0  0  0  0  0  3  0  0  0  0  0  0
  -27.8390  -26.3010   18.6540 O   0  0  0  0  0  0  0  0  0  0  0  0
  -24.5550  -31.4100   22.8510 C   0  0  0  0  0  0  0  0  0  0  0  0
  -26.7680  -27.2450   18.8720 C   0  0  0  0  0  0  0  0  0  0  0  0
  -23.1650  -30.2050   21.2100 C   0  0  0  0  0  3  0  0  0  0  0  0
  -24.4280  -28.8890   19.4040 C   0  0  0  0  0  0  0  0  0  0  0  0
  -25.6670  -30.5860   20.7390 C   0  0  0  0  0  2  0  0  0  0  0  0
  -25.6760  -29.2960   19.8980 C   0  0  0  0  0  0  0  0  0  0  0  0
  -26.8440  -28.4940   19.6120 C   0  0  0  0  0  3  0  0  0  0  0  0
  -25.4830  -26.9420   18.3680 C   0  0  0  0  0  3  0  0  0  0  0  0
  -24.3420  -27.7270   18.6260 C   0  0  0  0  0  3  0  0  0  0  0  0
  -23.2070  -29.7290   19.7340 C   0  0  0  0  0  2  0  0  0  0  0  0
  -24.4910  -30.7470   21.6550 N   0  0  0  0  0  0  0  0  0  0  0  0
  -23.5460  -31.5830   23.5520 O   0  0  0  0  0  0  0  0  0  0  0  0
  -22.6410  -29.0550   22.1060 C   0  0  0  0  0  0  0  0  0  0  0  0
  -21.3210  -28.8000   22.0690 N   0  0  0  0  0  0  0  0  0  0  0  0
  -23.4210  -28.3980   22.7990 O   0  0  0  0  0  0  0  0  0  0  0  0
  -20.7440  -29.3910   21.4830 H   0  0  0  0  0  0  0  0  0  0  0  0
  -18.1000  -27.2280   22.6000 C   0  0  0  0  0  0  0  0  0  0  0  0
  -20.6300  -27.7290   22.7920 C   0  0  0  0  0  3  0  0  0  0  0  0
  -20.8470  -26.3610   22.1020 C   0  0  0  0  0  2  0  0  0  0  0  0
  -19.7370  -26.0020   21.1080 C   0  0  0  0  0  2  0  0  0  0  0  0
  -18.3790  -25.9580   21.8150 C   0  0  0  0  0  2  0  0  0  0  0  0
  -19.1560  -28.0670   23.0460 C   0  0  0  0  0  0  0  0  0  0  0  0
  -18.8400  -29.2520   23.7450 C   0  0  0  0  0  3  0  0  0  0  0  0
  -17.5000  -29.6010   24.0010 C   0  0  0  0  0  3  0  0  0  0  0  0
  -16.4600  -28.7600   23.5710 C   0  0  0  0  0  3  0  0  0  0  0  0
  -16.7620  -27.5750   22.8760 C   0  0  0  0  0  3  0  0  0  0  0  0
  -25.8950  -32.0020   23.3830 C   0  0  0  0  0  3  0  0  0  0  0  0
  -26.5780  -31.0930   24.4780 C   0  0  1  0  0  0  0  0  0  0  0  0
  -25.6390  -30.7020   25.6420 C   0  0  0  0  0  1  0  0  0  0  0  0
  -27.1110  -29.7860   23.8480 C   0  0  0  0  0  1  0  0  0  0  0  0
  -27.8040  -31.8240   25.0750 C   0  0  0  0  0  1  0  0  0  0  0  0
  -25.6100  -33.3370   23.9340 N   0  0  0  0  0  0  0  0  0  0  0  0
  -25.8490  -34.4920   23.2980 C   0  0  0  0  0  0  0  0  0  0  0  0
  -26.4010  -34.5430   22.1960 O   0  0  0  0  0  0  0  0  0  0  0  0
  -25.1060  -33.3680   24.8070 H   0  0  0  0  0  0  0  0  0  0  0  0
  -24.0890  -36.2870   23.3810 C   0  0  0  0  0  1  0  0  0  0  0  0
  -25.4100  -35.7960   23.9930 C   0  0  0  0  0  3  0  0  0  0  0  0
  -27.6170  -36.5950   24.7150 C   0  0  0  0  0  1  0  0  0  0  0  0
  -26.4220  -36.8720   23.9210 N   0  0  0  0  0  0  0  0  0  0  0  0
  -26.0300  -37.7550   24.2370 H   0  0  0  0  0  0  0  0  0  0  0  0
  2  1  1  0
  3  1  1  0
  4  5  1  0
  4  2  1  0
  5  3  1  0
  5  6  1  1
  7  8  1  0
  9  7  2  0
 10  8  2  0
 11  6  1  0
 11 12  1  0
 11  9  1  0
 12 21  1  0
 12 10  1  0
 13 19  1  0
 14 19  1  0
 15 16  1  0
 15 14  1  0
 17 16  1  0
 17 26  1  0
 17 18  1  0
 19 18  1  0
 20 13  2  0
 21 13  1  0
 22 21  1  0
 23 24  2  0
 24 43  1  0
 25 24  1  0
 25 28  1  0
 26 27  1  0
 26 23  1  0
 27 25  2  0
 28 29  1  0
 29 30  2  0
 31 34  1  0
 31 30  1  0
 32 31  2  0
 33 32  1  0
 33 28  2  0
 34 35  1  0
 35 40  2  0
 35 36  1  0
 36 37  2  0
 37 38  1  0
 38 42  1  0
 39 38  2  0
 40 39  1  0
 41 40  1  0
 43 44  1  0
 44 47  1  0
 44 46  1  0
 45 43  2  0
 48 23  1  0
 48 49  1  0
 50 48  1  0
 51 52  2  0
 51  5  1  0
 52 53  1  0
 53 55  1  0
 54 65  2  0
 55 60  1  0
 56 64  1  0
 56 66  1  0
 57 63  1  0
 57 59  1  0
 58 64  1  0
 59 58  1  0
 60 59  2  0
 61 62  1  0
 61 55  2  0
 62 57  2  0
 63 56  1  0
 64 54  1  0
 66 68  2  0
 67 66  1  0
 69 67  1  0
 70 79  2  0
 70 75  1  0
 71 67  1  0
 71 75  1  0
 72 71  1  0
 73 74  1  0
 73 72  1  0
 74 70  1  0
 75 76  2  0
 76 77  1  0
 78 77  2  0
 79 78  1  0
 80 54  1  0
 80 85  1  0
 80 81  1  0
 81 84  1  1
 81 82  1  0
 83 81  1  0
 85 88  1  0
 86 85  1  0
 86 90  1  0
 87 86  2  0
 90 89  1  0
 92 90  1  0
 92 93  1  0
 92 91  1  0
M  ISO  4  13 100  21 100  52 101  53 101
M  END
>  <TORSDO>  (72) 
F 20

>  <SCORE>  (72) 
-11.245

>  <name>  (72) 
73

>  <ligand_id>  (72) 
73

>  <original_smiles>  (72) 
[H]c1c([H])c([H])c(C([H])([H])C2(C([H])([H])C([H])([H])Oc3c([H])c([H])c4c(c3[H])C([H])([H])N(C(=O)C([H])(N([H])C(=O)C([H])(N([H])C([H])([H])[H])C([H])([H])[H])C(C([H])([H])[H])(C([H])([H])[H])C([H])([H])[H])C([H])(C(=O)N([H])C3([H])c5c([H])c([H])c([H])c([H])c5C([H])([H])C([H])([H])C3([H])[H])C4([H])[H])C([H])([H])C([H])([H])C([H])([H])C2([H])[H])c(N([H])C(=O)N2C([H])([H])C([H])([H])C([H])([H])C([H])(n3nc(-c4c([H])c([H])c(Oc5c([H])c([H])c(F)c([H])c5F)c([H])c4[H])c(C(=O)N([H])[H])c3N([H])[H])C2([H])[H])c1[H]

>  <smiles>  (72) 
[H]c1c([H])c([H])c(C([H])([H])C2(C([H])([H])C([H])([H])Oc3c([H])c([H])c4c(c3[H])C([H])([H])N(C(=O)C([H])(N([H])C(=O)C([H])(N([H])C([H])([H])[H])C([H])([H])[H])C(C([H])([H])[H])(C([H])([H])[H])C([H])([H])[H])C([H])(C(=O)N([H])C3([H])c5c([H])c([H])c([H])c([H])c5C([H])([H])C([H])([H])C3([H])[H])C4([H])[H])C([H])([H])C([H])([H])C([H])([H])C2([H])[H])c(N([H])C(=O)N2C([H])([H])C([H])([H])C([H])([H])C([H])(n3nc(-c4c([H])c([H])c(Oc5c([H])c([H])c(F)c([H])c5F)c([H])c4[H])c(C(=O)N([H])[H])c3N([H])[H])C2([H])[H])c1[H]

$$$$
74:0:0
     RDKit          3D

 93102  0  0  1  0  0  0  0  0999 V2000
  -32.0470  -22.6540   22.0980 C   0  0  0  0  0  2  0  0  0  0  0  0
  -31.2060  -23.9260   21.9830 C   0  0  0  0  0  2  0  0  0  0  0  0
  -29.9040  -22.1730   20.9970 C   0  0  0  0  0  2  0  0  0  0  0  0
  -31.1970  -21.5030   21.5160 C   0  0  0  0  0  3  0  0  0  0  0  0
  -30.2510  -23.6590   20.8200 C   0  0  0  0  0  3  0  0  0  0  0  0
  -30.9580  -20.3590   22.5330 C   0  0  0  0  0  2  0  0  0  0  0  0
  -29.5260  -18.4270   21.7300 C   0  0  0  0  0  3  0  0  0  0  0  0
  -31.9470  -18.1930   21.6220 C   0  0  0  0  0  3  0  0  0  0  0  0
  -29.3830  -17.0990   21.2890 C   0  0  0  0  0  3  0  0  0  0  0  0
  -31.8060  -16.8660   21.1650 C   0  0  0  0  0  3  0  0  0  0  0  0
  -30.8090  -18.9750   21.9210 C   0  0  0  0  0  0  0  0  0  0  0  0
  -30.5170  -16.3040   21.0110 C   0  0  0  0  0  0  0  0  0  0  0  0
  -30.8080  -14.1570   19.7200 C   0  0  0  0  0  0  0  0  0  0  0  0
  -30.3380  -12.1170   18.3990 C   0  0  0  0  0  2  0  0  0  0  0  0
  -29.2350  -12.4010   17.3580 C   0  0  0  0  0  2  0  0  0  0  0  0
  -27.8280  -12.2500   17.9740 C   0  0  0  0  0  2  0  0  0  0  0  0
  -27.6820  -13.0010   19.3230 C   0  0  0  0  0  3  0  0  0  0  0  0
  -28.8620  -12.6460   20.2520 C   0  0  0  0  0  2  0  0  0  0  0  0
  -30.1140  -13.0000   19.5520 N   0  0  0  0  0  0  0  0  0  0  0  0
  -31.7950  -14.4620   19.0390 O   0  0  0  0  0  0  0  0  0  0  0  0
  -30.2750  -14.9510   20.6640 N   0  0  0  0  0  0  0  0  0  0  0  0
  -29.4640  -14.5390   21.1030 H   0  0  0  0  0  0  0  0  0  0  0  0
  -25.3980  -13.6010   20.3560 C   0  0  0  0  0  0  0  0  0  0  0  0
  -24.3790  -12.8190   20.8320 C   0  0  0  0  0  0  0  0  0  0  0  0
  -24.8170  -11.4680   20.6870 C   0  0  0  0  0  0  0  0  0  0  0  0
  -26.3950  -12.7220   19.9570 N   0  0  0  0  0  0  0  0  0  0  0  0
  -26.0530  -11.4330   20.2070 N   0  0  0  0  0  0  0  0  0  0  0  0
  -24.1110  -10.2020   20.9170 C   0  0  0  0  0  0  0  0  0  0  0  0
  -24.5520   -9.2760   21.8880 C   0  0  0  0  0  3  0  0  0  0  0  0
  -23.8460   -8.0740   22.1030 C   0  0  0  0  0  3  0  0  0  0  0  0
  -22.6830   -7.7880   21.3470 C   0  0  0  0  0  0  0  0  0  0  0  0
  -22.2630   -8.7030   20.3660 C   0  0  0  0  0  3  0  0  0  0  0  0
  -22.9700   -9.8970   20.1490 C   0  0  0  0  0  3  0  0  0  0  0  0
  -21.9470   -6.6350   21.4710 O   0  0  0  0  0  0  0  0  0  0  0  0
  -21.7600   -6.0280   22.6870 C   0  0  0  0  0  0  0  0  0  0  0  0
  -21.1330   -6.6930   23.7630 C   0  0  0  0  0  3  0  0  0  0  0  0
  -20.8980   -6.0080   24.9730 C   0  0  0  0  0  3  0  0  0  0  0  0
  -21.2770   -4.6590   25.1050 C   0  0  0  0  0  0  0  0  0  0  0  0
  -21.8970   -3.9940   24.0310 C   0  0  0  0  0  3  0  0  0  0  0  0
  -22.1340   -4.6750   22.8250 C   0  0  0  0  0  0  0  0  0  0  0  0
  -22.7110   -4.0230   21.7880 F   0  0  0  0  0  0  0  0  0  0  0  0
  -21.0450   -3.9980   26.2630 F   0  0  0  0  0  0  0  0  0  0  0  0
  -23.0340  -13.2910   21.3060 C   0  0  0  0  0  0  0  0  0  0  0  0
  -22.4290  -12.5730   22.2480 N   0  0  0  0  0  0  0  0  0  0  0  0
  -22.5330  -14.3280   20.8770 O   0  0  0  0  0  0  0  0  0  0  0  0
  -22.8500  -11.7320   22.6140 H   0  0  0  0  0  0  0  0  0  0  0  0
  -21.5330  -12.8700   22.6050 H   0  0  0  0  0  0  0  0  0  0  0  0
  -25.5570  -14.9760   20.2150 N   0  0  0  0  0  0  0  0  0  0  0  0
  -24.8210  -15.6350   20.4450 H   0  0  0  0  0  0  0  0  0  0  0  0
  -26.3610  -15.4160   19.7850 H   0  0  0  0  0  0  0  0  0  0  0  0
  -29.0510  -24.6260   20.8050 C   0  0  0  0  0  2  0  0  0  0  0  0
  -28.3200  -24.7370   19.4520 C   0  0  0  0  0  2  0  0  0  0  0  0
  -28.3280  -26.1120   19.0730 O   0  0  0  0  0  0  0  0  0  0  0  0
  -24.9350  -31.0250   22.9050 C   0  0  0  0  0  0  0  0  0  0  0  0
  -27.1770  -26.8450   19.2310 C   0  0  0  0  0  0  0  0  0  0  0  0
  -23.5890  -29.9340   21.1370 C   0  0  0  0  0  3  0  0  0  0  0  0
  -24.8920  -28.4810   19.4940 C   0  0  0  0  0  0  0  0  0  0  0  0
  -26.1240  -30.1390   20.9070 C   0  0  0  0  0  2  0  0  0  0  0  0
  -26.0940  -28.8560   20.1040 C   0  0  0  0  0  0  0  0  0  0  0  0
  -27.2410  -28.0460   19.9670 C   0  0  0  0  0  3  0  0  0  0  0  0
  -25.9590  -26.4710   18.6220 C   0  0  0  0  0  3  0  0  0  0  0  0
  -24.8170  -27.2870   18.7510 C   0  0  0  0  0  3  0  0  0  0  0  0
  -23.7170  -29.4140   19.6790 C   0  0  0  0  0  2  0  0  0  0  0  0
  -24.9030  -30.3710   21.7110 N   0  0  0  0  0  0  0  0  0  0  0  0
  -23.8910  -31.3070   23.5090 O   0  0  0  0  0  0  0  0  0  0  0  0
  -22.8830  -28.8530   21.9830 C   0  0  0  0  0  0  0  0  0  0  0  0
  -21.5420  -28.8410   21.9340 N   0  0  0  0  0  0  0  0  0  0  0  0
  -23.5350  -28.0370   22.6390 O   0  0  0  0  0  0  0  0  0  0  0  0
  -21.0830  -29.5500   21.3780 H   0  0  0  0  0  0  0  0  0  0  0  0
  -18.0840  -28.0220   22.5860 C   0  0  0  0  0  0  0  0  0  0  0  0
  -20.6640  -27.8890   22.6130 C   0  0  0  0  0  3  0  0  0  0  0  0
  -20.5040  -26.5910   21.7890 C   0  0  0  0  0  2  0  0  0  0  0  0
  -19.2840  -26.6110   20.8620 C   0  0  0  0  0  2  0  0  0  0  0  0
  -18.0000  -26.8130   21.6700 C   0  0  0  0  0  2  0  0  0  0  0  0
  -19.3360  -28.5370   23.0150 C   0  0  0  0  0  0  0  0  0  0  0  0
  -19.3600  -29.6870   23.8350 C   0  0  0  0  0  3  0  0  0  0  0  0
  -18.1650  -30.3170   24.2270 C   0  0  0  0  0  3  0  0  0  0  0  0
  -16.9270  -29.7930   23.8140 C   0  0  0  0  0  3  0  0  0  0  0  0
  -16.8890  -28.6480   22.9990 C   0  0  0  0  0  3  0  0  0  0  0  0
  -26.2810  -31.4730   23.5590 C   0  0  0  0  0  3  0  0  0  0  0  0
  -26.8190  -30.4520   24.6360 C   0  0  1  0  0  0  0  0  0  0  0  0
  -25.7680  -30.0630   25.7020 C   0  0  0  0  0  1  0  0  0  0  0  0
  -27.3100  -29.1520   23.9550 C   0  0  0  0  0  1  0  0  0  0  0  0
  -28.0400  -31.0580   25.3680 C   0  0  0  0  0  1  0  0  0  0  0  0
  -26.0590  -32.7950   24.1610 N   0  0  0  0  0  0  0  0  0  0  0  0
  -26.4810  -33.9500   23.6290 C   0  0  0  0  0  0  0  0  0  0  0  0
  -27.1660  -34.0070   22.6060 O   0  0  0  0  0  0  0  0  0  0  0  0
  -25.4580  -32.8270   24.9700 H   0  0  0  0  0  0  0  0  0  0  0  0
  -24.9150  -35.9150   23.5990 C   0  0  0  0  0  1  0  0  0  0  0  0
  -26.0780  -35.2500   24.3500 C   0  0  0  0  0  3  0  0  0  0  0  0
  -28.2210  -35.7670   25.4330 C   0  0  0  0  0  1  0  0  0  0  0  0
  -27.1940  -36.2110   24.4960 N   0  0  0  0  0  0  0  0  0  0  0  0
  -26.8490  -37.1130   24.8110 H   0  0  0  0  0  0  0  0  0  0  0  0
  2  1  1  0
  3  4  1  0
  4  1  1  0
  4  6  1  0
  5 51  1  0
  5  3  1  0
  5  2  1  0
  7 11  1  0
  8 11  2  0
  9  7  2  0
 10  8  1  0
 11  6  1  0
 12 10  2  0
 12  9  1  0
 13 21  1  0
 14 19  1  0
 15 16  1  0
 15 14  1  0
 17 16  1  0
 17 26  1  0
 17 18  1  0
 19 13  1  0
 19 18  1  0
 20 13  2  0
 21 12  1  0
 21 22  1  0
 23 24  2  0
 24 43  1  0
 25 24  1  0
 25 28  1  0
 26 27  1  0
 26 23  1  0
 27 25  2  0
 28 29  1  0
 29 30  2  0
 31 34  1  0
 31 30  1  0
 32 31  2  0
 33 32  1  0
 33 28  2  0
 34 35  1  0
 35 40  2  0
 35 36  1  0
 36 37  2  0
 37 38  1  0
 38 42  1  0
 39 38  2  0
 40 39  1  0
 41 40  1  0
 43 44  1  0
 44 47  1  0
 44 46  1  0
 45 43  2  0
 48 23  1  0
 48 49  1  0
 50 48  1  0
 52 51  1  0
 53 55  1  0
 53 52  1  0
 54 65  2  0
 55 60  1  0
 56 64  1  0
 56 66  1  0
 57 63  1  0
 57 59  1  0
 58 64  1  0
 59 58  1  0
 60 59  2  0
 61 62  1  0
 61 55  2  0
 62 57  2  0
 63 56  1  0
 64 54  1  0
 66 68  2  0
 67 66  1  0
 69 67  1  0
 70 79  2  0
 70 75  1  0
 71 67  1  0
 71 75  1  0
 72 71  1  0
 73 74  1  0
 73 72  1  0
 74 70  1  0
 75 76  2  0
 76 77  1  0
 78 77  2  0
 79 78  1  0
 80 54  1  0
 80 85  1  0
 80 81  1  0
 81 84  1  1
 81 82  1  0
 83 81  1  0
 85 88  1  0
 86 85  1  0
 86 90  1  0
 87 86  2  0
 90 89  1  0
 90 92  1  0
 92 93  1  0
 92 91  1  0
M  ISO  4  13 100  21 100  52 101  53 101
M  END
>  <TORSDO>  (73) 
F 20

>  <SCORE>  (73) 
-8.563

>  <name>  (73) 
74

>  <ligand_id>  (73) 
74

>  <original_smiles>  (73) 
[H]c1c([H])c([H])c2c(c1[H])C([H])([H])C([H])([H])C([H])([H])C2([H])N([H])C(=O)C1([H])N(C(=O)C([H])(N([H])C(=O)C([H])(N([H])C([H])([H])[H])C([H])([H])[H])C(C([H])([H])[H])(C([H])([H])[H])C([H])([H])[H])C([H])([H])c2c([H])c(OC([H])([H])C([H])([H])C3([H])C([H])([H])C([H])([H])C([H])(C([H])([H])c4c([H])c([H])c(N([H])C(=O)N5C([H])([H])C([H])([H])C([H])([H])C([H])(n6nc(-c7c([H])c([H])c(Oc8c([H])c([H])c(F)c([H])c8F)c([H])c7[H])c(C(=O)N([H])[H])c6N([H])[H])C5([H])[H])c([H])c4[H])C3([H])[H])c([H])c([H])c2C1([H])[H]

>  <smiles>  (73) 
[H]c1c([H])c([H])c2c(c1[H])C([H])([H])C([H])([H])C([H])([H])C2([H])N([H])C(=O)C1([H])N(C(=O)C([H])(N([H])C(=O)C([H])(N([H])C([H])([H])[H])C([H])([H])[H])C(C([H])([H])[H])(C([H])([H])[H])C([H])([H])[H])C([H])([H])c2c([H])c(OC([H])([H])C([H])([H])C3([H])C([H])([H])C([H])([H])C([H])(C([H])([H])c4c([H])c([H])c(N([H])C(=O)N5C([H])([H])C([H])([H])C([H])([H])C([H])(n6nc(-c7c([H])c([H])c(Oc8c([H])c([H])c(F)c([H])c8F)c([H])c7[H])c(C(=O)N([H])[H])c6N([H])[H])C5([H])[H])c([H])c4[H])C3([H])[H])c([H])c([H])c2C1([H])[H]

$$$$
75:0:0
     RDKit          3D

 90 99  0  0  1  0  0  0  0  0999 V2000
  -30.2370  -19.1630   19.9260 C   0  0  0  0  0  2  0  0  0  0  0  0
  -29.0570  -21.5260   20.3460 C   0  0  0  0  0  2  0  0  0  0  0  0
  -27.2570  -20.1880   21.0690 C   0  0  0  0  0  2  0  0  0  0  0  0
  -29.6110  -20.1920   20.8930 C   0  0  0  0  0  3  0  0  0  0  0  0
  -28.5290  -19.1940   21.3010 C   0  0  0  0  0  3  0  0  0  0  0  0
  -29.2610  -17.9880   20.3500 C   0  0  0  0  0  3  0  0  0  0  0  0
  -27.6390  -21.6430   20.7110 N   0  0  1  0  0  4  0  0  0  0  0  0
  -27.0810  -21.7540   19.8770 H   0  0  0  0  0  0  0  0  0  0  0  0
  -30.7490  -15.4530   20.5810 C   0  0  0  0  0  0  0  0  0  0  0  0
  -30.9680  -12.9890   19.9090 C   0  0  0  0  0  2  0  0  0  0  0  0
  -30.1690  -12.5320   18.6550 C   0  0  0  0  0  2  0  0  0  0  0  0
  -28.7220  -12.1990   19.0200 C   0  0  0  0  0  2  0  0  0  0  0  0
  -28.0930  -13.3250   19.8680 C   0  0  0  0  0  3  0  0  0  0  0  0
  -28.9770  -13.6910   21.0830 C   0  0  0  0  0  2  0  0  0  0  0  0
  -30.2670  -14.1270   20.5830 N   0  0  0  0  0  0  0  0  0  0  0  0
  -31.9360  -15.5580   20.2560 O   0  0  0  0  0  0  0  0  0  0  0  0
  -29.9040  -16.6090   20.9520 N   0  0  0  0  0  0  0  0  0  0  0  0
  -30.2090  -16.8870   21.8990 H   0  0  0  0  0  0  0  0  0  0  0  0
  -25.6860  -13.9570   20.3820 C   0  0  0  0  0  0  0  0  0  0  0  0
  -24.5820  -13.1930   20.7170 C   0  0  0  0  0  0  0  0  0  0  0  0
  -25.0420  -11.8520   20.7950 C   0  0  0  0  0  0  0  0  0  0  0  0
  -26.7220  -13.0490   20.2630 N   0  0  0  0  0  0  0  0  0  0  0  0
  -26.3520  -11.7830   20.5790 N   0  0  0  0  0  0  0  0  0  0  0  0
  -24.2940  -10.6020   20.9990 C   0  0  0  0  0  0  0  0  0  0  0  0
  -24.6640   -9.6730   21.9930 C   0  0  0  0  0  3  0  0  0  0  0  0
  -23.9120   -8.4900   22.1840 C   0  0  0  0  0  3  0  0  0  0  0  0
  -22.7780   -8.2360   21.3760 C   0  0  0  0  0  0  0  0  0  0  0  0
  -22.4260   -9.1540   20.3710 C   0  0  0  0  0  3  0  0  0  0  0  0
  -23.1800  -10.3270   20.1820 C   0  0  0  0  0  3  0  0  0  0  0  0
  -22.0030   -7.1070   21.4710 O   0  0  0  0  0  0  0  0  0  0  0  0
  -21.9100   -6.3950   22.6390 C   0  0  0  0  0  0  0  0  0  0  0  0
  -21.4820   -6.9900   23.8450 C   0  0  0  0  0  3  0  0  0  0  0  0
  -21.3370   -6.2050   25.0060 C   0  0  0  0  0  3  0  0  0  0  0  0
  -21.6080   -4.8240   24.9610 C   0  0  0  0  0  0  0  0  0  0  0  0
  -22.0330   -4.2280   23.7600 C   0  0  0  0  0  3  0  0  0  0  0  0
  -22.1800   -5.0120   22.6020 C   0  0  0  0  0  0  0  0  0  0  0  0
  -22.5670   -4.4270   21.4420 F   0  0  0  0  0  0  0  0  0  0  0  0
  -21.4610   -4.0670   26.0740 F   0  0  0  0  0  0  0  0  0  0  0  0
  -23.1850  -13.7090   20.8540 C   0  0  0  0  0  0  0  0  0  0  0  0
  -22.3830  -13.0630   21.7080 N   0  0  0  0  0  0  0  0  0  0  0  0
  -22.7940  -14.6910   20.2400 O   0  0  0  0  0  0  0  0  0  0  0  0
  -22.7050  -12.2620   22.2280 H   0  0  0  0  0  0  0  0  0  0  0  0
  -21.4350  -13.3870   21.8450 H   0  0  0  0  0  0  0  0  0  0  0  0
  -25.8700  -15.3050   20.1520 N   0  0  0  0  0  0  0  0  0  0  0  0
  -25.1110  -15.9730   20.1860 H   0  0  0  0  0  0  0  0  0  0  0  0
  -26.7580  -15.7300   19.9060 H   0  0  0  0  0  0  0  0  0  0  0  0
  -27.1830  -22.9350   21.4800 C   0  0  0  0  0  2  0  0  0  0  0  0
  -26.6300  -24.3370   20.7960 C   0  0  0  0  0  2  0  0  0  0  0  0
  -27.2910  -25.0800   19.4760 C   0  0  0  0  0  2  0  0  0  0  0  0
  -27.9300  -26.4280   19.2290 O   0  0  0  0  0  0  0  0  0  0  0  0
  -24.6390  -31.4250   22.6500 C   0  0  0  0  0  0  0  0  0  0  0  0
  -27.0320  -27.4580   18.8380 C   0  0  0  0  0  0  0  0  0  0  0  0
  -23.3450  -30.1490   20.9420 C   0  0  0  0  0  3  0  0  0  0  0  0
  -24.6400  -29.0010   19.1010 C   0  0  0  0  0  0  0  0  0  0  0  0
  -25.8210  -30.7100   20.5920 C   0  0  0  0  0  2  0  0  0  0  0  0
  -25.8280  -29.4830   19.6760 C   0  0  0  0  0  0  0  0  0  0  0  0
  -27.0130  -28.6840   19.5110 C   0  0  0  0  0  3  0  0  0  0  0  0
  -25.8840  -27.1270   18.0650 C   0  0  0  0  0  3  0  0  0  0  0  0
  -24.6660  -27.8270   18.3250 C   0  0  0  0  0  3  0  0  0  0  0  0
  -23.3850  -29.7260   19.4630 C   0  0  0  0  0  2  0  0  0  0  0  0
  -24.6070  -30.7810   21.4260 N   0  0  0  0  0  0  0  0  0  0  0  0
  -23.6230  -31.6310   23.3320 O   0  0  0  0  0  0  0  0  0  0  0  0
  -22.7640  -29.1200   21.9030 C   0  0  0  0  0  0  0  0  0  0  0  0
  -21.4100  -28.9370   21.8730 N   0  0  0  0  0  0  0  0  0  0  0  0
  -23.5050  -28.5170   22.7060 O   0  0  0  0  0  0  0  0  0  0  0  0
  -20.8590  -29.4690   21.1610 H   0  0  0  0  0  0  0  0  0  0  0  0
  -18.1820  -27.5230   22.4580 C   0  0  0  0  0  0  0  0  0  0  0  0
  -20.7250  -27.8440   22.5800 C   0  0  0  0  0  3  0  0  0  0  0  0
  -20.8770  -26.5550   21.7410 C   0  0  0  0  0  2  0  0  0  0  0  0
  -19.6660  -26.2930   20.8100 C   0  0  0  0  0  2  0  0  0  0  0  0
  -18.3330  -26.3040   21.5330 C   0  0  0  0  0  2  0  0  0  0  0  0
  -19.3130  -28.2450   22.8710 C   0  0  0  0  0  0  0  0  0  0  0  0
  -19.0750  -29.3850   23.6720 C   0  0  0  0  0  3  0  0  0  0  0  0
  -17.7790  -29.8000   24.0540 C   0  0  0  0  0  3  0  0  0  0  0  0
  -16.6440  -29.0670   23.6240 C   0  0  0  0  0  3  0  0  0  0  0  0
  -16.8820  -27.9110   22.8190 C   0  0  0  0  0  3  0  0  0  0  0  0
  -25.9590  -31.9790   23.2630 C   0  0  0  0  0  3  0  0  0  0  0  0
  -26.5880  -31.0210   24.3450 C   0  0  1  0  0  0  0  0  0  0  0  0
  -25.6620  -30.5830   25.5010 C   0  0  0  0  0  1  0  0  0  0  0  0
  -27.1600  -29.7430   23.6790 C   0  0  0  0  0  1  0  0  0  0  0  0
  -27.7900  -31.7260   24.9750 C   0  0  0  0  0  1  0  0  0  0  0  0
  -25.6630  -33.2790   23.8470 N   0  0  0  0  0  0  0  0  0  0  0  0
  -25.9260  -34.4640   23.2940 C   0  0  0  0  0  0  0  0  0  0  0  0
  -26.5410  -34.6020   22.2200 O   0  0  0  0  0  0  0  0  0  0  0  0
  -25.1840  -33.2540   24.7270 H   0  0  0  0  0  0  0  0  0  0  0  0
  -24.2070  -36.2530   23.3750 C   0  0  0  0  0  1  0  0  0  0  0  0
  -25.4980  -35.7220   24.0420 C   0  0  0  0  0  3  0  0  0  0  0  0
  -27.6710  -36.4880   24.8690 C   0  0  0  0  0  1  0  0  0  0  0  0
  -26.5210  -36.7860   24.0180 N   0  0  0  0  0  0  0  0  0  0  0  0
  -26.1180  -37.6540   24.3350 H   0  0  0  0  0  0  0  0  0  0  0  0
  1  6  1  0
  2  7  1  0
  2  4  1  0
  4  1  1  0
  4  5  1  0
  5  3  1  0
  6 17  1  0
  6  5  1  0
  7  3  1  0
  7 47  1  0
  7  8  1  6
  9 15  1  0
  9 17  1  0
 10 15  1  0
 11 12  1  0
 11 10  1  0
 13 12  1  0
 13 22  1  0
 13 14  1  0
 15 14  1  0
 16  9  2  0
 17 18  1  0
 19 20  2  0
 20 21  1  0
 20 39  1  0
 21 24  1  0
 22 19  1  0
 22 23  1  0
 23 21  2  0
 24 25  1  0
 25 26  2  0
 27 30  1  0
 27 26  1  0
 28 27  2  0
 29 28  1  0
 29 24  2  0
 30 31  1  0
 31 32  1  0
 32 33  2  0
 34 33  1  0
 34 38  1  0
 35 34  2  0
 36 31  2  0
 36 35  1  0
 37 36  1  0
 39 40  1  0
 40 43  1  0
 40 42  1  0
 41 39  2  0
 44 45  1  0
 44 19  1  0
 46 44  1  0
 48 47  1  0
 49 48  1  0
 50 49  1  0
 51 62  2  0
 52 50  1  0
 52 57  1  0
 53 61  1  0
 53 63  1  0
 54 60  1  0
 54 56  1  0
 55 61  1  0
 56 55  1  0
 57 56  2  0
 58 59  1  0
 58 52  2  0
 59 54  2  0
 60 53  1  0
 61 51  1  0
 63 65  2  0
 64 63  1  0
 66 64  1  0
 67 76  2  0
 67 72  1  0
 68 64  1  0
 68 72  1  0
 69 68  1  0
 70 71  1  0
 70 69  1  0
 71 67  1  0
 72 73  2  0
 73 74  1  0
 75 74  2  0
 76 75  1  0
 77 51  1  0
 77 82  1  0
 77 78  1  0
 78 81  1  1
 78 79  1  0
 80 78  1  0
 82 85  1  0
 83 82  1  0
 83 87  1  0
 84 83  2  0
 87 86  1  0
 89 87  1  0
 89 90  1  0
 89 88  1  0
M  ISO  4   9 100  17 100  49 101  50 101
M  END
>  <TORSDO>  (74) 
F 19

>  <SCORE>  (74) 
-9.417

>  <name>  (74) 
75

>  <ligand_id>  (74) 
75

>  <original_smiles>  (74) 
[H]c1c([H])c([H])c2c(c1[H])C([H])([H])C([H])([H])C([H])([H])C2([H])N([H])C(=O)C1([H])N(C(=O)C([H])(N([H])C(=O)C([H])(N([H])C([H])([H])[H])C([H])([H])[H])C(C([H])([H])[H])(C([H])([H])[H])C([H])([H])[H])C([H])([H])c2c([H])c(OC([H])([H])C([H])([H])C([H])([H])[N+]3([H])C([H])([H])C4([H])C([H])([H])C([H])(N([H])C(=O)N5C([H])([H])C([H])([H])C([H])([H])C([H])(n6nc(-c7c([H])c([H])c(Oc8c([H])c([H])c(F)c([H])c8F)c([H])c7[H])c(C(=O)N([H])[H])c6N([H])[H])C5([H])[H])C4([H])C3([H])[H])c([H])c([H])c2C1([H])[H]

>  <smiles>  (74) 
[H]c1c([H])c([H])c2c(c1[H])C([H])([H])C([H])([H])C([H])([H])C2([H])N([H])C(=O)C1([H])N(C(=O)C([H])(N([H])C(=O)C([H])(N([H])C([H])([H])[H])C([H])([H])[H])C(C([H])([H])[H])(C([H])([H])[H])C([H])([H])[H])C([H])([H])c2c([H])c(OC([H])([H])C([H])([H])C([H])([H])[N+]3([H])C([H])([H])C4([H])C([H])([H])C([H])(N([H])C(=O)N5C([H])([H])C([H])([H])C([H])([H])C([H])(n6nc(-c7c([H])c([H])c(Oc8c([H])c([H])c(F)c([H])c8F)c([H])c7[H])c(C(=O)N([H])[H])c6N([H])[H])C5([H])[H])C4([H])C3([H])[H])c([H])c([H])c2C1([H])[H]

$$$$
76:0:0
     RDKit          3D

 97106  0  0  1  0  0  0  0  0999 V2000
  -29.6280  -21.7710   22.6330 C   0  0  0  0  0  3  0  0  0  0  0  0
  -30.1480  -20.4630   22.6980 C   0  0  0  0  0  3  0  0  0  0  0  0
  -31.9650  -21.1090   21.2050 C   0  0  0  0  0  3  0  0  0  0  0  0
  -30.2540  -22.7470   21.8250 C   0  0  0  0  0  0  0  0  0  0  0  0
  -31.4420  -22.4140   21.1360 C   0  0  0  0  0  0  0  0  0  0  0  0
  -31.3020  -20.1230   21.9630 C   0  0  0  0  0  0  0  0  0  0  0  0
  -29.6440  -24.1150   21.6580 C   0  0  0  0  0  0  0  0  0  0  0  0
  -32.1060  -23.4640   20.2730 C   0  0  0  0  0  2  0  0  0  0  0  0
  -31.0450  -24.3470   19.6040 C   0  0  0  0  0  2  0  0  0  0  0  0
  -29.9910  -24.7910   20.5340 N   0  0  0  0  0  0  0  0  0  0  0  0
  -28.8000  -24.5240   22.4630 O   0  0  0  0  0  0  0  0  0  0  0  0
  -31.8110  -18.6900   21.9410 C   0  0  0  0  0  2  0  0  0  0  0  0
  -31.7180  -18.0680   20.5260 C   0  0  0  0  0  3  0  0  0  0  0  0
  -30.0160  -17.7650   18.5910 C   0  0  0  0  0  1  0  0  0  0  0  0
  -30.2470  -17.7940   20.1100 C   0  0  0  0  0  2  0  0  0  0  0  0
  -32.7120  -16.8850   20.3560 C   0  0  0  0  0  2  0  0  0  0  0  0
  -32.3460  -14.6020   19.4350 C   0  0  0  0  0  0  0  0  0  0  0  0
  -31.7890  -12.3230   18.6910 C   0  0  0  0  0  2  0  0  0  0  0  0
  -30.7440  -12.3380   17.5630 C   0  0  0  0  0  2  0  0  0  0  0  0
  -29.3190  -12.3570   18.1470 C   0  0  0  0  0  2  0  0  0  0  0  0
  -29.1330  -13.4610   19.2200 C   0  0  0  0  0  3  0  0  0  0  0  0
  -30.2770  -13.4180   20.2570 C   0  0  0  0  0  2  0  0  0  0  0  0
  -31.5680  -13.4970   19.5450 N   0  0  0  0  0  0  0  0  0  0  0  0
  -33.2700  -14.7060   18.6220 O   0  0  0  0  0  0  0  0  0  0  0  0
  -32.0740  -15.5720   20.3120 N   0  0  0  0  0  0  0  0  0  0  0  0
  -31.3330  -15.3910   20.9720 H   0  0  0  0  0  0  0  0  0  0  0  0
  -26.9800  -14.3730   20.3010 C   0  0  0  0  0  0  0  0  0  0  0  0
  -25.8500  -13.7470   20.7590 C   0  0  0  0  0  0  0  0  0  0  0  0
  -26.0670  -12.3490   20.5610 C   0  0  0  0  0  0  0  0  0  0  0  0
  -27.8220  -13.3630   19.8600 N   0  0  0  0  0  0  0  0  0  0  0  0
  -27.2800  -12.1360   20.0680 N   0  0  0  0  0  0  0  0  0  0  0  0
  -25.1670  -11.2050   20.7580 C   0  0  0  0  0  0  0  0  0  0  0  0
  -25.4650  -10.1810   21.6830 C   0  0  0  0  0  3  0  0  0  0  0  0
  -24.5760   -9.1000   21.8680 C   0  0  0  0  0  3  0  0  0  0  0  0
  -23.3710   -9.0380   21.1270 C   0  0  0  0  0  0  0  0  0  0  0  0
  -23.0900  -10.0490   20.1890 C   0  0  0  0  0  3  0  0  0  0  0  0
  -23.9800  -11.1200   20.0040 C   0  0  0  0  0  3  0  0  0  0  0  0
  -22.4600   -8.0150   21.2200 O   0  0  0  0  0  0  0  0  0  0  0  0
  -22.1590   -7.4270   22.4230 C   0  0  0  0  0  0  0  0  0  0  0  0
  -21.6200   -8.1650   23.5000 C   0  0  0  0  0  3  0  0  0  0  0  0
  -21.2610   -7.5090   24.6940 C   0  0  0  0  0  3  0  0  0  0  0  0
  -21.4300   -6.1160   24.8110 C   0  0  0  0  0  0  0  0  0  0  0  0
  -21.9600   -5.3780   23.7370 C   0  0  0  0  0  3  0  0  0  0  0  0
  -22.3210   -6.0320   22.5460 C   0  0  0  0  0  0  0  0  0  0  0  0
  -22.8120   -5.3130   21.5080 F   0  0  0  0  0  0  0  0  0  0  0  0
  -21.0770   -5.4830   25.9540 F   0  0  0  0  0  0  0  0  0  0  0  0
  -24.6020  -14.4110   21.2650 C   0  0  0  0  0  0  0  0  0  0  0  0
  -23.9030  -13.7730   22.1990 N   0  0  0  0  0  0  0  0  0  0  0  0
  -24.2630  -15.5250   20.8690 O   0  0  0  0  0  0  0  0  0  0  0  0
  -24.1910  -12.8680   22.5410 H   0  0  0  0  0  0  0  0  0  0  0  0
  -23.0690  -14.1970   22.5780 H   0  0  0  0  0  0  0  0  0  0  0  0
  -27.3530  -15.7090   20.2080 N   0  0  0  0  0  0  0  0  0  0  0  0
  -26.7400  -16.4680   20.4870 H   0  0  0  0  0  0  0  0  0  0  0  0
  -28.2400  -16.0290   19.8400 H   0  0  0  0  0  0  0  0  0  0  0  0
  -29.2020  -25.9320   20.0640 C   0  0  0  0  0  2  0  0  0  0  0  0
  -28.0960  -25.4420   19.1140 C   0  0  0  0  0  2  0  0  0  0  0  0
  -27.7110  -26.5090   18.2640 O   0  0  0  0  0  0  0  0  0  0  0  0
  -25.4440  -30.8310   23.4160 C   0  0  0  0  0  0  0  0  0  0  0  0
  -26.7010  -27.2990   18.7400 C   0  0  0  0  0  0  0  0  0  0  0  0
  -23.7620  -30.2290   21.7000 C   0  0  0  0  0  3  0  0  0  0  0  0
  -24.6670  -29.0220   19.6440 C   0  0  0  0  0  0  0  0  0  0  0  0
  -26.2540  -30.2530   21.1360 C   0  0  0  0  0  2  0  0  0  0  0  0
  -25.9740  -29.1630   20.1290 C   0  0  0  0  0  0  0  0  0  0  0  0
  -26.9960  -28.3080   19.6740 C   0  0  0  0  0  3  0  0  0  0  0  0
  -25.3820  -27.1510   18.2630 C   0  0  0  0  0  3  0  0  0  0  0  0
  -24.3620  -28.0120   18.7130 C   0  0  0  0  0  3  0  0  0  0  0  0
  -23.6400  -29.9990   20.1690 C   0  0  0  0  0  2  0  0  0  0  0  0
  -25.1810  -30.4310   22.1400 N   0  0  0  0  0  0  0  0  0  0  0  0
  -24.5270  -31.0750   24.2120 O   0  0  0  0  0  0  0  0  0  0  0  0
  -23.0570  -29.0640   22.4300 C   0  0  0  0  0  0  0  0  0  0  0  0
  -21.7200  -29.0130   22.3140 N   0  0  0  0  0  0  0  0  0  0  0  0
  -23.7050  -28.2210   23.0530 O   0  0  0  0  0  0  0  0  0  0  0  0
  -21.2620  -29.7480   21.7930 H   0  0  0  0  0  0  0  0  0  0  0  0
  -18.3100  -27.8280   22.4180 C   0  0  0  0  0  0  0  0  0  0  0  0
  -20.8470  -27.9880   22.8840 C   0  0  0  0  0  3  0  0  0  0  0  0
  -20.9700  -26.6570   22.1070 C   0  0  0  0  0  2  0  0  0  0  0  0
  -19.9320  -26.5130   20.9890 C   0  0  0  0  0  2  0  0  0  0  0  0
  -18.5130  -26.5890   21.5600 C   0  0  0  0  0  2  0  0  0  0  0  0
  -19.4070  -28.4940   23.0250 C   0  0  0  0  0  0  0  0  0  0  0  0
  -19.1680  -29.6600   23.7840 C   0  0  0  0  0  3  0  0  0  0  0  0
  -17.8620  -30.1600   23.9410 C   0  0  0  0  0  3  0  0  0  0  0  0
  -16.7770  -29.4890   23.3520 C   0  0  0  0  0  3  0  0  0  0  0  0
  -17.0010  -28.3250   22.5950 C   0  0  0  0  0  3  0  0  0  0  0  0
  -26.9070  -31.0230   23.9290 C   0  0  0  0  0  3  0  0  0  0  0  0
  -26.9290  -32.2360   24.7550 N   0  0  0  0  0  0  0  0  0  0  0  0
  -27.4670  -33.4040   24.3750 C   0  0  0  0  0  0  0  0  0  0  0  0
  -28.0690  -33.5490   23.3080 O   0  0  0  0  0  0  0  0  0  0  0  0
  -26.4050  -32.2070   25.6180 H   0  0  0  0  0  0  0  0  0  0  0  0
  -26.2100  -35.5380   24.8090 C   0  0  0  0  0  1  0  0  0  0  0  0
  -27.3110  -34.6000   25.3330 C   0  0  0  0  0  3  0  0  0  0  0  0
  -29.5780  -34.6240   26.2730 C   0  0  0  0  0  1  0  0  0  0  0  0
  -28.5620  -35.3640   25.5290 N   0  0  0  0  0  0  0  0  0  0  0  0
  -28.3790  -36.2330   26.0240 H   0  0  0  0  0  0  0  0  0  0  0  0
  -27.4510  -29.7840   24.7410 C   0  0  1  0  0  0  0  0  0  0  0  0
  -26.5020  -29.3110   25.8660 C   0  0  0  0  0  1  0  0  0  0  0  0
  -27.7070  -28.5850   23.8000 C   0  0  0  0  0  1  0  0  0  0  0  0
  -28.8120  -30.1380   25.3850 C   0  0  0  0  0  1  0  0  0  0  0  0
  1  2  1  0
  3  6  1  0
  4  1  2  0
  5  3  2  0
  5  4  1  0
  6  2  2  0
  7  4  1  0
  7 11  2  0
  8  5  1  0
  9  8  1  0
  9 10  1  0
 10  7  1  0
 12  6  1  0
 13 15  1  0
 13 12  1  0
 14 15  1  0
 16 13  1  0
 17 23  1  0
 17 25  1  0
 18 23  1  0
 19 20  1  0
 19 18  1  0
 21 20  1  0
 21 30  1  0
 21 22  1  0
 23 22  1  0
 24 17  2  0
 25 16  1  0
 25 26  1  0
 27 28  2  0
 28 47  1  0
 29 32  1  0
 29 28  1  0
 30 31  1  0
 30 27  1  0
 31 29  2  0
 32 33  1  0
 33 34  2  0
 35 38  1  0
 35 34  1  0
 36 35  2  0
 37 36  1  0
 37 32  2  0
 38 39  1  0
 39 44  2  0
 39 40  1  0
 40 41  2  0
 41 42  1  0
 42 46  1  0
 43 42  2  0
 44 43  1  0
 45 44  1  0
 47 48  1  0
 48 50  1  0
 48 51  1  0
 49 47  2  0
 52 27  1  0
 52 53  1  0
 54 52  1  0
 55 10  1  0
 56 55  1  0
 57 59  1  0
 57 56  1  0
 58 69  2  0
 59 64  1  0
 60 68  1  0
 60 70  1  0
 61 63  1  0
 61 67  1  0
 62 68  1  0
 63 62  1  0
 64 63  2  0
 65 66  1  0
 65 59  2  0
 66 61  2  0
 67 60  1  0
 68 58  1  0
 70 72  2  0
 71 70  1  0
 73 71  1  0
 74 83  2  0
 74 79  1  0
 75 71  1  0
 75 79  1  0
 76 75  1  0
 77 78  1  0
 77 76  1  0
 78 74  1  0
 79 80  2  0
 80 81  1  0
 82 81  2  0
 83 82  1  0
 84 58  1  0
 84 94  1  0
 84 85  1  0
 85 88  1  0
 86 85  1  0
 86 90  1  0
 87 86  2  0
 90 89  1  0
 90 92  1  0
 92 93  1  0
 92 91  1  0
 94 97  1  1
 94 95  1  0
 96 94  1  0
M  ISO  4  17 100  25 100  56 101  57 101
M  END
>  <TORSDO>  (75) 
F 22

>  <SCORE>  (75) 
-9.443

>  <name>  (75) 
76

>  <ligand_id>  (75) 
76

>  <original_smiles>  (75) 
[H]c1c([H])c([H])c2c(c1[H])C([H])([H])C([H])([H])C([H])([H])C2([H])N([H])C(=O)C1([H])N(C(=O)C([H])(N([H])C(=O)C([H])(N([H])C([H])([H])[H])C([H])([H])[H])C(C([H])([H])[H])(C([H])([H])[H])C([H])([H])[H])C([H])([H])c2c([H])c(OC([H])([H])C([H])([H])N3C(=O)c4c([H])c([H])c(C([H])([H])C([H])(C([H])([H])N([H])C(=O)N5C([H])([H])C([H])([H])C([H])([H])C([H])(n6nc(-c7c([H])c([H])c(Oc8c([H])c([H])c(F)c([H])c8F)c([H])c7[H])c(C(=O)N([H])[H])c6N([H])[H])C5([H])[H])C([H])([H])C([H])([H])[H])c([H])c4C([H])([H])C3([H])[H])c([H])c([H])c2C1([H])[H]

>  <smiles>  (75) 
[H]c1c([H])c([H])c2c(c1[H])C([H])([H])C([H])([H])C([H])([H])C2([H])N([H])C(=O)C1([H])N(C(=O)C([H])(N([H])C(=O)C([H])(N([H])C([H])([H])[H])C([H])([H])[H])C(C([H])([H])[H])(C([H])([H])[H])C([H])([H])[H])C([H])([H])c2c([H])c(OC([H])([H])C([H])([H])N3C(=O)c4c([H])c([H])c(C([H])([H])C([H])(C([H])([H])N([H])C(=O)N5C([H])([H])C([H])([H])C([H])([H])C([H])(n6nc(-c7c([H])c([H])c(Oc8c([H])c([H])c(F)c([H])c8F)c([H])c7[H])c(C(=O)N([H])[H])c6N([H])[H])C5([H])[H])C([H])([H])C([H])([H])[H])c([H])c4C([H])([H])C3([H])[H])c([H])c([H])c2C1([H])[H]

$$$$
77:0:0
     RDKit          3D

 92101  0  0  1  0  0  0  0  0999 V2000
  -27.0180  -22.4340   20.2950 C   0  0  0  0  0  2  0  0  0  0  0  0
  -28.1080  -21.8400   19.4860 C   0  0  0  0  0  3  0  0  0  0  0  0
  -27.9000  -23.5010   19.5960 C   0  0  1  0  0  0  0  0  0  0  0  0
  -28.7310  -19.7110   21.1110 C   0  0  0  0  0  3  0  0  0  0  0  0
  -29.0900  -18.3100   21.2270 C   0  0  0  0  0  3  0  0  0  0  0  0
  -29.5490  -19.6950   18.9040 C   0  0  0  0  0  3  0  0  0  0  0  0
  -28.9000  -20.4810   19.9150 C   0  0  0  0  0  0  0  0  0  0  0  0
  -29.9070  -18.2910   19.0010 C   0  0  0  0  0  0  0  0  0  0  0  0
  -29.6710  -17.5080   20.1860 C   0  0  0  0  0  0  0  0  0  0  0  0
  -30.4320  -17.6330   17.7370 C   0  0  0  0  0  1  0  0  0  0  0  0
  -30.5720  -14.9320   19.9220 C   0  0  0  0  0  0  0  0  0  0  0  0
  -30.4140  -12.6150   18.9390 C   0  0  0  0  0  2  0  0  0  0  0  0
  -29.3980  -12.6620   17.7720 C   0  0  0  0  0  2  0  0  0  0  0  0
  -27.9540  -12.4800   18.2840 C   0  0  0  0  0  2  0  0  0  0  0  0
  -27.6570  -13.3460   19.5380 C   0  0  0  0  0  3  0  0  0  0  0  0
  -28.7840  -13.2430   20.5910 C   0  0  0  0  0  2  0  0  0  0  0  0
  -30.0260  -13.6570   19.9240 N   0  0  0  0  0  0  0  0  0  0  0  0
  -31.7080  -15.0800   19.4570 O   0  0  0  0  0  0  0  0  0  0  0  0
  -29.7750  -16.0010   20.3660 N   0  0  0  0  0  0  0  0  0  0  0  0
  -29.0160  -15.6360   20.9240 H   0  0  0  0  0  0  0  0  0  0  0  0
  -25.3270  -13.9200   20.4280 C   0  0  0  0  0  0  0  0  0  0  0  0
  -24.2830  -13.1390   20.8460 C   0  0  0  0  0  0  0  0  0  0  0  0
  -24.7380  -11.7890   20.7510 C   0  0  0  0  0  0  0  0  0  0  0  0
  -26.3490  -13.0440   20.1050 N   0  0  0  0  0  0  0  0  0  0  0  0
  -26.0050  -11.7540   20.3570 N   0  0  0  0  0  0  0  0  0  0  0  0
  -24.0190  -10.5240   20.9520 C   0  0  0  0  0  0  0  0  0  0  0  0
  -24.4820   -9.5480   21.8630 C   0  0  0  0  0  3  0  0  0  0  0  0
  -23.7620   -8.3500   22.0570 C   0  0  0  0  0  3  0  0  0  0  0  0
  -22.5660   -8.1180   21.3370 C   0  0  0  0  0  0  0  0  0  0  0  0
  -22.1220   -9.0810   20.4150 C   0  0  0  0  0  3  0  0  0  0  0  0
  -22.8420  -10.2710   20.2200 C   0  0  0  0  0  3  0  0  0  0  0  0
  -21.8140   -6.9730   21.4420 O   0  0  0  0  0  0  0  0  0  0  0  0
  -21.7640   -6.2480   22.6050 C   0  0  0  0  0  0  0  0  0  0  0  0
  -21.3370   -6.8220   23.8220 C   0  0  0  0  0  3  0  0  0  0  0  0
  -21.2360   -6.0260   24.9800 C   0  0  0  0  0  3  0  0  0  0  0  0
  -21.5460   -4.6550   24.9200 C   0  0  0  0  0  0  0  0  0  0  0  0
  -21.9620   -4.0770   23.7070 C   0  0  0  0  0  3  0  0  0  0  0  0
  -22.0670   -4.8720   22.5510 C   0  0  0  0  0  0  0  0  0  0  0  0
  -22.4500   -4.3060   21.3810 F   0  0  0  0  0  0  0  0  0  0  0  0
  -21.4390   -3.8870   26.0300 F   0  0  0  0  0  0  0  0  0  0  0  0
  -22.9120  -13.6150   21.2220 C   0  0  0  0  0  0  0  0  0  0  0  0
  -22.2440  -12.9020   22.1230 N   0  0  0  0  0  0  0  0  0  0  0  0
  -22.4430  -14.6520   20.7560 O   0  0  0  0  0  0  0  0  0  0  0  0
  -22.6410  -12.0650   22.5220 H   0  0  0  0  0  0  0  0  0  0  0  0
  -21.3240  -13.2000   22.4140 H   0  0  0  0  0  0  0  0  0  0  0  0
  -25.4830  -15.2930   20.2770 N   0  0  0  0  0  0  0  0  0  0  0  0
  -24.7330  -15.9470   20.4760 H   0  0  0  0  0  0  0  0  0  0  0  0
  -26.3080  -15.7520   19.9090 H   0  0  0  0  0  0  0  0  0  0  0  0
  -26.0740  -23.7810   17.7640 C   0  0  0  0  0  1  0  0  0  0  0  0
  -27.5360  -24.0390   18.2050 C   0  0  0  0  0  2  0  0  0  0  0  0
  -28.1690  -24.8210   20.5540 C   0  0  0  0  0  2  0  0  0  0  0  0
  -28.2990  -26.3120   20.1480 O   0  0  0  0  0  0  0  0  0  0  0  0
  -24.6380  -31.8760   23.2330 C   0  0  0  0  0  0  0  0  0  0  0  0
  -27.2160  -27.2450   20.1610 C   0  0  0  0  0  0  0  0  0  0  0  0
  -23.4340  -30.4870   21.5920 C   0  0  0  0  0  3  0  0  0  0  0  0
  -24.8780  -28.9450   20.1420 C   0  0  0  0  0  0  0  0  0  0  0  0
  -25.9820  -30.7870   21.4080 C   0  0  0  0  0  2  0  0  0  0  0  0
  -26.0560  -29.4070   20.7460 C   0  0  0  0  0  0  0  0  0  0  0  0
  -27.2310  -28.5740   20.7320 C   0  0  0  0  0  3  0  0  0  0  0  0
  -26.0130  -26.8680   19.5380 C   0  0  0  0  0  3  0  0  0  0  0  0
  -24.8670  -27.6880   19.5190 C   0  0  0  0  0  3  0  0  0  0  0  0
  -23.6440  -29.8260   20.2050 C   0  0  0  0  0  2  0  0  0  0  0  0
  -24.7030  -31.0720   22.1310 N   0  0  0  0  0  0  0  0  0  0  0  0
  -23.5550  -32.1450   23.7750 O   0  0  0  0  0  0  0  0  0  0  0  0
  -22.7780  -29.4650   22.5540 C   0  0  0  0  0  0  0  0  0  0  0  0
  -21.4510  -29.2840   22.4430 N   0  0  0  0  0  0  0  0  0  0  0  0
  -23.4660  -28.8350   23.3610 O   0  0  0  0  0  0  0  0  0  0  0  0
  -20.9490  -29.8490   21.7730 H   0  0  0  0  0  0  0  0  0  0  0  0
  -18.0960  -28.0060   22.9350 C   0  0  0  0  0  0  0  0  0  0  0  0
  -20.6490  -28.3210   23.2010 C   0  0  0  0  0  3  0  0  0  0  0  0
  -20.7850  -26.9000   22.6100 C   0  0  0  0  0  2  0  0  0  0  0  0
  -19.6830  -26.5420   21.6080 C   0  0  0  0  0  2  0  0  0  0  0  0
  -18.3010  -26.6620   22.2540 C   0  0  0  0  0  2  0  0  0  0  0  0
  -19.1970  -28.7910   23.3680 C   0  0  0  0  0  0  0  0  0  0  0  0
  -18.9530  -30.0440   23.9670 C   0  0  0  0  0  3  0  0  0  0  0  0
  -17.6380  -30.5220   24.1280 C   0  0  0  0  0  3  0  0  0  0  0  0
  -16.5520  -29.7350   23.7130 C   0  0  0  0  0  3  0  0  0  0  0  0
  -16.7790  -28.4780   23.1230 C   0  0  0  0  0  3  0  0  0  0  0  0
  -25.9180  -32.5180   23.8490 C   0  0  0  0  0  3  0  0  0  0  0  0
  -26.4550  -31.7410   25.1150 C   0  0  1  0  0  0  0  0  0  0  0  0
  -25.3740  -31.4870   26.1910 C   0  0  0  0  0  1  0  0  0  0  0  0
  -27.0480  -30.3720   24.7100 C   0  0  0  0  0  1  0  0  0  0  0  0
  -27.6050  -32.5400   25.7720 C   0  0  0  0  0  1  0  0  0  0  0  0
  -25.5930  -33.9090   24.2010 N   0  0  0  0  0  0  0  0  0  0  0  0
  -25.8950  -34.9770   23.4540 C   0  0  0  0  0  0  0  0  0  0  0  0
  -26.5420  -34.8990   22.4060 O   0  0  0  0  0  0  0  0  0  0  0  0
  -25.0140  -34.0420   25.0180 H   0  0  0  0  0  0  0  0  0  0  0  0
  -24.1280  -36.7480   23.1750 C   0  0  0  0  0  1  0  0  0  0  0  0
  -25.4000  -36.3530   23.9430 C   0  0  0  0  0  3  0  0  0  0  0  0
  -27.5460  -37.2630   24.7170 C   0  0  0  0  0  1  0  0  0  0  0  0
  -26.4120  -37.4240   23.8090 N   0  0  0  0  0  0  0  0  0  0  0  0
  -25.9960  -38.3360   23.9790 H   0  0  0  0  0  0  0  0  0  0  0  0
  2  3  1  0
  2  7  1  0
  2  1  1  0
  3 50  1  6
  3  1  1  0
  3 51  1  0
  4  5  1  0
  6  8  2  0
  6  7  1  0
  7  4  2  0
  8  9  1  0
  9 19  1  0
  9  5  2  0
 10  8  1  0
 11 17  1  0
 11 19  1  0
 12 17  1  0
 13 14  1  0
 13 12  1  0
 15 14  1  0
 15 24  1  0
 15 16  1  0
 17 16  1  0
 18 11  2  0
 19 20  1  0
 21 22  2  0
 22 41  1  0
 23 22  1  0
 23 26  1  0
 24 25  1  0
 24 21  1  0
 25 23  2  0
 26 27  1  0
 27 28  2  0
 29 32  1  0
 29 28  1  0
 30 29  2  0
 31 30  1  0
 31 26  2  0
 32 33  1  0
 33 34  1  0
 34 35  2  0
 36 35  1  0
 36 40  1  0
 37 36  2  0
 38 33  2  0
 38 37  1  0
 39 38  1  0
 41 42  1  0
 42 45  1  0
 42 44  1  0
 43 41  2  0
 46 21  1  0
 46 47  1  0
 48 46  1  0
 49 50  1  0
 52 54  1  0
 52 51  1  0
 53 64  2  0
 54 59  1  0
 55 63  1  0
 55 65  1  0
 56 62  1  0
 56 58  1  0
 57 63  1  0
 58 57  1  0
 59 58  2  0
 60 54  2  0
 61 60  1  0
 61 56  2  0
 62 55  1  0
 63 53  1  0
 65 67  2  0
 66 65  1  0
 68 66  1  0
 69 78  2  0
 69 74  1  0
 70 66  1  0
 70 74  1  0
 71 70  1  0
 72 73  1  0
 72 71  1  0
 73 69  1  0
 74 75  2  0
 75 76  1  0
 77 76  2  0
 78 77  1  0
 79 53  1  0
 79 84  1  0
 79 80  1  0
 80 83  1  1
 80 81  1  0
 82 80  1  0
 84 87  1  0
 85 89  1  0
 85 84  1  0
 86 85  2  0
 89 88  1  0
 91 89  1  0
 91 92  1  0
 91 90  1  0
M  ISO  4  11 100  19 100  51 101  52 101
M  END
>  <TORSDO>  (76) 
F 19

>  <SCORE>  (76) 
-13.252

>  <name>  (76) 
77

>  <ligand_id>  (76) 
77

>  <original_smiles>  (76) 
[H]c1c([H])c([H])c2c(c1[H])C([H])([H])C([H])([H])C([H])([H])C2([H])N([H])C(=O)C1([H])N(C(=O)C([H])(N([H])C(=O)C([H])(N([H])C([H])([H])[H])C([H])([H])[H])C(C([H])([H])[H])(C([H])([H])[H])C([H])([H])[H])C([H])([H])c2c([H])c(OC([H])([H])C3(C([H])([H])C([H])([H])[H])C([H])([H])C3([H])c3c([H])c([H])c(N([H])C(=O)N4C([H])([H])C([H])([H])C([H])([H])C([H])(n5nc(-c6c([H])c([H])c(Oc7c([H])c([H])c(F)c([H])c7F)c([H])c6[H])c(C(=O)N([H])[H])c5N([H])[H])C4([H])[H])c(C([H])([H])[H])c3[H])c([H])c([H])c2C1([H])[H]

>  <smiles>  (76) 
[H]c1c([H])c([H])c2c(c1[H])C([H])([H])C([H])([H])C([H])([H])C2([H])N([H])C(=O)C1([H])N(C(=O)C([H])(N([H])C(=O)C([H])(N([H])C([H])([H])[H])C([H])([H])[H])C(C([H])([H])[H])(C([H])([H])[H])C([H])([H])[H])C([H])([H])c2c([H])c(OC([H])([H])C3(C([H])([H])C([H])([H])[H])C([H])([H])C3([H])c3c([H])c([H])c(N([H])C(=O)N4C([H])([H])C([H])([H])C([H])([H])C([H])(n5nc(-c6c([H])c([H])c(Oc7c([H])c([H])c(F)c([H])c7F)c([H])c6[H])c(C(=O)N([H])[H])c5N([H])[H])C4([H])[H])c(C([H])([H])[H])c3[H])c([H])c([H])c2C1([H])[H]

$$$$
78:0:0
     RDKit          3D

 93103  0  0  1  0  0  0  0  0999 V2000
  -30.6610  -18.3990   18.0370 C   0  0  0  0  0  3  0  0  0  0  0  0
  -30.5570  -17.1870   18.7250 C   0  0  0  0  0  3  0  0  0  0  0  0
  -29.4140  -18.3590   20.5120 C   0  0  0  0  0  3  0  0  0  0  0  0
  -30.1490  -19.6160   18.5560 C   0  0  0  0  0  0  0  0  0  0  0  0
  -29.4980  -19.6370   19.8220 C   0  0  0  0  0  0  0  0  0  0  0  0
  -29.9530  -17.1180   19.9970 C   0  0  0  0  0  0  0  0  0  0  0  0
  -30.6600  -14.6980   20.4730 C   0  0  0  0  0  0  0  0  0  0  0  0
  -30.4670  -12.4480   19.4710 C   0  0  0  0  0  2  0  0  0  0  0  0
  -29.5640  -12.5980   18.2230 C   0  0  0  0  0  2  0  0  0  0  0  0
  -28.0760  -12.4580   18.6030 C   0  0  0  0  0  2  0  0  0  0  0  0
  -27.6900  -13.3120   19.8400 C   0  0  0  0  0  3  0  0  0  0  0  0
  -28.7150  -13.1550   20.9850 C   0  0  0  0  0  2  0  0  0  0  0  0
  -30.0390  -13.4780   20.4380 N   0  0  0  0  0  0  0  0  0  0  0  0
  -31.8480  -14.8030   20.1520 O   0  0  0  0  0  0  0  0  0  0  0  0
  -29.8690  -15.8100   20.6720 N   0  0  0  0  0  0  0  0  0  0  0  0
  -29.0110  -15.6290   21.1660 H   0  0  0  0  0  0  0  0  0  0  0  0
  -25.2840  -13.9190   20.4970 C   0  0  0  0  0  0  0  0  0  0  0  0
  -24.2050  -13.1520   20.8530 C   0  0  0  0  0  0  0  0  0  0  0  0
  -24.6680  -11.7990   20.8440 C   0  0  0  0  0  0  0  0  0  0  0  0
  -26.3300  -13.0320   20.2940 N   0  0  0  0  0  0  0  0  0  0  0  0
  -25.9640  -11.7530   20.5600 N   0  0  0  0  0  0  0  0  0  0  0  0
  -23.9320  -10.5430   21.0330 C   0  0  0  0  0  0  0  0  0  0  0  0
  -24.3410   -9.5850   21.9880 C   0  0  0  0  0  3  0  0  0  0  0  0
  -23.6100   -8.3900   22.1600 C   0  0  0  0  0  3  0  0  0  0  0  0
  -22.4550   -8.1440   21.3790 C   0  0  0  0  0  0  0  0  0  0  0  0
  -22.0690   -9.0880   20.4120 C   0  0  0  0  0  3  0  0  0  0  0  0
  -22.8010  -10.2740   20.2360 C   0  0  0  0  0  3  0  0  0  0  0  0
  -21.6980   -6.9990   21.4580 O   0  0  0  0  0  0  0  0  0  0  0  0
  -21.6120   -6.2710   22.6180 C   0  0  0  0  0  0  0  0  0  0  0  0
  -21.1370   -6.8390   23.8210 C   0  0  0  0  0  3  0  0  0  0  0  0
  -20.9950   -6.0360   24.9700 C   0  0  0  0  0  3  0  0  0  0  0  0
  -21.3190   -4.6680   24.9200 C   0  0  0  0  0  0  0  0  0  0  0  0
  -21.7900   -4.1000   23.7210 C   0  0  0  0  0  3  0  0  0  0  0  0
  -21.9320   -4.8980   22.5730 C   0  0  0  0  0  0  0  0  0  0  0  0
  -22.3590   -4.3410   21.4160 F   0  0  0  0  0  0  0  0  0  0  0  0
  -21.1830   -3.8950   26.0220 F   0  0  0  0  0  0  0  0  0  0  0  0
  -22.8060  -13.6350   21.0940 C   0  0  0  0  0  0  0  0  0  0  0  0
  -22.0570  -12.9440   21.9470 N   0  0  0  0  0  0  0  0  0  0  0  0
  -22.3800  -14.6590   20.5590 O   0  0  0  0  0  0  0  0  0  0  0  0
  -22.4140  -12.1190   22.4060 H   0  0  0  0  0  0  0  0  0  0  0  0
  -21.1120  -13.2400   22.1450 H   0  0  0  0  0  0  0  0  0  0  0  0
  -25.4610  -15.2860   20.3100 N   0  0  0  0  0  0  0  0  0  0  0  0
  -24.7030  -15.9550   20.3870 H   0  0  0  0  0  0  0  0  0  0  0  0
  -26.3260  -15.7030   19.9890 H   0  0  0  0  0  0  0  0  0  0  0  0
  -29.3740  -21.3170   16.7250 C   0  0  0  0  0  2  0  0  0  0  0  0
  -30.7470  -20.8760   16.2900 C   0  0  0  0  0  2  0  0  0  0  0  0
  -30.3760  -20.8740   17.7650 C   0  0  0  0  0  3  0  0  0  0  0  0
  -27.5790  -21.4340   20.5100 C   0  0  0  0  0  2  0  0  0  0  0  0
  -29.0290  -20.9980   20.4900 C   0  0  0  0  0  3  0  0  0  0  0  0
  -28.5670  -22.3910   19.8700 C   0  0  0  0  0  3  0  0  0  0  0  0
  -28.7710  -23.8350   20.5010 C   0  0  0  0  0  3  0  0  0  0  0  0
  -28.5010  -25.1270   19.5920 C   0  0  0  0  0  3  0  0  0  0  0  0
  -28.4900  -26.4990   20.1940 O   0  0  0  0  0  0  0  0  0  0  0  0
  -24.6840  -31.8980   23.2190 C   0  0  0  0  0  0  0  0  0  0  0  0
  -27.3600  -27.3430   20.1570 C   0  0  0  0  0  0  0  0  0  0  0  0
  -23.5220  -30.4970   21.5630 C   0  0  0  0  0  3  0  0  0  0  0  0
  -24.9960  -28.9710   20.1530 C   0  0  0  0  0  0  0  0  0  0  0  0
  -26.0720  -30.8160   21.4320 C   0  0  0  0  0  2  0  0  0  0  0  0
  -26.1620  -29.4490   20.7650 C   0  0  0  0  0  0  0  0  0  0  0  0
  -27.3480  -28.6480   20.7510 C   0  0  0  0  0  3  0  0  0  0  0  0
  -26.1540  -26.9240   19.5440 C   0  0  0  0  0  3  0  0  0  0  0  0
  -24.9950  -27.7140   19.5420 C   0  0  0  0  0  3  0  0  0  0  0  0
  -23.7610  -29.8480   20.1830 C   0  0  0  0  0  2  0  0  0  0  0  0
  -24.7790  -31.0880   22.1270 N   0  0  0  0  0  0  0  0  0  0  0  0
  -23.5880  -32.1650   23.7320 O   0  0  0  0  0  0  0  0  0  0  0  0
  -22.8530  -29.4650   22.5010 C   0  0  0  0  0  0  0  0  0  0  0  0
  -21.5280  -29.2840   22.3520 N   0  0  0  0  0  0  0  0  0  0  0  0
  -23.5190  -28.8370   23.3260 O   0  0  0  0  0  0  0  0  0  0  0  0
  -21.0490  -29.8400   21.6590 H   0  0  0  0  0  0  0  0  0  0  0  0
  -18.1440  -28.0880   22.7990 C   0  0  0  0  0  0  0  0  0  0  0  0
  -20.7000  -28.3410   23.1030 C   0  0  0  0  0  3  0  0  0  0  0  0
  -20.8100  -26.9160   22.5140 C   0  0  0  0  0  2  0  0  0  0  0  0
  -19.7180  -26.6040   21.4850 C   0  0  0  0  0  2  0  0  0  0  0  0
  -18.3270  -26.7450   22.1150 C   0  0  0  0  0  2  0  0  0  0  0  0
  -19.2580  -28.8440   23.2490 C   0  0  0  0  0  0  0  0  0  0  0  0
  -19.0340  -30.1020   23.8470 C   0  0  0  0  0  3  0  0  0  0  0  0
  -17.7270  -30.6020   24.0080 C   0  0  0  0  0  3  0  0  0  0  0  0
  -16.6260  -29.8400   23.5770 C   0  0  0  0  0  3  0  0  0  0  0  0
  -16.8350  -28.5880   22.9750 C   0  0  0  0  0  3  0  0  0  0  0  0
  -25.9470  -32.5440   23.8650 C   0  0  0  0  0  3  0  0  0  0  0  0
  -26.4400  -31.7780   25.1520 C   0  0  1  0  0  0  0  0  0  0  0  0
  -25.3270  -31.5300   26.1970 C   0  0  0  0  0  1  0  0  0  0  0  0
  -27.0450  -30.4050   24.7790 C   0  0  0  0  0  1  0  0  0  0  0  0
  -27.5610  -32.5870   25.8470 C   0  0  0  0  0  1  0  0  0  0  0  0
  -25.6100  -33.9370   24.1910 N   0  0  0  0  0  0  0  0  0  0  0  0
  -25.9270  -34.9990   23.4410 C   0  0  0  0  0  0  0  0  0  0  0  0
  -26.6050  -34.9110   22.4130 O   0  0  0  0  0  0  0  0  0  0  0  0
  -25.0080  -34.0780   24.9890 H   0  0  0  0  0  0  0  0  0  0  0  0
  -24.1710  -36.7700   23.0870 C   0  0  0  0  0  1  0  0  0  0  0  0
  -25.4130  -36.3780   23.9010 C   0  0  0  0  0  3  0  0  0  0  0  0
  -27.5200  -37.3050   24.7530 C   0  0  0  0  0  1  0  0  0  0  0  0
  -26.4250  -37.4500   23.7990 N   0  0  0  0  0  0  0  0  0  0  0  0
  -26.0000  -38.3610   23.9450 H   0  0  0  0  0  0  0  0  0  0  0  0
  1  4  2  0
  1  2  1  0
  2  6  2  0
  4  5  1  0
  5  3  2  0
  6  3  1  0
  6 15  1  0
  7 15  1  0
  8 13  1  0
  9 10  1  0
  9  8  1  0
 11 10  1  0
 11 20  1  0
 11 12  1  0
 13  7  1  0
 13 12  1  0
 14  7  2  0
 15 16  1  0
 17 18  2  0
 18 37  1  0
 19 18  1  0
 19 22  1  0
 20 17  1  0
 20 21  1  0
 21 19  2  0
 22 23  1  0
 23 24  2  0
 25 28  1  0
 25 24  1  0
 26 25  2  0
 27 26  1  0
 27 22  2  0
 28 29  1  0
 29 30  1  0
 30 31  2  0
 32 31  1  0
 32 36  1  0
 33 32  2  0
 34 29  2  0
 34 33  1  0
 35 34  1  0
 37 38  1  0
 38 41  1  0
 38 40  1  0
 39 37  2  0
 42 43  1  0
 42 17  1  0
 44 42  1  0
 45 47  1  0
 46 45  1  0
 46 47  1  0
 47  4  1  0
 49  5  1  0
 49 48  1  0
 50 49  1  0
 50 51  1  0
 50 48  1  0
 52 53  1  0
 52 51  2  0
 54 65  2  0
 55 53  1  0
 55 60  1  0
 56 64  1  0
 56 66  1  0
 57 63  1  0
 57 59  1  0
 58 64  1  0
 59 58  1  0
 60 59  2  0
 61 55  2  0
 62 61  1  0
 62 57  2  0
 63 56  1  0
 64 54  1  0
 66 68  2  0
 67 66  1  0
 69 67  1  0
 70 79  2  0
 70 75  1  0
 71 67  1  0
 71 75  1  0
 72 71  1  0
 73 74  1  0
 73 72  1  0
 74 70  1  0
 75 76  2  0
 76 77  1  0
 78 77  2  0
 79 78  1  0
 80 54  1  0
 80 85  1  0
 80 81  1  0
 81 84  1  1
 81 82  1  0
 83 81  1  0
 85 88  1  0
 86 90  1  0
 86 85  1  0
 87 86  2  0
 90 89  1  0
 92 90  1  0
 92 93  1  0
 92 91  1  0
M  ISO  4   7 100  15 100  52 101  53 101
M  END
>  <TORSDO>  (77) 
F 20

>  <SCORE>  (77) 
-13.853

>  <name>  (77) 
78

>  <ligand_id>  (77) 
78

>  <original_smiles>  (77) 
[H]c1c([H])c([H])c2c(c1[H])C([H])([H])C([H])([H])C([H])([H])C2([H])N([H])C(=O)C1([H])N(C(=O)C([H])(N([H])C(=O)C([H])(N([H])C([H])([H])[H])C([H])([H])[H])C(C([H])([H])[H])(C([H])([H])[H])C([H])([H])[H])C([H])([H])c2c([H])c(OC([H])([H])C([H])([H])C3([H])C([H])([H])C3([H])c3c([H])c(N([H])C(=O)N4C([H])([H])C([H])([H])C([H])([H])C([H])(n5nc(-c6c([H])c([H])c(Oc7c([H])c([H])c(F)c([H])c7F)c([H])c6[H])c(C(=O)N([H])[H])c5N([H])[H])C4([H])[H])c([H])c([H])c3C3([H])C([H])([H])C3([H])[H])c([H])c([H])c2C1([H])[H]

>  <smiles>  (77) 
[H]c1c([H])c([H])c2c(c1[H])C([H])([H])C([H])([H])C([H])([H])C2([H])N([H])C(=O)C1([H])N(C(=O)C([H])(N([H])C(=O)C([H])(N([H])C([H])([H])[H])C([H])([H])[H])C(C([H])([H])[H])(C([H])([H])[H])C([H])([H])[H])C([H])([H])c2c([H])c(OC([H])([H])C([H])([H])C3([H])C([H])([H])C3([H])c3c([H])c(N([H])C(=O)N4C([H])([H])C([H])([H])C([H])([H])C([H])(n5nc(-c6c([H])c([H])c(Oc7c([H])c([H])c(F)c([H])c7F)c([H])c6[H])c(C(=O)N([H])[H])c5N([H])[H])C4([H])[H])c([H])c([H])c3C3([H])C([H])([H])C3([H])[H])c([H])c([H])c2C1([H])[H]

$$$$
79:0:0
     RDKit          3D

 89 97  0  0  1  0  0  0  0  0999 V2000
  -28.2950  -18.7370   20.4660 C   0  0  0  0  0  3  0  0  0  0  0  0
  -28.1620  -20.1450   20.4940 C   0  0  0  0  0  3  0  0  0  0  0  0
  -29.5420  -17.8210   20.2950 C   0  0  0  0  0  0  0  0  0  0  0  0
  -30.3510  -20.4400   19.6980 C   0  0  0  0  0  0  0  0  0  0  0  0
  -30.7110  -18.8840   20.0790 C   0  0  0  0  0  2  0  0  0  0  0  0
  -29.2400  -21.3220   20.4650 C   0  0  2  0  0  0  0  0  0  0  0  0
  -29.4740  -16.4190   20.3640 N   0  0  0  0  0  0  0  0  0  0  0  0
  -30.9770  -20.9700   18.7750 O   0  0  0  0  0  0  0  0  0  0  0  0
  -30.4090  -15.2300   20.1890 C   0  0  0  0  0  0  0  0  0  0  0  0
  -30.4210  -12.7990   19.3210 C   0  0  0  0  0  2  0  0  0  0  0  0
  -29.4890  -12.6640   18.0890 C   0  0  0  0  0  2  0  0  0  0  0  0
  -28.0350  -12.4010   18.5280 C   0  0  0  0  0  2  0  0  0  0  0  0
  -27.5980  -13.3350   19.6850 C   0  0  0  0  0  3  0  0  0  0  0  0
  -28.6540  -13.4210   20.8020 C   0  0  0  0  0  2  0  0  0  0  0  0
  -29.9030  -13.9060   20.1940 N   0  0  0  0  0  0  0  0  0  0  0  0
  -31.6090  -15.2940   19.9030 O   0  0  0  0  0  0  0  0  0  0  0  0
  -25.2250  -13.8800   20.4550 C   0  0  0  0  0  0  0  0  0  0  0  0
  -24.1680  -13.0980   20.8290 C   0  0  0  0  0  0  0  0  0  0  0  0
  -24.6390  -11.7490   20.7890 C   0  0  0  0  0  0  0  0  0  0  0  0
  -26.2700  -13.0110   20.1980 N   0  0  0  0  0  0  0  0  0  0  0  0
  -25.9300  -11.7220   20.4660 N   0  0  0  0  0  0  0  0  0  0  0  0
  -23.9200  -10.4830   20.9850 C   0  0  0  0  0  0  0  0  0  0  0  0
  -24.3480   -9.5260   21.9340 C   0  0  0  0  0  3  0  0  0  0  0  0
  -23.6270   -8.3250   22.1160 C   0  0  0  0  0  3  0  0  0  0  0  0
  -22.4650   -8.0710   21.3510 C   0  0  0  0  0  0  0  0  0  0  0  0
  -22.0530   -9.0180   20.3950 C   0  0  0  0  0  3  0  0  0  0  0  0
  -22.7750  -10.2090   20.2110 C   0  0  0  0  0  3  0  0  0  0  0  0
  -21.7180   -6.9220   21.4400 O   0  0  0  0  0  0  0  0  0  0  0  0
  -21.6440   -6.1990   22.6040 C   0  0  0  0  0  0  0  0  0  0  0  0
  -21.1530   -6.7640   23.8010 C   0  0  0  0  0  3  0  0  0  0  0  0
  -21.0300   -5.9670   24.9570 C   0  0  0  0  0  3  0  0  0  0  0  0
  -21.3870   -4.6060   24.9160 C   0  0  0  0  0  0  0  0  0  0  0  0
  -21.8690   -4.0400   23.7220 C   0  0  0  0  0  3  0  0  0  0  0  0
  -21.9960   -4.8350   22.5690 C   0  0  0  0  0  0  0  0  0  0  0  0
  -22.4440   -4.2800   21.4170 F   0  0  0  0  0  0  0  0  0  0  0  0
  -21.2610   -3.8380   26.0230 F   0  0  0  0  0  0  0  0  0  0  0  0
  -22.7700  -13.5680   21.1090 C   0  0  0  0  0  0  0  0  0  0  0  0
  -22.0460  -12.8690   21.9770 N   0  0  0  0  0  0  0  0  0  0  0  0
  -22.3260  -14.5910   20.5920 O   0  0  0  0  0  0  0  0  0  0  0  0
  -22.4170  -12.0430   22.4230 H   0  0  0  0  0  0  0  0  0  0  0  0
  -21.1090  -13.1710   22.2010 H   0  0  0  0  0  0  0  0  0  0  0  0
  -25.3830  -15.2530   20.2840 N   0  0  0  0  0  0  0  0  0  0  0  0
  -24.6240  -15.9140   20.4100 H   0  0  0  0  0  0  0  0  0  0  0  0
  -26.2500  -15.6850   19.9890 H   0  0  0  0  0  0  0  0  0  0  0  0
  -30.9510  -22.4110   22.1330 C   0  0  0  0  0  1  0  0  0  0  0  0
  -29.7090  -21.5220   21.9280 C   0  0  0  0  0  2  0  0  0  0  0  0
  -28.8890  -22.9670   19.8530 C   0  0  0  0  0  2  0  0  0  0  0  0
  -28.1210  -24.4260   20.5020 C   0  0  0  0  0  2  0  0  0  0  0  0
  -28.2720  -26.0190   20.2200 O   0  0  0  0  0  0  0  0  0  0  0  0
  -24.5840  -31.8710   23.2100 C   0  0  0  0  0  0  0  0  0  0  0  0
  -27.2090  -27.0460   20.2290 C   0  0  0  0  0  0  0  0  0  0  0  0
  -23.4090  -30.4600   21.5690 C   0  0  0  0  0  3  0  0  0  0  0  0
  -24.8790  -28.8600   20.1730 C   0  0  0  0  0  0  0  0  0  0  0  0
  -25.9730  -30.7000   21.4380 C   0  0  0  0  0  2  0  0  0  0  0  0
  -26.0590  -29.2930   20.7910 C   0  0  0  0  0  0  0  0  0  0  0  0
  -27.2220  -28.4100   20.7890 C   0  0  0  0  0  3  0  0  0  0  0  0
  -25.9940  -26.7420   19.5790 C   0  0  0  0  0  3  0  0  0  0  0  0
  -24.8670  -27.6020   19.5490 C   0  0  0  0  0  3  0  0  0  0  0  0
  -23.6540  -29.7700   20.2010 C   0  0  0  0  0  2  0  0  0  0  0  0
  -24.6760  -31.0370   22.1250 N   0  0  0  0  0  0  0  0  0  0  0  0
  -23.4900  -32.1570   23.7220 O   0  0  0  0  0  0  0  0  0  0  0  0
  -22.7170  -29.4640   22.5330 C   0  0  0  0  0  0  0  0  0  0  0  0
  -21.3860  -29.3030   22.4080 N   0  0  0  0  0  0  0  0  0  0  0  0
  -23.3810  -28.8350   23.3610 O   0  0  0  0  0  0  0  0  0  0  0  0
  -20.9050  -29.8580   21.7150 H   0  0  0  0  0  0  0  0  0  0  0  0
  -17.9980  -28.1250   22.9270 C   0  0  0  0  0  0  0  0  0  0  0  0
  -20.5600  -28.3700   23.1790 C   0  0  0  0  0  3  0  0  0  0  0  0
  -20.6490  -26.9400   22.5970 C   0  0  0  0  0  2  0  0  0  0  0  0
  -19.5400  -26.6300   21.5870 C   0  0  0  0  0  2  0  0  0  0  0  0
  -18.1630  -26.7800   22.2390 C   0  0  0  0  0  2  0  0  0  0  0  0
  -19.1230  -28.8790   23.3540 C   0  0  0  0  0  0  0  0  0  0  0  0
  -18.9140  -30.1370   23.9600 C   0  0  0  0  0  3  0  0  0  0  0  0
  -17.6110  -30.6400   24.1430 C   0  0  0  0  0  3  0  0  0  0  0  0
  -16.5010  -29.8830   23.7330 C   0  0  0  0  0  3  0  0  0  0  0  0
  -16.6950  -28.6270   23.1290 C   0  0  0  0  0  3  0  0  0  0  0  0
  -25.8500  -32.5200   23.8480 C   0  0  0  0  0  3  0  0  0  0  0  0
  -26.3410  -31.7720   25.1490 C   0  0  1  0  0  0  0  0  0  0  0  0
  -25.2270  -31.5570   26.2030 C   0  0  0  0  0  1  0  0  0  0  0  0
  -26.9310  -30.3870   24.8010 C   0  0  0  0  0  1  0  0  0  0  0  0
  -27.4810  -32.5770   25.8180 C   0  0  0  0  0  1  0  0  0  0  0  0
  -25.5290  -33.9240   24.1610 N   0  0  0  0  0  0  0  0  0  0  0  0
  -25.8780  -34.9750   23.4100 C   0  0  0  0  0  0  0  0  0  0  0  0
  -26.5650  -34.8670   22.3920 O   0  0  0  0  0  0  0  0  0  0  0  0
  -24.9190  -34.0800   24.9510 H   0  0  0  0  0  0  0  0  0  0  0  0
  -24.1690  -36.7840   23.0150 C   0  0  0  0  0  1  0  0  0  0  0  0
  -25.3870  -36.3680   23.8550 C   0  0  0  0  0  3  0  0  0  0  0  0
  -27.5010  -37.2490   24.7440 C   0  0  0  0  0  1  0  0  0  0  0  0
  -26.4270  -37.4160   23.7690 N   0  0  0  0  0  0  0  0  0  0  0  0
  -26.0200  -38.3380   23.9010 H   0  0  0  0  0  0  0  0  0  0  0  0
  1  2  2  0
  3  7  2  0
  3  1  1  0
  4  5  1  0
  4  6  1  0
  5  3  1  0
  6 47  1  6
  6  2  1  0
  6 46  1  0
  8  4  2  0
  9 15  1  0
  9  7  1  0
 10 15  1  0
 11 12  1  0
 11 10  1  0
 13 12  1  0
 13 20  1  0
 13 14  1  0
 15 14  1  0
 16  9  2  0
 17 18  2  0
 18 37  1  0
 19 18  1  0
 19 22  1  0
 20 17  1  0
 20 21  1  0
 21 19  2  0
 22 23  1  0
 23 24  2  0
 25 28  1  0
 25 24  1  0
 26 25  2  0
 27 26  1  0
 27 22  2  0
 28 29  1  0
 29 30  1  0
 30 31  2  0
 32 31  1  0
 32 36  1  0
 33 32  2  0
 34 29  2  0
 34 33  1  0
 35 34  1  0
 37 38  1  0
 38 41  1  0
 38 40  1  0
 39 37  2  0
 42 43  1  0
 42 17  1  0
 44 42  1  0
 46 45  1  0
 47 48  1  0
 49 51  1  0
 49 48  1  0
 50 61  2  0
 51 56  1  0
 52 60  1  0
 52 62  1  0
 53 59  1  0
 53 55  1  0
 54 60  1  0
 55 54  1  0
 56 55  2  0
 57 51  2  0
 58 57  1  0
 58 53  2  0
 59 52  1  0
 60 50  1  0
 62 64  2  0
 63 62  1  0
 65 63  1  0
 66 75  2  0
 66 71  1  0
 67 63  1  0
 67 71  1  0
 68 67  1  0
 69 70  1  0
 69 68  1  0
 70 66  1  0
 71 72  2  0
 72 73  1  0
 74 73  2  0
 75 74  1  0
 76 50  1  0
 76 81  1  0
 76 77  1  0
 77 80  1  1
 77 78  1  0
 79 77  1  0
 81 84  1  0
 82 86  1  0
 82 81  1  0
 83 82  2  0
 86 85  1  0
 88 86  1  0
 88 89  1  0
 88 87  1  0
M  ISO  4   7 100   9 100  48 101  49 101
M  END
>  <TORSDO>  (78) 
F 19

>  <SCORE>  (78) 
-15.368

>  <name>  (78) 
79

>  <ligand_id>  (78) 
79

>  <original_smiles>  (78) 
[H]C1=C([H])C(C([H])([H])C([H])([H])[H])(C([H])([H])C([H])([H])Oc2c([H])c([H])c3c(c2[H])C([H])([H])N(C(=O)C([H])(N([H])C(=O)C([H])(N([H])C([H])([H])[H])C([H])([H])[H])C(C([H])([H])[H])(C([H])([H])[H])C([H])([H])[H])C([H])(C(=O)N([H])C2([H])c4c([H])c([H])c([H])c([H])c4C([H])([H])C([H])([H])C2([H])[H])C3([H])[H])C(=O)C([H])([H])C1=NC(=O)N1C([H])([H])C([H])([H])C([H])([H])C([H])(n2nc(-c3c([H])c([H])c(Oc4c([H])c([H])c(F)c([H])c4F)c([H])c3[H])c(C(=O)N([H])[H])c2N([H])[H])C1([H])[H]

>  <smiles>  (78) 
[H]C1=C([H])C(C([H])([H])C([H])([H])[H])(C([H])([H])C([H])([H])Oc2c([H])c([H])c3c(c2[H])C([H])([H])N(C(=O)C([H])(N([H])C(=O)C([H])(N([H])C([H])([H])[H])C([H])([H])[H])C(C([H])([H])[H])(C([H])([H])[H])C([H])([H])[H])C([H])(C(=O)N([H])C2([H])c4c([H])c([H])c([H])c([H])c4C([H])([H])C([H])([H])C2([H])[H])C3([H])[H])C(=O)C([H])([H])C1=NC(=O)N1C([H])([H])C([H])([H])C([H])([H])C([H])(n2nc(-c3c([H])c([H])c(Oc4c([H])c([H])c(F)c([H])c4F)c([H])c3[H])c(C(=O)N([H])[H])c2N([H])[H])C1([H])[H]

$$$$
80:0:0
     RDKit          3D

 90 99  0  0  1  0  0  0  0  0999 V2000
  -29.1860  -22.5980   20.1760 N   0  0  0  0  0  4  0  0  0  0  0  0
  -28.4390  -22.3520   20.8110 H   0  0  0  0  0  0  0  0  0  0  0  0
  -28.8590  -22.3980   19.2410 H   0  0  0  0  0  0  0  0  0  0  0  0
  -30.3320  -21.6530   20.4540 C   0  0  0  0  0  2  0  0  0  0  0  0
  -30.3940  -16.7920   20.8150 C   0  0  0  0  0  0  0  0  0  0  0  0
  -29.7060  -17.7940   21.7270 C   0  0  0  0  0  2  0  0  0  0  0  0
  -31.2160  -17.6220   19.8110 C   0  0  0  0  0  2  0  0  0  0  0  0
  -30.3460  -19.1660   21.5070 C   0  0  0  0  0  3  0  0  0  0  0  0
  -31.2200  -19.0890   20.2940 C   0  0  0  0  0  3  0  0  0  0  0  0
  -30.0520  -20.1100   20.3330 C   0  0  0  0  0  3  0  0  0  0  0  0
  -30.2340  -15.5110   20.9700 N   0  0  0  0  0  0  0  0  0  0  0  0
  -30.8720  -14.5400   20.1780 C   0  0  0  0  0  0  0  0  0  0  0  0
  -30.4640  -12.4400   18.9080 C   0  0  0  0  0  2  0  0  0  0  0  0
  -29.4530  -12.7120   17.7720 C   0  0  0  0  0  2  0  0  0  0  0  0
  -27.9990  -12.5870   18.2680 C   0  0  0  0  0  2  0  0  0  0  0  0
  -27.7550  -13.3450   19.6020 C   0  0  0  0  0  3  0  0  0  0  0  0
  -28.8700  -13.0410   20.6270 C   0  0  0  0  0  2  0  0  0  0  0  0
  -30.1670  -13.3790   20.0070 N   0  0  0  0  0  0  0  0  0  0  0  0
  -31.9440  -14.7070   19.5920 O   0  0  0  0  0  0  0  0  0  0  0  0
  -25.3950  -13.9490   20.4270 C   0  0  0  0  0  0  0  0  0  0  0  0
  -24.3390  -13.1790   20.8320 C   0  0  0  0  0  0  0  0  0  0  0  0
  -24.7870  -11.8230   20.7570 C   0  0  0  0  0  0  0  0  0  0  0  0
  -26.4250  -13.0660   20.1400 N   0  0  0  0  0  0  0  0  0  0  0  0
  -26.0640  -11.7790   20.3940 N   0  0  0  0  0  0  0  0  0  0  0  0
  -24.0610  -10.5610   20.9600 C   0  0  0  0  0  0  0  0  0  0  0  0
  -24.5070   -9.5860   21.8790 C   0  0  0  0  0  3  0  0  0  0  0  0
  -23.7790   -8.3910   22.0670 C   0  0  0  0  0  3  0  0  0  0  0  0
  -22.5900   -8.1610   21.3370 C   0  0  0  0  0  0  0  0  0  0  0  0
  -22.1600   -9.1250   20.4060 C   0  0  0  0  0  3  0  0  0  0  0  0
  -22.8890  -10.3120   20.2170 C   0  0  0  0  0  3  0  0  0  0  0  0
  -21.8320   -7.0180   21.4360 O   0  0  0  0  0  0  0  0  0  0  0  0
  -21.7760   -6.2900   22.5980 C   0  0  0  0  0  0  0  0  0  0  0  0
  -21.3500   -6.8640   23.8150 C   0  0  0  0  0  3  0  0  0  0  0  0
  -21.2380   -6.0640   24.9690 C   0  0  0  0  0  3  0  0  0  0  0  0
  -21.5450   -4.6910   24.9060 C   0  0  0  0  0  0  0  0  0  0  0  0
  -21.9640   -4.1170   23.6930 C   0  0  0  0  0  3  0  0  0  0  0  0
  -22.0760   -4.9160   22.5420 C   0  0  0  0  0  0  0  0  0  0  0  0
  -22.4620   -4.3540   21.3690 F   0  0  0  0  0  0  0  0  0  0  0  0
  -21.4310   -3.9180   26.0130 F   0  0  0  0  0  0  0  0  0  0  0  0
  -22.9570  -13.6580   21.1710 C   0  0  0  0  0  0  0  0  0  0  0  0
  -22.2620  -12.9620   22.0610 N   0  0  0  0  0  0  0  0  0  0  0  0
  -22.5020  -14.6890   20.6750 O   0  0  0  0  0  0  0  0  0  0  0  0
  -22.6400  -12.1260   22.4790 H   0  0  0  0  0  0  0  0  0  0  0  0
  -21.3390  -13.2720   22.3260 H   0  0  0  0  0  0  0  0  0  0  0  0
  -25.5570  -15.3210   20.2610 N   0  0  0  0  0  0  0  0  0  0  0  0
  -24.7890  -15.9700   20.3790 H   0  0  0  0  0  0  0  0  0  0  0  0
  -26.4060  -15.7640   19.9330 H   0  0  0  0  0  0  0  0  0  0  0  0
  -29.4570  -24.0920   20.2710 C   0  0  0  0  0  3  0  0  0  0  0  0
  -28.2150  -25.0440   20.0080 C   0  0  0  0  0  3  0  0  0  0  0  0
  -28.3840  -26.5010   20.1970 O   0  0  0  0  0  0  0  0  0  0  0  0
  -24.6230  -31.8590   23.2400 C   0  0  0  0  0  0  0  0  0  0  0  0
  -27.2400  -27.3160   20.1630 C   0  0  0  0  0  0  0  0  0  0  0  0
  -23.4110  -30.4530   21.6100 C   0  0  0  0  0  3  0  0  0  0  0  0
  -24.8550  -28.9010   20.1820 C   0  0  0  0  0  0  0  0  0  0  0  0
  -25.9480  -30.7750   21.4190 C   0  0  0  0  0  2  0  0  0  0  0  0
  -26.0260  -29.4000   20.7680 C   0  0  0  0  0  0  0  0  0  0  0  0
  -27.2210  -28.6220   20.7440 C   0  0  0  0  0  3  0  0  0  0  0  0
  -26.0410  -26.8650   19.5590 C   0  0  0  0  0  3  0  0  0  0  0  0
  -24.8650  -27.6370   19.5700 C   0  0  0  0  0  3  0  0  0  0  0  0
  -23.6160  -29.7680   20.2330 C   0  0  0  0  0  2  0  0  0  0  0  0
  -24.6780  -31.0490   22.1430 N   0  0  0  0  0  0  0  0  0  0  0  0
  -23.5420  -32.1390   23.7780 O   0  0  0  0  0  0  0  0  0  0  0  0
  -22.7520  -29.4390   22.5760 C   0  0  0  0  0  0  0  0  0  0  0  0
  -21.4260  -29.2620   22.4530 N   0  0  0  0  0  0  0  0  0  0  0  0
  -23.4330  -28.8130   23.3940 O   0  0  0  0  0  0  0  0  0  0  0  0
  -20.9410  -29.8100   21.7550 H   0  0  0  0  0  0  0  0  0  0  0  0
  -18.0500  -28.0720   22.9720 C   0  0  0  0  0  0  0  0  0  0  0  0
  -20.6080  -28.3280   23.2290 C   0  0  0  0  0  3  0  0  0  0  0  0
  -20.7060  -26.8960   22.6540 C   0  0  0  0  0  2  0  0  0  0  0  0
  -19.6020  -26.5740   21.6440 C   0  0  0  0  0  2  0  0  0  0  0  0
  -18.2220  -26.7230   22.2940 C   0  0  0  0  0  2  0  0  0  0  0  0
  -19.1720  -28.8340   23.3960 C   0  0  0  0  0  0  0  0  0  0  0  0
  -18.9550  -30.1010   23.9820 C   0  0  0  0  0  3  0  0  0  0  0  0
  -17.6530  -30.6050   24.1480 C   0  0  0  0  0  3  0  0  0  0  0  0
  -16.5450  -29.8390   23.7470 C   0  0  0  0  0  3  0  0  0  0  0  0
  -16.7460  -28.5740   23.1630 C   0  0  0  0  0  3  0  0  0  0  0  0
  -25.9110  -32.4890   23.8560 C   0  0  0  0  0  3  0  0  0  0  0  0
  -26.4340  -31.7120   25.1260 C   0  0  1  0  0  0  0  0  0  0  0  0
  -25.3420  -31.4710   26.1950 C   0  0  0  0  0  1  0  0  0  0  0  0
  -27.0190  -30.3380   24.7290 C   0  0  0  0  0  1  0  0  0  0  0  0
  -27.5880  -32.5040   25.7820 C   0  0  0  0  0  1  0  0  0  0  0  0
  -25.6010  -33.8830   24.1970 N   0  0  0  0  0  0  0  0  0  0  0  0
  -25.9180  -34.9420   23.4390 C   0  0  0  0  0  0  0  0  0  0  0  0
  -26.5720  -34.8430   22.3990 O   0  0  0  0  0  0  0  0  0  0  0  0
  -25.0180  -34.0320   25.0070 H   0  0  0  0  0  0  0  0  0  0  0  0
  -24.1740  -36.7260   23.1250 C   0  0  0  0  0  1  0  0  0  0  0  0
  -25.4340  -36.3270   23.9100 C   0  0  0  0  0  3  0  0  0  0  0  0
  -27.5800  -37.2200   24.7020 C   0  0  0  0  0  1  0  0  0  0  0  0
  -26.4600  -37.3850   23.7780 N   0  0  0  0  0  0  0  0  0  0  0  0
  -26.0540  -38.3050   23.9280 H   0  0  0  0  0  0  0  0  0  0  0  0
  1 48  1  0
  1  4  1  0
  1  2  1  0
  3  1  1  0
  5 11  2  0
  5  6  1  0
  7  5  1  0
  8  6  1  0
  9  7  1  0
  9 10  1  0
  9  8  1  0
 10  4  1  0
 10  8  1  0
 12 11  1  0
 13 18  1  0
 14 15  1  0
 14 13  1  0
 16 15  1  0
 16 23  1  0
 16 17  1  0
 18 12  1  0
 18 17  1  0
 19 12  2  0
 20 21  2  0
 21 40  1  0
 22 21  1  0
 22 25  1  0
 23 24  1  0
 23 20  1  0
 24 22  2  0
 25 26  1  0
 26 27  2  0
 28 31  1  0
 28 27  1  0
 29 28  2  0
 30 29  1  0
 30 25  2  0
 31 32  1  0
 32 33  1  0
 33 34  2  0
 35 34  1  0
 35 39  1  0
 36 35  2  0
 37 32  2  0
 37 36  1  0
 38 37  1  0
 40 41  1  0
 41 44  1  0
 41 43  1  0
 42 40  2  0
 45 46  1  0
 45 20  1  0
 47 45  1  0
 49 50  1  0
 49 48  2  0
 51 62  2  0
 52 50  1  0
 52 57  1  0
 53 61  1  0
 53 63  1  0
 54 60  1  0
 54 56  1  0
 55 61  1  0
 56 55  1  0
 57 56  2  0
 58 59  1  0
 58 52  2  0
 59 54  2  0
 60 53  1  0
 61 51  1  0
 63 65  2  0
 64 63  1  0
 66 64  1  0
 67 76  2  0
 67 72  1  0
 68 64  1  0
 68 72  1  0
 69 68  1  0
 70 71  1  0
 70 69  1  0
 71 67  1  0
 72 73  2  0
 73 74  1  0
 75 74  2  0
 76 75  1  0
 77 51  1  0
 77 82  1  0
 77 78  1  0
 78 81  1  1
 78 79  1  0
 80 78  1  0
 82 85  1  0
 83 87  1  0
 83 82  1  0
 84 83  2  0
 87 86  1  0
 89 87  1  0
 89 90  1  0
 89 88  1  0
M  ISO  4  11 100  12 100  49 101  50 101
M  END
>  <TORSDO>  (79) 
F 20

>  <SCORE>  (79) 
-13.247

>  <name>  (79) 
80

>  <ligand_id>  (79) 
80

>  <original_smiles>  (79) 
[H]c1c([H])c([H])c2c(c1[H])C([H])([H])C([H])([H])C([H])([H])C2([H])N([H])C(=O)C1([H])N(C(=O)C([H])(N([H])C(=O)C([H])(N([H])C([H])([H])[H])C([H])([H])[H])C(C([H])([H])[H])(C([H])([H])[H])C([H])([H])[H])C([H])([H])c2c([H])c(OC([H])([H])C([H])([H])[N+]([H])([H])C([H])([H])C3([H])C4([H])C([H])([H])C(=NC(=O)N5C([H])([H])C([H])([H])C([H])([H])C([H])(n6nc(-c7c([H])c([H])c(Oc8c([H])c([H])c(F)c([H])c8F)c([H])c7[H])c(C(=O)N([H])[H])c6N([H])[H])C5([H])[H])C([H])([H])C43[H])c([H])c([H])c2C1([H])[H]

>  <smiles>  (79) 
[H]c1c([H])c([H])c2c(c1[H])C([H])([H])C([H])([H])C([H])([H])C2([H])N([H])C(=O)C1([H])N(C(=O)C([H])(N([H])C(=O)C([H])(N([H])C([H])([H])[H])C([H])([H])[H])C(C([H])([H])[H])(C([H])([H])[H])C([H])([H])[H])C([H])([H])c2c([H])c(OC([H])([H])C([H])([H])[N+]([H])([H])C([H])([H])C3([H])C4([H])C([H])([H])C(=NC(=O)N5C([H])([H])C([H])([H])C([H])([H])C([H])(n6nc(-c7c([H])c([H])c(Oc8c([H])c([H])c(F)c([H])c8F)c([H])c7[H])c(C(=O)N([H])[H])c6N([H])[H])C5([H])[H])C([H])([H])C43[H])c([H])c([H])c2C1([H])[H]

$$$$
81:0:0
     RDKit          3D

 95104  0  0  1  0  0  0  0  0999 V2000
  -29.8970  -17.7950   18.8330 C   0  0  0  0  0  3  0  0  0  0  0  0
  -29.7440  -19.0820   18.4030 C   0  0  0  0  0  0  0  0  0  0  0  0
  -29.4960  -18.4830   21.1800 C   0  0  0  0  0  2  0  0  0  0  0  0
  -29.0800  -21.6100   19.1040 C   0  0  0  0  0  2  0  0  0  0  0  0
  -29.1030  -21.2270   21.4170 C   0  0  0  0  0  2  0  0  0  0  0  0
  -30.1960  -17.3770   20.2740 C   0  0  0  0  0  3  0  0  0  0  0  0
  -29.9450  -20.3100   19.3200 C   0  0  0  0  0  3  0  0  0  0  0  0
  -29.9000  -19.9900   20.8280 C   0  0  0  0  0  3  0  0  0  0  0  0
  -29.2400  -22.4360   20.4090 C   0  0  0  0  0  3  0  0  0  0  0  0
  -30.6520  -14.7750   20.3030 C   0  0  0  0  0  0  0  0  0  0  0  0
  -30.4400  -12.5100   19.2790 C   0  0  0  0  0  2  0  0  0  0  0  0
  -29.4950  -12.6010   18.0590 C   0  0  0  0  0  2  0  0  0  0  0  0
  -28.0280  -12.4330   18.4970 C   0  0  0  0  0  2  0  0  0  0  0  0
  -27.6650  -13.3130   19.7230 C   0  0  0  0  0  3  0  0  0  0  0  0
  -28.7270  -13.2060   20.8380 C   0  0  0  0  0  2  0  0  0  0  0  0
  -30.0250  -13.5530   20.2450 N   0  0  0  0  0  0  0  0  0  0  0  0
  -31.8300  -14.8800   19.9500 O   0  0  0  0  0  0  0  0  0  0  0  0
  -29.8780  -15.9020   20.5350 N   0  0  0  0  0  0  0  0  0  0  0  0
  -28.9290  -15.7060   20.8150 H   0  0  0  0  0  0  0  0  0  0  0  0
  -25.2780  -13.9090   20.4510 C   0  0  0  0  0  0  0  0  0  0  0  0
  -24.2140  -13.1360   20.8270 C   0  0  0  0  0  0  0  0  0  0  0  0
  -24.6770  -11.7850   20.8010 C   0  0  0  0  0  0  0  0  0  0  0  0
  -26.3210  -13.0280   20.2170 N   0  0  0  0  0  0  0  0  0  0  0  0
  -25.9670  -11.7460   20.4910 N   0  0  0  0  0  0  0  0  0  0  0  0
  -23.9520  -10.5220   20.9970 C   0  0  0  0  0  0  0  0  0  0  0  0
  -24.3820   -9.5610   21.9380 C   0  0  0  0  0  3  0  0  0  0  0  0
  -23.6550   -8.3640   22.1220 C   0  0  0  0  0  3  0  0  0  0  0  0
  -22.4860   -8.1210   21.3640 C   0  0  0  0  0  0  0  0  0  0  0  0
  -22.0740   -9.0720   20.4130 C   0  0  0  0  0  3  0  0  0  0  0  0
  -22.8010  -10.2590   20.2270 C   0  0  0  0  0  3  0  0  0  0  0  0
  -21.7310   -6.9760   21.4560 O   0  0  0  0  0  0  0  0  0  0  0  0
  -21.6740   -6.2440   22.6150 C   0  0  0  0  0  0  0  0  0  0  0  0
  -21.2240   -6.8040   23.8300 C   0  0  0  0  0  3  0  0  0  0  0  0
  -21.1160   -5.9980   24.9810 C   0  0  0  0  0  3  0  0  0  0  0  0
  -21.4470   -4.6310   24.9170 C   0  0  0  0  0  0  0  0  0  0  0  0
  -21.8910   -4.0700   23.7060 C   0  0  0  0  0  3  0  0  0  0  0  0
  -22.0010   -4.8740   22.5580 C   0  0  0  0  0  0  0  0  0  0  0  0
  -22.4080   -4.3230   21.3890 F   0  0  0  0  0  0  0  0  0  0  0  0
  -21.3360   -3.8530   26.0190 F   0  0  0  0  0  0  0  0  0  0  0  0
  -22.8160  -13.6140   21.0960 C   0  0  0  0  0  0  0  0  0  0  0  0
  -22.0870  -12.9180   21.9630 N   0  0  0  0  0  0  0  0  0  0  0  0
  -22.3780  -14.6380   20.5760 O   0  0  0  0  0  0  0  0  0  0  0  0
  -22.4530  -12.0890   22.4070 H   0  0  0  0  0  0  0  0  0  0  0  0
  -21.1500  -13.2210   22.1880 H   0  0  0  0  0  0  0  0  0  0  0  0
  -25.4410  -15.2780   20.2650 N   0  0  0  0  0  0  0  0  0  0  0  0
  -24.6710  -15.9300   20.3660 H   0  0  0  0  0  0  0  0  0  0  0  0
  -26.2810  -15.7130   19.9060 H   0  0  0  0  0  0  0  0  0  0  0  0
  -29.4420  -19.3230   16.9940 C   0  0  0  0  0  0  0  0  0  0  0  0
  -28.4780  -18.5490   16.5060 N   0  0  0  0  0  0  0  0  0  0  0  0
  -29.9820  -20.1710   16.2860 O   0  0  0  0  0  0  0  0  0  0  0  0
  -28.0190  -17.8800   17.1040 H   0  0  0  0  0  0  0  0  0  0  0  0
  -28.1830  -18.6440   15.5440 H   0  0  0  0  0  0  0  0  0  0  0  0
  -28.3770  -23.7940   20.6600 C   0  0  0  0  0  2  0  0  0  0  0  0
  -28.6180  -25.1350   19.7910 C   0  0  0  0  0  2  0  0  0  0  0  0
  -28.4680  -26.5170   20.3500 O   0  0  0  0  0  0  0  0  0  0  0  0
  -24.6250  -31.8970   23.2550 C   0  0  0  0  0  0  0  0  0  0  0  0
  -27.3200  -27.3260   20.2520 C   0  0  0  0  0  0  0  0  0  0  0  0
  -23.4550  -30.4770   21.6090 C   0  0  0  0  0  3  0  0  0  0  0  0
  -24.9370  -28.9280   20.2040 C   0  0  0  0  0  0  0  0  0  0  0  0
  -25.9920  -30.8160   21.4510 C   0  0  0  0  0  2  0  0  0  0  0  0
  -26.0920  -29.4320   20.8110 C   0  0  0  0  0  0  0  0  0  0  0  0
  -27.2820  -28.6410   20.8250 C   0  0  0  0  0  3  0  0  0  0  0  0
  -26.1370  -26.8730   19.6280 C   0  0  0  0  0  3  0  0  0  0  0  0
  -24.9620  -27.6550   19.6040 C   0  0  0  0  0  3  0  0  0  0  0  0
  -23.6910  -29.7940   20.2350 C   0  0  0  0  0  2  0  0  0  0  0  0
  -24.7090  -31.0830   22.1620 N   0  0  0  0  0  0  0  0  0  0  0  0
  -23.5330  -32.1670   23.7780 O   0  0  0  0  0  0  0  0  0  0  0  0
  -22.7900  -29.4620   22.5690 C   0  0  0  0  0  0  0  0  0  0  0  0
  -21.4650  -29.2830   22.4380 N   0  0  0  0  0  0  0  0  0  0  0  0
  -23.4670  -28.8380   23.3910 O   0  0  0  0  0  0  0  0  0  0  0  0
  -20.9790  -29.8370   21.7460 H   0  0  0  0  0  0  0  0  0  0  0  0
  -18.0850  -28.0970   22.9440 C   0  0  0  0  0  0  0  0  0  0  0  0
  -20.6450  -28.3440   23.2050 C   0  0  0  0  0  3  0  0  0  0  0  0
  -20.7400  -26.9160   22.6180 C   0  0  0  0  0  2  0  0  0  0  0  0
  -19.6330  -26.6070   21.6050 C   0  0  0  0  0  2  0  0  0  0  0  0
  -18.2530  -26.7520   22.2560 C   0  0  0  0  0  2  0  0  0  0  0  0
  -19.2080  -28.8520   23.3740 C   0  0  0  0  0  0  0  0  0  0  0  0
  -18.9970  -30.1100   23.9770 C   0  0  0  0  0  3  0  0  0  0  0  0
  -17.6960  -30.6150   24.1530 C   0  0  0  0  0  3  0  0  0  0  0  0
  -16.5860  -29.8580   23.7390 C   0  0  0  0  0  3  0  0  0  0  0  0
  -16.7820  -28.6000   23.1390 C   0  0  0  0  0  3  0  0  0  0  0  0
  -25.8950  -32.5470   23.8900 C   0  0  0  0  0  3  0  0  0  0  0  0
  -26.3960  -31.7950   25.1840 C   0  0  1  0  0  0  0  0  0  0  0  0
  -25.2890  -31.5620   26.2380 C   0  0  0  0  0  1  0  0  0  0  0  0
  -26.9960  -30.4160   24.8190 C   0  0  0  0  0  1  0  0  0  0  0  0
  -27.5310  -32.6050   25.8550 C   0  0  0  0  0  1  0  0  0  0  0  0
  -25.5700  -33.9460   24.2010 N   0  0  0  0  0  0  0  0  0  0  0  0
  -25.9060  -34.9940   23.4380 C   0  0  0  0  0  0  0  0  0  0  0  0
  -26.5890  -34.8860   22.4150 O   0  0  0  0  0  0  0  0  0  0  0  0
  -24.9630  -34.1040   24.9920 H   0  0  0  0  0  0  0  0  0  0  0  0
  -24.1730  -36.7760   23.0420 C   0  0  0  0  0  1  0  0  0  0  0  0
  -25.4040  -36.3840   23.8750 C   0  0  0  0  0  3  0  0  0  0  0  0
  -27.5190  -37.2920   24.7340 C   0  0  0  0  0  1  0  0  0  0  0  0
  -26.4330  -37.4420   23.7690 N   0  0  0  0  0  0  0  0  0  0  0  0
  -26.0190  -38.3610   23.8990 H   0  0  0  0  0  0  0  0  0  0  0  0
  1  6  1  0
  2  1  2  0
  2  7  1  0
  4  9  1  0
  6 18  1  0
  6  3  1  0
  7  4  1  0
  7  8  1  0
  8  3  1  0
  8  5  1  0
  9 53  1  0
  9  5  1  0
 10 18  1  0
 11 16  1  0
 12 13  1  0
 12 11  1  0
 14 13  1  0
 14 23  1  0
 14 15  1  0
 16 10  1  0
 16 15  1  0
 17 10  2  0
 18 19  1  0
 20 21  2  0
 21 40  1  0
 22 21  1  0
 22 25  1  0
 23 20  1  0
 23 24  1  0
 24 22  2  0
 25 26  1  0
 26 27  2  0
 28 31  1  0
 28 27  1  0
 29 28  2  0
 30 29  1  0
 30 25  2  0
 31 32  1  0
 32 33  1  0
 33 34  2  0
 35 34  1  0
 35 39  1  0
 36 35  2  0
 37 32  2  0
 37 36  1  0
 38 37  1  0
 40 41  1  0
 41 44  1  0
 41 43  1  0
 42 40  2  0
 45 46  1  0
 45 20  1  0
 47 45  1  0
 48  2  1  0
 49 48  1  0
 49 51  1  0
 50 48  2  0
 52 49  1  0
 54 55  1  0
 54 53  1  0
 56 67  2  0
 57 55  1  0
 57 62  1  0
 58 66  1  0
 58 68  1  0
 59 65  1  0
 59 61  1  0
 60 66  1  0
 61 62  2  0
 61 60  1  0
 63 57  2  0
 64 63  1  0
 64 59  2  0
 65 58  1  0
 66 56  1  0
 68 70  2  0
 69 68  1  0
 71 69  1  0
 72 81  2  0
 72 77  1  0
 73 69  1  0
 73 77  1  0
 74 73  1  0
 75 76  1  0
 75 74  1  0
 76 72  1  0
 77 78  2  0
 78 79  1  0
 80 79  2  0
 81 80  1  0
 82 56  1  0
 82 87  1  0
 82 83  1  0
 83 86  1  1
 83 84  1  0
 85 83  1  0
 87 90  1  0
 88 92  1  0
 88 87  1  0
 89 88  2  0
 92 91  1  0
 94 92  1  0
 94 95  1  0
 94 93  1  0
M  ISO  4  10 100  18 100  54 101  55 101
M  END
>  <TORSDO>  (80) 
F 19

>  <SCORE>  (80) 
-14.451

>  <name>  (80) 
81

>  <ligand_id>  (80) 
81

>  <original_smiles>  (80) 
[H]C1=C(C(=O)N([H])[H])C2([H])C([H])([H])C([H])(C([H])([H])C([H])([H])Oc3c([H])c([H])c4c(c3[H])C([H])([H])N(C(=O)C([H])(N([H])C(=O)C([H])(N([H])C([H])([H])[H])C([H])([H])[H])C(C([H])([H])[H])(C([H])([H])[H])C([H])([H])[H])C([H])(C(=O)N([H])C3([H])c5c([H])c([H])c([H])c([H])c5C([H])([H])C([H])([H])C3([H])[H])C4([H])[H])C([H])([H])C2([H])C([H])([H])C1([H])N([H])C(=O)N1C([H])([H])C([H])([H])C([H])([H])C([H])(n2nc(-c3c([H])c([H])c(Oc4c([H])c([H])c(F)c([H])c4F)c([H])c3[H])c(C(=O)N([H])[H])c2N([H])[H])C1([H])[H]

>  <smiles>  (80) 
[H]C1=C(C(=O)N([H])[H])C2([H])C([H])([H])C([H])(C([H])([H])C([H])([H])Oc3c([H])c([H])c4c(c3[H])C([H])([H])N(C(=O)C([H])(N([H])C(=O)C([H])(N([H])C([H])([H])[H])C([H])([H])[H])C(C([H])([H])[H])(C([H])([H])[H])C([H])([H])[H])C([H])(C(=O)N([H])C3([H])c5c([H])c([H])c([H])c([H])c5C([H])([H])C([H])([H])C3([H])[H])C4([H])[H])C([H])([H])C2([H])C([H])([H])C1([H])N([H])C(=O)N1C([H])([H])C([H])([H])C([H])([H])C([H])(n2nc(-c3c([H])c([H])c(Oc4c([H])c([H])c(F)c([H])c4F)c([H])c3[H])c(C(=O)N([H])[H])c2N([H])[H])C1([H])[H]

$$$$
82:0:0
     RDKit          3D

 93102  0  0  1  0  0  0  0  0999 V2000
  -30.3690  -21.5880   20.1300 C   0  0  0  0  0  3  0  0  0  0  0  0
  -30.1420  -22.9360   20.0380 C   0  0  0  0  0  0  0  0  0  0  0  0
  -28.1460  -21.9110   20.7050 C   0  0  0  0  0  2  0  0  0  0  0  0
  -29.2880  -20.7440   20.8120 C   0  0  0  0  0  3  0  0  0  0  0  0
  -28.8100  -23.4030   20.6450 C   0  0  0  0  0  3  0  0  0  0  0  0
  -33.0000  -25.7340   18.4930 C   0  0  0  0  0  3  0  0  0  0  0  0
  -31.9380  -25.2900   17.6810 C   0  0  0  0  0  3  0  0  0  0  0  0
  -33.1280  -25.2480   19.8090 C   0  0  0  0  0  3  0  0  0  0  0  0
  -31.0020  -24.3640   18.1810 C   0  0  0  0  0  3  0  0  0  0  0  0
  -32.1970  -24.3170   20.3100 C   0  0  0  0  0  3  0  0  0  0  0  0
  -31.1360  -23.8700   19.4940 C   0  0  0  0  0  0  0  0  0  0  0  0
  -29.0670  -19.1060   20.4190 C   0  0  0  0  0  3  0  0  0  0  0  0
  -30.0690  -17.8020   20.8120 C   0  0  0  0  0  3  0  0  0  0  0  0
  -30.5140  -15.0930   20.4900 C   0  0  0  0  0  0  0  0  0  0  0  0
  -30.4380  -12.7610   19.4990 C   0  0  0  0  0  2  0  0  0  0  0  0
  -29.5230  -12.7280   18.2550 C   0  0  0  0  0  2  0  0  0  0  0  0
  -28.0570  -12.4930   18.6640 C   0  0  0  0  0  2  0  0  0  0  0  0
  -27.6210  -13.3900   19.8540 C   0  0  0  0  0  3  0  0  0  0  0  0
  -28.6600  -13.3900   20.9950 C   0  0  0  0  0  2  0  0  0  0  0  0
  -29.9310  -13.8300   20.4060 N   0  0  0  0  0  0  0  0  0  0  0  0
  -31.7210  -15.1760   20.2430 O   0  0  0  0  0  0  0  0  0  0  0  0
  -29.7200  -16.2640   20.6530 N   0  0  0  0  0  0  0  0  0  0  0  0
  -28.7380  -16.0530   20.7620 H   0  0  0  0  0  0  0  0  0  0  0  0
  -25.2190  -13.9240   20.5560 C   0  0  0  0  0  0  0  0  0  0  0  0
  -24.1630  -13.1310   20.9060 C   0  0  0  0  0  0  0  0  0  0  0  0
  -24.6520  -11.7880   20.8820 C   0  0  0  0  0  0  0  0  0  0  0  0
  -26.2810  -13.0660   20.3280 N   0  0  0  0  0  0  0  0  0  0  0  0
  -25.9490  -11.7750   20.5900 N   0  0  0  0  0  0  0  0  0  0  0  0
  -23.9440  -10.5130   21.0560 C   0  0  0  0  0  0  0  0  0  0  0  0
  -24.3650   -9.5600   22.0080 C   0  0  0  0  0  3  0  0  0  0  0  0
  -23.6570   -8.3510   22.1720 C   0  0  0  0  0  3  0  0  0  0  0  0
  -22.5120   -8.0870   21.3810 C   0  0  0  0  0  0  0  0  0  0  0  0
  -22.1110   -9.0280   20.4180 C   0  0  0  0  0  3  0  0  0  0  0  0
  -22.8210  -10.2290   20.2540 C   0  0  0  0  0  3  0  0  0  0  0  0
  -21.7790   -6.9270   21.4520 O   0  0  0  0  0  0  0  0  0  0  0  0
  -21.6880   -6.2010   22.6120 C   0  0  0  0  0  0  0  0  0  0  0  0
  -21.1570   -6.7550   23.7970 C   0  0  0  0  0  3  0  0  0  0  0  0
  -21.0170   -5.9530   24.9480 C   0  0  0  0  0  3  0  0  0  0  0  0
  -21.3980   -4.5980   24.9140 C   0  0  0  0  0  0  0  0  0  0  0  0
  -21.9230   -4.0440   23.7330 C   0  0  0  0  0  3  0  0  0  0  0  0
  -22.0640   -4.8430   22.5850 C   0  0  0  0  0  0  0  0  0  0  0  0
  -22.5500   -4.2980   21.4430 F   0  0  0  0  0  0  0  0  0  0  0  0
  -21.2580   -3.8260   26.0170 F   0  0  0  0  0  0  0  0  0  0  0  0
  -22.7540  -13.5820   21.1510 C   0  0  0  0  0  0  0  0  0  0  0  0
  -22.0200  -12.8720   21.9990 N   0  0  0  0  0  0  0  0  0  0  0  0
  -22.3100  -14.6030   20.6250 O   0  0  0  0  0  0  0  0  0  0  0  0
  -22.3930  -12.0490   22.4480 H   0  0  0  0  0  0  0  0  0  0  0  0
  -21.0720  -13.1560   22.2020 H   0  0  0  0  0  0  0  0  0  0  0  0
  -25.3600  -15.2990   20.3830 N   0  0  0  0  0  0  0  0  0  0  0  0
  -24.5690  -15.9280   20.4800 H   0  0  0  0  0  0  0  0  0  0  0  0
  -26.1860  -15.7560   20.0210 H   0  0  0  0  0  0  0  0  0  0  0  0
  -28.0110  -24.7790   20.0610 C   0  0  0  0  0  2  0  0  0  0  0  0
  -28.2480  -26.3000   20.3210 O   0  0  0  0  0  0  0  0  0  0  0  0
  -24.6430  -31.9670   23.3450 C   0  0  0  0  0  0  0  0  0  0  0  0
  -27.1940  -27.2870   20.2420 C   0  0  0  0  0  0  0  0  0  0  0  0
  -23.4290  -30.5950   21.6960 C   0  0  0  0  0  3  0  0  0  0  0  0
  -24.8660  -29.0350   20.2430 C   0  0  0  0  0  0  0  0  0  0  0  0
  -25.9830  -30.8570   21.5190 C   0  0  0  0  0  2  0  0  0  0  0  0
  -26.0490  -29.4730   20.8510 C   0  0  0  0  0  0  0  0  0  0  0  0
  -27.2110  -28.6120   20.8390 C   0  0  0  0  0  3  0  0  0  0  0  0
  -25.9880  -26.9620   19.5800 C   0  0  0  0  0  3  0  0  0  0  0  0
  -24.8470  -27.7930   19.5940 C   0  0  0  0  0  3  0  0  0  0  0  0
  -23.6390  -29.9300   20.3090 C   0  0  0  0  0  2  0  0  0  0  0  0
  -24.7060  -31.1600   22.2410 N   0  0  0  0  0  0  0  0  0  0  0  0
  -23.5600  -32.2490   23.8810 O   0  0  0  0  0  0  0  0  0  0  0  0
  -22.7520  -29.5810   22.6510 C   0  0  0  0  0  0  0  0  0  0  0  0
  -21.4280  -29.3900   22.5040 N   0  0  0  0  0  0  0  0  0  0  0  0
  -23.4200  -28.9660   23.4850 O   0  0  0  0  0  0  0  0  0  0  0  0
  -20.9440  -29.9370   21.8060 H   0  0  0  0  0  0  0  0  0  0  0  0
  -18.0650  -28.1200   22.9390 C   0  0  0  0  0  0  0  0  0  0  0  0
  -20.6100  -28.4410   23.2650 C   0  0  0  0  0  3  0  0  0  0  0  0
  -20.7570  -27.0060   22.7070 C   0  0  0  0  0  2  0  0  0  0  0  0
  -19.6870  -26.6490   21.6690 C   0  0  0  0  0  2  0  0  0  0  0  0
  -18.2870  -26.7690   22.2790 C   0  0  0  0  0  2  0  0  0  0  0  0
  -19.1560  -28.9110   23.3870 C   0  0  0  0  0  0  0  0  0  0  0  0
  -18.8950  -30.1730   23.9650 C   0  0  0  0  0  3  0  0  0  0  0  0
  -17.5740  -30.6440   24.0970 C   0  0  0  0  0  3  0  0  0  0  0  0
  -16.4980  -29.8510   23.6630 C   0  0  0  0  0  3  0  0  0  0  0  0
  -16.7440  -28.5910   23.0900 C   0  0  0  0  0  3  0  0  0  0  0  0
  -25.9270  -32.5890   23.9730 C   0  0  0  0  0  3  0  0  0  0  0  0
  -26.4270  -31.8150   25.2550 C   0  0  1  0  0  0  0  0  0  0  0  0
  -25.3250  -31.5960   26.3180 C   0  0  0  0  0  1  0  0  0  0  0  0
  -26.9980  -30.4290   24.8750 C   0  0  0  0  0  1  0  0  0  0  0  0
  -27.5830  -32.5950   25.9230 C   0  0  0  0  0  1  0  0  0  0  0  0
  -25.6290  -33.9910   24.3070 N   0  0  0  0  0  0  0  0  0  0  0  0
  -25.9920  -35.0460   23.5670 C   0  0  0  0  0  0  0  0  0  0  0  0
  -26.6830  -34.9500   22.5500 O   0  0  0  0  0  0  0  0  0  0  0  0
  -25.0200  -34.1470   25.0980 H   0  0  0  0  0  0  0  0  0  0  0  0
  -24.3280  -36.8960   23.1840 C   0  0  0  0  0  1  0  0  0  0  0  0
  -25.5260  -36.4390   24.0310 C   0  0  0  0  0  3  0  0  0  0  0  0
  -27.6350  -37.2790   24.9610 C   0  0  0  0  0  1  0  0  0  0  0  0
  -26.6040  -37.4440   23.9400 N   0  0  0  0  0  0  0  0  0  0  0  0
  -27.0460  -37.3730   23.0250 H   0  0  0  0  0  0  0  0  0  0  0  0
  1  4  1  0
  2  1  2  0
  2  5  1  0
  3  4  1  0
  4 12  1  0
  5 52  1  0
  5  3  1  0
  6  8  1  0
  7  9  1  0
  7  6  2  0
  8 10  2  0
  9 11  2  0
 11  2  1  0
 11 10  1  0
 12 13  2  0
 14 22  1  0
 15 20  1  0
 16 17  1  0
 16 15  1  0
 18 17  1  0
 18 27  1  0
 18 19  1  0
 20 14  1  0
 20 19  1  0
 21 14  2  0
 22 23  1  0
 22 13  1  0
 24 25  2  0
 25 44  1  0
 26 25  1  0
 26 29  1  0
 27 24  1  0
 27 28  1  0
 28 26  2  0
 29 30  1  0
 30 31  2  0
 32 35  1  0
 32 31  1  0
 33 32  2  0
 34 33  1  0
 34 29  2  0
 35 36  1  0
 36 37  1  0
 37 38  2  0
 39 38  1  0
 39 43  1  0
 40 39  2  0
 41 36  2  0
 41 40  1  0
 42 41  1  0
 44 45  1  0
 45 48  1  0
 45 47  1  0
 46 44  2  0
 49 50  1  0
 49 24  1  0
 51 49  1  0
 52 53  1  0
 54 65  2  0
 55 53  1  0
 55 60  1  0
 56 64  1  0
 56 66  1  0
 57 63  1  0
 57 59  1  0
 58 64  1  0
 59 58  1  0
 60 59  2  0
 61 62  1  0
 61 55  2  0
 62 57  2  0
 63 56  1  0
 64 54  1  0
 66 68  2  0
 67 66  1  0
 69 67  1  0
 70 79  2  0
 70 75  1  0
 71 67  1  0
 71 75  1  0
 72 71  1  0
 73 74  1  0
 73 72  1  0
 74 70  1  0
 75 76  2  0
 76 77  1  0
 78 77  2  0
 79 78  1  0
 80 54  1  0
 80 85  1  0
 80 81  1  0
 81 84  1  1
 81 82  1  0
 83 81  1  0
 85 88  1  0
 86 90  1  0
 86 85  1  0
 87 86  2  0
 90 89  1  0
 92 90  1  0
 92 91  1  0
 93 92  1  0
M  ISO  4  14 100  22 100  52 101  53 101
M  END
>  <TORSDO>  (81) 
F 20

>  <SCORE>  (81) 
-14.997

>  <name>  (81) 
82

>  <ligand_id>  (81) 
82

>  <original_smiles>  (81) 
[H]C1=C(c2c([H])c([H])c([H])c([H])c2[H])C([H])(C([H])([H])Oc2c([H])c([H])c3c(c2[H])C([H])([H])N(C(=O)C([H])(N([H])C(=O)C([H])(N([H])C([H])([H])[H])C([H])([H])[H])C(C([H])([H])[H])(C([H])([H])[H])C([H])([H])[H])C([H])(C(=O)N([H])C2([H])c4c([H])c([H])c([H])c([H])c4C([H])([H])C([H])([H])C2([H])[H])C3([H])[H])C([H])([H])C1([H])C([H])([H])C([H])([H])N([H])C(=O)N1C([H])([H])C([H])([H])C([H])([H])C([H])(n2nc(-c3c([H])c([H])c(Oc4c([H])c([H])c(F)c([H])c4F)c([H])c3[H])c(C(=O)N([H])[H])c2N([H])[H])C1([H])[H]

>  <smiles>  (81) 
[H]C1=C(c2c([H])c([H])c([H])c([H])c2[H])C([H])(C([H])([H])Oc2c([H])c([H])c3c(c2[H])C([H])([H])N(C(=O)C([H])(N([H])C(=O)C([H])(N([H])C([H])([H])[H])C([H])([H])[H])C(C([H])([H])[H])(C([H])([H])[H])C([H])([H])[H])C([H])(C(=O)N([H])C2([H])c4c([H])c([H])c([H])c([H])c4C([H])([H])C([H])([H])C2([H])[H])C3([H])[H])C([H])([H])C1([H])C([H])([H])C([H])([H])N([H])C(=O)N1C([H])([H])C([H])([H])C([H])([H])C([H])(n2nc(-c3c([H])c([H])c(Oc4c([H])c([H])c(F)c([H])c4F)c([H])c3[H])c(C(=O)N([H])[H])c2N([H])[H])C1([H])[H]

$$$$
83:0:0
     RDKit          3D

 87 95  0  0  1  0  0  0  0  0999 V2000
  -28.8570  -22.9880   19.9140 C   0  0  0  0  0  0  0  0  0  0  0  0
  -29.4020  -23.2100   18.8290 O   0  0  0  0  0  0  0  0  0  0  0  0
  -28.2680  -18.7550   20.3030 C   0  0  0  0  0  3  0  0  0  0  0  0
  -28.0840  -20.1570   20.3620 C   0  0  0  0  0  3  0  0  0  0  0  0
  -29.5300  -17.8310   20.3130 C   0  0  0  0  0  0  0  0  0  0  0  0
  -30.6990  -18.9060   20.3330 C   0  0  0  0  0  2  0  0  0  0  0  0
  -30.4060  -20.5090   19.9700 C   0  0  0  0  0  2  0  0  0  0  0  0
  -29.1230  -21.3590   20.4970 C   0  0  0  0  0  3  0  0  0  0  0  0
  -29.4660  -16.4250   20.3290 N   0  0  0  0  0  0  0  0  0  0  0  0
  -30.4130  -15.2300   20.2180 C   0  0  0  0  0  0  0  0  0  0  0  0
  -30.4420  -12.7900   19.3620 C   0  0  0  0  0  2  0  0  0  0  0  0
  -29.5120  -12.6290   18.1310 C   0  0  0  0  0  2  0  0  0  0  0  0
  -28.0570  -12.3630   18.5650 C   0  0  0  0  0  2  0  0  0  0  0  0
  -27.6130  -13.3110   19.7050 C   0  0  0  0  0  3  0  0  0  0  0  0
  -28.6630  -13.4160   20.8270 C   0  0  0  0  0  2  0  0  0  0  0  0
  -29.9120  -13.9050   20.2200 N   0  0  0  0  0  0  0  0  0  0  0  0
  -31.6230  -15.2890   19.9730 O   0  0  0  0  0  0  0  0  0  0  0  0
  -25.2390  -13.8590   20.4670 C   0  0  0  0  0  0  0  0  0  0  0  0
  -24.1830  -13.0760   20.8410 C   0  0  0  0  0  0  0  0  0  0  0  0
  -24.6590  -11.7280   20.8140 C   0  0  0  0  0  0  0  0  0  0  0  0
  -26.2860  -12.9900   20.2180 N   0  0  0  0  0  0  0  0  0  0  0  0
  -25.9500  -11.7030   20.4960 N   0  0  0  0  0  0  0  0  0  0  0  0
  -23.9420  -10.4620   21.0110 C   0  0  0  0  0  0  0  0  0  0  0  0
  -24.3810   -9.5000   21.9490 C   0  0  0  0  0  3  0  0  0  0  0  0
  -23.6610   -8.3000   22.1340 C   0  0  0  0  0  3  0  0  0  0  0  0
  -22.4870   -8.0530   21.3830 C   0  0  0  0  0  0  0  0  0  0  0  0
  -22.0670   -9.0030   20.4360 C   0  0  0  0  0  3  0  0  0  0  0  0
  -22.7870  -10.1950   20.2480 C   0  0  0  0  0  3  0  0  0  0  0  0
  -21.7380   -6.9050   21.4770 O   0  0  0  0  0  0  0  0  0  0  0  0
  -21.6940   -6.1660   22.6330 C   0  0  0  0  0  0  0  0  0  0  0  0
  -21.2670   -6.7240   23.8580 C   0  0  0  0  0  3  0  0  0  0  0  0
  -21.1710   -5.9120   25.0060 C   0  0  0  0  0  3  0  0  0  0  0  0
  -21.4920   -4.5440   24.9290 C   0  0  0  0  0  0  0  0  0  0  0  0
  -21.9120   -3.9860   23.7090 C   0  0  0  0  0  3  0  0  0  0  0  0
  -22.0100   -4.7950   22.5640 C   0  0  0  0  0  0  0  0  0  0  0  0
  -22.3950   -4.2470   21.3860 F   0  0  0  0  0  0  0  0  0  0  0  0
  -21.3930   -3.7620   26.0300 F   0  0  0  0  0  0  0  0  0  0  0  0
  -22.7840  -13.5440   21.1140 C   0  0  0  0  0  0  0  0  0  0  0  0
  -22.0620  -12.8470   21.9850 N   0  0  0  0  0  0  0  0  0  0  0  0
  -22.3380  -14.5630   20.5890 O   0  0  0  0  0  0  0  0  0  0  0  0
  -22.4370  -12.0220   22.4320 H   0  0  0  0  0  0  0  0  0  0  0  0
  -21.1240  -13.1430   22.2100 H   0  0  0  0  0  0  0  0  0  0  0  0
  -25.3960  -15.2300   20.2890 N   0  0  0  0  0  0  0  0  0  0  0  0
  -24.6380  -15.8920   20.4200 H   0  0  0  0  0  0  0  0  0  0  0  0
  -26.2650  -15.6660   20.0070 H   0  0  0  0  0  0  0  0  0  0  0  0
  -28.0090  -24.3560   20.5520 C   0  0  0  0  0  2  0  0  0  0  0  0
  -28.2470  -25.9390   20.2220 O   0  0  0  0  0  0  0  0  0  0  0  0
  -24.6280  -31.8500   23.1860 C   0  0  0  0  0  0  0  0  0  0  0  0
  -27.2120  -26.9970   20.2130 C   0  0  0  0  0  0  0  0  0  0  0  0
  -23.4400  -30.4390   21.5560 C   0  0  0  0  0  3  0  0  0  0  0  0
  -24.8970  -28.8330   20.1520 C   0  0  0  0  0  0  0  0  0  0  0  0
  -26.0040  -30.6730   21.4050 C   0  0  0  0  0  2  0  0  0  0  0  0
  -26.0820  -29.2610   20.7630 C   0  0  0  0  0  0  0  0  0  0  0  0
  -27.2380  -28.3660   20.7650 C   0  0  0  0  0  3  0  0  0  0  0  0
  -25.9940  -26.7070   19.5610 C   0  0  0  0  0  3  0  0  0  0  0  0
  -24.8750  -27.5750   19.5300 C   0  0  0  0  0  3  0  0  0  0  0  0
  -23.6730  -29.7460   20.1860 C   0  0  0  0  0  2  0  0  0  0  0  0
  -24.7120  -31.0140   22.1030 N   0  0  0  0  0  0  0  0  0  0  0  0
  -23.5380  -32.1380   23.7060 O   0  0  0  0  0  0  0  0  0  0  0  0
  -22.7530  -29.4450   22.5280 C   0  0  0  0  0  0  0  0  0  0  0  0
  -21.4210  -29.2840   22.4110 N   0  0  0  0  0  0  0  0  0  0  0  0
  -23.4220  -28.8180   23.3530 O   0  0  0  0  0  0  0  0  0  0  0  0
  -20.9350  -29.8380   21.7220 H   0  0  0  0  0  0  0  0  0  0  0  0
  -18.0380  -28.0910   22.9460 C   0  0  0  0  0  0  0  0  0  0  0  0
  -20.6000  -28.3500   23.1900 C   0  0  0  0  0  3  0  0  0  0  0  0
  -20.6930  -26.9160   22.6160 C   0  0  0  0  0  2  0  0  0  0  0  0
  -19.5820  -26.5960   21.6110 C   0  0  0  0  0  2  0  0  0  0  0  0
  -18.2050  -26.7420   22.2660 C   0  0  0  0  0  2  0  0  0  0  0  0
  -19.1610  -28.8530   23.3650 C   0  0  0  0  0  0  0  0  0  0  0  0
  -18.9470  -30.1130   23.9640 C   0  0  0  0  0  3  0  0  0  0  0  0
  -17.6440  -30.6130   24.1450 C   0  0  0  0  0  3  0  0  0  0  0  0
  -16.5350  -29.8500   23.7400 C   0  0  0  0  0  3  0  0  0  0  0  0
  -16.7330  -28.5910   23.1460 C   0  0  0  0  0  3  0  0  0  0  0  0
  -25.8970  -32.5010   23.8150 C   0  0  0  0  0  3  0  0  0  0  0  0
  -25.5710  -33.8980   24.1490 N   0  0  0  0  0  0  0  0  0  0  0  0
  -25.8970  -34.9620   23.4030 C   0  0  0  0  0  0  0  0  0  0  0  0
  -26.5660  -34.8710   22.3700 O   0  0  0  0  0  0  0  0  0  0  0  0
  -24.9750  -34.0420   24.9510 H   0  0  0  0  0  0  0  0  0  0  0  0
  -24.1590  -36.7550   23.0690 C   0  0  0  0  0  1  0  0  0  0  0  0
  -25.4040  -36.3470   23.8730 C   0  0  0  0  0  3  0  0  0  0  0  0
  -27.5360  -37.2390   24.7060 C   0  0  0  0  0  1  0  0  0  0  0  0
  -26.4310  -37.4060   23.7660 N   0  0  0  0  0  0  0  0  0  0  0  0
  -26.0210  -38.3230   23.9190 H   0  0  0  0  0  0  0  0  0  0  0  0
  -26.4100  -31.7410   25.1000 C   0  0  1  0  0  0  0  0  0  0  0  0
  -25.3140  -31.5070   26.1660 C   0  0  0  0  0  1  0  0  0  0  0  0
  -27.0000  -30.3620   24.7280 C   0  0  0  0  0  1  0  0  0  0  0  0
  -27.5550  -32.5440   25.7610 C   0  0  0  0  0  1  0  0  0  0  0  0
  1 46  1  0
  2  1  2  0
  3  5  1  0
  3  4  2  0
  4  8  1  0
  5  9  2  0
  5  6  1  0
  7  6  1  0
  7  8  1  0
  8  1  1  0
 10 16  1  0
 10  9  1  0
 11 16  1  0
 12 13  1  0
 12 11  1  0
 14 13  1  0
 14 21  1  0
 14 15  1  0
 16 15  1  0
 17 10  2  0
 18 19  2  0
 19 38  1  0
 20 19  1  0
 20 23  1  0
 21 18  1  0
 21 22  1  0
 22 20  2  0
 23 24  1  0
 24 25  2  0
 26 29  1  0
 26 25  1  0
 27 26  2  0
 28 27  1  0
 28 23  2  0
 29 30  1  0
 30 31  1  0
 31 32  2  0
 33 32  1  0
 33 37  1  0
 34 33  2  0
 35 30  2  0
 35 34  1  0
 36 35  1  0
 38 39  1  0
 39 42  1  0
 39 41  1  0
 40 38  2  0
 43 44  1  0
 43 18  1  0
 45 43  1  0
 47 46  1  0
 48 59  2  0
 49 47  1  0
 49 54  1  0
 50 58  1  0
 50 60  1  0
 51 57  1  0
 51 53  1  0
 52 58  1  0
 53 54  2  0
 53 52  1  0
 55 49  2  0
 56 55  1  0
 56 51  2  0
 57 50  1  0
 58 48  1  0
 60 62  2  0
 61 60  1  0
 63 61  1  0
 64 73  2  0
 64 69  1  0
 65 61  1  0
 65 69  1  0
 66 65  1  0
 67 68  1  0
 67 66  1  0
 68 64  1  0
 69 70  2  0
 70 71  1  0
 72 71  2  0
 73 72  1  0
 74 48  1  0
 74 75  1  0
 74 84  1  0
 75 78  1  0
 76 80  1  0
 76 75  1  0
 77 76  2  0
 80 79  1  0
 82 80  1  0
 82 83  1  0
 82 81  1  0
 84 87  1  1
 84 85  1  0
 86 84  1  0
M  ISO  4   9 100  10 100  46 101  47 101
M  END
>  <TORSDO>  (82) 
F 18

>  <SCORE>  (82) 
-15.675

>  <name>  (82) 
83

>  <ligand_id>  (82) 
83

>  <original_smiles>  (82) 
[H]C1=C([H])C([H])(C(=O)C([H])([H])Oc2c([H])c([H])c3c(c2[H])C([H])([H])N(C(=O)C([H])(N([H])C(=O)C([H])(N([H])C([H])([H])[H])C([H])([H])[H])C(C([H])([H])[H])(C([H])([H])[H])C([H])([H])[H])C([H])(C(=O)N([H])C2([H])c4c([H])c([H])c([H])c([H])c4C([H])([H])C([H])([H])C2([H])[H])C3([H])[H])C([H])([H])C([H])([H])C1=NC(=O)N1C([H])([H])C([H])([H])C([H])([H])C([H])(n2nc(-c3c([H])c([H])c(Oc4c([H])c([H])c(F)c([H])c4F)c([H])c3[H])c(C(=O)N([H])[H])c2N([H])[H])C1([H])[H]

>  <smiles>  (82) 
[H]C1=C([H])C([H])(C(=O)C([H])([H])Oc2c([H])c([H])c3c(c2[H])C([H])([H])N(C(=O)C([H])(N([H])C(=O)C([H])(N([H])C([H])([H])[H])C([H])([H])[H])C(C([H])([H])[H])(C([H])([H])[H])C([H])([H])[H])C([H])(C(=O)N([H])C2([H])c4c([H])c([H])c([H])c([H])c4C([H])([H])C([H])([H])C2([H])[H])C3([H])[H])C([H])([H])C([H])([H])C1=NC(=O)N1C([H])([H])C([H])([H])C([H])([H])C([H])(n2nc(-c3c([H])c([H])c(Oc4c([H])c([H])c(F)c([H])c4F)c([H])c3[H])c(C(=O)N([H])[H])c2N([H])[H])C1([H])[H]

$$$$
84:0:0
     RDKit          3D

 94102  0  0  1  0  0  0  0  0999 V2000
  -31.5320  -21.5880   21.1890 C   0  0  0  0  0  2  0  0  0  0  0  0
  -32.4890  -19.3260   20.5550 C   0  0  0  0  0  3  0  0  0  0  0  0
  -32.4440  -17.9190   20.4660 C   0  0  0  0  0  3  0  0  0  0  0  0
  -30.1590  -17.9600   21.2790 C   0  0  0  0  0  3  0  0  0  0  0  0
  -31.3800  -20.0710   21.0200 C   0  0  0  0  0  0  0  0  0  0  0  0
  -30.1940  -19.3700   21.3770 C   0  0  0  0  0  0  0  0  0  0  0  0
  -31.2760  -17.2160   20.8450 C   0  0  0  0  0  0  0  0  0  0  0  0
  -31.7370  -14.8650   20.0420 C   0  0  0  0  0  0  0  0  0  0  0  0
  -31.3510  -12.7130   18.8930 C   0  0  0  0  0  2  0  0  0  0  0  0
  -30.3640  -12.9340   17.7270 C   0  0  0  0  0  2  0  0  0  0  0  0
  -28.9030  -12.8490   18.2130 C   0  0  0  0  0  2  0  0  0  0  0  0
  -28.6420  -13.7030   19.4820 C   0  0  0  0  0  3  0  0  0  0  0  0
  -29.7260  -13.4270   20.5470 C   0  0  0  0  0  2  0  0  0  0  0  0
  -31.0440  -13.6990   19.9390 N   0  0  0  0  0  0  0  0  0  0  0  0
  -32.8090  -15.0600   19.4600 O   0  0  0  0  0  0  0  0  0  0  0  0
  -31.1230  -15.7980   20.7940 N   0  0  0  0  0  0  0  0  0  0  0  0
  -30.3330  -15.4360   21.3040 H   0  0  0  0  0  0  0  0  0  0  0  0
  -26.3150  -14.4080   20.3310 C   0  0  0  0  0  0  0  0  0  0  0  0
  -25.2220  -13.6790   20.7160 C   0  0  0  0  0  0  0  0  0  0  0  0
  -25.6040  -12.3070   20.6000 C   0  0  0  0  0  0  0  0  0  0  0  0
  -27.2970  -13.4830   20.0090 N   0  0  0  0  0  0  0  0  0  0  0  0
  -26.8730  -12.2120   20.2250 N   0  0  0  0  0  0  0  0  0  0  0  0
  -24.8180  -11.0780   20.7680 C   0  0  0  0  0  0  0  0  0  0  0  0
  -25.1690  -10.1030   21.7280 C   0  0  0  0  0  3  0  0  0  0  0  0
  -24.3890   -8.9380   21.8820 C   0  0  0  0  0  3  0  0  0  0  0  0
  -23.2430   -8.7390   21.0760 C   0  0  0  0  0  0  0  0  0  0  0  0
  -22.9110   -9.7010   20.1080 C   0  0  0  0  0  3  0  0  0  0  0  0
  -23.6910  -10.8580   19.9510 C   0  0  0  0  0  3  0  0  0  0  0  0
  -22.4400   -7.6260   21.1390 O   0  0  0  0  0  0  0  0  0  0  0  0
  -22.1570   -7.0080   22.3310 C   0  0  0  0  0  0  0  0  0  0  0  0
  -21.5240   -7.6910   23.3920 C   0  0  0  0  0  3  0  0  0  0  0  0
  -21.1890   -7.0000   24.5730 C   0  0  0  0  0  3  0  0  0  0  0  0
  -21.4760   -5.6260   24.6930 C   0  0  0  0  0  0  0  0  0  0  0  0
  -22.1010   -4.9440   23.6340 C   0  0  0  0  0  3  0  0  0  0  0  0
  -22.4380   -5.6330   22.4560 C   0  0  0  0  0  0  0  0  0  0  0  0
  -23.0200   -4.9650   21.4310 F   0  0  0  0  0  0  0  0  0  0  0  0
  -21.1480   -4.9610   25.8240 F   0  0  0  0  0  0  0  0  0  0  0  0
  -23.8690  -14.2160   21.0830 C   0  0  0  0  0  0  0  0  0  0  0  0
  -23.1620  -13.5400   21.9810 N   0  0  0  0  0  0  0  0  0  0  0  0
  -23.4490  -15.2700   20.6060 O   0  0  0  0  0  0  0  0  0  0  0  0
  -23.5160  -12.6860   22.3880 H   0  0  0  0  0  0  0  0  0  0  0  0
  -22.2550  -13.8800   22.2660 H   0  0  0  0  0  0  0  0  0  0  0  0
  -26.5500  -15.7750   20.2100 N   0  0  0  0  0  0  0  0  0  0  0  0
  -25.8310  -16.4670   20.3900 H   0  0  0  0  0  0  0  0  0  0  0  0
  -27.4140  -16.1790   19.8700 H   0  0  0  0  0  0  0  0  0  0  0  0
  -28.4130  -21.1300   20.9200 C   0  0  0  0  0  1  0  0  0  0  0  0
  -28.9400  -20.0680   21.8930 C   0  0  0  0  0  2  0  0  0  0  0  0
  -30.7400  -22.3930   20.2280 N   0  0  0  0  0  4  0  0  0  0  0  0
  -29.9120  -21.8780   19.9810 H   0  0  0  0  0  0  0  0  0  0  0  0
  -31.2910  -22.5060   19.3930 H   0  0  0  0  0  0  0  0  0  0  0  0
  -30.3540  -23.7270   20.7630 C   0  0  0  0  0  2  0  0  0  0  0  0
  -29.7030  -24.6750   19.7270 C   0  0  0  0  0  2  0  0  0  0  0  0
  -29.2450  -26.0090   20.3640 C   0  0  0  0  0  2  0  0  0  0  0  0
  -28.9280  -26.9910   19.3750 O   0  0  0  0  0  0  0  0  0  0  0  0
  -24.5740  -31.3160   23.0110 C   0  0  0  0  0  0  0  0  0  0  0  0
  -27.6860  -27.5650   19.4990 C   0  0  0  0  0  0  0  0  0  0  0  0
  -23.5230  -29.9650   21.2250 C   0  0  0  0  0  3  0  0  0  0  0  0
  -25.1330  -28.7560   19.6580 C   0  0  0  0  0  0  0  0  0  0  0  0
  -25.9870  -30.6340   21.0750 C   0  0  0  0  0  2  0  0  0  0  0  0
  -26.2250  -29.3530   20.3020 C   0  0  0  0  0  0  0  0  0  0  0  0
  -27.5060  -28.7640   20.2230 C   0  0  0  0  0  3  0  0  0  0  0  0
  -26.5820  -26.9720   18.8570 C   0  0  0  0  0  3  0  0  0  0  0  0
  -25.3050  -27.5620   18.9340 C   0  0  0  0  0  3  0  0  0  0  0  0
  -23.7990  -29.4580   19.7830 C   0  0  0  0  0  2  0  0  0  0  0  0
  -24.7120  -30.6490   21.8300 N   0  0  0  0  0  0  0  0  0  0  0  0
  -23.4740  -31.4040   23.5730 O   0  0  0  0  0  0  0  0  0  0  0  0
  -23.0000  -28.7820   22.0710 C   0  0  0  0  0  0  0  0  0  0  0  0
  -21.7120  -28.4440   21.8950 N   0  0  0  0  0  0  0  0  0  0  0  0
  -23.7510  -28.1740   22.8390 O   0  0  0  0  0  0  0  0  0  0  0  0
  -21.1620  -28.9960   21.2520 H   0  0  0  0  0  0  0  0  0  0  0  0
  -18.5240  -26.7670   22.1720 C   0  0  0  0  0  0  0  0  0  0  0  0
  -21.0160  -27.3390   22.5530 C   0  0  0  0  0  3  0  0  0  0  0  0
  -21.3260  -25.9920   21.8590 C   0  0  0  0  0  2  0  0  0  0  0  0
  -20.3010  -25.6190   20.7830 C   0  0  0  0  0  2  0  0  0  0  0  0
  -18.8980  -25.5210   21.3890 C   0  0  0  0  0  2  0  0  0  0  0  0
  -19.5180  -27.6300   22.7040 C   0  0  0  0  0  0  0  0  0  0  0  0
  -19.1170  -28.7960   23.3910 C   0  0  0  0  0  3  0  0  0  0  0  0
  -17.7530  -29.1040   23.5530 C   0  0  0  0  0  3  0  0  0  0  0  0
  -16.7720  -28.2380   23.0370 C   0  0  0  0  0  3  0  0  0  0  0  0
  -17.1580  -27.0720   22.3520 C   0  0  0  0  0  3  0  0  0  0  0  0
  -25.7860  -32.0190   23.7000 C   0  0  0  0  0  3  0  0  0  0  0  0
  -25.3560  -33.3720   24.0780 N   0  0  0  0  0  0  0  0  0  0  0  0
  -25.6610  -34.4840   23.3990 C   0  0  0  0  0  0  0  0  0  0  0  0
  -26.4040  -34.4850   22.4140 O   0  0  0  0  0  0  0  0  0  0  0  0
  -24.7000  -33.4400   24.8440 H   0  0  0  0  0  0  0  0  0  0  0  0
  -23.8390  -36.1720   23.0060 C   0  0  0  0  0  1  0  0  0  0  0  0
  -25.0440  -35.8080   23.8890 C   0  0  0  0  0  3  0  0  0  0  0  0
  -27.0390  -36.7870   24.9320 C   0  0  0  0  0  1  0  0  0  0  0  0
  -26.0040  -36.9330   23.9120 N   0  0  0  0  0  0  0  0  0  0  0  0
  -25.5230  -37.8140   24.0720 H   0  0  0  0  0  0  0  0  0  0  0  0
  -26.3310  -31.2340   24.9550 C   0  0  1  0  0  0  0  0  0  0  0  0
  -25.2330  -30.8600   25.9780 C   0  0  0  0  0  1  0  0  0  0  0  0
  -27.0340  -29.9290   24.5150 C   0  0  0  0  0  1  0  0  0  0  0  0
  -27.3960  -32.0850   25.6850 C   0  0  0  0  0  1  0  0  0  0  0  0
  2  5  1  0
  3  2  2  0
  3  7  1  0
  4  6  1  0
  5  1  1  0
  5  6  2  0
  6 47  1  0
  7  4  2  0
  8 16  1  0
  9 14  1  0
 10 11  1  0
 10  9  1  0
 12 11  1  0
 12 21  1  0
 12 13  1  0
 14  8  1  0
 14 13  1  0
 15  8  2  0
 16  7  1  0
 16 17  1  0
 18 19  2  0
 19 38  1  0
 20 19  1  0
 20 23  1  0
 21 22  1  0
 21 18  1  0
 22 20  2  0
 23 24  1  0
 24 25  2  0
 26 29  1  0
 26 25  1  0
 27 26  2  0
 28 27  1  0
 28 23  2  0
 29 30  1  0
 30 35  2  0
 30 31  1  0
 31 32  2  0
 32 33  1  0
 33 37  1  0
 34 33  2  0
 35 34  1  0
 36 35  1  0
 38 39  1  0
 39 42  1  0
 39 41  1  0
 40 38  2  0
 43 18  1  0
 43 44  1  0
 45 43  1  0
 46 47  1  0
 48 51  1  0
 48  1  1  0
 49 48  1  0
 50 48  1  0
 52 53  1  0
 52 51  1  0
 54 56  1  0
 54 53  1  0
 55 66  2  0
 56 61  1  0
 57 65  1  0
 57 67  1  0
 58 64  1  0
 58 60  1  0
 59 65  1  0
 60 59  1  0
 61 60  2  0
 62 63  1  0
 62 56  2  0
 63 58  2  0
 64 57  1  0
 65 55  1  0
 67 69  2  0
 68 67  1  0
 70 68  1  0
 71 80  2  0
 71 76  1  0
 72 68  1  0
 72 76  1  0
 73 72  1  0
 74 75  1  0
 74 73  1  0
 75 71  1  0
 76 77  2  0
 77 78  1  0
 79 78  2  0
 80 79  1  0
 81 55  1  0
 81 82  1  0
 81 91  1  0
 82 85  1  0
 83 87  1  0
 83 82  1  0
 84 83  2  0
 87 86  1  0
 87 89  1  0
 89 90  1  0
 89 88  1  0
 91 94  1  1
 91 92  1  0
 93 91  1  0
M  ISO  4   8 100  16 100  53 101  54 101
M  END
>  <TORSDO>  (83) 
F 22

>  <SCORE>  (83) 
-9.356

>  <name>  (83) 
84

>  <ligand_id>  (83) 
84

>  <original_smiles>  (83) 
[H]c1c([H])c([H])c2c(c1[H])C([H])([H])C([H])([H])C([H])([H])C2([H])N([H])C(=O)C1([H])N(C(=O)C([H])(N([H])C(=O)C([H])(N([H])C([H])([H])[H])C([H])([H])[H])C(C([H])([H])[H])(C([H])([H])[H])C([H])([H])[H])C([H])([H])c2c([H])c(OC([H])([H])C([H])([H])C([H])([H])[N+]([H])([H])C([H])([H])c3c([H])c([H])c(N([H])C(=O)N4C([H])([H])C([H])([H])C([H])([H])C([H])(n5nc(-c6c([H])c([H])c(Oc7c([H])c([H])c(F)c([H])c7F)c([H])c6[H])c(C(=O)N([H])[H])c5N([H])[H])C4([H])[H])c([H])c3C([H])([H])C([H])([H])[H])c([H])c([H])c2C1([H])[H]

>  <smiles>  (83) 
[H]c1c([H])c([H])c2c(c1[H])C([H])([H])C([H])([H])C([H])([H])C2([H])N([H])C(=O)C1([H])N(C(=O)C([H])(N([H])C(=O)C([H])(N([H])C([H])([H])[H])C([H])([H])[H])C(C([H])([H])[H])(C([H])([H])[H])C([H])([H])[H])C([H])([H])c2c([H])c(OC([H])([H])C([H])([H])C([H])([H])[N+]([H])([H])C([H])([H])c3c([H])c([H])c(N([H])C(=O)N4C([H])([H])C([H])([H])C([H])([H])C([H])(n5nc(-c6c([H])c([H])c(Oc7c([H])c([H])c(F)c([H])c7F)c([H])c6[H])c(C(=O)N([H])[H])c5N([H])[H])C4([H])[H])c([H])c3C([H])([H])C([H])([H])[H])c([H])c([H])c2C1([H])[H]

$$$$
85:0:0
     RDKit          3D

 92100  0  0  1  0  0  0  0  0999 V2000
  -31.6300  -21.6700   20.8990 C   0  0  0  0  0  0  0  0  0  0  0  0
  -31.2080  -20.2710   20.4520 C   0  0  0  0  0  2  0  0  0  0  0  0
  -30.7300  -22.8290   20.4740 C   0  0  0  0  0  2  0  0  0  0  0  0
  -29.7240  -19.9870   20.7790 C   0  0  0  0  0  3  0  0  0  0  0  0
  -29.2200  -22.5640   20.7040 C   0  0  0  0  0  3  0  0  0  0  0  0
  -28.8460  -21.1390   20.2620 N   0  0  0  0  0  4  0  0  0  0  0  0
  -32.6730  -21.8610   21.5320 O   0  0  0  0  0  0  0  0  0  0  0  0
  -27.8990  -20.9650   20.5650 H   0  0  0  0  0  0  0  0  0  0  0  0
  -28.8280  -21.1070   19.2550 H   0  0  0  0  0  0  0  0  0  0  0  0
  -29.3180  -18.4730   20.3690 C   0  0  0  0  0  3  0  0  0  0  0  0
  -30.2600  -17.2540   20.8470 C   0  0  0  0  0  3  0  0  0  0  0  0
  -30.5610  -14.6930   20.4060 C   0  0  0  0  0  0  0  0  0  0  0  0
  -30.3280  -12.4540   19.3440 C   0  0  0  0  0  2  0  0  0  0  0  0
  -29.3750  -12.5590   18.1350 C   0  0  0  0  0  2  0  0  0  0  0  0
  -27.9090  -12.3880   18.5780 C   0  0  0  0  0  2  0  0  0  0  0  0
  -27.5510  -13.2630   19.8090 C   0  0  0  0  0  3  0  0  0  0  0  0
  -28.6200  -13.1440   20.9170 C   0  0  0  0  0  2  0  0  0  0  0  0
  -29.9150  -13.4860   20.3180 N   0  0  0  0  0  0  0  0  0  0  0  0
  -31.7420  -14.7990   20.0690 O   0  0  0  0  0  0  0  0  0  0  0  0
  -29.8060  -15.8100   20.6910 N   0  0  0  0  0  0  0  0  0  0  0  0
  -28.8360  -15.6230   20.8980 H   0  0  0  0  0  0  0  0  0  0  0  0
  -25.1660  -13.8540   20.5520 C   0  0  0  0  0  0  0  0  0  0  0  0
  -24.1030  -13.0800   20.9270 C   0  0  0  0  0  0  0  0  0  0  0  0
  -24.5670  -11.7280   20.8920 C   0  0  0  0  0  0  0  0  0  0  0  0
  -26.2100  -12.9770   20.3080 N   0  0  0  0  0  0  0  0  0  0  0  0
  -25.8570  -11.6930   20.5750 N   0  0  0  0  0  0  0  0  0  0  0  0
  -23.8430  -10.4650   21.0830 C   0  0  0  0  0  0  0  0  0  0  0  0
  -24.2920   -9.4850   21.9960 C   0  0  0  0  0  3  0  0  0  0  0  0
  -23.5670   -8.2880   22.1760 C   0  0  0  0  0  3  0  0  0  0  0  0
  -22.3770   -8.0620   21.4430 C   0  0  0  0  0  0  0  0  0  0  0  0
  -21.9460   -9.0300   20.5190 C   0  0  0  0  0  3  0  0  0  0  0  0
  -22.6720  -10.2190   20.3360 C   0  0  0  0  0  3  0  0  0  0  0  0
  -21.6210   -6.9180   21.5340 O   0  0  0  0  0  0  0  0  0  0  0  0
  -21.6090   -6.1520   22.6710 C   0  0  0  0  0  0  0  0  0  0  0  0
  -21.2410   -6.6860   23.9260 C   0  0  0  0  0  3  0  0  0  0  0  0
  -21.1760   -5.8460   25.0570 C   0  0  0  0  0  3  0  0  0  0  0  0
  -21.4690   -4.4750   24.9330 C   0  0  0  0  0  0  0  0  0  0  0  0
  -21.8300   -3.9410   23.6830 C   0  0  0  0  0  3  0  0  0  0  0  0
  -21.8970   -4.7770   22.5550 C   0  0  0  0  0  0  0  0  0  0  0  0
  -22.2250   -4.2550   21.3490 F   0  0  0  0  0  0  0  0  0  0  0  0
  -21.3990   -3.6660   26.0160 F   0  0  0  0  0  0  0  0  0  0  0  0
  -22.7070  -13.5540   21.2070 C   0  0  0  0  0  0  0  0  0  0  0  0
  -21.9850  -12.8570   22.0770 N   0  0  0  0  0  0  0  0  0  0  0  0
  -22.2660  -14.5800   20.6900 O   0  0  0  0  0  0  0  0  0  0  0  0
  -22.3560  -12.0280   22.5180 H   0  0  0  0  0  0  0  0  0  0  0  0
  -21.0480  -13.1570   22.3060 H   0  0  0  0  0  0  0  0  0  0  0  0
  -25.3260  -15.2260   20.3740 N   0  0  0  0  0  0  0  0  0  0  0  0
  -24.5530  -15.8730   20.4850 H   0  0  0  0  0  0  0  0  0  0  0  0
  -26.1640  -15.6670   20.0170 H   0  0  0  0  0  0  0  0  0  0  0  0
  -28.3880  -23.8020   20.0810 C   0  0  0  0  0  2  0  0  0  0  0  0
  -28.3630  -25.2010   20.8740 C   0  0  0  0  0  2  0  0  0  0  0  0
  -28.3780  -26.5140   20.1860 O   0  0  0  0  0  0  0  0  0  0  0  0
  -24.6100  -31.8870   23.2350 C   0  0  0  0  0  0  0  0  0  0  0  0
  -27.2400  -27.3280   20.2150 C   0  0  0  0  0  0  0  0  0  0  0  0
  -23.4100  -30.4780   21.5980 C   0  0  0  0  0  3  0  0  0  0  0  0
  -24.8660  -28.9170   20.1870 C   0  0  0  0  0  0  0  0  0  0  0  0
  -25.9450  -30.8100   21.4080 C   0  0  0  0  0  2  0  0  0  0  0  0
  -26.0310  -29.4250   20.7770 C   0  0  0  0  0  0  0  0  0  0  0  0
  -27.2240  -28.6440   20.7740 C   0  0  0  0  0  3  0  0  0  0  0  0
  -26.0540  -26.8610   19.6140 C   0  0  0  0  0  3  0  0  0  0  0  0
  -24.8790  -27.6420   19.5960 C   0  0  0  0  0  3  0  0  0  0  0  0
  -23.6250  -29.7880   20.2250 C   0  0  0  0  0  2  0  0  0  0  0  0
  -24.6740  -31.0760   22.1370 N   0  0  0  0  0  0  0  0  0  0  0  0
  -23.5260  -32.1630   23.7690 O   0  0  0  0  0  0  0  0  0  0  0  0
  -22.7500  -29.4670   22.5650 C   0  0  0  0  0  0  0  0  0  0  0  0
  -21.4250  -29.2860   22.4370 N   0  0  0  0  0  0  0  0  0  0  0  0
  -23.4300  -28.8470   23.3870 O   0  0  0  0  0  0  0  0  0  0  0  0
  -20.9370  -29.8360   21.7430 H   0  0  0  0  0  0  0  0  0  0  0  0
  -18.0510  -28.0830   22.9350 C   0  0  0  0  0  0  0  0  0  0  0  0
  -20.6080  -28.3510   23.2110 C   0  0  0  0  0  3  0  0  0  0  0  0
  -20.7170  -26.9170   22.6430 C   0  0  0  0  0  2  0  0  0  0  0  0
  -19.6180  -26.5860   21.6280 C   0  0  0  0  0  2  0  0  0  0  0  0
  -18.2340  -26.7310   22.2660 C   0  0  0  0  0  2  0  0  0  0  0  0
  -19.1660  -28.8510   23.3640 C   0  0  0  0  0  0  0  0  0  0  0  0
  -18.9410  -30.1160   23.9490 C   0  0  0  0  0  3  0  0  0  0  0  0
  -17.6350  -30.6150   24.1080 C   0  0  0  0  0  3  0  0  0  0  0  0
  -16.5340  -29.8440   23.6940 C   0  0  0  0  0  3  0  0  0  0  0  0
  -16.7430  -28.5800   23.1140 C   0  0  0  0  0  3  0  0  0  0  0  0
  -25.8920  -32.5250   23.8560 C   0  0  0  0  0  3  0  0  0  0  0  0
  -26.4120  -31.7550   25.1320 C   0  0  1  0  0  0  0  0  0  0  0  0
  -25.3200  -31.5170   26.2020 C   0  0  0  0  0  1  0  0  0  0  0  0
  -26.9970  -30.3790   24.7400 C   0  0  0  0  0  1  0  0  0  0  0  0
  -27.5620  -32.5520   25.7920 C   0  0  0  0  0  1  0  0  0  0  0  0
  -25.5770  -33.9220   24.1880 N   0  0  0  0  0  0  0  0  0  0  0  0
  -25.9040  -34.9780   23.4300 C   0  0  0  0  0  0  0  0  0  0  0  0
  -26.5730  -34.8780   22.3970 O   0  0  0  0  0  0  0  0  0  0  0  0
  -24.9830  -34.0730   24.9900 H   0  0  0  0  0  0  0  0  0  0  0  0
  -24.1680  -36.7640   23.0820 C   0  0  0  0  0  1  0  0  0  0  0  0
  -25.4120  -36.3640   23.8890 C   0  0  0  0  0  3  0  0  0  0  0  0
  -27.5480  -37.2560   24.7110 C   0  0  0  0  0  1  0  0  0  0  0  0
  -26.4410  -37.4210   23.7730 N   0  0  0  0  0  0  0  0  0  0  0  0
  -26.0320  -38.3400   23.9240 H   0  0  0  0  0  0  0  0  0  0  0  0
  1  7  2  0
  2  4  1  0
  2  1  1  0
  3  5  1  0
  3  1  1  0
  4 10  1  0
  5 50  1  0
  6  8  1  0
  6  5  1  0
  6  4  1  0
  9  6  1  0
 10 11  2  0
 12 20  1  0
 13 18  1  0
 14 15  1  0
 14 13  1  0
 16 15  1  0
 16 25  1  0
 16 17  1  0
 18 12  1  0
 18 17  1  0
 19 12  2  0
 20 11  1  0
 20 21  1  0
 22 23  2  0
 23 42  1  0
 24 23  1  0
 24 27  1  0
 25 22  1  0
 25 26  1  0
 26 24  2  0
 27 28  1  0
 28 29  2  0
 30 33  1  0
 30 29  1  0
 31 30  2  0
 32 31  1  0
 32 27  2  0
 33 34  1  0
 34 35  1  0
 35 36  2  0
 37 36  1  0
 37 41  1  0
 38 37  2  0
 39 34  2  0
 39 38  1  0
 40 39  1  0
 42 43  1  0
 43 46  1  0
 43 45  1  0
 44 42  2  0
 47 48  1  0
 47 22  1  0
 49 47  1  0
 50 51  1  0
 52 54  1  0
 52 51  1  0
 53 64  2  0
 54 59  1  0
 55 63  1  0
 55 65  1  0
 56 62  1  0
 56 58  1  0
 57 63  1  0
 58 57  1  0
 59 58  2  0
 60 54  2  0
 61 60  1  0
 61 56  2  0
 62 55  1  0
 63 53  1  0
 65 67  2  0
 66 65  1  0
 68 66  1  0
 69 78  2  0
 69 74  1  0
 70 66  1  0
 70 74  1  0
 71 70  1  0
 72 73  1  0
 72 71  1  0
 73 69  1  0
 74 75  2  0
 75 76  1  0
 77 76  2  0
 78 77  1  0
 79 53  1  0
 79 84  1  0
 79 80  1  0
 80 83  1  1
 80 81  1  0
 82 80  1  0
 84 87  1  0
 85 89  1  0
 85 84  1  0
 86 85  2  0
 89 88  1  0
 91 89  1  0
 91 92  1  0
 91 90  1  0
M  ISO  4  12 100  20 100  51 101  52 101
M  END
>  <TORSDO>  (84) 
F 20

>  <SCORE>  (84) 
-13.717

>  <name>  (84) 
85

>  <ligand_id>  (84) 
85

>  <original_smiles>  (84) 
[H]c1c([H])c([H])c2c(c1[H])C([H])([H])C([H])([H])C([H])([H])C2([H])N([H])C(=O)C1([H])N(C(=O)C([H])(N([H])C(=O)C([H])(N([H])C([H])([H])[H])C([H])([H])[H])C(C([H])([H])[H])(C([H])([H])[H])C([H])([H])[H])C([H])([H])c2c([H])c(OC([H])([H])C([H])([H])C3([H])C([H])([H])C(=O)C([H])([H])C([H])(C([H])([H])C([H])([H])N([H])C(=O)N4C([H])([H])C([H])([H])C([H])([H])C([H])(n5nc(-c6c([H])c([H])c(Oc7c([H])c([H])c(F)c([H])c7F)c([H])c6[H])c(C(=O)N([H])[H])c5N([H])[H])C4([H])[H])[N+]3([H])[H])c([H])c([H])c2C1([H])[H]

>  <smiles>  (84) 
[H]c1c([H])c([H])c2c(c1[H])C([H])([H])C([H])([H])C([H])([H])C2([H])N([H])C(=O)C1([H])N(C(=O)C([H])(N([H])C(=O)C([H])(N([H])C([H])([H])[H])C([H])([H])[H])C(C([H])([H])[H])(C([H])([H])[H])C([H])([H])[H])C([H])([H])c2c([H])c(OC([H])([H])C([H])([H])C3([H])C([H])([H])C(=O)C([H])([H])C([H])(C([H])([H])C([H])([H])N([H])C(=O)N4C([H])([H])C([H])([H])C([H])([H])C([H])(n5nc(-c6c([H])c([H])c(Oc7c([H])c([H])c(F)c([H])c7F)c([H])c6[H])c(C(=O)N([H])[H])c5N([H])[H])C4([H])[H])[N+]3([H])[H])c([H])c([H])c2C1([H])[H]

$$$$
86:0:0
     RDKit          3D

 92101  0  0  1  0  0  0  0  0999 V2000
  -27.4980  -20.2100   18.9550 C   0  0  0  0  0  3  0  0  0  0  0  0
  -28.2160  -19.0730   19.4120 C   0  0  0  0  0  3  0  0  0  0  0  0
  -29.5300  -20.5800   20.7680 C   0  0  0  0  0  3  0  0  0  0  0  0
  -27.7740  -21.5430   19.3710 C   0  0  0  0  0  0  0  0  0  0  0  0
  -28.7820  -21.7950   20.3270 C   0  0  0  0  0  0  0  0  0  0  0  0
  -29.2870  -19.1740   20.3250 C   0  0  0  0  0  0  0  0  0  0  0  0
  -27.6370  -24.0870   18.7890 C   0  0  0  0  0  0  0  0  0  0  0  0
  -26.9540  -22.7070   18.7850 C   0  0  0  0  0  3  0  0  0  0  0  0
  -28.9650  -23.3770   20.7800 C   0  0  0  0  0  3  0  0  0  0  0  0
  -27.9840  -24.6110   20.1820 C   0  0  0  0  0  0  0  0  0  0  0  0
  -27.9080  -24.7230   17.7250 N   0  0  0  0  0  2  0  0  0  0  0  0
  -27.6060  -24.2170   16.8990 H   0  0  0  0  0  0  0  0  0  0  0  0
  -28.2020  -26.1800   20.2600 O   0  0  0  0  0  0  0  0  0  0  0  0
  -24.6010  -31.9250   23.2390 C   0  0  0  0  0  0  0  0  0  0  0  0
  -27.1400  -27.1750   20.2080 C   0  0  0  0  0  0  0  0  0  0  0  0
  -23.3850  -30.5320   21.6110 C   0  0  0  0  0  3  0  0  0  0  0  0
  -24.8180  -28.9550   20.1800 C   0  0  0  0  0  0  0  0  0  0  0  0
  -25.9420  -30.7880   21.4240 C   0  0  0  0  0  2  0  0  0  0  0  0
  -26.0080  -29.3910   20.7760 C   0  0  0  0  0  0  0  0  0  0  0  0
  -27.1690  -28.5220   20.7660 C   0  0  0  0  0  3  0  0  0  0  0  0
  -25.9110  -26.8490   19.5890 C   0  0  0  0  0  3  0  0  0  0  0  0
  -24.7860  -27.6980   19.5670 C   0  0  0  0  0  3  0  0  0  0  0  0
  -23.5940  -29.8580   20.2310 C   0  0  0  0  0  2  0  0  0  0  0  0
  -24.6630  -31.1050   22.1460 N   0  0  0  0  0  0  0  0  0  0  0  0
  -23.5190  -32.2100   23.7760 O   0  0  0  0  0  0  0  0  0  0  0  0
  -22.7140  -29.5260   22.5790 C   0  0  0  0  0  0  0  0  0  0  0  0
  -21.3910  -29.3230   22.4360 N   0  0  0  0  0  0  0  0  0  0  0  0
  -23.3860  -28.9260   23.4230 O   0  0  0  0  0  0  0  0  0  0  0  0
  -20.9040  -29.8580   21.7290 H   0  0  0  0  0  0  0  0  0  0  0  0
  -18.0360  -28.0360   22.8890 C   0  0  0  0  0  0  0  0  0  0  0  0
  -20.5790  -28.3820   23.2120 C   0  0  0  0  0  3  0  0  0  0  0  0
  -20.7360  -26.9380   22.6790 C   0  0  0  0  0  2  0  0  0  0  0  0
  -19.6700  -26.5550   21.6480 C   0  0  0  0  0  2  0  0  0  0  0  0
  -18.2680  -26.6750   22.2520 C   0  0  0  0  0  2  0  0  0  0  0  0
  -19.1200  -28.8430   23.3260 C   0  0  0  0  0  0  0  0  0  0  0  0
  -18.8490  -30.1110   23.8820 C   0  0  0  0  0  3  0  0  0  0  0  0
  -17.5250  -30.5740   24.0070 C   0  0  0  0  0  3  0  0  0  0  0  0
  -16.4550  -29.7670   23.5870 C   0  0  0  0  0  3  0  0  0  0  0  0
  -16.7110  -28.5000   23.0310 C   0  0  0  0  0  3  0  0  0  0  0  0
  -25.8830  -32.5600   23.8560 C   0  0  0  0  0  3  0  0  0  0  0  0
  -25.5840  -33.9680   24.1610 N   0  0  0  0  0  0  0  0  0  0  0  0
  -25.9150  -35.0080   23.3830 C   0  0  0  0  0  0  0  0  0  0  0  0
  -26.5730  -34.8840   22.3480 O   0  0  0  0  0  0  0  0  0  0  0  0
  -25.0020  -34.1400   24.9680 H   0  0  0  0  0  0  0  0  0  0  0  0
  -24.2030  -36.8180   23.0180 C   0  0  0  0  0  1  0  0  0  0  0  0
  -25.4430  -36.4070   23.8270 C   0  0  0  0  0  3  0  0  0  0  0  0
  -27.5830  -37.2910   24.6460 C   0  0  0  0  0  1  0  0  0  0  0  0
  -26.4850  -37.4500   23.6970 N   0  0  0  0  0  0  0  0  0  0  0  0
  -26.0840  -38.3750   23.8300 H   0  0  0  0  0  0  0  0  0  0  0  0
  -26.3850  -31.8120   25.1510 C   0  0  1  0  0  0  0  0  0  0  0  0
  -25.2840  -31.6040   26.2170 C   0  0  0  0  0  1  0  0  0  0  0  0
  -26.9610  -30.4230   24.7940 C   0  0  0  0  0  1  0  0  0  0  0  0
  -27.5370  -32.6130   25.8040 C   0  0  0  0  0  1  0  0  0  0  0  0
  -30.1680  -17.8100   20.6930 C   0  0  0  0  0  2  0  0  0  0  0  0
  -30.5130  -15.0760   20.4680 C   0  0  0  0  0  0  0  0  0  0  0  0
  -30.4230  -12.7210   19.5130 C   0  0  0  0  0  2  0  0  0  0  0  0
  -29.5040  -12.6420   18.2730 C   0  0  0  0  0  2  0  0  0  0  0  0
  -28.0410  -12.4080   18.6940 C   0  0  0  0  0  2  0  0  0  0  0  0
  -27.6060  -13.3360   19.8580 C   0  0  0  0  0  3  0  0  0  0  0  0
  -28.6500  -13.3810   20.9940 C   0  0  0  0  0  2  0  0  0  0  0  0
  -29.9160  -13.8160   20.3920 N   0  0  0  0  0  0  0  0  0  0  0  0
  -31.7240  -15.1270   20.2270 O   0  0  0  0  0  0  0  0  0  0  0  0
  -29.7500  -16.2770   20.6090 N   0  0  0  0  0  0  0  0  0  0  0  0
  -28.7630  -16.1160   20.7340 H   0  0  0  0  0  0  0  0  0  0  0  0
  -25.2120  -13.8810   20.5720 C   0  0  0  0  0  0  0  0  0  0  0  0
  -24.1520  -13.0910   20.9240 C   0  0  0  0  0  0  0  0  0  0  0  0
  -24.6340  -11.7460   20.8940 C   0  0  0  0  0  0  0  0  0  0  0  0
  -26.2680  -13.0170   20.3420 N   0  0  0  0  0  0  0  0  0  0  0  0
  -25.9290  -11.7280   20.6040 N   0  0  0  0  0  0  0  0  0  0  0  0
  -23.9200  -10.4750   21.0670 C   0  0  0  0  0  0  0  0  0  0  0  0
  -24.3370   -9.5150   22.0160 C   0  0  0  0  0  3  0  0  0  0  0  0
  -23.6200   -8.3100   22.1770 C   0  0  0  0  0  3  0  0  0  0  0  0
  -22.4720   -8.0550   21.3890 C   0  0  0  0  0  0  0  0  0  0  0  0
  -22.0760   -9.0040   20.4300 C   0  0  0  0  0  3  0  0  0  0  0  0
  -22.7930  -10.2000   20.2670 C   0  0  0  0  0  3  0  0  0  0  0  0
  -21.7290   -6.9030   21.4600 O   0  0  0  0  0  0  0  0  0  0  0  0
  -21.6310   -6.1780   22.6210 C   0  0  0  0  0  0  0  0  0  0  0  0
  -21.0890   -6.7330   23.8010 C   0  0  0  0  0  3  0  0  0  0  0  0
  -20.9430   -5.9320   24.9520 C   0  0  0  0  0  3  0  0  0  0  0  0
  -21.3290   -4.5780   24.9230 C   0  0  0  0  0  0  0  0  0  0  0  0
  -21.8630   -4.0250   23.7470 C   0  0  0  0  0  3  0  0  0  0  0  0
  -22.0110   -4.8210   22.5980 C   0  0  0  0  0  0  0  0  0  0  0  0
  -22.5070   -4.2760   21.4610 F   0  0  0  0  0  0  0  0  0  0  0  0
  -21.1820   -3.8080   26.0260 F   0  0  0  0  0  0  0  0  0  0  0  0
  -22.7450  -13.5510   21.1740 C   0  0  0  0  0  0  0  0  0  0  0  0
  -22.0080  -12.8370   22.0180 N   0  0  0  0  0  0  0  0  0  0  0  0
  -22.3070  -14.5780   20.6570 O   0  0  0  0  0  0  0  0  0  0  0  0
  -22.3740  -12.0060   22.4570 H   0  0  0  0  0  0  0  0  0  0  0  0
  -21.0650  -13.1280   22.2300 H   0  0  0  0  0  0  0  0  0  0  0  0
  -25.3570  -15.2540   20.3990 N   0  0  0  0  0  0  0  0  0  0  0  0
  -24.5750  -15.8940   20.4940 H   0  0  0  0  0  0  0  0  0  0  0  0
  -26.1950  -15.7060   20.0570 H   0  0  0  0  0  0  0  0  0  0  0  0
  1  4  2  0
  1  2  1  0
  2  6  2  0
  4  5  1  0
  5  3  2  0
  5  9  1  0
  6 54  1  0
  6  3  1  0
  7 10  1  0
  8  7  2  0
  8  4  1  0
 10 13  1  0
 10  9  2  0
 11  7  1  0
 12 11  1  0
 14 25  2  0
 15 13  1  0
 15 20  1  0
 16 24  1  0
 16 26  1  0
 17 23  1  0
 17 19  1  0
 18 24  1  0
 19 18  1  0
 20 19  2  0
 21 15  2  0
 22 21  1  0
 22 17  2  0
 23 16  1  0
 24 14  1  0
 26 28  2  0
 27 26  1  0
 29 27  1  0
 30 39  2  0
 30 35  1  0
 31 27  1  0
 31 35  1  0
 32 31  1  0
 33 34  1  0
 33 32  1  0
 34 30  1  0
 35 36  2  0
 36 37  1  0
 38 37  2  0
 39 38  1  0
 40 14  1  0
 40 41  1  0
 40 50  1  0
 41 44  1  0
 42 46  1  0
 42 41  1  0
 43 42  2  0
 46 45  1  0
 48 46  1  0
 48 49  1  0
 48 47  1  0
 50 53  1  1
 50 51  1  0
 52 50  1  0
 55 63  1  0
 56 61  1  0
 57 58  1  0
 57 56  1  0
 59 58  1  0
 59 68  1  0
 59 60  1  0
 61 55  1  0
 61 60  1  0
 62 55  2  0
 63 54  1  0
 63 64  1  0
 65 66  2  0
 66 85  1  0
 67 66  1  0
 67 70  1  0
 68 65  1  0
 68 69  1  0
 69 67  2  0
 70 71  1  0
 71 72  2  0
 73 76  1  0
 73 72  1  0
 74 73  2  0
 75 74  1  0
 75 70  2  0
 76 77  1  0
 77 78  1  0
 78 79  2  0
 80 79  1  0
 80 84  1  0
 81 80  2  0
 82 77  2  0
 82 81  1  0
 83 82  1  0
 85 86  1  0
 86 89  1  0
 86 88  1  0
 87 85  2  0
 90 91  1  0
 90 65  1  0
 92 90  1  0
M  ISO  4  10 101  13 101  55 100  63 100
M  END
>  <TORSDO>  (85) 
F 17

>  <SCORE>  (85) 
-15.250

>  <name>  (85) 
86

>  <ligand_id>  (85) 
86

>  <original_smiles>  (85) 
[H]N=C1C([H])([H])c2c([H])c([H])c(C([H])([H])N([H])C(=O)N3C([H])([H])C([H])([H])C([H])([H])C([H])(n4nc(-c5c([H])c([H])c(Oc6c([H])c([H])c(F)c([H])c6F)c([H])c5[H])c(C(=O)N([H])[H])c4N([H])[H])C3([H])[H])c([H])c2C([H])([H])C1([H])Oc1c([H])c([H])c2c(c1[H])C([H])([H])N(C(=O)C([H])(N([H])C(=O)C([H])(N([H])C([H])([H])[H])C([H])([H])[H])C(C([H])([H])[H])(C([H])([H])[H])C([H])([H])[H])C([H])(C(=O)N([H])C1([H])c3c([H])c([H])c([H])c([H])c3C([H])([H])C([H])([H])C1([H])[H])C2([H])[H]

>  <smiles>  (85) 
[H]N=C1C([H])([H])c2c([H])c([H])c(C([H])([H])N([H])C(=O)N3C([H])([H])C([H])([H])C([H])([H])C([H])(n4nc(-c5c([H])c([H])c(Oc6c([H])c([H])c(F)c([H])c6F)c([H])c5[H])c(C(=O)N([H])[H])c4N([H])[H])C3([H])[H])c([H])c2C([H])([H])C1([H])Oc1c([H])c([H])c2c(c1[H])C([H])([H])N(C(=O)C([H])(N([H])C(=O)C([H])(N([H])C([H])([H])[H])C([H])([H])[H])C(C([H])([H])[H])(C([H])([H])[H])C([H])([H])[H])C([H])(C(=O)N([H])C1([H])c3c([H])c([H])c([H])c([H])c3C([H])([H])C([H])([H])C1([H])[H])C2([H])[H]

$$$$
87:0:0
     RDKit          3D

 93102  0  0  1  0  0  0  0  0999 V2000
  -31.0790  -22.1090   21.1910 C   0  0  0  0  0  3  0  0  0  0  0  0
  -31.6340  -21.1700   21.9850 C   0  0  0  0  0  3  0  0  0  0  0  0
  -30.2330  -20.9330   19.3080 C   0  0  0  0  0  3  0  0  0  0  0  0
  -30.4980  -19.6440   19.5710 C   0  0  0  0  0  3  0  0  0  0  0  0
  -30.4360  -22.0660   20.0060 C   0  0  0  0  0  0  0  0  0  0  0  0
  -31.0960  -18.9950   20.5900 C   0  0  0  0  0  0  0  0  0  0  0  0
  -31.7130  -19.7150   21.7400 C   0  0  0  0  0  0  0  0  0  0  0  0
  -32.3610  -19.0710   22.5700 O   0  0  0  0  0  0  0  0  0  0  0  0
  -30.6980  -24.5180   19.0970 C   0  0  0  0  0  2  0  0  0  0  0  0
  -29.8430  -23.3120   19.4040 C   0  0  0  0  0  3  0  0  0  0  0  0
  -29.5860  -24.6350   20.1160 C   0  0  0  0  0  3  0  0  0  0  0  0
  -28.2950  -25.3650   19.7950 C   0  0  0  0  0  2  0  0  0  0  0  0
  -28.3600  -26.7510   20.1300 O   0  0  0  0  0  0  0  0  0  0  0  0
  -24.5520  -31.8860   23.2240 C   0  0  0  0  0  0  0  0  0  0  0  0
  -27.1700  -27.4520   20.1200 C   0  0  0  0  0  0  0  0  0  0  0  0
  -23.3310  -30.4840   21.5910 C   0  0  0  0  0  3  0  0  0  0  0  0
  -24.7710  -28.9520   20.1560 C   0  0  0  0  0  0  0  0  0  0  0  0
  -25.8550  -30.8450   21.3760 C   0  0  0  0  0  2  0  0  0  0  0  0
  -25.9330  -29.4760   20.7320 C   0  0  0  0  0  0  0  0  0  0  0  0
  -27.1350  -28.7340   20.7110 C   0  0  0  0  0  3  0  0  0  0  0  0
  -25.9830  -26.9390   19.5420 C   0  0  0  0  0  3  0  0  0  0  0  0
  -24.7880  -27.6810   19.5600 C   0  0  0  0  0  3  0  0  0  0  0  0
  -23.5280  -29.8070   20.2090 C   0  0  0  0  0  2  0  0  0  0  0  0
  -24.5970  -31.0860   22.1210 N   0  0  0  0  0  0  0  0  0  0  0  0
  -23.4750  -32.1570   23.7740 O   0  0  0  0  0  0  0  0  0  0  0  0
  -22.6900  -29.4620   22.5560 C   0  0  0  0  0  0  0  0  0  0  0  0
  -21.3650  -29.2780   22.4380 N   0  0  0  0  0  0  0  0  0  0  0  0
  -23.3800  -28.8370   23.3650 O   0  0  0  0  0  0  0  0  0  0  0  0
  -20.8720  -29.8340   21.7530 H   0  0  0  0  0  0  0  0  0  0  0  0
  -17.9920  -28.0890   22.9550 C   0  0  0  0  0  0  0  0  0  0  0  0
  -20.5510  -28.3440   23.2150 C   0  0  0  0  0  3  0  0  0  0  0  0
  -20.6500  -26.9130   22.6390 C   0  0  0  0  0  2  0  0  0  0  0  0
  -19.5420  -26.5900   21.6310 C   0  0  0  0  0  2  0  0  0  0  0  0
  -18.1630  -26.7390   22.2800 C   0  0  0  0  0  2  0  0  0  0  0  0
  -19.1140  -28.8500   23.3790 C   0  0  0  0  0  0  0  0  0  0  0  0
  -18.9010  -30.1140   23.9680 C   0  0  0  0  0  3  0  0  0  0  0  0
  -17.5990  -30.6200   24.1380 C   0  0  0  0  0  3  0  0  0  0  0  0
  -16.4910  -29.8550   23.7320 C   0  0  0  0  0  3  0  0  0  0  0  0
  -16.6880  -28.5930   23.1480 C   0  0  0  0  0  3  0  0  0  0  0  0
  -25.8440  -32.5140   23.8320 C   0  0  0  0  0  3  0  0  0  0  0  0
  -26.3800  -31.7370   25.0970 C   0  0  1  0  0  0  0  0  0  0  0  0
  -25.3020  -31.4930   26.1770 C   0  0  0  0  0  1  0  0  0  0  0  0
  -26.9590  -30.3620   24.6900 C   0  0  0  0  0  1  0  0  0  0  0  0
  -27.5380  -32.5300   25.7470 C   0  0  0  0  0  1  0  0  0  0  0  0
  -25.5410  -33.9110   24.1690 N   0  0  0  0  0  0  0  0  0  0  0  0
  -25.8660  -34.9640   23.4090 C   0  0  0  0  0  0  0  0  0  0  0  0
  -26.5250  -34.8640   22.3710 O   0  0  0  0  0  0  0  0  0  0  0  0
  -24.9610  -34.0660   24.9820 H   0  0  0  0  0  0  0  0  0  0  0  0
  -24.1310  -36.7530   23.0710 C   0  0  0  0  0  1  0  0  0  0  0  0
  -25.3780  -36.3500   23.8730 C   0  0  0  0  0  3  0  0  0  0  0  0
  -27.5200  -37.2310   24.6880 C   0  0  0  0  0  1  0  0  0  0  0  0
  -26.4080  -37.4050   23.7570 N   0  0  0  0  0  0  0  0  0  0  0  0
  -26.0010  -38.3230   23.9150 H   0  0  0  0  0  0  0  0  0  0  0  0
  -31.2810  -17.4760   20.5400 C   0  0  0  0  0  2  0  0  0  0  0  0
  -30.5610  -16.7010   21.6720 C   0  0  0  0  0  2  0  0  0  0  0  0
  -30.7220  -14.4150   20.5870 C   0  0  0  0  0  0  0  0  0  0  0  0
  -30.3760  -12.3200   19.3380 C   0  0  0  0  0  2  0  0  0  0  0  0
  -29.4550  -12.5810   18.1300 C   0  0  0  0  0  2  0  0  0  0  0  0
  -27.9740  -12.4500   18.5390 C   0  0  0  0  0  2  0  0  0  0  0  0
  -27.6330  -13.2660   19.8150 C   0  0  0  0  0  3  0  0  0  0  0  0
  -28.6660  -12.9910   20.9320 C   0  0  0  0  0  2  0  0  0  0  0  0
  -30.0100  -13.2770   20.3930 N   0  0  0  0  0  0  0  0  0  0  0  0
  -31.8260  -14.6150   20.0730 O   0  0  0  0  0  0  0  0  0  0  0  0
  -30.0990  -15.3550   21.3120 N   0  0  0  0  0  0  0  0  0  0  0  0
  -29.1900  -15.0880   21.6630 H   0  0  0  0  0  0  0  0  0  0  0  0
  -25.2170  -13.8920   20.4550 C   0  0  0  0  0  0  0  0  0  0  0  0
  -24.1400  -13.1270   20.8130 C   0  0  0  0  0  0  0  0  0  0  0  0
  -24.5990  -11.7740   20.8160 C   0  0  0  0  0  0  0  0  0  0  0  0
  -26.2670  -13.0040   20.2660 N   0  0  0  0  0  0  0  0  0  0  0  0
  -25.8960  -11.7270   20.5380 N   0  0  0  0  0  0  0  0  0  0  0  0
  -23.8680  -10.5160   21.0110 C   0  0  0  0  0  0  0  0  0  0  0  0
  -24.2900   -9.5570   21.9580 C   0  0  0  0  0  3  0  0  0  0  0  0
  -23.5590   -8.3630   22.1430 C   0  0  0  0  0  3  0  0  0  0  0  0
  -22.3940   -8.1200   21.3800 C   0  0  0  0  0  0  0  0  0  0  0  0
  -21.9900   -9.0670   20.4220 C   0  0  0  0  0  3  0  0  0  0  0  0
  -22.7210  -10.2520   20.2360 C   0  0  0  0  0  3  0  0  0  0  0  0
  -21.6350   -6.9780   21.4720 O   0  0  0  0  0  0  0  0  0  0  0  0
  -21.5820   -6.2390   22.6280 C   0  0  0  0  0  0  0  0  0  0  0  0
  -21.1730   -6.8040   23.8550 C   0  0  0  0  0  3  0  0  0  0  0  0
  -21.0670   -5.9920   25.0020 C   0  0  0  0  0  3  0  0  0  0  0  0
  -21.3600   -4.6170   24.9220 C   0  0  0  0  0  0  0  0  0  0  0  0
  -21.7620   -4.0520   23.6990 C   0  0  0  0  0  3  0  0  0  0  0  0
  -21.8690   -4.8610   22.5540 C   0  0  0  0  0  0  0  0  0  0  0  0
  -22.2350   -4.3070   21.3720 F   0  0  0  0  0  0  0  0  0  0  0  0
  -21.2510   -3.8350   26.0210 F   0  0  0  0  0  0  0  0  0  0  0  0
  -22.7370  -13.6080   21.0480 C   0  0  0  0  0  0  0  0  0  0  0  0
  -21.9920  -12.9290   21.9110 N   0  0  0  0  0  0  0  0  0  0  0  0
  -22.3120  -14.6250   20.5000 O   0  0  0  0  0  0  0  0  0  0  0  0
  -22.3490  -12.1060   22.3750 H   0  0  0  0  0  0  0  0  0  0  0  0
  -21.0490  -13.2330   22.1080 H   0  0  0  0  0  0  0  0  0  0  0  0
  -25.3930  -15.2570   20.2560 N   0  0  0  0  0  0  0  0  0  0  0  0
  -24.6300  -15.9240   20.3330 H   0  0  0  0  0  0  0  0  0  0  0  0
  -26.2600  -15.6840   19.9550 H   0  0  0  0  0  0  0  0  0  0  0  0
  1  2  2  0
  3  4  1  0
  3  5  2  0
  4  6  2  0
  5  1  1  0
  6  7  1  0
  7  2  1  0
  7  8  2  0
  9 10  1  0
  9 11  1  0
 10  5  1  0
 10 11  1  0
 11 12  1  0
 12 13  1  0
 14 25  2  0
 15 13  1  0
 15 20  1  0
 16 24  1  0
 16 26  1  0
 17 23  1  0
 17 19  1  0
 18 24  1  0
 19 18  1  0
 20 19  2  0
 21 22  1  0
 21 15  2  0
 22 17  2  0
 23 16  1  0
 24 14  1  0
 26 28  2  0
 27 26  1  0
 29 27  1  0
 30 39  2  0
 30 35  1  0
 31 27  1  0
 31 35  1  0
 32 31  1  0
 33 34  1  0
 33 32  1  0
 34 30  1  0
 35 36  2  0
 36 37  1  0
 38 37  2  0
 39 38  1  0
 40 14  1  0
 40 45  1  0
 40 41  1  0
 41 44  1  1
 41 42  1  0
 43 41  1  0
 45 48  1  0
 46 50  1  0
 46 45  1  0
 47 46  2  0
 50 49  1  0
 52 50  1  0
 52 53  1  0
 52 51  1  0
 54  6  1  0
 54 55  1  0
 56 64  1  0
 57 62  1  0
 58 59  1  0
 58 57  1  0
 60 59  1  0
 60 69  1  0
 60 61  1  0
 62 56  1  0
 62 61  1  0
 63 56  2  0
 64 65  1  0
 64 55  1  0
 66 67  2  0
 67 68  1  0
 67 86  1  0
 68 71  1  0
 69 66  1  0
 69 70  1  0
 70 68  2  0
 71 72  1  0
 72 73  2  0
 74 77  1  0
 74 73  1  0
 75 74  2  0
 76 75  1  0
 76 71  2  0
 77 78  1  0
 78 79  1  0
 79 80  2  0
 81 80  1  0
 81 85  1  0
 82 81  2  0
 83 78  2  0
 83 82  1  0
 84 83  1  0
 86 87  1  0
 87 90  1  0
 87 89  1  0
 88 86  2  0
 91 92  1  0
 91 66  1  0
 93 91  1  0
M  ISO  4  12 101  13 101  56 100  64 100
M  END
>  <TORSDO>  (86) 
F 20

>  <SCORE>  (86) 
-13.921

>  <name>  (86) 
87

>  <ligand_id>  (86) 
87

>  <original_smiles>  (86) 
[H]c1c([H])c([H])c2c(c1[H])C([H])([H])C([H])([H])C([H])([H])C2([H])N([H])C(=O)C1([H])N(C(=O)C([H])(N([H])C(=O)C([H])(N([H])C([H])([H])[H])C([H])([H])[H])C(C([H])([H])[H])(C([H])([H])[H])C([H])([H])[H])C([H])([H])c2c([H])c(OC([H])([H])C3([H])C([H])([H])C3([H])c3c([H])c([H])c(C([H])([H])C([H])([H])N([H])C(=O)N4C([H])([H])C([H])([H])C([H])([H])C([H])(n5nc(-c6c([H])c([H])c(Oc7c([H])c([H])c(F)c([H])c7F)c([H])c6[H])c(C(=O)N([H])[H])c5N([H])[H])C4([H])[H])c(=O)c([H])c3[H])c([H])c([H])c2C1([H])[H]

>  <smiles>  (86) 
[H]c1c([H])c([H])c2c(c1[H])C([H])([H])C([H])([H])C([H])([H])C2([H])N([H])C(=O)C1([H])N(C(=O)C([H])(N([H])C(=O)C([H])(N([H])C([H])([H])[H])C([H])([H])[H])C(C([H])([H])[H])(C([H])([H])[H])C([H])([H])[H])C([H])([H])c2c([H])c(OC([H])([H])C3([H])C([H])([H])C3([H])c3c([H])c([H])c(C([H])([H])C([H])([H])N([H])C(=O)N4C([H])([H])C([H])([H])C([H])([H])C([H])(n5nc(-c6c([H])c([H])c(Oc7c([H])c([H])c(F)c([H])c7F)c([H])c6[H])c(C(=O)N([H])[H])c5N([H])[H])C4([H])[H])c(=O)c([H])c3[H])c([H])c([H])c2C1([H])[H]

$$$$
88:0:0
     RDKit          3D

 94103  0  0  1  0  0  0  0  0999 V2000
  -28.7260  -20.9520   17.8330 C   0  0  0  0  0  3  0  0  0  0  0  0
  -28.8530  -19.7850   18.6010 C   0  0  0  0  0  3  0  0  0  0  0  0
  -29.0840  -21.1760   20.5800 C   0  0  0  0  0  3  0  0  0  0  0  0
  -28.8180  -22.2440   18.4040 C   0  0  0  0  0  0  0  0  0  0  0  0
  -28.9210  -22.4140   19.8230 C   0  0  0  0  0  0  0  0  0  0  0  0
  -29.0840  -19.8480   19.9860 C   0  0  0  0  0  0  0  0  0  0  0  0
  -28.8220  -23.3640   17.4290 C   0  0  0  0  0  0  0  0  0  0  0  0
  -28.8900  -23.8360   20.5020 C   0  0  0  0  0  0  0  0  0  0  0  0
  -29.8520  -24.4510   17.6910 C   0  0  0  0  0  2  0  0  0  0  0  0
  -29.2690  -25.5780   18.5450 C   0  0  0  0  0  2  0  0  0  0  0  0
  -28.3760  -25.1540   19.7320 C   0  0  0  0  0  3  0  0  0  0  0  0
  -28.1080  -23.4220   16.4250 O   0  0  0  0  0  0  0  0  0  0  0  0
  -29.2360  -23.9640   21.6810 O   0  0  0  0  0  0  0  0  0  0  0  0
  -28.2730  -26.4360   20.5020 O   0  0  0  0  0  0  0  0  0  0  0  0
  -24.5860  -31.9850   23.3190 C   0  0  0  0  0  0  0  0  0  0  0  0
  -27.1770  -27.3190   20.3690 C   0  0  0  0  0  0  0  0  0  0  0  0
  -23.3910  -30.5780   21.6840 C   0  0  0  0  0  3  0  0  0  0  0  0
  -24.8400  -28.9920   20.2970 C   0  0  0  0  0  0  0  0  0  0  0  0
  -25.9390  -30.8510   21.5400 C   0  0  0  0  0  2  0  0  0  0  0  0
  -26.0060  -29.4600   20.9130 C   0  0  0  0  0  0  0  0  0  0  0  0
  -27.1720  -28.6320   20.9470 C   0  0  0  0  0  3  0  0  0  0  0  0
  -25.9860  -26.9210   19.7150 C   0  0  0  0  0  3  0  0  0  0  0  0
  -24.8350  -27.7300   19.6900 C   0  0  0  0  0  3  0  0  0  0  0  0
  -23.6160  -29.8850   20.3170 C   0  0  0  0  0  2  0  0  0  0  0  0
  -24.6570  -31.1570   22.2360 N   0  0  0  0  0  0  0  0  0  0  0  0
  -23.4980  -32.2860   23.8320 O   0  0  0  0  0  0  0  0  0  0  0  0
  -22.7000  -29.5830   22.6490 C   0  0  0  0  0  0  0  0  0  0  0  0
  -21.3780  -29.4000   22.4880 N   0  0  0  0  0  0  0  0  0  0  0  0
  -23.3550  -28.9780   23.5020 O   0  0  0  0  0  0  0  0  0  0  0  0
  -20.9080  -29.9380   21.7730 H   0  0  0  0  0  0  0  0  0  0  0  0
  -17.9850  -28.2270   22.9350 C   0  0  0  0  0  0  0  0  0  0  0  0
  -20.5370  -28.4830   23.2600 C   0  0  0  0  0  3  0  0  0  0  0  0
  -20.6480  -27.0390   22.7190 C   0  0  0  0  0  2  0  0  0  0  0  0
  -19.5690  -26.6990   21.6870 C   0  0  0  0  0  2  0  0  0  0  0  0
  -18.1730  -26.8630   22.2930 C   0  0  0  0  0  2  0  0  0  0  0  0
  -19.0960  -28.9960   23.3740 C   0  0  0  0  0  0  0  0  0  0  0  0
  -18.8680  -30.2710   23.9340 C   0  0  0  0  0  3  0  0  0  0  0  0
  -17.5600  -30.7790   24.0580 C   0  0  0  0  0  3  0  0  0  0  0  0
  -16.4630  -30.0080   23.6350 C   0  0  0  0  0  3  0  0  0  0  0  0
  -16.6760  -28.7360   23.0780 C   0  0  0  0  0  3  0  0  0  0  0  0
  -25.8680  -32.6140   23.9490 C   0  0  0  0  0  3  0  0  0  0  0  0
  -25.5690  -34.0210   24.2510 N   0  0  0  0  0  0  0  0  0  0  0  0
  -25.9140  -35.0570   23.4730 C   0  0  0  0  0  0  0  0  0  0  0  0
  -26.5840  -34.9270   22.4440 O   0  0  0  0  0  0  0  0  0  0  0  0
  -24.9750  -34.1980   25.0470 H   0  0  0  0  0  0  0  0  0  0  0  0
  -24.2090  -36.8630   23.0770 C   0  0  0  0  0  1  0  0  0  0  0  0
  -25.4400  -36.4590   23.9040 C   0  0  0  0  0  3  0  0  0  0  0  0
  -27.5710  -37.3410   24.7460 C   0  0  0  0  0  1  0  0  0  0  0  0
  -26.4860  -37.4980   23.7800 N   0  0  0  0  0  0  0  0  0  0  0  0
  -26.0870  -38.4240   23.9010 H   0  0  0  0  0  0  0  0  0  0  0  0
  -26.3540  -31.8600   25.2480 C   0  0  1  0  0  0  0  0  0  0  0  0
  -25.2380  -31.6460   26.2980 C   0  0  0  0  0  1  0  0  0  0  0  0
  -26.9350  -30.4730   24.8920 C   0  0  0  0  0  1  0  0  0  0  0  0
  -27.4970  -32.6580   25.9200 C   0  0  0  0  0  1  0  0  0  0  0  0
  -29.1700  -18.4640   20.7580 C   0  0  0  0  0  2  0  0  0  0  0  0
  -30.1070  -17.2790   20.1960 C   0  0  0  0  0  2  0  0  0  0  0  0
  -30.6180  -14.7320   20.3770 C   0  0  0  0  0  0  0  0  0  0  0  0
  -30.3840  -12.4950   19.3160 C   0  0  0  0  0  2  0  0  0  0  0  0
  -29.4320  -12.6370   18.1070 C   0  0  0  0  0  2  0  0  0  0  0  0
  -27.9640  -12.4760   18.5510 C   0  0  0  0  0  2  0  0  0  0  0  0
  -27.6200  -13.3220   19.8070 C   0  0  0  0  0  3  0  0  0  0  0  0
  -28.6930  -13.1720   20.9090 C   0  0  0  0  0  2  0  0  0  0  0  0
  -29.9880  -13.5140   20.3100 N   0  0  0  0  0  0  0  0  0  0  0  0
  -31.7880  -14.8560   20.0080 O   0  0  0  0  0  0  0  0  0  0  0  0
  -29.8360  -15.8420   20.6140 N   0  0  0  0  0  0  0  0  0  0  0  0
  -28.8870  -15.6380   20.8890 H   0  0  0  0  0  0  0  0  0  0  0  0
  -25.2360  -13.9050   20.5640 C   0  0  0  0  0  0  0  0  0  0  0  0
  -24.1750  -13.1270   20.9330 C   0  0  0  0  0  0  0  0  0  0  0  0
  -24.6390  -11.7760   20.8810 C   0  0  0  0  0  0  0  0  0  0  0  0
  -26.2800  -13.0300   20.3060 N   0  0  0  0  0  0  0  0  0  0  0  0
  -25.9260  -11.7430   20.5600 N   0  0  0  0  0  0  0  0  0  0  0  0
  -23.9140  -10.5110   21.0610 C   0  0  0  0  0  0  0  0  0  0  0  0
  -24.3320   -9.5470   22.0040 C   0  0  0  0  0  3  0  0  0  0  0  0
  -23.6080   -8.3480   22.1720 C   0  0  0  0  0  3  0  0  0  0  0  0
  -22.4510   -8.1030   21.3940 C   0  0  0  0  0  0  0  0  0  0  0  0
  -22.0530   -9.0550   20.4390 C   0  0  0  0  0  3  0  0  0  0  0  0
  -22.7770  -10.2460   20.2700 C   0  0  0  0  0  3  0  0  0  0  0  0
  -21.6990   -6.9540   21.4700 O   0  0  0  0  0  0  0  0  0  0  0  0
  -21.6140   -6.2250   22.6300 C   0  0  0  0  0  0  0  0  0  0  0  0
  -21.0940   -6.7790   23.8200 C   0  0  0  0  0  3  0  0  0  0  0  0
  -20.9610   -5.9740   24.9700 C   0  0  0  0  0  3  0  0  0  0  0  0
  -21.3360   -4.6180   24.9290 C   0  0  0  0  0  0  0  0  0  0  0  0
  -21.8490   -4.0650   23.7420 C   0  0  0  0  0  3  0  0  0  0  0  0
  -21.9850   -4.8660   22.5950 C   0  0  0  0  0  0  0  0  0  0  0  0
  -22.4600   -4.3240   21.4480 F   0  0  0  0  0  0  0  0  0  0  0  0
  -21.1980   -3.8430   26.0290 F   0  0  0  0  0  0  0  0  0  0  0  0
  -22.7810  -13.5980   21.2240 C   0  0  0  0  0  0  0  0  0  0  0  0
  -22.0580  -12.8850   22.0800 N   0  0  0  0  0  0  0  0  0  0  0  0
  -22.3410  -14.6360   20.7290 O   0  0  0  0  0  0  0  0  0  0  0  0
  -22.4300  -12.0480   22.5040 H   0  0  0  0  0  0  0  0  0  0  0  0
  -21.1210  -13.1790   22.3170 H   0  0  0  0  0  0  0  0  0  0  0  0
  -25.3980  -15.2790   20.4000 N   0  0  0  0  0  0  0  0  0  0  0  0
  -24.6250  -15.9270   20.5070 H   0  0  0  0  0  0  0  0  0  0  0  0
  -26.2280  -15.7180   20.0250 H   0  0  0  0  0  0  0  0  0  0  0  0
  1  4  2  0
  1  2  1  0
  2  6  2  0
  4  5  1  0
  5  8  1  0
  5  3  2  0
  6  3  1  0
  6 55  1  0
  7  9  1  0
  7  4  1  0
  8 13  2  0
  9 10  1  0
 10 11  1  0
 11  8  1  0
 11 14  1  0
 12  7  2  0
 15 26  2  0
 16 14  1  0
 16 21  1  0
 17 25  1  0
 17 27  1  0
 18 24  1  0
 18 20  1  0
 19 25  1  0
 20 21  2  0
 20 19  1  0
 22 16  2  0
 23 22  1  0
 23 18  2  0
 24 17  1  0
 25 15  1  0
 27 29  2  0
 28 27  1  0
 30 28  1  0
 31 40  2  0
 31 36  1  0
 32 28  1  0
 32 36  1  0
 33 32  1  0
 34 35  1  0
 34 33  1  0
 35 31  1  0
 36 37  2  0
 37 38  1  0
 39 38  2  0
 40 39  1  0
 41 15  1  0
 41 42  1  0
 41 51  1  0
 42 45  1  0
 43 47  1  0
 43 42  1  0
 44 43  2  0
 47 46  1  0
 49 50  1  0
 49 47  1  0
 49 48  1  0
 51 54  1  1
 51 52  1  0
 53 51  1  0
 56 65  1  0
 56 55  1  0
 57 65  1  0
 58 63  1  0
 59 60  1  0
 59 58  1  0
 61 60  1  0
 61 70  1  0
 61 62  1  0
 63 57  1  0
 63 62  1  0
 64 57  2  0
 65 66  1  0
 67 68  2  0
 68 87  1  0
 69 68  1  0
 69 72  1  0
 70 71  1  0
 70 67  1  0
 71 69  2  0
 72 73  1  0
 73 74  2  0
 75 78  1  0
 75 74  1  0
 76 75  2  0
 77 76  1  0
 77 72  2  0
 78 79  1  0
 79 80  1  0
 80 81  2  0
 82 81  1  0
 82 86  1  0
 83 82  2  0
 84 79  2  0
 84 83  1  0
 85 84  1  0
 87 88  1  0
 88 91  1  0
 88 90  1  0
 89 87  2  0
 92 93  1  0
 92 67  1  0
 94 92  1  0
M  ISO  4  11 101  14 101  57 100  65 100
M  END
>  <TORSDO>  (87) 
F 18

>  <SCORE>  (87) 
-14.515

>  <name>  (87) 
88

>  <ligand_id>  (87) 
88

>  <original_smiles>  (87) 
[H]c1c([H])c([H])c2c(c1[H])C([H])([H])C([H])([H])C([H])([H])C2([H])N([H])C(=O)C1([H])N(C(=O)C([H])(N([H])C(=O)C([H])(N([H])C([H])([H])[H])C([H])([H])[H])C(C([H])([H])[H])(C([H])([H])[H])C([H])([H])[H])C([H])([H])c2c([H])c(OC3([H])C(=O)c4c([H])c(C([H])([H])C([H])([H])N([H])C(=O)N5C([H])([H])C([H])([H])C([H])([H])C([H])(n6nc(-c7c([H])c([H])c(Oc8c([H])c([H])c(F)c([H])c8F)c([H])c7[H])c(C(=O)N([H])[H])c6N([H])[H])C5([H])[H])c([H])c([H])c4C(=O)C([H])([H])C3([H])[H])c([H])c([H])c2C1([H])[H]

>  <smiles>  (87) 
[H]c1c([H])c([H])c2c(c1[H])C([H])([H])C([H])([H])C([H])([H])C2([H])N([H])C(=O)C1([H])N(C(=O)C([H])(N([H])C(=O)C([H])(N([H])C([H])([H])[H])C([H])([H])[H])C(C([H])([H])[H])(C([H])([H])[H])C([H])([H])[H])C([H])([H])c2c([H])c(OC3([H])C(=O)c4c([H])c(C([H])([H])C([H])([H])N([H])C(=O)N5C([H])([H])C([H])([H])C([H])([H])C([H])(n6nc(-c7c([H])c([H])c(Oc8c([H])c([H])c(F)c([H])c8F)c([H])c7[H])c(C(=O)N([H])[H])c6N([H])[H])C5([H])[H])c([H])c([H])c4C(=O)C([H])([H])C3([H])[H])c([H])c([H])c2C1([H])[H]

$$$$
89:0:0
     RDKit          3D

 88 96  0  0  1  0  0  0  0  0999 V2000
  -28.6120  -21.6890   20.3880 C   0  0  0  0  0  2  0  0  0  0  0  0
  -29.6490  -20.4830   20.2940 N   0  0  0  0  0  4  0  0  0  0  0  0
  -30.0660  -20.5330   19.3780 H   0  0  0  0  0  0  0  0  0  0  0  0
  -30.3850  -20.7200   20.9400 H   0  0  0  0  0  0  0  0  0  0  0  0
  -30.5480  -15.0480   20.2710 C   0  0  0  0  0  0  0  0  0  0  0  0
  -30.3740  -12.6970   19.3220 C   0  0  0  0  0  2  0  0  0  0  0  0
  -29.4260  -12.6140   18.1060 C   0  0  0  0  0  2  0  0  0  0  0  0
  -27.9800  -12.3640   18.5710 C   0  0  0  0  0  2  0  0  0  0  0  0
  -27.5680  -13.2980   19.7340 C   0  0  0  0  0  3  0  0  0  0  0  0
  -28.6440  -13.3870   20.8400 C   0  0  0  0  0  2  0  0  0  0  0  0
  -29.8940  -13.8120   20.1920 N   0  0  0  0  0  0  0  0  0  0  0  0
  -31.7700  -15.0210   20.0870 O   0  0  0  0  0  0  0  0  0  0  0  0
  -28.3490  -18.2100   19.6660 C   0  0  0  0  0  2  0  0  0  0  0  0
  -28.5190  -16.6590   19.9180 C   0  0  0  0  0  2  0  0  0  0  0  0
  -30.4650  -17.7520   20.5440 C   0  0  0  0  0  2  0  0  0  0  0  0
  -29.3330  -18.9440   20.5810 C   0  0  0  0  0  3  0  0  0  0  0  0
  -29.8820  -16.3230   20.3800 N   0  0  0  0  0  0  0  0  0  0  0  0
  -25.2000  -13.8710   20.5110 C   0  0  0  0  0  0  0  0  0  0  0  0
  -24.1450  -13.0920   20.8870 C   0  0  0  0  0  0  0  0  0  0  0  0
  -24.6130  -11.7430   20.8420 C   0  0  0  0  0  0  0  0  0  0  0  0
  -26.2440  -12.9960   20.2570 N   0  0  0  0  0  0  0  0  0  0  0  0
  -25.9020  -11.7120   20.5230 N   0  0  0  0  0  0  0  0  0  0  0  0
  -23.8940  -10.4790   21.0250 C   0  0  0  0  0  0  0  0  0  0  0  0
  -24.3200   -9.5160   21.9660 C   0  0  0  0  0  3  0  0  0  0  0  0
  -23.5980   -8.3160   22.1370 C   0  0  0  0  0  3  0  0  0  0  0  0
  -22.4370   -8.0700   21.3670 C   0  0  0  0  0  0  0  0  0  0  0  0
  -22.0310   -9.0210   20.4150 C   0  0  0  0  0  3  0  0  0  0  0  0
  -22.7530  -10.2130   20.2410 C   0  0  0  0  0  3  0  0  0  0  0  0
  -21.6890   -6.9210   21.4470 O   0  0  0  0  0  0  0  0  0  0  0  0
  -21.6050   -6.1990   22.6110 C   0  0  0  0  0  0  0  0  0  0  0  0
  -21.1140   -6.7670   23.8070 C   0  0  0  0  0  3  0  0  0  0  0  0
  -20.9790   -5.9700   24.9610 C   0  0  0  0  0  3  0  0  0  0  0  0
  -21.3240   -4.6060   24.9200 C   0  0  0  0  0  0  0  0  0  0  0  0
  -21.8090   -4.0380   23.7290 C   0  0  0  0  0  3  0  0  0  0  0  0
  -21.9460   -4.8310   22.5760 C   0  0  0  0  0  0  0  0  0  0  0  0
  -22.3930   -4.2740   21.4250 F   0  0  0  0  0  0  0  0  0  0  0  0
  -21.1870   -3.8370   26.0250 F   0  0  0  0  0  0  0  0  0  0  0  0
  -22.7490  -13.5640   21.1700 C   0  0  0  0  0  0  0  0  0  0  0  0
  -22.0300  -12.8600   22.0370 N   0  0  0  0  0  0  0  0  0  0  0  0
  -22.3060  -14.5920   20.6590 O   0  0  0  0  0  0  0  0  0  0  0  0
  -22.4020  -12.0290   22.4710 H   0  0  0  0  0  0  0  0  0  0  0  0
  -21.0930  -13.1590   22.2710 H   0  0  0  0  0  0  0  0  0  0  0  0
  -25.3470  -15.2430   20.3310 N   0  0  0  0  0  0  0  0  0  0  0  0
  -24.5640  -15.8790   20.4380 H   0  0  0  0  0  0  0  0  0  0  0  0
  -26.1700  -15.6850   19.9470 H   0  0  0  0  0  0  0  0  0  0  0  0
  -29.0320  -23.3370   20.2920 C   0  0  0  0  0  3  0  0  0  0  0  0
  -27.9540  -24.6450   20.2310 C   0  0  0  0  0  3  0  0  0  0  0  0
  -28.2370  -26.1870   20.2540 O   0  0  0  0  0  0  0  0  0  0  0  0
  -24.6210  -31.8990   23.2420 C   0  0  0  0  0  0  0  0  0  0  0  0
  -27.1770  -27.1720   20.2040 C   0  0  0  0  0  0  0  0  0  0  0  0
  -23.4110  -30.5070   21.6090 C   0  0  0  0  0  3  0  0  0  0  0  0
  -24.8500  -28.9270   20.1800 C   0  0  0  0  0  0  0  0  0  0  0  0
  -25.9650  -30.7640   21.4330 C   0  0  0  0  0  2  0  0  0  0  0  0
  -26.0340  -29.3710   20.7810 C   0  0  0  0  0  0  0  0  0  0  0  0
  -27.1990  -28.5120   20.7720 C   0  0  0  0  0  3  0  0  0  0  0  0
  -25.9620  -26.8320   19.5670 C   0  0  0  0  0  3  0  0  0  0  0  0
  -24.8280  -27.6710   19.5570 C   0  0  0  0  0  3  0  0  0  0  0  0
  -23.6250  -29.8270   20.2300 C   0  0  0  0  0  2  0  0  0  0  0  0
  -24.6860  -31.0780   22.1500 N   0  0  0  0  0  0  0  0  0  0  0  0
  -23.5370  -32.1860   23.7740 O   0  0  0  0  0  0  0  0  0  0  0  0
  -22.7320  -29.5010   22.5730 C   0  0  0  0  0  0  0  0  0  0  0  0
  -21.4030  -29.3330   22.4480 N   0  0  0  0  0  0  0  0  0  0  0  0
  -23.4030  -28.8750   23.3970 O   0  0  0  0  0  0  0  0  0  0  0  0
  -20.9180  -29.8870   21.7570 H   0  0  0  0  0  0  0  0  0  0  0  0
  -18.0200  -28.1410   22.9630 C   0  0  0  0  0  0  0  0  0  0  0  0
  -20.5800  -28.3980   23.2220 C   0  0  0  0  0  3  0  0  0  0  0  0
  -20.6770  -26.9650   22.6490 C   0  0  0  0  0  2  0  0  0  0  0  0
  -19.5720  -26.6430   21.6390 C   0  0  0  0  0  2  0  0  0  0  0  0
  -18.1940  -26.7900   22.2890 C   0  0  0  0  0  2  0  0  0  0  0  0
  -19.1410  -28.9020   23.3870 C   0  0  0  0  0  0  0  0  0  0  0  0
  -18.9240  -30.1650   23.9800 C   0  0  0  0  0  3  0  0  0  0  0  0
  -17.6210  -30.6650   24.1530 C   0  0  0  0  0  3  0  0  0  0  0  0
  -16.5140  -29.9020   23.7440 C   0  0  0  0  0  3  0  0  0  0  0  0
  -16.7150  -28.6400   23.1550 C   0  0  0  0  0  3  0  0  0  0  0  0
  -25.9020  -32.5320   23.8640 C   0  0  0  0  0  3  0  0  0  0  0  0
  -26.4180  -31.7590   25.1400 C   0  0  1  0  0  0  0  0  0  0  0  0
  -25.3250  -31.5230   26.2100 C   0  0  0  0  0  1  0  0  0  0  0  0
  -26.9990  -30.3810   24.7510 C   0  0  0  0  0  1  0  0  0  0  0  0
  -27.5700  -32.5510   25.8010 C   0  0  0  0  0  1  0  0  0  0  0  0
  -25.5920  -33.9290   24.2040 N   0  0  0  0  0  0  0  0  0  0  0  0
  -25.9030  -34.9880   23.4440 C   0  0  0  0  0  0  0  0  0  0  0  0
  -26.5460  -34.8900   22.3950 O   0  0  0  0  0  0  0  0  0  0  0  0
  -25.0180  -34.0790   25.0200 H   0  0  0  0  0  0  0  0  0  0  0  0
  -24.1540  -36.7750   23.1540 C   0  0  0  0  0  1  0  0  0  0  0  0
  -25.4260  -36.3740   23.9200 C   0  0  0  0  0  3  0  0  0  0  0  0
  -27.5810  -37.2750   24.6780 C   0  0  0  0  0  1  0  0  0  0  0  0
  -26.4480  -37.4340   23.7700 N   0  0  0  0  0  0  0  0  0  0  0  0
  -26.0420  -38.3520   23.9290 H   0  0  0  0  0  0  0  0  0  0  0  0
  2  1  1  0
  2  4  1  0
  3  2  1  0
  5 17  1  0
  6 11  1  0
  7  8  1  0
  7  6  1  0
  9  8  1  0
  9 21  1  0
  9 10  1  0
 11  5  1  0
 11 10  1  0
 12  5  2  0
 13 14  1  0
 13 16  1  0
 14 17  1  0
 15 16  1  0
 16  2  1  0
 17 15  1  0
 18 19  2  0
 19 38  1  0
 20 19  1  0
 20 23  1  0
 21 18  1  0
 21 22  1  0
 22 20  2  0
 23 24  1  0
 24 25  2  0
 26 29  1  0
 26 25  1  0
 27 26  2  0
 28 27  1  0
 28 23  2  0
 29 30  1  0
 30 31  1  0
 31 32  2  0
 33 32  1  0
 33 37  1  0
 34 33  2  0
 35 30  2  0
 35 34  1  0
 36 35  1  0
 38 39  1  0
 39 42  1  0
 39 41  1  0
 40 38  2  0
 43 44  1  0
 43 18  1  0
 45 43  1  0
 46  1  1  0
 47 48  1  0
 47 46  2  0
 49 60  2  0
 50 48  1  0
 50 55  1  0
 51 59  1  0
 51 61  1  0
 52 58  1  0
 52 54  1  0
 53 59  1  0
 54 53  1  0
 55 54  2  0
 56 50  2  0
 57 56  1  0
 57 52  2  0
 58 51  1  0
 59 49  1  0
 61 63  2  0
 62 61  1  0
 64 62  1  0
 65 74  2  0
 65 70  1  0
 66 62  1  0
 66 70  1  0
 67 66  1  0
 68 69  1  0
 68 67  1  0
 69 65  1  0
 70 71  2  0
 71 72  1  0
 73 72  2  0
 74 73  1  0
 75 49  1  0
 75 80  1  0
 75 76  1  0
 76 79  1  1
 76 77  1  0
 78 76  1  0
 80 83  1  0
 81 85  1  0
 81 80  1  0
 82 81  2  0
 85 84  1  0
 87 85  1  0
 87 88  1  0
 87 86  1  0
M  ISO  4   5 100  17 100  47 101  48 101
M  END
>  <TORSDO>  (88) 
F 19

>  <SCORE>  (88) 
-15.412

>  <name>  (88) 
89

>  <ligand_id>  (88) 
89

>  <original_smiles>  (88) 
[H]c1c([H])c([H])c2c(c1[H])C([H])([H])C([H])([H])C([H])([H])C2([H])N([H])C(=O)C1([H])N(C(=O)C([H])(N([H])C(=O)C([H])(N([H])C([H])([H])[H])C([H])([H])[H])C(C([H])([H])[H])(C([H])([H])[H])C([H])([H])[H])C([H])([H])c2c([H])c(OC([H])([H])C([H])([H])C([H])([H])[N+]([H])([H])C3([H])C([H])([H])N(C(=O)N4C([H])([H])C([H])([H])C([H])([H])C([H])(n5nc(-c6c([H])c([H])c(Oc7c([H])c([H])c(F)c([H])c7F)c([H])c6[H])c(C(=O)N([H])[H])c5N([H])[H])C4([H])[H])C([H])([H])C3([H])[H])c([H])c([H])c2C1([H])[H]

>  <smiles>  (88) 
[H]c1c([H])c([H])c2c(c1[H])C([H])([H])C([H])([H])C([H])([H])C2([H])N([H])C(=O)C1([H])N(C(=O)C([H])(N([H])C(=O)C([H])(N([H])C([H])([H])[H])C([H])([H])[H])C(C([H])([H])[H])(C([H])([H])[H])C([H])([H])[H])C([H])([H])c2c([H])c(OC([H])([H])C([H])([H])C([H])([H])[N+]([H])([H])C3([H])C([H])([H])N(C(=O)N4C([H])([H])C([H])([H])C([H])([H])C([H])(n5nc(-c6c([H])c([H])c(Oc7c([H])c([H])c(F)c([H])c7F)c([H])c6[H])c(C(=O)N([H])[H])c5N([H])[H])C4([H])[H])C([H])([H])C3([H])[H])c([H])c([H])c2C1([H])[H]

$$$$
90:0:0
     RDKit          3D

 92100  0  0  1  0  0  0  0  0999 V2000
  -29.7870  -22.2450   19.7080 C   0  0  0  0  0  2  0  0  0  0  0  0
  -30.0980  -23.2810   20.7300 N   0  0  0  0  0  4  0  0  0  0  0  0
  -31.0720  -23.1600   20.9650 H   0  0  0  0  0  0  0  0  0  0  0  0
  -29.5720  -23.1010   21.5710 H   0  0  0  0  0  0  0  0  0  0  0  0
  -29.9510  -24.7160   20.3370 C   0  0  0  0  0  2  0  0  0  0  0  0
  -28.5000  -25.2330   20.1720 C   0  0  0  0  0  2  0  0  0  0  0  0
  -28.5210  -26.6710   20.1650 O   0  0  0  0  0  0  0  0  0  0  0  0
  -24.6540  -31.8160   23.2150 C   0  0  0  0  0  0  0  0  0  0  0  0
  -27.3170  -27.3500   20.1740 C   0  0  0  0  0  0  0  0  0  0  0  0
  -23.4430  -30.3700   21.6150 C   0  0  0  0  0  3  0  0  0  0  0  0
  -24.8950  -28.8230   20.1990 C   0  0  0  0  0  0  0  0  0  0  0  0
  -25.9590  -30.7590   21.3710 C   0  0  0  0  0  2  0  0  0  0  0  0
  -26.0550  -29.3760   20.7560 C   0  0  0  0  0  0  0  0  0  0  0  0
  -27.2660  -28.6490   20.7350 C   0  0  0  0  0  3  0  0  0  0  0  0
  -26.1340  -26.8080   19.6200 C   0  0  0  0  0  3  0  0  0  0  0  0
  -24.9300  -27.5380   19.6300 C   0  0  0  0  0  3  0  0  0  0  0  0
  -23.6410  -29.6670   20.2450 C   0  0  0  0  0  2  0  0  0  0  0  0
  -24.7050  -30.9960   22.1260 N   0  0  0  0  0  0  0  0  0  0  0  0
  -23.5770  -32.0840   23.7650 O   0  0  0  0  0  0  0  0  0  0  0  0
  -22.8180  -29.3590   22.6030 C   0  0  0  0  0  0  0  0  0  0  0  0
  -21.4940  -29.1560   22.4940 N   0  0  0  0  0  0  0  0  0  0  0  0
  -23.5180  -28.7580   23.4210 O   0  0  0  0  0  0  0  0  0  0  0  0
  -20.9870  -29.6950   21.8060 H   0  0  0  0  0  0  0  0  0  0  0  0
  -18.1450  -27.9150   23.0360 C   0  0  0  0  0  0  0  0  0  0  0  0
  -20.6980  -28.2210   23.2890 C   0  0  0  0  0  3  0  0  0  0  0  0
  -20.8230  -26.7800   22.7430 C   0  0  0  0  0  2  0  0  0  0  0  0
  -19.7220  -26.4180   21.7410 C   0  0  0  0  0  2  0  0  0  0  0  0
  -18.3420  -26.5530   22.3900 C   0  0  0  0  0  2  0  0  0  0  0  0
  -19.2530  -28.7040   23.4430 C   0  0  0  0  0  0  0  0  0  0  0  0
  -19.0160  -29.9770   24.0050 C   0  0  0  0  0  3  0  0  0  0  0  0
  -17.7040  -30.4600   24.1680 C   0  0  0  0  0  3  0  0  0  0  0  0
  -16.6110  -29.6690   23.7760 C   0  0  0  0  0  3  0  0  0  0  0  0
  -16.8320  -28.3970   23.2150 C   0  0  0  0  0  3  0  0  0  0  0  0
  -25.9400  -32.4720   23.8070 C   0  0  0  0  0  3  0  0  0  0  0  0
  -25.6120  -33.8640   24.1430 N   0  0  0  0  0  0  0  0  0  0  0  0
  -25.9060  -34.9230   23.3760 C   0  0  0  0  0  0  0  0  0  0  0  0
  -26.5560  -34.8320   22.3300 O   0  0  0  0  0  0  0  0  0  0  0  0
  -25.0310  -34.0080   24.9560 H   0  0  0  0  0  0  0  0  0  0  0  0
  -24.1280  -36.6730   23.0620 C   0  0  0  0  0  1  0  0  0  0  0  0
  -25.4000  -36.3010   23.8410 C   0  0  0  0  0  3  0  0  0  0  0  0
  -27.5380  -37.2320   24.6080 C   0  0  0  0  0  1  0  0  0  0  0  0
  -26.4050  -37.3770   23.6980 N   0  0  0  0  0  0  0  0  0  0  0  0
  -25.9820  -38.2880   23.8580 H   0  0  0  0  0  0  0  0  0  0  0  0
  -26.5030  -31.7110   25.0680 C   0  0  1  0  0  0  0  0  0  0  0  0
  -25.4420  -31.4490   26.1620 C   0  0  0  0  0  1  0  0  0  0  0  0
  -27.1040  -30.3460   24.6560 C   0  0  0  0  0  1  0  0  0  0  0  0
  -27.6530  -32.5260   25.7050 C   0  0  0  0  0  1  0  0  0  0  0  0
  -30.6910  -20.9780   19.8120 C   0  0  0  0  0  2  0  0  0  0  0  0
  -30.8220  -18.9770   21.4610 C   0  0  0  0  0  0  0  0  0  0  0  0
  -30.6830  -20.2920   21.1740 C   0  0  0  0  0  3  0  0  0  0  0  0
  -30.7240  -18.4330   22.8590 C   0  0  0  0  0  2  0  0  0  0  0  0
  -30.9880  -17.7760   20.5410 C   0  0  0  0  0  2  0  0  0  0  0  0
  -29.9850  -17.1030   22.6970 C   0  0  0  0  0  2  0  0  0  0  0  0
  -30.1300  -16.6740   21.2160 C   0  0  0  0  0  3  0  0  0  0  0  0
  -31.0630  -14.5290   20.1520 C   0  0  0  0  0  0  0  0  0  0  0  0
  -30.6700  -12.5030   18.7780 C   0  0  0  0  0  2  0  0  0  0  0  0
  -29.6120  -12.8100   17.6960 C   0  0  0  0  0  2  0  0  0  0  0  0
  -28.1790  -12.6460   18.2420 C   0  0  0  0  0  2  0  0  0  0  0  0
  -27.9770  -13.3700   19.5980 C   0  0  0  0  0  3  0  0  0  0  0  0
  -29.1130  -12.9900   20.5730 C   0  0  0  0  0  2  0  0  0  0  0  0
  -30.4030  -13.3530   19.9490 N   0  0  0  0  0  0  0  0  0  0  0  0
  -32.0200  -14.9000   19.4640 O   0  0  0  0  0  0  0  0  0  0  0  0
  -30.5490  -15.2620   21.1540 N   0  0  0  0  0  0  0  0  0  0  0  0
  -29.9770  -14.6800   21.7480 H   0  0  0  0  0  0  0  0  0  0  0  0
  -25.6580  -13.9710   20.5530 C   0  0  0  0  0  0  0  0  0  0  0  0
  -24.6030  -13.1920   20.9490 C   0  0  0  0  0  0  0  0  0  0  0  0
  -25.0200  -11.8390   20.7610 C   0  0  0  0  0  0  0  0  0  0  0  0
  -26.6570  -13.0900   20.1610 N   0  0  0  0  0  0  0  0  0  0  0  0
  -26.2770  -11.7990   20.3380 N   0  0  0  0  0  0  0  0  0  0  0  0
  -24.2780  -10.5790   20.9070 C   0  0  0  0  0  0  0  0  0  0  0  0
  -24.7460   -9.5400   21.7400 C   0  0  0  0  0  3  0  0  0  0  0  0
  -24.0070   -8.3450   21.8780 C   0  0  0  0  0  3  0  0  0  0  0  0
  -22.7860   -8.1830   21.1820 C   0  0  0  0  0  0  0  0  0  0  0  0
  -22.3350   -9.2120   20.3360 C   0  0  0  0  0  3  0  0  0  0  0  0
  -23.0750  -10.3990   20.1960 C   0  0  0  0  0  3  0  0  0  0  0  0
  -22.0140   -7.0470   21.2330 O   0  0  0  0  0  0  0  0  0  0  0  0
  -21.9910   -6.2430   22.3440 C   0  0  0  0  0  0  0  0  0  0  0  0
  -21.6420   -6.7420   23.6190 C   0  0  0  0  0  3  0  0  0  0  0  0
  -21.5640   -5.8660   24.7200 C   0  0  0  0  0  3  0  0  0  0  0  0
  -21.8250   -4.4940   24.5490 C   0  0  0  0  0  0  0  0  0  0  0  0
  -22.1670   -3.9950   23.2790 C   0  0  0  0  0  3  0  0  0  0  0  0
  -22.2460   -4.8670   22.1800 C   0  0  0  0  0  0  0  0  0  0  0  0
  -22.5560   -4.3770   20.9560 F   0  0  0  0  0  0  0  0  0  0  0  0
  -21.7420   -3.6510   25.6050 F   0  0  0  0  0  0  0  0  0  0  0  0
  -23.2490  -13.6720   21.3860 C   0  0  0  0  0  0  0  0  0  0  0  0
  -22.5890  -12.9260   22.2650 N   0  0  0  0  0  0  0  0  0  0  0  0
  -22.7880  -14.7400   20.9850 O   0  0  0  0  0  0  0  0  0  0  0  0
  -22.9760  -12.0600   22.6100 H   0  0  0  0  0  0  0  0  0  0  0  0
  -21.6840  -13.2260   22.6010 H   0  0  0  0  0  0  0  0  0  0  0  0
  -25.8470  -15.3470   20.4780 N   0  0  0  0  0  0  0  0  0  0  0  0
  -25.1140  -16.0100   20.7070 H   0  0  0  0  0  0  0  0  0  0  0  0
  -26.6830  -15.7890   20.1160 H   0  0  0  0  0  0  0  0  0  0  0  0
  1 48  1  0
  1  2  1  0
  2  3  1  0
  2  4  1  0
  5  2  1  0
  6  5  1  0
  7  6  1  0
  7  9  1  0
  8 19  2  0
  9 14  1  0
 10 18  1  0
 10 20  1  0
 11 17  1  0
 11 13  1  0
 12 18  1  0
 13 12  1  0
 14 13  2  0
 15 16  1  0
 15  9  2  0
 16 11  2  0
 17 10  1  0
 18  8  1  0
 20 22  2  0
 21 20  1  0
 23 21  1  0
 24 33  2  0
 24 29  1  0
 25 21  1  0
 25 29  1  0
 26 25  1  0
 27 28  1  0
 27 26  1  0
 28 24  1  0
 29 30  2  0
 30 31  1  0
 32 31  2  0
 33 32  1  0
 34  8  1  0
 34 35  1  0
 34 44  1  0
 35 38  1  0
 36 40  1  0
 36 35  1  0
 37 36  2  0
 40 39  1  0
 42 40  1  0
 42 43  1  0
 42 41  1  0
 44 47  1  1
 44 45  1  0
 46 44  1  0
 48 50  1  0
 49 51  1  0
 50 49  2  0
 52 54  1  0
 52 49  1  0
 53 51  1  0
 54 63  1  0
 54 53  1  0
 55 63  1  0
 56 61  1  0
 57 58  1  0
 57 56  1  0
 59 58  1  0
 59 68  1  0
 59 60  1  0
 61 55  1  0
 61 60  1  0
 62 55  2  0
 63 64  1  0
 65 66  2  0
 66 85  1  0
 67 70  1  0
 67 66  1  0
 68 69  1  0
 68 65  1  0
 69 67  2  0
 70 71  1  0
 71 72  2  0
 73 76  1  0
 73 72  1  0
 74 73  2  0
 75 74  1  0
 75 70  2  0
 76 77  1  0
 77 78  1  0
 78 79  2  0
 80 79  1  0
 80 84  1  0
 81 80  2  0
 82 77  2  0
 82 81  1  0
 83 82  1  0
 85 86  1  0
 86 89  1  0
 86 88  1  0
 87 85  2  0
 90 65  1  0
 90 91  1  0
 92 90  1  0
M  ISO  4   6 101   7 101  55 100  63 100
M  END
>  <TORSDO>  (89) 
F 21

>  <SCORE>  (89) 
-11.656

>  <name>  (89) 
90

>  <ligand_id>  (89) 
90

>  <original_smiles>  (89) 
[H]C(=C1C([H])([H])C([H])([H])C([H])(N([H])C(=O)N2C([H])([H])C([H])([H])C([H])([H])C([H])(n3nc(-c4c([H])c([H])c(Oc5c([H])c([H])c(F)c([H])c5F)c([H])c4[H])c(C(=O)N([H])[H])c3N([H])[H])C2([H])[H])C1([H])[H])C([H])([H])C([H])([H])[N+]([H])([H])C([H])([H])C([H])([H])Oc1c([H])c([H])c2c(c1[H])C([H])([H])N(C(=O)C([H])(N([H])C(=O)C([H])(N([H])C([H])([H])[H])C([H])([H])[H])C(C([H])([H])[H])(C([H])([H])[H])C([H])([H])[H])C([H])(C(=O)N([H])C1([H])c3c([H])c([H])c([H])c([H])c3C([H])([H])C([H])([H])C1([H])[H])C2([H])[H]

>  <smiles>  (89) 
[H]C(=C1C([H])([H])C([H])([H])C([H])(N([H])C(=O)N2C([H])([H])C([H])([H])C([H])([H])C([H])(n3nc(-c4c([H])c([H])c(Oc5c([H])c([H])c(F)c([H])c5F)c([H])c4[H])c(C(=O)N([H])[H])c3N([H])[H])C2([H])[H])C1([H])[H])C([H])([H])C([H])([H])[N+]([H])([H])C([H])([H])C([H])([H])Oc1c([H])c([H])c2c(c1[H])C([H])([H])N(C(=O)C([H])(N([H])C(=O)C([H])(N([H])C([H])([H])[H])C([H])([H])[H])C(C([H])([H])[H])(C([H])([H])[H])C([H])([H])[H])C([H])(C(=O)N([H])C1([H])c3c([H])c([H])c([H])c([H])c3C([H])([H])C([H])([H])C1([H])[H])C2([H])[H]

$$$$
91:0:0
     RDKit          3D

 92 99  0  0  1  0  0  0  0  0999 V2000
  -31.2560  -16.4630   20.8020 C   0  0  0  0  0  0  0  0  0  0  0  0
  -31.2550  -13.9110   19.9370 C   0  0  0  0  0  2  0  0  0  0  0  0
  -30.4990  -13.4940   18.6430 C   0  0  0  0  0  2  0  0  0  0  0  0
  -29.0310  -13.1830   18.9530 C   0  0  0  0  0  2  0  0  0  0  0  0
  -28.4410  -14.2310   19.9210 C   0  0  0  0  0  3  0  0  0  0  0  0
  -29.3500  -14.5610   21.1300 C   0  0  0  0  0  2  0  0  0  0  0  0
  -30.6030  -15.1540   20.5830 N   0  0  0  0  0  0  0  0  0  0  0  0
  -32.4740  -16.1920   20.8910 O   0  0  0  0  0  0  0  0  0  0  0  0
  -31.5210  -19.3960   21.1380 C   0  0  0  0  0  2  0  0  0  0  0  0
  -29.6390  -19.1040   20.4870 C   0  0  0  0  0  3  0  0  0  0  0  0
  -30.4890  -20.6210   20.5310 C   0  0  0  0  0  2  0  0  0  0  0  0
  -30.8080  -18.0060   20.7590 N   0  0  0  0  0  0  0  0  0  0  0  0
  -28.2340  -17.3410   17.3580 C   0  0  0  0  0  3  0  0  0  0  0  0
  -28.9950  -17.5970   18.5060 C   0  0  0  0  0  3  0  0  0  0  0  0
  -27.3640  -18.3360   16.9000 C   0  0  0  0  0  3  0  0  0  0  0  0
  -28.8510  -18.8300   19.1900 C   0  0  0  0  0  0  0  0  0  0  0  0
  -27.9720  -19.7860   18.6180 C   0  0  0  0  0  0  0  0  0  0  0  0
  -27.2460  -19.5340   17.5060 N   0  0  0  0  0  0  0  0  0  0  0  0
  -27.2320  -22.1440   18.3990 C   0  0  0  0  0  1  0  0  0  0  0  0
  -27.8210  -21.0590   19.1830 N   0  0  0  0  0  0  0  0  0  0  0  0
  -28.4080  -21.3080   19.9720 H   0  0  0  0  0  0  0  0  0  0  0  0
  -26.0390  -14.8920   20.3930 C   0  0  0  0  0  0  0  0  0  0  0  0
  -24.9040  -14.1730   20.6250 C   0  0  0  0  0  0  0  0  0  0  0  0
  -25.3030  -12.8000   20.6700 C   0  0  0  0  0  0  0  0  0  0  0  0
  -27.0590  -13.9650   20.2870 N   0  0  0  0  0  0  0  0  0  0  0  0
  -26.6210  -12.7000   20.5250 N   0  0  0  0  0  0  0  0  0  0  0  0
  -24.4910  -11.5800   20.7780 C   0  0  0  0  0  0  0  0  0  0  0  0
  -24.8190  -10.5500   21.6870 C   0  0  0  0  0  3  0  0  0  0  0  0
  -24.0040   -9.4010   21.7920 C   0  0  0  0  0  3  0  0  0  0  0  0
  -22.8470   -9.2750   20.9860 C   0  0  0  0  0  0  0  0  0  0  0  0
  -22.5370  -10.2940   20.0680 C   0  0  0  0  0  3  0  0  0  0  0  0
  -23.3520  -11.4340   19.9600 C   0  0  0  0  0  3  0  0  0  0  0  0
  -22.0140   -8.1820   21.0000 O   0  0  0  0  0  0  0  0  0  0  0  0
  -21.9200   -7.3620   22.0960 C   0  0  0  0  0  0  0  0  0  0  0  0
  -21.6060   -7.8630   23.3790 C   0  0  0  0  0  3  0  0  0  0  0  0
  -21.4470   -6.9780   24.4610 C   0  0  0  0  0  3  0  0  0  0  0  0
  -21.5950   -5.5900   24.2670 C   0  0  0  0  0  0  0  0  0  0  0  0
  -21.9080   -5.0890   22.9910 C   0  0  0  0  0  3  0  0  0  0  0  0
  -22.0660   -5.9720   21.9090 C   0  0  0  0  0  0  0  0  0  0  0  0
  -22.3420   -5.4800   20.6780 F   0  0  0  0  0  0  0  0  0  0  0  0
  -21.4390   -4.7400   25.3080 F   0  0  0  0  0  0  0  0  0  0  0  0
  -23.5110  -14.7250   20.6910 C   0  0  0  0  0  0  0  0  0  0  0  0
  -22.6510  -14.1270   21.5080 N   0  0  0  0  0  0  0  0  0  0  0  0
  -23.1930  -15.7320   20.0590 O   0  0  0  0  0  0  0  0  0  0  0  0
  -22.9210  -13.3200   22.0490 H   0  0  0  0  0  0  0  0  0  0  0  0
  -21.7090  -14.4860   21.5960 H   0  0  0  0  0  0  0  0  0  0  0  0
  -26.2930  -16.2520   20.2290 N   0  0  0  0  0  0  0  0  0  0  0  0
  -25.5470  -16.9410   20.2400 H   0  0  0  0  0  0  0  0  0  0  0  0
  -27.1990  -16.6520   20.0180 H   0  0  0  0  0  0  0  0  0  0  0  0
  -30.2330  -22.5510   21.0660 C   0  0  0  0  0 15  0  0  0  0  0  0
  -29.4670  -24.3360   20.5710 C   0  0  0  0  0  1  0  0  0  0  0  0
  -29.2340  -26.0520   21.1210 O   0  0  0  0  0  0  0  0  0  0  0  0
  -25.0550  -32.1910   23.6730 C   0  0  0  0  0  0  0  0  0  0  0  0
  -28.2100  -27.2440   20.9360 C   0  0  0  0  0  0  0  0  0  0  0  0
  -24.1400  -30.7310   21.9210 C   0  0  0  0  0  3  0  0  0  0  0  0
  -25.8300  -29.1790   20.6580 C   0  0  0  0  0  0  0  0  0  0  0  0
  -26.7070  -31.0170   22.0750 C   0  0  0  0  0  2  0  0  0  0  0  0
  -26.9300  -29.5890   21.4200 C   0  0  0  0  0  0  0  0  0  0  0  0
  -28.0990  -28.6510   21.5240 C   0  0  0  0  0  3  0  0  0  0  0  0
  -27.0690  -27.0680   20.1080 C   0  0  0  0  0  3  0  0  0  0  0  0
  -25.9480  -27.9500   19.9810 C   0  0  0  0  0  3  0  0  0  0  0  0
  -24.5660  -30.0570   20.5810 C   0  0  0  0  0  2  0  0  0  0  0  0
  -25.3180  -31.3480   22.6100 N   0  0  0  0  0  0  0  0  0  0  0  0
  -23.8950  -32.4180   24.0600 O   0  0  0  0  0  0  0  0  0  0  0  0
  -23.3830  -29.7060   22.8120 C   0  0  0  0  0  0  0  0  0  0  0  0
  -22.0970  -29.4360   22.5160 N   0  0  0  0  0  0  0  0  0  0  0  0
  -23.9700  -29.1560   23.7450 O   0  0  0  0  0  0  0  0  0  0  0  0
  -21.6670  -29.9330   21.7500 H   0  0  0  0  0  0  0  0  0  0  0  0
  -18.7610  -27.9920   22.6790 C   0  0  0  0  0  0  0  0  0  0  0  0
  -21.2600  -28.4340   23.1930 C   0  0  0  0  0  3  0  0  0  0  0  0
  -21.5140  -27.0200   22.6200 C   0  0  0  0  0  2  0  0  0  0  0  0
  -20.5450  -26.6380   21.4980 C   0  0  0  0  0  2  0  0  0  0  0  0
  -19.1000  -26.6730   22.0060 C   0  0  0  0  0  2  0  0  0  0  0  0
  -19.7760  -28.8270   23.2230 C   0  0  0  0  0  0  0  0  0  0  0  0
  -19.4070  -30.0520   23.8160 C   0  0  0  0  0  3  0  0  0  0  0  0
  -18.0570  -30.4520   23.8690 C   0  0  0  0  0  3  0  0  0  0  0  0
  -17.0570  -29.6160   23.3410 C   0  0  0  0  0  3  0  0  0  0  0  0
  -17.4080  -28.3870   22.7550 C   0  0  0  0  0  3  0  0  0  0  0  0
  -26.1930  -32.9230   24.4460 C   0  0  0  0  0  3  0  0  0  0  0  0
  -26.5880  -32.1990   25.7930 C   0  0  1  0  0  0  0  0  0  0  0  0
  -25.3720  -31.7590   26.6440 C   0  0  0  0  0  1  0  0  0  0  0  0
  -27.4390  -30.9400   25.5180 C   0  0  0  0  0  1  0  0  0  0  0  0
  -27.4650  -33.1380   26.6550 C   0  0  0  0  0  1  0  0  0  0  0  0
  -25.7480  -34.3030   24.7350 N   0  0  0  0  0  0  0  0  0  0  0  0
  -26.0220  -35.3780   23.9830 C   0  0  0  0  0  0  0  0  0  0  0  0
  -26.7300  -35.3190   22.9760 O   0  0  0  0  0  0  0  0  0  0  0  0
  -25.1110  -34.4150   25.5100 H   0  0  0  0  0  0  0  0  0  0  0  0
  -24.1580  -37.0300   23.5870 C   0  0  0  0  0  1  0  0  0  0  0  0
  -25.4210  -36.7350   24.4140 C   0  0  0  0  0  3  0  0  0  0  0  0
  -27.4720  -37.8050   25.2430 C   0  0  0  0  0  1  0  0  0  0  0  0
  -26.3660  -37.8680   24.2920 N   0  0  0  0  0  0  0  0  0  0  0  0
  -25.8840  -38.7530   24.4230 H   0  0  0  0  0  0  0  0  0  0  0  0
  1  8  2  0
  2  7  1  0
  3  4  1  0
  3  2  1  0
  5  4  1  0
  5 25  1  0
  5  6  1  0
  7  1  1  0
  7  6  1  0
 10 16  1  0
 10 11  1  0
 10 12  1  0
 11  9  1  0
 12  1  1  0
 12  9  1  0
 13 14  1  0
 14 16  2  0
 15 13  2  0
 15 18  1  0
 17 20  1  0
 17 16  1  0
 18 17  2  0
 19 20  1  0
 20 21  1  0
 22 23  2  0
 23 24  1  0
 23 42  1  0
 24 27  1  0
 25 22  1  0
 25 26  1  0
 26 24  2  0
 27 28  1  0
 28 29  2  0
 30 33  1  0
 30 29  1  0
 31 30  2  0
 32 31  1  0
 32 27  2  0
 33 34  1  0
 34 35  1  0
 35 36  2  0
 37 36  1  0
 37 41  1  0
 38 37  2  0
 39 34  2  0
 39 38  1  0
 40 39  1  0
 42 43  1  0
 43 46  1  0
 43 45  1  0
 44 42  2  0
 47 48  1  0
 47 22  1  0
 49 47  1  0
 51 52  1  0
 53 64  2  0
 54 52  1  0
 54 59  1  0
 55 63  1  0
 55 65  1  0
 56 58  1  0
 57 63  1  0
 58 59  2  0
 58 57  1  0
 60 54  2  0
 61 60  1  0
 61 56  2  0
 62 56  1  0
 62 55  1  0
 63 53  1  0
 65 67  2  0
 66 65  1  0
 68 66  1  0
 69 78  2  0
 69 74  1  0
 70 66  1  0
 70 74  1  0
 71 70  1  0
 72 73  1  0
 72 71  1  0
 73 69  1  0
 74 75  2  0
 75 76  1  0
 77 76  2  0
 78 77  1  0
 79 53  1  0
 79 84  1  0
 79 80  1  0
 80 81  1  1
 80 83  1  0
 82 80  1  0
 84 87  1  0
 85 89  1  0
 85 84  1  0
 86 85  2  0
 89 88  1  0
 91 89  1  0
 91 92  1  0
 91 90  1  0
M  ISO  4   1 100  12 100  51 101  52 101
M  END
>  <TORSDO>  (90) 
F 19

>  <SCORE>  (90) 
-10.333

>  <name>  (90) 
91

>  <ligand_id>  (90) 
91

>  <original_smiles>  (90) 
[H]c1nc(N([H])C([H])([H])[H])c(C2([H])N(C(=O)N3C([H])([H])C([H])([H])C([H])([H])C([H])(n4nc(-c5c([H])c([H])c(Oc6c([H])c([H])c(F)c([H])c6F)c([H])c5[H])c(C(=O)N([H])[H])c4N([H])[H])C3([H])[H])C([H])([H])C2([H])C([H])([H])C([H])([H])Oc2c([H])c([H])c3c(c2[H])C([H])([H])N(C(=O)C([H])(N([H])C(=O)C([H])(N([H])C([H])([H])[H])C([H])([H])[H])C(C([H])([H])[H])(C([H])([H])[H])C([H])([H])[H])C([H])(C(=O)N([H])C2([H])c4c([H])c([H])c([H])c([H])c4C([H])([H])C([H])([H])C2([H])[H])C3([H])[H])c([H])c1[H]

>  <smiles>  (90) 
[H]c1nc(N([H])C([H])([H])[H])c(C2([H])N(C(=O)N3C([H])([H])C([H])([H])C([H])([H])C([H])(n4nc(-c5c([H])c([H])c(Oc6c([H])c([H])c(F)c([H])c6F)c([H])c5[H])c(C(=O)N([H])[H])c4N([H])[H])C3([H])[H])C([H])([H])C2([H])C([H])([H])C([H])([H])Oc2c([H])c([H])c3c(c2[H])C([H])([H])N(C(=O)C([H])(N([H])C(=O)C([H])(N([H])C([H])([H])[H])C([H])([H])[H])C(C([H])([H])[H])(C([H])([H])[H])C([H])([H])[H])C([H])(C(=O)N([H])C2([H])c4c([H])c([H])c([H])c([H])c4C([H])([H])C([H])([H])C2([H])[H])C3([H])[H])c([H])c1[H]

$$$$
92:0:0
     RDKit          3D

 90 99  0  0  1  0  0  0  0  0999 V2000
  -30.5880  -15.2070   19.6120 C   0  0  0  0  0  0  0  0  0  0  0  0
  -30.9900  -12.5300   19.6950 C   0  0  0  0  0  2  0  0  0  0  0  0
  -30.3320  -11.5900   18.6450 C   0  0  0  0  0  2  0  0  0  0  0  0
  -28.9030  -11.2110   19.0620 C   0  0  0  0  0  2  0  0  0  0  0  0
  -28.1620  -12.4340   19.6520 C   0  0  0  0  0  3  0  0  0  0  0  0
  -28.9950  -13.2740   20.6520 C   0  0  0  0  0  2  0  0  0  0  0  0
  -30.1550  -13.8170   19.8940 N   0  0  0  0  0  0  0  0  0  0  0  0
  -31.8370  -15.1570   19.6920 O   0  0  0  0  0  0  0  0  0  0  0  0
  -29.1470  -19.3040   17.7130 C   0  0  0  0  0  0  0  0  0  0  0  0
  -28.7150  -20.6970   17.0900 C   0  0  0  0  0  0  0  0  0  0  0  0
  -29.9910  -18.3080   16.8870 C   0  0  0  0  0  2  0  0  0  0  0  0
  -30.6030  -17.0080   17.6620 C   0  0  0  0  0  2  0  0  0  0  0  0
  -29.1650  -18.0400   18.9990 C   0  0  0  0  0  3  0  0  0  0  0  0
  -29.9000  -16.4620   18.8770 N   0  0  0  0  0  0  0  0  0  0  0  0
  -25.1260  -17.6680   20.5550 C   0  0  0  0  0  3  0  0  0  0  0  0
  -26.2100  -17.8050   21.4450 C   0  0  0  0  0  3  0  0  0  0  0  0
  -25.3590  -17.6350   19.1660 C   0  0  0  0  0  3  0  0  0  0  0  0
  -27.5240  -17.9170   20.9480 C   0  0  0  0  0  3  0  0  0  0  0  0
  -26.6720  -17.7400   18.6680 C   0  0  0  0  0  3  0  0  0  0  0  0
  -27.7590  -17.8900   19.5550 C   0  0  0  0  0  0  0  0  0  0  0  0
  -25.7710  -12.9970   20.2630 C   0  0  0  0  0  0  0  0  0  0  0  0
  -24.6960  -12.2410   20.6310 C   0  0  0  0  0  0  0  0  0  0  0  0
  -25.1700  -10.8960   20.7240 C   0  0  0  0  0  0  0  0  0  0  0  0
  -26.8270  -12.1170   20.1360 N   0  0  0  0  0  0  0  0  0  0  0  0
  -26.4780  -10.8490   20.4830 N   0  0  0  0  0  0  0  0  0  0  0  0
  -24.4320   -9.6480   20.9670 C   0  0  0  0  0  0  0  0  0  0  0  0
  -24.8740   -8.7010   21.9160 C   0  0  0  0  0  3  0  0  0  0  0  0
  -24.1330   -7.5230   22.1510 C   0  0  0  0  0  3  0  0  0  0  0  0
  -22.9360   -7.2820   21.4360 C   0  0  0  0  0  0  0  0  0  0  0  0
  -22.5120   -8.2170   20.4760 C   0  0  0  0  0  3  0  0  0  0  0  0
  -23.2530   -9.3870   20.2400 C   0  0  0  0  0  3  0  0  0  0  0  0
  -22.1650   -6.1530   21.5790 O   0  0  0  0  0  0  0  0  0  0  0  0
  -22.0250   -5.5240   22.7900 C   0  0  0  0  0  0  0  0  0  0  0  0
  -21.5850   -6.2130   23.9410 C   0  0  0  0  0  3  0  0  0  0  0  0
  -21.3880   -5.5140   25.1490 C   0  0  0  0  0  3  0  0  0  0  0  0
  -21.6220   -4.1260   25.2060 C   0  0  0  0  0  0  0  0  0  0  0  0
  -22.0550   -3.4370   24.0590 C   0  0  0  0  0  3  0  0  0  0  0  0
  -22.2540   -4.1350   22.8540 C   0  0  0  0  0  0  0  0  0  0  0  0
  -22.6510   -3.4610   21.7480 F   0  0  0  0  0  0  0  0  0  0  0  0
  -21.4260   -3.4520   26.3640 F   0  0  0  0  0  0  0  0  0  0  0  0
  -23.2860  -12.7320   20.7810 C   0  0  0  0  0  0  0  0  0  0  0  0
  -22.5280  -12.1440   21.6990 N   0  0  0  0  0  0  0  0  0  0  0  0
  -22.8660  -13.6800   20.1170 O   0  0  0  0  0  0  0  0  0  0  0  0
  -22.8810  -11.3840   22.2600 H   0  0  0  0  0  0  0  0  0  0  0  0
  -21.5800  -12.4610   21.8420 H   0  0  0  0  0  0  0  0  0  0  0  0
  -25.9390  -14.3490   19.9910 N   0  0  0  0  0  0  0  0  0  0  0  0
  -25.1810  -15.0170   20.0720 H   0  0  0  0  0  0  0  0  0  0  0  0
  -26.8230  -14.7900   19.7700 H   0  0  0  0  0  0  0  0  0  0  0  0
  -27.7680  -22.3480   17.0050 C   0  0  0  0  0  3  0  0  0  0  0  0
  -28.0580  -24.1170   16.7560 O   0  0  0  0  0  0  0  0  0  0  0  0
  -26.5000  -29.4180   22.3780 C   0  0  0  0  0  0  0  0  0  0  0  0
  -27.4980  -25.4670   17.3620 C   0  0  0  0  0  0  0  0  0  0  0  0
  -25.0170  -29.2190   20.4290 C   0  0  0  0  0  3  0  0  0  0  0  0
  -25.9610  -27.9450   18.3500 C   0  0  0  0  0  0  0  0  0  0  0  0
  -27.5230  -28.6370   20.1430 C   0  0  0  0  0  2  0  0  0  0  0  0
  -27.1830  -27.6390   18.9590 C   0  0  0  0  0  0  0  0  0  0  0  0
  -27.9460  -26.4500   18.4430 C   0  0  0  0  0  3  0  0  0  0  0  0
  -26.3100  -26.0120   16.8000 C   0  0  0  0  0  3  0  0  0  0  0  0
  -25.5750  -27.1550   17.2540 C   0  0  0  0  0  3  0  0  0  0  0  0
  -25.0950  -29.1040   18.8790 C   0  0  0  0  0  2  0  0  0  0  0  0
  -26.3790  -29.0920   21.0430 N   0  0  0  0  0  0  0  0  0  0  0  0
  -25.5230  -29.7790   23.0580 O   0  0  0  0  0  0  0  0  0  0  0  0
  -24.0050  -28.1800   20.9850 C   0  0  0  0  0  0  0  0  0  0  0  0
  -22.7020  -28.5210   21.0280 N   0  0  0  0  0  0  0  0  0  0  0  0
  -24.4050  -27.0720   21.3520 O   0  0  0  0  0  0  0  0  0  0  0  0
  -22.4440  -29.4510   20.7310 H   0  0  0  0  0  0  0  0  0  0  0  0
  -19.1300  -28.3620   21.6920 C   0  0  0  0  0  0  0  0  0  0  0  0
  -21.6020  -27.6370   21.4400 C   0  0  0  0  0  3  0  0  0  0  0  0
  -21.1130  -26.7710   20.2560 C   0  0  0  0  0  2  0  0  0  0  0  0
  -19.9360  -27.3930   19.4980 C   0  0  0  0  0  2  0  0  0  0  0  0
  -18.7430  -27.5990   20.4360 C   0  0  0  0  0  2  0  0  0  0  0  0
  -20.4730  -28.3950   22.1540 C   0  0  0  0  0  0  0  0  0  0  0  0
  -20.7790  -29.1420   23.3120 C   0  0  0  0  0  3  0  0  0  0  0  0
  -19.7750  -29.8470   24.0010 C   0  0  0  0  0  3  0  0  0  0  0  0
  -18.4460  -29.8030   23.5450 C   0  0  0  0  0  3  0  0  0  0  0  0
  -18.1250  -29.0580   22.3960 C   0  0  0  0  0  3  0  0  0  0  0  0
  -27.8710  -29.3630   23.1160 C   0  0  0  0  0  3  0  0  0  0  0  0
  -27.7500  -30.1250   24.3760 N   0  0  0  0  0  0  0  0  0  0  0  0
  -28.3320  -31.3060   24.6270 C   0  0  0  0  0  0  0  0  0  0  0  0
  -29.0820  -31.8590   23.8190 O   0  0  0  0  0  0  0  0  0  0  0  0
  -27.1030  -29.7600   25.0600 H   0  0  0  0  0  0  0  0  0  0  0  0
  -27.0290  -33.1230   25.7910 C   0  0  0  0  0  1  0  0  0  0  0  0
  -28.0410  -31.9830   25.9840 C   0  0  0  0  0  3  0  0  0  0  0  0
  -30.1520  -31.4610   27.1300 C   0  0  0  0  0  1  0  0  0  0  0  0
  -29.2500  -32.5080   26.6570 N   0  0  0  0  0  0  0  0  0  0  0  0
  -28.9960  -33.0890   27.4510 H   0  0  0  0  0  0  0  0  0  0  0  0
  -28.3410  -27.8890   23.4320 C   0  0  1  0  0  0  0  0  0  0  0  0
  -27.2780  -27.0350   24.1620 C   0  0  0  0  0  1  0  0  0  0  0  0
  -28.7290  -27.1390   22.1400 C   0  0  0  0  0  1  0  0  0  0  0  0
  -29.6130  -27.9220   24.3140 C   0  0  0  0  0  1  0  0  0  0  0  0
  1  8  2  0
  1  7  1  0
  2  7  1  0
  3  4  1  0
  3  2  1  0
  5  4  1  0
  5 24  1  0
  5  6  1  0
  7  6  1  0
  9 13  1  0
 10  9  2  0
 11 12  1  0
 11  9  1  0
 12 14  1  0
 13 20  1  0
 14 13  1  0
 14  1  1  0
 15 16  1  0
 17 15  2  0
 18 16  2  0
 19 17  1  0
 19 20  2  0
 20 18  1  0
 21 22  2  0
 22 23  1  0
 22 41  1  0
 23 26  1  0
 24 21  1  0
 24 25  1  0
 25 23  2  0
 26 27  1  0
 27 28  2  0
 29 32  1  0
 29 28  1  0
 30 29  2  0
 31 30  1  0
 31 26  2  0
 32 33  1  0
 33 38  2  0
 33 34  1  0
 34 35  2  0
 35 36  1  0
 36 40  1  0
 37 36  2  0
 38 37  1  0
 39 38  1  0
 41 42  1  0
 42 45  1  0
 42 44  1  0
 43 41  2  0
 46 47  1  0
 46 21  1  0
 48 46  1  0
 49 10  2  0
 50 49  1  0
 50 52  1  0
 51 62  2  0
 52 57  1  0
 53 63  1  0
 53 61  1  0
 54 60  1  0
 54 56  1  0
 55 61  1  0
 56 55  1  0
 57 56  2  0
 58 59  1  0
 58 52  2  0
 59 54  2  0
 60 53  1  0
 61 51  1  0
 63 64  1  0
 63 65  2  0
 66 64  1  0
 67 72  2  0
 67 76  1  0
 68 64  1  0
 68 72  1  0
 69 68  1  0
 70 69  1  0
 70 71  1  0
 71 67  1  0
 72 73  1  0
 73 74  2  0
 75 74  1  0
 76 75  2  0
 77 51  1  0
 77 87  1  0
 77 78  1  0
 78 79  1  0
 78 81  1  0
 79 83  1  0
 80 79  2  0
 83 82  1  0
 83 85  1  0
 85 84  1  0
 85 86  1  0
 87 88  1  1
 87 90  1  0
 89 87  1  0
M  ISO  4   1 100  14 100  49 101  50 101
M  END
>  <TORSDO>  (91) 
F 17

>  <SCORE>  (91) 
-2.224

>  <name>  (91) 
92

>  <ligand_id>  (91) 
92

>  <original_smiles>  (91) 
[H]C(=C1C([H])(c2c([H])c([H])c([H])c([H])c2[H])N(C(=O)N2C([H])([H])C([H])([H])C([H])([H])C([H])(n3nc(-c4c([H])c([H])c(Oc5c([H])c([H])c(F)c([H])c5F)c([H])c4[H])c(C(=O)N([H])[H])c3N([H])[H])C2([H])[H])C([H])([H])C1([H])[H])C([H])([H])Oc1c([H])c([H])c2c(c1[H])C([H])([H])N(C(=O)C([H])(N([H])C(=O)C([H])(N([H])C([H])([H])[H])C([H])([H])[H])C(C([H])([H])[H])(C([H])([H])[H])C([H])([H])[H])C([H])(C(=O)N([H])C1([H])c3c([H])c([H])c([H])c([H])c3C([H])([H])C([H])([H])C1([H])[H])C2([H])[H]

>  <smiles>  (91) 
[H]C(=C1C([H])(c2c([H])c([H])c([H])c([H])c2[H])N(C(=O)N2C([H])([H])C([H])([H])C([H])([H])C([H])(n3nc(-c4c([H])c([H])c(Oc5c([H])c([H])c(F)c([H])c5F)c([H])c4[H])c(C(=O)N([H])[H])c3N([H])[H])C2([H])[H])C([H])([H])C1([H])[H])C([H])([H])Oc1c([H])c([H])c2c(c1[H])C([H])([H])N(C(=O)C([H])(N([H])C(=O)C([H])(N([H])C([H])([H])[H])C([H])([H])[H])C(C([H])([H])[H])(C([H])([H])[H])C([H])([H])[H])C([H])(C(=O)N([H])C1([H])c3c([H])c([H])c([H])c([H])c3C([H])([H])C([H])([H])C1([H])[H])C2([H])[H]

$$$$
93:0:0
     RDKit          3D

 93102  0  0  1  0  0  0  0  0999 V2000
  -29.3560  -18.6610   20.2580 C   0  0  0  0  0  3  0  0  0  0  0  0
  -31.1550  -17.7770   21.6480 C   0  0  0  0  0  3  0  0  0  0  0  0
  -30.7670  -20.2110   21.4760 C   0  0  0  0  0  0  0  0  0  0  0  0
  -29.6780  -20.0580   20.5640 C   0  0  0  0  0  0  0  0  0  0  0  0
  -31.4490  -19.1030   22.0030 C   0  0  0  0  0  0  0  0  0  0  0  0
  -30.0960  -17.5010   20.7600 C   0  0  0  0  0  0  0  0  0  0  0  0
  -31.4550  -21.4270   21.9900 C   0  0  0  0  0  0  0  0  0  0  0  0
  -32.5370  -19.4820   22.9770 C   0  0  0  0  0  3  0  0  0  0  0  0
  -32.5280  -21.0160   22.9950 C   0  0  0  0  0  3  0  0  0  0  0  0
  -31.2970  -22.6080   21.6790 O   0  0  0  0  0  0  0  0  0  0  0  0
  -30.5920  -14.9550   20.4470 C   0  0  0  0  0  0  0  0  0  0  0  0
  -30.5030  -12.6050   19.5850 C   0  0  0  0  0  2  0  0  0  0  0  0
  -29.6010  -12.5280   18.3350 C   0  0  0  0  0  2  0  0  0  0  0  0
  -28.1250  -12.3330   18.7330 C   0  0  0  0  0  2  0  0  0  0  0  0
  -27.6770  -13.3030   19.8590 C   0  0  0  0  0  3  0  0  0  0  0  0
  -28.6990  -13.3590   21.0130 C   0  0  0  0  0  2  0  0  0  0  0  0
  -29.9970  -13.7130   20.4260 N   0  0  0  0  0  0  0  0  0  0  0  0
  -31.7920  -15.0610   20.1750 O   0  0  0  0  0  0  0  0  0  0  0  0
  -29.7740  -16.0770   20.5050 N   0  0  0  0  0  0  0  0  0  0  0  0
  -28.7900  -15.8680   20.4440 H   0  0  0  0  0  0  0  0  0  0  0  0
  -25.2770  -13.8790   20.5530 C   0  0  0  0  0  0  0  0  0  0  0  0
  -24.2110  -13.0980   20.9120 C   0  0  0  0  0  0  0  0  0  0  0  0
  -24.6840  -11.7500   20.8860 C   0  0  0  0  0  0  0  0  0  0  0  0
  -26.3290  -13.0070   20.3320 N   0  0  0  0  0  0  0  0  0  0  0  0
  -25.9790  -11.7210   20.5940 N   0  0  0  0  0  0  0  0  0  0  0  0
  -23.9630  -10.4830   21.0630 C   0  0  0  0  0  0  0  0  0  0  0  0
  -24.3760   -9.5230   22.0130 C   0  0  0  0  0  3  0  0  0  0  0  0
  -23.6540   -8.3220   22.1780 C   0  0  0  0  0  3  0  0  0  0  0  0
  -22.5050   -8.0700   21.3890 C   0  0  0  0  0  0  0  0  0  0  0  0
  -22.1130   -9.0190   20.4280 C   0  0  0  0  0  3  0  0  0  0  0  0
  -22.8350  -10.2120   20.2630 C   0  0  0  0  0  3  0  0  0  0  0  0
  -21.7580   -6.9200   21.4620 O   0  0  0  0  0  0  0  0  0  0  0  0
  -21.6580   -6.1980   22.6240 C   0  0  0  0  0  0  0  0  0  0  0  0
  -21.1440   -6.7640   23.8120 C   0  0  0  0  0  3  0  0  0  0  0  0
  -20.9950   -5.9670   24.9640 C   0  0  0  0  0  3  0  0  0  0  0  0
  -21.3480   -4.6040   24.9290 C   0  0  0  0  0  0  0  0  0  0  0  0
  -21.8540   -4.0380   23.7460 C   0  0  0  0  0  3  0  0  0  0  0  0
  -22.0050   -4.8320   22.5960 C   0  0  0  0  0  0  0  0  0  0  0  0
  -22.4720   -4.2760   21.4520 F   0  0  0  0  0  0  0  0  0  0  0  0
  -21.1970   -3.8350   26.0330 F   0  0  0  0  0  0  0  0  0  0  0  0
  -22.8070  -13.5660   21.1640 C   0  0  0  0  0  0  0  0  0  0  0  0
  -22.0730  -12.8700   22.0240 N   0  0  0  0  0  0  0  0  0  0  0  0
  -22.3690  -14.5860   20.6320 O   0  0  0  0  0  0  0  0  0  0  0  0
  -22.4370  -12.0440   22.4740 H   0  0  0  0  0  0  0  0  0  0  0  0
  -21.1300  -13.1670   22.2350 H   0  0  0  0  0  0  0  0  0  0  0  0
  -25.4300  -15.2510   20.3730 N   0  0  0  0  0  0  0  0  0  0  0  0
  -24.6440  -15.8880   20.4350 H   0  0  0  0  0  0  0  0  0  0  0  0
  -26.2650  -15.6910   20.0080 H   0  0  0  0  0  0  0  0  0  0  0  0
  -28.9810  -21.2840   19.9090 C   0  0  0  0  0  3  0  0  0  0  0  0
  -28.6790  -22.5550   20.3810 C   0  0  0  0  0  3  0  0  0  0  0  0
  -28.2190  -23.8420   19.5700 C   0  0  0  0  0  2  0  0  0  0  0  0
  -27.6760  -25.1650   20.3230 C   0  0  0  0  0  2  0  0  0  0  0  0
  -27.7970  -26.5180   19.6980 O   0  0  0  0  0  0  0  0  0  0  0  0
  -24.5150  -31.9160   23.2490 C   0  0  0  0  0  0  0  0  0  0  0  0
  -26.7260  -27.4240   19.8040 C   0  0  0  0  0  0  0  0  0  0  0  0
  -23.1540  -30.6750   21.6030 C   0  0  0  0  0  3  0  0  0  0  0  0
  -24.4480  -29.1490   20.0040 C   0  0  0  0  0  0  0  0  0  0  0  0
  -25.6920  -30.8910   21.2880 C   0  0  0  0  0  2  0  0  0  0  0  0
  -25.6720  -29.5530   20.5550 C   0  0  0  0  0  0  0  0  0  0  0  0
  -26.8180  -28.7070   20.4320 C   0  0  0  0  0  3  0  0  0  0  0  0
  -25.4840  -27.0760   19.2360 C   0  0  0  0  0  3  0  0  0  0  0  0
  -24.3560  -27.9180   19.3330 C   0  0  0  0  0  3  0  0  0  0  0  0
  -23.2600  -30.0760   20.1750 C   0  0  0  0  0  2  0  0  0  0  0  0
  -24.4770  -31.1740   22.1030 N   0  0  0  0  0  0  0  0  0  0  0  0
  -23.4780  -32.2110   23.8610 O   0  0  0  0  0  0  0  0  0  0  0  0
  -22.4960  -29.6350   22.5420 C   0  0  0  0  0  0  0  0  0  0  0  0
  -21.1630  -29.4950   22.4450 N   0  0  0  0  0  0  0  0  0  0  0  0
  -23.1790  -28.9600   23.3140 O   0  0  0  0  0  0  0  0  0  0  0  0
  -20.6710  -30.0820   21.7880 H   0  0  0  0  0  0  0  0  0  0  0  0
  -17.7780  -28.3190   22.9400 C   0  0  0  0  0  0  0  0  0  0  0  0
  -20.3410  -28.5480   23.2010 C   0  0  0  0  0  3  0  0  0  0  0  0
  -20.4280  -27.1310   22.5860 C   0  0  0  0  0  2  0  0  0  0  0  0
  -19.3150  -26.8460   21.5730 C   0  0  0  0  0  2  0  0  0  0  0  0
  -17.9390  -26.9870   22.2280 C   0  0  0  0  0  2  0  0  0  0  0  0
  -18.9070  -29.0610   23.3800 C   0  0  0  0  0  0  0  0  0  0  0  0
  -18.7020  -30.3110   24.0050 C   0  0  0  0  0  3  0  0  0  0  0  0
  -17.4030  -30.8170   24.1970 C   0  0  0  0  0  3  0  0  0  0  0  0
  -16.2880  -30.0700   23.7760 C   0  0  0  0  0  3  0  0  0  0  0  0
  -16.4770  -28.8240   23.1500 C   0  0  0  0  0  3  0  0  0  0  0  0
  -25.8600  -32.4470   23.8300 C   0  0  0  0  0  3  0  0  0  0  0  0
  -26.4110  -31.5690   25.0210 C   0  0  1  0  0  0  0  0  0  0  0  0
  -25.3690  -31.3140   26.1350 C   0  0  0  0  0  1  0  0  0  0  0  0
  -26.9000  -30.1940   24.5090 C   0  0  0  0  0  1  0  0  0  0  0  0
  -27.6380  -32.2630   25.6600 C   0  0  0  0  0  1  0  0  0  0  0  0
  -25.6390  -33.8310   24.2700 N   0  0  0  0  0  0  0  0  0  0  0  0
  -26.0100  -34.9190   23.5820 C   0  0  0  0  0  0  0  0  0  0  0  0
  -26.6450  -34.8590   22.5260 O   0  0  0  0  0  0  0  0  0  0  0  0
  -25.0760  -33.9560   25.0980 H   0  0  0  0  0  0  0  0  0  0  0  0
  -24.3920  -36.8370   23.4020 C   0  0  0  0  0  1  0  0  0  0  0  0
  -25.6150  -36.2930   24.1570 C   0  0  0  0  0  3  0  0  0  0  0  0
  -27.8050  -36.9800   25.0280 C   0  0  0  0  0  1  0  0  0  0  0  0
  -26.7090  -37.2870   24.1130 N   0  0  0  0  0  0  0  0  0  0  0  0
  -26.3600  -38.2150   24.3400 H   0  0  0  0  0  0  0  0  0  0  0  0
  1  4  2  0
  1  6  1  0
  2  5  1  0
  3  7  1  0
  3  5  2  0
  4  3  1  0
  5  8  1  0
  6  2  2  0
  7  9  1  0
  8  9  2  0
 10  7  2  0
 11 19  1  0
 12 17  1  0
 13 14  1  0
 13 12  1  0
 15 14  1  0
 15 24  1  0
 15 16  1  0
 17 11  1  0
 17 16  1  0
 18 11  2  0
 19  6  1  0
 20 19  1  0
 21 22  2  0
 22 41  1  0
 23 22  1  0
 23 26  1  0
 24 21  1  0
 24 25  1  0
 25 23  2  0
 26 27  1  0
 27 28  2  0
 29 32  1  0
 29 28  1  0
 30 29  2  0
 31 30  1  0
 31 26  2  0
 32 33  1  0
 33 34  1  0
 34 35  2  0
 36 35  1  0
 36 40  1  0
 37 36  2  0
 38 33  2  0
 38 37  1  0
 39 38  1  0
 41 42  1  0
 42 45  1  0
 42 44  1  0
 43 41  2  0
 46 47  1  0
 46 21  1  0
 48 46  1  0
 49 50  2  0
 49  4  1  0
 51 52  1  0
 51 50  1  0
 53 55  1  0
 53 52  1  0
 54 65  2  0
 55 60  1  0
 56 64  1  0
 56 66  1  0
 57 63  1  0
 57 59  1  0
 58 64  1  0
 59 58  1  0
 60 59  2  0
 61 62  1  0
 61 55  2  0
 62 57  2  0
 63 56  1  0
 64 54  1  0
 66 68  2  0
 67 66  1  0
 69 67  1  0
 70 79  2  0
 70 75  1  0
 71 67  1  0
 71 75  1  0
 72 71  1  0
 73 74  1  0
 73 72  1  0
 74 70  1  0
 75 76  2  0
 76 77  1  0
 78 77  2  0
 79 78  1  0
 80 54  1  0
 80 85  1  0
 80 81  1  0
 81 84  1  1
 81 82  1  0
 83 81  1  0
 85 88  1  0
 86 90  1  0
 86 85  1  0
 87 86  2  0
 90 89  1  0
 92 90  1  0
 92 93  1  0
 92 91  1  0
M  ISO  4  11 100  19 100  52 101  53 101
M  END
>  <TORSDO>  (92) 
F 19

>  <SCORE>  (92) 
-13.844

>  <name>  (92) 
93

>  <ligand_id>  (92) 
93

>  <original_smiles>  (92) 
[H]C(=C([H])C([H])([H])C([H])([H])Oc1c([H])c([H])c2c(c1[H])C([H])([H])N(C(=O)C([H])(N([H])C(=O)C([H])(N([H])C([H])([H])[H])C([H])([H])[H])C(C([H])([H])[H])(C([H])([H])[H])C([H])([H])[H])C([H])(C(=O)N([H])C1([H])c3c([H])c([H])c([H])c([H])c3C([H])([H])C([H])([H])C1([H])[H])C2([H])[H])c1c([H])c(N([H])C(=O)N2C([H])([H])C([H])([H])C([H])([H])C([H])(n3nc(-c4c([H])c([H])c(Oc5c([H])c([H])c(F)c([H])c5F)c([H])c4[H])c(C(=O)N([H])[H])c3N([H])[H])C2([H])[H])c([H])c2c1C(=O)C([H])([H])C2([H])[H]

>  <smiles>  (92) 
[H]C(=C([H])C([H])([H])C([H])([H])Oc1c([H])c([H])c2c(c1[H])C([H])([H])N(C(=O)C([H])(N([H])C(=O)C([H])(N([H])C([H])([H])[H])C([H])([H])[H])C(C([H])([H])[H])(C([H])([H])[H])C([H])([H])[H])C([H])(C(=O)N([H])C1([H])c3c([H])c([H])c([H])c([H])c3C([H])([H])C([H])([H])C1([H])[H])C2([H])[H])c1c([H])c(N([H])C(=O)N2C([H])([H])C([H])([H])C([H])([H])C([H])(n3nc(-c4c([H])c([H])c(Oc5c([H])c([H])c(F)c([H])c5F)c([H])c4[H])c(C(=O)N([H])[H])c3N([H])[H])C2([H])[H])c([H])c2c1C(=O)C([H])([H])C2([H])[H]

$$$$
94:0:0
     RDKit          3D

 96101  0  0  1  0  0  0  0  0999 V2000
  -24.9710  -23.9270   23.8580 C   0  0  0  0  0  3  0  0  0  0  0  0
  -25.6520  -23.6290   22.6610 C   0  0  0  0  0  0  0  0  0  0  0  0
  -24.3120  -25.3280   24.5330 C   0  0  0  0  0  3  0  0  0  0  0  0
  -25.5480  -25.0170   21.9180 C   0  0  0  0  0  3  0  0  0  0  0  0
  -25.1900  -26.4420   22.7310 C   0  0  0  0  0  3  0  0  0  0  0  0
  -23.9190  -26.7610   23.7580 C   0  0  0  0  0  0  0  0  0  0  0  0
  -26.0590  -22.0300   21.9450 C   0  0  0  0  0  2  0  0  0  0  0  0
  -27.3670  -21.2680   21.2300 O   0  0  0  0  0  0  0  0  0  0  0  0
  -27.6620  -19.6630   20.8010 C   0  0  0  0  0  3  0  0  0  0  0  0
  -29.0960  -18.6370   20.2270 C   0  0  0  0  0  3  0  0  0  0  0  0
  -30.5080  -15.9550   19.7680 C   0  0  0  0  0  0  0  0  0  0  0  0
  -30.9930  -13.4460   19.0580 C   0  0  0  0  0  2  0  0  0  0  0  0
  -30.1150  -12.9210   17.8810 C   0  0  0  0  0  2  0  0  0  0  0  0
  -28.6930  -12.5650   18.3540 C   0  0  0  0  0  2  0  0  0  0  0  0
  -28.1550  -13.6410   19.3270 C   0  0  0  0  0  3  0  0  0  0  0  0
  -29.1390  -13.9450   20.4630 C   0  0  0  0  0  2  0  0  0  0  0  0
  -30.2800  -14.5570   19.8150 N   0  0  0  0  0  0  0  0  0  0  0  0
  -31.6440  -16.2020   19.3030 O   0  0  0  0  0  0  0  0  0  0  0  0
  -29.4460  -16.9670   20.1450 N   0  0  0  0  0  0  0  0  0  0  0  0
  -28.6410  -16.4530   20.4740 H   0  0  0  0  0  0  0  0  0  0  0  0
  -25.8620  -14.2050   20.2500 C   0  0  0  0  0  0  0  0  0  0  0  0
  -24.8310  -13.4210   20.6790 C   0  0  0  0  0  0  0  0  0  0  0  0
  -25.2810  -12.0700   20.5530 C   0  0  0  0  0  0  0  0  0  0  0  0
  -26.8590  -13.3260   19.8760 N   0  0  0  0  0  0  0  0  0  0  0  0
  -26.5340  -12.0350   20.1250 N   0  0  0  0  0  0  0  0  0  0  0  0
  -24.5700  -10.8050   20.7540 C   0  0  0  0  0  0  0  0  0  0  0  0
  -25.0020   -9.8550   21.7050 C   0  0  0  0  0  3  0  0  0  0  0  0
  -24.2850   -8.6520   21.8890 C   0  0  0  0  0  3  0  0  0  0  0  0
  -23.1250   -8.3960   21.1200 C   0  0  0  0  0  0  0  0  0  0  0  0
  -22.7150   -9.3340   20.1580 C   0  0  0  0  0  3  0  0  0  0  0  0
  -23.4320  -10.5270   19.9720 C   0  0  0  0  0  3  0  0  0  0  0  0
  -22.3780   -7.2460   21.2130 O   0  0  0  0  0  0  0  0  0  0  0  0
  -22.2140   -6.5890   22.4040 C   0  0  0  0  0  0  0  0  0  0  0  0
  -21.6700   -7.2300   23.5400 C   0  0  0  0  0  3  0  0  0  0  0  0
  -21.4550   -6.4970   24.7240 C   0  0  0  0  0  3  0  0  0  0  0  0
  -21.7720   -5.1270   24.7740 C   0  0  0  0  0  0  0  0  0  0  0  0
  -22.3100   -4.4870   23.6430 C   0  0  0  0  0  3  0  0  0  0  0  0
  -22.5270   -5.2160   22.4610 C   0  0  0  0  0  0  0  0  0  0  0  0
  -23.0250   -4.5910   21.3670 F   0  0  0  0  0  0  0  0  0  0  0  0
  -21.5580   -4.4210   25.9080 F   0  0  0  0  0  0  0  0  0  0  0  0
  -23.4690  -13.8950   21.0860 C   0  0  0  0  0  0  0  0  0  0  0  0
  -22.8180  -13.1750   21.9910 N   0  0  0  0  0  0  0  0  0  0  0  0
  -22.9970  -14.9380   20.6350 O   0  0  0  0  0  0  0  0  0  0  0  0
  -23.2190  -12.3310   22.3730 H   0  0  0  0  0  0  0  0  0  0  0  0
  -21.9070  -13.4720   22.3100 H   0  0  0  0  0  0  0  0  0  0  0  0
  -26.0310  -15.5820   20.1250 N   0  0  0  0  0  0  0  0  0  0  0  0
  -25.2740  -16.2290   20.3130 H   0  0  0  0  0  0  0  0  0  0  0  0
  -26.8170  -16.0220   19.6620 H   0  0  0  0  0  0  0  0  0  0  0  0
  -23.2800  -28.4620   24.5070 C   0  0  0  0  0  2  0  0  0  0  0  0
  -22.4970  -30.1410   23.9730 C   0  0  0  0  0  0  0  0  0  0  0  0
  -21.7790  -30.6470   22.6070 N   0  0  0  0  0  2  0  0  0  0  0  0
  -22.6170  -30.9860   24.8610 O   0  0  0  0  0  0  0  0  0  0  0  0
  -21.4830  -31.6090   22.7070 H   0  0  0  0  0  0  0  0  0  0  0  0
  -21.3710  -30.0020   20.8440 C   0  0  0  0  0 15  0  0  0  0  0  0
  -22.4680  -28.6670   19.5980 C   0  0  0  0  0 15  0  0  0  0  0  0
  -24.2200  -27.9990   19.5040 O   0  0  0  0  0  1  0  0  0  0  0  0
  -25.1390  -31.9700   22.9410 C   0  0  0  0  0  0  0  0  0  0  0  0
  -25.5080  -28.1860   18.8350 C   0  0  0  0  0  3  0  0  0  0  0  0
  -23.8320  -30.7030   21.3310 C   0  0  0  0  0  3  0  0  0  0  0  0
  -24.5750  -30.5080   18.9290 C   0  0  0  0  0  3  0  0  0  0  0  0
  -26.1060  -31.3300   20.7170 C   0  0  0  0  0  2  0  0  0  0  0  0
  -25.7860  -30.3610   19.5970 C   0  0  0  0  0  3  0  0  0  0  0  0
  -26.4070  -29.1290   19.4190 C   0  0  0  0  0  2  0  0  0  0  0  0
  -25.0720  -28.5300   17.5950 C   0  0  0  0  0  2  0  0  0  0  0  0
  -24.2950  -29.6880   17.7860 C   0  0  0  0  0  2  0  0  0  0  0  0
  -23.5750  -31.1710   19.8050 C   0  0  0  0  0  2  0  0  0  0  0  0
  -25.0460  -31.3640   21.7350 N   0  0  0  0  0  0  0  0  0  0  0  0
  -24.1800  -32.1260   23.7150 O   0  0  0  0  0  0  0  0  0  0  0  0
  -23.8480  -29.0530   21.8740 C   0  0  0  0  0  0  0  0  0  0  0  0
  -22.7580  -27.9340   21.8060 N   0  0  0  0  0  0  0  0  0  0  0  0
  -24.7330  -28.8360   22.6380 O   0  0  0  0  0  0  0  0  0  0  0  0
  -23.2780  -27.0960   22.0300 H   0  0  0  0  0  0  0  0  0  0  0  0
  -18.3150  -27.7090   22.0110 C   0  0  0  0  0  0  0  0  0  0  0  0
  -21.0720  -27.5300   22.1180 C   0  0  0  0  0  3  0  0  0  0  0  0
  -20.8660  -26.4010   21.1820 C   0  0  0  0  0  2  0  0  0  0  0  0
  -19.6990  -26.5920   20.2520 C   0  0  0  0  0  2  0  0  0  0  0  0
  -18.4040  -26.5690   21.0430 C   0  0  0  0  0  2  0  0  0  0  0  0
  -19.5230  -28.2770   22.5390 C   0  0  0  0  0  0  0  0  0  0  0  0
  -19.1280  -29.3570   23.4670 C   0  0  0  0  0  3  0  0  0  0  0  0
  -17.8220  -29.8350   23.7460 C   0  0  0  0  0  3  0  0  0  0  0  0
  -16.7210  -29.2010   23.1820 C   0  0  0  0  0  3  0  0  0  0  0  0
  -16.9870  -28.1250   22.3300 C   0  0  0  0  0  3  0  0  0  0  0  0
  -26.5180  -32.4810   23.3810 C   0  0  0  0  0  3  0  0  0  0  0  0
  -26.3130  -33.7710   24.0460 N   0  0  0  0  0  0  0  0  0  0  0  0
  -26.4670  -34.9560   23.4440 C   0  0  0  0  0  0  0  0  0  0  0  0
  -26.8530  -35.0690   22.2770 O   0  0  0  0  0  0  0  0  0  0  0  0
  -25.9330  -33.7470   24.9800 H   0  0  0  0  0  0  0  0  0  0  0  0
  -24.7890  -36.7790   23.8860 C   0  0  0  0  0  1  0  0  0  0  0  0
  -26.1640  -36.2140   24.2770 C   0  0  0  0  0  3  0  0  0  0  0  0
  -28.4790  -36.8960   24.7280 C   0  0  0  0  0  1  0  0  0  0  0  0
  -27.1940  -37.2650   24.1400 N   0  0  0  0  0  0  0  0  0  0  0  0
  -26.8840  -38.1310   24.5730 H   0  0  0  0  0  0  0  0  0  0  0  0
  -27.2470  -31.4520   24.3200 C   0  0  1  0  0  0  0  0  0  0  0  0
  -26.3730  -30.9400   25.4890 C   0  0  0  0  0  1  0  0  0  0  0  0
  -27.7600  -30.2180   23.5420 C   0  0  0  0  0  1  0  0  0  0  0  0
  -28.5090  -32.1180   24.8970 C   0  0  0  0  0  1  0  0  0  0  0  0
  1  3  1  0
  2  1  2  0
  4  2  1  0
  4  5  2  0
  5  6  1  0
  6 49  1  0
  6  3  2  0
  7  2  1  0
  8  7  1  0
  9  8  1  0
 10  9  2  0
 11 17  1  0
 11 19  1  0
 12 17  1  0
 13 14  1  0
 13 12  1  0
 15 14  1  0
 15 24  1  0
 15 16  1  0
 17 16  1  0
 18 11  2  0
 19 10  1  0
 19 20  1  0
 21 22  2  0
 22 41  1  0
 23 22  1  0
 23 26  1  0
 24 25  1  0
 24 21  1  0
 25 23  2  0
 26 27  1  0
 27 28  2  0
 29 32  1  0
 29 28  1  0
 30 29  2  0
 31 30  1  0
 31 26  2  0
 32 33  1  0
 33 38  2  0
 33 34  1  0
 34 35  2  0
 35 36  1  0
 36 40  1  0
 37 36  2  0
 38 37  1  0
 39 38  1  0
 41 42  1  0
 42 45  1  0
 42 44  1  0
 43 41  2  0
 46 21  1  0
 46 47  1  0
 48 46  1  0
 50 49  1  0
 50 52  2  0
 51 53  1  0
 51 50  1  0
 57 68  2  0
 58 63  1  0
 58 56  1  0
 59 67  1  0
 59 69  1  0
 60 65  1  0
 60 62  1  0
 60 66  1  0
 61 67  1  0
 62 63  1  0
 62 61  1  0
 64 65  1  0
 64 58  1  0
 66 59  1  0
 67 57  1  0
 69 71  2  0
 70 69  1  0
 70 72  1  0
 73 82  2  0
 73 78  1  0
 74 70  1  0
 74 78  1  0
 75 74  1  0
 76 77  1  0
 76 75  1  0
 77 73  1  0
 78 79  2  0
 79 80  1  0
 81 80  2  0
 82 81  1  0
 83 57  1  0
 83 84  1  0
 83 93  1  0
 84 87  1  0
 85 84  1  0
 85 89  1  0
 86 85  2  0
 89 88  1  0
 91 89  1  0
 91 92  1  0
 91 90  1  0
 93 96  1  1
 93 94  1  0
 95 93  1  0
M  ISO  4  11 100  19 100  55 101  56 101
M  END
>  <TORSDO>  (93) 
F 24

>  <SCORE>  (93) 
-2.361

>  <name>  (93) 
94

>  <ligand_id>  (93) 
94

>  <original_smiles>  (93) 
[H]C1=C(C([H])([H])OC([H])([H])C([H])([H])N([H])C(=O)N2C([H])([H])C([H])([H])C([H])([H])C([H])(n3nc(-c4c([H])c([H])c(Oc5c([H])c([H])c(F)c([H])c5F)c([H])c4[H])c(C(=O)N([H])[H])c3N([H])[H])C2([H])[H])C([H])([H])C([H])([H])C([H])(C([H])([H])C(=O)N([H])C([H])([H])C([H])([H])Oc2c([H])c([H])c3c(c2[H])C([H])([H])N(C(=O)C([H])(N([H])C(=O)C([H])(N([H])C([H])([H])[H])C([H])([H])[H])C(C([H])([H])[H])(C([H])([H])[H])C([H])([H])[H])C([H])(C(=O)N([H])C2([H])c4c([H])c([H])c([H])c([H])c4C([H])([H])C([H])([H])C2([H])[H])C3([H])[H])C1([H])[H]

>  <smiles>  (93) 
[H]C1=C(C([H])([H])OC([H])([H])C([H])([H])N([H])C(=O)N2C([H])([H])C([H])([H])C([H])([H])C([H])(n3nc(-c4c([H])c([H])c(Oc5c([H])c([H])c(F)c([H])c5F)c([H])c4[H])c(C(=O)N([H])[H])c3N([H])[H])C2([H])[H])C([H])([H])C([H])([H])C([H])(C([H])([H])C(=O)N([H])C([H])([H])C([H])([H])Oc2c([H])c([H])c3c(c2[H])C([H])([H])N(C(=O)C([H])(N([H])C(=O)C([H])(N([H])C([H])([H])[H])C([H])([H])[H])C(C([H])([H])[H])(C([H])([H])[H])C([H])([H])[H])C([H])(C(=O)N([H])C2([H])c4c([H])c([H])c([H])c([H])c4C([H])([H])C([H])([H])C2([H])[H])C3([H])[H])C1([H])[H]

$$$$
95:0:0
     RDKit          3D

 88 96  0  0  1  0  0  0  0  0999 V2000
  -27.7530  -20.1530   20.0790 C   0  0  0  0  0  2  0  0  0  0  0  0
  -28.0940  -18.6570   20.3840 C   0  0  0  0  0  2  0  0  0  0  0  0
  -30.0680  -19.9250   20.6770 C   0  0  0  0  0  2  0  0  0  0  0  0
  -29.0560  -20.9950   20.1050 C   0  0  0  0  0  3  0  0  0  0  0  0
  -29.6120  -18.4820   20.2270 C   0  0  0  0  0  3  0  0  0  0  0  0
  -28.9450  -22.4390   20.8150 C   0  0  0  0  0  3  0  0  0  0  0  0
  -28.5870  -23.7750   19.9900 C   0  0  0  0  0  3  0  0  0  0  0  0
  -28.2580  -25.1160   20.8130 C   0  0  0  0  0  2  0  0  0  0  0  0
  -28.3680  -26.4700   20.2080 O   0  0  0  0  0  0  0  0  0  0  0  0
  -24.6130  -31.8750   23.2320 C   0  0  0  0  0  0  0  0  0  0  0  0
  -27.2440  -27.3080   20.2130 C   0  0  0  0  0  0  0  0  0  0  0  0
  -23.4170  -30.4670   21.5940 C   0  0  0  0  0  3  0  0  0  0  0  0
  -24.8750  -28.9070   20.1830 C   0  0  0  0  0  0  0  0  0  0  0  0
  -25.9550  -30.7930   21.4130 C   0  0  0  0  0  2  0  0  0  0  0  0
  -26.0410  -29.4090   20.7760 C   0  0  0  0  0  0  0  0  0  0  0  0
  -27.2320  -28.6230   20.7750 C   0  0  0  0  0  3  0  0  0  0  0  0
  -26.0570  -26.8510   19.6070 C   0  0  0  0  0  3  0  0  0  0  0  0
  -24.8850  -27.6340   19.5890 C   0  0  0  0  0  3  0  0  0  0  0  0
  -23.6370  -29.7810   20.2190 C   0  0  0  0  0  2  0  0  0  0  0  0
  -24.6810  -31.0630   22.1360 N   0  0  0  0  0  0  0  0  0  0  0  0
  -23.5280  -32.1530   23.7640 O   0  0  0  0  0  0  0  0  0  0  0  0
  -22.7530  -29.4550   22.5580 C   0  0  0  0  0  0  0  0  0  0  0  0
  -21.4260  -29.2810   22.4320 N   0  0  0  0  0  0  0  0  0  0  0  0
  -23.4300  -28.8290   23.3760 O   0  0  0  0  0  0  0  0  0  0  0  0
  -20.9390  -29.8370   21.7440 H   0  0  0  0  0  0  0  0  0  0  0  0
  -18.0460  -28.0970   22.9390 C   0  0  0  0  0  0  0  0  0  0  0  0
  -20.6060  -28.3470   23.2050 C   0  0  0  0  0  3  0  0  0  0  0  0
  -20.7020  -26.9150   22.6310 C   0  0  0  0  0  2  0  0  0  0  0  0
  -19.5970  -26.5960   21.6180 C   0  0  0  0  0  2  0  0  0  0  0  0
  -18.2170  -26.7460   22.2640 C   0  0  0  0  0  2  0  0  0  0  0  0
  -19.1680  -28.8550   23.3660 C   0  0  0  0  0  0  0  0  0  0  0  0
  -18.9530  -30.1190   23.9580 C   0  0  0  0  0  3  0  0  0  0  0  0
  -17.6510  -30.6250   24.1240 C   0  0  0  0  0  3  0  0  0  0  0  0
  -16.5430  -29.8640   23.7130 C   0  0  0  0  0  3  0  0  0  0  0  0
  -16.7420  -28.6010   23.1250 C   0  0  0  0  0  3  0  0  0  0  0  0
  -25.8930  -32.5120   23.8560 C   0  0  0  0  0  3  0  0  0  0  0  0
  -26.4110  -31.7410   25.1330 C   0  0  1  0  0  0  0  0  0  0  0  0
  -25.3190  -31.5020   26.2010 C   0  0  0  0  0  1  0  0  0  0  0  0
  -26.9950  -30.3650   24.7410 C   0  0  0  0  0  1  0  0  0  0  0  0
  -27.5610  -32.5370   25.7940 C   0  0  0  0  0  1  0  0  0  0  0  0
  -25.5780  -33.9090   24.1900 N   0  0  0  0  0  0  0  0  0  0  0  0
  -25.9040  -34.9650   23.4320 C   0  0  0  0  0  0  0  0  0  0  0  0
  -26.5710  -34.8660   22.3990 O   0  0  0  0  0  0  0  0  0  0  0  0
  -24.9850  -34.0590   24.9930 H   0  0  0  0  0  0  0  0  0  0  0  0
  -24.1650  -36.7500   23.0900 C   0  0  0  0  0  1  0  0  0  0  0  0
  -25.4140  -36.3510   23.8940 C   0  0  0  0  0  3  0  0  0  0  0  0
  -27.5500  -37.2460   24.7100 C   0  0  0  0  0  1  0  0  0  0  0  0
  -26.4410  -37.4090   23.7740 N   0  0  0  0  0  0  0  0  0  0  0  0
  -26.0310  -38.3270   23.9240 H   0  0  0  0  0  0  0  0  0  0  0  0
  -30.3050  -17.2190   20.9420 C   0  0  0  0  0  2  0  0  0  0  0  0
  -30.6080  -14.6830   20.3880 C   0  0  0  0  0  0  0  0  0  0  0  0
  -30.3810  -12.4350   19.3340 C   0  0  0  0  0  2  0  0  0  0  0  0
  -29.4360  -12.5380   18.1170 C   0  0  0  0  0  2  0  0  0  0  0  0
  -27.9660  -12.3780   18.5520 C   0  0  0  0  0  2  0  0  0  0  0  0
  -27.6060  -13.2560   19.7810 C   0  0  0  0  0  3  0  0  0  0  0  0
  -28.6670  -13.1340   20.8950 C   0  0  0  0  0  2  0  0  0  0  0  0
  -29.9660  -13.4740   20.2990 N   0  0  0  0  0  0  0  0  0  0  0  0
  -31.7920  -14.7890   20.0600 O   0  0  0  0  0  0  0  0  0  0  0  0
  -29.8500  -15.7980   20.6710 N   0  0  0  0  0  0  0  0  0  0  0  0
  -28.8720  -15.6140   20.8400 H   0  0  0  0  0  0  0  0  0  0  0  0
  -25.2190  -13.8580   20.5080 C   0  0  0  0  0  0  0  0  0  0  0  0
  -24.1530  -13.0880   20.8830 C   0  0  0  0  0  0  0  0  0  0  0  0
  -24.6130  -11.7350   20.8560 C   0  0  0  0  0  0  0  0  0  0  0  0
  -26.2610  -12.9760   20.2740 N   0  0  0  0  0  0  0  0  0  0  0  0
  -25.9020  -11.6940   20.5460 N   0  0  0  0  0  0  0  0  0  0  0  0
  -23.8840  -10.4750   21.0500 C   0  0  0  0  0  0  0  0  0  0  0  0
  -24.3260   -9.5010   21.9710 C   0  0  0  0  0  3  0  0  0  0  0  0
  -23.5980   -8.3050   22.1540 C   0  0  0  0  0  3  0  0  0  0  0  0
  -22.4130   -8.0760   21.4150 C   0  0  0  0  0  0  0  0  0  0  0  0
  -21.9900   -9.0390   20.4830 C   0  0  0  0  0  3  0  0  0  0  0  0
  -22.7180  -10.2260   20.2990 C   0  0  0  0  0  3  0  0  0  0  0  0
  -21.6550   -6.9340   21.5090 O   0  0  0  0  0  0  0  0  0  0  0  0
  -21.6340   -6.1750   22.6510 C   0  0  0  0  0  0  0  0  0  0  0  0
  -21.2580   -6.7180   23.8990 C   0  0  0  0  0  3  0  0  0  0  0  0
  -21.1830   -5.8870   25.0340 C   0  0  0  0  0  3  0  0  0  0  0  0
  -21.4740   -4.5130   24.9240 C   0  0  0  0  0  0  0  0  0  0  0  0
  -21.8420   -3.9700   23.6810 C   0  0  0  0  0  3  0  0  0  0  0  0
  -21.9190   -4.7990   22.5470 C   0  0  0  0  0  0  0  0  0  0  0  0
  -22.2550   -4.2660   21.3470 F   0  0  0  0  0  0  0  0  0  0  0  0
  -21.3940   -3.7130   26.0120 F   0  0  0  0  0  0  0  0  0  0  0  0
  -22.7560  -13.5690   21.1520 C   0  0  0  0  0  0  0  0  0  0  0  0
  -22.0270  -12.8780   22.0210 N   0  0  0  0  0  0  0  0  0  0  0  0
  -22.3190  -14.5910   20.6260 O   0  0  0  0  0  0  0  0  0  0  0  0
  -22.3930  -12.0500   22.4690 H   0  0  0  0  0  0  0  0  0  0  0  0
  -21.0900  -13.1820   22.2450 H   0  0  0  0  0  0  0  0  0  0  0  0
  -25.3850  -15.2280   20.3230 N   0  0  0  0  0  0  0  0  0  0  0  0
  -24.6140  -15.8790   20.4270 H   0  0  0  0  0  0  0  0  0  0  0  0
  -26.2230  -15.6630   19.9610 H   0  0  0  0  0  0  0  0  0  0  0  0
  1  4  1  0
  1  2  1  0
  4  3  1  0
  4  6  1  0
  5  2  1  0
  5  3  1  0
  5 50  1  0
  7  8  1  0
  7  6  2  0
  9 11  1  0
  9  8  1  0
 10 21  2  0
 11 16  1  0
 12 20  1  0
 12 22  1  0
 13 19  1  0
 13 15  1  0
 14 20  1  0
 15 14  1  0
 16 15  2  0
 17 11  2  0
 18 17  1  0
 18 13  2  0
 19 12  1  0
 20 10  1  0
 22 24  2  0
 23 22  1  0
 25 23  1  0
 26 35  2  0
 26 31  1  0
 27 23  1  0
 27 31  1  0
 28 27  1  0
 29 30  1  0
 29 28  1  0
 30 26  1  0
 31 32  2  0
 32 33  1  0
 34 33  2  0
 35 34  1  0
 36 10  1  0
 36 41  1  0
 36 37  1  0
 37 40  1  1
 37 38  1  0
 39 37  1  0
 41 44  1  0
 42 46  1  0
 42 41  1  0
 43 42  2  0
 46 45  1  0
 48 46  1  0
 48 49  1  0
 48 47  1  0
 51 59  1  0
 52 57  1  0
 53 54  1  0
 53 52  1  0
 55 54  1  0
 55 64  1  0
 55 56  1  0
 57 51  1  0
 57 56  1  0
 58 51  2  0
 59 60  1  0
 59 50  1  0
 61 62  2  0
 62 81  1  0
 63 62  1  0
 63 66  1  0
 64 61  1  0
 64 65  1  0
 65 63  2  0
 66 67  1  0
 67 68  2  0
 69 72  1  0
 69 68  1  0
 70 69  2  0
 71 70  1  0
 71 66  2  0
 72 73  1  0
 73 74  1  0
 74 75  2  0
 76 75  1  0
 76 80  1  0
 77 76  2  0
 78 73  2  0
 78 77  1  0
 79 78  1  0
 81 82  1  0
 82 85  1  0
 82 84  1  0
 83 81  2  0
 86 87  1  0
 86 61  1  0
 88 86  1  0
M  ISO  4   8 101   9 101  51 100  59 100
M  END
>  <TORSDO>  (94) 
F 20

>  <SCORE>  (94) 
-13.710

>  <name>  (94) 
95

>  <ligand_id>  (94) 
95

>  <original_smiles>  (94) 
[H]c1c([H])c([H])c2c(c1[H])C([H])([H])C([H])([H])C([H])([H])C2([H])N([H])C(=O)C1([H])N(C(=O)C([H])(N([H])C(=O)C([H])(N([H])C([H])([H])[H])C([H])([H])[H])C(C([H])([H])[H])(C([H])([H])[H])C([H])([H])[H])C([H])([H])c2c([H])c(OC([H])([H])C([H])([H])C([H])([H])C3([H])C([H])([H])C([H])([H])C([H])(C([H])([H])N([H])C(=O)N4C([H])([H])C([H])([H])C([H])([H])C([H])(n5nc(-c6c([H])c([H])c(Oc7c([H])c([H])c(F)c([H])c7F)c([H])c6[H])c(C(=O)N([H])[H])c5N([H])[H])C4([H])[H])C3([H])[H])c([H])c([H])c2C1([H])[H]

>  <smiles>  (94) 
[H]c1c([H])c([H])c2c(c1[H])C([H])([H])C([H])([H])C([H])([H])C2([H])N([H])C(=O)C1([H])N(C(=O)C([H])(N([H])C(=O)C([H])(N([H])C([H])([H])[H])C([H])([H])[H])C(C([H])([H])[H])(C([H])([H])[H])C([H])([H])[H])C([H])([H])c2c([H])c(OC([H])([H])C([H])([H])C([H])([H])C3([H])C([H])([H])C([H])([H])C([H])(C([H])([H])N([H])C(=O)N4C([H])([H])C([H])([H])C([H])([H])C([H])(n5nc(-c6c([H])c([H])c(Oc7c([H])c([H])c(F)c([H])c7F)c([H])c6[H])c(C(=O)N([H])[H])c5N([H])[H])C4([H])[H])C3([H])[H])c([H])c([H])c2C1([H])[H]

$$$$
96:0:0
     RDKit          3D

 93101  0  0  1  0  0  0  0  0999 V2000
  -30.1730  -23.5700   19.4700 C   0  0  0  0  0  0  0  0  0  0  0  0
  -31.9450  -20.8320   19.8080 C   0  0  0  0  0  0  0  0  0  0  0  0
  -29.7850  -24.8560   19.5830 C   0  0  0  0  0  3  0  0  0  0  0  0
  -31.6400  -23.2610   19.2270 C   0  0  0  0  0  2  0  0  0  0  0  0
  -29.2120  -22.3780   19.4550 C   0  0  0  0  0  2  0  0  0  0  0  0
  -32.2330  -22.2610   20.2260 C   0  0  0  0  0  2  0  0  0  0  0  0
  -29.4980  -21.3010   20.5330 C   0  0  0  0  0  2  0  0  0  0  0  0
  -30.5740  -20.2440   20.1610 C   0  0  0  0  0  3  0  0  0  0  0  0
  -32.8070  -20.1630   19.1670 N   0  0  0  0  0  0  0  0  0  0  0  0
  -33.6500  -20.7040   19.0040 H   0  0  0  0  0  0  0  0  0  0  0  0
  -28.3730  -25.3850   19.6990 C   0  0  0  0  0  2  0  0  0  0  0  0
  -28.3910  -26.7510   20.1080 O   0  0  0  0  0  0  0  0  0  0  0  0
  -24.6020  -31.8800   23.2340 C   0  0  0  0  0  0  0  0  0  0  0  0
  -27.1970  -27.4400   20.1220 C   0  0  0  0  0  0  0  0  0  0  0  0
  -23.3730  -30.4820   21.6060 C   0  0  0  0  0  3  0  0  0  0  0  0
  -24.8040  -28.9460   20.1670 C   0  0  0  0  0  0  0  0  0  0  0  0
  -25.8950  -30.8400   21.3730 C   0  0  0  0  0  2  0  0  0  0  0  0
  -25.9690  -29.4690   20.7380 C   0  0  0  0  0  0  0  0  0  0  0  0
  -27.1690  -28.7230   20.7120 C   0  0  0  0  0  3  0  0  0  0  0  0
  -26.0030  -26.9220   19.5630 C   0  0  0  0  0  3  0  0  0  0  0  0
  -24.8140  -27.6720   19.5790 C   0  0  0  0  0  3  0  0  0  0  0  0
  -23.5640  -29.8060   20.2230 C   0  0  0  0  0  2  0  0  0  0  0  0
  -24.6440  -31.0810   22.1300 N   0  0  0  0  0  0  0  0  0  0  0  0
  -23.5280  -32.1530   23.7860 O   0  0  0  0  0  0  0  0  0  0  0  0
  -22.7340  -29.4580   22.5720 C   0  0  0  0  0  0  0  0  0  0  0  0
  -21.4090  -29.2750   22.4540 N   0  0  0  0  0  0  0  0  0  0  0  0
  -23.4250  -28.8320   23.3790 O   0  0  0  0  0  0  0  0  0  0  0  0
  -20.9110  -29.8340   21.7760 H   0  0  0  0  0  0  0  0  0  0  0  0
  -18.0410  -28.0750   22.9670 C   0  0  0  0  0  0  0  0  0  0  0  0
  -20.5990  -28.3370   23.2310 C   0  0  0  0  0  3  0  0  0  0  0  0
  -20.7010  -26.9040   22.6590 C   0  0  0  0  0  2  0  0  0  0  0  0
  -19.5960  -26.5770   21.6500 C   0  0  0  0  0  2  0  0  0  0  0  0
  -18.2160  -26.7230   22.2980 C   0  0  0  0  0  2  0  0  0  0  0  0
  -19.1590  -28.8400   23.3910 C   0  0  0  0  0  0  0  0  0  0  0  0
  -18.9420  -30.1060   23.9760 C   0  0  0  0  0  3  0  0  0  0  0  0
  -17.6380  -30.6080   24.1420 C   0  0  0  0  0  3  0  0  0  0  0  0
  -16.5330  -29.8410   23.7360 C   0  0  0  0  0  3  0  0  0  0  0  0
  -16.7350  -28.5770   23.1540 C   0  0  0  0  0  3  0  0  0  0  0  0
  -25.8980  -32.5070   23.8390 C   0  0  0  0  0  3  0  0  0  0  0  0
  -26.4330  -31.7270   25.1030 C   0  0  1  0  0  0  0  0  0  0  0  0
  -25.3550  -31.4850   26.1860 C   0  0  0  0  0  1  0  0  0  0  0  0
  -27.0060  -30.3510   24.6880 C   0  0  0  0  0  1  0  0  0  0  0  0
  -27.5940  -32.5150   25.7530 C   0  0  0  0  0  1  0  0  0  0  0  0
  -25.5940  -33.9030   24.1780 N   0  0  0  0  0  0  0  0  0  0  0  0
  -25.9170  -34.9570   23.4160 C   0  0  0  0  0  0  0  0  0  0  0  0
  -26.5720  -34.8550   22.3750 O   0  0  0  0  0  0  0  0  0  0  0  0
  -25.0120  -34.0560   24.9870 H   0  0  0  0  0  0  0  0  0  0  0  0
  -24.1810  -36.7470   23.0860 C   0  0  0  0  0  1  0  0  0  0  0  0
  -25.4340  -36.3430   23.8810 C   0  0  0  0  0  3  0  0  0  0  0  0
  -27.5810  -37.2260   24.6810 C   0  0  0  0  0  1  0  0  0  0  0  0
  -26.4640  -37.3970   23.7570 N   0  0  0  0  0  0  0  0  0  0  0  0
  -26.0600  -38.3170   23.9120 H   0  0  0  0  0  0  0  0  0  0  0  0
  -30.7080  -19.1250   21.2360 C   0  0  0  0  0  2  0  0  0  0  0  0
  -30.2990  -17.7190   20.7420 C   0  0  0  0  0  2  0  0  0  0  0  0
  -30.6690  -16.6060   21.7470 C   0  0  0  0  0  2  0  0  0  0  0  0
  -30.7100  -14.4060   20.5410 C   0  0  0  0  0  0  0  0  0  0  0  0
  -30.3560  -12.3020   19.2970 C   0  0  0  0  0  2  0  0  0  0  0  0
  -29.4130  -12.5600   18.1060 C   0  0  0  0  0  2  0  0  0  0  0  0
  -27.9360  -12.4440   18.5300 C   0  0  0  0  0  2  0  0  0  0  0  0
  -27.6180  -13.2420   19.8220 C   0  0  0  0  0  3  0  0  0  0  0  0
  -28.6720  -12.9630   20.9170 C   0  0  0  0  0  2  0  0  0  0  0  0
  -30.0060  -13.2590   20.3580 N   0  0  0  0  0  0  0  0  0  0  0  0
  -31.7770  -14.6470   19.9700 O   0  0  0  0  0  0  0  0  0  0  0  0
  -30.1420  -15.2950   21.3660 N   0  0  0  0  0  0  0  0  0  0  0  0
  -29.2740  -15.0080   21.7930 H   0  0  0  0  0  0  0  0  0  0  0  0
  -25.2150  -13.8620   20.5080 C   0  0  0  0  0  0  0  0  0  0  0  0
  -24.1440  -13.0970   20.8790 C   0  0  0  0  0  0  0  0  0  0  0  0
  -24.6000  -11.7430   20.8590 C   0  0  0  0  0  0  0  0  0  0  0  0
  -26.2600  -12.9770   20.2940 N   0  0  0  0  0  0  0  0  0  0  0  0
  -25.8920  -11.6960   20.5580 N   0  0  0  0  0  0  0  0  0  0  0  0
  -23.8690  -10.4840   21.0570 C   0  0  0  0  0  0  0  0  0  0  0  0
  -24.3090   -9.5090   21.9790 C   0  0  0  0  0  3  0  0  0  0  0  0
  -23.5770   -8.3160   22.1640 C   0  0  0  0  0  3  0  0  0  0  0  0
  -22.3900   -8.0880   21.4260 C   0  0  0  0  0  0  0  0  0  0  0  0
  -21.9700   -9.0530   20.4920 C   0  0  0  0  0  3  0  0  0  0  0  0
  -22.7030  -10.2370   20.3060 C   0  0  0  0  0  3  0  0  0  0  0  0
  -21.6300   -6.9490   21.5210 O   0  0  0  0  0  0  0  0  0  0  0  0
  -21.6110   -6.1880   22.6630 C   0  0  0  0  0  0  0  0  0  0  0  0
  -21.2350   -6.7310   23.9110 C   0  0  0  0  0  3  0  0  0  0  0  0
  -21.1610   -5.8980   25.0450 C   0  0  0  0  0  3  0  0  0  0  0  0
  -21.4510   -4.5250   24.9330 C   0  0  0  0  0  0  0  0  0  0  0  0
  -21.8180   -3.9830   23.6890 C   0  0  0  0  0  3  0  0  0  0  0  0
  -21.8960   -4.8120   22.5570 C   0  0  0  0  0  0  0  0  0  0  0  0
  -22.2290   -4.2800   21.3560 F   0  0  0  0  0  0  0  0  0  0  0  0
  -21.3720   -3.7230   26.0220 F   0  0  0  0  0  0  0  0  0  0  0  0
  -22.7470  -13.5790   21.1450 C   0  0  0  0  0  0  0  0  0  0  0  0
  -22.0180  -12.8900   22.0160 N   0  0  0  0  0  0  0  0  0  0  0  0
  -22.3090  -14.6010   20.6180 O   0  0  0  0  0  0  0  0  0  0  0  0
  -22.3850  -12.0620   22.4630 H   0  0  0  0  0  0  0  0  0  0  0  0
  -21.0810  -13.1940   22.2410 H   0  0  0  0  0  0  0  0  0  0  0  0
  -25.3840  -15.2320   20.3160 N   0  0  0  0  0  0  0  0  0  0  0  0
  -24.6200  -15.8920   20.4060 H   0  0  0  0  0  0  0  0  0  0  0  0
  -26.2410  -15.6620   19.9930 H   0  0  0  0  0  0  0  0  0  0  0  0
  1  3  2  0
  2  8  1  0
  2  6  1  0
  3 11  1  0
  4  1  1  0
  4  6  1  0
  5  1  1  0
  5  7  1  0
  8  7  1  0
  8 53  1  0
  9  2  2  0
 10  9  1  0
 11 12  1  0
 12 14  1  0
 13 24  2  0
 14 19  1  0
 15 23  1  0
 15 25  1  0
 16 22  1  0
 16 18  1  0
 17 23  1  0
 18 17  1  0
 19 18  2  0
 20 21  1  0
 20 14  2  0
 21 16  2  0
 22 15  1  0
 23 13  1  0
 25 27  2  0
 26 25  1  0
 28 26  1  0
 29 38  2  0
 29 34  1  0
 30 26  1  0
 30 34  1  0
 31 30  1  0
 32 33  1  0
 32 31  1  0
 33 29  1  0
 34 35  2  0
 35 36  1  0
 37 36  2  0
 38 37  1  0
 39 13  1  0
 39 44  1  0
 39 40  1  0
 40 43  1  1
 40 41  1  0
 42 40  1  0
 44 47  1  0
 45 49  1  0
 45 44  1  0
 46 45  2  0
 49 48  1  0
 51 49  1  0
 51 52  1  0
 51 50  1  0
 54 53  1  0
 54 55  1  0
 56 64  1  0
 57 62  1  0
 58 59  1  0
 58 57  1  0
 60 59  1  0
 60 69  1  0
 60 61  1  0
 62 56  1  0
 62 61  1  0
 63 56  2  0
 64 55  1  0
 64 65  1  0
 66 67  2  0
 67 86  1  0
 68 67  1  0
 68 71  1  0
 69 66  1  0
 69 70  1  0
 70 68  2  0
 71 72  1  0
 72 73  2  0
 74 77  1  0
 74 73  1  0
 75 74  2  0
 76 75  1  0
 76 71  2  0
 77 78  1  0
 78 79  1  0
 79 80  2  0
 81 80  1  0
 81 85  1  0
 82 81  2  0
 83 78  2  0
 83 82  1  0
 84 83  1  0
 86 87  1  0
 87 90  1  0
 87 89  1  0
 88 86  2  0
 91 92  1  0
 91 66  1  0
 93 91  1  0
M  ISO  4  11 101  12 101  56 100  64 100
M  END
>  <TORSDO>  (95) 
F 20

>  <SCORE>  (95) 
-13.907

>  <name>  (95) 
96

>  <ligand_id>  (95) 
96

>  <original_smiles>  (95) 
[H]N=C1C([H])([H])C([H])([H])C(=C([H])C([H])([H])Oc2c([H])c([H])c3c(c2[H])C([H])([H])N(C(=O)C([H])(N([H])C(=O)C([H])(N([H])C([H])([H])[H])C([H])([H])[H])C(C([H])([H])[H])(C([H])([H])[H])C([H])([H])[H])C([H])(C(=O)N([H])C2([H])c4c([H])c([H])c([H])c([H])c4C([H])([H])C([H])([H])C2([H])[H])C3([H])[H])C([H])([H])C([H])([H])C1([H])C([H])([H])C([H])([H])C([H])([H])N([H])C(=O)N1C([H])([H])C([H])([H])C([H])([H])C([H])(n2nc(-c3c([H])c([H])c(Oc4c([H])c([H])c(F)c([H])c4F)c([H])c3[H])c(C(=O)N([H])[H])c2N([H])[H])C1([H])[H]

>  <smiles>  (95) 
[H]N=C1C([H])([H])C([H])([H])C(=C([H])C([H])([H])Oc2c([H])c([H])c3c(c2[H])C([H])([H])N(C(=O)C([H])(N([H])C(=O)C([H])(N([H])C([H])([H])[H])C([H])([H])[H])C(C([H])([H])[H])(C([H])([H])[H])C([H])([H])[H])C([H])(C(=O)N([H])C2([H])c4c([H])c([H])c([H])c([H])c4C([H])([H])C([H])([H])C2([H])[H])C3([H])[H])C([H])([H])C([H])([H])C1([H])C([H])([H])C([H])([H])C([H])([H])N([H])C(=O)N1C([H])([H])C([H])([H])C([H])([H])C([H])(n2nc(-c3c([H])c([H])c(Oc4c([H])c([H])c(F)c([H])c4F)c([H])c3[H])c(C(=O)N([H])[H])c2N([H])[H])C1([H])[H]

$$$$
97:0:0
     RDKit          3D

 97106  0  0  1  0  0  0  0  0999 V2000
  -31.2080  -22.9190   20.0900 C   0  0  0  0  0  2  0  0  0  0  0  0
  -29.8330  -22.7630   22.1850 C   0  0  0  0  0  2  0  0  0  0  0  0
  -31.5360  -24.3830   20.4540 C   0  0  0  0  0  2  0  0  0  0  0  0
  -30.1800  -24.2330   22.4870 C   0  0  0  0  0  2  0  0  0  0  0  0
  -30.9270  -22.0720   21.3480 C   0  0  0  0  0  3  0  0  0  0  0  0
  -30.4370  -25.0040   21.2410 N   0  0  1  0  0  4  0  0  0  0  0  0
  -29.5920  -24.9410   20.6900 H   0  0  0  0  0  0  0  0  0  0  0  0
  -29.3150  -20.3450   20.4100 C   0  0  0  0  0  3  0  0  0  0  0  0
  -28.9320  -19.0290   20.0930 C   0  0  0  0  0  3  0  0  0  0  0  0
  -31.0440  -18.2050   20.9670 C   0  0  0  0  0  3  0  0  0  0  0  0
  -30.5640  -20.6160   21.0110 C   0  0  0  0  0  0  0  0  0  0  0  0
  -29.7940  -17.9500   20.3710 C   0  0  0  0  0  0  0  0  0  0  0  0
  -31.4340  -19.5250   21.2870 C   0  0  0  0  0  0  0  0  0  0  0  0
  -32.7990  -19.7290   21.9180 C   0  0  0  0  0  1  0  0  0  0  0  0
  -29.3810  -16.5480   19.9530 C   0  0  0  0  0  2  0  0  0  0  0  0
  -30.6080  -14.4700   20.3410 C   0  0  0  0  0  0  0  0  0  0  0  0
  -30.3610  -12.3150   19.1960 C   0  0  0  0  0  2  0  0  0  0  0  0
  -29.4060  -12.5460   18.0030 C   0  0  0  0  0  2  0  0  0  0  0  0
  -27.9320  -12.3990   18.4350 C   0  0  0  0  0  2  0  0  0  0  0  0
  -27.6030  -13.2120   19.7150 C   0  0  0  0  0  3  0  0  0  0  0  0
  -28.6630  -12.9450   20.8140 C   0  0  0  0  0  2  0  0  0  0  0  0
  -29.9920  -13.2620   20.2570 N   0  0  0  0  0  0  0  0  0  0  0  0
  -31.7020  -14.7200   19.8260 O   0  0  0  0  0  0  0  0  0  0  0  0
  -29.8100  -15.4380   20.8090 N   0  0  0  0  0  0  0  0  0  0  0  0
  -29.0720  -15.0890   21.4040 H   0  0  0  0  0  0  0  0  0  0  0  0
  -25.1960  -13.8170   20.4180 C   0  0  0  0  0  0  0  0  0  0  0  0
  -24.1350  -13.0420   20.7970 C   0  0  0  0  0  0  0  0  0  0  0  0
  -24.6060  -11.6920   20.7770 C   0  0  0  0  0  0  0  0  0  0  0  0
  -26.2490  -12.9400   20.1920 N   0  0  0  0  0  0  0  0  0  0  0  0
  -25.8950  -11.6590   20.4640 N   0  0  0  0  0  0  0  0  0  0  0  0
  -23.8910  -10.4280   20.9820 C   0  0  0  0  0  0  0  0  0  0  0  0
  -24.3370   -9.4730   21.9230 C   0  0  0  0  0  3  0  0  0  0  0  0
  -23.6240   -8.2700   22.1140 C   0  0  0  0  0  3  0  0  0  0  0  0
  -22.4510   -8.0130   21.3650 C   0  0  0  0  0  0  0  0  0  0  0  0
  -22.0250   -8.9570   20.4140 C   0  0  0  0  0  3  0  0  0  0  0  0
  -22.7380  -10.1510   20.2210 C   0  0  0  0  0  3  0  0  0  0  0  0
  -21.7100   -6.8610   21.4640 O   0  0  0  0  0  0  0  0  0  0  0  0
  -21.6750   -6.1260   22.6210 C   0  0  0  0  0  0  0  0  0  0  0  0
  -21.2440   -6.6830   23.8460 C   0  0  0  0  0  3  0  0  0  0  0  0
  -21.1560   -5.8730   24.9940 C   0  0  0  0  0  3  0  0  0  0  0  0
  -21.4900   -4.5070   24.9220 C   0  0  0  0  0  0  0  0  0  0  0  0
  -21.9140   -3.9500   23.7030 C   0  0  0  0  0  3  0  0  0  0  0  0
  -22.0030   -4.7580   22.5560 C   0  0  0  0  0  0  0  0  0  0  0  0
  -22.3930   -4.2100   21.3780 F   0  0  0  0  0  0  0  0  0  0  0  0
  -21.3980   -3.7270   26.0250 F   0  0  0  0  0  0  0  0  0  0  0  0
  -22.7350  -13.5120   21.0730 C   0  0  0  0  0  0  0  0  0  0  0  0
  -22.0160  -12.8170   21.9480 N   0  0  0  0  0  0  0  0  0  0  0  0
  -22.2870  -14.5300   20.5470 O   0  0  0  0  0  0  0  0  0  0  0  0
  -22.3890  -11.9960   22.3990 H   0  0  0  0  0  0  0  0  0  0  0  0
  -21.0760  -13.1150   22.1750 H   0  0  0  0  0  0  0  0  0  0  0  0
  -25.3480  -15.1860   20.2270 N   0  0  0  0  0  0  0  0  0  0  0  0
  -24.5690  -15.8280   20.3300 H   0  0  0  0  0  0  0  0  0  0  0  0
  -26.1870  -15.6320   19.8840 H   0  0  0  0  0  0  0  0  0  0  0  0
  -30.6230  -26.4570   21.5170 C   0  0  0  0  0  2  0  0  0  0  0  0
  -30.5450  -27.3800   20.2750 C   0  0  0  0  0  2  0  0  0  0  0  0
  -29.3670  -27.1180   19.3170 C   0  0  0  0  0  2  0  0  0  0  0  0
  -28.2140  -26.6770   20.0190 O   0  0  0  0  0  0  0  0  0  0  0  0
  -24.4970  -31.8600   23.1940 C   0  0  0  0  0  0  0  0  0  0  0  0
  -27.1030  -27.4840   20.0070 C   0  0  0  0  0  0  0  0  0  0  0  0
  -23.2660  -30.4940   21.5380 C   0  0  0  0  0  3  0  0  0  0  0  0
  -24.7050  -28.9710   20.0770 C   0  0  0  0  0  0  0  0  0  0  0  0
  -25.7900  -30.8510   21.3170 C   0  0  0  0  0  2  0  0  0  0  0  0
  -25.8710  -29.4920   20.6560 C   0  0  0  0  0  0  0  0  0  0  0  0
  -27.0770  -28.7550   20.6210 C   0  0  0  0  0  3  0  0  0  0  0  0
  -25.9230  -26.9670   19.4370 C   0  0  0  0  0  3  0  0  0  0  0  0
  -24.7250  -27.7060   19.4640 C   0  0  0  0  0  3  0  0  0  0  0  0
  -23.4620  -29.8290   20.1480 C   0  0  0  0  0  2  0  0  0  0  0  0
  -24.5370  -31.0810   22.0750 N   0  0  0  0  0  0  0  0  0  0  0  0
  -23.4230  -32.1290   23.7500 O   0  0  0  0  0  0  0  0  0  0  0  0
  -22.6170  -29.4620   22.4890 C   0  0  0  0  0  0  0  0  0  0  0  0
  -21.2890  -29.2950   22.3770 N   0  0  0  0  0  0  0  0  0  0  0  0
  -23.3050  -28.8140   23.2810 O   0  0  0  0  0  0  0  0  0  0  0  0
  -20.7930  -29.8730   21.7110 H   0  0  0  0  0  0  0  0  0  0  0  0
  -17.9120  -28.1220   22.9050 C   0  0  0  0  0  0  0  0  0  0  0  0
  -20.4750  -28.3480   23.1420 C   0  0  0  0  0  3  0  0  0  0  0  0
  -20.5520  -26.9270   22.5380 C   0  0  0  0  0  2  0  0  0  0  0  0
  -19.4320  -26.6370   21.5330 C   0  0  0  0  0  2  0  0  0  0  0  0
  -18.0630  -26.7850   22.1990 C   0  0  0  0  0  2  0  0  0  0  0  0
  -19.0450  -28.8630   23.3340 C   0  0  0  0  0  0  0  0  0  0  0  0
  -18.8490  -30.1170   23.9520 C   0  0  0  0  0  3  0  0  0  0  0  0
  -17.5520  -30.6310   24.1420 C   0  0  0  0  0  3  0  0  0  0  0  0
  -16.4330  -29.8870   23.7270 C   0  0  0  0  0  3  0  0  0  0  0  0
  -16.6150  -28.6340   23.1160 C   0  0  0  0  0  3  0  0  0  0  0  0
  -25.7950  -32.4700   23.8120 C   0  0  0  0  0  3  0  0  0  0  0  0
  -25.5040  -33.8690   24.1530 N   0  0  0  0  0  0  0  0  0  0  0  0
  -25.8550  -34.9220   23.4020 C   0  0  0  0  0  0  0  0  0  0  0  0
  -26.5290  -34.8160   22.3730 O   0  0  0  0  0  0  0  0  0  0  0  0
  -24.9060  -34.0230   24.9510 H   0  0  0  0  0  0  0  0  0  0  0  0
  -24.1630  -36.7460   23.0390 C   0  0  0  0  0  1  0  0  0  0  0  0
  -25.3850  -36.3140   23.8650 C   0  0  0  0  0  3  0  0  0  0  0  0
  -27.5220  -37.1530   24.7350 C   0  0  0  0  0  1  0  0  0  0  0  0
  -26.4380  -37.3480   23.7760 N   0  0  0  0  0  0  0  0  0  0  0  0
  -26.0460  -38.2750   23.9270 H   0  0  0  0  0  0  0  0  0  0  0  0
  -26.3110  -31.6800   25.0770 C   0  0  1  0  0  0  0  0  0  0  0  0
  -25.2250  -31.4500   26.1530 C   0  0  0  0  0  1  0  0  0  0  0  0
  -26.8700  -30.2970   24.6650 C   0  0  0  0  0  1  0  0  0  0  0  0
  -27.4800  -32.4490   25.7360 C   0  0  0  0  0  1  0  0  0  0  0  0
  1  3  1  0
  1  5  1  0
  2  4  1  0
  3  6  1  0
  5 11  1  0
  5  2  1  0
  6 54  1  0
  6  4  1  0
  6  7  1  6
  8 11  1  0
  9 12  1  0
  9  8  2  0
 10 13  1  0
 11 13  2  0
 12 10  2  0
 13 14  1  0
 15 12  1  0
 15 24  1  0
 16 24  1  0
 17 22  1  0
 18 19  1  0
 18 17  1  0
 20 19  1  0
 20 29  1  0
 20 21  1  0
 22 16  1  0
 22 21  1  0
 23 16  2  0
 24 25  1  0
 26 27  2  0
 27 46  1  0
 28 27  1  0
 28 31  1  0
 29 26  1  0
 29 30  1  0
 30 28  2  0
 31 32  1  0
 32 33  2  0
 34 37  1  0
 34 33  1  0
 35 34  2  0
 36 35  1  0
 36 31  2  0
 37 38  1  0
 38 39  1  0
 39 40  2  0
 41 40  1  0
 41 45  1  0
 42 41  2  0
 43 38  2  0
 43 42  1  0
 44 43  1  0
 46 47  1  0
 47 50  1  0
 47 49  1  0
 48 46  2  0
 51 52  1  0
 51 26  1  0
 53 51  1  0
 55 54  1  0
 56 57  1  0
 56 55  1  0
 58 69  2  0
 59 57  1  0
 59 64  1  0
 60 68  1  0
 60 70  1  0
 61 67  1  0
 61 63  1  0
 62 68  1  0
 63 62  1  0
 64 63  2  0
 65 66  1  0
 65 59  2  0
 66 61  2  0
 67 60  1  0
 68 58  1  0
 70 72  2  0
 71 70  1  0
 73 71  1  0
 74 83  2  0
 74 79  1  0
 75 71  1  0
 75 79  1  0
 76 75  1  0
 77 78  1  0
 77 76  1  0
 78 74  1  0
 79 80  2  0
 80 81  1  0
 82 81  2  0
 83 82  1  0
 84 58  1  0
 84 85  1  0
 84 94  1  0
 85 88  1  0
 86 90  1  0
 86 85  1  0
 87 86  2  0
 90 89  1  0
 92 90  1  0
 92 93  1  0
 92 91  1  0
 94 97  1  1
 94 95  1  0
 96 94  1  0
M  ISO  4  16 100  24 100  56 101  57 101
M  END
>  <TORSDO>  (96) 
F 21

>  <SCORE>  (96) 
-13.951

>  <name>  (96) 
97

>  <ligand_id>  (96) 
97

>  <original_smiles>  (96) 
[H]c1c([H])c([H])c2c(c1[H])C([H])([H])C([H])([H])C([H])([H])C2([H])N([H])C(=O)C1([H])N(C(=O)C([H])(N([H])C(=O)C([H])(N([H])C([H])([H])[H])C([H])([H])[H])C(C([H])([H])[H])(C([H])([H])[H])C([H])([H])[H])C([H])([H])c2c([H])c(OC([H])([H])C([H])([H])C([H])([H])[N+]3([H])C([H])([H])C([H])([H])C([H])(c4c([H])c([H])c(C([H])([H])N([H])C(=O)N5C([H])([H])C([H])([H])C([H])([H])C([H])(n6nc(-c7c([H])c([H])c(Oc8c([H])c([H])c(F)c([H])c8F)c([H])c7[H])c(C(=O)N([H])[H])c6N([H])[H])C5([H])[H])c([H])c4C([H])([H])[H])C([H])([H])C3([H])[H])c([H])c([H])c2C1([H])[H]

>  <smiles>  (96) 
[H]c1c([H])c([H])c2c(c1[H])C([H])([H])C([H])([H])C([H])([H])C2([H])N([H])C(=O)C1([H])N(C(=O)C([H])(N([H])C(=O)C([H])(N([H])C([H])([H])[H])C([H])([H])[H])C(C([H])([H])[H])(C([H])([H])[H])C([H])([H])[H])C([H])([H])c2c([H])c(OC([H])([H])C([H])([H])C([H])([H])[N+]3([H])C([H])([H])C([H])([H])C([H])(c4c([H])c([H])c(C([H])([H])N([H])C(=O)N5C([H])([H])C([H])([H])C([H])([H])C([H])(n6nc(-c7c([H])c([H])c(Oc8c([H])c([H])c(F)c([H])c8F)c([H])c7[H])c(C(=O)N([H])[H])c6N([H])[H])C5([H])[H])c([H])c4C([H])([H])[H])C([H])([H])C3([H])[H])c([H])c([H])c2C1([H])[H]

$$$$
98:0:0
     RDKit          3D

 90 98  0  0  1  0  0  0  0  0999 V2000
  -30.6960  -14.8130   20.4460 C   0  0  0  0  0  0  0  0  0  0  0  0
  -30.3780  -12.5360   19.4520 C   0  0  0  0  0  2  0  0  0  0  0  0
  -29.4780  -12.5490   18.2010 C   0  0  0  0  0  2  0  0  0  0  0  0
  -28.0120  -12.3630   18.6140 C   0  0  0  0  0  2  0  0  0  0  0  0
  -27.6080  -13.3090   19.7740 C   0  0  0  0  0  3  0  0  0  0  0  0
  -28.6410  -13.3180   20.9270 C   0  0  0  0  0  2  0  0  0  0  0  0
  -29.9450  -13.6530   20.3410 N   0  0  0  0  0  0  0  0  0  0  0  0
  -31.8820  -14.7280   20.1140 O   0  0  0  0  0  0  0  0  0  0  0  0
  -31.4700  -18.2080   20.0840 C   0  0  0  0  0  0  0  0  0  0  0  0
  -31.2170  -17.1320   21.1670 C   0  0  0  0  0  2  0  0  0  0  0  0
  -28.5150  -18.1730   20.4000 C   0  0  0  0  0  2  0  0  0  0  0  0
  -28.8480  -16.6880   20.9650 C   0  0  0  0  0  2  0  0  0  0  0  0
  -29.3890  -19.4910   20.6870 C   0  0  0  0  0  3  0  0  0  0  0  0
  -30.6640  -19.2920   19.9860 N   0  0  0  0  0  0  0  0  0  0  0  0
  -30.2180  -16.0910   20.8060 N   0  0  0  0  0  0  0  0  0  0  0  0
  -32.4350  -18.0830   19.3320 O   0  0  0  0  0  0  0  0  0  0  0  0
  -30.9320  -19.9910   19.3060 H   0  0  0  0  0  0  0  0  0  0  0  0
  -25.2170  -13.9230   20.4520 C   0  0  0  0  0  0  0  0  0  0  0  0
  -24.1390  -13.1590   20.8110 C   0  0  0  0  0  0  0  0  0  0  0  0
  -24.5960  -11.8070   20.8130 C   0  0  0  0  0  0  0  0  0  0  0  0
  -26.2580  -13.0350   20.2510 N   0  0  0  0  0  0  0  0  0  0  0  0
  -25.8940  -11.7580   20.5360 N   0  0  0  0  0  0  0  0  0  0  0  0
  -23.8600  -10.5520   21.0050 C   0  0  0  0  0  0  0  0  0  0  0  0
  -24.2790   -9.5870   21.9460 C   0  0  0  0  0  3  0  0  0  0  0  0
  -23.5450   -8.3960   22.1250 C   0  0  0  0  0  3  0  0  0  0  0  0
  -22.3760   -8.1620   21.3620 C   0  0  0  0  0  0  0  0  0  0  0  0
  -21.9780   -9.1140   20.4080 C   0  0  0  0  0  3  0  0  0  0  0  0
  -22.7120  -10.2970   20.2270 C   0  0  0  0  0  3  0  0  0  0  0  0
  -21.6110   -7.0240   21.4530 O   0  0  0  0  0  0  0  0  0  0  0  0
  -21.5580   -6.2800   22.6050 C   0  0  0  0  0  0  0  0  0  0  0  0
  -21.1570   -6.8410   23.8370 C   0  0  0  0  0  3  0  0  0  0  0  0
  -21.0490   -6.0250   24.9810 C   0  0  0  0  0  3  0  0  0  0  0  0
  -21.3350   -4.6490   24.8950 C   0  0  0  0  0  0  0  0  0  0  0  0
  -21.7270   -4.0870   23.6660 C   0  0  0  0  0  3  0  0  0  0  0  0
  -21.8360   -4.9010   22.5260 C   0  0  0  0  0  0  0  0  0  0  0  0
  -22.1940   -4.3510   21.3400 F   0  0  0  0  0  0  0  0  0  0  0  0
  -21.2260   -3.8630   25.9910 F   0  0  0  0  0  0  0  0  0  0  0  0
  -22.7380  -13.6490   21.0400 C   0  0  0  0  0  0  0  0  0  0  0  0
  -21.9880  -12.9740   21.9030 N   0  0  0  0  0  0  0  0  0  0  0  0
  -22.3180  -14.6650   20.4890 O   0  0  0  0  0  0  0  0  0  0  0  0
  -22.3400  -12.1510   22.3710 H   0  0  0  0  0  0  0  0  0  0  0  0
  -21.0450  -13.2810   22.1020 H   0  0  0  0  0  0  0  0  0  0  0  0
  -25.3930  -15.2880   20.2560 N   0  0  0  0  0  0  0  0  0  0  0  0
  -24.6350  -15.9540   20.3610 H   0  0  0  0  0  0  0  0  0  0  0  0
  -26.2540  -15.7150   19.9450 H   0  0  0  0  0  0  0  0  0  0  0  0
  -28.6380  -20.9070   20.3550 C   0  0  0  0  0  2  0  0  0  0  0  0
  -29.3130  -22.3860   20.2780 C   0  0  0  0  0  2  0  0  0  0  0  0
  -28.4180  -23.7300   20.5410 C   0  0  0  0  0  2  0  0  0  0  0  0
  -28.6910  -25.1280   19.7580 C   0  0  0  0  0  2  0  0  0  0  0  0
  -28.4850  -26.5000   20.3330 O   0  0  0  0  0  0  0  0  0  0  0  0
  -24.6490  -31.8890   23.2180 C   0  0  0  0  0  0  0  0  0  0  0  0
  -27.3350  -27.3120   20.2170 C   0  0  0  0  0  0  0  0  0  0  0  0
  -23.4690  -30.4670   21.5770 C   0  0  0  0  0  3  0  0  0  0  0  0
  -24.9450  -28.9150   20.1650 C   0  0  0  0  0  0  0  0  0  0  0  0
  -26.0030  -30.8080   21.4050 C   0  0  0  0  0  2  0  0  0  0  0  0
  -26.1010  -29.4220   20.7690 C   0  0  0  0  0  0  0  0  0  0  0  0
  -27.2900  -28.6300   20.7850 C   0  0  0  0  0  3  0  0  0  0  0  0
  -26.1550  -26.8610   19.5860 C   0  0  0  0  0  3  0  0  0  0  0  0
  -24.9770  -27.6430   19.5630 C   0  0  0  0  0  3  0  0  0  0  0  0
  -23.6960  -29.7760   20.2030 C   0  0  0  0  0  2  0  0  0  0  0  0
  -24.7250  -31.0730   22.1230 N   0  0  0  0  0  0  0  0  0  0  0  0
  -23.5600  -32.1600   23.7450 O   0  0  0  0  0  0  0  0  0  0  0  0
  -22.8070  -29.4570   22.5440 C   0  0  0  0  0  0  0  0  0  0  0  0
  -21.4780  -29.2840   22.4240 N   0  0  0  0  0  0  0  0  0  0  0  0
  -23.4850  -28.8330   23.3640 O   0  0  0  0  0  0  0  0  0  0  0  0
  -20.9890  -29.8360   21.7340 H   0  0  0  0  0  0  0  0  0  0  0  0
  -18.1020  -28.0960   22.9430 C   0  0  0  0  0  0  0  0  0  0  0  0
  -20.6620  -28.3480   23.1990 C   0  0  0  0  0  3  0  0  0  0  0  0
  -20.7580  -26.9170   22.6200 C   0  0  0  0  0  2  0  0  0  0  0  0
  -19.6510  -26.6010   21.6100 C   0  0  0  0  0  2  0  0  0  0  0  0
  -18.2710  -26.7500   22.2580 C   0  0  0  0  0  2  0  0  0  0  0  0
  -19.2240  -28.8530   23.3680 C   0  0  0  0  0  0  0  0  0  0  0  0
  -19.0110  -30.1140   23.9670 C   0  0  0  0  0  3  0  0  0  0  0  0
  -17.7090  -30.6180   24.1410 C   0  0  0  0  0  3  0  0  0  0  0  0
  -16.6000  -29.8560   23.7290 C   0  0  0  0  0  3  0  0  0  0  0  0
  -16.7970  -28.5970   23.1370 C   0  0  0  0  0  3  0  0  0  0  0  0
  -25.9220  -32.5370   23.8440 C   0  0  0  0  0  3  0  0  0  0  0  0
  -26.4470  -31.7700   25.1210 C   0  0  1  0  0  0  0  0  0  0  0  0
  -25.3560  -31.5210   26.1890 C   0  0  0  0  0  1  0  0  0  0  0  0
  -27.0400  -30.3970   24.7290 C   0  0  0  0  0  1  0  0  0  0  0  0
  -27.5890  -32.5750   25.7850 C   0  0  0  0  0  1  0  0  0  0  0  0
  -25.5930  -33.9310   24.1810 N   0  0  0  0  0  0  0  0  0  0  0  0
  -25.9070  -34.9920   23.4270 C   0  0  0  0  0  0  0  0  0  0  0  0
  -26.5740  -34.9040   22.3910 O   0  0  0  0  0  0  0  0  0  0  0  0
  -25.0010  -34.0730   24.9840 H   0  0  0  0  0  0  0  0  0  0  0  0
  -24.1440  -36.7570   23.1010 C   0  0  0  0  0  1  0  0  0  0  0  0
  -25.4040  -36.3720   23.8940 C   0  0  0  0  0  3  0  0  0  0  0  0
  -27.5400  -37.2850   24.6910 C   0  0  0  0  0  1  0  0  0  0  0  0
  -26.4160  -37.4430   23.7700 N   0  0  0  0  0  0  0  0  0  0  0  0
  -25.9970  -38.3530   23.9390 H   0  0  0  0  0  0  0  0  0  0  0  0
  1 15  1  0
  2  7  1  0
  3  4  1  0
  3  2  1  0
  5  4  1  0
  5 21  1  0
  5  6  1  0
  7  1  1  0
  7  6  1  0
  8  1  2  0
  9 10  1  0
 11 13  1  0
 11 12  1  0
 13 46  1  0
 14  9  1  0
 14 13  1  0
 15 12  1  0
 15 10  1  0
 16  9  2  0
 17 14  1  0
 18 19  2  0
 19 20  1  0
 19 38  1  0
 20 23  1  0
 21 18  1  0
 21 22  1  0
 22 20  2  0
 23 24  1  0
 24 25  2  0
 26 29  1  0
 26 25  1  0
 27 26  2  0
 28 27  1  0
 28 23  2  0
 29 30  1  0
 30 31  1  0
 31 32  2  0
 33 32  1  0
 33 37  1  0
 34 33  2  0
 35 30  2  0
 35 34  1  0
 36 35  1  0
 38 39  1  0
 39 42  1  0
 39 41  1  0
 40 38  2  0
 43 44  1  0
 43 18  1  0
 45 43  1  0
 47 46  1  0
 47 48  1  0
 49 50  1  0
 49 48  1  0
 51 62  2  0
 52 50  1  0
 52 57  1  0
 53 61  1  0
 53 63  1  0
 54 60  1  0
 54 56  1  0
 55 61  1  0
 56 57  2  0
 56 55  1  0
 58 52  2  0
 59 58  1  0
 59 54  2  0
 60 53  1  0
 61 51  1  0
 63 65  2  0
 64 63  1  0
 66 64  1  0
 67 76  2  0
 67 72  1  0
 68 64  1  0
 68 72  1  0
 69 68  1  0
 70 71  1  0
 70 69  1  0
 71 67  1  0
 72 73  2  0
 73 74  1  0
 75 74  2  0
 76 75  1  0
 77 51  1  0
 77 82  1  0
 77 78  1  0
 78 81  1  1
 78 79  1  0
 80 78  1  0
 82 85  1  0
 83 87  1  0
 83 82  1  0
 84 83  2  0
 87 86  1  0
 89 87  1  0
 89 90  1  0
 89 88  1  0
M  ISO  4   1 100  15 100  49 101  50 101
M  END
>  <TORSDO>  (97) 
F 19

>  <SCORE>  (97) 
-14.261

>  <name>  (97) 
98

>  <ligand_id>  (97) 
98

>  <original_smiles>  (97) 
[H]c1c([H])c([H])c2c(c1[H])C([H])([H])C([H])([H])C([H])([H])C2([H])N([H])C(=O)C1([H])N(C(=O)C([H])(N([H])C(=O)C([H])(N([H])C([H])([H])[H])C([H])([H])[H])C(C([H])([H])[H])(C([H])([H])[H])C([H])([H])[H])C([H])([H])c2c([H])c(OC([H])([H])C([H])([H])C([H])([H])C([H])([H])C3([H])N([H])C(=O)C([H])([H])N(C(=O)N4C([H])([H])C([H])([H])C([H])([H])C([H])(n5nc(-c6c([H])c([H])c(Oc7c([H])c([H])c(F)c([H])c7F)c([H])c6[H])c(C(=O)N([H])[H])c5N([H])[H])C4([H])[H])C([H])([H])C3([H])[H])c([H])c([H])c2C1([H])[H]

>  <smiles>  (97) 
[H]c1c([H])c([H])c2c(c1[H])C([H])([H])C([H])([H])C([H])([H])C2([H])N([H])C(=O)C1([H])N(C(=O)C([H])(N([H])C(=O)C([H])(N([H])C([H])([H])[H])C([H])([H])[H])C(C([H])([H])[H])(C([H])([H])[H])C([H])([H])[H])C([H])([H])c2c([H])c(OC([H])([H])C([H])([H])C([H])([H])C([H])([H])C3([H])N([H])C(=O)C([H])([H])N(C(=O)N4C([H])([H])C([H])([H])C([H])([H])C([H])(n5nc(-c6c([H])c([H])c(Oc7c([H])c([H])c(F)c([H])c7F)c([H])c6[H])c(C(=O)N([H])[H])c5N([H])[H])C4([H])[H])C([H])([H])C3([H])[H])c([H])c([H])c2C1([H])[H]

$$$$
