0:0:0
     RDKit          3D

 91100  0  0  1  0  0  0  0  0999 V2000
  -30.2580  -19.1140   18.5620 C   0  0  0  0  0  3  0  0  0  0  0  0
  -30.3410  -17.7590   19.0170 C   0  0  0  0  0  3  0  0  0  0  0  0
  -29.2990  -18.4110   21.1060 C   0  0  0  0  0  3  0  0  0  0  0  0
  -29.7090  -20.1280   19.3870 C   0  0  0  0  0  0  0  0  0  0  0  0
  -29.2520  -19.7880   20.6510 C   0  0  0  0  0  0  0  0  0  0  0  0
  -29.8520  -17.3460   20.2920 C   0  0  0  0  0  0  0  0  0  0  0  0
  -29.5040  -21.6040   19.1270 C   0  0  0  0  0  0  0  0  0  0  0  0
  -28.7230  -21.0750   21.3430 C   0  0  0  0  0  2  0  0  0  0  0  0
  -29.1480  -22.3340   20.4540 C   0  0  0  0  0  3  0  0  0  0  0  0
  -29.6290  -22.1880   18.0460 O   0  0  0  0  0  0  0  0  0  0  0  0
  -30.5750  -14.7990   20.3440 C   0  0  0  0  0  0  0  0  0  0  0  0
  -30.4080  -12.5030   19.3670 C   0  0  0  0  0  2  0  0  0  0  0  0
  -29.4840  -12.5680   18.1300 C   0  0  0  0  0  2  0  0  0  0  0  0
  -28.0090  -12.4030   18.5420 C   0  0  0  0  0  2  0  0  0  0  0  0
  -27.6220  -13.2920   19.7540 C   0  0  0  0  0  3  0  0  0  0  0  0
  -28.6690  -13.2020   20.8870 C   0  0  0  0  0  2  0  0  0  0  0  0
  -29.9730  -13.5570   20.3140 N   0  0  0  0  0  0  0  0  0  0  0  0
  -31.7440  -14.9160   19.9620 O   0  0  0  0  0  0  0  0  0  0  0  0
  -29.8040  -15.9040   20.6890 N   0  0  0  0  0  0  0  0  0  0  0  0
  -28.9680  -15.6470   21.1910 H   0  0  0  0  0  0  0  0  0  0  0  0
  -25.2240  -13.8910   20.4410 C   0  0  0  0  0  0  0  0  0  0  0  0
  -24.1530  -13.1220   20.8040 C   0  0  0  0  0  0  0  0  0  0  0  0
  -24.6150  -11.7700   20.7960 C   0  0  0  0  0  0  0  0  0  0  0  0
  -26.2710  -13.0100   20.2280 N   0  0  0  0  0  0  0  0  0  0  0  0
  -25.9100  -11.7290   20.5050 N   0  0  0  0  0  0  0  0  0  0  0  0
  -23.8870  -10.5100   20.9910 C   0  0  0  0  0  0  0  0  0  0  0  0
  -24.3100   -9.5490   21.9350 C   0  0  0  0  0  3  0  0  0  0  0  0
  -23.5800   -8.3560   22.1190 C   0  0  0  0  0  3  0  0  0  0  0  0
  -22.4110   -8.1130   21.3570 C   0  0  0  0  0  0  0  0  0  0  0  0
  -22.0070   -9.0630   20.4020 C   0  0  0  0  0  3  0  0  0  0  0  0
  -22.7390  -10.2480   20.2170 C   0  0  0  0  0  3  0  0  0  0  0  0
  -21.6560   -6.9690   21.4490 O   0  0  0  0  0  0  0  0  0  0  0  0
  -21.6000   -6.2330   22.6040 C   0  0  0  0  0  0  0  0  0  0  0  0
  -21.1760   -6.7970   23.8280 C   0  0  0  0  0  3  0  0  0  0  0  0
  -21.0670   -5.9870   24.9760 C   0  0  0  0  0  3  0  0  0  0  0  0
  -21.3720   -4.6150   24.9030 C   0  0  0  0  0  0  0  0  0  0  0  0
  -21.7900   -4.0500   23.6850 C   0  0  0  0  0  3  0  0  0  0  0  0
  -21.9000   -4.8560   22.5380 C   0  0  0  0  0  0  0  0  0  0  0  0
  -22.2820   -4.3030   21.3620 F   0  0  0  0  0  0  0  0  0  0  0  0
  -21.2600   -3.8350   26.0040 F   0  0  0  0  0  0  0  0  0  0  0  0
  -22.7520  -13.6030   21.0510 C   0  0  0  0  0  0  0  0  0  0  0  0
  -22.0110  -12.9160   21.9120 N   0  0  0  0  0  0  0  0  0  0  0  0
  -22.3220  -14.6230   20.5130 O   0  0  0  0  0  0  0  0  0  0  0  0
  -22.3700  -12.0910   22.3700 H   0  0  0  0  0  0  0  0  0  0  0  0
  -21.0710  -13.2230   22.1200 H   0  0  0  0  0  0  0  0  0  0  0  0
  -25.3920  -15.2600   20.2500 N   0  0  0  0  0  0  0  0  0  0  0  0
  -24.6300  -15.9220   20.3510 H   0  0  0  0  0  0  0  0  0  0  0  0
  -26.2460  -15.6920   19.9200 H   0  0  0  0  0  0  0  0  0  0  0  0
  -28.2450  -23.7060   20.4940 C   0  0  0  0  0  2  0  0  0  0  0  0
  -28.5930  -25.0750   19.6920 C   0  0  0  0  0  2  0  0  0  0  0  0
  -28.4320  -26.4640   20.2520 O   0  0  0  0  0  0  0  0  0  0  0  0
  -24.6250  -31.8660   23.2040 C   0  0  0  0  0  0  0  0  0  0  0  0
  -27.2910  -27.2930   20.1560 C   0  0  0  0  0  0  0  0  0  0  0  0
  -23.4430  -30.4630   21.5480 C   0  0  0  0  0  3  0  0  0  0  0  0
  -24.9150  -28.9160   20.1250 C   0  0  0  0  0  0  0  0  0  0  0  0
  -25.9830  -30.7880   21.3870 C   0  0  0  0  0  2  0  0  0  0  0  0
  -26.0750  -29.4070   20.7360 C   0  0  0  0  0  0  0  0  0  0  0  0
  -27.2590  -28.6060   20.7410 C   0  0  0  0  0  3  0  0  0  0  0  0
  -26.1070  -26.8590   19.5240 C   0  0  0  0  0  3  0  0  0  0  0  0
  -24.9360  -27.6500   19.5110 C   0  0  0  0  0  3  0  0  0  0  0  0
  -23.6720  -29.7860   20.1690 C   0  0  0  0  0  2  0  0  0  0  0  0
  -24.7020  -31.0600   22.1020 N   0  0  0  0  0  0  0  0  0  0  0  0
  -23.5360  -32.1360   23.7310 O   0  0  0  0  0  0  0  0  0  0  0  0
  -22.7770  -29.4460   22.5040 C   0  0  0  0  0  0  0  0  0  0  0  0
  -21.4500  -29.2730   22.3760 N   0  0  0  0  0  0  0  0  0  0  0  0
  -23.4530  -28.8120   23.3190 O   0  0  0  0  0  0  0  0  0  0  0  0
  -20.9630  -29.8350   21.6920 H   0  0  0  0  0  0  0  0  0  0  0  0
  -18.0700  -28.0790   22.8690 C   0  0  0  0  0  0  0  0  0  0  0  0
  -20.6290  -28.3300   23.1390 C   0  0  0  0  0  3  0  0  0  0  0  0
  -20.7280  -26.9040   22.5480 C   0  0  0  0  0  2  0  0  0  0  0  0
  -19.6240  -26.5950   21.5330 C   0  0  0  0  0  2  0  0  0  0  0  0
  -18.2430  -26.7360   22.1810 C   0  0  0  0  0  2  0  0  0  0  0  0
  -19.1910  -28.8350   23.3050 C   0  0  0  0  0  0  0  0  0  0  0  0
  -18.9760  -30.0920   23.9100 C   0  0  0  0  0  3  0  0  0  0  0  0
  -17.6720  -30.5930   24.0860 C   0  0  0  0  0  3  0  0  0  0  0  0
  -16.5660  -29.8340   23.6650 C   0  0  0  0  0  3  0  0  0  0  0  0
  -16.7660  -28.5790   23.0630 C   0  0  0  0  0  3  0  0  0  0  0  0
  -25.8980  -32.5050   23.8390 C   0  0  0  0  0  3  0  0  0  0  0  0
  -25.5760  -33.8990   24.1790 N   0  0  0  0  0  0  0  0  0  0  0  0
  -25.9060  -34.9610   23.4310 C   0  0  0  0  0  0  0  0  0  0  0  0
  -26.5830  -34.8710   22.4040 O   0  0  0  0  0  0  0  0  0  0  0  0
  -24.9750  -34.0430   24.9770 H   0  0  0  0  0  0  0  0  0  0  0  0
  -24.1690  -36.7470   23.0880 C   0  0  0  0  0  1  0  0  0  0  0  0
  -25.4110  -36.3440   23.8980 C   0  0  0  0  0  3  0  0  0  0  0  0
  -27.5340  -37.2400   24.7430 C   0  0  0  0  0  1  0  0  0  0  0  0
  -26.4370  -37.4020   23.7930 N   0  0  0  0  0  0  0  0  0  0  0  0
  -26.0260  -38.3210   23.9360 H   0  0  0  0  0  0  0  0  0  0  0  0
  -26.4100  -31.7310   25.1170 C   0  0  1  0  0  0  0  0  0  0  0  0
  -25.3130  -31.4850   26.1780 C   0  0  0  0  0  1  0  0  0  0  0  0
  -27.0030  -30.3570   24.7250 C   0  0  0  0  0  1  0  0  0  0  0  0
  -27.5540  -32.5280   25.7900 C   0  0  0  0  0  1  0  0  0  0  0  0
  1  2  2  0
  1  4  1  0
  2  6  1  0
  4  5  2  0
  5  3  1  0
  5  8  1  0
  6 19  1  0
  6  3  2  0
  7  4  1  0
  7  9  1  0
  9 49  1  0
  9  8  1  0
 10  7  2  0
 11 19  1  0
 12 17  1  0
 13 14  1  0
 13 12  1  0
 15 14  1  0
 15 24  1  0
 15 16  1  0
 17 11  1  0
 17 16  1  0
 18 11  2  0
 19 20  1  0
 21 22  2  0
 22 41  1  0
 23 22  1  0
 23 26  1  0
 24 21  1  0
 24 25  1  0
 25 23  2  0
 26 27  1  0
 27 28  2  0
 29 32  1  0
 29 28  1  0
 30 29  2  0
 31 30  1  0
 31 26  2  0
 32 33  1  0
 33 34  1  0
 34 35  2  0
 36 35  1  0
 36 40  1  0
 37 36  2  0
 38 33  2  0
 38 37  1  0
 39 38  1  0
 41 42  1  0
 42 45  1  0
 42 44  1  0
 43 41  2  0
 46 47  1  0
 46 21  1  0
 48 46  1  0
 50 51  1  0
 50 49  1  0
 52 63  2  0
 53 51  1  0
 53 58  1  0
 54 62  1  0
 54 64  1  0
 55 61  1  0
 55 57  1  0
 56 62  1  0
 57 58  2  0
 57 56  1  0
 59 53  2  0
 60 59  1  0
 60 55  2  0
 61 54  1  0
 62 52  1  0
 64 66  2  0
 65 64  1  0
 67 65  1  0
 68 77  2  0
 68 73  1  0
 69 65  1  0
 69 73  1  0
 70 69  1  0
 71 72  1  0
 71 70  1  0
 72 68  1  0
 73 74  2  0
 74 75  1  0
 76 75  2  0
 77 76  1  0
 78 52  1  0
 78 79  1  0
 78 88  1  0
 79 82  1  0
 80 84  1  0
 80 79  1  0
 81 80  2  0
 84 83  1  0
 86 84  1  0
 86 87  1  0
 86 85  1  0
 88 91  1  1
 88 89  1  0
 90 88  1  0
M  ISO  4  11 100  19 100  50 101  51 101
M  END
>  <TORSDO>  (1) 
F 18

>  <SCORE>  (1) 
-14.481

>  <name>  (1) 
0

>  <ligand_id>  (1) 
0

>  <original_smiles>  (1) 
[H]c1c([H])c([H])c2c(c1[H])C([H])([H])C([H])([H])C([H])([H])C2([H])N([H])C(=O)C1([H])N(C(=O)C([H])(N([H])C(=O)C([H])(N([H])C([H])([H])[H])C([H])([H])[H])C(C([H])([H])[H])(C([H])([H])[H])C([H])([H])[H])C([H])([H])c2c([H])c(OC([H])([H])C([H])([H])C3([H])C(=O)c4c([H])c([H])c(N([H])C(=O)N5C([H])([H])C([H])([H])C([H])([H])C([H])(n6nc(-c7c([H])c([H])c(Oc8c([H])c([H])c(F)c([H])c8F)c([H])c7[H])c(C(=O)N([H])[H])c6N([H])[H])C5([H])[H])c([H])c4C3([H])[H])c([H])c([H])c2C1([H])[H]

>  <smiles>  (1) 
[H]c1c([H])c([H])c2c(c1[H])C([H])([H])C([H])([H])C([H])([H])C2([H])N([H])C(=O)C1([H])N(C(=O)C([H])(N([H])C(=O)C([H])(N([H])C([H])([H])[H])C([H])([H])[H])C(C([H])([H])[H])(C([H])([H])[H])C([H])([H])[H])C([H])([H])c2c([H])c(OC([H])([H])C([H])([H])C3([H])C(=O)c4c([H])c([H])c(N([H])C(=O)N5C([H])([H])C([H])([H])C([H])([H])C([H])(n6nc(-c7c([H])c([H])c(Oc8c([H])c([H])c(F)c([H])c8F)c([H])c7[H])c(C(=O)N([H])[H])c6N([H])[H])C5([H])[H])c([H])c4C3([H])[H])c([H])c([H])c2C1([H])[H]

$$$$
1:0:0
     RDKit          3D

 89 97  0  0  1  0  0  0  0  0999 V2000
  -28.8500  -21.3520   21.0970 C   0  0  0  0  0  3  0  0  0  0  0  0
  -29.1740  -22.1720   20.0520 C   0  0  0  0  0  0  0  0  0  0  0  0
  -29.7280  -21.3890   18.8950 C   0  0  0  0  0  0  0  0  0  0  0  0
  -29.0130  -19.7760   21.2190 C   0  0  0  0  0  2  0  0  0  0  0  0
  -30.3300  -19.9500   19.1080 C   0  0  0  0  0  2  0  0  0  0  0  0
  -29.5390  -18.9170   19.9850 C   0  0  0  0  0  3  0  0  0  0  0  0
  -29.7710  -21.8550   17.7540 O   0  0  0  0  0  0  0  0  0  0  0  0
  -29.2590  -23.8010   19.9970 C   0  0  0  0  0  3  0  0  0  0  0  0
  -28.1070  -24.8940   20.3960 C   0  0  0  0  0  3  0  0  0  0  0  0
  -28.3250  -26.4050   20.2280 O   0  0  0  0  0  0  0  0  0  0  0  0
  -24.6100  -31.9410   23.2430 C   0  0  0  0  0  0  0  0  0  0  0  0
  -27.2280  -27.3160   20.1990 C   0  0  0  0  0  0  0  0  0  0  0  0
  -23.4120  -30.5320   21.6110 C   0  0  0  0  0  3  0  0  0  0  0  0
  -24.8680  -28.9840   20.1780 C   0  0  0  0  0  0  0  0  0  0  0  0
  -25.9560  -30.8490   21.4210 C   0  0  0  0  0  2  0  0  0  0  0  0
  -26.0420  -29.4620   20.7740 C   0  0  0  0  0  0  0  0  0  0  0  0
  -27.2250  -28.6440   20.7650 C   0  0  0  0  0  3  0  0  0  0  0  0
  -26.0300  -26.9260   19.5620 C   0  0  0  0  0  3  0  0  0  0  0  0
  -24.8730  -27.7290   19.5550 C   0  0  0  0  0  3  0  0  0  0  0  0
  -23.6280  -29.8580   20.2310 C   0  0  0  0  0  2  0  0  0  0  0  0
  -24.6780  -31.1270   22.1470 N   0  0  0  0  0  0  0  0  0  0  0  0
  -23.5240  -32.2110   23.7790 O   0  0  0  0  0  0  0  0  0  0  0  0
  -22.7590  -29.5120   22.5760 C   0  0  0  0  0  0  0  0  0  0  0  0
  -21.4390  -29.2970   22.4330 N   0  0  0  0  0  0  0  0  0  0  0  0
  -23.4410  -28.9180   23.4160 O   0  0  0  0  0  0  0  0  0  0  0  0
  -20.9450  -29.8310   21.7320 H   0  0  0  0  0  0  0  0  0  0  0  0
  -18.0870  -28.0140   22.9180 C   0  0  0  0  0  0  0  0  0  0  0  0
  -20.6360  -28.3460   23.2070 C   0  0  0  0  0  3  0  0  0  0  0  0
  -20.7810  -26.9120   22.6500 C   0  0  0  0  0  2  0  0  0  0  0  0
  -19.6970  -26.5470   21.6300 C   0  0  0  0  0  2  0  0  0  0  0  0
  -18.3060  -26.6620   22.2580 C   0  0  0  0  0  2  0  0  0  0  0  0
  -19.1810  -28.8100   23.3490 C   0  0  0  0  0  0  0  0  0  0  0  0
  -18.9210  -30.0720   23.9270 C   0  0  0  0  0  3  0  0  0  0  0  0
  -17.6020  -30.5380   24.0780 C   0  0  0  0  0  3  0  0  0  0  0  0
  -16.5230  -29.7390   23.6610 C   0  0  0  0  0  3  0  0  0  0  0  0
  -16.7670  -28.4790   23.0880 C   0  0  0  0  0  3  0  0  0  0  0  0
  -25.8860  -32.5900   23.8600 C   0  0  0  0  0  3  0  0  0  0  0  0
  -26.4030  -31.8370   25.1490 C   0  0  1  0  0  0  0  0  0  0  0  0
  -25.3050  -31.5990   26.2120 C   0  0  0  0  0  1  0  0  0  0  0  0
  -27.0030  -30.4610   24.7780 C   0  0  0  0  0  1  0  0  0  0  0  0
  -27.5440  -32.6500   25.8080 C   0  0  0  0  0  1  0  0  0  0  0  0
  -25.5690  -33.9900   24.1780 N   0  0  0  0  0  0  0  0  0  0  0  0
  -25.9030  -35.0420   23.4160 C   0  0  0  0  0  0  0  0  0  0  0  0
  -26.5830  -34.9330   22.3920 O   0  0  0  0  0  0  0  0  0  0  0  0
  -24.9690  -34.1490   24.9750 H   0  0  0  0  0  0  0  0  0  0  0  0
  -24.1920  -36.8420   23.0130 C   0  0  0  0  0  1  0  0  0  0  0  0
  -25.4070  -36.4320   23.8600 C   0  0  0  0  0  3  0  0  0  0  0  0
  -27.5140  -37.3120   24.7630 C   0  0  0  0  0  1  0  0  0  0  0  0
  -26.4480  -37.4810   23.7790 N   0  0  0  0  0  0  0  0  0  0  0  0
  -26.0390  -38.4030   23.9080 H   0  0  0  0  0  0  0  0  0  0  0  0
  -30.4360  -17.5570   20.2940 C   0  0  0  0  0  2  0  0  0  0  0  0
  -30.6890  -14.9280   20.1220 C   0  0  0  0  0  0  0  0  0  0  0  0
  -30.4780  -12.6340   19.1300 C   0  0  0  0  0  2  0  0  0  0  0  0
  -29.5110  -12.6840   17.9280 C   0  0  0  0  0  2  0  0  0  0  0  0
  -28.0500  -12.5140   18.3910 C   0  0  0  0  0  2  0  0  0  0  0  0
  -27.7050  -13.3990   19.6190 C   0  0  0  0  0  3  0  0  0  0  0  0
  -28.7920  -13.3300   20.7140 C   0  0  0  0  0  2  0  0  0  0  0  0
  -30.0620  -13.6970   20.0780 N   0  0  0  0  0  0  0  0  0  0  0  0
  -31.8790  -15.0020   19.8030 O   0  0  0  0  0  0  0  0  0  0  0  0
  -29.9360  -16.0930   20.3080 N   0  0  0  0  0  0  0  0  0  0  0  0
  -28.9550  -15.9530   20.4930 H   0  0  0  0  0  0  0  0  0  0  0  0
  -25.3470  -13.9890   20.4340 C   0  0  0  0  0  0  0  0  0  0  0  0
  -24.2900  -13.2150   20.8260 C   0  0  0  0  0  0  0  0  0  0  0  0
  -24.7440  -11.8610   20.7610 C   0  0  0  0  0  0  0  0  0  0  0  0
  -26.3770  -13.1060   20.1490 N   0  0  0  0  0  0  0  0  0  0  0  0
  -26.0250  -11.8210   20.4110 N   0  0  0  0  0  0  0  0  0  0  0  0
  -24.0140  -10.6010   20.9520 C   0  0  0  0  0  0  0  0  0  0  0  0
  -24.4320   -9.6430   21.9020 C   0  0  0  0  0  3  0  0  0  0  0  0
  -23.7030   -8.4480   22.0840 C   0  0  0  0  0  3  0  0  0  0  0  0
  -22.5410   -8.2030   21.3140 C   0  0  0  0  0  0  0  0  0  0  0  0
  -22.1420   -9.1490   20.3530 C   0  0  0  0  0  3  0  0  0  0  0  0
  -22.8730  -10.3350   20.1710 C   0  0  0  0  0  3  0  0  0  0  0  0
  -21.7840   -7.0580   21.4030 O   0  0  0  0  0  0  0  0  0  0  0  0
  -21.6720   -6.3590   22.5770 C   0  0  0  0  0  0  0  0  0  0  0  0
  -21.1240   -6.9390   23.7420 C   0  0  0  0  0  3  0  0  0  0  0  0
  -20.9640   -6.1650   24.9070 C   0  0  0  0  0  3  0  0  0  0  0  0
  -21.3400   -4.8080   24.9080 C   0  0  0  0  0  0  0  0  0  0  0  0
  -21.8800   -4.2260   23.7460 C   0  0  0  0  0  3  0  0  0  0  0  0
  -22.0430   -4.9980   22.5850 C   0  0  0  0  0  0  0  0  0  0  0  0
  -22.5430   -4.4270   21.4620 F   0  0  0  0  0  0  0  0  0  0  0  0
  -21.1790   -4.0600   26.0230 F   0  0  0  0  0  0  0  0  0  0  0  0
  -22.9040  -13.6960   21.1450 C   0  0  0  0  0  0  0  0  0  0  0  0
  -22.1880  -12.9840   22.0070 N   0  0  0  0  0  0  0  0  0  0  0  0
  -22.4640  -14.7380   20.6610 O   0  0  0  0  0  0  0  0  0  0  0  0
  -22.5520  -12.1390   22.4210 H   0  0  0  0  0  0  0  0  0  0  0  0
  -21.2610  -13.2950   22.2610 H   0  0  0  0  0  0  0  0  0  0  0  0
  -25.5140  -15.3610   20.2670 N   0  0  0  0  0  0  0  0  0  0  0  0
  -24.7530  -16.0190   20.4060 H   0  0  0  0  0  0  0  0  0  0  0  0
  -26.3410  -15.7950   19.8780 H   0  0  0  0  0  0  0  0  0  0  0  0
  1  4  1  0
  2  1  2  0
  3  5  1  0
  3  2  1  0
  5  6  1  0
  6 51  1  0
  6  4  1  0
  7  3  2  0
  8  2  1  0
  8  9  2  0
 10  9  1  0
 11 22  2  0
 12 10  1  0
 12 17  1  0
 13 21  1  0
 13 23  1  0
 14 20  1  0
 14 16  1  0
 15 21  1  0
 16 15  1  0
 17 16  2  0
 18 12  2  0
 19 18  1  0
 19 14  2  0
 20 13  1  0
 21 11  1  0
 23 25  2  0
 24 23  1  0
 26 24  1  0
 27 36  2  0
 27 32  1  0
 28 24  1  0
 28 32  1  0
 29 28  1  0
 30 31  1  0
 30 29  1  0
 31 27  1  0
 32 33  2  0
 33 34  1  0
 35 34  2  0
 36 35  1  0
 37 11  1  0
 37 42  1  0
 37 38  1  0
 38 41  1  1
 38 39  1  0
 40 38  1  0
 42 45  1  0
 43 47  1  0
 43 42  1  0
 44 43  2  0
 47 46  1  0
 49 47  1  0
 49 50  1  0
 49 48  1  0
 51 60  1  0
 52 60  1  0
 53 58  1  0
 54 55  1  0
 54 53  1  0
 56 55  1  0
 56 65  1  0
 56 57  1  0
 58 52  1  0
 58 57  1  0
 59 52  2  0
 60 61  1  0
 62 63  2  0
 63 82  1  0
 64 63  1  0
 64 67  1  0
 65 66  1  0
 65 62  1  0
 66 64  2  0
 67 68  1  0
 68 69  2  0
 70 73  1  0
 70 69  1  0
 71 70  2  0
 72 71  1  0
 72 67  2  0
 73 74  1  0
 74 79  2  0
 74 75  1  0
 75 76  2  0
 76 77  1  0
 77 81  1  0
 78 77  2  0
 79 78  1  0
 80 79  1  0
 82 83  1  0
 83 86  1  0
 83 85  1  0
 84 82  2  0
 87 88  1  0
 87 62  1  0
 89 87  1  0
M  ISO  4   9 101  10 101  52 100  60 100
M  END
>  <TORSDO>  (2) 
F 19

>  <SCORE>  (2) 
-13.833

>  <name>  (2) 
1

>  <ligand_id>  (2) 
1

>  <original_smiles>  (2) 
[H]C1=C(C([H])([H])C([H])([H])Oc2c([H])c([H])c3c(c2[H])C([H])([H])N(C(=O)C([H])(N([H])C(=O)C([H])(N([H])C([H])([H])[H])C([H])([H])[H])C(C([H])([H])[H])(C([H])([H])[H])C([H])([H])[H])C([H])(C(=O)N([H])C2([H])c4c([H])c([H])c([H])c([H])c4C([H])([H])C([H])([H])C2([H])[H])C3([H])[H])C(=O)C([H])([H])C([H])(C([H])([H])N([H])C(=O)N2C([H])([H])C([H])([H])C([H])([H])C([H])(n3nc(-c4c([H])c([H])c(Oc5c([H])c([H])c(F)c([H])c5F)c([H])c4[H])c(C(=O)N([H])[H])c3N([H])[H])C2([H])[H])C1([H])[H]

>  <smiles>  (2) 
[H]C1=C(C([H])([H])C([H])([H])Oc2c([H])c([H])c3c(c2[H])C([H])([H])N(C(=O)C([H])(N([H])C(=O)C([H])(N([H])C([H])([H])[H])C([H])([H])[H])C(C([H])([H])[H])(C([H])([H])[H])C([H])([H])[H])C([H])(C(=O)N([H])C2([H])c4c([H])c([H])c([H])c([H])c4C([H])([H])C([H])([H])C2([H])[H])C3([H])[H])C(=O)C([H])([H])C([H])(C([H])([H])N([H])C(=O)N2C([H])([H])C([H])([H])C([H])([H])C([H])(n3nc(-c4c([H])c([H])c(Oc5c([H])c([H])c(F)c([H])c5F)c([H])c4[H])c(C(=O)N([H])[H])c3N([H])[H])C2([H])[H])C1([H])[H]

$$$$
2:0:0
     RDKit          3D

 89 98  0  0  1  0  0  0  0  0999 V2000
  -28.5860  -21.6730   18.6000 C   0  0  0  0  0  2  0  0  0  0  0  0
  -28.4840  -20.9530   19.9050 C   0  0  0  0  0  3  0  0  0  0  0  0
  -28.8120  -22.5310   19.8400 C   0  0  0  0  0  3  0  0  0  0  0  0
  -31.8540  -19.0730   20.1570 C   0  0  0  0  0  3  0  0  0  0  0  0
  -30.8670  -20.0610   20.0240 C   0  0  0  0  0  3  0  0  0  0  0  0
  -31.5150  -17.7260   20.3930 C   0  0  0  0  0  3  0  0  0  0  0  0
  -29.1700  -18.3480   20.3330 C   0  0  0  0  0  3  0  0  0  0  0  0
  -29.4920  -19.7560   20.1230 C   0  0  0  0  0  0  0  0  0  0  0  0
  -30.1600  -17.2840   20.4640 C   0  0  0  0  0  0  0  0  0  0  0  0
  -29.8050  -15.9000   20.6410 O   0  0  0  0  0  0  0  0  0  0  0  0
  -30.6390  -14.7280   20.3480 C   0  0  0  0  0  0  0  0  0  0  0  0
  -30.3680  -12.4230   19.3790 C   0  0  0  0  0  2  0  0  0  0  0  0
  -29.4440  -12.5440   18.1470 C   0  0  0  0  0  2  0  0  0  0  0  0
  -27.9680  -12.3970   18.5620 C   0  0  0  0  0  2  0  0  0  0  0  0
  -27.5980  -13.2760   19.7900 C   0  0  0  0  0  3  0  0  0  0  0  0
  -28.6510  -13.1900   20.9160 C   0  0  0  0  0  2  0  0  0  0  0  0
  -29.9640  -13.4740   20.3360 N   0  0  0  0  0  0  0  0  0  0  0  0
  -31.8070  -14.8140   19.9720 O   0  0  0  0  0  0  0  0  0  0  0  0
  -25.2090  -13.8490   20.5260 C   0  0  0  0  0  0  0  0  0  0  0  0
  -24.1470  -13.0760   20.8990 C   0  0  0  0  0  0  0  0  0  0  0  0
  -24.6180  -11.7230   20.8700 C   0  0  0  0  0  0  0  0  0  0  0  0
  -26.2590  -12.9770   20.2870 N   0  0  0  0  0  0  0  0  0  0  0  0
  -25.9080  -11.6930   20.5560 N   0  0  0  0  0  0  0  0  0  0  0  0
  -23.8940  -10.4580   21.0610 C   0  0  0  0  0  0  0  0  0  0  0  0
  -24.3330   -9.4870   21.9900 C   0  0  0  0  0  3  0  0  0  0  0  0
  -23.6110   -8.2870   22.1710 C   0  0  0  0  0  3  0  0  0  0  0  0
  -22.4320   -8.0500   21.4230 C   0  0  0  0  0  0  0  0  0  0  0  0
  -22.0110   -9.0100   20.4860 C   0  0  0  0  0  3  0  0  0  0  0  0
  -22.7330  -10.2020   20.3040 C   0  0  0  0  0  3  0  0  0  0  0  0
  -21.6820   -6.9040   21.5110 O   0  0  0  0  0  0  0  0  0  0  0  0
  -21.6510   -6.1540   22.6580 C   0  0  0  0  0  0  0  0  0  0  0  0
  -21.2410   -6.6980   23.8950 C   0  0  0  0  0  3  0  0  0  0  0  0
  -21.1560   -5.8740   25.0340 C   0  0  0  0  0  3  0  0  0  0  0  0
  -21.4670   -4.5060   24.9350 C   0  0  0  0  0  0  0  0  0  0  0  0
  -21.8710   -3.9590   23.7030 C   0  0  0  0  0  3  0  0  0  0  0  0
  -21.9570   -4.7820   22.5670 C   0  0  0  0  0  0  0  0  0  0  0  0
  -22.3220   -4.2460   21.3770 F   0  0  0  0  0  0  0  0  0  0  0  0
  -21.3800   -3.7110   26.0280 F   0  0  0  0  0  0  0  0  0  0  0  0
  -22.7480  -13.5490   21.1650 C   0  0  0  0  0  0  0  0  0  0  0  0
  -22.0140  -12.8580   22.0290 N   0  0  0  0  0  0  0  0  0  0  0  0
  -22.3080  -14.5700   20.6400 O   0  0  0  0  0  0  0  0  0  0  0  0
  -22.3650  -12.0260   22.4800 H   0  0  0  0  0  0  0  0  0  0  0  0
  -21.0790  -13.1700   22.2500 H   0  0  0  0  0  0  0  0  0  0  0  0
  -25.3750  -15.2210   20.3370 N   0  0  0  0  0  0  0  0  0  0  0  0
  -24.6180  -15.8870   20.4390 H   0  0  0  0  0  0  0  0  0  0  0  0
  -26.2390  -15.6450   20.0220 H   0  0  0  0  0  0  0  0  0  0  0  0
  -27.9500  -23.8650   19.7190 C   0  0  0  0  0  2  0  0  0  0  0  0
  -28.1910  -25.0980   20.7010 C   0  0  0  0  0  2  0  0  0  0  0  0
  -28.3220  -26.4800   20.1820 O   0  0  0  0  0  0  0  0  0  0  0  0
  -24.6420  -31.8710   23.2590 C   0  0  0  0  0  0  0  0  0  0  0  0
  -27.2070  -27.3200   20.1860 C   0  0  0  0  0  0  0  0  0  0  0  0
  -23.4220  -30.4760   21.6250 C   0  0  0  0  0  3  0  0  0  0  0  0
  -24.8500  -28.9230   20.1870 C   0  0  0  0  0  0  0  0  0  0  0  0
  -25.9530  -30.7990   21.4110 C   0  0  0  0  0  2  0  0  0  0  0  0
  -26.0240  -29.4200   20.7710 C   0  0  0  0  0  0  0  0  0  0  0  0
  -27.2090  -28.6300   20.7580 C   0  0  0  0  0  3  0  0  0  0  0  0
  -26.0150  -26.8720   19.5870 C   0  0  0  0  0  3  0  0  0  0  0  0
  -24.8460  -27.6550   19.5850 C   0  0  0  0  0  3  0  0  0  0  0  0
  -23.6210  -29.8040   20.2400 C   0  0  0  0  0  2  0  0  0  0  0  0
  -24.6930  -31.0640   22.1580 N   0  0  0  0  0  0  0  0  0  0  0  0
  -23.5640  -32.1500   23.8050 O   0  0  0  0  0  0  0  0  0  0  0  0
  -22.7660  -29.4570   22.5890 C   0  0  0  0  0  0  0  0  0  0  0  0
  -21.4380  -29.2810   22.4740 N   0  0  0  0  0  0  0  0  0  0  0  0
  -23.4510  -28.8350   23.4040 O   0  0  0  0  0  0  0  0  0  0  0  0
  -20.9360  -29.8530   21.8110 H   0  0  0  0  0  0  0  0  0  0  0  0
  -18.0710  -28.0620   22.9650 C   0  0  0  0  0  0  0  0  0  0  0  0
  -20.6270  -28.3430   23.2470 C   0  0  0  0  0  3  0  0  0  0  0  0
  -20.7360  -26.9070   22.6850 C   0  0  0  0  0  2  0  0  0  0  0  0
  -19.6440  -26.5710   21.6670 C   0  0  0  0  0  2  0  0  0  0  0  0
  -18.2580  -26.7090   22.3040 C   0  0  0  0  0  2  0  0  0  0  0  0
  -19.1830  -28.8350   23.3940 C   0  0  0  0  0  0  0  0  0  0  0  0
  -18.9530  -30.1010   23.9760 C   0  0  0  0  0  3  0  0  0  0  0  0
  -17.6450  -30.5960   24.1350 C   0  0  0  0  0  3  0  0  0  0  0  0
  -16.5480  -29.8190   23.7220 C   0  0  0  0  0  3  0  0  0  0  0  0
  -16.7590  -28.5570   23.1410 C   0  0  0  0  0  3  0  0  0  0  0  0
  -25.9300  -32.5050   23.8670 C   0  0  0  0  0  3  0  0  0  0  0  0
  -26.4580  -31.7330   25.1400 C   0  0  1  0  0  0  0  0  0  0  0  0
  -25.3760  -31.4980   26.2190 C   0  0  0  0  0  1  0  0  0  0  0  0
  -27.0290  -30.3510   24.7430 C   0  0  0  0  0  1  0  0  0  0  0  0
  -27.6170  -32.5210   25.7920 C   0  0  0  0  0  1  0  0  0  0  0  0
  -25.6310  -33.9060   24.2010 N   0  0  0  0  0  0  0  0  0  0  0  0
  -25.9570  -34.9580   23.4380 C   0  0  0  0  0  0  0  0  0  0  0  0
  -26.6170  -34.8510   22.4000 O   0  0  0  0  0  0  0  0  0  0  0  0
  -25.0510  -34.0630   25.0140 H   0  0  0  0  0  0  0  0  0  0  0  0
  -24.2320  -36.7560   23.0930 C   0  0  0  0  0  1  0  0  0  0  0  0
  -25.4780  -36.3480   23.8950 C   0  0  0  0  0  3  0  0  0  0  0  0
  -27.6210  -37.2260   24.7110 C   0  0  0  0  0  1  0  0  0  0  0  0
  -26.5140  -37.3970   23.7750 N   0  0  0  0  0  0  0  0  0  0  0  0
  -26.1110  -38.3190   23.9280 H   0  0  0  0  0  0  0  0  0  0  0  0
  1  3  1  0
  1  2  1  0
  2  8  1  0
  3 47  1  0
  3  2  1  0
  4  6  1  0
  5  8  1  0
  5  4  2  0
  6  9  2  0
  7  9  1  0
  8  7  2  0
  9 10  1  0
 11 10  1  0
 12 17  1  0
 13 14  1  0
 13 12  1  0
 15 14  1  0
 15 22  1  0
 15 16  1  0
 17 11  1  0
 17 16  1  0
 18 11  2  0
 19 20  2  0
 20 39  1  0
 21 20  1  0
 21 24  1  0
 22 19  1  0
 22 23  1  0
 23 21  2  0
 24 25  1  0
 25 26  2  0
 27 30  1  0
 27 26  1  0
 28 27  2  0
 29 28  1  0
 29 24  2  0
 30 31  1  0
 31 32  1  0
 32 33  2  0
 34 33  1  0
 34 38  1  0
 35 34  2  0
 36 31  2  0
 36 35  1  0
 37 36  1  0
 39 40  1  0
 40 43  1  0
 40 42  1  0
 41 39  2  0
 44 45  1  0
 44 19  1  0
 46 44  1  0
 47 48  1  0
 49 51  1  0
 49 48  1  0
 50 61  2  0
 51 56  1  0
 52 60  1  0
 52 62  1  0
 53 59  1  0
 53 55  1  0
 54 60  1  0
 55 54  1  0
 56 55  2  0
 57 51  2  0
 58 57  1  0
 58 53  2  0
 59 52  1  0
 60 50  1  0
 62 64  2  0
 63 62  1  0
 65 63  1  0
 66 75  2  0
 66 71  1  0
 67 63  1  0
 67 71  1  0
 68 67  1  0
 69 70  1  0
 69 68  1  0
 70 66  1  0
 71 72  2  0
 72 73  1  0
 74 73  2  0
 75 74  1  0
 76 50  1  0
 76 81  1  0
 76 77  1  0
 77 80  1  1
 77 78  1  0
 79 77  1  0
 81 84  1  0
 82 86  1  0
 82 81  1  0
 83 82  2  0
 86 85  1  0
 88 86  1  0
 88 89  1  0
 88 87  1  0
M  ISO  4  10 100  11 100  48 101  49 101
M  END
>  <TORSDO>  (3) 
F 20

>  <SCORE>  (3) 
-13.892

>  <name>  (3) 
2

>  <ligand_id>  (3) 
2

>  <original_smiles>  (3) 
[H]c1c([H])c([H])c2c(c1[H])C([H])([H])C([H])([H])C([H])([H])C2([H])N([H])C(=O)C1([H])N(C(=O)C([H])(N([H])C(=O)C([H])(N([H])C([H])([H])[H])C([H])([H])[H])C(C([H])([H])[H])(C([H])([H])[H])C([H])([H])[H])C([H])([H])c2c([H])c(OC([H])([H])C([H])([H])C3([H])C([H])([H])C3([H])c3c([H])c([H])c([H])c(OC(=O)N4C([H])([H])C([H])([H])C([H])([H])C([H])(n5nc(-c6c([H])c([H])c(Oc7c([H])c([H])c(F)c([H])c7F)c([H])c6[H])c(C(=O)N([H])[H])c5N([H])[H])C4([H])[H])c3[H])c([H])c([H])c2C1([H])[H]

>  <smiles>  (3) 
[H]c1c([H])c([H])c2c(c1[H])C([H])([H])C([H])([H])C([H])([H])C2([H])N([H])C(=O)C1([H])N(C(=O)C([H])(N([H])C(=O)C([H])(N([H])C([H])([H])[H])C([H])([H])[H])C(C([H])([H])[H])(C([H])([H])[H])C([H])([H])[H])C([H])([H])c2c([H])c(OC([H])([H])C([H])([H])C3([H])C([H])([H])C3([H])c3c([H])c([H])c([H])c(OC(=O)N4C([H])([H])C([H])([H])C([H])([H])C([H])(n5nc(-c6c([H])c([H])c(Oc7c([H])c([H])c(F)c([H])c7F)c([H])c6[H])c(C(=O)N([H])[H])c5N([H])[H])C4([H])[H])c3[H])c([H])c([H])c2C1([H])[H]

$$$$
3:0:0
     RDKit          3D

 95105  0  0  1  0  0  0  0  0999 V2000
  -28.0350  -20.5510   19.4030 C   0  0  0  0  0  3  0  0  0  0  0  0
  -28.5180  -18.1620   19.3910 C   0  0  0  0  0  3  0  0  0  0  0  0
  -30.0390  -19.7080   20.4940 C   0  0  0  0  0  3  0  0  0  0  0  0
  -27.6820  -19.2370   19.0180 C   0  0  0  0  0  0  0  0  0  0  0  0
  -29.2140  -20.8120   20.1340 C   0  0  0  0  0  0  0  0  0  0  0  0
  -29.6940  -18.3720   20.1480 C   0  0  0  0  0  0  0  0  0  0  0  0
  -25.6790  -19.9760   17.4390 C   0  0  0  0  0  2  0  0  0  0  0  0
  -25.0920  -19.4910   18.7460 C   0  0  0  0  0  2  0  0  0  0  0  0
  -26.4150  -18.9420   18.2630 C   0  0  0  0  0  3  0  0  0  0  0  0
  -29.5040  -22.2340   20.6610 C   0  0  0  0  0  2  0  0  0  0  0  0
  -28.3910  -23.8270   18.8480 C   0  0  0  0  0  2  0  0  0  0  0  0
  -28.6550  -25.2750   18.4040 C   0  0  0  0  0  2  0  0  0  0  0  0
  -29.9850  -24.7770   20.3690 C   0  0  0  0  0  2  0  0  0  0  0  0
  -29.6350  -23.4370   19.6610 C   0  0  0  0  0  3  0  0  0  0  0  0
  -29.3760  -25.9720   19.5760 C   0  0  0  0  0  3  0  0  0  0  0  0
  -28.7360  -26.8580   20.5420 O   0  0  0  0  0  0  0  0  0  0  0  0
  -24.6980  -32.0010   23.3680 C   0  0  0  0  0  0  0  0  0  0  0  0
  -27.5460  -27.5600   20.3990 C   0  0  0  0  0  0  0  0  0  0  0  0
  -23.5740  -30.5550   21.7060 C   0  0  0  0  0  3  0  0  0  0  0  0
  -25.1050  -29.0270   20.3520 C   0  0  0  0  0  0  0  0  0  0  0  0
  -26.1040  -30.9560   21.5900 C   0  0  0  0  0  2  0  0  0  0  0  0
  -26.2390  -29.5830   20.9540 C   0  0  0  0  0  0  0  0  0  0  0  0
  -27.4560  -28.8590   20.9680 C   0  0  0  0  0  3  0  0  0  0  0  0
  -26.3680  -27.0020   19.8570 C   0  0  0  0  0  3  0  0  0  0  0  0
  -25.1670  -27.7360   19.8030 C   0  0  0  0  0  3  0  0  0  0  0  0
  -23.8420  -29.8570   20.3470 C   0  0  0  0  0  2  0  0  0  0  0  0
  -24.8070  -31.1890   22.2780 N   0  0  0  0  0  0  0  0  0  0  0  0
  -23.5950  -32.2560   23.8720 O   0  0  0  0  0  0  0  0  0  0  0  0
  -22.9080  -29.5390   22.6610 C   0  0  0  0  0  0  0  0  0  0  0  0
  -21.5910  -29.3360   22.4980 N   0  0  0  0  0  0  0  0  0  0  0  0
  -23.5780  -28.9360   23.5020 O   0  0  0  0  0  0  0  0  0  0  0  0
  -21.1140  -29.8700   21.7830 H   0  0  0  0  0  0  0  0  0  0  0  0
  -18.2110  -28.1250   22.9520 C   0  0  0  0  0  0  0  0  0  0  0  0
  -20.7650  -28.3940   23.2550 C   0  0  0  0  0  3  0  0  0  0  0  0
  -20.8840  -26.9630   22.6790 C   0  0  0  0  0  2  0  0  0  0  0  0
  -19.7910  -26.6220   21.6570 C   0  0  0  0  0  2  0  0  0  0  0  0
  -18.3980  -26.7770   22.2790 C   0  0  0  0  0  2  0  0  0  0  0  0
  -19.3220  -28.8900   23.3960 C   0  0  0  0  0  0  0  0  0  0  0  0
  -19.0920  -30.1500   23.9890 C   0  0  0  0  0  3  0  0  0  0  0  0
  -17.7840  -30.6490   24.1400 C   0  0  0  0  0  3  0  0  0  0  0  0
  -16.6870  -29.8800   23.7150 C   0  0  0  0  0  3  0  0  0  0  0  0
  -16.9030  -28.6220   23.1280 C   0  0  0  0  0  3  0  0  0  0  0  0
  -25.9500  -32.6670   24.0210 C   0  0  0  0  0  3  0  0  0  0  0  0
  -26.4420  -31.9240   25.3230 C   0  0  1  0  0  0  0  0  0  0  0  0
  -25.3150  -31.6550   26.3460 C   0  0  0  0  0  1  0  0  0  0  0  0
  -27.0940  -30.5700   24.9670 C   0  0  0  0  0  1  0  0  0  0  0  0
  -27.5310  -32.7690   26.0290 C   0  0  0  0  0  1  0  0  0  0  0  0
  -25.5990  -34.0610   24.3230 N   0  0  0  0  0  0  0  0  0  0  0  0
  -25.9400  -35.1140   23.5680 C   0  0  0  0  0  0  0  0  0  0  0  0
  -26.6490  -35.0130   22.5630 O   0  0  0  0  0  0  0  0  0  0  0  0
  -24.9670  -34.2080   25.0960 H   0  0  0  0  0  0  0  0  0  0  0  0
  -24.1900  -36.8680   23.1350 C   0  0  0  0  0  1  0  0  0  0  0  0
  -25.4090  -36.4970   23.9930 C   0  0  0  0  0  3  0  0  0  0  0  0
  -27.4880  -37.4400   24.9010 C   0  0  0  0  0  1  0  0  0  0  0  0
  -26.4260  -37.5700   23.9060 N   0  0  0  0  0  0  0  0  0  0  0  0
  -25.9940  -38.4840   24.0220 H   0  0  0  0  0  0  0  0  0  0  0  0
  -30.5630  -17.1770   20.6110 C   0  0  0  0  0  2  0  0  0  0  0  0
  -30.8110  -14.6870   20.2140 C   0  0  0  0  0  0  0  0  0  0  0  0
  -30.4330  -12.5800   19.0000 C   0  0  0  0  0  2  0  0  0  0  0  0
  -29.4560  -12.8620   17.8390 C   0  0  0  0  0  2  0  0  0  0  0  0
  -27.9960  -12.7170   18.3120 C   0  0  0  0  0  2  0  0  0  0  0  0
  -27.7110  -13.4870   19.6300 C   0  0  0  0  0  3  0  0  0  0  0  0
  -28.8080  -13.2170   20.6880 C   0  0  0  0  0  2  0  0  0  0  0  0
  -30.1100  -13.5270   20.0770 N   0  0  0  0  0  0  0  0  0  0  0  0
  -31.9630  -14.8220   19.7990 O   0  0  0  0  0  0  0  0  0  0  0  0
  -30.1010  -15.7660   20.6120 N   0  0  0  0  0  0  0  0  0  0  0  0
  -29.1520  -15.5990   20.9030 H   0  0  0  0  0  0  0  0  0  0  0  0
  -25.3250  -14.0680   20.4010 C   0  0  0  0  0  0  0  0  0  0  0  0
  -24.2730  -13.2840   20.7890 C   0  0  0  0  0  0  0  0  0  0  0  0
  -24.7450  -11.9360   20.7410 C   0  0  0  0  0  0  0  0  0  0  0  0
  -26.3740  -13.1980   20.1410 N   0  0  0  0  0  0  0  0  0  0  0  0
  -26.0300  -11.9110   20.4070 N   0  0  0  0  0  0  0  0  0  0  0  0
  -24.0300  -10.6680   20.9380 C   0  0  0  0  0  0  0  0  0  0  0  0
  -24.4510   -9.7250   21.9020 C   0  0  0  0  0  3  0  0  0  0  0  0
  -23.7380   -8.5210   22.0860 C   0  0  0  0  0  3  0  0  0  0  0  0
  -22.5880   -8.2520   21.3060 C   0  0  0  0  0  0  0  0  0  0  0  0
  -22.1860   -9.1810   20.3310 C   0  0  0  0  0  3  0  0  0  0  0  0
  -22.9010  -10.3770   20.1460 C   0  0  0  0  0  3  0  0  0  0  0  0
  -21.8470   -7.0970   21.3970 O   0  0  0  0  0  0  0  0  0  0  0  0
  -21.7460   -6.3980   22.5730 C   0  0  0  0  0  0  0  0  0  0  0  0
  -21.2010   -6.9760   23.7410 C   0  0  0  0  0  3  0  0  0  0  0  0
  -21.0530   -6.2000   24.9080 C   0  0  0  0  0  3  0  0  0  0  0  0
  -21.4380   -4.8460   24.9070 C   0  0  0  0  0  0  0  0  0  0  0  0
  -21.9770   -4.2670   23.7450 C   0  0  0  0  0  3  0  0  0  0  0  0
  -22.1280   -5.0410   22.5810 C   0  0  0  0  0  0  0  0  0  0  0  0
  -22.6270   -4.4720   21.4570 F   0  0  0  0  0  0  0  0  0  0  0  0
  -21.2880   -4.0980   26.0260 F   0  0  0  0  0  0  0  0  0  0  0  0
  -22.8760  -13.7470   21.0910 C   0  0  0  0  0  0  0  0  0  0  0  0
  -22.1680  -13.0420   21.9670 N   0  0  0  0  0  0  0  0  0  0  0  0
  -22.4210  -14.7720   20.5860 O   0  0  0  0  0  0  0  0  0  0  0  0
  -22.5510  -12.2140   22.3980 H   0  0  0  0  0  0  0  0  0  0  0  0
  -21.2330  -13.3340   22.2110 H   0  0  0  0  0  0  0  0  0  0  0  0
  -25.4730  -15.4400   20.2260 N   0  0  0  0  0  0  0  0  0  0  0  0
  -24.6990  -16.0830   20.3560 H   0  0  0  0  0  0  0  0  0  0  0  0
  -26.3080  -15.8920   19.8800 H   0  0  0  0  0  0  0  0  0  0  0  0
  1  5  1  0
  2  6  2  0
  4  2  1  0
  4  1  2  0
  5  3  2  0
  5 10  1  0
  6  3  1  0
  6 57  1  0
  7  9  1  0
  7  8  1  0
  9  8  1  0
  9  4  1  0
 11 14  1  0
 12 11  1  0
 12 15  1  0
 14 13  1  0
 14 10  1  0
 15 13  1  0
 15 16  1  0
 17 28  2  0
 18 16  1  0
 18 23  1  0
 19 27  1  0
 19 29  1  0
 20 22  1  0
 21 27  1  0
 22 23  2  0
 22 21  1  0
 24 18  2  0
 25 24  1  0
 25 20  2  0
 26 20  1  0
 26 19  1  0
 27 17  1  0
 29 31  2  0
 30 29  1  0
 32 30  1  0
 33 42  2  0
 33 38  1  0
 34 30  1  0
 34 38  1  0
 35 34  1  0
 36 37  1  0
 36 35  1  0
 37 33  1  0
 38 39  2  0
 39 40  1  0
 41 40  2  0
 42 41  1  0
 43 17  1  0
 43 48  1  0
 43 44  1  0
 44 47  1  1
 44 45  1  0
 46 44  1  0
 48 51  1  0
 49 53  1  0
 49 48  1  0
 50 49  2  0
 53 52  1  0
 55 53  1  0
 55 56  1  0
 55 54  1  0
 57 66  1  0
 58 66  1  0
 59 64  1  0
 60 61  1  0
 60 59  1  0
 62 61  1  0
 62 71  1  0
 62 63  1  0
 64 58  1  0
 64 63  1  0
 65 58  2  0
 66 67  1  0
 68 69  2  0
 69 88  1  0
 70 69  1  0
 70 73  1  0
 71 68  1  0
 71 72  1  0
 72 70  2  0
 73 74  1  0
 74 75  2  0
 76 79  1  0
 76 75  1  0
 77 76  2  0
 78 77  1  0
 78 73  2  0
 79 80  1  0
 80 85  2  0
 80 81  1  0
 81 82  2  0
 83 82  1  0
 83 87  1  0
 84 83  2  0
 85 84  1  0
 86 85  1  0
 88 89  1  0
 89 92  1  0
 89 91  1  0
 90 88  2  0
 93 94  1  0
 93 68  1  0
 95 93  1  0
M  ISO  4  15 101  16 101  58 100  66 100
M  END
>  <TORSDO>  (4) 
F 20

>  <SCORE>  (4) 
-12.698

>  <name>  (4) 
3

>  <ligand_id>  (4) 
3

>  <original_smiles>  (4) 
[H]c1c([H])c([H])c2c(c1[H])C([H])([H])C([H])([H])C([H])([H])C2([H])N([H])C(=O)C1([H])N(C(=O)C([H])(N([H])C(=O)C([H])(N([H])C([H])([H])[H])C([H])([H])[H])C(C([H])([H])[H])(C([H])([H])[H])C([H])([H])[H])C([H])([H])c2c([H])c(OC3([H])C([H])([H])C([H])([H])C([H])(C([H])([H])c4c([H])c(C([H])([H])N([H])C(=O)N5C([H])([H])C([H])([H])C([H])([H])C([H])(n6nc(-c7c([H])c([H])c(Oc8c([H])c([H])c(F)c([H])c8F)c([H])c7[H])c(C(=O)N([H])[H])c6N([H])[H])C5([H])[H])c([H])c(C5([H])C([H])([H])C5([H])[H])c4[H])C3([H])[H])c([H])c([H])c2C1([H])[H]

>  <smiles>  (4) 
[H]c1c([H])c([H])c2c(c1[H])C([H])([H])C([H])([H])C([H])([H])C2([H])N([H])C(=O)C1([H])N(C(=O)C([H])(N([H])C(=O)C([H])(N([H])C([H])([H])[H])C([H])([H])[H])C(C([H])([H])[H])(C([H])([H])[H])C([H])([H])[H])C([H])([H])c2c([H])c(OC3([H])C([H])([H])C([H])([H])C([H])(C([H])([H])c4c([H])c(C([H])([H])N([H])C(=O)N5C([H])([H])C([H])([H])C([H])([H])C([H])(n6nc(-c7c([H])c([H])c(Oc8c([H])c([H])c(F)c([H])c8F)c([H])c7[H])c(C(=O)N([H])[H])c6N([H])[H])C5([H])[H])c([H])c(C5([H])C([H])([H])C5([H])[H])c4[H])C3([H])[H])c([H])c([H])c2C1([H])[H]

$$$$
4:0:0
     RDKit          3D

 93102  0  0  1  0  0  0  0  0999 V2000
  -27.8680  -21.5830   18.7860 C   0  0  0  0  0  3  0  0  0  0  0  0
  -28.7540  -21.3520   19.7560 C   0  0  0  0  0  0  0  0  0  0  0  0
  -29.1200  -22.7220   20.3800 C   0  0  0  0  0  2  0  0  0  0  0  0
  -27.4660  -23.0310   18.6010 C   0  0  0  0  0  3  0  0  0  0  0  0
  -28.1070  -23.8140   19.7940 C   0  0  0  0  0  3  0  0  0  0  0  0
  -25.9370  -23.1530   18.4830 C   0  0  0  0  0  1  0  0  0  0  0  0
  -28.5530  -19.1570   21.0370 C   0  0  0  0  0  3  0  0  0  0  0  0
  -28.8060  -17.7650   21.2070 C   0  0  0  0  0  3  0  0  0  0  0  0
  -30.4680  -17.8360   19.4710 C   0  0  0  0  0  3  0  0  0  0  0  0
  -29.2190  -19.9260   20.0540 C   0  0  0  0  0  0  0  0  0  0  0  0
  -30.2090  -19.2360   19.2870 C   0  0  0  0  0  0  0  0  0  0  0  0
  -29.7500  -17.0540   20.4190 C   0  0  0  0  0  0  0  0  0  0  0  0
  -30.9750  -19.9820   18.2090 C   0  0  0  0  0  1  0  0  0  0  0  0
  -30.5920  -14.6030   20.0260 C   0  0  0  0  0  0  0  0  0  0  0  0
  -30.3300  -12.3850   18.9240 C   0  0  0  0  0  2  0  0  0  0  0  0
  -29.3110  -12.5420   17.7710 C   0  0  0  0  0  2  0  0  0  0  0  0
  -27.8640  -12.3910   18.2830 C   0  0  0  0  0  2  0  0  0  0  0  0
  -27.5910  -13.2280   19.5610 C   0  0  0  0  0  3  0  0  0  0  0  0
  -28.7110  -13.0160   20.6060 C   0  0  0  0  0  2  0  0  0  0  0  0
  -29.9890  -13.3720   19.9680 N   0  0  0  0  0  0  0  0  0  0  0  0
  -31.7010  -14.7980   19.5180 O   0  0  0  0  0  0  0  0  0  0  0  0
  -29.8420  -15.6010   20.5970 N   0  0  0  0  0  0  0  0  0  0  0  0
  -29.0720  -15.2170   21.1240 H   0  0  0  0  0  0  0  0  0  0  0  0
  -25.2560  -13.8470   20.4390 C   0  0  0  0  0  0  0  0  0  0  0  0
  -24.2010  -13.0810   20.8550 C   0  0  0  0  0  0  0  0  0  0  0  0
  -24.6360  -11.7240   20.7600 C   0  0  0  0  0  0  0  0  0  0  0  0
  -26.2680  -12.9550   20.1170 N   0  0  0  0  0  0  0  0  0  0  0  0
  -25.9040  -11.6720   20.3700 N   0  0  0  0  0  0  0  0  0  0  0  0
  -23.9000  -10.4690   20.9620 C   0  0  0  0  0  0  0  0  0  0  0  0
  -24.3500   -9.4890   21.8750 C   0  0  0  0  0  3  0  0  0  0  0  0
  -23.6170   -8.2990   22.0650 C   0  0  0  0  0  3  0  0  0  0  0  0
  -22.4200   -8.0790   21.3430 C   0  0  0  0  0  0  0  0  0  0  0  0
  -21.9870   -9.0490   20.4210 C   0  0  0  0  0  3  0  0  0  0  0  0
  -22.7200  -10.2320   20.2290 C   0  0  0  0  0  3  0  0  0  0  0  0
  -21.6560   -6.9420   21.4450 O   0  0  0  0  0  0  0  0  0  0  0  0
  -21.6000   -6.2140   22.6060 C   0  0  0  0  0  0  0  0  0  0  0  0
  -21.1830   -6.7890   23.8260 C   0  0  0  0  0  3  0  0  0  0  0  0
  -21.0720   -5.9870   24.9800 C   0  0  0  0  0  3  0  0  0  0  0  0
  -21.3670   -4.6120   24.9150 C   0  0  0  0  0  0  0  0  0  0  0  0
  -21.7780   -4.0370   23.7000 C   0  0  0  0  0  3  0  0  0  0  0  0
  -21.8900   -4.8350   22.5480 C   0  0  0  0  0  0  0  0  0  0  0  0
  -22.2640   -4.2720   21.3750 F   0  0  0  0  0  0  0  0  0  0  0  0
  -21.2540   -3.8400   26.0210 F   0  0  0  0  0  0  0  0  0  0  0  0
  -22.8320  -13.5730   21.2280 C   0  0  0  0  0  0  0  0  0  0  0  0
  -22.1540  -12.8720   22.1300 N   0  0  0  0  0  0  0  0  0  0  0  0
  -22.3760  -14.6130   20.7550 O   0  0  0  0  0  0  0  0  0  0  0  0
  -22.5370  -12.0310   22.5350 H   0  0  0  0  0  0  0  0  0  0  0  0
  -21.2380  -13.1850   22.4210 H   0  0  0  0  0  0  0  0  0  0  0  0
  -25.4340  -15.2190   20.2870 N   0  0  0  0  0  0  0  0  0  0  0  0
  -24.6820  -15.8800   20.4490 H   0  0  0  0  0  0  0  0  0  0  0  0
  -26.2610  -15.6520   19.8950 H   0  0  0  0  0  0  0  0  0  0  0  0
  -28.6290  -25.2670   19.3490 C   0  0  0  0  0  2  0  0  0  0  0  0
  -28.4570  -26.5040   20.1390 O   0  0  0  0  0  0  0  0  0  0  0  0
  -24.6070  -31.8060   23.1260 C   0  0  0  0  0  0  0  0  0  0  0  0
  -27.3100  -27.3080   20.0620 C   0  0  0  0  0  0  0  0  0  0  0  0
  -23.4360  -30.4000   21.4670 C   0  0  0  0  0  3  0  0  0  0  0  0
  -24.9190  -28.8760   20.0460 C   0  0  0  0  0  0  0  0  0  0  0  0
  -25.9700  -30.7540   21.3100 C   0  0  0  0  0  2  0  0  0  0  0  0
  -26.0730  -29.3800   20.6580 C   0  0  0  0  0  0  0  0  0  0  0  0
  -27.2670  -28.6040   20.6630 C   0  0  0  0  0  3  0  0  0  0  0  0
  -26.1330  -26.8500   19.4370 C   0  0  0  0  0  3  0  0  0  0  0  0
  -24.9490  -27.6140   19.4290 C   0  0  0  0  0  3  0  0  0  0  0  0
  -23.6690  -29.7320   20.0870 C   0  0  0  0  0  2  0  0  0  0  0  0
  -24.6890  -31.0040   22.0240 N   0  0  0  0  0  0  0  0  0  0  0  0
  -23.5160  -32.0680   23.6520 O   0  0  0  0  0  0  0  0  0  0  0  0
  -22.7770  -29.3720   22.4160 C   0  0  0  0  0  0  0  0  0  0  0  0
  -21.4520  -29.1910   22.2870 N   0  0  0  0  0  0  0  0  0  0  0  0
  -23.4570  -28.7400   23.2290 O   0  0  0  0  0  0  0  0  0  0  0  0
  -20.9620  -29.7540   21.6050 H   0  0  0  0  0  0  0  0  0  0  0  0
  -18.0780  -27.9850   22.7760 C   0  0  0  0  0  0  0  0  0  0  0  0
  -20.6350  -28.2430   23.0460 C   0  0  0  0  0  3  0  0  0  0  0  0
  -20.7370  -26.8180   22.4530 C   0  0  0  0  0  2  0  0  0  0  0  0
  -19.6340  -26.5080   21.4360 C   0  0  0  0  0  2  0  0  0  0  0  0
  -18.2530  -26.6440   22.0840 C   0  0  0  0  0  2  0  0  0  0  0  0
  -19.1960  -28.7430   23.2140 C   0  0  0  0  0  0  0  0  0  0  0  0
  -18.9770  -29.9990   23.8200 C   0  0  0  0  0  3  0  0  0  0  0  0
  -17.6720  -30.4970   23.9940 C   0  0  0  0  0  3  0  0  0  0  0  0
  -16.5670  -29.7370   23.5730 C   0  0  0  0  0  3  0  0  0  0  0  0
  -16.7710  -28.4820   22.9690 C   0  0  0  0  0  3  0  0  0  0  0  0
  -25.8770  -32.4490   23.7630 C   0  0  0  0  0  3  0  0  0  0  0  0
  -25.5400  -33.8330   24.1260 N   0  0  0  0  0  0  0  0  0  0  0  0
  -25.8440  -34.9100   23.3880 C   0  0  0  0  0  0  0  0  0  0  0  0
  -26.5060  -34.8440   22.3500 O   0  0  0  0  0  0  0  0  0  0  0  0
  -24.9510  -33.9570   24.9360 H   0  0  0  0  0  0  0  0  0  0  0  0
  -24.0660  -36.6660   23.0970 C   0  0  0  0  0  1  0  0  0  0  0  0
  -25.3300  -36.2780   23.8800 C   0  0  0  0  0  3  0  0  0  0  0  0
  -27.4580  -37.1980   24.6910 C   0  0  0  0  0  1  0  0  0  0  0  0
  -26.3340  -37.3580   23.7710 N   0  0  0  0  0  0  0  0  0  0  0  0
  -25.9090  -38.2640   23.9460 H   0  0  0  0  0  0  0  0  0  0  0  0
  -26.4090  -31.6590   25.0210 C   0  0  1  0  0  0  0  0  0  0  0  0
  -25.3230  -31.3810   26.0860 C   0  0  0  0  0  1  0  0  0  0  0  0
  -27.0160  -30.3000   24.6000 C   0  0  0  0  0  1  0  0  0  0  0  0
  -27.5460  -32.4590   25.6990 C   0  0  0  0  0  1  0  0  0  0  0  0
  1  2  2  0
  2 10  1  0
  2  3  1  0
  4  6  1  0
  4  1  1  0
  4  5  1  0
  5 52  1  0
  5  3  1  0
  7  8  1  0
  9 12  1  0
 10  7  2  0
 11  9  2  0
 11 10  1  0
 12 22  1  0
 12  8  2  0
 13 11  1  0
 14 22  1  0
 15 20  1  0
 16 17  1  0
 16 15  1  0
 18 17  1  0
 18 27  1  0
 18 19  1  0
 20 14  1  0
 20 19  1  0
 21 14  2  0
 22 23  1  0
 24 25  2  0
 25 44  1  0
 26 25  1  0
 26 29  1  0
 27 28  1  0
 27 24  1  0
 28 26  2  0
 29 30  1  0
 30 31  2  0
 32 35  1  0
 32 31  1  0
 33 32  2  0
 34 33  1  0
 34 29  2  0
 35 36  1  0
 36 37  1  0
 37 38  2  0
 39 38  1  0
 39 43  1  0
 40 39  2  0
 41 36  2  0
 41 40  1  0
 42 41  1  0
 44 45  1  0
 45 48  1  0
 45 47  1  0
 46 44  2  0
 49 24  1  0
 49 50  1  0
 51 49  1  0
 52 53  1  0
 54 65  2  0
 55 53  1  0
 55 60  1  0
 56 64  1  0
 56 66  1  0
 57 63  1  0
 57 59  1  0
 58 64  1  0
 59 60  2  0
 59 58  1  0
 61 55  2  0
 62 61  1  0
 62 57  2  0
 63 56  1  0
 64 54  1  0
 66 68  2  0
 67 66  1  0
 69 67  1  0
 70 79  2  0
 70 75  1  0
 71 67  1  0
 71 75  1  0
 72 71  1  0
 73 74  1  0
 73 72  1  0
 74 70  1  0
 75 76  2  0
 76 77  1  0
 78 77  2  0
 79 78  1  0
 80 54  1  0
 80 81  1  0
 80 90  1  0
 81 84  1  0
 82 86  1  0
 82 81  1  0
 83 82  2  0
 86 85  1  0
 88 86  1  0
 88 89  1  0
 88 87  1  0
 90 93  1  1
 90 91  1  0
 92 90  1  0
M  ISO  4  14 100  22 100  52 101  53 101
M  END
>  <TORSDO>  (5) 
F 18

>  <SCORE>  (5) 
-13.836

>  <name>  (5) 
4

>  <ligand_id>  (5) 
4

>  <original_smiles>  (5) 
[H]C1=C(c2c([H])c([H])c(N([H])C(=O)N3C([H])([H])C([H])([H])C([H])([H])C([H])(n4nc(-c5c([H])c([H])c(Oc6c([H])c([H])c(F)c([H])c6F)c([H])c5[H])c(C(=O)N([H])[H])c4N([H])[H])C3([H])[H])c([H])c2C([H])([H])[H])C([H])([H])C([H])(C([H])([H])Oc2c([H])c([H])c3c(c2[H])C([H])([H])N(C(=O)C([H])(N([H])C(=O)C([H])(N([H])C([H])([H])[H])C([H])([H])[H])C(C([H])([H])[H])(C([H])([H])[H])C([H])([H])[H])C([H])(C(=O)N([H])C2([H])c4c([H])c([H])c([H])c([H])c4C([H])([H])C([H])([H])C2([H])[H])C3([H])[H])C1([H])C([H])([H])[H]

>  <smiles>  (5) 
[H]C1=C(c2c([H])c([H])c(N([H])C(=O)N3C([H])([H])C([H])([H])C([H])([H])C([H])(n4nc(-c5c([H])c([H])c(Oc6c([H])c([H])c(F)c([H])c6F)c([H])c5[H])c(C(=O)N([H])[H])c4N([H])[H])C3([H])[H])c([H])c2C([H])([H])[H])C([H])([H])C([H])(C([H])([H])Oc2c([H])c([H])c3c(c2[H])C([H])([H])N(C(=O)C([H])(N([H])C(=O)C([H])(N([H])C([H])([H])[H])C([H])([H])[H])C(C([H])([H])[H])(C([H])([H])[H])C([H])([H])[H])C([H])(C(=O)N([H])C2([H])c4c([H])c([H])c([H])c([H])c4C([H])([H])C([H])([H])C2([H])[H])C3([H])[H])C1([H])C([H])([H])[H]

$$$$
5:0:0
     RDKit          3D

 93101  0  0  1  0  0  0  0  0999 V2000
  -31.6600  -22.3340   20.7410 C   0  0  0  0  0  2  0  0  0  0  0  0
  -30.7600  -23.2250   19.8710 C   0  0  0  0  0  2  0  0  0  0  0  0
  -31.1970  -20.8630   20.7820 C   0  0  0  0  0  3  0  0  0  0  0  0
  -29.2920  -23.1590   20.3410 C   0  0  0  0  0  3  0  0  0  0  0  0
  -29.6840  -20.7580   21.1090 C   0  0  0  0  0  3  0  0  0  0  0  0
  -32.0600  -20.1160   21.8150 C   0  0  0  0  0  1  0  0  0  0  0  0
  -28.8510  -21.7160   20.2990 N   0  0  0  0  0  4  0  0  0  0  0  0
  -28.8230  -21.4000   19.3440 H   0  0  0  0  0  0  0  0  0  0  0  0
  -27.9080  -21.6740   20.6520 H   0  0  0  0  0  0  0  0  0  0  0  0
  -28.3190  -24.1310   19.5590 C   0  0  0  0  0  2  0  0  0  0  0  0
  -28.7380  -25.6160   19.2280 C   0  0  0  0  0  2  0  0  0  0  0  0
  -28.4540  -26.6780   20.1720 O   0  0  0  0  0  0  0  0  0  0  0  0
  -24.5580  -31.8420   23.1900 C   0  0  0  0  0  0  0  0  0  0  0  0
  -27.2750  -27.4120   20.1050 C   0  0  0  0  0  0  0  0  0  0  0  0
  -23.3860  -30.4560   21.5090 C   0  0  0  0  0  3  0  0  0  0  0  0
  -24.8730  -28.9370   20.0880 C   0  0  0  0  0  0  0  0  0  0  0  0
  -25.9150  -30.8160   21.3640 C   0  0  0  0  0  2  0  0  0  0  0  0
  -26.0170  -29.4480   20.7110 C   0  0  0  0  0  0  0  0  0  0  0  0
  -27.2140  -28.6900   20.7230 C   0  0  0  0  0  3  0  0  0  0  0  0
  -26.1070  -26.9260   19.4740 C   0  0  0  0  0  3  0  0  0  0  0  0
  -24.9150  -27.6780   19.4660 C   0  0  0  0  0  3  0  0  0  0  0  0
  -23.6240  -29.7920   20.1260 C   0  0  0  0  0  2  0  0  0  0  0  0
  -24.6370  -31.0540   22.0790 N   0  0  0  0  0  0  0  0  0  0  0  0
  -23.4670  -32.1040   23.7150 O   0  0  0  0  0  0  0  0  0  0  0  0
  -22.7200  -29.4230   22.4490 C   0  0  0  0  0  0  0  0  0  0  0  0
  -21.3900  -29.2710   22.3300 N   0  0  0  0  0  0  0  0  0  0  0  0
  -23.3980  -28.7630   23.2410 O   0  0  0  0  0  0  0  0  0  0  0  0
  -20.9050  -29.8560   21.6650 H   0  0  0  0  0  0  0  0  0  0  0  0
  -17.9930  -28.1570   22.8600 C   0  0  0  0  0  0  0  0  0  0  0  0
  -20.5640  -28.3260   23.0810 C   0  0  0  0  0  3  0  0  0  0  0  0
  -20.6080  -26.9170   22.4460 C   0  0  0  0  0  2  0  0  0  0  0  0
  -19.4750  -26.6710   21.4450 C   0  0  0  0  0  2  0  0  0  0  0  0
  -18.1130  -26.8310   22.1270 C   0  0  0  0  0  2  0  0  0  0  0  0
  -19.1440  -28.8660   23.2940 C   0  0  0  0  0  0  0  0  0  0  0  0
  -18.9780  -30.1110   23.9400 C   0  0  0  0  0  3  0  0  0  0  0  0
  -17.6950  -30.6450   24.1560 C   0  0  0  0  0  3  0  0  0  0  0  0
  -16.5580  -29.9320   23.7380 C   0  0  0  0  0  3  0  0  0  0  0  0
  -16.7080  -28.6900   23.0950 C   0  0  0  0  0  3  0  0  0  0  0  0
  -25.8310  -32.4720   23.8380 C   0  0  0  0  0  3  0  0  0  0  0  0
  -25.5160  -33.8700   24.1620 N   0  0  0  0  0  0  0  0  0  0  0  0
  -25.8590  -34.9230   23.4070 C   0  0  0  0  0  0  0  0  0  0  0  0
  -26.5430  -34.8190   22.3860 O   0  0  0  0  0  0  0  0  0  0  0  0
  -24.9100  -34.0240   24.9550 H   0  0  0  0  0  0  0  0  0  0  0  0
  -24.1360  -36.7160   23.0270 C   0  0  0  0  0  1  0  0  0  0  0  0
  -25.3650  -36.3100   23.8570 C   0  0  0  0  0  3  0  0  0  0  0  0
  -27.4830  -37.1990   24.7250 C   0  0  0  0  0  1  0  0  0  0  0  0
  -26.3980  -37.3640   23.7610 N   0  0  0  0  0  0  0  0  0  0  0  0
  -25.9890  -38.2830   23.8980 H   0  0  0  0  0  0  0  0  0  0  0  0
  -26.3230  -31.6990   25.1230 C   0  0  1  0  0  0  0  0  0  0  0  0
  -25.2100  -31.4600   26.1690 C   0  0  0  0  0  1  0  0  0  0  0  0
  -26.9160  -30.3220   24.7400 C   0  0  0  0  0  1  0  0  0  0  0  0
  -27.4580  -32.4940   25.8120 C   0  0  0  0  0  1  0  0  0  0  0  0
  -29.1300  -19.2770   21.1920 C   0  0  0  0  0  2  0  0  0  0  0  0
  -29.5720  -18.1240   20.2050 C   0  0  0  0  0  2  0  0  0  0  0  0
  -30.5050  -16.9960   20.7860 C   0  0  0  0  0  2  0  0  0  0  0  0
  -30.8000  -14.5580   20.0620 C   0  0  0  0  0  0  0  0  0  0  0  0
  -30.5010  -12.3530   18.9760 C   0  0  0  0  0  2  0  0  0  0  0  0
  -29.5190  -12.5140   17.7980 C   0  0  0  0  0  2  0  0  0  0  0  0
  -28.0600  -12.3780   18.2780 C   0  0  0  0  0  2  0  0  0  0  0  0
  -27.7570  -13.2440   19.5300 C   0  0  0  0  0  3  0  0  0  0  0  0
  -28.8470  -13.0530   20.6070 C   0  0  0  0  0  2  0  0  0  0  0  0
  -30.1450  -13.3640   19.9840 N   0  0  0  0  0  0  0  0  0  0  0  0
  -31.9330  -14.7200   19.6020 O   0  0  0  0  0  0  0  0  0  0  0  0
  -30.0690  -15.5960   20.5410 N   0  0  0  0  0  0  0  0  0  0  0  0
  -29.1360  -15.3610   20.8440 H   0  0  0  0  0  0  0  0  0  0  0  0
  -25.4010  -13.8780   20.3370 C   0  0  0  0  0  0  0  0  0  0  0  0
  -24.3360  -13.1170   20.7430 C   0  0  0  0  0  0  0  0  0  0  0  0
  -24.7760  -11.7590   20.6820 C   0  0  0  0  0  0  0  0  0  0  0  0
  -26.4210  -12.9820   20.0590 N   0  0  0  0  0  0  0  0  0  0  0  0
  -26.0520  -11.7030   20.3240 N   0  0  0  0  0  0  0  0  0  0  0  0
  -24.0400  -10.5060   20.8900 C   0  0  0  0  0  0  0  0  0  0  0  0
  -24.4600   -9.5550   21.8460 C   0  0  0  0  0  3  0  0  0  0  0  0
  -23.7260   -8.3640   22.0440 C   0  0  0  0  0  3  0  0  0  0  0  0
  -22.5560   -8.1190   21.2850 C   0  0  0  0  0  0  0  0  0  0  0  0
  -22.1540   -9.0600   20.3210 C   0  0  0  0  0  3  0  0  0  0  0  0
  -22.8890  -10.2400   20.1220 C   0  0  0  0  0  3  0  0  0  0  0  0
  -21.7940   -6.9800   21.3900 O   0  0  0  0  0  0  0  0  0  0  0  0
  -21.6970   -6.2840   22.5690 C   0  0  0  0  0  0  0  0  0  0  0  0
  -21.2000   -6.8830   23.7470 C   0  0  0  0  0  3  0  0  0  0  0  0
  -21.0530   -6.1130   24.9180 C   0  0  0  0  0  3  0  0  0  0  0  0
  -21.3900   -4.7470   24.9120 C   0  0  0  0  0  0  0  0  0  0  0  0
  -21.8800   -4.1480   23.7370 C   0  0  0  0  0  3  0  0  0  0  0  0
  -22.0310   -4.9150   22.5680 C   0  0  0  0  0  0  0  0  0  0  0  0
  -22.4820   -4.3290   21.4340 F   0  0  0  0  0  0  0  0  0  0  0  0
  -21.2410   -4.0060   26.0330 F   0  0  0  0  0  0  0  0  0  0  0  0
  -22.9560  -13.6110   21.0690 C   0  0  0  0  0  0  0  0  0  0  0  0
  -22.2490  -12.9160   21.9520 N   0  0  0  0  0  0  0  0  0  0  0  0
  -22.5150  -14.6480   20.5740 O   0  0  0  0  0  0  0  0  0  0  0  0
  -22.6170  -12.0750   22.3730 H   0  0  0  0  0  0  0  0  0  0  0  0
  -21.3230  -13.2280   22.2100 H   0  0  0  0  0  0  0  0  0  0  0  0
  -25.5800  -15.2470   20.1610 N   0  0  0  0  0  0  0  0  0  0  0  0
  -24.8320  -15.9150   20.3130 H   0  0  0  0  0  0  0  0  0  0  0  0
  -26.4190  -15.6720   19.7920 H   0  0  0  0  0  0  0  0  0  0  0  0
  1  3  1  0
  2  4  1  0
  2  1  1  0
  3  5  1  0
  3  6  1  0
  4 10  1  0
  5 53  1  0
  7  4  1  0
  7  9  1  0
  7  5  1  0
  8  7  1  0
 11 10  1  0
 11 12  1  0
 13 24  2  0
 14 12  1  0
 14 19  1  0
 15 23  1  0
 15 25  1  0
 16 22  1  0
 16 18  1  0
 17 23  1  0
 18 19  2  0
 18 17  1  0
 20 14  2  0
 21 20  1  0
 21 16  2  0
 22 15  1  0
 23 13  1  0
 25 27  2  0
 26 25  1  0
 28 26  1  0
 29 38  2  0
 29 34  1  0
 30 26  1  0
 30 34  1  0
 31 30  1  0
 32 33  1  0
 32 31  1  0
 33 29  1  0
 34 35  2  0
 35 36  1  0
 37 36  2  0
 38 37  1  0
 39 13  1  0
 39 40  1  0
 39 49  1  0
 40 43  1  0
 41 45  1  0
 41 40  1  0
 42 41  2  0
 45 44  1  0
 47 45  1  0
 47 48  1  0
 47 46  1  0
 49 52  1  1
 49 50  1  0
 51 49  1  0
 54 55  1  0
 54 53  1  0
 56 64  1  0
 57 62  1  0
 58 59  1  0
 58 57  1  0
 60 59  1  0
 60 69  1  0
 60 61  1  0
 62 56  1  0
 62 61  1  0
 63 56  2  0
 64 55  1  0
 64 65  1  0
 66 67  2  0
 67 86  1  0
 68 67  1  0
 68 71  1  0
 69 70  1  0
 69 66  1  0
 70 68  2  0
 71 72  1  0
 72 73  2  0
 74 77  1  0
 74 73  1  0
 75 74  2  0
 76 75  1  0
 76 71  2  0
 77 78  1  0
 78 79  1  0
 79 80  2  0
 81 80  1  0
 81 85  1  0
 82 81  2  0
 83 78  2  0
 83 82  1  0
 84 83  1  0
 86 87  1  0
 87 90  1  0
 87 89  1  0
 88 86  2  0
 91 92  1  0
 91 66  1  0
 93 91  1  0
M  ISO  4  11 101  12 101  56 100  64 100
M  END
>  <TORSDO>  (6) 
F 21

>  <SCORE>  (6) 
-13.118

>  <name>  (6) 
5

>  <ligand_id>  (6) 
5

>  <original_smiles>  (6) 
[H]c1c([H])c([H])c2c(c1[H])C([H])([H])C([H])([H])C([H])([H])C2([H])N([H])C(=O)C1([H])N(C(=O)C([H])(N([H])C(=O)C([H])(N([H])C([H])([H])[H])C([H])([H])[H])C(C([H])([H])[H])(C([H])([H])[H])C([H])([H])[H])C([H])([H])c2c([H])c(OC([H])([H])C([H])([H])C3([H])C([H])([H])C([H])([H])C([H])(C([H])([H])[H])C([H])(C([H])([H])C([H])([H])C([H])([H])N([H])C(=O)N4C([H])([H])C([H])([H])C([H])([H])C([H])(n5nc(-c6c([H])c([H])c(Oc7c([H])c([H])c(F)c([H])c7F)c([H])c6[H])c(C(=O)N([H])[H])c5N([H])[H])C4([H])[H])[N+]3([H])[H])c([H])c([H])c2C1([H])[H]

>  <smiles>  (6) 
[H]c1c([H])c([H])c2c(c1[H])C([H])([H])C([H])([H])C([H])([H])C2([H])N([H])C(=O)C1([H])N(C(=O)C([H])(N([H])C(=O)C([H])(N([H])C([H])([H])[H])C([H])([H])[H])C(C([H])([H])[H])(C([H])([H])[H])C([H])([H])[H])C([H])([H])c2c([H])c(OC([H])([H])C([H])([H])C3([H])C([H])([H])C([H])([H])C([H])(C([H])([H])[H])C([H])(C([H])([H])C([H])([H])C([H])([H])N([H])C(=O)N4C([H])([H])C([H])([H])C([H])([H])C([H])(n5nc(-c6c([H])c([H])c(Oc7c([H])c([H])c(F)c([H])c7F)c([H])c6[H])c(C(=O)N([H])[H])c5N([H])[H])C4([H])[H])[N+]3([H])[H])c([H])c([H])c2C1([H])[H]

$$$$
6:0:0
     RDKit          3D

 90 99  0  0  1  0  0  0  0  0999 V2000
  -30.6730  -14.8540   20.4070 C   0  0  0  0  0  0  0  0  0  0  0  0
  -30.3970  -12.5470   19.4570 C   0  0  0  0  0  2  0  0  0  0  0  0
  -29.5000  -12.5360   18.2050 C   0  0  0  0  0  2  0  0  0  0  0  0
  -28.0270  -12.3650   18.6130 C   0  0  0  0  0  2  0  0  0  0  0  0
  -27.6170  -13.3070   19.7770 C   0  0  0  0  0  3  0  0  0  0  0  0
  -28.6550  -13.3190   20.9220 C   0  0  0  0  0  2  0  0  0  0  0  0
  -29.9450  -13.6750   20.3190 N   0  0  0  0  0  0  0  0  0  0  0  0
  -31.8820  -14.7610   20.1690 O   0  0  0  0  0  0  0  0  0  0  0  0
  -28.5190  -18.2810   20.8350 C   0  0  0  0  0  2  0  0  0  0  0  0
  -31.6880  -19.8130   20.8370 C   0  0  0  0  0  2  0  0  0  0  0  0
  -28.7570  -16.7240   20.4540 C   0  0  0  0  0  2  0  0  0  0  0  0
  -31.0550  -17.3110   20.9290 C   0  0  0  0  0  2  0  0  0  0  0  0
  -30.9510  -21.1280   20.5670 C   0  0  0  0  0  2  0  0  0  0  0  0
  -30.8510  -18.7080   20.1800 C   0  0  0  0  0  3  0  0  0  0  0  0
  -29.4220  -19.3450   20.1010 C   0  0  0  0  0  3  0  0  0  0  0  0
  -30.1420  -16.1590   20.6100 N   0  0  0  0  0  0  0  0  0  0  0  0
  -29.5020  -20.8290   20.5940 N   0  0  2  0  0  4  0  0  0  0  0  0
  -29.2550  -20.8030   21.5720 H   0  0  0  0  0  0  0  0  0  0  0  0
  -25.2230  -13.9080   20.4480 C   0  0  0  0  0  0  0  0  0  0  0  0
  -24.1480  -13.1430   20.8060 C   0  0  0  0  0  0  0  0  0  0  0  0
  -24.6090  -11.7910   20.8150 C   0  0  0  0  0  0  0  0  0  0  0  0
  -26.2690  -13.0240   20.2540 N   0  0  0  0  0  0  0  0  0  0  0  0
  -25.9090  -11.7460   20.5410 N   0  0  0  0  0  0  0  0  0  0  0  0
  -23.8740  -10.5340   21.0100 C   0  0  0  0  0  0  0  0  0  0  0  0
  -24.2890   -9.5750   21.9590 C   0  0  0  0  0  3  0  0  0  0  0  0
  -23.5530   -8.3840   22.1420 C   0  0  0  0  0  3  0  0  0  0  0  0
  -22.3870   -8.1460   21.3760 C   0  0  0  0  0  0  0  0  0  0  0  0
  -21.9920   -9.0930   20.4170 C   0  0  0  0  0  3  0  0  0  0  0  0
  -22.7290  -10.2750   20.2310 C   0  0  0  0  0  3  0  0  0  0  0  0
  -21.6230   -7.0070   21.4690 O   0  0  0  0  0  0  0  0  0  0  0  0
  -21.5650   -6.2720   22.6250 C   0  0  0  0  0  0  0  0  0  0  0  0
  -21.1560   -6.8400   23.8510 C   0  0  0  0  0  3  0  0  0  0  0  0
  -21.0440   -6.0310   24.9990 C   0  0  0  0  0  3  0  0  0  0  0  0
  -21.3310   -4.6560   24.9240 C   0  0  0  0  0  0  0  0  0  0  0  0
  -21.7350   -4.0870   23.7030 C   0  0  0  0  0  3  0  0  0  0  0  0
  -21.8480   -4.8920   22.5560 C   0  0  0  0  0  0  0  0  0  0  0  0
  -22.2170   -4.3350   21.3780 F   0  0  0  0  0  0  0  0  0  0  0  0
  -21.2170   -3.8770   26.0250 F   0  0  0  0  0  0  0  0  0  0  0  0
  -22.7460  -13.6300   21.0280 C   0  0  0  0  0  0  0  0  0  0  0  0
  -21.9960  -12.9610   21.8960 N   0  0  0  0  0  0  0  0  0  0  0  0
  -22.3240  -14.6400   20.4660 O   0  0  0  0  0  0  0  0  0  0  0  0
  -22.3500  -12.1450   22.3730 H   0  0  0  0  0  0  0  0  0  0  0  0
  -21.0530  -13.2700   22.0880 H   0  0  0  0  0  0  0  0  0  0  0  0
  -25.3900  -15.2750   20.2420 N   0  0  0  0  0  0  0  0  0  0  0  0
  -24.6170  -15.9270   20.3160 H   0  0  0  0  0  0  0  0  0  0  0  0
  -26.2410  -15.7050   19.9060 H   0  0  0  0  0  0  0  0  0  0  0  0
  -28.6790  -21.9990   19.9700 C   0  0  0  0  0  2  0  0  0  0  0  0
  -28.9880  -23.5750   20.3820 C   0  0  0  0  0  3  0  0  0  0  0  0
  -28.0360  -24.8230   19.8940 C   0  0  0  0  0  3  0  0  0  0  0  0
  -28.2930  -26.3070   20.1580 O   0  0  0  0  0  0  0  0  0  0  0  0
  -24.6000  -31.8440   23.1620 C   0  0  0  0  0  0  0  0  0  0  0  0
  -27.2200  -27.2420   20.0810 C   0  0  0  0  0  0  0  0  0  0  0  0
  -23.4110  -30.4580   21.5060 C   0  0  0  0  0  3  0  0  0  0  0  0
  -24.8720  -28.9220   20.0650 C   0  0  0  0  0  0  0  0  0  0  0  0
  -25.9580  -30.7620   21.3440 C   0  0  0  0  0  2  0  0  0  0  0  0
  -26.0430  -29.3840   20.6800 C   0  0  0  0  0  0  0  0  0  0  0  0
  -27.2190  -28.5570   20.6760 C   0  0  0  0  0  3  0  0  0  0  0  0
  -26.0260  -26.8720   19.4200 C   0  0  0  0  0  3  0  0  0  0  0  0
  -24.8720  -27.6780   19.4210 C   0  0  0  0  0  3  0  0  0  0  0  0
  -23.6350  -29.8000   20.1190 C   0  0  0  0  0  2  0  0  0  0  0  0
  -24.6760  -31.0410   22.0600 N   0  0  0  0  0  0  0  0  0  0  0  0
  -23.5130  -32.1140   23.6920 O   0  0  0  0  0  0  0  0  0  0  0  0
  -22.7440  -29.4300   22.4540 C   0  0  0  0  0  0  0  0  0  0  0  0
  -21.4130  -29.2750   22.3440 N   0  0  0  0  0  0  0  0  0  0  0  0
  -23.4250  -28.7790   23.2500 O   0  0  0  0  0  0  0  0  0  0  0  0
  -20.9220  -29.8520   21.6770 H   0  0  0  0  0  0  0  0  0  0  0  0
  -18.0260  -28.1180   22.8860 C   0  0  0  0  0  0  0  0  0  0  0  0
  -20.5930  -28.3310   23.1080 C   0  0  0  0  0  3  0  0  0  0  0  0
  -20.6590  -26.9130   22.4950 C   0  0  0  0  0  2  0  0  0  0  0  0
  -19.5320  -26.6340   21.4960 C   0  0  0  0  0  2  0  0  0  0  0  0
  -18.1660  -26.7840   22.1720 C   0  0  0  0  0  2  0  0  0  0  0  0
  -19.1650  -28.8520   23.3110 C   0  0  0  0  0  0  0  0  0  0  0  0
  -18.9780  -30.1010   23.9410 C   0  0  0  0  0  3  0  0  0  0  0  0
  -17.6850  -30.6180   24.1480 C   0  0  0  0  0  3  0  0  0  0  0  0
  -16.5600  -29.8800   23.7380 C   0  0  0  0  0  3  0  0  0  0  0  0
  -16.7310  -28.6330   23.1120 C   0  0  0  0  0  3  0  0  0  0  0  0
  -25.8760  -32.4800   23.7950 C   0  0  0  0  0  3  0  0  0  0  0  0
  -25.5500  -33.8690   24.1530 N   0  0  0  0  0  0  0  0  0  0  0  0
  -25.8630  -34.9410   23.4120 C   0  0  0  0  0  0  0  0  0  0  0  0
  -26.5230  -34.8650   22.3730 O   0  0  0  0  0  0  0  0  0  0  0  0
  -24.9610  -34.0010   24.9620 H   0  0  0  0  0  0  0  0  0  0  0  0
  -24.1060  -36.7180   23.1170 C   0  0  0  0  0  1  0  0  0  0  0  0
  -25.3650  -36.3160   23.9010 C   0  0  0  0  0  3  0  0  0  0  0  0
  -27.5010  -37.2140   24.7140 C   0  0  0  0  0  1  0  0  0  0  0  0
  -26.3820  -37.3840   23.7910 N   0  0  0  0  0  0  0  0  0  0  0  0
  -25.9660  -38.2960   23.9600 H   0  0  0  0  0  0  0  0  0  0  0  0
  -26.3970  -31.6930   25.0610 C   0  0  1  0  0  0  0  0  0  0  0  0
  -25.3070  -31.4330   26.1250 C   0  0  0  0  0  1  0  0  0  0  0  0
  -26.9890  -30.3250   24.6500 C   0  0  0  0  0  1  0  0  0  0  0  0
  -27.5430  -32.4840   25.7330 C   0  0  0  0  0  1  0  0  0  0  0  0
  1 16  1  0
  2  7  1  0
  3  4  1  0
  3  2  1  0
  5  4  1  0
  5 22  1  0
  5  6  1  0
  7  1  1  0
  7  6  1  0
  8  1  2  0
 11 16  1  0
 11  9  1  0
 13 17  1  0
 13 10  1  0
 14 10  1  0
 14 12  1  0
 15 14  1  0
 15 17  1  0
 15  9  1  0
 16 12  1  0
 17 18  1  1
 19 20  2  0
 20 21  1  0
 20 39  1  0
 21 24  1  0
 22 19  1  0
 22 23  1  0
 23 21  2  0
 24 25  1  0
 25 26  2  0
 27 30  1  0
 27 26  1  0
 28 27  2  0
 29 28  1  0
 29 24  2  0
 30 31  1  0
 31 32  1  0
 32 33  2  0
 34 33  1  0
 34 38  1  0
 35 34  2  0
 36 31  2  0
 36 35  1  0
 37 36  1  0
 39 40  1  0
 40 43  1  0
 40 42  1  0
 41 39  2  0
 44 45  1  0
 44 19  1  0
 46 44  1  0
 47 48  1  0
 47 17  1  0
 49 50  1  0
 49 48  2  0
 51 62  2  0
 52 50  1  0
 52 57  1  0
 53 61  1  0
 53 63  1  0
 54 60  1  0
 54 56  1  0
 55 61  1  0
 56 55  1  0
 57 56  2  0
 58 59  1  0
 58 52  2  0
 59 54  2  0
 60 53  1  0
 61 51  1  0
 63 65  2  0
 64 63  1  0
 66 64  1  0
 67 76  2  0
 67 72  1  0
 68 64  1  0
 68 72  1  0
 69 68  1  0
 70 71  1  0
 70 69  1  0
 71 67  1  0
 72 73  2  0
 73 74  1  0
 75 74  2  0
 76 75  1  0
 77 51  1  0
 77 78  1  0
 77 87  1  0
 78 81  1  0
 79 83  1  0
 79 78  1  0
 80 79  2  0
 83 82  1  0
 85 83  1  0
 85 86  1  0
 85 84  1  0
 87 90  1  1
 87 88  1  0
 89 87  1  0
M  ISO  4   1 100  16 100  49 101  50 101
M  END
>  <TORSDO>  (7) 
F 18

>  <SCORE>  (7) 
-14.466

>  <name>  (7) 
6

>  <ligand_id>  (7) 
6

>  <original_smiles>  (7) 
[H]c1c([H])c([H])c2c(c1[H])C([H])([H])C([H])([H])C([H])([H])C2([H])N([H])C(=O)C1([H])N(C(=O)C([H])(N([H])C(=O)C([H])(N([H])C([H])([H])[H])C([H])([H])[H])C(C([H])([H])[H])(C([H])([H])[H])C([H])([H])[H])C([H])([H])c2c([H])c(OC([H])([H])C([H])([H])C([H])([H])[N+]3([H])C([H])([H])C([H])([H])C4([H])C([H])([H])N(C(=O)N5C([H])([H])C([H])([H])C([H])([H])C([H])(n6nc(-c7c([H])c([H])c(Oc8c([H])c([H])c(F)c([H])c8F)c([H])c7[H])c(C(=O)N([H])[H])c6N([H])[H])C5([H])[H])C([H])([H])C([H])([H])C43[H])c([H])c([H])c2C1([H])[H]

>  <smiles>  (7) 
[H]c1c([H])c([H])c2c(c1[H])C([H])([H])C([H])([H])C([H])([H])C2([H])N([H])C(=O)C1([H])N(C(=O)C([H])(N([H])C(=O)C([H])(N([H])C([H])([H])[H])C([H])([H])[H])C(C([H])([H])[H])(C([H])([H])[H])C([H])([H])[H])C([H])([H])c2c([H])c(OC([H])([H])C([H])([H])C([H])([H])[N+]3([H])C([H])([H])C([H])([H])C4([H])C([H])([H])N(C(=O)N5C([H])([H])C([H])([H])C([H])([H])C([H])(n6nc(-c7c([H])c([H])c(Oc8c([H])c([H])c(F)c([H])c8F)c([H])c7[H])c(C(=O)N([H])[H])c6N([H])[H])C5([H])[H])C([H])([H])C([H])([H])C43[H])c([H])c([H])c2C1([H])[H]

$$$$
7:0:0
     RDKit          3D

 92102  0  0  1  0  0  0  0  0999 V2000
  -29.1750  -21.7950   18.2590 C   0  0  0  0  0  3  0  0  0  0  0  0
  -29.4250  -20.4930   18.7810 C   0  0  0  0  0  3  0  0  0  0  0  0
  -28.8930  -21.2850   21.0110 C   0  0  0  0  0  3  0  0  0  0  0  0
  -28.8120  -22.8550   19.1210 C   0  0  0  0  0  0  0  0  0  0  0  0
  -28.6730  -22.6140   20.4880 C   0  0  0  0  0  0  0  0  0  0  0  0
  -29.2780  -20.1770   20.1630 C   0  0  0  0  0  0  0  0  0  0  0  0
  -28.5750  -24.3060   18.8060 C   0  0  0  0  0  0  0  0  0  0  0  0
  -28.3030  -23.9440   21.2110 C   0  0  0  0  0  2  0  0  0  0  0  0
  -28.6090  -25.0700   20.1470 C   0  0  0  0  0  3  0  0  0  0  0  0
  -28.4390  -24.8310   17.6960 O   0  0  0  0  0  0  0  0  0  0  0  0
  -28.4010  -26.5560   20.1940 O   0  0  0  0  0  0  0  0  0  0  0  0
  -24.6170  -31.8790   23.2330 C   0  0  0  0  0  0  0  0  0  0  0  0
  -27.2110  -27.2990   20.1790 C   0  0  0  0  0  0  0  0  0  0  0  0
  -23.3980  -30.4740   21.6040 C   0  0  0  0  0  3  0  0  0  0  0  0
  -24.8330  -28.9000   20.1790 C   0  0  0  0  0  0  0  0  0  0  0  0
  -25.9310  -30.7920   21.3930 C   0  0  0  0  0  2  0  0  0  0  0  0
  -26.0040  -29.4060   20.7560 C   0  0  0  0  0  0  0  0  0  0  0  0
  -27.1890  -28.6170   20.7370 C   0  0  0  0  0  3  0  0  0  0  0  0
  -26.0170  -26.8310   19.5920 C   0  0  0  0  0  3  0  0  0  0  0  0
  -24.8430  -27.6210   19.5880 C   0  0  0  0  0  3  0  0  0  0  0  0
  -23.5980  -29.7800   20.2280 C   0  0  0  0  0  2  0  0  0  0  0  0
  -24.6680  -31.0680   22.1340 N   0  0  0  0  0  0  0  0  0  0  0  0
  -23.5390  -32.1590   23.7760 O   0  0  0  0  0  0  0  0  0  0  0  0
  -22.7400  -29.4680   22.5780 C   0  0  0  0  0  0  0  0  0  0  0  0
  -21.4140  -29.2910   22.4610 N   0  0  0  0  0  0  0  0  0  0  0  0
  -23.4240  -28.8460   23.3950 O   0  0  0  0  0  0  0  0  0  0  0  0
  -20.9200  -29.8440   21.7730 H   0  0  0  0  0  0  0  0  0  0  0  0
  -18.0420  -28.0880   22.9720 C   0  0  0  0  0  0  0  0  0  0  0  0
  -20.5980  -28.3570   23.2390 C   0  0  0  0  0  3  0  0  0  0  0  0
  -20.7050  -26.9210   22.6720 C   0  0  0  0  0  2  0  0  0  0  0  0
  -19.6030  -26.5890   21.6620 C   0  0  0  0  0  2  0  0  0  0  0  0
  -18.2220  -26.7350   22.3050 C   0  0  0  0  0  2  0  0  0  0  0  0
  -19.1580  -28.8560   23.3960 C   0  0  0  0  0  0  0  0  0  0  0  0
  -18.9350  -30.1230   23.9780 C   0  0  0  0  0  3  0  0  0  0  0  0
  -17.6290  -30.6210   24.1420 C   0  0  0  0  0  3  0  0  0  0  0  0
  -16.5270  -29.8490   23.7340 C   0  0  0  0  0  3  0  0  0  0  0  0
  -16.7340  -28.5850   23.1550 C   0  0  0  0  0  3  0  0  0  0  0  0
  -25.9060  -32.5110   23.8450 C   0  0  0  0  0  3  0  0  0  0  0  0
  -25.5990  -33.9080   24.1840 N   0  0  0  0  0  0  0  0  0  0  0  0
  -25.9250  -34.9650   23.4270 C   0  0  0  0  0  0  0  0  0  0  0  0
  -26.5870  -34.8660   22.3890 O   0  0  0  0  0  0  0  0  0  0  0  0
  -25.0110  -34.0590   24.9900 H   0  0  0  0  0  0  0  0  0  0  0  0
  -24.1970  -36.7630   23.1000 C   0  0  0  0  0  1  0  0  0  0  0  0
  -25.4460  -36.3530   23.8960 C   0  0  0  0  0  3  0  0  0  0  0  0
  -27.5910  -37.2330   24.7060 C   0  0  0  0  0  1  0  0  0  0  0  0
  -26.4790  -37.4040   23.7730 N   0  0  0  0  0  0  0  0  0  0  0  0
  -26.0760  -38.3260   23.9260 H   0  0  0  0  0  0  0  0  0  0  0  0
  -26.4340  -31.7380   25.1150 C   0  0  1  0  0  0  0  0  0  0  0  0
  -25.3520  -31.4990   26.1960 C   0  0  0  0  0  1  0  0  0  0  0  0
  -27.0110  -30.3600   24.7140 C   0  0  0  0  0  1  0  0  0  0  0  0
  -27.5930  -32.5300   25.7670 C   0  0  0  0  0  1  0  0  0  0  0  0
  -29.4690  -18.6920   20.7350 C   0  0  0  0  0  2  0  0  0  0  0  0
  -30.5990  -14.8540   20.3090 C   0  0  0  0  0  0  0  0  0  0  0  0
  -30.3900  -12.5220   19.4300 C   0  0  0  0  0  2  0  0  0  0  0  0
  -29.5200  -12.5610   18.1480 C   0  0  0  0  0  2  0  0  0  0  0  0
  -28.0020  -12.6720   18.4360 C   0  0  0  0  0  2  0  0  0  0  0  0
  -27.6790  -12.8160   19.9360 C   0  0  0  0  0  3  0  0  0  0  0  0
  -28.6680  -13.3920   20.9530 C   0  0  0  0  0  2  0  0  0  0  0  0
  -29.9560  -13.6390   20.3030 N   0  0  0  0  0  0  0  0  0  0  0  0
  -31.8190  -14.8970   20.1440 O   0  0  0  0  0  0  0  0  0  0  0  0
  -29.4780  -17.1270   18.5460 C   0  0  0  0  0  2  0  0  0  0  0  0
  -28.6710  -16.1180   19.3420 C   0  0  0  0  0  2  0  0  0  0  0  0
  -30.1300  -17.4880   19.8770 C   0  0  0  0  0  3  0  0  0  0  0  0
  -29.8180  -16.0210   20.2570 N   0  0  0  0  0  0  0  0  0  0  0  0
  -25.2650  -13.8020   20.4360 C   0  0  0  0  0  0  0  0  0  0  0  0
  -24.1420  -13.0910   20.7950 C   0  0  0  0  0  0  0  0  0  0  0  0
  -24.5400  -11.7250   20.8140 C   0  0  0  0  0  0  0  0  0  0  0  0
  -26.2700  -12.8390   20.2940 N   0  0  0  0  0  0  0  0  0  0  0  0
  -25.8060  -11.6070   20.5370 N   0  0  0  0  0  0  0  0  0  0  0  0
  -23.8120  -10.4840   21.0160 C   0  0  0  0  0  0  0  0  0  0  0  0
  -24.2550   -9.5290   21.9580 C   0  0  0  0  0  3  0  0  0  0  0  0
  -23.5430   -8.3270   22.1340 C   0  0  0  0  0  3  0  0  0  0  0  0
  -22.3810   -8.0820   21.3680 C   0  0  0  0  0  0  0  0  0  0  0  0
  -21.9680   -9.0230   20.4080 C   0  0  0  0  0  3  0  0  0  0  0  0
  -22.6800  -10.2170   20.2280 C   0  0  0  0  0  3  0  0  0  0  0  0
  -21.6310   -6.9380   21.4580 O   0  0  0  0  0  0  0  0  0  0  0  0
  -21.5780   -6.2110   22.6170 C   0  0  0  0  0  0  0  0  0  0  0  0
  -21.1550   -6.7800   23.8390 C   0  0  0  0  0  3  0  0  0  0  0  0
  -21.0480   -5.9740   24.9890 C   0  0  0  0  0  3  0  0  0  0  0  0
  -21.3540   -4.6020   24.9180 C   0  0  0  0  0  0  0  0  0  0  0  0
  -21.7710   -4.0340   23.7020 C   0  0  0  0  0  3  0  0  0  0  0  0
  -21.8810   -4.8360   22.5550 C   0  0  0  0  0  0  0  0  0  0  0  0
  -22.2640   -4.2820   21.3790 F   0  0  0  0  0  0  0  0  0  0  0  0
  -21.2410   -3.8250   26.0210 F   0  0  0  0  0  0  0  0  0  0  0  0
  -22.7550  -13.6090   21.0350 C   0  0  0  0  0  0  0  0  0  0  0  0
  -21.9980  -12.9360   21.8980 N   0  0  0  0  0  0  0  0  0  0  0  0
  -22.3440  -14.6310   20.4890 O   0  0  0  0  0  0  0  0  0  0  0  0
  -22.3400  -12.1060   22.3580 H   0  0  0  0  0  0  0  0  0  0  0  0
  -21.0620  -13.2570   22.1020 H   0  0  0  0  0  0  0  0  0  0  0  0
  -25.4900  -15.1570   20.2270 N   0  0  0  0  0  0  0  0  0  0  0  0
  -24.7580  -15.8550   20.2880 H   0  0  0  0  0  0  0  0  0  0  0  0
  -26.3880  -15.5370   19.9600 H   0  0  0  0  0  0  0  0  0  0  0  0
  1  2  2  0
  1  4  1  0
  2  6  1  0
  4  5  2  0
  5  3  1  0
  5  8  1  0
  6 52  1  0
  6  3  2  0
  7  4  1  0
  7  9  1  0
  9 11  1  0
  9  8  1  0
 10  7  2  0
 12 23  2  0
 13 11  1  0
 13 18  1  0
 14 22  1  0
 14 24  1  0
 15 21  1  0
 15 17  1  0
 16 22  1  0
 17 16  1  0
 18 17  2  0
 19 13  2  0
 20 19  1  0
 20 15  2  0
 21 14  1  0
 22 12  1  0
 24 26  2  0
 25 24  1  0
 27 25  1  0
 28 37  2  0
 28 33  1  0
 29 25  1  0
 29 33  1  0
 30 29  1  0
 31 32  1  0
 31 30  1  0
 32 28  1  0
 33 34  2  0
 34 35  1  0
 36 35  2  0
 37 36  1  0
 38 12  1  0
 38 39  1  0
 38 48  1  0
 39 42  1  0
 40 44  1  0
 40 39  1  0
 41 40  2  0
 44 43  1  0
 46 44  1  0
 46 47  1  0
 46 45  1  0
 48 51  1  1
 48 49  1  0
 50 48  1  0
 54 59  1  0
 55 56  1  0
 55 54  1  0
 57 56  1  0
 57 68  1  0
 57 58  1  0
 59 53  1  0
 59 58  1  0
 60 53  2  0
 61 62  1  0
 61 63  1  0
 62 64  1  0
 63 64  1  0
 63 52  1  0
 64 53  1  0
 65 66  2  0
 66 67  1  0
 66 85  1  0
 67 70  1  0
 68 65  1  0
 68 69  1  0
 69 67  2  0
 70 71  1  0
 71 72  2  0
 73 76  1  0
 73 72  1  0
 74 73  2  0
 75 74  1  0
 75 70  2  0
 76 77  1  0
 77 78  1  0
 78 79  2  0
 80 79  1  0
 80 84  1  0
 81 80  2  0
 82 77  2  0
 82 81  1  0
 83 82  1  0
 85 86  1  0
 86 89  1  0
 86 88  1  0
 87 85  2  0
 90 91  1  0
 90 65  1  0
 92 90  1  0
M  ISO  4   9 101  11 101  53 100  64 100
M  END
>  <TORSDO>  (8) 
F 17

>  <SCORE>  (8) 
-15.031

>  <name>  (8) 
7

>  <ligand_id>  (8) 
7

>  <original_smiles>  (8) 
[H]c1c([H])c([H])c2c(c1[H])C([H])([H])C([H])([H])C([H])([H])C2([H])N([H])C(=O)C1([H])N(C(=O)C([H])(N([H])C(=O)C([H])(N([H])C([H])([H])[H])C([H])([H])[H])C(C([H])([H])[H])(C([H])([H])[H])C([H])([H])[H])C([H])([H])c2c([H])c(OC3([H])C(=O)c4c([H])c([H])c(C([H])([H])C5([H])N(C(=O)N6C([H])([H])C([H])([H])C([H])([H])C([H])(n7nc(-c8c([H])c([H])c(Oc9c([H])c([H])c(F)c([H])c9F)c([H])c8[H])c(C(=O)N([H])[H])c7N([H])[H])C6([H])[H])C([H])([H])C5([H])[H])c([H])c4C3([H])[H])c([H])c([H])c2C1([H])[H]

>  <smiles>  (8) 
[H]c1c([H])c([H])c2c(c1[H])C([H])([H])C([H])([H])C([H])([H])C2([H])N([H])C(=O)C1([H])N(C(=O)C([H])(N([H])C(=O)C([H])(N([H])C([H])([H])[H])C([H])([H])[H])C(C([H])([H])[H])(C([H])([H])[H])C([H])([H])[H])C([H])([H])c2c([H])c(OC3([H])C(=O)c4c([H])c([H])c(C([H])([H])C5([H])N(C(=O)N6C([H])([H])C([H])([H])C([H])([H])C([H])(n7nc(-c8c([H])c([H])c(Oc9c([H])c([H])c(F)c([H])c9F)c([H])c8[H])c(C(=O)N([H])[H])c7N([H])[H])C6([H])[H])C([H])([H])C5([H])[H])c([H])c4C3([H])[H])c([H])c([H])c2C1([H])[H]

$$$$
8:0:0
     RDKit          3D

 94103  0  0  1  0  0  0  0  0999 V2000
  -29.6390  -21.0890   22.0620 C   0  0  0  0  0  2  0  0  0  0  0  0
  -29.0290  -20.5790   20.7800 C   0  0  0  0  0  3  0  0  0  0  0  0
  -29.6790  -21.9690   20.8290 C   0  0  0  0  0  3  0  0  0  0  0  0
  -30.5710  -18.2630   18.1320 C   0  0  0  0  0  3  0  0  0  0  0  0
  -30.5590  -17.0260   18.7910 C   0  0  0  0  0  3  0  0  0  0  0  0
  -29.6560  -18.0980   20.7760 C   0  0  0  0  0  3  0  0  0  0  0  0
  -29.6270  -19.3580   20.1050 C   0  0  0  0  0  0  0  0  0  0  0  0
  -30.0850  -19.4230   18.7640 C   0  0  0  0  0  0  0  0  0  0  0  0
  -30.0970  -16.9150   20.1240 C   0  0  0  0  0  0  0  0  0  0  0  0
  -30.0670  -20.7150   17.9590 C   0  0  0  0  0  1  0  0  0  0  0  0
  -30.6940  -14.5280   20.3980 C   0  0  0  0  0  0  0  0  0  0  0  0
  -30.3480  -12.3660   19.2980 C   0  0  0  0  0  2  0  0  0  0  0  0
  -29.4280  -12.6230   18.0870 C   0  0  0  0  0  2  0  0  0  0  0  0
  -27.9520  -12.4770   18.5090 C   0  0  0  0  0  2  0  0  0  0  0  0
  -27.6150  -13.3030   19.7800 C   0  0  0  0  0  3  0  0  0  0  0  0
  -28.6690  -13.0960   20.8920 C   0  0  0  0  0  2  0  0  0  0  0  0
  -29.9970  -13.3630   20.3220 N   0  0  0  0  0  0  0  0  0  0  0  0
  -31.8530  -14.6330   19.9870 O   0  0  0  0  0  0  0  0  0  0  0  0
  -30.0000  -15.6270   20.7630 N   0  0  0  0  0  0  0  0  0  0  0  0
  -29.1780  -15.4660   21.3280 H   0  0  0  0  0  0  0  0  0  0  0  0
  -25.2190  -13.9000   20.4880 C   0  0  0  0  0  0  0  0  0  0  0  0
  -24.1520  -13.1240   20.8640 C   0  0  0  0  0  0  0  0  0  0  0  0
  -24.6200  -11.7740   20.8370 C   0  0  0  0  0  0  0  0  0  0  0  0
  -26.2640  -13.0220   20.2610 N   0  0  0  0  0  0  0  0  0  0  0  0
  -25.9090  -11.7370   20.5270 N   0  0  0  0  0  0  0  0  0  0  0  0
  -23.8980  -10.5080   21.0330 C   0  0  0  0  0  0  0  0  0  0  0  0
  -24.3400   -9.5380   21.9610 C   0  0  0  0  0  3  0  0  0  0  0  0
  -23.6180   -8.3400   22.1430 C   0  0  0  0  0  3  0  0  0  0  0  0
  -22.4370   -8.1030   21.3980 C   0  0  0  0  0  0  0  0  0  0  0  0
  -22.0130   -9.0590   20.4590 C   0  0  0  0  0  3  0  0  0  0  0  0
  -22.7380  -10.2500   20.2750 C   0  0  0  0  0  3  0  0  0  0  0  0
  -21.6840   -6.9580   21.4940 O   0  0  0  0  0  0  0  0  0  0  0  0
  -21.6520   -6.2090   22.6430 C   0  0  0  0  0  0  0  0  0  0  0  0
  -21.2460   -6.7560   23.8790 C   0  0  0  0  0  3  0  0  0  0  0  0
  -21.1640   -5.9350   25.0220 C   0  0  0  0  0  3  0  0  0  0  0  0
  -21.4780   -4.5650   24.9270 C   0  0  0  0  0  0  0  0  0  0  0  0
  -21.8740   -4.0160   23.6940 C   0  0  0  0  0  3  0  0  0  0  0  0
  -21.9600   -4.8370   22.5550 C   0  0  0  0  0  0  0  0  0  0  0  0
  -22.3260   -4.3000   21.3650 F   0  0  0  0  0  0  0  0  0  0  0  0
  -21.3890   -3.7710   26.0190 F   0  0  0  0  0  0  0  0  0  0  0  0
  -22.7570  -13.5980   21.1400 C   0  0  0  0  0  0  0  0  0  0  0  0
  -22.0380  -12.8980   22.0120 N   0  0  0  0  0  0  0  0  0  0  0  0
  -22.3130  -14.6210   20.6240 O   0  0  0  0  0  0  0  0  0  0  0  0
  -22.4070  -12.0600   22.4360 H   0  0  0  0  0  0  0  0  0  0  0  0
  -21.1060  -13.2010   22.2520 H   0  0  0  0  0  0  0  0  0  0  0  0
  -25.3870  -15.2690   20.2970 N   0  0  0  0  0  0  0  0  0  0  0  0
  -24.6230  -15.9320   20.3490 H   0  0  0  0  0  0  0  0  0  0  0  0
  -26.2450  -15.6860   19.9570 H   0  0  0  0  0  0  0  0  0  0  0  0
  -28.7490  -23.1150   20.9900 N   0  0  0  0  0  4  0  0  0  0  0  0
  -28.6850  -23.2940   21.9800 H   0  0  0  0  0  0  0  0  0  0  0  0
  -27.8280  -22.8520   20.6680 H   0  0  0  0  0  0  0  0  0  0  0  0
  -29.1230  -24.3930   20.3320 C   0  0  0  0  0  2  0  0  0  0  0  0
  -28.2800  -25.5440   20.9170 C   0  0  0  0  0  2  0  0  0  0  0  0
  -28.4150  -26.7690   20.1840 O   0  0  0  0  0  0  0  0  0  0  0  0
  -24.5920  -31.9270   23.2540 C   0  0  0  0  0  0  0  0  0  0  0  0
  -27.2600  -27.5170   20.1670 C   0  0  0  0  0  0  0  0  0  0  0  0
  -23.3950  -30.5170   21.6120 C   0  0  0  0  0  3  0  0  0  0  0  0
  -24.8570  -28.9960   20.1800 C   0  0  0  0  0  0  0  0  0  0  0  0
  -25.9170  -30.8940   21.4150 C   0  0  0  0  0  2  0  0  0  0  0  0
  -26.0090  -29.5270   20.7740 C   0  0  0  0  0  0  0  0  0  0  0  0
  -27.2180  -28.7950   20.7650 C   0  0  0  0  0  3  0  0  0  0  0  0
  -26.0970  -27.0030   19.5520 C   0  0  0  0  0  3  0  0  0  0  0  0
  -24.8950  -27.7330   19.5650 C   0  0  0  0  0  3  0  0  0  0  0  0
  -23.6060  -29.8440   20.2310 C   0  0  0  0  0  2  0  0  0  0  0  0
  -24.6530  -31.1270   22.1520 N   0  0  0  0  0  0  0  0  0  0  0  0
  -23.5090  -32.1930   23.7930 O   0  0  0  0  0  0  0  0  0  0  0  0
  -22.7490  -29.4910   22.5710 C   0  0  0  0  0  0  0  0  0  0  0  0
  -21.4260  -29.3030   22.4420 N   0  0  0  0  0  0  0  0  0  0  0  0
  -23.4370  -28.8680   23.3860 O   0  0  0  0  0  0  0  0  0  0  0  0
  -20.9360  -29.8600   21.7570 H   0  0  0  0  0  0  0  0  0  0  0  0
  -18.0540  -28.0960   22.9270 C   0  0  0  0  0  0  0  0  0  0  0  0
  -20.6110  -28.3590   23.2060 C   0  0  0  0  0  3  0  0  0  0  0  0
  -20.7210  -26.9310   22.6250 C   0  0  0  0  0  2  0  0  0  0  0  0
  -19.6200  -26.6070   21.6090 C   0  0  0  0  0  2  0  0  0  0  0  0
  -18.2360  -26.7480   22.2500 C   0  0  0  0  0  2  0  0  0  0  0  0
  -19.1700  -28.8590   23.3610 C   0  0  0  0  0  0  0  0  0  0  0  0
  -18.9480  -30.1220   23.9520 C   0  0  0  0  0  3  0  0  0  0  0  0
  -17.6420  -30.6220   24.1140 C   0  0  0  0  0  3  0  0  0  0  0  0
  -16.5400  -29.8540   23.6990 C   0  0  0  0  0  3  0  0  0  0  0  0
  -16.7470  -28.5920   23.1110 C   0  0  0  0  0  3  0  0  0  0  0  0
  -25.8750  -32.5640   23.8770 C   0  0  0  0  0  3  0  0  0  0  0  0
  -26.3890  -31.7990   25.1580 C   0  0  1  0  0  0  0  0  0  0  0  0
  -25.2950  -31.5590   26.2240 C   0  0  0  0  0  1  0  0  0  0  0  0
  -26.9770  -30.4230   24.7670 C   0  0  0  0  0  1  0  0  0  0  0  0
  -27.5380  -32.5970   25.8170 C   0  0  0  0  0  1  0  0  0  0  0  0
  -25.5640  -33.9620   24.1990 N   0  0  0  0  0  0  0  0  0  0  0  0
  -25.8990  -35.0100   23.4330 C   0  0  0  0  0  0  0  0  0  0  0  0
  -26.5750  -34.8990   22.4070 O   0  0  0  0  0  0  0  0  0  0  0  0
  -24.9740  -34.1230   25.0020 H   0  0  0  0  0  0  0  0  0  0  0  0
  -24.1750  -36.7990   23.0490 C   0  0  0  0  0  1  0  0  0  0  0  0
  -25.4070  -36.4000   23.8780 C   0  0  0  0  0  3  0  0  0  0  0  0
  -27.5320  -37.2880   24.7280 C   0  0  0  0  0  1  0  0  0  0  0  0
  -26.4400  -37.4530   23.7710 N   0  0  0  0  0  0  0  0  0  0  0  0
  -26.0330  -38.3750   23.9090 H   0  0  0  0  0  0  0  0  0  0  0  0
  2  7  1  0
  2  3  1  0
  2  1  1  0
  3 49  1  0
  3  1  1  0
  4  8  2  0
  4  5  1  0
  5  9  2  0
  7  6  2  0
  8  7  1  0
  9 19  1  0
  9  6  1  0
 10  8  1  0
 11 19  1  0
 12 17  1  0
 13 14  1  0
 13 12  1  0
 15 14  1  0
 15 24  1  0
 15 16  1  0
 17 11  1  0
 17 16  1  0
 18 11  2  0
 19 20  1  0
 21 22  2  0
 22 41  1  0
 23 22  1  0
 23 26  1  0
 24 21  1  0
 24 25  1  0
 25 23  2  0
 26 27  1  0
 27 28  2  0
 29 32  1  0
 29 28  1  0
 30 29  2  0
 31 30  1  0
 31 26  2  0
 32 33  1  0
 33 34  1  0
 34 35  2  0
 36 35  1  0
 36 40  1  0
 37 36  2  0
 38 33  2  0
 38 37  1  0
 39 38  1  0
 41 42  1  0
 42 45  1  0
 42 44  1  0
 43 41  2  0
 46 47  1  0
 46 21  1  0
 48 46  1  0
 49 50  1  0
 51 49  1  0
 52 53  1  0
 52 49  1  0
 54 53  1  0
 55 66  2  0
 56 54  1  0
 56 61  1  0
 57 65  1  0
 57 67  1  0
 58 64  1  0
 58 60  1  0
 59 65  1  0
 60 59  1  0
 61 60  2  0
 62 63  1  0
 62 56  2  0
 63 58  2  0
 64 57  1  0
 65 55  1  0
 67 69  2  0
 68 67  1  0
 70 68  1  0
 71 80  2  0
 71 76  1  0
 72 68  1  0
 72 76  1  0
 73 72  1  0
 74 75  1  0
 74 73  1  0
 75 71  1  0
 76 77  2  0
 77 78  1  0
 79 78  2  0
 80 79  1  0
 81 55  1  0
 81 86  1  0
 81 82  1  0
 82 85  1  1
 82 83  1  0
 84 82  1  0
 86 89  1  0
 87 91  1  0
 87 86  1  0
 88 87  2  0
 91 90  1  0
 93 91  1  0
 93 94  1  0
 93 92  1  0
M  ISO  4  11 100  19 100  53 101  54 101
M  END
>  <TORSDO>  (9) 
F 20

>  <SCORE>  (9) 
-14.048

>  <name>  (9) 
8

>  <ligand_id>  (9) 
8

>  <original_smiles>  (9) 
[H]c1c([H])c([H])c2c(c1[H])C([H])([H])C([H])([H])C([H])([H])C2([H])N([H])C(=O)C1([H])N(C(=O)C([H])(N([H])C(=O)C([H])(N([H])C([H])([H])[H])C([H])([H])[H])C(C([H])([H])[H])(C([H])([H])[H])C([H])([H])[H])C([H])([H])c2c([H])c(OC([H])([H])C([H])([H])[N+]([H])([H])C3([H])C([H])([H])C3([H])c3c([H])c(N([H])C(=O)N4C([H])([H])C([H])([H])C([H])([H])C([H])(n5nc(-c6c([H])c([H])c(Oc7c([H])c([H])c(F)c([H])c7F)c([H])c6[H])c(C(=O)N([H])[H])c5N([H])[H])C4([H])[H])c([H])c([H])c3C([H])([H])[H])c([H])c([H])c2C1([H])[H]

>  <smiles>  (9) 
[H]c1c([H])c([H])c2c(c1[H])C([H])([H])C([H])([H])C([H])([H])C2([H])N([H])C(=O)C1([H])N(C(=O)C([H])(N([H])C(=O)C([H])(N([H])C([H])([H])[H])C([H])([H])[H])C(C([H])([H])[H])(C([H])([H])[H])C([H])([H])[H])C([H])([H])c2c([H])c(OC([H])([H])C([H])([H])[N+]([H])([H])C3([H])C([H])([H])C3([H])c3c([H])c(N([H])C(=O)N4C([H])([H])C([H])([H])C([H])([H])C([H])(n5nc(-c6c([H])c([H])c(Oc7c([H])c([H])c(F)c([H])c7F)c([H])c6[H])c(C(=O)N([H])[H])c5N([H])[H])C4([H])[H])c([H])c([H])c3C([H])([H])[H])c([H])c([H])c2C1([H])[H]

$$$$
9:0:0
     RDKit          3D

 95105  0  0  1  0  0  0  0  0999 V2000
  -29.0830  -19.1460   19.7540 C   0  0  0  0  0  3  0  0  0  0  0  0
  -30.8580  -18.5960   19.1390 C   0  0  2  0  0  0  0  0  0  0  0  0
  -30.5020  -20.0550   19.8600 C   0  0  0  0  0  3  0  0  0  0  0  0
  -29.7280  -17.6290   19.8760 C   0  0  0  0  0  3  0  0  0  0  0  0
  -28.1500  -15.0420   19.3130 C   0  0  0  0  0  0  0  0  0  0  0  0
  -27.2270  -12.7330   20.1270 C   0  0  0  0  0  2  0  0  0  0  0  0
  -27.5440  -12.4440   21.6180 C   0  0  0  0  0  2  0  0  0  0  0  0
  -28.9290  -11.7940   21.7610 C   0  0  0  0  0  2  0  0  0  0  0  0
  -29.9850  -12.5030   20.8800 C   0  0  0  0  0  3  0  0  0  0  0  0
  -29.4980  -12.7770   19.4380 C   0  0  0  0  0  2  0  0  0  0  0  0
  -28.3010  -13.6310   19.5380 N   0  0  0  0  0  0  0  0  0  0  0  0
  -26.9550  -15.3560   19.1980 O   0  0  0  0  0  0  0  0  0  0  0  0
  -29.2450  -16.0740   19.3490 N   0  0  0  0  0  0  0  0  0  0  0  0
  -30.0950  -15.5450   19.2090 H   0  0  0  0  0  0  0  0  0  0  0  0
  -32.4710  -12.2900   20.3710 C   0  0  0  0  0  0  0  0  0  0  0  0
  -33.4210  -11.3820   20.7440 C   0  0  0  0  0  0  0  0  0  0  0  0
  -32.7380  -10.3870   21.5100 C   0  0  0  0  0  0  0  0  0  0  0  0
  -31.2820  -11.8400   20.9140 N   0  0  0  0  0  0  0  0  0  0  0  0
  -31.4360  -10.6480   21.5480 N   0  0  0  0  0  0  0  0  0  0  0  0
  -33.2650   -9.2360   22.2580 C   0  0  0  0  0  0  0  0  0  0  0  0
  -33.0940   -7.9120   21.7970 C   0  0  0  0  0  3  0  0  0  0  0  0
  -33.6320   -6.8250   22.5220 C   0  0  0  0  0  3  0  0  0  0  0  0
  -34.3530   -7.0570   23.7180 C   0  0  0  0  0  0  0  0  0  0  0  0
  -34.5010   -8.3740   24.1840 C   0  0  0  0  0  3  0  0  0  0  0  0
  -33.9600   -9.4540   23.4650 C   0  0  0  0  0  3  0  0  0  0  0  0
  -34.8870   -6.0620   24.5020 O   0  0  0  0  0  0  0  0  0  0  0  0
  -35.4960   -4.9630   23.9530 C   0  0  0  0  0  0  0  0  0  0  0  0
  -36.7510   -5.0490   23.3120 C   0  0  0  0  0  3  0  0  0  0  0  0
  -37.3750   -3.8830   22.8240 C   0  0  0  0  0  3  0  0  0  0  0  0
  -36.7510   -2.6300   22.9830 C   0  0  0  0  0  0  0  0  0  0  0  0
  -35.5040   -2.5430   23.6240 C   0  0  0  0  0  3  0  0  0  0  0  0
  -34.8790   -3.7040   24.1100 C   0  0  0  0  0  0  0  0  0  0  0  0
  -33.6880   -3.6120   24.7480 F   0  0  0  0  0  0  0  0  0  0  0  0
  -37.3530   -1.5100   22.5210 F   0  0  0  0  0  0  0  0  0  0  0  0
  -34.8960  -11.4880   20.4900 C   0  0  0  0  0  0  0  0  0  0  0  0
  -35.4880  -10.4690   19.8800 N   0  0  0  0  0  0  0  0  0  0  0  0
  -35.5220  -12.5020   20.7890 O   0  0  0  0  0  0  0  0  0  0  0  0
  -34.9670   -9.6450   19.6160 H   0  0  0  0  0  0  0  0  0  0  0  0
  -36.4760  -10.5130   19.6730 H   0  0  0  0  0  0  0  0  0  0  0  0
  -32.5200  -13.4760   19.6420 N   0  0  0  0  0  0  0  0  0  0  0  0
  -33.3970  -13.8520   19.3000 H   0  0  0  0  0  0  0  0  0  0  0  0
  -31.7340  -14.0950   19.4960 H   0  0  0  0  0  0  0  0  0  0  0  0
  -33.2430  -18.5060   18.4210 C   0  0  0  0  0  3  0  0  0  0  0  0
  -32.3020  -18.1890   19.3280 C   0  0  0  0  0  3  0  0  0  0  0  0
  -35.5800  -19.1260   17.9130 C   0  0  0  0  0  3  0  0  0  0  0  0
  -35.2150  -17.0880   19.1480 C   0  0  0  0  0  3  0  0  0  0  0  0
  -37.3910  -17.7550   18.7240 C   0  0  0  0  0  3  0  0  0  0  0  0
  -34.6790  -18.2070   18.4810 C   0  0  0  0  0  0  0  0  0  0  0  0
  -36.9640  -18.9080   18.0380 C   0  0  0  0  0  0  0  0  0  0  0  0
  -36.5400  -16.8580   19.2640 N   0  0  0  0  0  0  0  0  0  0  0  0
  -39.2660  -19.3390   16.9750 C   0  0  0  0  0  1  0  0  0  0  0  0
  -37.9470  -19.9340   17.4830 C   0  0  0  0  0  2  0  0  0  0  0  0
  -30.8420  -21.8190   19.4070 C   0  0  0  0  0  2  0  0  0  0  0  0
  -31.9680  -23.1790   19.9490 C   0  0  0  0  0  2  0  0  0  0  0  0
  -31.9210  -24.8610   20.0000 O   0  0  0  0  0  0  0  0  0  0  0  0
  -34.8240  -30.8460   16.3160 C   0  0  0  0  0  0  0  0  0  0  0  0
  -33.0020  -25.8900   19.7730 C   0  0  0  0  0  0  0  0  0  0  0  0
  -36.3670  -29.2210   17.3350 C   0  0  0  0  0  3  0  0  0  0  0  0
  -35.3550  -27.6070   19.0940 C   0  0  0  0  0  0  0  0  0  0  0  0
  -34.0520  -29.6060   18.4060 C   0  0  0  0  0  2  0  0  0  0  0  0
  -34.0710  -28.1490   18.9670 C   0  0  0  0  0  0  0  0  0  0  0  0
  -32.9150  -27.3110   19.3300 C   0  0  0  0  0  3  0  0  0  0  0  0
  -34.3520  -25.5040   19.9450 C   0  0  0  0  0  3  0  0  0  0  0  0
  -35.4800  -26.3050   19.6130 C   0  0  0  0  0  3  0  0  0  0  0  0
  -36.5660  -28.4370   18.6630 C   0  0  0  0  0  2  0  0  0  0  0  0
  -35.0440  -29.9260   17.3130 N   0  0  0  0  0  0  0  0  0  0  0  0
  -35.6820  -31.0980   15.4540 O   0  0  0  0  0  0  0  0  0  0  0  0
  -36.5690  -28.2680   16.1280 C   0  0  0  0  0  0  0  0  0  0  0  0
  -37.8280  -28.0510   15.7050 N   0  0  0  0  0  0  0  0  0  0  0  0
  -35.5950  -27.7210   15.6030 O   0  0  0  0  0  0  0  0  0  0  0  0
  -38.5760  -28.5430   16.1730 H   0  0  0  0  0  0  0  0  0  0  0  0
  -40.6300  -26.9000   13.7060 C   0  0  0  0  0  0  0  0  0  0  0  0
  -38.2240  -27.1360   14.6300 C   0  0  0  0  0  3  0  0  0  0  0  0
  -38.4020  -25.6950   15.1630 C   0  0  0  0  0  2  0  0  0  0  0  0
  -39.8450  -25.3760   15.5690 C   0  0  0  0  0  2  0  0  0  0  0  0
  -40.7870  -25.5440   14.3730 C   0  0  0  0  0  2  0  0  0  0  0  0
  -39.4330  -27.6540   13.8390 C   0  0  0  0  0  0  0  0  0  0  0  0
  -39.3510  -28.9210   13.2220 C   0  0  0  0  0  3  0  0  0  0  0  0
  -40.4360  -29.4350   12.4870 C   0  0  0  0  0  3  0  0  0  0  0  0
  -41.6130  -28.6790   12.3490 C   0  0  0  0  0  3  0  0  0  0  0  0
  -41.7070  -27.4120   12.9530 C   0  0  0  0  0  3  0  0  0  0  0  0
  -33.4860  -31.6420   16.2200 C   0  0  0  0  0  3  0  0  0  0  0  0
  -33.8120  -33.0580   15.9730 N   0  0  0  0  0  0  0  0  0  0  0  0
  -33.7040  -34.0410   16.8770 C   0  0  0  0  0  0  0  0  0  0  0  0
  -33.2540  -33.8530   18.0110 O   0  0  0  0  0  0  0  0  0  0  0  0
  -34.2370  -33.2730   15.0830 H   0  0  0  0  0  0  0  0  0  0  0  0
  -35.1960  -35.9790   17.4720 C   0  0  0  0  0  1  0  0  0  0  0  0
  -34.1630  -35.4530   16.4620 C   0  0  0  0  0  3  0  0  0  0  0  0
  -32.0300  -36.0140   15.3800 C   0  0  0  0  0  1  0  0  0  0  0  0
  -33.0530  -36.4240   16.3390 N   0  0  0  0  0  0  0  0  0  0  0  0
  -33.4030  -37.3370   16.0580 H   0  0  0  0  0  0  0  0  0  0  0  0
  -32.5260  -31.1040   15.0860 C   0  0  1  0  0  0  0  0  0  0  0  0
  -32.8430  -31.6710   13.6810 C   0  0  0  0  0  1  0  0  0  0  0  0
  -32.5880  -29.5630   14.9920 C   0  0  0  0  0  1  0  0  0  0  0  0
  -31.0600  -31.4620   15.4250 C   0  0  0  0  0  1  0  0  0  0  0  0
  1  3  1  0
  1  4  1  0
  2 44  1  1
  2  1  1  0
  2  3  1  0
  2  4  1  0
  5 13  1  0
  5 11  1  0
  6  7  1  0
  7  8  1  0
  9 18  1  0
  9  8  1  0
 10 11  1  0
 10  9  1  0
 11  6  1  0
 12  5  2  0
 13  4  1  0
 14 13  1  0
 15 16  2  0
 15 18  1  0
 16 17  1  0
 17 19  2  0
 17 20  1  0
 18 19  1  0
 20 25  1  0
 21 20  2  0
 21 22  1  0
 22 23  2  0
 23 24  1  0
 23 26  1  0
 25 24  2  0
 27 32  1  0
 27 26  1  0
 28 27  2  0
 29 30  2  0
 29 28  1  0
 30 31  1  0
 31 32  2  0
 32 33  1  0
 34 30  1  0
 35 16  1  0
 35 37  2  0
 36 35  1  0
 38 36  1  0
 39 36  1  0
 40 15  1  0
 41 40  1  0
 42 40  1  0
 43 48  1  0
 43 44  2  0
 45 49  2  0
 45 48  1  0
 46 50  1  0
 47 50  2  0
 48 46  2  0
 49 47  1  0
 51 52  1  0
 52 49  1  0
 53  3  1  0
 53 54  1  0
 54 55  1  0
 56 66  1  0
 57 63  1  0
 57 55  1  0
 58 65  1  0
 59 64  1  0
 60 61  1  0
 61 59  2  0
 61 62  1  0
 62 57  2  0
 64 63  2  0
 65 59  1  0
 66 58  1  0
 66 60  1  0
 67 56  2  0
 68 58  1  0
 69 68  1  0
 69 71  1  0
 70 68  2  0
 72 77  1  0
 72 76  1  0
 73 74  1  0
 73 69  1  0
 74 75  1  0
 76 75  1  0
 77 73  1  0
 78 77  2  0
 79 78  1  0
 80 79  2  0
 80 81  1  0
 81 72  2  0
 82 56  1  0
 83 82  1  0
 83 84  1  0
 84 85  2  0
 86 83  1  0
 88 84  1  0
 88 87  1  0
 89 90  1  0
 90 88  1  0
 91 90  1  0
 92 95  1  1
 92 82  1  0
 93 92  1  0
 94 92  1  0
M  ISO  4   5 100  13 100  54 101  55 101
M  END
>  <TORSDO>  (10) 
F 21

>  <SCORE>  (10) 
-5.875

>  <name>  (10) 
9

>  <ligand_id>  (10) 
9

>  <original_smiles>  (10) 
[H]C(=C([H])C1([H])C([H])(N([H])C(=O)N2C([H])([H])C([H])([H])C([H])([H])C([H])(n3nc(-c4c([H])c([H])c(Oc5c([H])c([H])c(F)c([H])c5F)c([H])c4[H])c(C(=O)N([H])[H])c3N([H])[H])C2([H])[H])C([H])([H])C1([H])C([H])([H])C([H])([H])Oc1c([H])c([H])c2c(c1[H])C([H])([H])N(C(=O)C([H])(N([H])C(=O)C([H])(N([H])C([H])([H])[H])C([H])([H])[H])C(C([H])([H])[H])(C([H])([H])[H])C([H])([H])[H])C([H])(C(=O)N([H])C1([H])c3c([H])c([H])c([H])c([H])c3C([H])([H])C([H])([H])C1([H])[H])C2([H])[H])c1c([H])nc([H])c(C([H])([H])C([H])([H])[H])c1[H]

>  <smiles>  (10) 
[H]C(=C([H])C1([H])C([H])(N([H])C(=O)N2C([H])([H])C([H])([H])C([H])([H])C([H])(n3nc(-c4c([H])c([H])c(Oc5c([H])c([H])c(F)c([H])c5F)c([H])c4[H])c(C(=O)N([H])[H])c3N([H])[H])C2([H])[H])C([H])([H])C1([H])C([H])([H])C([H])([H])Oc1c([H])c([H])c2c(c1[H])C([H])([H])N(C(=O)C([H])(N([H])C(=O)C([H])(N([H])C([H])([H])[H])C([H])([H])[H])C(C([H])([H])[H])(C([H])([H])[H])C([H])([H])[H])C([H])(C(=O)N([H])C1([H])c3c([H])c([H])c([H])c([H])c3C([H])([H])C([H])([H])C1([H])[H])C2([H])[H])c1c([H])nc([H])c(C([H])([H])C([H])([H])[H])c1[H]

$$$$
10:0:0
     RDKit          3D

 95104  0  0  1  0  0  0  0  0999 V2000
  -31.7660  -21.7620   23.5990 C   0  0  0  0  0  0  0  0  0  0  0  0
  -32.4250  -21.2910   22.3040 C   0  0  0  0  0  2  0  0  0  0  0  0
  -30.3390  -22.2930   23.4890 C   0  0  0  0  0  2  0  0  0  0  0  0
  -31.6490  -21.8120   21.0760 C   0  0  0  0  0  2  0  0  0  0  0  0
  -29.5280  -21.4840   22.4550 C   0  0  0  0  0  2  0  0  0  0  0  0
  -30.1500  -21.3610   21.0190 C   0  0  2  0  0  0  0  0  0  0  0  0
  -32.3600  -21.7220   24.6780 O   0  0  0  0  0  0  0  0  0  0  0  0
  -31.1800  -19.0190   20.2770 C   0  0  0  0  0  3  0  0  0  0  0  0
  -28.8290  -19.1080   20.7410 C   0  0  0  0  0  3  0  0  0  0  0  0
  -31.1210  -17.6000   20.1730 C   0  0  0  0  0  3  0  0  0  0  0  0
  -28.7660  -17.6890   20.6370 C   0  0  0  0  0  3  0  0  0  0  0  0
  -30.0490  -19.8250   20.6170 C   0  0  0  0  0  0  0  0  0  0  0  0
  -29.9150  -16.8900   20.3880 C   0  0  0  0  0  0  0  0  0  0  0  0
  -30.5320  -14.4150   19.8900 C   0  0  0  0  0  0  0  0  0  0  0  0
  -30.1810  -12.2420   18.7390 C   0  0  0  0  0  2  0  0  0  0  0  0
  -29.1250  -12.4510   17.6310 C   0  0  0  0  0  2  0  0  0  0  0  0
  -27.6960  -12.3010   18.1920 C   0  0  0  0  0  2  0  0  0  0  0  0
  -27.4790  -13.1080   19.5000 C   0  0  0  0  0  3  0  0  0  0  0  0
  -28.6330  -12.8620   20.4980 C   0  0  0  0  0  2  0  0  0  0  0  0
  -29.8920  -13.2070   19.8170 N   0  0  0  0  0  0  0  0  0  0  0  0
  -31.6500  -14.5840   19.3940 O   0  0  0  0  0  0  0  0  0  0  0  0
  -29.7730  -15.4380   20.3860 N   0  0  0  0  0  0  0  0  0  0  0  0
  -28.8920  -15.1080   20.7490 H   0  0  0  0  0  0  0  0  0  0  0  0
  -25.1740  -13.7220   20.4600 C   0  0  0  0  0  0  0  0  0  0  0  0
  -24.1310  -12.9540   20.9010 C   0  0  0  0  0  0  0  0  0  0  0  0
  -24.5600  -11.5960   20.7750 C   0  0  0  0  0  0  0  0  0  0  0  0
  -26.1740  -12.8330   20.0960 N   0  0  0  0  0  0  0  0  0  0  0  0
  -25.8140  -11.5480   20.3430 N   0  0  0  0  0  0  0  0  0  0  0  0
  -23.8310  -10.3400   20.9850 C   0  0  0  0  0  0  0  0  0  0  0  0
  -24.3120   -9.3450   21.8640 C   0  0  0  0  0  3  0  0  0  0  0  0
  -23.5830   -8.1520   22.0640 C   0  0  0  0  0  3  0  0  0  0  0  0
  -22.3590   -7.9470   21.3850 C   0  0  0  0  0  0  0  0  0  0  0  0
  -21.8960   -8.9310   20.4940 C   0  0  0  0  0  3  0  0  0  0  0  0
  -22.6250  -10.1140   20.2930 C   0  0  0  0  0  3  0  0  0  0  0  0
  -21.5960   -6.8090   21.4970 O   0  0  0  0  0  0  0  0  0  0  0  0
  -21.6030   -6.0480   22.6370 C   0  0  0  0  0  0  0  0  0  0  0  0
  -21.2280   -6.5810   23.8910 C   0  0  0  0  0  3  0  0  0  0  0  0
  -21.1810   -5.7460   25.0250 C   0  0  0  0  0  3  0  0  0  0  0  0
  -21.4980   -4.3800   24.9080 C   0  0  0  0  0  0  0  0  0  0  0  0
  -21.8660   -3.8460   23.6600 C   0  0  0  0  0  3  0  0  0  0  0  0
  -21.9150   -4.6780   22.5280 C   0  0  0  0  0  0  0  0  0  0  0  0
  -22.2490   -4.1540   21.3240 F   0  0  0  0  0  0  0  0  0  0  0  0
  -21.4460   -3.5770   25.9960 F   0  0  0  0  0  0  0  0  0  0  0  0
  -22.7750  -13.4420   21.3210 C   0  0  0  0  0  0  0  0  0  0  0  0
  -22.1180  -12.7280   22.2280 N   0  0  0  0  0  0  0  0  0  0  0  0
  -22.3090  -14.4920   20.8790 O   0  0  0  0  0  0  0  0  0  0  0  0
  -22.5090  -11.8780   22.6070 H   0  0  0  0  0  0  0  0  0  0  0  0
  -21.2120  -13.0360   22.5490 H   0  0  0  0  0  0  0  0  0  0  0  0
  -25.3480  -15.0960   20.3170 N   0  0  0  0  0  0  0  0  0  0  0  0
  -24.6020  -15.7530   20.5170 H   0  0  0  0  0  0  0  0  0  0  0  0
  -26.1440  -15.5280   19.8670 H   0  0  0  0  0  0  0  0  0  0  0  0
  -29.3680  -22.3760   20.0610 C   0  0  0  0  0  2  0  0  0  0  0  0
  -29.4270  -23.9430   20.3860 C   0  0  0  0  0  3  0  0  0  0  0  0
  -28.3370  -24.8970   19.7630 C   0  0  0  0  0  3  0  0  0  0  0  0
  -28.4610  -26.3340   20.0600 O   0  0  0  0  0  0  0  0  0  0  0  0
  -24.5560  -31.5690   23.0630 C   0  0  0  0  0  0  0  0  0  0  0  0
  -27.3150  -27.1340   19.9850 C   0  0  0  0  0  0  0  0  0  0  0  0
  -23.4090  -30.1810   21.3720 C   0  0  0  0  0  3  0  0  0  0  0  0
  -24.9160  -28.6840   19.9490 C   0  0  0  0  0  0  0  0  0  0  0  0
  -25.9430  -30.5520   21.2460 C   0  0  0  0  0  2  0  0  0  0  0  0
  -26.0590  -29.1880   20.5810 C   0  0  0  0  0  0  0  0  0  0  0  0
  -27.2600  -28.4240   20.5920 C   0  0  0  0  0  3  0  0  0  0  0  0
  -26.1500  -26.6790   19.3240 C   0  0  0  0  0  3  0  0  0  0  0  0
  -24.9620  -27.4350   19.3130 C   0  0  0  0  0  3  0  0  0  0  0  0
  -23.6620  -29.5330   19.9850 C   0  0  0  0  0  2  0  0  0  0  0  0
  -24.6530  -30.7840   21.9510 N   0  0  0  0  0  0  0  0  0  0  0  0
  -23.4590  -31.8200   23.5790 O   0  0  0  0  0  0  0  0  0  0  0  0
  -22.7450  -29.1360   22.3000 C   0  0  0  0  0  0  0  0  0  0  0  0
  -21.4190  -28.9670   22.1650 N   0  0  0  0  0  0  0  0  0  0  0  0
  -23.4210  -28.4840   23.0990 O   0  0  0  0  0  0  0  0  0  0  0  0
  -20.9330  -29.5430   21.4930 H   0  0  0  0  0  0  0  0  0  0  0  0
  -18.0290  -27.8100   22.6630 C   0  0  0  0  0  0  0  0  0  0  0  0
  -20.5950  -28.0110   22.9070 C   0  0  0  0  0  3  0  0  0  0  0  0
  -20.6630  -26.6040   22.2680 C   0  0  0  0  0  2  0  0  0  0  0  0
  -19.5420  -26.3460   21.2570 C   0  0  0  0  0  2  0  0  0  0  0  0
  -18.1720  -26.4880   21.9280 C   0  0  0  0  0  2  0  0  0  0  0  0
  -19.1680  -28.5320   23.1090 C   0  0  0  0  0  0  0  0  0  0  0  0
  -18.9810  -29.7730   23.7580 C   0  0  0  0  0  3  0  0  0  0  0  0
  -17.6880  -30.2890   23.9650 C   0  0  0  0  0  3  0  0  0  0  0  0
  -16.5640  -29.5620   23.5340 C   0  0  0  0  0  3  0  0  0  0  0  0
  -16.7350  -28.3240   22.8890 C   0  0  0  0  0  3  0  0  0  0  0  0
  -25.8170  -32.2100   23.7210 C   0  0  0  0  0  3  0  0  0  0  0  0
  -26.3190  -31.4240   24.9940 C   0  0  1  0  0  0  0  0  0  0  0  0
  -25.2100  -31.1560   26.0380 C   0  0  0  0  0  1  0  0  0  0  0  0
  -26.9260  -30.0590   24.5910 C   0  0  0  0  0  1  0  0  0  0  0  0
  -27.4470  -32.2200   25.6920 C   0  0  0  0  0  1  0  0  0  0  0  0
  -25.4790  -33.5970   24.0700 N   0  0  0  0  0  0  0  0  0  0  0  0
  -25.8050  -34.6680   23.3330 C   0  0  0  0  0  0  0  0  0  0  0  0
  -26.4910  -34.5920   22.3100 O   0  0  0  0  0  0  0  0  0  0  0  0
  -24.8700  -33.7280   24.8640 H   0  0  0  0  0  0  0  0  0  0  0  0
  -24.0520  -36.4360   22.9840 C   0  0  0  0  0  1  0  0  0  0  0  0
  -25.2880  -36.0400   23.8060 C   0  0  0  0  0  3  0  0  0  0  0  0
  -27.3910  -36.9500   24.6870 C   0  0  0  0  0  1  0  0  0  0  0  0
  -26.3040  -37.1120   23.7260 N   0  0  0  0  0  0  0  0  0  0  0  0
  -25.8780  -38.0220   23.8800 H   0  0  0  0  0  0  0  0  0  0  0  0
  1  7  2  0
  2  1  1  0
  3  1  1  0
  4  2  1  0
  5  3  1  0
  6  4  1  0
  6  5  1  0
  8 12  1  0
 10  8  2  0
 10 13  1  0
 11  9  1  0
 12  9  2  0
 12  6  1  0
 13 11  2  0
 14 22  1  0
 15 20  1  0
 16 17  1  0
 16 15  1  0
 18 17  1  0
 18 27  1  0
 18 19  1  0
 20 14  1  0
 20 19  1  0
 21 14  2  0
 22 13  1  0
 22 23  1  0
 24 25  2  0
 25 44  1  0
 26 25  1  0
 26 29  1  0
 27 28  1  0
 27 24  1  0
 28 26  2  0
 29 30  1  0
 30 31  2  0
 32 35  1  0
 32 31  1  0
 33 32  2  0
 34 33  1  0
 34 29  2  0
 35 36  1  0
 36 37  1  0
 37 38  2  0
 39 38  1  0
 39 43  1  0
 40 39  2  0
 41 36  2  0
 41 40  1  0
 42 41  1  0
 44 45  1  0
 45 48  1  0
 45 47  1  0
 46 44  2  0
 49 24  1  0
 49 50  1  0
 51 49  1  0
 52 53  1  0
  6 52  1  6
 54 55  1  0
 54 53  2  0
 56 67  2  0
 57 55  1  0
 57 62  1  0
 58 66  1  0
 58 68  1  0
 59 65  1  0
 59 61  1  0
 60 66  1  0
 61 62  2  0
 61 60  1  0
 63 57  2  0
 64 63  1  0
 64 59  2  0
 65 58  1  0
 66 56  1  0
 68 70  2  0
 69 68  1  0
 71 69  1  0
 72 81  2  0
 72 77  1  0
 73 69  1  0
 73 77  1  0
 74 73  1  0
 75 76  1  0
 75 74  1  0
 76 72  1  0
 77 78  2  0
 78 79  1  0
 80 79  2  0
 81 80  1  0
 82 56  1  0
 82 87  1  0
 82 83  1  0
 83 86  1  1
 83 84  1  0
 85 83  1  0
 87 90  1  0
 88 92  1  0
 88 87  1  0
 89 88  2  0
 92 91  1  0
 94 92  1  0
 94 95  1  0
 94 93  1  0
M  ISO  4  14 100  22 100  54 101  55 101
M  END
>  <TORSDO>  (11) 
F 20

>  <SCORE>  (11) 
-12.972

>  <name>  (11) 
10

>  <ligand_id>  (11) 
10

>  <original_smiles>  (11) 
[H]c1c([H])c([H])c2c(c1[H])C([H])([H])C([H])([H])C([H])([H])C2([H])N([H])C(=O)C1([H])N(C(=O)C([H])(N([H])C(=O)C([H])(N([H])C([H])([H])[H])C([H])([H])[H])C(C([H])([H])[H])(C([H])([H])[H])C([H])([H])[H])C([H])([H])c2c([H])c(OC([H])([H])C([H])([H])C([H])([H])C3(c4c([H])c([H])c(N([H])C(=O)N5C([H])([H])C([H])([H])C([H])([H])C([H])(n6nc(-c7c([H])c([H])c(Oc8c([H])c([H])c(F)c([H])c8F)c([H])c7[H])c(C(=O)N([H])[H])c6N([H])[H])C5([H])[H])c([H])c4[H])C([H])([H])C([H])([H])C(=O)C([H])([H])C3([H])[H])c([H])c([H])c2C1([H])[H]

>  <smiles>  (11) 
[H]c1c([H])c([H])c2c(c1[H])C([H])([H])C([H])([H])C([H])([H])C2([H])N([H])C(=O)C1([H])N(C(=O)C([H])(N([H])C(=O)C([H])(N([H])C([H])([H])[H])C([H])([H])[H])C(C([H])([H])[H])(C([H])([H])[H])C([H])([H])[H])C([H])([H])c2c([H])c(OC([H])([H])C([H])([H])C([H])([H])C3(c4c([H])c([H])c(N([H])C(=O)N5C([H])([H])C([H])([H])C([H])([H])C([H])(n6nc(-c7c([H])c([H])c(Oc8c([H])c([H])c(F)c([H])c8F)c([H])c7[H])c(C(=O)N([H])[H])c6N([H])[H])C5([H])[H])c([H])c4[H])C([H])([H])C([H])([H])C(=O)C([H])([H])C3([H])[H])c([H])c([H])c2C1([H])[H]

$$$$
11:0:0
     RDKit          3D

 92101  0  0  1  0  0  0  0  0999 V2000
  -31.7220  -18.9620   19.0640 C   0  0  0  0  0  3  0  0  0  0  0  0
  -31.3170  -18.7820   20.3430 C   0  0  0  0  0  3  0  0  0  0  0  0
  -30.7560  -19.4430   17.9730 C   0  0  0  0  0  2  0  0  0  0  0  0
  -28.7180  -18.1810   18.7940 C   0  0  0  0  0  2  0  0  0  0  0  0
  -29.8650  -19.0340   20.7270 C   0  0  0  0  0  3  0  0  0  0  0  0
  -29.3150  -19.6350   18.5300 C   0  0  0  0  0  3  0  0  0  0  0  0
  -29.1340  -17.6650   20.2060 C   0  0  0  0  0  3  0  0  0  0  0  0
  -29.4730  -20.4240   19.8830 C   0  0  0  0  0  3  0  0  0  0  0  0
  -30.3980  -15.0100   20.2340 C   0  0  0  0  0  0  0  0  0  0  0  0
  -30.3860  -12.6250   19.3490 C   0  0  0  0  0  2  0  0  0  0  0  0
  -29.4390  -12.5330   18.1280 C   0  0  0  0  0  2  0  0  0  0  0  0
  -27.9730  -12.3410   18.5680 C   0  0  0  0  0  2  0  0  0  0  0  0
  -27.5640  -13.2740   19.7390 C   0  0  0  0  0  3  0  0  0  0  0  0
  -28.6240  -13.2720   20.8590 C   0  0  0  0  0  2  0  0  0  0  0  0
  -29.8890  -13.7080   20.2480 N   0  0  0  0  0  0  0  0  0  0  0  0
  -31.5870  -15.1420   19.9190 O   0  0  0  0  0  0  0  0  0  0  0  0
  -29.4810  -16.0960   20.3970 N   0  0  0  0  0  0  0  0  0  0  0  0
  -28.6220  -15.6410   20.6650 H   0  0  0  0  0  0  0  0  0  0  0  0
  -25.1870  -13.8670   20.4760 C   0  0  0  0  0  0  0  0  0  0  0  0
  -24.1230  -13.0980   20.8560 C   0  0  0  0  0  0  0  0  0  0  0  0
  -24.5850  -11.7450   20.8340 C   0  0  0  0  0  0  0  0  0  0  0  0
  -26.2270  -12.9830   20.2390 N   0  0  0  0  0  0  0  0  0  0  0  0
  -25.8740  -11.7040   20.5220 N   0  0  0  0  0  0  0  0  0  0  0  0
  -23.8600  -10.4850   21.0400 C   0  0  0  0  0  0  0  0  0  0  0  0
  -24.3050   -9.5130   21.9660 C   0  0  0  0  0  3  0  0  0  0  0  0
  -23.5790   -8.3180   22.1530 C   0  0  0  0  0  3  0  0  0  0  0  0
  -22.3950   -8.0820   21.4150 C   0  0  0  0  0  0  0  0  0  0  0  0
  -21.9660   -9.0410   20.4820 C   0  0  0  0  0  3  0  0  0  0  0  0
  -22.6920  -10.2280   20.2940 C   0  0  0  0  0  3  0  0  0  0  0  0
  -21.6390   -6.9380   21.5140 O   0  0  0  0  0  0  0  0  0  0  0  0
  -21.6230   -6.1840   22.6570 C   0  0  0  0  0  0  0  0  0  0  0  0
  -21.2380   -6.7250   23.9050 C   0  0  0  0  0  3  0  0  0  0  0  0
  -21.1730   -5.8960   25.0420 C   0  0  0  0  0  3  0  0  0  0  0  0
  -21.4810   -4.5270   24.9350 C   0  0  0  0  0  0  0  0  0  0  0  0
  -21.8590   -3.9840   23.6950 C   0  0  0  0  0  3  0  0  0  0  0  0
  -21.9290   -4.8100   22.5580 C   0  0  0  0  0  0  0  0  0  0  0  0
  -22.2750   -4.2790   21.3620 F   0  0  0  0  0  0  0  0  0  0  0  0
  -21.4080   -3.7280   26.0250 F   0  0  0  0  0  0  0  0  0  0  0  0
  -22.7250  -13.5760   21.1250 C   0  0  0  0  0  0  0  0  0  0  0  0
  -21.9980  -12.8880   21.9950 N   0  0  0  0  0  0  0  0  0  0  0  0
  -22.2880  -14.5980   20.5950 O   0  0  0  0  0  0  0  0  0  0  0  0
  -22.3630  -12.0590   22.4450 H   0  0  0  0  0  0  0  0  0  0  0  0
  -21.0630  -13.1930   22.2180 H   0  0  0  0  0  0  0  0  0  0  0  0
  -25.3560  -15.2380   20.2870 N   0  0  0  0  0  0  0  0  0  0  0  0
  -24.5870  -15.8930   20.3770 H   0  0  0  0  0  0  0  0  0  0  0  0
  -26.1900  -15.6590   19.9020 H   0  0  0  0  0  0  0  0  0  0  0  0
  -27.1510  -21.4390   19.6260 C   0  0  0  0  0  1  0  0  0  0  0  0
  -28.4790  -21.6350   20.2460 N   0  0  2  0  0  4  0  0  0  0  0  0
  -28.3030  -21.5040   21.2310 H   0  0  0  0  0  0  0  0  0  0  0  0
  -28.9310  -23.1800   20.1430 C   0  0  0  0  0  3  0  0  0  0  0  0
  -27.8910  -24.5430   20.1590 C   0  0  0  0  0  3  0  0  0  0  0  0
  -28.2150  -26.0940   20.2090 O   0  0  0  0  0  0  0  0  0  0  0  0
  -24.6740  -31.8750   23.2470 C   0  0  0  0  0  0  0  0  0  0  0  0
  -27.1840  -27.1180   20.1670 C   0  0  0  0  0  0  0  0  0  0  0  0
  -23.4570  -30.5000   21.6070 C   0  0  0  0  0  3  0  0  0  0  0  0
  -24.8840  -28.9200   20.1650 C   0  0  0  0  0  0  0  0  0  0  0  0
  -26.0180  -30.7300   21.4380 C   0  0  0  0  0  2  0  0  0  0  0  0
  -26.0750  -29.3390   20.7710 C   0  0  0  0  0  0  0  0  0  0  0  0
  -27.2260  -28.4550   20.7520 C   0  0  0  0  0  3  0  0  0  0  0  0
  -25.9670  -26.8210   19.5130 C   0  0  0  0  0  3  0  0  0  0  0  0
  -24.8460  -27.6770   19.5210 C   0  0  0  0  0  3  0  0  0  0  0  0
  -23.6700  -29.8350   20.2230 C   0  0  0  0  0  2  0  0  0  0  0  0
  -24.7370  -31.0590   22.1510 N   0  0  0  0  0  0  0  0  0  0  0  0
  -23.5900  -32.1650   23.7790 O   0  0  0  0  0  0  0  0  0  0  0  0
  -22.7720  -29.4920   22.5630 C   0  0  0  0  0  0  0  0  0  0  0  0
  -21.4430  -29.3310   22.4420 N   0  0  0  0  0  0  0  0  0  0  0  0
  -23.4420  -28.8550   23.3800 O   0  0  0  0  0  0  0  0  0  0  0  0
  -20.9570  -29.8970   21.7620 H   0  0  0  0  0  0  0  0  0  0  0  0
  -18.0570  -28.1370   22.9460 C   0  0  0  0  0  0  0  0  0  0  0  0
  -20.6180  -28.3960   23.2120 C   0  0  0  0  0  3  0  0  0  0  0  0
  -20.7140  -26.9610   22.6400 C   0  0  0  0  0  2  0  0  0  0  0  0
  -19.6110  -26.6410   21.6250 C   0  0  0  0  0  2  0  0  0  0  0  0
  -18.2300  -26.7880   22.2700 C   0  0  0  0  0  2  0  0  0  0  0  0
  -19.1780  -28.8980   23.3760 C   0  0  0  0  0  0  0  0  0  0  0  0
  -18.9590  -30.1590   23.9730 C   0  0  0  0  0  3  0  0  0  0  0  0
  -17.6540  -30.6610   24.1410 C   0  0  0  0  0  3  0  0  0  0  0  0
  -16.5490  -29.8970   23.7240 C   0  0  0  0  0  3  0  0  0  0  0  0
  -16.7520  -28.6360   23.1350 C   0  0  0  0  0  3  0  0  0  0  0  0
  -25.9580  -32.5010   23.8720 C   0  0  0  0  0  3  0  0  0  0  0  0
  -26.4650  -31.7250   25.1500 C   0  0  1  0  0  0  0  0  0  0  0  0
  -25.3710  -31.4990   26.2200 C   0  0  0  0  0  1  0  0  0  0  0  0
  -27.0350  -30.3420   24.7650 C   0  0  0  0  0  1  0  0  0  0  0  0
  -27.6240  -32.5080   25.8090 C   0  0  0  0  0  1  0  0  0  0  0  0
  -25.6550  -33.9020   24.2100 N   0  0  0  0  0  0  0  0  0  0  0  0
  -25.9720  -34.9580   23.4500 C   0  0  0  0  0  0  0  0  0  0  0  0
  -26.6140  -34.8550   22.4010 O   0  0  0  0  0  0  0  0  0  0  0  0
  -25.0850  -34.0540   25.0280 H   0  0  0  0  0  0  0  0  0  0  0  0
  -24.2330  -36.7540   23.1610 C   0  0  0  0  0  1  0  0  0  0  0  0
  -25.5030  -36.3480   23.9250 C   0  0  0  0  0  3  0  0  0  0  0  0
  -27.6680  -37.2340   24.6730 C   0  0  0  0  0  1  0  0  0  0  0  0
  -26.5320  -37.4010   23.7720 N   0  0  0  0  0  0  0  0  0  0  0  0
  -26.1320  -38.3220   23.9330 H   0  0  0  0  0  0  0  0  0  0  0  0
  1  2  2  0
  3  1  1  0
  4  7  1  0
  5  2  1  0
  6  3  1  0
  6  4  1  0
  6  8  1  0
  7 17  1  0
  7  5  1  0
  8 48  1  0
  8  5  1  0
  9 15  1  0
  9 17  1  0
 10 15  1  0
 11 12  1  0
 11 10  1  0
 13 12  1  0
 13 22  1  0
 13 14  1  0
 15 14  1  0
 16  9  2  0
 17 18  1  0
 19 20  2  0
 20 39  1  0
 21 20  1  0
 21 24  1  0
 22 19  1  0
 22 23  1  0
 23 21  2  0
 24 25  1  0
 25 26  2  0
 27 30  1  0
 27 26  1  0
 28 27  2  0
 29 28  1  0
 29 24  2  0
 30 31  1  0
 31 32  1  0
 32 33  2  0
 34 33  1  0
 34 38  1  0
 35 34  2  0
 36 31  2  0
 36 35  1  0
 37 36  1  0
 39 40  1  0
 40 43  1  0
 40 42  1  0
 41 39  2  0
 44 45  1  0
 44 19  1  0
 46 44  1  0
 47 48  1  0
 48 49  1  1
 50 51  2  0
 50 48  1  0
 51 52  1  0
 53 64  2  0
 54 52  1  0
 54 59  1  0
 55 63  1  0
 55 65  1  0
 56 62  1  0
 56 58  1  0
 57 63  1  0
 58 57  1  0
 59 58  2  0
 60 61  1  0
 60 54  2  0
 61 56  2  0
 62 55  1  0
 63 53  1  0
 65 67  2  0
 66 65  1  0
 68 66  1  0
 69 78  2  0
 69 74  1  0
 70 66  1  0
 70 74  1  0
 71 70  1  0
 72 73  1  0
 72 71  1  0
 73 69  1  0
 74 75  2  0
 75 76  1  0
 77 76  2  0
 78 77  1  0
 79 53  1  0
 79 84  1  0
 79 80  1  0
 80 83  1  1
 80 81  1  0
 82 80  1  0
 84 87  1  0
 85 89  1  0
 85 84  1  0
 86 85  2  0
 89 88  1  0
 91 89  1  0
 91 92  1  0
 91 90  1  0
M  ISO  4   9 100  17 100  51 101  52 101
M  END
>  <TORSDO>  (12) 
F 19

>  <SCORE>  (12) 
-15.035

>  <name>  (12) 
11

>  <ligand_id>  (12) 
11

>  <original_smiles>  (12) 
[H]C1=C([H])C2([H])C([H])(N([H])C(=O)N3C([H])([H])C([H])([H])C([H])([H])C([H])(n4nc(-c5c([H])c([H])c(Oc6c([H])c([H])c(F)c([H])c6F)c([H])c5[H])c(C(=O)N([H])[H])c4N([H])[H])C3([H])[H])C([H])([H])C([H])(C1([H])[H])C2([H])[N+]([H])(C([H])([H])[H])C([H])([H])C([H])([H])Oc1c([H])c([H])c2c(c1[H])C([H])([H])N(C(=O)C([H])(N([H])C(=O)C([H])(N([H])C([H])([H])[H])C([H])([H])[H])C(C([H])([H])[H])(C([H])([H])[H])C([H])([H])[H])C([H])(C(=O)N([H])C1([H])c3c([H])c([H])c([H])c([H])c3C([H])([H])C([H])([H])C1([H])[H])C2([H])[H]

>  <smiles>  (12) 
[H]C1=C([H])C2([H])C([H])(N([H])C(=O)N3C([H])([H])C([H])([H])C([H])([H])C([H])(n4nc(-c5c([H])c([H])c(Oc6c([H])c([H])c(F)c([H])c6F)c([H])c5[H])c(C(=O)N([H])[H])c4N([H])[H])C3([H])[H])C([H])([H])C([H])(C1([H])[H])C2([H])[N+]([H])(C([H])([H])[H])C([H])([H])C([H])([H])Oc1c([H])c([H])c2c(c1[H])C([H])([H])N(C(=O)C([H])(N([H])C(=O)C([H])(N([H])C([H])([H])[H])C([H])([H])[H])C(C([H])([H])[H])(C([H])([H])[H])C([H])([H])[H])C([H])(C(=O)N([H])C1([H])c3c([H])c([H])c([H])c([H])c3C([H])([H])C([H])([H])C1([H])[H])C2([H])[H]

$$$$
12:0:0
     RDKit          3D

 94103  0  0  1  0  0  0  0  0999 V2000
  -28.9410  -22.0330   20.3500 C   0  0  0  0  0  3  0  0  0  0  0  0
  -28.1450  -21.2240   19.6210 C   0  0  0  0  0  3  0  0  0  0  0  0
  -28.8210  -18.5390   19.7080 C   0  0  0  0  0  2  0  0  0  0  0  0
  -30.1500  -19.9200   21.6830 C   0  0  0  0  0  2  0  0  0  0  0  0
  -30.0220  -20.8410   20.4250 C   0  0  0  0  0  3  0  0  0  0  0  0
  -29.1720  -20.0750   19.3700 C   0  0  0  0  0  3  0  0  0  0  0  0
  -30.0240  -17.6530   20.3120 C   0  0  0  0  0  3  0  0  0  0  0  0
  -30.6500  -18.4980   21.4090 N   0  0  0  0  0  4  0  0  0  0  0  0
  -30.5860  -17.9930   22.2760 H   0  0  0  0  0  0  0  0  0  0  0  0
  -31.6330  -18.5650   21.2020 H   0  0  0  0  0  0  0  0  0  0  0  0
  -30.5520  -14.9450   20.3110 C   0  0  0  0  0  0  0  0  0  0  0  0
  -30.4000  -12.6210   19.3420 C   0  0  0  0  0  2  0  0  0  0  0  0
  -29.4520  -12.6210   18.1200 C   0  0  0  0  0  2  0  0  0  0  0  0
  -27.9910  -12.4160   18.5650 C   0  0  0  0  0  2  0  0  0  0  0  0
  -27.6020  -13.3200   19.7650 C   0  0  0  0  0  3  0  0  0  0  0  0
  -28.6710  -13.2980   20.8780 C   0  0  0  0  0  2  0  0  0  0  0  0
  -29.9460  -13.6960   20.2650 N   0  0  0  0  0  0  0  0  0  0  0  0
  -31.7420  -15.0270   19.9950 O   0  0  0  0  0  0  0  0  0  0  0  0
  -29.7720  -16.1070   20.5070 N   0  0  0  0  0  0  0  0  0  0  0  0
  -28.8130  -15.8890   20.7280 H   0  0  0  0  0  0  0  0  0  0  0  0
  -25.2260  -13.8910   20.5310 C   0  0  0  0  0  0  0  0  0  0  0  0
  -24.1670  -13.1120   20.9080 C   0  0  0  0  0  0  0  0  0  0  0  0
  -24.6330  -11.7620   20.8620 C   0  0  0  0  0  0  0  0  0  0  0  0
  -26.2690  -13.0180   20.2730 N   0  0  0  0  0  0  0  0  0  0  0  0
  -25.9200  -11.7310   20.5360 N   0  0  0  0  0  0  0  0  0  0  0  0
  -23.9100  -10.4970   21.0500 C   0  0  0  0  0  0  0  0  0  0  0  0
  -24.3500   -9.5260   21.9760 C   0  0  0  0  0  3  0  0  0  0  0  0
  -23.6250   -8.3270   22.1520 C   0  0  0  0  0  3  0  0  0  0  0  0
  -22.4480   -8.0900   21.4030 C   0  0  0  0  0  0  0  0  0  0  0  0
  -22.0290   -9.0520   20.4670 C   0  0  0  0  0  3  0  0  0  0  0  0
  -22.7540  -10.2410   20.2880 C   0  0  0  0  0  3  0  0  0  0  0  0
  -21.6960   -6.9430   21.4880 O   0  0  0  0  0  0  0  0  0  0  0  0
  -21.6480   -6.1980   22.6400 C   0  0  0  0  0  0  0  0  0  0  0  0
  -21.2050   -6.7460   23.8630 C   0  0  0  0  0  3  0  0  0  0  0  0
  -21.1040   -5.9260   25.0050 C   0  0  0  0  0  3  0  0  0  0  0  0
  -21.4390   -4.5610   24.9250 C   0  0  0  0  0  0  0  0  0  0  0  0
  -21.8760   -4.0140   23.7060 C   0  0  0  0  0  3  0  0  0  0  0  0
  -21.9780   -4.8290   22.5650 C   0  0  0  0  0  0  0  0  0  0  0  0
  -22.3810   -4.2930   21.3890 F   0  0  0  0  0  0  0  0  0  0  0  0
  -21.3340   -3.7720   26.0190 F   0  0  0  0  0  0  0  0  0  0  0  0
  -22.7710  -13.5860   21.1950 C   0  0  0  0  0  0  0  0  0  0  0  0
  -22.0530  -12.8870   22.0650 N   0  0  0  0  0  0  0  0  0  0  0  0
  -22.3270  -14.6110   20.6800 O   0  0  0  0  0  0  0  0  0  0  0  0
  -22.4230  -12.0600   22.5100 H   0  0  0  0  0  0  0  0  0  0  0  0
  -21.1170  -13.1860   22.2960 H   0  0  0  0  0  0  0  0  0  0  0  0
  -25.3790  -15.2620   20.3560 N   0  0  0  0  0  0  0  0  0  0  0  0
  -24.5910  -15.8950   20.4410 H   0  0  0  0  0  0  0  0  0  0  0  0
  -26.1890  -15.6970   19.9350 H   0  0  0  0  0  0  0  0  0  0  0  0
  -29.0780  -23.6180   20.4940 C   0  0  0  0  0  0  0  0  0  0  0  0
  -30.1010  -24.0500   21.0350 O   0  0  0  0  0  0  0  0  0  0  0  0
  -28.0080  -24.7720   20.0310 C   0  0  0  0  0  2  0  0  0  0  0  0
  -28.2760  -26.2740   20.2850 O   0  0  0  0  0  0  0  0  0  0  0  0
  -24.6310  -31.9160   23.2430 C   0  0  0  0  0  0  0  0  0  0  0  0
  -27.2110  -27.2340   20.2080 C   0  0  0  0  0  0  0  0  0  0  0  0
  -23.4280  -30.5310   21.5970 C   0  0  0  0  0  3  0  0  0  0  0  0
  -24.8760  -28.9580   20.1710 C   0  0  0  0  0  0  0  0  0  0  0  0
  -25.9800  -30.7980   21.4360 C   0  0  0  0  0  2  0  0  0  0  0  0
  -26.0530  -29.4090   20.7830 C   0  0  0  0  0  0  0  0  0  0  0  0
  -27.2200  -28.5630   20.7850 C   0  0  0  0  0  3  0  0  0  0  0  0
  -26.0080  -26.8750   19.5590 C   0  0  0  0  0  3  0  0  0  0  0  0
  -24.8660  -27.7030   19.5420 C   0  0  0  0  0  3  0  0  0  0  0  0
  -23.6480  -29.8540   20.2170 C   0  0  0  0  0  2  0  0  0  0  0  0
  -24.6990  -31.1020   22.1470 N   0  0  0  0  0  0  0  0  0  0  0  0
  -23.5440  -32.2000   23.7720 O   0  0  0  0  0  0  0  0  0  0  0  0
  -22.7460  -29.5220   22.5540 C   0  0  0  0  0  0  0  0  0  0  0  0
  -21.4170  -29.3530   22.4220 N   0  0  0  0  0  0  0  0  0  0  0  0
  -23.4130  -28.8920   23.3790 O   0  0  0  0  0  0  0  0  0  0  0  0
  -20.9340  -29.9140   21.7340 H   0  0  0  0  0  0  0  0  0  0  0  0
  -18.0320  -28.1670   22.9160 C   0  0  0  0  0  0  0  0  0  0  0  0
  -20.5910  -28.4190   23.1900 C   0  0  0  0  0  3  0  0  0  0  0  0
  -20.6860  -26.9850   22.6150 C   0  0  0  0  0  2  0  0  0  0  0  0
  -19.5860  -26.6690   21.5960 C   0  0  0  0  0  2  0  0  0  0  0  0
  -18.2030  -26.8190   22.2370 C   0  0  0  0  0  2  0  0  0  0  0  0
  -19.1520  -28.9260   23.3490 C   0  0  0  0  0  0  0  0  0  0  0  0
  -18.9360  -30.1870   23.9450 C   0  0  0  0  0  3  0  0  0  0  0  0
  -17.6310  -30.6910   24.1100 C   0  0  0  0  0  3  0  0  0  0  0  0
  -16.5250  -29.9310   23.6910 C   0  0  0  0  0  3  0  0  0  0  0  0
  -16.7260  -28.6710   23.1000 C   0  0  0  0  0  3  0  0  0  0  0  0
  -25.9100  -32.5450   23.8740 C   0  0  0  0  0  3  0  0  0  0  0  0
  -26.4130  -31.7720   25.1560 C   0  0  1  0  0  0  0  0  0  0  0  0
  -25.3120  -31.5410   26.2180 C   0  0  0  0  0  1  0  0  0  0  0  0
  -26.9920  -30.3910   24.7730 C   0  0  0  0  0  1  0  0  0  0  0  0
  -27.5620  -32.5620   25.8240 C   0  0  0  0  0  1  0  0  0  0  0  0
  -25.6020  -33.9440   24.2080 N   0  0  0  0  0  0  0  0  0  0  0  0
  -25.9200  -35.0000   23.4460 C   0  0  0  0  0  0  0  0  0  0  0  0
  -26.5730  -34.8980   22.4040 O   0  0  0  0  0  0  0  0  0  0  0  0
  -25.0200  -34.0960   25.0180 H   0  0  0  0  0  0  0  0  0  0  0  0
  -24.1800  -36.7920   23.1370 C   0  0  0  0  0  1  0  0  0  0  0  0
  -25.4430  -36.3890   23.9150 C   0  0  0  0  0  3  0  0  0  0  0  0
  -27.5960  -37.2850   24.6890 C   0  0  0  0  0  1  0  0  0  0  0  0
  -26.4690  -37.4460   23.7730 N   0  0  0  0  0  0  0  0  0  0  0  0
  -26.0640  -38.3650   23.9260 H   0  0  0  0  0  0  0  0  0  0  0  0
  -27.2620  -21.5140   18.6530 O   0  0  0  0  0  0  0  0  0  0  0  0
  -26.9310  -22.3900   18.8010 H   0  0  0  0  0  0  0  0  0  0  0  0
  1  5  1  0
  1 49  1  0
  2 93  1  0
  2  1  1  0
  3  7  1  0
  5  4  1  0
  6  2  1  0
  6  3  1  0
  6  5  1  0
  7 19  1  0
  7  8  1  0
  8  4  1  0
  8  9  1  0
 10  8  1  0
 11 19  1  0
 12 17  1  0
 13 14  1  0
 13 12  1  0
 15 14  1  0
 15 24  1  0
 15 16  1  0
 17 11  1  0
 17 16  1  0
 18 11  2  0
 19 20  1  0
 21 22  2  0
 22 41  1  0
 23 22  1  0
 23 26  1  0
 24 21  1  0
 24 25  1  0
 25 23  2  0
 26 27  1  0
 27 28  2  0
 29 32  1  0
 29 28  1  0
 30 29  2  0
 31 30  1  0
 31 26  2  0
 32 33  1  0
 33 34  1  0
 34 35  2  0
 36 35  1  0
 36 40  1  0
 37 36  2  0
 38 33  2  0
 38 37  1  0
 39 38  1  0
 41 42  1  0
 42 45  1  0
 42 44  1  0
 43 41  2  0
 46 47  1  0
 46 21  1  0
 48 46  1  0
 49 50  2  0
 51 52  1  0
 51 49  1  0
 53 64  2  0
 54 52  1  0
 54 59  1  0
 55 63  1  0
 55 65  1  0
 56 62  1  0
 56 58  1  0
 57 63  1  0
 58 59  2  0
 58 57  1  0
 60 54  2  0
 61 60  1  0
 61 56  2  0
 62 55  1  0
 63 53  1  0
 65 67  2  0
 66 65  1  0
 68 66  1  0
 69 78  2  0
 69 74  1  0
 70 66  1  0
 70 74  1  0
 71 70  1  0
 72 73  1  0
 72 71  1  0
 73 69  1  0
 74 75  2  0
 75 76  1  0
 77 76  2  0
 78 77  1  0
 79 53  1  0
 79 84  1  0
 79 80  1  0
 80 83  1  1
 80 81  1  0
 82 80  1  0
 84 87  1  0
 85 89  1  0
 85 84  1  0
 86 85  2  0
 89 88  1  0
 91 89  1  0
 91 92  1  0
 91 90  1  0
 93 94  1  0
M  ISO  4  11 100  19 100  51 101  52 101
M  END
>  <TORSDO>  (13) 
F 19

>  <SCORE>  (13) 
-14.559

>  <name>  (13) 
12

>  <ligand_id>  (13) 
12

>  <original_smiles>  (13) 
[H]OC1=C(C(=O)C([H])([H])Oc2c([H])c([H])c3c(c2[H])C([H])([H])N(C(=O)C([H])(N([H])C(=O)C([H])(N([H])C([H])([H])[H])C([H])([H])[H])C(C([H])([H])[H])(C([H])([H])[H])C([H])([H])[H])C([H])(C(=O)N([H])C2([H])c4c([H])c([H])c([H])c([H])c4C([H])([H])C([H])([H])C2([H])[H])C3([H])[H])C2([H])C1([H])C([H])([H])C([H])(N([H])C(=O)N1C([H])([H])C([H])([H])C([H])([H])C([H])(n3nc(-c4c([H])c([H])c(Oc5c([H])c([H])c(F)c([H])c5F)c([H])c4[H])c(C(=O)N([H])[H])c3N([H])[H])C1([H])[H])[N+]([H])([H])C2([H])[H]

>  <smiles>  (13) 
[H]OC1=C(C(=O)C([H])([H])Oc2c([H])c([H])c3c(c2[H])C([H])([H])N(C(=O)C([H])(N([H])C(=O)C([H])(N([H])C([H])([H])[H])C([H])([H])[H])C(C([H])([H])[H])(C([H])([H])[H])C([H])([H])[H])C([H])(C(=O)N([H])C2([H])c4c([H])c([H])c([H])c([H])c4C([H])([H])C([H])([H])C2([H])[H])C3([H])[H])C2([H])C1([H])C([H])([H])C([H])(N([H])C(=O)N1C([H])([H])C([H])([H])C([H])([H])C([H])(n3nc(-c4c([H])c([H])c(Oc5c([H])c([H])c(F)c([H])c5F)c([H])c4[H])c(C(=O)N([H])[H])c3N([H])[H])C1([H])[H])[N+]([H])([H])C2([H])[H]

$$$$
13:0:0
     RDKit          3D

 89 98  0  0  1  0  0  0  0  0999 V2000
  -30.0350  -18.1060   20.2060 C   0  0  0  0  0  3  0  0  0  0  0  0
  -31.0220  -19.7110   21.8720 C   0  0  0  0  0  0  0  0  0  0  0  0
  -31.3350  -18.6610   20.7700 C   0  0  0  0  0  2  0  0  0  0  0  0
  -29.1760  -19.5640   19.7140 C   0  0  0  0  0  2  0  0  0  0  0  0
  -29.5760  -21.7980   22.4780 C   0  0  0  0  0  2  0  0  0  0  0  0
  -28.3800  -21.2870   21.6750 C   0  0  0  0  0  2  0  0  0  0  0  0
  -30.4750  -21.0940   21.4450 C   0  0  0  0  0  3  0  0  0  0  0  0
  -29.2790  -21.1890   20.4220 C   0  0  1  0  0  0  0  0  0  0  0  0
  -29.7350  -16.7210   20.1500 N   0  0  0  0  0  2  0  0  0  0  0  0
  -31.2320  -19.3820   23.0440 O   0  0  0  0  0  0  0  0  0  0  0  0
  -30.5860  -15.4240   20.1340 C   0  0  0  0  0  0  0  0  0  0  0  0
  -30.5250  -13.0560   19.0760 C   0  0  0  0  0  2  0  0  0  0  0  0
  -29.5370  -12.9770   17.8830 C   0  0  0  0  0  2  0  0  0  0  0  0
  -28.0970  -12.6960   18.3640 C   0  0  0  0  0  2  0  0  0  0  0  0
  -27.7230  -13.5440   19.6060 C   0  0  0  0  0  3  0  0  0  0  0  0
  -28.8310  -13.5610   20.6710 C   0  0  0  0  0  2  0  0  0  0  0  0
  -30.0370  -14.1110   20.0370 N   0  0  0  0  0  0  0  0  0  0  0  0
  -31.8090  -15.4180   19.9650 O   0  0  0  0  0  0  0  0  0  0  0  0
  -25.3790  -14.0310   20.4790 C   0  0  0  0  0  0  0  0  0  0  0  0
  -24.3480  -13.2250   20.8710 C   0  0  0  0  0  0  0  0  0  0  0  0
  -24.8400  -11.8870   20.7890 C   0  0  0  0  0  0  0  0  0  0  0  0
  -26.4260  -13.1860   20.1650 N   0  0  0  0  0  0  0  0  0  0  0  0
  -26.1170  -11.8880   20.4190 N   0  0  0  0  0  0  0  0  0  0  0  0
  -24.1440  -10.6060   20.9770 C   0  0  0  0  0  0  0  0  0  0  0  0
  -24.5810   -9.6560   21.9260 C   0  0  0  0  0  3  0  0  0  0  0  0
  -23.8800   -8.4430   22.1000 C   0  0  0  0  0  3  0  0  0  0  0  0
  -22.7270   -8.1710   21.3260 C   0  0  0  0  0  0  0  0  0  0  0  0
  -22.3090   -9.1100   20.3670 C   0  0  0  0  0  3  0  0  0  0  0  0
  -23.0110  -10.3140   20.1900 C   0  0  0  0  0  3  0  0  0  0  0  0
  -21.9950   -7.0120   21.4130 O   0  0  0  0  0  0  0  0  0  0  0  0
  -21.8830   -6.3150   22.5890 C   0  0  0  0  0  0  0  0  0  0  0  0
  -21.3440   -6.9030   23.7540 C   0  0  0  0  0  3  0  0  0  0  0  0
  -21.1830   -6.1310   24.9220 C   0  0  0  0  0  3  0  0  0  0  0  0
  -21.5470   -4.7720   24.9260 C   0  0  0  0  0  0  0  0  0  0  0  0
  -22.0810   -4.1840   23.7650 C   0  0  0  0  0  3  0  0  0  0  0  0
  -22.2450   -4.9530   22.6000 C   0  0  0  0  0  0  0  0  0  0  0  0
  -22.7380   -4.3740   21.4770 F   0  0  0  0  0  0  0  0  0  0  0  0
  -21.3880   -4.0290   26.0460 F   0  0  0  0  0  0  0  0  0  0  0  0
  -22.9540  -13.6710   21.2050 C   0  0  0  0  0  0  0  0  0  0  0  0
  -22.2730  -12.9510   22.0890 N   0  0  0  0  0  0  0  0  0  0  0  0
  -22.4740  -14.6920   20.7110 O   0  0  0  0  0  0  0  0  0  0  0  0
  -22.6750  -12.1310   22.5170 H   0  0  0  0  0  0  0  0  0  0  0  0
  -21.3350  -13.2300   22.3400 H   0  0  0  0  0  0  0  0  0  0  0  0
  -25.5080  -15.4120   20.3380 N   0  0  0  0  0  0  0  0  0  0  0  0
  -24.7360  -16.0470   20.5120 H   0  0  0  0  0  0  0  0  0  0  0  0
  -26.3520  -15.8840   20.0350 H   0  0  0  0  0  0  0  0  0  0  0  0
  -29.2150  -22.8060   19.5860 C   0  0  0  0  0  2  0  0  0  0  0  0
  -28.2010  -24.3010   19.7920 C   0  0  0  0  0  2  0  0  0  0  0  0
  -28.3890  -25.9380   19.5820 O   0  0  0  0  0  0  0  0  0  0  0  0
  -24.6930  -31.6290   22.9760 C   0  0  0  0  0  0  0  0  0  0  0  0
  -27.3410  -27.0040   19.6400 C   0  0  0  0  0  0  0  0  0  0  0  0
  -23.5130  -30.2860   21.2860 C   0  0  0  0  0  3  0  0  0  0  0  0
  -24.9810  -28.8130   19.7470 C   0  0  0  0  0  0  0  0  0  0  0  0
  -26.0680  -30.5860   21.1020 C   0  0  0  0  0  2  0  0  0  0  0  0
  -26.1720  -29.2200   20.3630 C   0  0  0  0  0  0  0  0  0  0  0  0
  -27.3420  -28.3380   20.2850 C   0  0  0  0  0  3  0  0  0  0  0  0
  -26.1120  -26.7570   18.9870 C   0  0  0  0  0  3  0  0  0  0  0  0
  -24.9770  -27.6020   19.0400 C   0  0  0  0  0  3  0  0  0  0  0  0
  -23.7370  -29.6880   19.8720 C   0  0  0  0  0  2  0  0  0  0  0  0
  -24.7810  -30.8580   21.8440 N   0  0  0  0  0  0  0  0  0  0  0  0
  -23.6050  -31.8540   23.5270 O   0  0  0  0  0  0  0  0  0  0  0  0
  -22.8690  -29.2170   22.2050 C   0  0  0  0  0  0  0  0  0  0  0  0
  -21.5400  -29.0340   22.1100 N   0  0  0  0  0  0  0  0  0  0  0  0
  -23.5730  -28.5580   22.9750 O   0  0  0  0  0  0  0  0  0  0  0  0
  -21.0270  -29.6090   21.4540 H   0  0  0  0  0  0  0  0  0  0  0  0
  -18.1980  -27.7450   22.6750 C   0  0  0  0  0  0  0  0  0  0  0  0
  -20.7650  -28.0290   22.8450 C   0  0  0  0  0  3  0  0  0  0  0  0
  -20.8600  -26.6470   22.1610 C   0  0  0  0  0  2  0  0  0  0  0  0
  -19.7130  -26.3830   21.1810 C   0  0  0  0  0  2  0  0  0  0  0  0
  -18.3600  -26.4500   21.8970 C   0  0  0  0  0  2  0  0  0  0  0  0
  -19.3250  -28.4920   23.1100 C   0  0  0  0  0  0  0  0  0  0  0  0
  -19.1170  -29.6990   23.8090 C   0  0  0  0  0  3  0  0  0  0  0  0
  -17.8140  -30.1520   24.0880 C   0  0  0  0  0  3  0  0  0  0  0  0
  -16.7000  -29.4020   23.6660 C   0  0  0  0  0  3  0  0  0  0  0  0
  -16.8970  -28.2020   22.9630 C   0  0  0  0  0  3  0  0  0  0  0  0
  -25.9550  -32.2770   23.6240 C   0  0  0  0  0  3  0  0  0  0  0  0
  -25.5820  -33.6260   24.0880 N   0  0  0  0  0  0  0  0  0  0  0  0
  -25.8200  -34.7620   23.4180 C   0  0  0  0  0  0  0  0  0  0  0  0
  -26.4310  -34.7830   22.3460 O   0  0  0  0  0  0  0  0  0  0  0  0
  -25.0290  -33.6790   24.9310 H   0  0  0  0  0  0  0  0  0  0  0  0
  -23.9740  -36.4740   23.3460 C   0  0  0  0  0  1  0  0  0  0  0  0
  -25.2960  -36.0780   24.0240 C   0  0  0  0  0  3  0  0  0  0  0  0
  -27.4350  -37.0330   24.7680 C   0  0  0  0  0  1  0  0  0  0  0  0
  -26.2560  -37.2000   23.9240 N   0  0  0  0  0  0  0  0  0  0  0  0
  -25.8070  -38.0810   24.1650 H   0  0  0  0  0  0  0  0  0  0  0  0
  -26.5370  -31.4330   24.8270 C   0  0  1  0  0  0  0  0  0  0  0  0
  -25.4830  -31.0760   25.9010 C   0  0  0  0  0  1  0  0  0  0  0  0
  -27.1650  -30.1130   24.3250 C   0  0  0  0  0  1  0  0  0  0  0  0
  -27.6750  -32.2220   25.5160 C   0  0  0  0  0  1  0  0  0  0  0  0
  1  9  1  0
  1  3  1  0
  2 10  2  0
  3  2  1  0
  4  1  1  0
  4  8  1  0
  6  5  1  0
  7  2  1  0
  7  5  1  0
  8 47  1  6
  8  7  1  0
  8  6  1  0
 11  9  1  0
 12 17  1  0
 13 14  1  0
 13 12  1  0
 15 14  1  0
 15 22  1  0
 15 16  1  0
 17 11  1  0
 17 16  1  0
 18 11  2  0
 19 20  2  0
 20 39  1  0
 21 20  1  0
 21 24  1  0
 22 23  1  0
 22 19  1  0
 23 21  2  0
 24 25  1  0
 25 26  2  0
 27 30  1  0
 27 26  1  0
 28 27  2  0
 29 28  1  0
 29 24  2  0
 30 31  1  0
 31 36  2  0
 31 32  1  0
 32 33  2  0
 33 34  1  0
 34 38  1  0
 35 34  2  0
 36 35  1  0
 37 36  1  0
 39 40  1  0
 40 43  1  0
 40 42  1  0
 41 39  2  0
 44 19  1  0
 44 45  1  0
 46 44  1  0
 47 48  1  0
 49 51  1  0
 49 48  1  0
 50 61  2  0
 51 56  1  0
 52 60  1  0
 52 62  1  0
 53 59  1  0
 53 55  1  0
 54 60  1  0
 55 54  1  0
 56 55  2  0
 57 58  1  0
 57 51  2  0
 58 53  2  0
 59 52  1  0
 60 50  1  0
 62 64  2  0
 63 62  1  0
 65 63  1  0
 66 75  2  0
 66 71  1  0
 67 63  1  0
 67 71  1  0
 68 67  1  0
 69 70  1  0
 69 68  1  0
 70 66  1  0
 71 72  2  0
 72 73  1  0
 74 73  2  0
 75 74  1  0
 76 50  1  0
 76 77  1  0
 76 86  1  0
 77 80  1  0
 78 82  1  0
 78 77  1  0
 79 78  2  0
 82 81  1  0
 84 82  1  0
 84 85  1  0
 84 83  1  0
 86 89  1  1
 86 87  1  0
 88 86  1  0
M  ISO  4   9 100  11 100  48 101  49 101
M  END
>  <TORSDO>  (14) 
F 18

>  <SCORE>  (14) 
-15.517

>  <name>  (14) 
13

>  <ligand_id>  (14) 
13

>  <original_smiles>  (14) 
[H]c1c([H])c([H])c2c(c1[H])C([H])([H])C([H])([H])C([H])([H])C2([H])N([H])C(=O)C1([H])N(C(=O)C([H])(N([H])C(=O)C([H])(N([H])C([H])([H])[H])C([H])([H])[H])C(C([H])([H])[H])(C([H])([H])[H])C([H])([H])[H])C([H])([H])c2c([H])c(OC([H])([H])C([H])([H])C34C([H])([H])C(=NC(=O)N5C([H])([H])C([H])([H])C([H])([H])C([H])(n6nc(-c7c([H])c([H])c(Oc8c([H])c([H])c(F)c([H])c8F)c([H])c7[H])c(C(=O)N([H])[H])c6N([H])[H])C5([H])[H])C([H])([H])C(=O)C3([H])C([H])([H])C4([H])[H])c([H])c([H])c2C1([H])[H]

>  <smiles>  (14) 
[H]c1c([H])c([H])c2c(c1[H])C([H])([H])C([H])([H])C([H])([H])C2([H])N([H])C(=O)C1([H])N(C(=O)C([H])(N([H])C(=O)C([H])(N([H])C([H])([H])[H])C([H])([H])[H])C(C([H])([H])[H])(C([H])([H])[H])C([H])([H])[H])C([H])([H])c2c([H])c(OC([H])([H])C([H])([H])C34C([H])([H])C(=NC(=O)N5C([H])([H])C([H])([H])C([H])([H])C([H])(n6nc(-c7c([H])c([H])c(Oc8c([H])c([H])c(F)c([H])c8F)c([H])c7[H])c(C(=O)N([H])[H])c6N([H])[H])C5([H])[H])C([H])([H])C(=O)C3([H])C([H])([H])C4([H])[H])c([H])c([H])c2C1([H])[H]

$$$$
14:0:0
     RDKit          3D

 96105  0  0  1  0  0  0  0  0999 V2000
  -31.1620  -21.1090   17.4920 C   0  0  0  0  0  0  0  0  0  0  0  0
  -31.2380  -22.4100   16.7060 C   0  0  0  0  0  2  0  0  0  0  0  0
  -31.1330  -23.6650   17.5930 C   0  0  0  0  0  2  0  0  0  0  0  0
  -29.8920  -22.2850   19.3720 C   0  0  0  0  0  2  0  0  0  0  0  0
  -31.0220  -21.2820   19.0140 C   0  0  0  0  0  3  0  0  0  0  0  0
  -29.9210  -23.6070   18.5440 C   0  0  0  0  0  3  0  0  0  0  0  0
  -31.2180  -19.9900   16.8990 N   0  0  0  0  0  0  0  0  0  0  0  0
  -31.3120  -20.0950   15.8950 H   0  0  0  0  0  0  0  0  0  0  0  0
  -32.0290  -19.6220   20.6570 C   0  0  0  0  0  3  0  0  0  0  0  0
  -29.8370  -19.1050   19.7380 C   0  0  0  0  0  3  0  0  0  0  0  0
  -32.0080  -18.4190   21.3850 C   0  0  0  0  0  3  0  0  0  0  0  0
  -29.8180  -17.8940   20.4640 C   0  0  0  0  0  3  0  0  0  0  0  0
  -30.9500  -19.9750   19.8180 C   0  0  0  0  0  0  0  0  0  0  0  0
  -30.9110  -17.5410   21.2870 C   0  0  0  0  0  0  0  0  0  0  0  0
  -30.9330  -16.2500   22.0980 C   0  0  0  0  0  2  0  0  0  0  0  0
  -30.7180  -14.3460   20.4990 C   0  0  0  0  0  0  0  0  0  0  0  0
  -30.3210  -12.3040   19.1670 C   0  0  0  0  0  2  0  0  0  0  0  0
  -29.3650  -12.5850   17.9930 C   0  0  0  0  0  2  0  0  0  0  0  0
  -27.8950  -12.4530   18.4380 C   0  0  0  0  0  2  0  0  0  0  0  0
  -27.5950  -13.2390   19.7430 C   0  0  0  0  0  3  0  0  0  0  0  0
  -28.6540  -12.9290   20.8210 C   0  0  0  0  0  2  0  0  0  0  0  0
  -29.9850  -13.2280   20.2580 N   0  0  0  0  0  0  0  0  0  0  0  0
  -31.7530  -14.6270   19.8850 O   0  0  0  0  0  0  0  0  0  0  0  0
  -30.2520  -15.1130   21.4900 N   0  0  0  0  0  0  0  0  0  0  0  0
  -29.4010  -14.8010   21.9340 H   0  0  0  0  0  0  0  0  0  0  0  0
  -25.1980  -13.8630   20.4560 C   0  0  0  0  0  0  0  0  0  0  0  0
  -24.1290  -13.0970   20.8360 C   0  0  0  0  0  0  0  0  0  0  0  0
  -24.5830  -11.7430   20.8100 C   0  0  0  0  0  0  0  0  0  0  0  0
  -26.2400  -12.9760   20.2270 N   0  0  0  0  0  0  0  0  0  0  0  0
  -25.8710  -11.6960   20.4920 N   0  0  0  0  0  0  0  0  0  0  0  0
  -23.8550  -10.4840   21.0140 C   0  0  0  0  0  0  0  0  0  0  0  0
  -24.2920   -9.5200   21.9490 C   0  0  0  0  0  3  0  0  0  0  0  0
  -23.5650   -8.3250   22.1390 C   0  0  0  0  0  3  0  0  0  0  0  0
  -22.3880   -8.0860   21.3920 C   0  0  0  0  0  0  0  0  0  0  0  0
  -21.9690   -9.0380   20.4460 C   0  0  0  0  0  3  0  0  0  0  0  0
  -22.6960  -10.2250   20.2540 C   0  0  0  0  0  3  0  0  0  0  0  0
  -21.6310   -6.9430   21.4900 O   0  0  0  0  0  0  0  0  0  0  0  0
  -21.5920   -6.2030   22.6450 C   0  0  0  0  0  0  0  0  0  0  0  0
  -21.1770   -6.7610   23.8730 C   0  0  0  0  0  3  0  0  0  0  0  0
  -21.0840   -5.9490   25.0200 C   0  0  0  0  0  3  0  0  0  0  0  0
  -21.3960   -4.5780   24.9390 C   0  0  0  0  0  0  0  0  0  0  0  0
  -21.8030   -4.0180   23.7150 C   0  0  0  0  0  3  0  0  0  0  0  0
  -21.8970   -4.8290   22.5700 C   0  0  0  0  0  0  0  0  0  0  0  0
  -22.2700   -4.2810   21.3880 F   0  0  0  0  0  0  0  0  0  0  0  0
  -21.2990   -3.7950   26.0380 F   0  0  0  0  0  0  0  0  0  0  0  0
  -22.7360  -13.5820   21.1180 C   0  0  0  0  0  0  0  0  0  0  0  0
  -22.0090  -12.8920   21.9910 N   0  0  0  0  0  0  0  0  0  0  0  0
  -22.2980  -14.6080   20.5980 O   0  0  0  0  0  0  0  0  0  0  0  0
  -22.3750  -12.0630   22.4360 H   0  0  0  0  0  0  0  0  0  0  0  0
  -21.0740  -13.2000   22.2200 H   0  0  0  0  0  0  0  0  0  0  0  0
  -25.3690  -15.2310   20.2700 N   0  0  0  0  0  0  0  0  0  0  0  0
  -24.6100  -15.8940   20.3820 H   0  0  0  0  0  0  0  0  0  0  0  0
  -26.2270  -15.6620   19.9490 H   0  0  0  0  0  0  0  0  0  0  0  0
  -29.8200  -24.9000   19.3960 C   0  0  0  0  0  2  0  0  0  0  0  0
  -28.3930  -25.4590   19.4710 C   0  0  0  0  0  2  0  0  0  0  0  0
  -28.3740  -26.7330   20.1170 O   0  0  0  0  0  0  0  0  0  0  0  0
  -24.5570  -31.8780   23.2230 C   0  0  0  0  0  0  0  0  0  0  0  0
  -27.1810  -27.4290   20.1290 C   0  0  0  0  0  0  0  0  0  0  0  0
  -23.3430  -30.4800   21.5840 C   0  0  0  0  0  3  0  0  0  0  0  0
  -24.7850  -28.9380   20.1610 C   0  0  0  0  0  0  0  0  0  0  0  0
  -25.8700  -30.8280   21.3840 C   0  0  0  0  0  2  0  0  0  0  0  0
  -25.9470  -29.4570   20.7450 C   0  0  0  0  0  0  0  0  0  0  0  0
  -27.1450  -28.7070   20.7300 C   0  0  0  0  0  3  0  0  0  0  0  0
  -25.9860  -26.9170   19.5640 C   0  0  0  0  0  3  0  0  0  0  0  0
  -24.7970  -27.6640   19.5740 C   0  0  0  0  0  3  0  0  0  0  0  0
  -23.5480  -29.8030   20.2050 C   0  0  0  0  0  2  0  0  0  0  0  0
  -24.6090  -31.0770   22.1220 N   0  0  0  0  0  0  0  0  0  0  0  0
  -23.4790  -32.1540   23.7650 O   0  0  0  0  0  0  0  0  0  0  0  0
  -22.6900  -29.4590   22.5420 C   0  0  0  0  0  0  0  0  0  0  0  0
  -21.3660  -29.2790   22.4120 N   0  0  0  0  0  0  0  0  0  0  0  0
  -23.3710  -28.8330   23.3590 O   0  0  0  0  0  0  0  0  0  0  0  0
  -20.8810  -29.8370   21.7230 H   0  0  0  0  0  0  0  0  0  0  0  0
  -17.9870  -28.0950   22.8960 C   0  0  0  0  0  0  0  0  0  0  0  0
  -20.5440  -28.3460   23.1790 C   0  0  0  0  0  3  0  0  0  0  0  0
  -20.6460  -26.9130   22.6060 C   0  0  0  0  0  2  0  0  0  0  0  0
  -19.5470  -26.5910   21.5890 C   0  0  0  0  0  2  0  0  0  0  0  0
  -18.1630  -26.7420   22.2260 C   0  0  0  0  0  2  0  0  0  0  0  0
  -19.1060  -28.8540   23.3280 C   0  0  0  0  0  0  0  0  0  0  0  0
  -18.8900  -30.1210   23.9130 C   0  0  0  0  0  3  0  0  0  0  0  0
  -17.5870  -30.6280   24.0710 C   0  0  0  0  0  3  0  0  0  0  0  0
  -16.4810  -29.8660   23.6560 C   0  0  0  0  0  3  0  0  0  0  0  0
  -16.6820  -28.6010   23.0730 C   0  0  0  0  0  3  0  0  0  0  0  0
  -25.8480  -32.5010   23.8410 C   0  0  0  0  0  3  0  0  0  0  0  0
  -26.3700  -31.7230   25.1110 C   0  0  1  0  0  0  0  0  0  0  0  0
  -25.2820  -31.4820   26.1820 C   0  0  0  0  0  1  0  0  0  0  0  0
  -26.9470  -30.3460   24.7060 C   0  0  0  0  0  1  0  0  0  0  0  0
  -27.5240  -32.5120   25.7720 C   0  0  0  0  0  1  0  0  0  0  0  0
  -25.5450  -33.8990   24.1750 N   0  0  0  0  0  0  0  0  0  0  0  0
  -25.8790  -34.9520   23.4180 C   0  0  0  0  0  0  0  0  0  0  0  0
  -26.5480  -34.8500   22.3860 O   0  0  0  0  0  0  0  0  0  0  0  0
  -24.9560  -34.0550   24.9800 H   0  0  0  0  0  0  0  0  0  0  0  0
  -24.1570  -36.7480   23.0640 C   0  0  0  0  0  1  0  0  0  0  0  0
  -25.3950  -36.3400   23.8780 C   0  0  0  0  0  3  0  0  0  0  0  0
  -27.5280  -37.2120   24.7190 C   0  0  0  0  0  1  0  0  0  0  0  0
  -26.4310  -37.3900   23.7740 N   0  0  0  0  0  0  0  0  0  0  0  0
  -26.0270  -38.3100   23.9300 H   0  0  0  0  0  0  0  0  0  0  0  0
  1  5  1  0
  2  1  1  0
  2  3  1  0
  3  6  1  0
  5  4  1  0
  5 13  1  0
  6  4  1  0
  6 54  1  0
  7  1  2  0
  8  7  1  0
  9 11  1  0
 10 13  1  0
 10 12  2  0
 12 14  1  0
 13  9  2  0
 14 11  2  0
 14 15  1  0
 16 24  1  0
 17 22  1  0
 18 19  1  0
 18 17  1  0
 20 19  1  0
 20 29  1  0
 20 21  1  0
 22 16  1  0
 22 21  1  0
 23 16  2  0
 24 25  1  0
 24 15  1  0
 26 27  2  0
 27 46  1  0
 28 27  1  0
 28 31  1  0
 29 26  1  0
 29 30  1  0
 30 28  2  0
 31 32  1  0
 32 33  2  0
 34 37  1  0
 34 33  1  0
 35 34  2  0
 36 35  1  0
 36 31  2  0
 37 38  1  0
 38 39  1  0
 39 40  2  0
 41 40  1  0
 41 45  1  0
 42 41  2  0
 43 38  2  0
 43 42  1  0
 44 43  1  0
 46 47  1  0
 47 50  1  0
 47 49  1  0
 48 46  2  0
 51 52  1  0
 51 26  1  0
 53 51  1  0
 54 55  1  0
 55 56  1  0
 56 58  1  0
 57 68  2  0
 58 63  1  0
 59 67  1  0
 59 69  1  0
 60 66  1  0
 60 62  1  0
 61 67  1  0
 62 61  1  0
 63 62  2  0
 64 65  1  0
 64 58  2  0
 65 60  2  0
 66 59  1  0
 67 57  1  0
 69 71  2  0
 70 69  1  0
 72 70  1  0
 73 82  2  0
 73 78  1  0
 74 70  1  0
 74 78  1  0
 75 74  1  0
 76 77  1  0
 76 75  1  0
 77 73  1  0
 78 79  2  0
 79 80  1  0
 81 80  2  0
 82 81  1  0
 83 57  1  0
 83 88  1  0
 83 84  1  0
 84 87  1  1
 84 85  1  0
 86 84  1  0
 88 91  1  0
 89 93  1  0
 89 88  1  0
 90 89  2  0
 93 92  1  0
 95 93  1  0
 95 96  1  0
 95 94  1  0
M  ISO  4  16 100  24 100  55 101  56 101
M  END
>  <TORSDO>  (15) 
F 20

>  <SCORE>  (15) 
-13.981

>  <name>  (15) 
14

>  <ligand_id>  (15) 
14

>  <original_smiles>  (15) 
[H]N=C1C([H])([H])C([H])([H])C([H])(C([H])([H])C([H])([H])Oc2c([H])c([H])c3c(c2[H])C([H])([H])N(C(=O)C([H])(N([H])C(=O)C([H])(N([H])C([H])([H])[H])C([H])([H])[H])C(C([H])([H])[H])(C([H])([H])[H])C([H])([H])[H])C([H])(C(=O)N([H])C2([H])c4c([H])c([H])c([H])c([H])c4C([H])([H])C([H])([H])C2([H])[H])C3([H])[H])C([H])([H])C1([H])c1c([H])c([H])c(C([H])([H])N([H])C(=O)N2C([H])([H])C([H])([H])C([H])([H])C([H])(n3nc(-c4c([H])c([H])c(Oc5c([H])c([H])c(F)c([H])c5F)c([H])c4[H])c(C(=O)N([H])[H])c3N([H])[H])C2([H])[H])c([H])c1[H]

>  <smiles>  (15) 
[H]N=C1C([H])([H])C([H])([H])C([H])(C([H])([H])C([H])([H])Oc2c([H])c([H])c3c(c2[H])C([H])([H])N(C(=O)C([H])(N([H])C(=O)C([H])(N([H])C([H])([H])[H])C([H])([H])[H])C(C([H])([H])[H])(C([H])([H])[H])C([H])([H])[H])C([H])(C(=O)N([H])C2([H])c4c([H])c([H])c([H])c([H])c4C([H])([H])C([H])([H])C2([H])[H])C3([H])[H])C([H])([H])C1([H])c1c([H])c([H])c(C([H])([H])N([H])C(=O)N2C([H])([H])C([H])([H])C([H])([H])C([H])(n3nc(-c4c([H])c([H])c(Oc5c([H])c([H])c(F)c([H])c5F)c([H])c4[H])c(C(=O)N([H])[H])c3N([H])[H])C2([H])[H])c([H])c1[H]

$$$$
15:0:0
     RDKit          3D

 90 99  0  0  1  0  0  0  0  0999 V2000
  -29.9090  -18.2770   18.8060 C   0  0  0  0  0  0  0  0  0  0  0  0
  -29.6460  -19.8380   18.6830 C   0  0  0  0  0  2  0  0  0  0  0  0
  -30.2680  -20.2590   21.1340 C   0  0  0  0  0  2  0  0  0  0  0  0
  -28.4060  -19.5450   20.8860 C   0  0  0  0  0  2  0  0  0  0  0  0
  -30.3410  -17.6820   20.1940 C   0  0  0  0  0  3  0  0  0  0  0  0
  -29.7300  -18.7740   21.2050 C   0  0  0  0  0  3  0  0  0  0  0  0
  -29.2270  -20.5620   20.0190 C   0  0  2  0  0  0  0  0  0  0  0  0
  -29.7590  -17.5600   17.8130 O   0  0  0  0  0  0  0  0  0  0  0  0
  -30.7080  -15.0130   20.1960 C   0  0  0  0  0  0  0  0  0  0  0  0
  -30.5140  -12.6740   19.2820 C   0  0  0  0  0  2  0  0  0  0  0  0
  -29.5590  -12.6560   18.0670 C   0  0  0  0  0  2  0  0  0  0  0  0
  -28.1010  -12.4760   18.5280 C   0  0  0  0  0  2  0  0  0  0  0  0
  -27.7300  -13.4210   19.7010 C   0  0  0  0  0  3  0  0  0  0  0  0
  -28.8030  -13.4200   20.8110 C   0  0  0  0  0  2  0  0  0  0  0  0
  -30.0810  -13.7760   20.1810 N   0  0  0  0  0  0  0  0  0  0  0  0
  -31.8920  -15.0750   19.8520 O   0  0  0  0  0  0  0  0  0  0  0  0
  -29.9650  -16.1840   20.4070 N   0  0  0  0  0  0  0  0  0  0  0  0
  -28.9960  -16.0250   20.6360 H   0  0  0  0  0  0  0  0  0  0  0  0
  -25.3780  -14.0360   20.5070 C   0  0  0  0  0  0  0  0  0  0  0  0
  -24.3070  -13.2740   20.8860 C   0  0  0  0  0  0  0  0  0  0  0  0
  -24.7430  -11.9150   20.8160 C   0  0  0  0  0  0  0  0  0  0  0  0
  -26.3970  -13.1430   20.2240 N   0  0  0  0  0  0  0  0  0  0  0  0
  -26.0250  -11.8610   20.4760 N   0  0  0  0  0  0  0  0  0  0  0  0
  -23.9970  -10.6630   20.9970 C   0  0  0  0  0  0  0  0  0  0  0  0
  -24.4100   -9.6830   21.9260 C   0  0  0  0  0  3  0  0  0  0  0  0
  -23.6630   -8.4970   22.0940 C   0  0  0  0  0  3  0  0  0  0  0  0
  -22.4890   -8.2830   21.3340 C   0  0  0  0  0  0  0  0  0  0  0  0
  -22.0950   -9.2510   20.3940 C   0  0  0  0  0  3  0  0  0  0  0  0
  -22.8420  -10.4290   20.2230 C   0  0  0  0  0  3  0  0  0  0  0  0
  -21.7150   -7.1510   21.4130 O   0  0  0  0  0  0  0  0  0  0  0  0
  -21.6260   -6.4190   22.5700 C   0  0  0  0  0  0  0  0  0  0  0  0
  -21.1180   -6.9730   23.7650 C   0  0  0  0  0  3  0  0  0  0  0  0
  -20.9790   -6.1660   24.9120 C   0  0  0  0  0  3  0  0  0  0  0  0
  -21.3360   -4.8060   24.8640 C   0  0  0  0  0  0  0  0  0  0  0  0
  -21.8360   -4.2510   23.6730 C   0  0  0  0  0  3  0  0  0  0  0  0
  -21.9770   -5.0550   22.5280 C   0  0  0  0  0  0  0  0  0  0  0  0
  -22.4380   -4.5090   21.3770 F   0  0  0  0  0  0  0  0  0  0  0  0
  -21.1950   -4.0280   25.9630 F   0  0  0  0  0  0  0  0  0  0  0  0
  -22.9250  -13.7730   21.1990 C   0  0  0  0  0  0  0  0  0  0  0  0
  -22.2050  -13.0750   22.0700 N   0  0  0  0  0  0  0  0  0  0  0  0
  -22.4960  -14.8140   20.7060 O   0  0  0  0  0  0  0  0  0  0  0  0
  -22.5670  -12.2290   22.4880 H   0  0  0  0  0  0  0  0  0  0  0  0
  -21.2800  -13.3890   22.3230 H   0  0  0  0  0  0  0  0  0  0  0  0
  -25.5640  -15.4080   20.3530 N   0  0  0  0  0  0  0  0  0  0  0  0
  -24.8080  -16.0700   20.4880 H   0  0  0  0  0  0  0  0  0  0  0  0
  -26.4010  -15.8350   19.9810 H   0  0  0  0  0  0  0  0  0  0  0  0
  -28.5210  -22.0550   19.7590 C   0  0  0  0  0  2  0  0  0  0  0  0
  -29.0810  -23.5800   20.0740 C   0  0  0  0  0  3  0  0  0  0  0  0
  -28.0930  -24.8900   19.8080 C   0  0  0  0  0  3  0  0  0  0  0  0
  -28.3500  -26.3770   20.1030 O   0  0  0  0  0  0  0  0  0  0  0  0
  -24.5740  -31.8220   23.2430 C   0  0  0  0  0  0  0  0  0  0  0  0
  -27.2670  -27.3160   20.0570 C   0  0  0  0  0  0  0  0  0  0  0  0
  -23.4110  -30.4660   21.5450 C   0  0  0  0  0  3  0  0  0  0  0  0
  -24.8980  -28.9810   20.0730 C   0  0  0  0  0  0  0  0  0  0  0  0
  -25.9560  -30.7990   21.4030 C   0  0  0  0  0  2  0  0  0  0  0  0
  -26.0630  -29.4380   20.7030 C   0  0  0  0  0  0  0  0  0  0  0  0
  -27.2490  -28.6210   20.6800 C   0  0  0  0  0  3  0  0  0  0  0  0
  -26.0730  -26.9520   19.3940 C   0  0  0  0  0  3  0  0  0  0  0  0
  -24.9130  -27.7500   19.4060 C   0  0  0  0  0  3  0  0  0  0  0  0
  -23.6500  -29.8430   20.1440 C   0  0  0  0  0  2  0  0  0  0  0  0
  -24.6670  -31.0470   22.1200 N   0  0  0  0  0  0  0  0  0  0  0  0
  -23.4800  -32.0640   23.7740 O   0  0  0  0  0  0  0  0  0  0  0  0
  -22.7490  -29.4090   22.4640 C   0  0  0  0  0  0  0  0  0  0  0  0
  -21.4240  -29.2220   22.3260 N   0  0  0  0  0  0  0  0  0  0  0  0
  -23.4280  -28.7600   23.2640 O   0  0  0  0  0  0  0  0  0  0  0  0
  -20.9320  -29.7970   21.6570 H   0  0  0  0  0  0  0  0  0  0  0  0
  -18.0560  -27.9730   22.7830 C   0  0  0  0  0  0  0  0  0  0  0  0
  -20.6130  -28.2440   23.0570 C   0  0  0  0  0  3  0  0  0  0  0  0
  -20.7260  -26.8400   22.4180 C   0  0  0  0  0  2  0  0  0  0  0  0
  -19.6230  -26.5510   21.3950 C   0  0  0  0  0  2  0  0  0  0  0  0
  -18.2420  -26.6560   22.0470 C   0  0  0  0  0  2  0  0  0  0  0  0
  -19.1700  -28.7250   23.2430 C   0  0  0  0  0  0  0  0  0  0  0  0
  -18.9410  -29.9570   23.8920 C   0  0  0  0  0  3  0  0  0  0  0  0
  -17.6320  -30.4380   24.0860 C   0  0  0  0  0  3  0  0  0  0  0  0
  -16.5330  -29.6820   23.6430 C   0  0  0  0  0  3  0  0  0  0  0  0
  -16.7460  -28.4510   22.9970 C   0  0  0  0  0  3  0  0  0  0  0  0
  -25.8390  -32.4560   23.9000 C   0  0  0  0  0  3  0  0  0  0  0  0
  -26.3050  -31.7000   25.2030 C   0  0  1  0  0  0  0  0  0  0  0  0
  -25.1740  -31.4840   26.2360 C   0  0  0  0  0  1  0  0  0  0  0  0
  -26.8940  -30.3140   24.8540 C   0  0  0  0  0  1  0  0  0  0  0  0
  -27.4350  -32.4980   25.8960 C   0  0  0  0  0  1  0  0  0  0  0  0
  -25.5250  -33.8600   24.2060 N   0  0  0  0  0  0  0  0  0  0  0  0
  -25.8600  -34.9040   23.4360 C   0  0  0  0  0  0  0  0  0  0  0  0
  -26.5340  -34.7870   22.4090 O   0  0  0  0  0  0  0  0  0  0  0  0
  -24.9310  -34.0250   25.0050 H   0  0  0  0  0  0  0  0  0  0  0  0
  -24.1310  -36.6920   23.0550 C   0  0  0  0  0  1  0  0  0  0  0  0
  -25.3710  -36.2990   23.8740 C   0  0  0  0  0  3  0  0  0  0  0  0
  -27.4950  -37.2090   24.7060 C   0  0  0  0  0  1  0  0  0  0  0  0
  -26.4030  -37.3520   23.7470 N   0  0  0  0  0  0  0  0  0  0  0  0
  -25.9930  -38.2740   23.8690 H   0  0  0  0  0  0  0  0  0  0  0  0
  1  5  1  0
  2  1  1  0
  2  7  1  0
  3  6  1  0
  5 17  1  0
  5  6  1  0
  6  4  1  0
  7 47  1  6
  7  4  1  0
  7  3  1  0
  8  1  2  0
  9 17  1  0
 10 15  1  0
 11 12  1  0
 11 10  1  0
 13 12  1  0
 13 22  1  0
 13 14  1  0
 15  9  1  0
 15 14  1  0
 16  9  2  0
 17 18  1  0
 19 20  2  0
 20 39  1  0
 21 20  1  0
 21 24  1  0
 22 23  1  0
 22 19  1  0
 23 21  2  0
 24 25  1  0
 25 26  2  0
 27 30  1  0
 27 26  1  0
 28 27  2  0
 29 28  1  0
 29 24  2  0
 30 31  1  0
 31 32  1  0
 32 33  2  0
 34 33  1  0
 34 38  1  0
 35 34  2  0
 36 31  2  0
 36 35  1  0
 37 36  1  0
 39 40  1  0
 40 43  1  0
 40 42  1  0
 41 39  2  0
 44 45  1  0
 44 19  1  0
 46 44  1  0
 47 48  1  0
 49 48  2  0
 49 50  1  0
 51 62  2  0
 52 50  1  0
 52 57  1  0
 53 61  1  0
 53 63  1  0
 54 60  1  0
 54 56  1  0
 55 61  1  0
 56 55  1  0
 57 56  2  0
 58 59  1  0
 58 52  2  0
 59 54  2  0
 60 53  1  0
 61 51  1  0
 63 65  2  0
 64 63  1  0
 66 64  1  0
 67 76  2  0
 67 72  1  0
 68 64  1  0
 68 72  1  0
 69 68  1  0
 70 71  1  0
 70 69  1  0
 71 67  1  0
 72 73  2  0
 73 74  1  0
 75 74  2  0
 76 75  1  0
 77 51  1  0
 77 82  1  0
 77 78  1  0
 78 81  1  1
 78 79  1  0
 80 78  1  0
 82 85  1  0
 83 87  1  0
 83 82  1  0
 84 83  2  0
 87 86  1  0
 89 90  1  0
 89 87  1  0
 89 88  1  0
M  ISO  4   9 100  17 100  49 101  50 101
M  END
>  <TORSDO>  (16) 
F 19

>  <SCORE>  (16) 
-13.610

>  <name>  (16) 
15

>  <ligand_id>  (16) 
15

>  <original_smiles>  (16) 
[H]c1c([H])c([H])c2c(c1[H])C([H])([H])C([H])([H])C([H])([H])C2([H])N([H])C(=O)C1([H])N(C(=O)C([H])(N([H])C(=O)C([H])(N([H])C([H])([H])[H])C([H])([H])[H])C(C([H])([H])[H])(C([H])([H])[H])C([H])([H])[H])C([H])([H])c2c([H])c(OC([H])([H])C([H])([H])C([H])([H])C34C([H])([H])C(=O)C([H])(N([H])C(=O)N5C([H])([H])C([H])([H])C([H])([H])C([H])(n6nc(-c7c([H])c([H])c(Oc8c([H])c([H])c(F)c([H])c8F)c([H])c7[H])c(C(=O)N([H])[H])c6N([H])[H])C5([H])[H])C([H])(C3([H])[H])C4([H])[H])c([H])c([H])c2C1([H])[H]

>  <smiles>  (16) 
[H]c1c([H])c([H])c2c(c1[H])C([H])([H])C([H])([H])C([H])([H])C2([H])N([H])C(=O)C1([H])N(C(=O)C([H])(N([H])C(=O)C([H])(N([H])C([H])([H])[H])C([H])([H])[H])C(C([H])([H])[H])(C([H])([H])[H])C([H])([H])[H])C([H])([H])c2c([H])c(OC([H])([H])C([H])([H])C([H])([H])C34C([H])([H])C(=O)C([H])(N([H])C(=O)N5C([H])([H])C([H])([H])C([H])([H])C([H])(n6nc(-c7c([H])c([H])c(Oc8c([H])c([H])c(F)c([H])c8F)c([H])c7[H])c(C(=O)N([H])[H])c6N([H])[H])C5([H])[H])C([H])(C3([H])[H])C4([H])[H])c([H])c([H])c2C1([H])[H]

$$$$
16:0:0
     RDKit          3D

 92101  0  0  1  0  0  0  0  0999 V2000
  -30.9250  -18.8190   19.4540 C   0  0  0  0  0  2  0  0  0  0  0  0
  -28.8450  -19.3220   20.3950 C   0  0  0  0  0  2  0  0  0  0  0  0
  -30.6880  -20.4210   19.5050 C   0  0  0  0  0  3  0  0  0  0  0  0
  -29.4610  -20.9250   20.3760 C   0  0  0  0  0  3  0  0  0  0  0  0
  -29.9740  -18.0260   20.3930 C   0  0  0  0  0  3  0  0  0  0  0  0
  -30.5340  -15.0980   20.1360 C   0  0  0  0  0  0  0  0  0  0  0  0
  -30.4680  -12.6510   19.2640 C   0  0  0  0  0  2  0  0  0  0  0  0
  -29.5280  -12.4460   18.0500 C   0  0  0  0  0  2  0  0  0  0  0  0
  -28.0810  -12.2020   18.5120 C   0  0  0  0  0  2  0  0  0  0  0  0
  -27.6570  -13.1800   19.6360 C   0  0  0  0  0  3  0  0  0  0  0  0
  -28.7220  -13.3200   20.7420 C   0  0  0  0  0  2  0  0  0  0  0  0
  -29.9470  -13.8030   20.0840 N   0  0  0  0  0  0  0  0  0  0  0  0
  -31.7580  -15.0810   19.9430 O   0  0  0  0  0  0  0  0  0  0  0  0
  -29.7710  -16.3720   20.2080 N   0  0  0  0  0  0  0  0  0  0  0  0
  -28.7880  -16.1440   20.2430 H   0  0  0  0  0  0  0  0  0  0  0  0
  -25.3050  -13.7780   20.4180 C   0  0  0  0  0  0  0  0  0  0  0  0
  -24.2380  -13.0180   20.8040 C   0  0  0  0  0  0  0  0  0  0  0  0
  -24.6850  -11.6620   20.7750 C   0  0  0  0  0  0  0  0  0  0  0  0
  -26.3330  -12.8870   20.1650 N   0  0  0  0  0  0  0  0  0  0  0  0
  -25.9720  -11.6080   20.4490 N   0  0  0  0  0  0  0  0  0  0  0  0
  -23.9410  -10.4110   20.9780 C   0  0  0  0  0  0  0  0  0  0  0  0
  -24.3480   -9.4540   21.9340 C   0  0  0  0  0  3  0  0  0  0  0  0
  -23.6030   -8.2710   22.1250 C   0  0  0  0  0  3  0  0  0  0  0  0
  -22.4360   -8.0350   21.3600 C   0  0  0  0  0  0  0  0  0  0  0  0
  -22.0480   -8.9800   20.3940 C   0  0  0  0  0  3  0  0  0  0  0  0
  -22.7930  -10.1540   20.2010 C   0  0  0  0  0  3  0  0  0  0  0  0
  -21.6640   -6.9030   21.4600 O   0  0  0  0  0  0  0  0  0  0  0  0
  -21.5940   -6.1810   22.6250 C   0  0  0  0  0  0  0  0  0  0  0  0
  -21.1220   -6.7510   23.8280 C   0  0  0  0  0  3  0  0  0  0  0  0
  -20.9990   -5.9540   24.9840 C   0  0  0  0  0  3  0  0  0  0  0  0
  -21.3370   -4.5890   24.9380 C   0  0  0  0  0  0  0  0  0  0  0  0
  -21.8020   -4.0180   23.7400 C   0  0  0  0  0  3  0  0  0  0  0  0
  -21.9270   -4.8120   22.5850 C   0  0  0  0  0  0  0  0  0  0  0  0
  -22.3550   -4.2520   21.4280 F   0  0  0  0  0  0  0  0  0  0  0  0
  -21.2120   -3.8210   26.0450 F   0  0  0  0  0  0  0  0  0  0  0  0
  -22.8490  -13.5180   21.0820 C   0  0  0  0  0  0  0  0  0  0  0  0
  -22.1140  -12.8310   21.9490 N   0  0  0  0  0  0  0  0  0  0  0  0
  -22.4280  -14.5520   20.5660 O   0  0  0  0  0  0  0  0  0  0  0  0
  -22.4690  -11.9930   22.3870 H   0  0  0  0  0  0  0  0  0  0  0  0
  -21.1830  -13.1480   22.1780 H   0  0  0  0  0  0  0  0  0  0  0  0
  -25.4820  -15.1460   20.2300 N   0  0  0  0  0  0  0  0  0  0  0  0
  -24.7190  -15.8040   20.3420 H   0  0  0  0  0  0  0  0  0  0  0  0
  -26.3150  -15.5710   19.8470 H   0  0  0  0  0  0  0  0  0  0  0  0
  -34.3500  -22.5470   20.5010 C   0  0  0  0  0  3  0  0  0  0  0  0
  -33.6370  -22.8790   19.3330 C   0  0  0  0  0  3  0  0  0  0  0  0
  -33.8770  -21.5250   21.3460 C   0  0  0  0  0  3  0  0  0  0  0  0
  -32.4520  -22.1890   19.0100 C   0  0  0  0  0  3  0  0  0  0  0  0
  -32.6910  -20.8360   21.0240 C   0  0  0  0  0  3  0  0  0  0  0  0
  -31.9710  -21.1650   19.8540 C   0  0  0  0  0  0  0  0  0  0  0  0
  -28.8520  -22.5690   19.8920 C   0  0  0  0  0  2  0  0  0  0  0  0
  -28.3110  -24.1030   20.6710 C   0  0  0  0  0  2  0  0  0  0  0  0
  -28.4480  -25.7220   20.3720 O   0  0  0  0  0  0  0  0  0  0  0  0
  -24.6400  -31.6150   23.2260 C   0  0  0  0  0  0  0  0  0  0  0  0
  -27.3980  -26.7780   20.3430 C   0  0  0  0  0  0  0  0  0  0  0  0
  -23.5450  -30.2110   21.5260 C   0  0  0  0  0  3  0  0  0  0  0  0
  -25.0790  -28.6210   20.1820 C   0  0  0  0  0  0  0  0  0  0  0  0
  -26.1130  -30.4540   21.5070 C   0  0  0  0  0  2  0  0  0  0  0  0
  -26.2320  -29.0450   20.8560 C   0  0  0  0  0  0  0  0  0  0  0  0
  -27.3890  -28.1480   20.9040 C   0  0  0  0  0  3  0  0  0  0  0  0
  -26.2120  -26.4980   19.6300 C   0  0  0  0  0  3  0  0  0  0  0  0
  -25.0940  -27.3680   19.5490 C   0  0  0  0  0  3  0  0  0  0  0  0
  -23.8510  -29.5310   20.1640 C   0  0  0  0  0  2  0  0  0  0  0  0
  -24.7850  -30.7870   22.1410 N   0  0  0  0  0  0  0  0  0  0  0  0
  -23.5230  -31.8920   23.6920 O   0  0  0  0  0  0  0  0  0  0  0  0
  -22.8140  -29.2060   22.4540 C   0  0  0  0  0  0  0  0  0  0  0  0
  -21.4880  -29.0510   22.2820 N   0  0  0  0  0  0  0  0  0  0  0  0
  -23.4480  -28.5650   23.2960 O   0  0  0  0  0  0  0  0  0  0  0  0
  -21.0310  -29.6190   21.5830 H   0  0  0  0  0  0  0  0  0  0  0  0
  -18.0780  -27.8770   22.6810 C   0  0  0  0  0  0  0  0  0  0  0  0
  -20.6350  -28.1080   23.0110 C   0  0  0  0  0  3  0  0  0  0  0  0
  -20.7330  -26.6870   22.4070 C   0  0  0  0  0  2  0  0  0  0  0  0
  -19.6530  -26.4000   21.3590 C   0  0  0  0  0  2  0  0  0  0  0  0
  -18.2570  -26.5430   21.9750 C   0  0  0  0  0  2  0  0  0  0  0  0
  -19.1940  -28.6180   23.1530 C   0  0  0  0  0  0  0  0  0  0  0  0
  -18.9710  -29.8660   23.7750 C   0  0  0  0  0  3  0  0  0  0  0  0
  -17.6660  -30.3720   23.9280 C   0  0  0  0  0  3  0  0  0  0  0  0
  -16.5660  -29.6280   23.4690 C   0  0  0  0  0  3  0  0  0  0  0  0
  -16.7730  -28.3810   22.8520 C   0  0  0  0  0  3  0  0  0  0  0  0
  -25.8700  -32.2690   23.9250 C   0  0  0  0  0  3  0  0  0  0  0  0
  -26.2930  -31.5290   25.2540 C   0  0  1  0  0  0  0  0  0  0  0  0
  -25.1270  -31.3130   26.2480 C   0  0  0  0  0  1  0  0  0  0  0  0
  -26.9030  -30.1430   24.9430 C   0  0  0  0  0  1  0  0  0  0  0  0
  -27.3940  -32.3400   25.9770 C   0  0  0  0  0  1  0  0  0  0  0  0
  -25.5330  -33.6740   24.2150 N   0  0  0  0  0  0  0  0  0  0  0  0
  -25.9030  -34.7230   23.4670 C   0  0  0  0  0  0  0  0  0  0  0  0
  -26.6240  -34.6090   22.4730 O   0  0  0  0  0  0  0  0  0  0  0  0
  -24.8970  -33.8350   24.9810 H   0  0  0  0  0  0  0  0  0  0  0  0
  -24.1940  -36.5160   23.0120 C   0  0  0  0  0  1  0  0  0  0  0  0
  -25.3940  -36.1180   23.8860 C   0  0  0  0  0  3  0  0  0  0  0  0
  -27.4790  -37.0240   24.8170 C   0  0  0  0  0  1  0  0  0  0  0  0
  -26.4310  -37.1710   23.8110 N   0  0  0  0  0  0  0  0  0  0  0  0
  -26.0170  -38.0930   23.9160 H   0  0  0  0  0  0  0  0  0  0  0  0
  1  3  1  0
  1  5  1  0
  3 49  1  0
  3  4  1  0
  4 50  1  0
  4  2  1  0
  5 14  1  0
  5  2  1  0
  6 14  1  0
  7 12  1  0
  8  9  1  0
  8  7  1  0
 10  9  1  0
 10 19  1  0
 10 11  1  0
 12  6  1  0
 12 11  1  0
 13  6  2  0
 14 15  1  0
 16 17  2  0
 17 36  1  0
 18 17  1  0
 18 21  1  0
 19 16  1  0
 19 20  1  0
 20 18  2  0
 21 22  1  0
 22 23  2  0
 24 27  1  0
 24 23  1  0
 25 24  2  0
 26 25  1  0
 26 21  2  0
 27 28  1  0
 28 29  1  0
 29 30  2  0
 31 30  1  0
 31 35  1  0
 32 31  2  0
 33 28  2  0
 33 32  1  0
 34 33  1  0
 36 37  1  0
 37 40  1  0
 37 39  1  0
 38 36  2  0
 41 42  1  0
 41 16  1  0
 43 41  1  0
 44 46  1  0
 45 44  2  0
 47 45  1  0
 47 49  2  0
 48 46  2  0
 49 48  1  0
 50 51  1  0
 52 51  1  0
 53 64  2  0
 54 52  1  0
 54 59  1  0
 55 63  1  0
 55 65  1  0
 56 58  1  0
 57 63  1  0
 58 59  2  0
 58 57  1  0
 60 54  2  0
 61 60  1  0
 61 56  2  0
 62 56  1  0
 62 55  1  0
 63 53  1  0
 65 67  2  0
 66 65  1  0
 68 66  1  0
 69 78  2  0
 69 74  1  0
 70 66  1  0
 70 74  1  0
 71 70  1  0
 72 73  1  0
 72 71  1  0
 73 69  1  0
 74 75  2  0
 75 76  1  0
 77 76  2  0
 78 77  1  0
 79 53  1  0
 79 84  1  0
 79 80  1  0
 80 83  1  1
 80 81  1  0
 82 80  1  0
 84 87  1  0
 85 89  1  0
 85 84  1  0
 86 85  2  0
 89 88  1  0
 91 89  1  0
 91 92  1  0
 91 90  1  0
M  ISO  4   6 100  14 100  51 101  52 101
M  END
>  <TORSDO>  (17) 
F 19

>  <SCORE>  (17) 
-15.491

>  <name>  (17) 
16

>  <ligand_id>  (17) 
16

>  <original_smiles>  (17) 
[H]c1c([H])c([H])c(C2([H])C([H])([H])C([H])(N([H])C(=O)N3C([H])([H])C([H])([H])C([H])([H])C([H])(n4nc(-c5c([H])c([H])c(Oc6c([H])c([H])c(F)c([H])c6F)c([H])c5[H])c(C(=O)N([H])[H])c4N([H])[H])C3([H])[H])C([H])([H])C2([H])C([H])([H])C([H])([H])Oc2c([H])c([H])c3c(c2[H])C([H])([H])N(C(=O)C([H])(N([H])C(=O)C([H])(N([H])C([H])([H])[H])C([H])([H])[H])C(C([H])([H])[H])(C([H])([H])[H])C([H])([H])[H])C([H])(C(=O)N([H])C2([H])c4c([H])c([H])c([H])c([H])c4C([H])([H])C([H])([H])C2([H])[H])C3([H])[H])c([H])c1[H]

>  <smiles>  (17) 
[H]c1c([H])c([H])c(C2([H])C([H])([H])C([H])(N([H])C(=O)N3C([H])([H])C([H])([H])C([H])([H])C([H])(n4nc(-c5c([H])c([H])c(Oc6c([H])c([H])c(F)c([H])c6F)c([H])c5[H])c(C(=O)N([H])[H])c4N([H])[H])C3([H])[H])C([H])([H])C2([H])C([H])([H])C([H])([H])Oc2c([H])c([H])c3c(c2[H])C([H])([H])N(C(=O)C([H])(N([H])C(=O)C([H])(N([H])C([H])([H])[H])C([H])([H])[H])C(C([H])([H])[H])(C([H])([H])[H])C([H])([H])[H])C([H])(C(=O)N([H])C2([H])c4c([H])c([H])c([H])c([H])c4C([H])([H])C([H])([H])C2([H])[H])C3([H])[H])c([H])c1[H]

$$$$
17:0:0
     RDKit          3D

 94101  0  0  1  0  0  0  0  0999 V2000
  -30.2260  -20.6840   21.3440 C   0  0  0  0  0  2  0  0  0  0  0  0
  -29.6630  -19.2540   21.0330 C   0  0  0  0  0  2  0  0  0  0  0  0
  -30.5970  -17.9710   21.0210 C   0  0  0  0  0  2  0  0  0  0  0  0
  -29.8000  -16.6120   21.1670 C   0  0  0  0  0  3  0  0  0  0  0  0
  -30.7820  -14.5010   20.0360 C   0  0  0  0  0  0  0  0  0  0  0  0
  -30.3960  -12.3120   18.9200 C   0  0  0  0  0  2  0  0  0  0  0  0
  -29.3940  -12.4280   17.7530 C   0  0  0  0  0  2  0  0  0  0  0  0
  -27.9550  -12.2370   18.2600 C   0  0  0  0  0  2  0  0  0  0  0  0
  -27.6450  -13.1300   19.4870 C   0  0  0  0  0  3  0  0  0  0  0  0
  -28.7610  -13.0250   20.5630 C   0  0  0  0  0  2  0  0  0  0  0  0
  -30.0640  -13.3330   19.9400 N   0  0  0  0  0  0  0  0  0  0  0  0
  -31.7530  -14.7230   19.3130 O   0  0  0  0  0  0  0  0  0  0  0  0
  -30.5620  -15.3260   21.0910 N   0  0  0  0  0  0  0  0  0  0  0  0
  -31.4010  -15.3980   21.6470 H   0  0  0  0  0  0  0  0  0  0  0  0
  -25.2670  -13.7290   20.2880 C   0  0  0  0  0  0  0  0  0  0  0  0
  -24.2340  -12.9620   20.7480 C   0  0  0  0  0  0  0  0  0  0  0  0
  -24.6980  -11.6150   20.6950 C   0  0  0  0  0  0  0  0  0  0  0  0
  -26.3160  -12.8560   20.0320 N   0  0  0  0  0  0  0  0  0  0  0  0
  -25.9720  -11.5760   20.3230 N   0  0  0  0  0  0  0  0  0  0  0  0
  -23.9780  -10.3560   20.9110 C   0  0  0  0  0  0  0  0  0  0  0  0
  -24.4340   -9.3970   21.8410 C   0  0  0  0  0  3  0  0  0  0  0  0
  -23.7110   -8.2020   22.0460 C   0  0  0  0  0  3  0  0  0  0  0  0
  -22.5210   -7.9600   21.3230 C   0  0  0  0  0  0  0  0  0  0  0  0
  -22.0810   -8.9090   20.3840 C   0  0  0  0  0  3  0  0  0  0  0  0
  -22.8040  -10.0950   20.1760 C   0  0  0  0  0  3  0  0  0  0  0  0
  -21.7680   -6.8160   21.4410 O   0  0  0  0  0  0  0  0  0  0  0  0
  -21.7180   -6.1090   22.6150 C   0  0  0  0  0  0  0  0  0  0  0  0
  -21.2840   -6.6990   23.8220 C   0  0  0  0  0  3  0  0  0  0  0  0
  -21.1870   -5.9160   24.9900 C   0  0  0  0  0  3  0  0  0  0  0  0
  -21.5100   -4.5460   24.9500 C   0  0  0  0  0  0  0  0  0  0  0  0
  -21.9380   -3.9580   23.7470 C   0  0  0  0  0  3  0  0  0  0  0  0
  -22.0410   -4.7370   22.5820 C   0  0  0  0  0  0  0  0  0  0  0  0
  -22.4330   -4.1620   21.4200 F   0  0  0  0  0  0  0  0  0  0  0  0
  -21.4060   -3.7940   26.0700 F   0  0  0  0  0  0  0  0  0  0  0  0
  -22.8580  -13.4460   21.0970 C   0  0  0  0  0  0  0  0  0  0  0  0
  -22.1820  -12.7650   22.0170 N   0  0  0  0  0  0  0  0  0  0  0  0
  -22.3930  -14.4650   20.5900 O   0  0  0  0  0  0  0  0  0  0  0  0
  -22.5710  -11.9410   22.4490 H   0  0  0  0  0  0  0  0  0  0  0  0
  -21.2620  -13.0760   22.2950 H   0  0  0  0  0  0  0  0  0  0  0  0
  -25.3580  -15.0880   20.0190 N   0  0  0  0  0  0  0  0  0  0  0  0
  -24.4520  -15.5470   19.9770 H   0  0  0  0  0  0  0  0  0  0  0  0
  -25.9240  -15.3170   19.2080 H   0  0  0  0  0  0  0  0  0  0  0  0
  -28.6610  -16.5710   20.1600 C   0  0  0  0  0  0  0  0  0  0  0  0
  -27.4760  -16.2830   20.6600 N   0  0  0  0  0  0  0  0  0  0  0  0
  -28.8530  -16.7670   18.9610 O   0  0  0  0  0  0  0  0  0  0  0  0
  -27.3530  -16.1360   21.6500 H   0  0  0  0  0  0  0  0  0  0  0  0
  -26.7040  -16.0660   20.0160 H   0  0  0  0  0  0  0  0  0  0  0  0
  -29.4580  -21.8570   20.6200 C   0  0  0  0  0  2  0  0  0  0  0  0
  -29.5740  -23.2030   21.2260 N   0  0  0  0  0  4  0  0  0  0  0  0
  -29.1060  -23.1910   22.1210 H   0  0  0  0  0  0  0  0  0  0  0  0
  -30.5380  -23.3910   21.4500 H   0  0  0  0  0  0  0  0  0  0  0  0
  -29.0360  -24.2960   20.3700 C   0  0  0  0  0  2  0  0  0  0  0  0
  -28.8650  -25.6760   21.1040 C   0  0  0  0  0  2  0  0  0  0  0  0
  -28.7020  -26.8200   20.2280 O   0  0  0  0  0  0  0  0  0  0  0  0
  -24.6870  -31.9570   23.2410 C   0  0  0  0  0  0  0  0  0  0  0  0
  -27.5080  -27.5230   20.2780 C   0  0  0  0  0  0  0  0  0  0  0  0
  -23.5470  -30.5070   21.5920 C   0  0  0  0  0  3  0  0  0  0  0  0
  -25.0700  -28.9800   20.2200 C   0  0  0  0  0  0  0  0  0  0  0  0
  -26.0670  -30.9220   21.4360 C   0  0  0  0  0  2  0  0  0  0  0  0
  -26.2030  -29.5400   20.8230 C   0  0  0  0  0  0  0  0  0  0  0  0
  -27.4260  -28.8200   20.8470 C   0  0  0  0  0  3  0  0  0  0  0  0
  -26.3580  -26.9820   19.6670 C   0  0  0  0  0  3  0  0  0  0  0  0
  -25.1420  -27.6990   19.6410 C   0  0  0  0  0  3  0  0  0  0  0  0
  -23.8030  -29.8100   20.2270 C   0  0  0  0  0  2  0  0  0  0  0  0
  -24.7830  -31.1490   22.1470 N   0  0  0  0  0  0  0  0  0  0  0  0
  -23.5890  -32.2080   23.7590 O   0  0  0  0  0  0  0  0  0  0  0  0
  -22.9010  -29.4850   22.5530 C   0  0  0  0  0  0  0  0  0  0  0  0
  -21.5780  -29.2920   22.4220 N   0  0  0  0  0  0  0  0  0  0  0  0
  -23.5890  -28.8650   23.3700 O   0  0  0  0  0  0  0  0  0  0  0  0
  -21.0910  -29.8430   21.7310 H   0  0  0  0  0  0  0  0  0  0  0  0
  -18.2080  -28.0960   22.9420 C   0  0  0  0  0  0  0  0  0  0  0  0
  -20.7670  -28.3480   23.1920 C   0  0  0  0  0  3  0  0  0  0  0  0
  -20.8620  -26.9230   22.6020 C   0  0  0  0  0  2  0  0  0  0  0  0
  -19.7530  -26.6160   21.5900 C   0  0  0  0  0  2  0  0  0  0  0  0
  -18.3750  -26.7560   22.2440 C   0  0  0  0  0  2  0  0  0  0  0  0
  -19.3320  -28.8510   23.3720 C   0  0  0  0  0  0  0  0  0  0  0  0
  -19.1220  -30.1050   23.9820 C   0  0  0  0  0  3  0  0  0  0  0  0
  -17.8200  -30.6060   24.1690 C   0  0  0  0  0  3  0  0  0  0  0  0
  -16.7100  -29.8500   23.7570 C   0  0  0  0  0  3  0  0  0  0  0  0
  -16.9040  -28.5970   23.1470 C   0  0  0  0  0  3  0  0  0  0  0  0
  -25.9460  -32.6260   23.8770 C   0  0  0  0  0  3  0  0  0  0  0  0
  -25.6040  -34.0220   24.1770 N   0  0  0  0  0  0  0  0  0  0  0  0
  -25.9160  -35.0660   23.3950 C   0  0  0  0  0  0  0  0  0  0  0  0
  -26.5920  -34.9550   22.3690 O   0  0  0  0  0  0  0  0  0  0  0  0
  -25.0010  -34.1800   24.9710 H   0  0  0  0  0  0  0  0  0  0  0  0
  -24.1360  -36.7990   23.0030 C   0  0  0  0  0  1  0  0  0  0  0  0
  -25.3930  -36.4500   23.8160 C   0  0  0  0  0  3  0  0  0  0  0  0
  -27.5050  -37.4180   24.6130 C   0  0  0  0  0  1  0  0  0  0  0  0
  -26.3960  -37.5270   23.6680 N   0  0  0  0  0  0  0  0  0  0  0  0
  -25.9640  -38.4400   23.7910 H   0  0  0  0  0  0  0  0  0  0  0  0
  -26.4520  -31.8870   25.1770 C   0  0  1  0  0  0  0  0  0  0  0  0
  -25.3420  -31.6390   26.2260 C   0  0  0  0  0  1  0  0  0  0  0  0
  -27.0750  -30.5180   24.8180 C   0  0  0  0  0  1  0  0  0  0  0  0
  -27.5680  -32.7200   25.8500 C   0  0  0  0  0  1  0  0  0  0  0  0
  2  1  1  0
  3  2  1  0
  4  3  1  0
  5 13  1  0
  6 11  1  0
  7  8  1  0
  7  6  1  0
  9  8  1  0
  9 18  1  0
  9 10  1  0
 11  5  1  0
 11 10  1  0
 12  5  2  0
 13  4  1  0
 13 14  1  0
 15 16  2  0
 16 35  1  0
 17 16  1  0
 17 20  1  0
 18 15  1  0
 18 19  1  0
 19 17  2  0
 20 21  1  0
 21 22  2  0
 23 26  1  0
 23 22  1  0
 24 23  2  0
 25 24  1  0
 25 20  2  0
 26 27  1  0
 27 28  1  0
 28 29  2  0
 30 29  1  0
 30 34  1  0
 31 30  2  0
 32 27  2  0
 32 31  1  0
 33 32  1  0
 35 36  1  0
 36 39  1  0
 36 38  1  0
 37 35  2  0
 40 15  1  0
 41 40  1  0
 42 40  1  0
 43 44  1  0
 43  4  1  0
 44 46  1  0
 45 43  2  0
 47 44  1  0
 48 49  1  0
 48  1  1  0
 49 51  1  0
 49 50  1  0
 52 53  1  0
 52 49  1  0
 54 56  1  0
 54 53  1  0
 55 66  2  0
 56 61  1  0
 57 65  1  0
 57 67  1  0
 58 64  1  0
 58 60  1  0
 59 65  1  0
 60 61  2  0
 60 59  1  0
 62 56  2  0
 63 62  1  0
 63 58  2  0
 64 57  1  0
 65 55  1  0
 67 69  2  0
 68 67  1  0
 70 68  1  0
 71 80  2  0
 71 76  1  0
 72 68  1  0
 72 76  1  0
 73 72  1  0
 74 75  1  0
 74 73  1  0
 75 71  1  0
 76 77  2  0
 77 78  1  0
 79 78  2  0
 80 79  1  0
 81 55  1  0
 81 82  1  0
 81 91  1  0
 82 85  1  0
 83 87  1  0
 83 82  1  0
 84 83  2  0
 87 86  1  0
 89 90  1  0
 89 87  1  0
 89 88  1  0
 91 94  1  1
 91 92  1  0
 93 91  1  0
M  ISO  4   5 100  13 100  53 101  54 101
M  END
>  <TORSDO>  (18) 
F 24

>  <SCORE>  (18) 
-12.053

>  <name>  (18) 
17

>  <ligand_id>  (18) 
17

>  <original_smiles>  (18) 
[H]c1c([H])c([H])c2c(c1[H])C([H])([H])C([H])([H])C([H])([H])C2([H])N([H])C(=O)C1([H])N(C(=O)C([H])(N([H])C(=O)C([H])(N([H])C([H])([H])[H])C([H])([H])[H])C(C([H])([H])[H])(C([H])([H])[H])C([H])([H])[H])C([H])([H])c2c([H])c(OC([H])([H])C([H])([H])[N+]([H])([H])C([H])([H])C([H])([H])C([H])([H])C([H])([H])C([H])(C(=O)N([H])[H])N([H])C(=O)N3C([H])([H])C([H])([H])C([H])([H])C([H])(n4nc(-c5c([H])c([H])c(Oc6c([H])c([H])c(F)c([H])c6F)c([H])c5[H])c(C(=O)N([H])[H])c4N([H])[H])C3([H])[H])c([H])c([H])c2C1([H])[H]

>  <smiles>  (18) 
[H]c1c([H])c([H])c2c(c1[H])C([H])([H])C([H])([H])C([H])([H])C2([H])N([H])C(=O)C1([H])N(C(=O)C([H])(N([H])C(=O)C([H])(N([H])C([H])([H])[H])C([H])([H])[H])C(C([H])([H])[H])(C([H])([H])[H])C([H])([H])[H])C([H])([H])c2c([H])c(OC([H])([H])C([H])([H])[N+]([H])([H])C([H])([H])C([H])([H])C([H])([H])C([H])([H])C([H])(C(=O)N([H])[H])N([H])C(=O)N3C([H])([H])C([H])([H])C([H])([H])C([H])(n4nc(-c5c([H])c([H])c(Oc6c([H])c([H])c(F)c([H])c6F)c([H])c5[H])c(C(=O)N([H])[H])c4N([H])[H])C3([H])[H])c([H])c([H])c2C1([H])[H]

$$$$
18:0:0
     RDKit          3D

 88 96  0  0  1  0  0  0  0  0999 V2000
  -29.3060  -18.2780   18.6070 C   0  0  0  0  0  3  0  0  0  0  0  0
  -28.6600  -19.3480   18.0590 C   0  0  0  0  0  0  0  0  0  0  0  0
  -28.2570  -20.6850   18.7430 C   0  0  0  0  0  2  0  0  0  0  0  0
  -29.2740  -19.5740   20.7950 C   0  0  0  0  0  2  0  0  0  0  0  0
  -29.8080  -18.0930   20.0390 C   0  0  0  0  0  3  0  0  0  0  0  0
  -29.0850  -21.1110   19.9780 C   0  0  0  0  0  3  0  0  0  0  0  0
  -28.2050  -19.2720   16.6110 C   0  0  0  0  0  1  0  0  0  0  0  0
  -30.4100  -15.2330   20.3510 C   0  0  0  0  0  0  0  0  0  0  0  0
  -30.3740  -12.7840   19.5220 C   0  0  0  0  0  2  0  0  0  0  0  0
  -29.4770  -12.6070   18.2720 C   0  0  0  0  0  2  0  0  0  0  0  0
  -28.0180  -12.3520   18.6820 C   0  0  0  0  0  2  0  0  0  0  0  0
  -27.5560  -13.3200   19.8010 C   0  0  0  0  0  3  0  0  0  0  0  0
  -28.5840  -13.4610   20.9450 C   0  0  0  0  0  2  0  0  0  0  0  0
  -29.8410  -13.9330   20.3400 N   0  0  0  0  0  0  0  0  0  0  0  0
  -31.6180  -15.2400   20.0730 O   0  0  0  0  0  0  0  0  0  0  0  0
  -29.6480  -16.4930   20.4710 N   0  0  0  0  0  0  0  0  0  0  0  0
  -28.7040  -16.2900   20.7660 H   0  0  0  0  0  0  0  0  0  0  0  0
  -25.1750  -13.8890   20.5130 C   0  0  0  0  0  0  0  0  0  0  0  0
  -24.1070  -13.1180   20.8750 C   0  0  0  0  0  0  0  0  0  0  0  0
  -24.5710  -11.7660   20.8610 C   0  0  0  0  0  0  0  0  0  0  0  0
  -26.2200  -13.0110   20.2900 N   0  0  0  0  0  0  0  0  0  0  0  0
  -25.8680  -11.7270   20.5660 N   0  0  0  0  0  0  0  0  0  0  0  0
  -23.8380  -10.5060   21.0470 C   0  0  0  0  0  0  0  0  0  0  0  0
  -24.2590   -9.5370   21.9850 C   0  0  0  0  0  3  0  0  0  0  0  0
  -23.5230   -8.3450   22.1620 C   0  0  0  0  0  3  0  0  0  0  0  0
  -22.3500   -8.1150   21.4020 C   0  0  0  0  0  0  0  0  0  0  0  0
  -21.9490   -9.0720   20.4540 C   0  0  0  0  0  3  0  0  0  0  0  0
  -22.6870  -10.2550   20.2760 C   0  0  0  0  0  3  0  0  0  0  0  0
  -21.5880   -6.9740   21.4880 O   0  0  0  0  0  0  0  0  0  0  0  0
  -21.5340   -6.2290   22.6380 C   0  0  0  0  0  0  0  0  0  0  0  0
  -21.1250   -6.7860   23.8690 C   0  0  0  0  0  3  0  0  0  0  0  0
  -21.0180   -5.9680   25.0120 C   0  0  0  0  0  3  0  0  0  0  0  0
  -21.3110   -4.5930   24.9250 C   0  0  0  0  0  0  0  0  0  0  0  0
  -21.7110   -4.0360   23.6970 C   0  0  0  0  0  3  0  0  0  0  0  0
  -21.8200   -4.8510   22.5570 C   0  0  0  0  0  0  0  0  0  0  0  0
  -22.1870   -4.3040   21.3740 F   0  0  0  0  0  0  0  0  0  0  0  0
  -21.1990   -3.8050   26.0190 F   0  0  0  0  0  0  0  0  0  0  0  0
  -22.7070  -13.5990   21.1190 C   0  0  0  0  0  0  0  0  0  0  0  0
  -21.9620  -12.9120   21.9770 N   0  0  0  0  0  0  0  0  0  0  0  0
  -22.2810  -14.6220   20.5830 O   0  0  0  0  0  0  0  0  0  0  0  0
  -22.3180  -12.0850   22.4330 H   0  0  0  0  0  0  0  0  0  0  0  0
  -21.0220  -13.2170   22.1820 H   0  0  0  0  0  0  0  0  0  0  0  0
  -25.3430  -15.2590   20.3270 N   0  0  0  0  0  0  0  0  0  0  0  0
  -24.5740  -15.9160   20.4130 H   0  0  0  0  0  0  0  0  0  0  0  0
  -26.1890  -15.6860   19.9710 H   0  0  0  0  0  0  0  0  0  0  0  0
  -28.6780  -22.7570   20.5850 C   0  0  0  0  0  2  0  0  0  0  0  0
  -28.1920  -24.3160   19.8380 C   0  0  0  0  0  2  0  0  0  0  0  0
  -28.2440  -25.9000   20.2690 O   0  0  0  0  0  0  0  0  0  0  0  0
  -24.6590  -31.8350   23.1690 C   0  0  0  0  0  0  0  0  0  0  0  0
  -27.2240  -26.9750   20.1530 C   0  0  0  0  0  0  0  0  0  0  0  0
  -23.4640  -30.4310   21.5350 C   0  0  0  0  0  3  0  0  0  0  0  0
  -24.9130  -28.8330   20.1080 C   0  0  0  0  0  0  0  0  0  0  0  0
  -26.0290  -30.6540   21.3820 C   0  0  0  0  0  2  0  0  0  0  0  0
  -26.0990  -29.2460   20.7290 C   0  0  0  0  0  0  0  0  0  0  0  0
  -27.2440  -28.3360   20.7340 C   0  0  0  0  0  3  0  0  0  0  0  0
  -26.0140  -26.7130   19.4730 C   0  0  0  0  0  3  0  0  0  0  0  0
  -24.8950  -27.5860   19.4620 C   0  0  0  0  0  3  0  0  0  0  0  0
  -23.6910  -29.7460   20.1590 C   0  0  0  0  0  2  0  0  0  0  0  0
  -24.7390  -31.0010   22.0810 N   0  0  0  0  0  0  0  0  0  0  0  0
  -23.5710  -32.1250   23.6890 O   0  0  0  0  0  0  0  0  0  0  0  0
  -22.7760  -29.4360   22.5050 C   0  0  0  0  0  0  0  0  0  0  0  0
  -21.4430  -29.2800   22.3940 N   0  0  0  0  0  0  0  0  0  0  0  0
  -23.4460  -28.8040   23.3250 O   0  0  0  0  0  0  0  0  0  0  0  0
  -20.9560  -29.8430   21.7120 H   0  0  0  0  0  0  0  0  0  0  0  0
  -18.0570  -28.0900   22.9300 C   0  0  0  0  0  0  0  0  0  0  0  0
  -20.6220  -28.3440   23.1690 C   0  0  0  0  0  3  0  0  0  0  0  0
  -20.7100  -26.9130   22.5890 C   0  0  0  0  0  2  0  0  0  0  0  0
  -19.5960  -26.5980   21.5850 C   0  0  0  0  0  2  0  0  0  0  0  0
  -18.2230  -26.7440   22.2450 C   0  0  0  0  0  2  0  0  0  0  0  0
  -19.1830  -28.8480   23.3500 C   0  0  0  0  0  0  0  0  0  0  0  0
  -18.9720  -30.1070   23.9540 C   0  0  0  0  0  3  0  0  0  0  0  0
  -17.6710  -30.6070   24.1420 C   0  0  0  0  0  3  0  0  0  0  0  0
  -16.5600  -29.8460   23.7360 C   0  0  0  0  0  3  0  0  0  0  0  0
  -16.7540  -28.5900   23.1360 C   0  0  0  0  0  3  0  0  0  0  0  0
  -25.9300  -32.4800   23.7980 C   0  0  0  0  0  3  0  0  0  0  0  0
  -25.6040  -33.8740   24.1510 N   0  0  0  0  0  0  0  0  0  0  0  0
  -25.9240  -34.9470   23.4160 C   0  0  0  0  0  0  0  0  0  0  0  0
  -26.5850  -34.8690   22.3780 O   0  0  0  0  0  0  0  0  0  0  0  0
  -25.0150  -34.0080   24.9600 H   0  0  0  0  0  0  0  0  0  0  0  0
  -24.1790  -36.7390   23.1220 C   0  0  0  0  0  1  0  0  0  0  0  0
  -25.4330  -36.3250   23.9090 C   0  0  0  0  0  3  0  0  0  0  0  0
  -27.5730  -37.2120   24.7270 C   0  0  0  0  0  1  0  0  0  0  0  0
  -26.4550  -37.3880   23.8020 N   0  0  0  0  0  0  0  0  0  0  0  0
  -26.0440  -38.3030   23.9680 H   0  0  0  0  0  0  0  0  0  0  0  0
  -26.4520  -31.7060   25.0710 C   0  0  1  0  0  0  0  0  0  0  0  0
  -25.3630  -31.4600   26.1430 C   0  0  0  0  0  1  0  0  0  0  0  0
  -27.0400  -30.3300   24.6810 C   0  0  0  0  0  1  0  0  0  0  0  0
  -27.6030  -32.5010   25.7320 C   0  0  0  0  0  1  0  0  0  0  0  0
  1  5  1  0
  2  1  2  0
  2  3  1  0
  3  6  1  0
  5 16  1  0
  5  4  1  0
  6 46  1  0
  6  4  1  0
  7  2  1  0
  8 16  1  0
  9 14  1  0
 10 11  1  0
 10  9  1  0
 12 11  1  0
 12 21  1  0
 12 13  1  0
 14  8  1  0
 14 13  1  0
 15  8  2  0
 16 17  1  0
 18 19  2  0
 19 38  1  0
 20 19  1  0
 20 23  1  0
 21 18  1  0
 21 22  1  0
 22 20  2  0
 23 24  1  0
 24 25  2  0
 26 29  1  0
 26 25  1  0
 27 26  2  0
 28 27  1  0
 28 23  2  0
 29 30  1  0
 30 31  1  0
 31 32  2  0
 33 32  1  0
 33 37  1  0
 34 33  2  0
 35 30  2  0
 35 34  1  0
 36 35  1  0
 38 39  1  0
 39 42  1  0
 39 41  1  0
 40 38  2  0
 43 44  1  0
 43 18  1  0
 45 43  1  0
 47 48  1  0
 47 46  1  0
 49 60  2  0
 50 48  1  0
 50 55  1  0
 51 59  1  0
 51 61  1  0
 52 58  1  0
 52 54  1  0
 53 59  1  0
 54 55  2  0
 54 53  1  0
 56 50  2  0
 57 56  1  0
 57 52  2  0
 58 51  1  0
 59 49  1  0
 61 63  2  0
 62 61  1  0
 64 62  1  0
 65 74  2  0
 65 70  1  0
 66 62  1  0
 66 70  1  0
 67 66  1  0
 68 69  1  0
 68 67  1  0
 69 65  1  0
 70 71  2  0
 71 72  1  0
 73 72  2  0
 74 73  1  0
 75 49  1  0
 75 76  1  0
 75 85  1  0
 76 79  1  0
 77 81  1  0
 77 76  1  0
 78 77  2  0
 81 80  1  0
 83 81  1  0
 83 84  1  0
 83 82  1  0
 85 88  1  1
 85 86  1  0
 87 85  1  0
M  ISO  4   8 100  16 100  47 101  48 101
M  END
>  <TORSDO>  (19) 
F 18

>  <SCORE>  (19) 
-15.677

>  <name>  (19) 
18

>  <ligand_id>  (19) 
18

>  <original_smiles>  (19) 
[H]C1=C(C([H])([H])[H])C([H])([H])C([H])(C([H])([H])C([H])([H])Oc2c([H])c([H])c3c(c2[H])C([H])([H])N(C(=O)C([H])(N([H])C(=O)C([H])(N([H])C([H])([H])[H])C([H])([H])[H])C(C([H])([H])[H])(C([H])([H])[H])C([H])([H])[H])C([H])(C(=O)N([H])C2([H])c4c([H])c([H])c([H])c([H])c4C([H])([H])C([H])([H])C2([H])[H])C3([H])[H])C([H])([H])C1([H])N([H])C(=O)N1C([H])([H])C([H])([H])C([H])([H])C([H])(n2nc(-c3c([H])c([H])c(Oc4c([H])c([H])c(F)c([H])c4F)c([H])c3[H])c(C(=O)N([H])[H])c2N([H])[H])C1([H])[H]

>  <smiles>  (19) 
[H]C1=C(C([H])([H])[H])C([H])([H])C([H])(C([H])([H])C([H])([H])Oc2c([H])c([H])c3c(c2[H])C([H])([H])N(C(=O)C([H])(N([H])C(=O)C([H])(N([H])C([H])([H])[H])C([H])([H])[H])C(C([H])([H])[H])(C([H])([H])[H])C([H])([H])[H])C([H])(C(=O)N([H])C2([H])c4c([H])c([H])c([H])c([H])c4C([H])([H])C([H])([H])C2([H])[H])C3([H])[H])C([H])([H])C1([H])N([H])C(=O)N1C([H])([H])C([H])([H])C([H])([H])C([H])(n2nc(-c3c([H])c([H])c(Oc4c([H])c([H])c(F)c([H])c4F)c([H])c3[H])c(C(=O)N([H])[H])c2N([H])[H])C1([H])[H]

$$$$
19:0:0
     RDKit          3D

 95104  0  0  1  0  0  0  0  0999 V2000
  -30.6630  -22.9370   20.6960 C   0  0  0  0  0  3  0  0  0  0  0  0
  -31.1750  -22.3740   19.5870 C   0  0  0  0  0  0  0  0  0  0  0  0
  -29.7340  -24.1360   20.7010 C   0  0  0  0  0  2  0  0  0  0  0  0
  -30.9210  -22.9480   18.2050 C   0  0  0  0  0  2  0  0  0  0  0  0
  -29.6970  -23.8760   18.1640 C   0  0  0  0  0  2  0  0  0  0  0  0
  -29.6400  -24.8700   19.3420 C   0  0  0  0  0  3  0  0  0  0  0  0
  -31.9970  -21.0980   19.6290 C   0  0  0  0  0  2  0  0  0  0  0  0
  -31.1060  -19.8450   19.4640 C   0  0  0  0  0  2  0  0  0  0  0  0
  -31.1820  -19.3700   21.9860 C   0  0  0  0  0  3  0  0  0  0  0  0
  -31.1620  -18.4670   23.0650 C   0  0  0  0  0  3  0  0  0  0  0  0
  -30.9450  -17.5150   20.4340 C   0  0  0  0  0  3  0  0  0  0  0  0
  -31.0920  -18.8980   20.6580 C   0  0  0  0  0  0  0  0  0  0  0  0
  -31.0340  -17.0820   22.8380 C   0  0  0  0  0  0  0  0  0  0  0  0
  -30.9180  -16.6020   21.5130 C   0  0  0  0  0  0  0  0  0  0  0  0
  -31.0320  -16.1220   24.0170 C   0  0  0  0  0  1  0  0  0  0  0  0
  -31.1080  -14.4750   20.2700 C   0  0  0  0  0  0  0  0  0  0  0  0
  -30.6700  -12.4320   18.9690 C   0  0  0  0  0  2  0  0  0  0  0  0
  -29.7180  -12.7250   17.7960 C   0  0  0  0  0  2  0  0  0  0  0  0
  -28.2490  -12.6260   18.2450 C   0  0  0  0  0  2  0  0  0  0  0  0
  -27.9650  -13.4400   19.5340 C   0  0  0  0  0  3  0  0  0  0  0  0
  -29.0160  -13.1130   20.6170 C   0  0  0  0  0  2  0  0  0  0  0  0
  -30.3620  -13.3620   20.0610 N   0  0  0  0  0  0  0  0  0  0  0  0
  -32.1180  -14.7540   19.6150 O   0  0  0  0  0  0  0  0  0  0  0  0
  -30.7020  -15.2170   21.3070 N   0  0  0  0  0  0  0  0  0  0  0  0
  -30.0460  -14.7730   21.9290 H   0  0  0  0  0  0  0  0  0  0  0  0
  -25.5880  -14.1230   20.2630 C   0  0  0  0  0  0  0  0  0  0  0  0
  -24.5020  -13.3830   20.6500 C   0  0  0  0  0  0  0  0  0  0  0  0
  -24.9270  -12.0190   20.6200 C   0  0  0  0  0  0  0  0  0  0  0  0
  -26.6050  -13.2120   20.0230 N   0  0  0  0  0  0  0  0  0  0  0  0
  -26.2100  -11.9420   20.2960 N   0  0  0  0  0  0  0  0  0  0  0  0
  -24.1690  -10.7790   20.8270 C   0  0  0  0  0  0  0  0  0  0  0  0
  -24.5820   -9.8100   21.7680 C   0  0  0  0  0  3  0  0  0  0  0  0
  -23.8290   -8.6320   21.9590 C   0  0  0  0  0  3  0  0  0  0  0  0
  -22.6500   -8.4110   21.2090 C   0  0  0  0  0  0  0  0  0  0  0  0
  -22.2580   -9.3680   20.2570 C   0  0  0  0  0  3  0  0  0  0  0  0
  -23.0100  -10.5380   20.0630 C   0  0  0  0  0  3  0  0  0  0  0  0
  -21.8710   -7.2850   21.3100 O   0  0  0  0  0  0  0  0  0  0  0  0
  -21.7960   -6.5630   22.4730 C   0  0  0  0  0  0  0  0  0  0  0  0
  -21.3960   -7.1540   23.6930 C   0  0  0  0  0  3  0  0  0  0  0  0
  -21.2640   -6.3590   24.8490 C   0  0  0  0  0  3  0  0  0  0  0  0
  -21.5220   -4.9760   24.7870 C   0  0  0  0  0  0  0  0  0  0  0  0
  -21.9130   -4.3870   23.5730 C   0  0  0  0  0  3  0  0  0  0  0  0
  -22.0470   -5.1780   22.4190 C   0  0  0  0  0  0  0  0  0  0  0  0
  -22.4040   -4.5990   21.2460 F   0  0  0  0  0  0  0  0  0  0  0  0
  -21.3880   -4.2130   25.8960 F   0  0  0  0  0  0  0  0  0  0  0  0
  -23.1210  -13.8970   20.9370 C   0  0  0  0  0  0  0  0  0  0  0  0
  -22.3970  -13.2450   21.8400 N   0  0  0  0  0  0  0  0  0  0  0  0
  -22.6930  -14.9140   20.3950 O   0  0  0  0  0  0  0  0  0  0  0  0
  -22.7560  -12.4240   22.3050 H   0  0  0  0  0  0  0  0  0  0  0  0
  -21.4690  -13.5740   22.0680 H   0  0  0  0  0  0  0  0  0  0  0  0
  -25.7880  -15.4880   20.0790 N   0  0  0  0  0  0  0  0  0  0  0  0
  -25.0470  -16.1680   20.2040 H   0  0  0  0  0  0  0  0  0  0  0  0
  -26.6510  -15.9030   19.7500 H   0  0  0  0  0  0  0  0  0  0  0  0
  -28.3260  -25.6620   19.2620 C   0  0  0  0  0  2  0  0  0  0  0  0
  -28.2710  -26.7830   20.1470 O   0  0  0  0  0  0  0  0  0  0  0  0
  -24.5370  -31.9940   23.2730 C   0  0  0  0  0  0  0  0  0  0  0  0
  -27.0870  -27.5010   20.1730 C   0  0  0  0  0  0  0  0  0  0  0  0
  -23.2970  -30.5980   21.6580 C   0  0  0  0  0  3  0  0  0  0  0  0
  -24.7100  -29.0380   20.2300 C   0  0  0  0  0  0  0  0  0  0  0  0
  -25.8290  -30.9150   21.4390 C   0  0  0  0  0  2  0  0  0  0  0  0
  -25.8840  -29.5420   20.8020 C   0  0  0  0  0  0  0  0  0  0  0  0
  -27.0710  -28.7760   20.7820 C   0  0  0  0  0  3  0  0  0  0  0  0
  -25.8820  -27.0100   19.6080 C   0  0  0  0  0  3  0  0  0  0  0  0
  -24.7010  -27.7660   19.6410 C   0  0  0  0  0  3  0  0  0  0  0  0
  -23.4820  -29.9170   20.2800 C   0  0  0  0  0  2  0  0  0  0  0  0
  -24.5730  -31.1840   22.1790 N   0  0  0  0  0  0  0  0  0  0  0  0
  -23.4660  -32.2860   23.8220 O   0  0  0  0  0  0  0  0  0  0  0  0
  -22.6470  -29.5870   22.6290 C   0  0  0  0  0  0  0  0  0  0  0  0
  -21.3250  -29.3980   22.4940 N   0  0  0  0  0  0  0  0  0  0  0  0
  -23.3290  -28.9780   23.4580 O   0  0  0  0  0  0  0  0  0  0  0  0
  -20.8390  -29.9400   21.7910 H   0  0  0  0  0  0  0  0  0  0  0  0
  -17.9550  -28.1900   22.9690 C   0  0  0  0  0  0  0  0  0  0  0  0
  -20.5040  -28.4740   23.2770 C   0  0  0  0  0  3  0  0  0  0  0  0
  -20.6270  -27.0300   22.7390 C   0  0  0  0  0  2  0  0  0  0  0  0
  -19.5450  -26.6720   21.7160 C   0  0  0  0  0  2  0  0  0  0  0  0
  -18.1520  -26.8250   22.3330 C   0  0  0  0  0  2  0  0  0  0  0  0
  -19.0590  -28.9720   23.3970 C   0  0  0  0  0  0  0  0  0  0  0  0
  -18.8220  -30.2500   23.9460 C   0  0  0  0  0  3  0  0  0  0  0  0
  -17.5100  -30.7440   24.0790 C   0  0  0  0  0  3  0  0  0  0  0  0
  -16.4200  -29.9590   23.6680 C   0  0  0  0  0  3  0  0  0  0  0  0
  -16.6420  -28.6850   23.1180 C   0  0  0  0  0  3  0  0  0  0  0  0
  -25.8400  -32.6120   23.8730 C   0  0  0  0  0  3  0  0  0  0  0  0
  -26.3690  -31.8360   25.1410 C   0  0  1  0  0  0  0  0  0  0  0  0
  -25.2880  -31.6000   26.2210 C   0  0  0  0  0  1  0  0  0  0  0  0
  -26.9450  -30.4580   24.7380 C   0  0  0  0  0  1  0  0  0  0  0  0
  -27.5240  -32.6290   25.7940 C   0  0  0  0  0  1  0  0  0  0  0  0
  -25.5470  -34.0110   24.2080 N   0  0  0  0  0  0  0  0  0  0  0  0
  -25.8840  -35.0630   23.4490 C   0  0  0  0  0  0  0  0  0  0  0  0
  -26.5490  -34.9540   22.4140 O   0  0  0  0  0  0  0  0  0  0  0  0
  -24.9580  -34.1690   25.0110 H   0  0  0  0  0  0  0  0  0  0  0  0
  -24.1740  -36.8730   23.0980 C   0  0  0  0  0  1  0  0  0  0  0  0
  -25.4090  -36.4530   23.9120 C   0  0  0  0  0  3  0  0  0  0  0  0
  -27.5520  -37.3090   24.7480 C   0  0  0  0  0  1  0  0  0  0  0  0
  -26.4530  -37.4950   23.8060 N   0  0  0  0  0  0  0  0  0  0  0  0
  -26.0580  -38.4190   23.9570 H   0  0  0  0  0  0  0  0  0  0  0  0
  1  3  1  0
  2  7  1  0
  2  1  2  0
  4  2  1  0
  5  4  1  0
  5  6  1  0
  6 54  1  0
  6  3  1  0
  8  7  1  0
  8 12  1  0
  9 10  1  0
 11 12  1  0
 11 14  2  0
 12  9  2  0
 13 10  2  0
 13 15  1  0
 14 13  1  0
 16 24  1  0
 17 22  1  0
 18 19  1  0
 18 17  1  0
 20 19  1  0
 20 29  1  0
 20 21  1  0
 22 16  1  0
 22 21  1  0
 23 16  2  0
 24 14  1  0
 24 25  1  0
 26 27  2  0
 27 46  1  0
 28 27  1  0
 28 31  1  0
 29 26  1  0
 29 30  1  0
 30 28  2  0
 31 32  1  0
 32 33  2  0
 34 37  1  0
 34 33  1  0
 35 34  2  0
 36 35  1  0
 36 31  2  0
 37 38  1  0
 38 39  1  0
 39 40  2  0
 41 40  1  0
 41 45  1  0
 42 41  2  0
 43 38  2  0
 43 42  1  0
 44 43  1  0
 46 47  1  0
 47 50  1  0
 47 49  1  0
 48 46  2  0
 51 52  1  0
 51 26  1  0
 53 51  1  0
 54 55  1  0
 55 57  1  0
 56 67  2  0
 57 62  1  0
 58 66  1  0
 58 68  1  0
 59 65  1  0
 59 61  1  0
 60 66  1  0
 61 60  1  0
 62 61  2  0
 63 64  1  0
 63 57  2  0
 64 59  2  0
 65 58  1  0
 66 56  1  0
 68 70  2  0
 69 68  1  0
 71 69  1  0
 72 81  2  0
 72 77  1  0
 73 69  1  0
 73 77  1  0
 74 73  1  0
 75 76  1  0
 75 74  1  0
 76 72  1  0
 77 78  2  0
 78 79  1  0
 80 79  2  0
 81 80  1  0
 82 56  1  0
 82 87  1  0
 82 83  1  0
 83 86  1  1
 83 84  1  0
 85 83  1  0
 87 90  1  0
 88 92  1  0
 88 87  1  0
 89 88  2  0
 92 91  1  0
 94 92  1  0
 94 95  1  0
 94 93  1  0
M  ISO  4  16 100  24 100  54 101  55 101
M  END
>  <TORSDO>  (20) 
F 20

>  <SCORE>  (20) 
-10.112

>  <name>  (20) 
19

>  <ligand_id>  (20) 
19

>  <original_smiles>  (20) 
[H]C1=C(C([H])([H])C([H])([H])c2c([H])c([H])c(C([H])([H])[H])c(N([H])C(=O)N3C([H])([H])C([H])([H])C([H])([H])C([H])(n4nc(-c5c([H])c([H])c(Oc6c([H])c([H])c(F)c([H])c6F)c([H])c5[H])c(C(=O)N([H])[H])c4N([H])[H])C3([H])[H])c2[H])C([H])([H])C([H])([H])C([H])(C([H])([H])Oc2c([H])c([H])c3c(c2[H])C([H])([H])N(C(=O)C([H])(N([H])C(=O)C([H])(N([H])C([H])([H])[H])C([H])([H])[H])C(C([H])([H])[H])(C([H])([H])[H])C([H])([H])[H])C([H])(C(=O)N([H])C2([H])c4c([H])c([H])c([H])c([H])c4C([H])([H])C([H])([H])C2([H])[H])C3([H])[H])C1([H])[H]

>  <smiles>  (20) 
[H]C1=C(C([H])([H])C([H])([H])c2c([H])c([H])c(C([H])([H])[H])c(N([H])C(=O)N3C([H])([H])C([H])([H])C([H])([H])C([H])(n4nc(-c5c([H])c([H])c(Oc6c([H])c([H])c(F)c([H])c6F)c([H])c5[H])c(C(=O)N([H])[H])c4N([H])[H])C3([H])[H])c2[H])C([H])([H])C([H])([H])C([H])(C([H])([H])Oc2c([H])c([H])c3c(c2[H])C([H])([H])N(C(=O)C([H])(N([H])C(=O)C([H])(N([H])C([H])([H])[H])C([H])([H])[H])C(C([H])([H])[H])(C([H])([H])[H])C([H])([H])[H])C([H])(C(=O)N([H])C2([H])c4c([H])c([H])c([H])c([H])c4C([H])([H])C([H])([H])C2([H])[H])C3([H])[H])C1([H])[H]

$$$$
20:0:0
     RDKit          3D

 88 97  0  0  1  0  0  0  0  0999 V2000
  -28.7680  -19.6230   21.4620 C   0  0  0  0  0  2  0  0  0  0  0  0
  -30.5160  -20.7150   20.4100 C   0  0  0  0  0  2  0  0  0  0  0  0
  -28.6660  -18.8630   19.2750 C   0  0  0  0  0  2  0  0  0  0  0  0
  -30.1540  -19.2210   20.9590 C   0  0  0  0  0  3  0  0  0  0  0  0
  -28.3200  -20.2170   20.1280 C   0  0  0  0  0  3  0  0  0  0  0  0
  -29.2310  -21.5440   19.8860 C   0  0  0  0  0  3  0  0  0  0  0  0
  -29.9280  -18.0490   19.8640 C   0  0  0  0  0  3  0  0  0  0  0  0
  -30.5660  -15.2460   19.9550 C   0  0  0  0  0  0  0  0  0  0  0  0
  -30.4370  -12.8640   19.0200 C   0  0  0  0  0  2  0  0  0  0  0  0
  -29.4480  -12.7840   17.8310 C   0  0  0  0  0  2  0  0  0  0  0  0
  -28.0120  -12.5450   18.3340 C   0  0  0  0  0  2  0  0  0  0  0  0
  -27.6520  -13.4610   19.5310 C   0  0  0  0  0  3  0  0  0  0  0  0
  -28.7610  -13.5040   20.6050 C   0  0  0  0  0  2  0  0  0  0  0  0
  -29.9860  -13.9630   19.9360 N   0  0  0  0  0  0  0  0  0  0  0  0
  -31.7450  -15.2950   19.5840 O   0  0  0  0  0  0  0  0  0  0  0  0
  -29.7990  -16.4570   20.1860 N   0  0  0  0  0  0  0  0  0  0  0  0
  -28.8780  -16.2230   20.5250 H   0  0  0  0  0  0  0  0  0  0  0  0
  -25.3170  -14.0210   20.4020 C   0  0  0  0  0  0  0  0  0  0  0  0
  -24.2720  -13.2410   20.8140 C   0  0  0  0  0  0  0  0  0  0  0  0
  -24.7340  -11.8910   20.7420 C   0  0  0  0  0  0  0  0  0  0  0  0
  -26.3450  -13.1480   20.0950 N   0  0  0  0  0  0  0  0  0  0  0  0
  -26.0090  -11.8590   20.3670 N   0  0  0  0  0  0  0  0  0  0  0  0
  -24.0170  -10.6260   20.9520 C   0  0  0  0  0  0  0  0  0  0  0  0
  -24.4710   -9.6610   21.8770 C   0  0  0  0  0  3  0  0  0  0  0  0
  -23.7520   -8.4630   22.0750 C   0  0  0  0  0  3  0  0  0  0  0  0
  -22.5620   -8.2200   21.3470 C   0  0  0  0  0  0  0  0  0  0  0  0
  -22.1260   -9.1740   20.4110 C   0  0  0  0  0  3  0  0  0  0  0  0
  -22.8460  -10.3640   20.2110 C   0  0  0  0  0  3  0  0  0  0  0  0
  -21.8110   -7.0750   21.4550 O   0  0  0  0  0  0  0  0  0  0  0  0
  -21.7670   -6.3510   22.6190 C   0  0  0  0  0  0  0  0  0  0  0  0
  -21.2990   -6.9110   23.8280 C   0  0  0  0  0  3  0  0  0  0  0  0
  -21.2040   -6.1110   24.9840 C   0  0  0  0  0  3  0  0  0  0  0  0
  -21.5670   -4.7510   24.9320 C   0  0  0  0  0  0  0  0  0  0  0  0
  -22.0280   -4.1900   23.7280 C   0  0  0  0  0  3  0  0  0  0  0  0
  -22.1240   -4.9870   22.5740 C   0  0  0  0  0  0  0  0  0  0  0  0
  -22.5480   -4.4370   21.4120 F   0  0  0  0  0  0  0  0  0  0  0  0
  -21.4690   -3.9810   26.0400 F   0  0  0  0  0  0  0  0  0  0  0  0
  -22.8900  -13.7150   21.1570 C   0  0  0  0  0  0  0  0  0  0  0  0
  -22.2060  -13.0140   22.0540 N   0  0  0  0  0  0  0  0  0  0  0  0
  -22.4290  -14.7440   20.6650 O   0  0  0  0  0  0  0  0  0  0  0  0
  -22.5930  -12.1830   22.4750 H   0  0  0  0  0  0  0  0  0  0  0  0
  -21.2810  -13.3160   22.3250 H   0  0  0  0  0  0  0  0  0  0  0  0
  -25.4710  -15.3940   20.2320 N   0  0  0  0  0  0  0  0  0  0  0  0
  -24.7080  -16.0440   20.3850 H   0  0  0  0  0  0  0  0  0  0  0  0
  -26.2880  -15.8320   19.8280 H   0  0  0  0  0  0  0  0  0  0  0  0
  -28.9930  -23.1860   20.4670 C   0  0  0  0  0  3  0  0  0  0  0  0
  -28.1480  -24.5910   19.8740 C   0  0  0  0  0  3  0  0  0  0  0  0
  -28.2820  -26.1450   20.2520 O   0  0  0  0  0  0  0  0  0  0  0  0
  -24.6290  -31.9130   23.2160 C   0  0  0  0  0  0  0  0  0  0  0  0
  -27.2370  -27.1700   20.1580 C   0  0  0  0  0  0  0  0  0  0  0  0
  -23.4430  -30.5200   21.5660 C   0  0  0  0  0  3  0  0  0  0  0  0
  -24.9060  -28.9560   20.1260 C   0  0  0  0  0  0  0  0  0  0  0  0
  -26.0000  -30.7840   21.4130 C   0  0  0  0  0  2  0  0  0  0  0  0
  -26.0830  -29.3900   20.7470 C   0  0  0  0  0  0  0  0  0  0  0  0
  -27.2440  -28.5140   20.7460 C   0  0  0  0  0  3  0  0  0  0  0  0
  -26.0360  -26.8650   19.4830 C   0  0  0  0  0  3  0  0  0  0  0  0
  -24.9010  -27.7130   19.4750 C   0  0  0  0  0  3  0  0  0  0  0  0
  -23.6730  -29.8510   20.1840 C   0  0  0  0  0  2  0  0  0  0  0  0
  -24.7110  -31.0980   22.1190 N   0  0  0  0  0  0  0  0  0  0  0  0
  -23.5390  -32.1870   23.7440 O   0  0  0  0  0  0  0  0  0  0  0  0
  -22.7660  -29.5050   22.5230 C   0  0  0  0  0  0  0  0  0  0  0  0
  -21.4370  -29.3320   22.4010 N   0  0  0  0  0  0  0  0  0  0  0  0
  -23.4400  -28.8750   23.3420 O   0  0  0  0  0  0  0  0  0  0  0  0
  -20.9480  -29.8920   21.7170 H   0  0  0  0  0  0  0  0  0  0  0  0
  -18.0610  -28.1170   22.9170 C   0  0  0  0  0  0  0  0  0  0  0  0
  -20.6220  -28.3850   23.1660 C   0  0  0  0  0  3  0  0  0  0  0  0
  -20.7220  -26.9600   22.5720 C   0  0  0  0  0  2  0  0  0  0  0  0
  -19.6130  -26.6480   21.5630 C   0  0  0  0  0  2  0  0  0  0  0  0
  -18.2360  -26.7780   22.2190 C   0  0  0  0  0  2  0  0  0  0  0  0
  -19.1800  -28.8790   23.3470 C   0  0  0  0  0  0  0  0  0  0  0  0
  -18.9600  -30.1300   23.9620 C   0  0  0  0  0  3  0  0  0  0  0  0
  -17.6550  -30.6210   24.1500 C   0  0  0  0  0  3  0  0  0  0  0  0
  -16.5500  -29.8580   23.7340 C   0  0  0  0  0  3  0  0  0  0  0  0
  -16.7540  -28.6070   23.1240 C   0  0  0  0  0  3  0  0  0  0  0  0
  -25.8990  -32.5580   23.8510 C   0  0  0  0  0  3  0  0  0  0  0  0
  -25.5770  -33.9570   24.1810 N   0  0  0  0  0  0  0  0  0  0  0  0
  -25.8880  -35.0150   23.4210 C   0  0  0  0  0  0  0  0  0  0  0  0
  -26.5410  -34.9180   22.3790 O   0  0  0  0  0  0  0  0  0  0  0  0
  -24.9940  -34.1050   24.9930 H   0  0  0  0  0  0  0  0  0  0  0  0
  -24.1370  -36.7970   23.1080 C   0  0  0  0  0  1  0  0  0  0  0  0
  -25.4000  -36.4020   23.8890 C   0  0  0  0  0  3  0  0  0  0  0  0
  -27.5390  -37.3170   24.6760 C   0  0  0  0  0  1  0  0  0  0  0  0
  -26.4200  -37.4650   23.7500 N   0  0  0  0  0  0  0  0  0  0  0  0
  -26.0070  -38.3820   23.8940 H   0  0  0  0  0  0  0  0  0  0  0  0
  -26.4030  -31.7960   25.1380 C   0  0  1  0  0  0  0  0  0  0  0  0
  -25.2980  -31.5580   26.1950 C   0  0  0  0  0  1  0  0  0  0  0  0
  -26.9980  -30.4190   24.7670 C   0  0  0  0  0  1  0  0  0  0  0  0
  -27.5420  -32.5990   25.8100 C   0  0  0  0  0  1  0  0  0  0  0  0
  3  7  1  0
  4  2  1  0
  4  1  1  0
  5  3  1  0
  5  1  1  0
  6  5  1  0
  6  2  1  0
  6 46  1  0
  7 16  1  0
  7  4  1  0
  8 16  1  0
  9 14  1  0
 10 11  1  0
 10  9  1  0
 12 11  1  0
 12 21  1  0
 12 13  1  0
 14  8  1  0
 14 13  1  0
 15  8  2  0
 16 17  1  0
 18 19  2  0
 19 38  1  0
 20 19  1  0
 20 23  1  0
 21 22  1  0
 21 18  1  0
 22 20  2  0
 23 24  1  0
 24 25  2  0
 26 29  1  0
 26 25  1  0
 27 26  2  0
 28 27  1  0
 28 23  2  0
 29 30  1  0
 30 31  1  0
 31 32  2  0
 33 32  1  0
 33 37  1  0
 34 33  2  0
 35 30  2  0
 35 34  1  0
 36 35  1  0
 38 39  1  0
 39 42  1  0
 39 41  1  0
 40 38  2  0
 43 44  1  0
 43 18  1  0
 45 43  1  0
 47 48  1  0
 47 46  2  0
 49 60  2  0
 50 48  1  0
 50 55  1  0
 51 59  1  0
 51 61  1  0
 52 58  1  0
 52 54  1  0
 53 59  1  0
 54 53  1  0
 55 54  2  0
 56 50  2  0
 57 56  1  0
 57 52  2  0
 58 51  1  0
 59 49  1  0
 61 63  2  0
 62 61  1  0
 64 62  1  0
 65 74  2  0
 65 70  1  0
 66 62  1  0
 66 70  1  0
 67 66  1  0
 68 69  1  0
 68 67  1  0
 69 65  1  0
 70 71  2  0
 71 72  1  0
 73 72  2  0
 74 73  1  0
 75 49  1  0
 75 76  1  0
 75 85  1  0
 76 79  1  0
 77 81  1  0
 77 76  1  0
 78 77  2  0
 81 80  1  0
 83 81  1  0
 83 84  1  0
 83 82  1  0
 85 88  1  1
 85 86  1  0
 87 85  1  0
M  ISO  4   8 100  16 100  47 101  48 101
M  END
>  <TORSDO>  (21) 
F 18

>  <SCORE>  (21) 
-14.774

>  <name>  (21) 
20

>  <ligand_id>  (21) 
20

>  <original_smiles>  (21) 
[H]c1c([H])c([H])c2c(c1[H])C([H])([H])C([H])([H])C([H])([H])C2([H])N([H])C(=O)C1([H])N(C(=O)C([H])(N([H])C(=O)C([H])(N([H])C([H])([H])[H])C([H])([H])[H])C(C([H])([H])[H])(C([H])([H])[H])C([H])([H])[H])C([H])([H])c2c([H])c(OC([H])([H])C([H])([H])C3([H])C([H])([H])C4([H])C([H])([H])C3([H])C([H])([H])C4([H])N([H])C(=O)N3C([H])([H])C([H])([H])C([H])([H])C([H])(n4nc(-c5c([H])c([H])c(Oc6c([H])c([H])c(F)c([H])c6F)c([H])c5[H])c(C(=O)N([H])[H])c4N([H])[H])C3([H])[H])c([H])c([H])c2C1([H])[H]

>  <smiles>  (21) 
[H]c1c([H])c([H])c2c(c1[H])C([H])([H])C([H])([H])C([H])([H])C2([H])N([H])C(=O)C1([H])N(C(=O)C([H])(N([H])C(=O)C([H])(N([H])C([H])([H])[H])C([H])([H])[H])C(C([H])([H])[H])(C([H])([H])[H])C([H])([H])[H])C([H])([H])c2c([H])c(OC([H])([H])C([H])([H])C3([H])C([H])([H])C4([H])C([H])([H])C3([H])C([H])([H])C4([H])N([H])C(=O)N3C([H])([H])C([H])([H])C([H])([H])C([H])(n4nc(-c5c([H])c([H])c(Oc6c([H])c([H])c(F)c([H])c6F)c([H])c5[H])c(C(=O)N([H])[H])c4N([H])[H])C3([H])[H])c([H])c([H])c2C1([H])[H]

$$$$
21:0:0
     RDKit          3D

 92101  0  0  1  0  0  0  0  0999 V2000
  -30.7180  -18.1290   19.1000 C   0  0  0  0  0  2  0  0  0  0  0  0
  -30.6590  -20.8250   19.6020 C   0  0  0  0  0  2  0  0  0  0  0  0
  -28.8990  -19.6500   20.8620 C   0  0  0  0  0  2  0  0  0  0  0  0
  -31.0960  -19.3840   19.9560 C   0  0  0  0  0  3  0  0  0  0  0  0
  -30.7030  -17.3620   20.4310 C   0  0  0  0  0  3  0  0  0  0  0  0
  -29.1990  -21.0240   20.0740 C   0  0  0  0  0  3  0  0  0  0  0  0
  -30.2160  -18.7760   21.0660 C   0  0  2  0  0  0  0  0  0  0  0  0
  -30.6810  -18.9860   22.5090 C   0  0  0  0  0  1  0  0  0  0  0  0
  -30.6680  -14.7770   20.3350 C   0  0  0  0  0  0  0  0  0  0  0  0
  -30.3910  -12.5000   19.3460 C   0  0  0  0  0  2  0  0  0  0  0  0
  -29.4680  -12.5630   18.1110 C   0  0  0  0  0  2  0  0  0  0  0  0
  -27.9950  -12.4120   18.5370 C   0  0  0  0  0  2  0  0  0  0  0  0
  -27.6220  -13.3170   19.7420 C   0  0  0  0  0  3  0  0  0  0  0  0
  -28.6760  -13.2640   20.8690 C   0  0  0  0  0  2  0  0  0  0  0  0
  -29.9750  -13.5880   20.2660 N   0  0  0  0  0  0  0  0  0  0  0  0
  -31.8640  -14.7820   20.0360 O   0  0  0  0  0  0  0  0  0  0  0  0
  -30.0110  -15.9960   20.5150 N   0  0  0  0  0  0  0  0  0  0  0  0
  -29.0190  -15.9770   20.6950 H   0  0  0  0  0  0  0  0  0  0  0  0
  -25.2340  -13.9200   20.4580 C   0  0  0  0  0  0  0  0  0  0  0  0
  -24.1630  -13.1530   20.8290 C   0  0  0  0  0  0  0  0  0  0  0  0
  -24.6200  -11.8000   20.8140 C   0  0  0  0  0  0  0  0  0  0  0  0
  -26.2750  -13.0350   20.2330 N   0  0  0  0  0  0  0  0  0  0  0  0
  -25.9120  -11.7550   20.5140 N   0  0  0  0  0  0  0  0  0  0  0  0
  -23.8840  -10.5440   21.0100 C   0  0  0  0  0  0  0  0  0  0  0  0
  -24.3060   -9.5790   21.9510 C   0  0  0  0  0  3  0  0  0  0  0  0
  -23.5700   -8.3880   22.1350 C   0  0  0  0  0  3  0  0  0  0  0  0
  -22.3980   -8.1540   21.3770 C   0  0  0  0  0  0  0  0  0  0  0  0
  -21.9960   -9.1070   20.4250 C   0  0  0  0  0  3  0  0  0  0  0  0
  -22.7320  -10.2880   20.2390 C   0  0  0  0  0  3  0  0  0  0  0  0
  -21.6330   -7.0160   21.4710 O   0  0  0  0  0  0  0  0  0  0  0  0
  -21.5770   -6.2790   22.6260 C   0  0  0  0  0  0  0  0  0  0  0  0
  -21.1580   -6.8420   23.8510 C   0  0  0  0  0  3  0  0  0  0  0  0
  -21.0470   -6.0320   24.9980 C   0  0  0  0  0  3  0  0  0  0  0  0
  -21.3470   -4.6590   24.9240 C   0  0  0  0  0  0  0  0  0  0  0  0
  -21.7590   -4.0940   23.7030 C   0  0  0  0  0  3  0  0  0  0  0  0
  -21.8710   -4.9010   22.5580 C   0  0  0  0  0  0  0  0  0  0  0  0
  -22.2480   -4.3460   21.3800 F   0  0  0  0  0  0  0  0  0  0  0  0
  -21.2360   -3.8790   26.0240 F   0  0  0  0  0  0  0  0  0  0  0  0
  -22.7650  -13.6410   21.0860 C   0  0  0  0  0  0  0  0  0  0  0  0
  -22.0240  -12.9590   21.9520 N   0  0  0  0  0  0  0  0  0  0  0  0
  -22.3380  -14.6630   20.5490 O   0  0  0  0  0  0  0  0  0  0  0  0
  -22.3810  -12.1350   22.4100 H   0  0  0  0  0  0  0  0  0  0  0  0
  -21.0840  -13.2670   22.1590 H   0  0  0  0  0  0  0  0  0  0  0  0
  -25.4040  -15.2880   20.2680 N   0  0  0  0  0  0  0  0  0  0  0  0
  -24.6370  -15.9450   20.3680 H   0  0  0  0  0  0  0  0  0  0  0  0
  -26.2530  -15.7200   19.9240 H   0  0  0  0  0  0  0  0  0  0  0  0
  -28.8880  -22.3700   20.7710 N   0  0  0  0  0  4  0  0  0  0  0  0
  -29.4810  -22.4410   21.5830 H   0  0  0  0  0  0  0  0  0  0  0  0
  -27.9480  -22.2770   21.1220 H   0  0  0  0  0  0  0  0  0  0  0  0
  -28.9400  -23.7240   20.0210 C   0  0  0  0  0  3  0  0  0  0  0  0
  -28.2570  -25.0170   20.7300 C   0  0  0  0  0  3  0  0  0  0  0  0
  -28.4430  -26.4300   20.2420 O   0  0  0  0  0  0  0  0  0  0  0  0
  -24.6480  -31.8670   23.2260 C   0  0  0  0  0  0  0  0  0  0  0  0
  -27.3310  -27.3000   20.2160 C   0  0  0  0  0  0  0  0  0  0  0  0
  -23.4780  -30.4600   21.5670 C   0  0  0  0  0  3  0  0  0  0  0  0
  -24.9610  -28.9170   20.1610 C   0  0  0  0  0  0  0  0  0  0  0  0
  -26.0180  -30.7920   21.4210 C   0  0  0  0  0  2  0  0  0  0  0  0
  -26.1190  -29.4100   20.7760 C   0  0  0  0  0  0  0  0  0  0  0  0
  -27.3090  -28.6150   20.7900 C   0  0  0  0  0  3  0  0  0  0  0  0
  -26.1540  -26.8710   19.5670 C   0  0  0  0  0  3  0  0  0  0  0  0
  -24.9830  -27.6560   19.5440 C   0  0  0  0  0  3  0  0  0  0  0  0
  -23.7180  -29.7850   20.1920 C   0  0  0  0  0  2  0  0  0  0  0  0
  -24.7330  -31.0590   22.1280 N   0  0  0  0  0  0  0  0  0  0  0  0
  -23.5550  -32.1380   23.7460 O   0  0  0  0  0  0  0  0  0  0  0  0
  -22.8090  -29.4400   22.5200 C   0  0  0  0  0  0  0  0  0  0  0  0
  -21.4860  -29.2500   22.3750 N   0  0  0  0  0  0  0  0  0  0  0  0
  -23.4810  -28.8200   23.3490 O   0  0  0  0  0  0  0  0  0  0  0  0
  -21.0020  -29.8030   21.6820 H   0  0  0  0  0  0  0  0  0  0  0  0
  -18.1160  -28.0130   22.8170 C   0  0  0  0  0  0  0  0  0  0  0  0
  -20.6650  -28.3060   23.1340 C   0  0  0  0  0  3  0  0  0  0  0  0
  -20.7950  -26.8730   22.5660 C   0  0  0  0  0  2  0  0  0  0  0  0
  -19.7170  -26.5340   21.5320 C   0  0  0  0  0  2  0  0  0  0  0  0
  -18.3210  -26.6640   22.1490 C   0  0  0  0  0  2  0  0  0  0  0  0
  -19.2160  -28.7910   23.2650 C   0  0  0  0  0  0  0  0  0  0  0  0
  -18.9700  -30.0540   23.8470 C   0  0  0  0  0  3  0  0  0  0  0  0
  -17.6560  -30.5390   23.9870 C   0  0  0  0  0  3  0  0  0  0  0  0
  -16.5700  -29.7580   23.5560 C   0  0  0  0  0  3  0  0  0  0  0  0
  -16.8000  -28.4970   22.9770 C   0  0  0  0  0  3  0  0  0  0  0  0
  -25.9170  -32.5110   23.8650 C   0  0  0  0  0  3  0  0  0  0  0  0
  -26.4170  -31.7470   25.1530 C   0  0  1  0  0  0  0  0  0  0  0  0
  -25.3110  -31.5110   26.2070 C   0  0  0  0  0  1  0  0  0  0  0  0
  -27.0110  -30.3690   24.7780 C   0  0  0  0  0  1  0  0  0  0  0  0
  -27.5540  -32.5490   25.8290 C   0  0  0  0  0  1  0  0  0  0  0  0
  -25.5950  -33.9090   24.1860 N   0  0  0  0  0  0  0  0  0  0  0  0
  -25.9300  -34.9610   23.4280 C   0  0  0  0  0  0  0  0  0  0  0  0
  -26.6130  -34.8580   22.4050 O   0  0  0  0  0  0  0  0  0  0  0  0
  -24.9930  -34.0620   24.9820 H   0  0  0  0  0  0  0  0  0  0  0  0
  -24.1990  -36.7460   23.0450 C   0  0  0  0  0  1  0  0  0  0  0  0
  -25.4300  -36.3490   23.8750 C   0  0  0  0  0  3  0  0  0  0  0  0
  -27.5480  -37.2490   24.7320 C   0  0  0  0  0  1  0  0  0  0  0  0
  -26.4590  -37.4060   23.7730 N   0  0  0  0  0  0  0  0  0  0  0  0
  -26.0460  -38.3250   23.9080 H   0  0  0  0  0  0  0  0  0  0  0  0
  1  5  1  0
  2  4  1  0
  2  6  1  0
  3  7  1  0
  4  1  1  0
  4  7  1  0
  5 17  1  0
  5  7  1  0
  6 47  1  0
  6  3  1  0
  7  8  1  1
  9 17  1  0
 10 15  1  0
 11 12  1  0
 11 10  1  0
 13 12  1  0
 13 22  1  0
 13 14  1  0
 15  9  1  0
 15 14  1  0
 16  9  2  0
 17 18  1  0
 19 20  2  0
 20 39  1  0
 21 20  1  0
 21 24  1  0
 22 19  1  0
 22 23  1  0
 23 21  2  0
 24 25  1  0
 25 26  2  0
 27 30  1  0
 27 26  1  0
 28 27  2  0
 29 28  1  0
 29 24  2  0
 30 31  1  0
 31 32  1  0
 32 33  2  0
 34 33  1  0
 34 38  1  0
 35 34  2  0
 36 31  2  0
 36 35  1  0
 37 36  1  0
 39 40  1  0
 40 43  1  0
 40 42  1  0
 41 39  2  0
 44 45  1  0
 44 19  1  0
 46 44  1  0
 47 49  1  0
 47 48  1  0
 50 51  2  0
 50 47  1  0
 52 51  1  0
 53 64  2  0
 54 52  1  0
 54 59  1  0
 55 63  1  0
 55 65  1  0
 56 62  1  0
 56 58  1  0
 57 63  1  0
 58 59  2  0
 58 57  1  0
 60 54  2  0
 61 60  1  0
 61 56  2  0
 62 55  1  0
 63 53  1  0
 65 67  2  0
 66 65  1  0
 68 66  1  0
 69 78  2  0
 69 74  1  0
 70 66  1  0
 70 74  1  0
 71 70  1  0
 72 73  1  0
 72 71  1  0
 73 69  1  0
 74 75  2  0
 75 76  1  0
 77 76  2  0
 78 77  1  0
 79 53  1  0
 79 84  1  0
 79 80  1  0
 80 83  1  1
 80 81  1  0
 82 80  1  0
 84 87  1  0
 85 89  1  0
 85 84  1  0
 86 85  2  0
 89 88  1  0
 91 89  1  0
 91 92  1  0
 91 90  1  0
M  ISO  4   9 100  17 100  51 101  52 101
M  END
>  <TORSDO>  (22) 
F 19

>  <SCORE>  (22) 
-13.841

>  <name>  (22) 
21

>  <ligand_id>  (22) 
21

>  <original_smiles>  (22) 
[H]c1c([H])c([H])c2c(c1[H])C([H])([H])C([H])([H])C([H])([H])C2([H])N([H])C(=O)C1([H])N(C(=O)C([H])(N([H])C(=O)C([H])(N([H])C([H])([H])[H])C([H])([H])[H])C(C([H])([H])[H])(C([H])([H])[H])C([H])([H])[H])C([H])([H])c2c([H])c(OC([H])([H])C([H])([H])[N+]([H])([H])C3([H])C([H])([H])C4([H])C([H])([H])C([H])(N([H])C(=O)N5C([H])([H])C([H])([H])C([H])([H])C([H])(n6nc(-c7c([H])c([H])c(Oc8c([H])c([H])c(F)c([H])c8F)c([H])c7[H])c(C(=O)N([H])[H])c6N([H])[H])C5([H])[H])C4(C([H])([H])[H])C3([H])[H])c([H])c([H])c2C1([H])[H]

>  <smiles>  (22) 
[H]c1c([H])c([H])c2c(c1[H])C([H])([H])C([H])([H])C([H])([H])C2([H])N([H])C(=O)C1([H])N(C(=O)C([H])(N([H])C(=O)C([H])(N([H])C([H])([H])[H])C([H])([H])[H])C(C([H])([H])[H])(C([H])([H])[H])C([H])([H])[H])C([H])([H])c2c([H])c(OC([H])([H])C([H])([H])[N+]([H])([H])C3([H])C([H])([H])C4([H])C([H])([H])C([H])(N([H])C(=O)N5C([H])([H])C([H])([H])C([H])([H])C([H])(n6nc(-c7c([H])c([H])c(Oc8c([H])c([H])c(F)c([H])c8F)c([H])c7[H])c(C(=O)N([H])[H])c6N([H])[H])C5([H])[H])C4(C([H])([H])[H])C3([H])[H])c([H])c([H])c2C1([H])[H]

$$$$
22:0:0
     RDKit          3D

 93102  0  0  1  0  0  0  0  0999 V2000
  -30.6450  -24.6160   20.6810 C   0  0  0  0  0  2  0  0  0  0  0  0
  -30.2430  -23.4710   20.1410 C   0  0  0  0  0  3  0  0  0  0  0  0
  -30.8960  -22.1670   19.8150 C   0  0  0  0  0  2  0  0  0  0  0  0
  -28.4680  -23.9940   21.5360 C   0  0  0  0  0  2  0  0  0  0  0  0
  -29.5620  -25.1140   21.6060 C   0  0  0  0  0  3  0  0  0  0  0  0
  -28.9190  -22.9210   20.5120 C   0  0  0  0  0  3  0  0  0  0  0  0
  -29.7930  -21.6510   20.7950 C   0  0  0  0  0  3  0  0  0  0  0  0
  -29.0890  -26.5660   21.3540 C   0  0  0  0  0  2  0  0  0  0  0  0
  -28.4040  -26.7060   20.1090 O   0  0  0  0  0  0  0  0  0  0  0  0
  -24.6210  -31.8920   23.2440 C   0  0  0  0  0  0  0  0  0  0  0  0
  -27.2680  -27.4820   20.1410 C   0  0  0  0  0  0  0  0  0  0  0  0
  -23.4080  -30.4920   21.6030 C   0  0  0  0  0  3  0  0  0  0  0  0
  -24.8620  -28.9640   20.1650 C   0  0  0  0  0  0  0  0  0  0  0  0
  -25.9290  -30.8640   21.3910 C   0  0  0  0  0  2  0  0  0  0  0  0
  -26.0160  -29.4940   20.7550 C   0  0  0  0  0  0  0  0  0  0  0  0
  -27.2210  -28.7590   20.7490 C   0  0  0  0  0  3  0  0  0  0  0  0
  -26.1040  -26.9680   19.5360 C   0  0  0  0  0  3  0  0  0  0  0  0
  -24.8980  -27.6970   19.5560 C   0  0  0  0  0  3  0  0  0  0  0  0
  -23.6130  -29.8160   20.2200 C   0  0  0  0  0  2  0  0  0  0  0  0
  -24.6710  -31.0960   22.1380 N   0  0  0  0  0  0  0  0  0  0  0  0
  -23.5430  -32.1590   23.7930 O   0  0  0  0  0  0  0  0  0  0  0  0
  -22.7680  -29.4650   22.5650 C   0  0  0  0  0  0  0  0  0  0  0  0
  -21.4430  -29.2780   22.4430 N   0  0  0  0  0  0  0  0  0  0  0  0
  -23.4580  -28.8400   23.3740 O   0  0  0  0  0  0  0  0  0  0  0  0
  -20.9470  -29.8340   21.7590 H   0  0  0  0  0  0  0  0  0  0  0  0
  -18.0760  -28.0720   22.9490 C   0  0  0  0  0  0  0  0  0  0  0  0
  -20.6340  -28.3370   23.2150 C   0  0  0  0  0  3  0  0  0  0  0  0
  -20.7400  -26.9080   22.6350 C   0  0  0  0  0  2  0  0  0  0  0  0
  -19.6360  -26.5840   21.6220 C   0  0  0  0  0  2  0  0  0  0  0  0
  -18.2550  -26.7240   22.2700 C   0  0  0  0  0  2  0  0  0  0  0  0
  -19.1940  -28.8360   23.3790 C   0  0  0  0  0  0  0  0  0  0  0  0
  -18.9740  -30.0970   23.9720 C   0  0  0  0  0  3  0  0  0  0  0  0
  -17.6680  -30.5950   24.1410 C   0  0  0  0  0  3  0  0  0  0  0  0
  -16.5650  -29.8280   23.7300 C   0  0  0  0  0  3  0  0  0  0  0  0
  -16.7700  -28.5690   23.1390 C   0  0  0  0  0  3  0  0  0  0  0  0
  -25.9110  -32.5230   23.8570 C   0  0  0  0  0  3  0  0  0  0  0  0
  -25.6040  -33.9200   24.1910 N   0  0  0  0  0  0  0  0  0  0  0  0
  -25.9320  -34.9720   23.4280 C   0  0  0  0  0  0  0  0  0  0  0  0
  -26.5960  -34.8690   22.3940 O   0  0  0  0  0  0  0  0  0  0  0  0
  -25.0160  -34.0750   24.9970 H   0  0  0  0  0  0  0  0  0  0  0  0
  -24.2030  -36.7630   23.0760 C   0  0  0  0  0  1  0  0  0  0  0  0
  -25.4450  -36.3600   23.8870 C   0  0  0  0  0  3  0  0  0  0  0  0
  -27.5800  -37.2440   24.7150 C   0  0  0  0  0  1  0  0  0  0  0  0
  -26.4770  -37.4130   23.7710 N   0  0  0  0  0  0  0  0  0  0  0  0
  -26.0730  -38.3330   23.9170 H   0  0  0  0  0  0  0  0  0  0  0  0
  -26.4410  -31.7480   25.1260 C   0  0  1  0  0  0  0  0  0  0  0  0
  -25.3580  -31.5040   26.2030 C   0  0  0  0  0  1  0  0  0  0  0  0
  -27.0210  -30.3730   24.7210 C   0  0  0  0  0  1  0  0  0  0  0  0
  -27.5970  -32.5410   25.7790 C   0  0  0  0  0  1  0  0  0  0  0  0
  -29.2100  -20.2470   20.5570 C   0  0  0  0  0  2  0  0  0  0  0  0
  -30.1340  -19.1820   21.0180 N   0  0  0  0  0  4  0  0  0  0  0  0
  -30.3430  -19.3380   21.9930 H   0  0  0  0  0  0  0  0  0  0  0  0
  -30.9940  -19.2610   20.5020 H   0  0  0  0  0  0  0  0  0  0  0  0
  -29.6220  -17.7990   20.8620 C   0  0  0  0  0  2  0  0  0  0  0  0
  -30.5830  -16.7540   21.4690 C   0  0  0  0  0  2  0  0  0  0  0  0
  -30.7040  -14.4470   20.5160 C   0  0  0  0  0  0  0  0  0  0  0  0
  -30.3570  -12.3450   19.2850 C   0  0  0  0  0  2  0  0  0  0  0  0
  -29.4010  -12.5740   18.0980 C   0  0  0  0  0  2  0  0  0  0  0  0
  -27.9330  -12.4260   18.5430 C   0  0  0  0  0  2  0  0  0  0  0  0
  -27.6090  -13.2490   19.8190 C   0  0  0  0  0  3  0  0  0  0  0  0
  -28.6730  -13.0030   20.9130 C   0  0  0  0  0  2  0  0  0  0  0  0
  -30.0000  -13.3000   20.3430 N   0  0  0  0  0  0  0  0  0  0  0  0
  -31.7830  -14.6730   19.9630 O   0  0  0  0  0  0  0  0  0  0  0  0
  -30.1010  -15.3830   21.2630 N   0  0  0  0  0  0  0  0  0  0  0  0
  -29.2140  -15.1260   21.6690 H   0  0  0  0  0  0  0  0  0  0  0  0
  -25.2080  -13.8480   20.5460 C   0  0  0  0  0  0  0  0  0  0  0  0
  -24.1470  -13.0700   20.9230 C   0  0  0  0  0  0  0  0  0  0  0  0
  -24.6150  -11.7200   20.8870 C   0  0  0  0  0  0  0  0  0  0  0  0
  -26.2590  -12.9710   20.3080 N   0  0  0  0  0  0  0  0  0  0  0  0
  -25.9020  -11.6870   20.5710 N   0  0  0  0  0  0  0  0  0  0  0  0
  -23.8980  -10.4540   21.0800 C   0  0  0  0  0  0  0  0  0  0  0  0
  -24.3490   -9.4820   22.0000 C   0  0  0  0  0  3  0  0  0  0  0  0
  -23.6310   -8.2800   22.1810 C   0  0  0  0  0  3  0  0  0  0  0  0
  -22.4490   -8.0410   21.4410 C   0  0  0  0  0  0  0  0  0  0  0  0
  -22.0170   -9.0020   20.5070 C   0  0  0  0  0  3  0  0  0  0  0  0
  -22.7370  -10.1950   20.3240 C   0  0  0  0  0  3  0  0  0  0  0  0
  -21.6990   -6.8930   21.5320 O   0  0  0  0  0  0  0  0  0  0  0  0
  -21.6770   -6.1370   22.6770 C   0  0  0  0  0  0  0  0  0  0  0  0
  -21.2660   -6.6730   23.9180 C   0  0  0  0  0  3  0  0  0  0  0  0
  -21.1900   -5.8410   25.0530 C   0  0  0  0  0  3  0  0  0  0  0  0
  -21.5160   -4.4750   24.9500 C   0  0  0  0  0  0  0  0  0  0  0  0
  -21.9190   -3.9390   23.7150 C   0  0  0  0  0  3  0  0  0  0  0  0
  -21.9960   -4.7670   22.5810 C   0  0  0  0  0  0  0  0  0  0  0  0
  -22.3640   -4.2400   21.3890 F   0  0  0  0  0  0  0  0  0  0  0  0
  -21.4370   -3.6750   26.0400 F   0  0  0  0  0  0  0  0  0  0  0  0
  -22.7480  -13.5380   21.2050 C   0  0  0  0  0  0  0  0  0  0  0  0
  -22.0280  -12.8380   22.0750 N   0  0  0  0  0  0  0  0  0  0  0  0
  -22.3000  -14.5610   20.6890 O   0  0  0  0  0  0  0  0  0  0  0  0
  -22.4040  -12.0130   22.5200 H   0  0  0  0  0  0  0  0  0  0  0  0
  -21.0900  -13.1330   22.3060 H   0  0  0  0  0  0  0  0  0  0  0  0
  -25.3620  -15.2180   20.3680 N   0  0  0  0  0  0  0  0  0  0  0  0
  -24.5880  -15.8660   20.4730 H   0  0  0  0  0  0  0  0  0  0  0  0
  -26.1990  -15.6620   20.0120 H   0  0  0  0  0  0  0  0  0  0  0  0
  1  5  1  0
  2  3  1  0
  2  6  1  0
  2  1  1  0
  3  7  1  0
  4  5  1  0
  5  8  1  0
  6  7  1  0
  6  4  1  0
  7 50  1  0
  9 11  1  0
  9  8  1  0
 10 21  2  0
 11 16  1  0
 12 20  1  0
 12 22  1  0
 13 19  1  0
 13 15  1  0
 14 20  1  0
 15 14  1  0
 16 15  2  0
 17 18  1  0
 17 11  2  0
 18 13  2  0
 19 12  1  0
 20 10  1  0
 22 24  2  0
 23 22  1  0
 25 23  1  0
 26 35  2  0
 26 31  1  0
 27 23  1  0
 27 31  1  0
 28 27  1  0
 29 30  1  0
 29 28  1  0
 30 26  1  0
 31 32  2  0
 32 33  1  0
 34 33  2  0
 35 34  1  0
 36 10  1  0
 36 37  1  0
 36 46  1  0
 37 40  1  0
 38 42  1  0
 38 37  1  0
 39 38  2  0
 42 41  1  0
 44 42  1  0
 44 45  1  0
 44 43  1  0
 46 49  1  1
 46 47  1  0
 48 46  1  0
 50 51  1  0
 51 52  1  0
 53 51  1  0
 54 51  1  0
 54 55  1  0
 56 64  1  0
 57 62  1  0
 58 59  1  0
 58 57  1  0
 60 59  1  0
 60 69  1  0
 60 61  1  0
 62 56  1  0
 62 61  1  0
 63 56  2  0
 64 55  1  0
 64 65  1  0
 66 67  2  0
 67 86  1  0
 68 67  1  0
 68 71  1  0
 69 66  1  0
 69 70  1  0
 70 68  2  0
 71 72  1  0
 72 73  2  0
 74 77  1  0
 74 73  1  0
 75 74  2  0
 76 75  1  0
 76 71  2  0
 77 78  1  0
 78 79  1  0
 79 80  2  0
 81 80  1  0
 81 85  1  0
 82 81  2  0
 83 78  2  0
 83 82  1  0
 84 83  1  0
 86 87  1  0
 87 90  1  0
 87 89  1  0
 88 86  2  0
 91 92  1  0
 91 66  1  0
 93 91  1  0
M  ISO  4   8 101   9 101  56 100  64 100
M  END
>  <TORSDO>  (23) 
F 21

>  <SCORE>  (23) 
-13.711

>  <name>  (23) 
22

>  <ligand_id>  (23) 
22

>  <original_smiles>  (23) 
[H]C1=C2C([H])([H])C([H])(C([H])([H])[N+]([H])([H])C([H])([H])C([H])([H])N([H])C(=O)N3C([H])([H])C([H])([H])C([H])([H])C([H])(n4nc(-c5c([H])c([H])c(Oc6c([H])c([H])c(F)c([H])c6F)c([H])c5[H])c(C(=O)N([H])[H])c4N([H])[H])C3([H])[H])C2([H])C([H])([H])C1([H])C([H])([H])Oc1c([H])c([H])c2c(c1[H])C([H])([H])N(C(=O)C([H])(N([H])C(=O)C([H])(N([H])C([H])([H])[H])C([H])([H])[H])C(C([H])([H])[H])(C([H])([H])[H])C([H])([H])[H])C([H])(C(=O)N([H])C1([H])c3c([H])c([H])c([H])c([H])c3C([H])([H])C([H])([H])C1([H])[H])C2([H])[H]

>  <smiles>  (23) 
[H]C1=C2C([H])([H])C([H])(C([H])([H])[N+]([H])([H])C([H])([H])C([H])([H])N([H])C(=O)N3C([H])([H])C([H])([H])C([H])([H])C([H])(n4nc(-c5c([H])c([H])c(Oc6c([H])c([H])c(F)c([H])c6F)c([H])c5[H])c(C(=O)N([H])[H])c4N([H])[H])C3([H])[H])C2([H])C([H])([H])C1([H])C([H])([H])Oc1c([H])c([H])c2c(c1[H])C([H])([H])N(C(=O)C([H])(N([H])C(=O)C([H])(N([H])C([H])([H])[H])C([H])([H])[H])C(C([H])([H])[H])(C([H])([H])[H])C([H])([H])[H])C([H])(C(=O)N([H])C1([H])c3c([H])c([H])c([H])c([H])c3C([H])([H])C([H])([H])C1([H])[H])C2([H])[H]

$$$$
23:0:0
     RDKit          3D

 97107  0  0  1  0  0  0  0  0999 V2000
  -28.6400  -22.1760   17.9220 C   0  0  0  0  0  0  0  0  0  0  0  0
  -28.5200  -20.8590   18.7030 C   0  0  0  0  0  2  0  0  0  0  0  0
  -28.1470  -23.4560   18.6090 C   0  0  0  0  0  2  0  0  0  0  0  0
  -28.7510  -22.2880   20.8100 C   0  0  0  0  0  2  0  0  0  0  0  0
  -29.2260  -20.9230   20.0740 C   0  0  0  0  0  3  0  0  0  0  0  0
  -28.7920  -23.6870   19.9910 C   0  0  0  0  0  3  0  0  0  0  0  0
  -29.0780  -22.2010   16.7700 O   0  0  0  0  0  0  0  0  0  0  0  0
  -29.1030  -19.5190   20.8880 C   0  0  0  0  0  2  0  0  0  0  0  0
  -30.7580  -14.7810   20.2490 C   0  0  0  0  0  0  0  0  0  0  0  0
  -30.4600  -12.5230   19.2170 C   0  0  0  0  0  2  0  0  0  0  0  0
  -29.5110  -12.5850   18.0040 C   0  0  0  0  0  2  0  0  0  0  0  0
  -28.0510  -12.4160   18.4640 C   0  0  0  0  0  2  0  0  0  0  0  0
  -27.6970  -13.3110   19.6830 C   0  0  0  0  0  3  0  0  0  0  0  0
  -28.7790  -13.2560   20.7840 C   0  0  0  0  0  2  0  0  0  0  0  0
  -30.0480  -13.6050   20.1410 N   0  0  0  0  0  0  0  0  0  0  0  0
  -31.9640  -14.7550   20.0000 O   0  0  0  0  0  0  0  0  0  0  0  0
  -29.0340  -16.6970   20.9570 C   0  0  0  0  0  2  0  0  0  0  0  0
  -29.3750  -18.0560   20.2340 C   0  0  0  0  0  3  0  0  0  0  0  0
  -30.7710  -17.3840   20.0990 C   0  0  0  0  0  3  0  0  0  0  0  0
  -30.1220  -16.0290   20.1970 N   0  0  0  0  0  0  0  0  0  0  0  0
  -25.3260  -13.8970   20.4550 C   0  0  0  0  0  0  0  0  0  0  0  0
  -24.2660  -13.1230   20.8410 C   0  0  0  0  0  0  0  0  0  0  0  0
  -24.7290  -11.7720   20.8010 C   0  0  0  0  0  0  0  0  0  0  0  0
  -26.3660  -13.0190   20.2030 N   0  0  0  0  0  0  0  0  0  0  0  0
  -26.0160  -11.7340   20.4760 N   0  0  0  0  0  0  0  0  0  0  0  0
  -24.0030  -10.5090   20.9980 C   0  0  0  0  0  0  0  0  0  0  0  0
  -24.4370   -9.5470   21.9350 C   0  0  0  0  0  3  0  0  0  0  0  0
  -23.7120   -8.3500   22.1200 C   0  0  0  0  0  3  0  0  0  0  0  0
  -22.5380   -8.1090   21.3680 C   0  0  0  0  0  0  0  0  0  0  0  0
  -22.1230   -9.0590   20.4200 C   0  0  0  0  0  3  0  0  0  0  0  0
  -22.8490  -10.2480   20.2320 C   0  0  0  0  0  3  0  0  0  0  0  0
  -21.7840   -6.9640   21.4630 O   0  0  0  0  0  0  0  0  0  0  0  0
  -21.7240   -6.2350   22.6230 C   0  0  0  0  0  0  0  0  0  0  0  0
  -21.2700   -6.7980   23.8360 C   0  0  0  0  0  3  0  0  0  0  0  0
  -21.1610   -5.9950   24.9880 C   0  0  0  0  0  3  0  0  0  0  0  0
  -21.4940   -4.6290   24.9280 C   0  0  0  0  0  0  0  0  0  0  0  0
  -21.9400   -4.0640   23.7200 C   0  0  0  0  0  3  0  0  0  0  0  0
  -22.0520   -4.8660   22.5710 C   0  0  0  0  0  0  0  0  0  0  0  0
  -22.4630   -4.3130   21.4040 F   0  0  0  0  0  0  0  0  0  0  0  0
  -21.3810   -3.8550   26.0320 F   0  0  0  0  0  0  0  0  0  0  0  0
  -22.8740  -13.6010   21.1290 C   0  0  0  0  0  0  0  0  0  0  0  0
  -22.1550  -12.9060   22.0030 N   0  0  0  0  0  0  0  0  0  0  0  0
  -22.4300  -14.6260   20.6130 O   0  0  0  0  0  0  0  0  0  0  0  0
  -22.5290  -12.0770   22.4410 H   0  0  0  0  0  0  0  0  0  0  0  0
  -21.2200  -13.2060   22.2390 H   0  0  0  0  0  0  0  0  0  0  0  0
  -25.4830  -15.2670   20.2720 N   0  0  0  0  0  0  0  0  0  0  0  0
  -24.7160  -15.9190   20.3950 H   0  0  0  0  0  0  0  0  0  0  0  0
  -26.3170  -15.7010   19.8980 H   0  0  0  0  0  0  0  0  0  0  0  0
  -31.5860  -17.5870   18.8160 C   0  0  0  0  0  2  0  0  0  0  0  0
  -33.1640  -21.6260   18.5100 C   0  0  0  0  0  3  0  0  0  0  0  0
  -32.3560  -21.1040   17.4830 C   0  0  0  0  0  3  0  0  0  0  0  0
  -33.4690  -20.8350   19.6340 C   0  0  0  0  0  3  0  0  0  0  0  0
  -31.8460  -19.7950   17.5790 C   0  0  0  0  0  3  0  0  0  0  0  0
  -32.9630  -19.5240   19.7290 C   0  0  0  0  0  3  0  0  0  0  0  0
  -32.1430  -18.9990   18.7050 C   0  0  0  0  0  0  0  0  0  0  0  0
  -28.1490  -25.0060   20.6880 C   0  0  0  0  0  2  0  0  0  0  0  0
  -28.3730  -26.4100   20.1960 O   0  0  0  0  0  0  0  0  0  0  0  0
  -24.6180  -31.8650   23.1920 C   0  0  0  0  0  0  0  0  0  0  0  0
  -27.2740  -27.2930   20.1660 C   0  0  0  0  0  0  0  0  0  0  0  0
  -23.4370  -30.4620   21.5390 C   0  0  0  0  0  3  0  0  0  0  0  0
  -24.9100  -28.9180   20.1240 C   0  0  0  0  0  0  0  0  0  0  0  0
  -25.9790  -30.7880   21.3800 C   0  0  0  0  0  2  0  0  0  0  0  0
  -26.0740  -29.4080   20.7320 C   0  0  0  0  0  0  0  0  0  0  0  0
  -27.2630  -28.6100   20.7360 C   0  0  0  0  0  3  0  0  0  0  0  0
  -26.0920  -26.8680   19.5270 C   0  0  0  0  0  3  0  0  0  0  0  0
  -24.9240  -27.6560   19.5080 C   0  0  0  0  0  3  0  0  0  0  0  0
  -23.6700  -29.7890   20.1600 C   0  0  0  0  0  2  0  0  0  0  0  0
  -24.6970  -31.0580   22.0940 N   0  0  0  0  0  0  0  0  0  0  0  0
  -23.5270  -32.1350   23.7180 O   0  0  0  0  0  0  0  0  0  0  0  0
  -22.7710  -29.4410   22.4920 C   0  0  0  0  0  0  0  0  0  0  0  0
  -21.4430  -29.2730   22.3670 N   0  0  0  0  0  0  0  0  0  0  0  0
  -23.4480  -28.8040   23.3030 O   0  0  0  0  0  0  0  0  0  0  0  0
  -20.9570  -29.8400   21.6870 H   0  0  0  0  0  0  0  0  0  0  0  0
  -18.0570  -28.1060   22.8820 C   0  0  0  0  0  0  0  0  0  0  0  0
  -20.6200  -28.3330   23.1310 C   0  0  0  0  0  3  0  0  0  0  0  0
  -20.7000  -26.9100   22.5330 C   0  0  0  0  0  2  0  0  0  0  0  0
  -19.5860  -26.6150   21.5230 C   0  0  0  0  0  2  0  0  0  0  0  0
  -18.2110  -26.7660   22.1830 C   0  0  0  0  0  2  0  0  0  0  0  0
  -19.1880  -28.8490   23.3120 C   0  0  0  0  0  0  0  0  0  0  0  0
  -18.9880  -30.1050   23.9260 C   0  0  0  0  0  3  0  0  0  0  0  0
  -17.6910  -30.6170   24.1140 C   0  0  0  0  0  3  0  0  0  0  0  0
  -16.5740  -29.8700   23.7010 C   0  0  0  0  0  3  0  0  0  0  0  0
  -16.7580  -28.6170   23.0900 C   0  0  0  0  0  3  0  0  0  0  0  0
  -25.8900  -32.5040   23.8290 C   0  0  0  0  0  3  0  0  0  0  0  0
  -26.4030  -31.7290   25.1050 C   0  0  1  0  0  0  0  0  0  0  0  0
  -25.3040  -31.4770   26.1640 C   0  0  0  0  0  1  0  0  0  0  0  0
  -26.9990  -30.3580   24.7100 C   0  0  0  0  0  1  0  0  0  0  0  0
  -27.5430  -32.5290   25.7800 C   0  0  0  0  0  1  0  0  0  0  0  0
  -25.5650  -33.8980   24.1680 N   0  0  0  0  0  0  0  0  0  0  0  0
  -25.8860  -34.9590   23.4170 C   0  0  0  0  0  0  0  0  0  0  0  0
  -26.5540  -34.8710   22.3830 O   0  0  0  0  0  0  0  0  0  0  0  0
  -24.9740  -34.0400   24.9720 H   0  0  0  0  0  0  0  0  0  0  0  0
  -24.1400  -36.7390   23.0750 C   0  0  0  0  0  1  0  0  0  0  0  0
  -25.3850  -36.3400   23.8840 C   0  0  0  0  0  3  0  0  0  0  0  0
  -27.5090  -37.2420   24.7240 C   0  0  0  0  0  1  0  0  0  0  0  0
  -26.4080  -37.4040   23.7790 N   0  0  0  0  0  0  0  0  0  0  0  0
  -25.9920  -38.3190   23.9300 H   0  0  0  0  0  0  0  0  0  0  0  0
  1  3  1  0
  1  2  1  0
  2  5  1  0
  3  6  1  0
  5  4  1  0
  5  8  1  0
  6 56  1  0
  6  4  1  0
  7  1  2  0
 10 15  1  0
 11 12  1  0
 11 10  1  0
 13 12  1  0
 13 24  1  0
 13 14  1  0
 15  9  1  0
 15 14  1  0
 16  9  2  0
 18  8  1  0
 18 17  1  0
 19 49  1  0
 19 20  1  0
 19 18  1  0
 20  9  1  0
 20 17  1  0
 21 22  2  0
 22 41  1  0
 23 22  1  0
 23 26  1  0
 24 21  1  0
 24 25  1  0
 25 23  2  0
 26 27  1  0
 27 28  2  0
 29 32  1  0
 29 28  1  0
 30 29  2  0
 31 30  1  0
 31 26  2  0
 32 33  1  0
 33 34  1  0
 34 35  2  0
 36 35  1  0
 36 40  1  0
 37 36  2  0
 38 33  2  0
 38 37  1  0
 39 38  1  0
 41 42  1  0
 42 45  1  0
 42 44  1  0
 43 41  2  0
 46 47  1  0
 46 21  1  0
 48 46  1  0
 50 52  1  0
 51 53  1  0
 51 50  2  0
 52 54  2  0
 53 55  2  0
 55 49  1  0
 55 54  1  0
 57 56  1  0
 58 69  2  0
 59 57  1  0
 59 64  1  0
 60 68  1  0
 60 70  1  0
 61 67  1  0
 61 63  1  0
 62 68  1  0
 63 64  2  0
 63 62  1  0
 65 59  2  0
 66 65  1  0
 66 61  2  0
 67 60  1  0
 68 58  1  0
 70 72  2  0
 71 70  1  0
 73 71  1  0
 74 83  2  0
 74 79  1  0
 75 71  1  0
 75 79  1  0
 76 75  1  0
 77 78  1  0
 77 76  1  0
 78 74  1  0
 79 80  2  0
 80 81  1  0
 82 81  2  0
 83 82  1  0
 84 58  1  0
 84 89  1  0
 84 85  1  0
 85 88  1  1
 85 86  1  0
 87 85  1  0
 89 92  1  0
 90 94  1  0
 90 89  1  0
 91 90  2  0
 94 93  1  0
 96 94  1  0
 96 97  1  0
 96 95  1  0
M  ISO  4   9 100  20 100  56 101  57 101
M  END
>  <TORSDO>  (24) 
F 20

>  <SCORE>  (24) 
-14.239

>  <name>  (24) 
23

>  <ligand_id>  (24) 
23

>  <original_smiles>  (24) 
[H]c1c([H])c([H])c(C([H])([H])C2([H])N(C(=O)N3C([H])([H])C([H])([H])C([H])([H])C([H])(n4nc(-c5c([H])c([H])c(Oc6c([H])c([H])c(F)c([H])c6F)c([H])c5[H])c(C(=O)N([H])[H])c4N([H])[H])C3([H])[H])C([H])([H])C2([H])C([H])([H])C2([H])C([H])([H])C(=O)C([H])([H])C([H])(C([H])([H])Oc3c([H])c([H])c4c(c3[H])C([H])([H])N(C(=O)C([H])(N([H])C(=O)C([H])(N([H])C([H])([H])[H])C([H])([H])[H])C(C([H])([H])[H])(C([H])([H])[H])C([H])([H])[H])C([H])(C(=O)N([H])C3([H])c5c([H])c([H])c([H])c([H])c5C([H])([H])C([H])([H])C3([H])[H])C4([H])[H])C2([H])[H])c([H])c1[H]

>  <smiles>  (24) 
[H]c1c([H])c([H])c(C([H])([H])C2([H])N(C(=O)N3C([H])([H])C([H])([H])C([H])([H])C([H])(n4nc(-c5c([H])c([H])c(Oc6c([H])c([H])c(F)c([H])c6F)c([H])c5[H])c(C(=O)N([H])[H])c4N([H])[H])C3([H])[H])C([H])([H])C2([H])C([H])([H])C2([H])C([H])([H])C(=O)C([H])([H])C([H])(C([H])([H])Oc3c([H])c([H])c4c(c3[H])C([H])([H])N(C(=O)C([H])(N([H])C(=O)C([H])(N([H])C([H])([H])[H])C([H])([H])[H])C(C([H])([H])[H])(C([H])([H])[H])C([H])([H])[H])C([H])(C(=O)N([H])C3([H])c5c([H])c([H])c([H])c([H])c5C([H])([H])C([H])([H])C3([H])[H])C4([H])[H])C2([H])[H])c([H])c1[H]

$$$$
24:0:0
     RDKit          3D

 93102  0  0  1  0  0  0  0  0999 V2000
  -28.6260  -17.7100   19.2220 C   0  0  0  0  0  3  0  0  0  0  0  0
  -29.1000  -16.3810   19.3530 C   0  0  0  0  0  3  0  0  0  0  0  0
  -30.5190  -17.0690   21.1740 C   0  0  0  0  0  3  0  0  0  0  0  0
  -29.1110  -18.7590   20.0410 C   0  0  0  0  0  0  0  0  0  0  0  0
  -30.0300  -16.0070   20.3530 C   0  0  0  0  0  0  0  0  0  0  0  0
  -30.0850  -18.4270   21.0170 C   0  0  0  0  0  0  0  0  0  0  0  0
  -28.6400  -20.1870   19.8130 C   0  0  0  0  0  0  0  0  0  0  0  0
  -30.6930  -19.5520   21.8650 C   0  0  0  0  0  2  0  0  0  0  0  0
  -30.6130  -20.9620   21.2040 C   0  0  0  0  0  2  0  0  0  0  0  0
  -29.1870  -21.3340   20.7250 C   0  0  0  0  0  3  0  0  0  0  0  0
  -27.8350  -20.4590   18.9130 O   0  0  0  0  0  0  0  0  0  0  0  0
  -30.7030  -14.6230   20.3160 C   0  0  0  0  0  0  0  0  0  0  0  0
  -30.3730  -12.3970   19.2940 C   0  0  0  0  0  2  0  0  0  0  0  0
  -29.4400  -12.5380   18.0730 C   0  0  0  0  0  2  0  0  0  0  0  0
  -27.9690  -12.3880   18.5030 C   0  0  0  0  0  2  0  0  0  0  0  0
  -27.6090  -13.2620   19.7330 C   0  0  0  0  0  3  0  0  0  0  0  0
  -28.6770  -13.1820   20.8450 C   0  0  0  0  0  2  0  0  0  0  0  0
  -29.9920  -13.4530   20.2520 N   0  0  0  0  0  0  0  0  0  0  0  0
  -31.9090  -14.6390   20.0670 O   0  0  0  0  0  0  0  0  0  0  0  0
  -25.2290  -13.8760   20.4550 C   0  0  0  0  0  0  0  0  0  0  0  0
  -24.1580  -13.1100   20.8230 C   0  0  0  0  0  0  0  0  0  0  0  0
  -24.6170  -11.7570   20.8060 C   0  0  0  0  0  0  0  0  0  0  0  0
  -26.2680  -12.9890   20.2310 N   0  0  0  0  0  0  0  0  0  0  0  0
  -25.9090  -11.7100   20.5070 N   0  0  0  0  0  0  0  0  0  0  0  0
  -23.8880  -10.4980   21.0010 C   0  0  0  0  0  0  0  0  0  0  0  0
  -24.3150   -9.5380   21.9440 C   0  0  0  0  0  3  0  0  0  0  0  0
  -23.5860   -8.3430   22.1280 C   0  0  0  0  0  3  0  0  0  0  0  0
  -22.4180   -8.1010   21.3650 C   0  0  0  0  0  0  0  0  0  0  0  0
  -22.0120   -9.0500   20.4100 C   0  0  0  0  0  3  0  0  0  0  0  0
  -22.7410  -10.2360   20.2250 C   0  0  0  0  0  3  0  0  0  0  0  0
  -21.6620   -6.9580   21.4580 O   0  0  0  0  0  0  0  0  0  0  0  0
  -21.6000   -6.2280   22.6170 C   0  0  0  0  0  0  0  0  0  0  0  0
  -21.1590   -6.7950   23.8320 C   0  0  0  0  0  3  0  0  0  0  0  0
  -21.0440   -5.9910   24.9840 C   0  0  0  0  0  3  0  0  0  0  0  0
  -21.3620   -4.6210   24.9210 C   0  0  0  0  0  0  0  0  0  0  0  0
  -21.7960   -4.0530   23.7110 C   0  0  0  0  0  3  0  0  0  0  0  0
  -21.9120   -4.8550   22.5610 C   0  0  0  0  0  0  0  0  0  0  0  0
  -22.3110   -4.2980   21.3920 F   0  0  0  0  0  0  0  0  0  0  0  0
  -21.2440   -3.8470   26.0250 F   0  0  0  0  0  0  0  0  0  0  0  0
  -22.7610  -13.5930   21.0820 C   0  0  0  0  0  0  0  0  0  0  0  0
  -22.0270  -12.9060   21.9490 N   0  0  0  0  0  0  0  0  0  0  0  0
  -22.3290  -14.6150   20.5490 O   0  0  0  0  0  0  0  0  0  0  0  0
  -22.3880  -12.0790   22.4010 H   0  0  0  0  0  0  0  0  0  0  0  0
  -21.0890  -13.2120   22.1660 H   0  0  0  0  0  0  0  0  0  0  0  0
  -25.3990  -15.2460   20.2690 N   0  0  0  0  0  0  0  0  0  0  0  0
  -24.6410  -15.9090   20.3870 H   0  0  0  0  0  0  0  0  0  0  0  0
  -26.2710  -15.6840   19.9950 H   0  0  0  0  0  0  0  0  0  0  0  0
  -29.0800  -22.6300   19.9480 N   0  0  0  0  0  4  0  0  0  0  0  0
  -28.2030  -22.5120   19.4590 H   0  0  0  0  0  0  0  0  0  0  0  0
  -29.7850  -22.6290   19.2260 H   0  0  0  0  0  0  0  0  0  0  0  0
  -29.0610  -23.9770   20.6480 C   0  0  0  0  0  2  0  0  0  0  0  0
  -28.3800  -25.1220   19.7940 C   0  0  0  0  0  2  0  0  0  0  0  0
  -28.3990  -26.5190   20.2790 O   0  0  0  0  0  0  0  0  0  0  0  0
  -24.6110  -31.8650   23.2440 C   0  0  0  0  0  0  0  0  0  0  0  0
  -27.2590  -27.3330   20.1920 C   0  0  0  0  0  0  0  0  0  0  0  0
  -23.4210  -30.4650   21.5940 C   0  0  0  0  0  3  0  0  0  0  0  0
  -24.8850  -28.9310   20.1740 C   0  0  0  0  0  0  0  0  0  0  0  0
  -25.9610  -30.7930   21.4320 C   0  0  0  0  0  2  0  0  0  0  0  0
  -26.0460  -29.4180   20.7860 C   0  0  0  0  0  0  0  0  0  0  0  0
  -27.2300  -28.6270   20.7950 C   0  0  0  0  0  3  0  0  0  0  0  0
  -26.0770  -26.9120   19.5320 C   0  0  0  0  0  3  0  0  0  0  0  0
  -24.9030  -27.6810   19.5420 C   0  0  0  0  0  3  0  0  0  0  0  0
  -23.6460  -29.7970   20.2140 C   0  0  0  0  0  2  0  0  0  0  0  0
  -24.6830  -31.0580   22.1470 N   0  0  0  0  0  0  0  0  0  0  0  0
  -23.5240  -32.1390   23.7720 O   0  0  0  0  0  0  0  0  0  0  0  0
  -22.7590  -29.4410   22.5470 C   0  0  0  0  0  0  0  0  0  0  0  0
  -21.4330  -29.2710   22.4210 N   0  0  0  0  0  0  0  0  0  0  0  0
  -23.4370  -28.8060   23.3590 O   0  0  0  0  0  0  0  0  0  0  0  0
  -20.9460  -29.8350   21.7380 H   0  0  0  0  0  0  0  0  0  0  0  0
  -18.0460  -28.1070   22.9310 C   0  0  0  0  0  0  0  0  0  0  0  0
  -20.6090  -28.3340   23.1870 C   0  0  0  0  0  3  0  0  0  0  0  0
  -20.6910  -26.9070   22.5950 C   0  0  0  0  0  2  0  0  0  0  0  0
  -19.5790  -26.6080   21.5850 C   0  0  0  0  0  2  0  0  0  0  0  0
  -18.2030  -26.7630   22.2400 C   0  0  0  0  0  2  0  0  0  0  0  0
  -19.1770  -28.8510   23.3610 C   0  0  0  0  0  0  0  0  0  0  0  0
  -18.9760  -30.1110   23.9670 C   0  0  0  0  0  3  0  0  0  0  0  0
  -17.6780  -30.6250   24.1460 C   0  0  0  0  0  3  0  0  0  0  0  0
  -16.5620  -29.8770   23.7320 C   0  0  0  0  0  3  0  0  0  0  0  0
  -16.7470  -28.6200   23.1300 C   0  0  0  0  0  3  0  0  0  0  0  0
  -25.8890  -32.4990   23.8740 C   0  0  0  0  0  3  0  0  0  0  0  0
  -26.3950  -31.7310   25.1560 C   0  0  1  0  0  0  0  0  0  0  0  0
  -25.2940  -31.4960   26.2160 C   0  0  0  0  0  1  0  0  0  0  0  0
  -26.9830  -30.3520   24.7750 C   0  0  0  0  0  1  0  0  0  0  0  0
  -27.5410  -32.5280   25.8250 C   0  0  0  0  0  1  0  0  0  0  0  0
  -25.5750  -33.8970   24.1980 N   0  0  0  0  0  0  0  0  0  0  0  0
  -25.9040  -34.9480   23.4340 C   0  0  0  0  0  0  0  0  0  0  0  0
  -26.5750  -34.8430   22.4040 O   0  0  0  0  0  0  0  0  0  0  0  0
  -24.9790  -34.0540   24.9970 H   0  0  0  0  0  0  0  0  0  0  0  0
  -24.1690  -36.7330   23.0730 C   0  0  0  0  0  1  0  0  0  0  0  0
  -25.4120  -36.3370   23.8860 C   0  0  0  0  0  3  0  0  0  0  0  0
  -27.5420  -37.2350   24.7140 C   0  0  0  0  0  1  0  0  0  0  0  0
  -26.4410  -37.3930   23.7680 N   0  0  0  0  0  0  0  0  0  0  0  0
  -26.0320  -38.3130   23.9090 H   0  0  0  0  0  0  0  0  0  0  0  0
  1  2  2  0
  1  4  1  0
  2  5  1  0
  4  6  2  0
  5  3  2  0
  6  3  1  0
  6  8  1  0
  7  4  1  0
  7 10  1  0
  9  8  1  0
 10 48  1  0
 10  9  1  0
 11  7  2  0
 12  5  1  0
 13 18  1  0
 14 15  1  0
 14 13  1  0
 16 15  1  0
 16 23  1  0
 16 17  1  0
 18 12  1  0
 18 17  1  0
 19 12  2  0
 20 21  2  0
 21 40  1  0
 22 21  1  0
 22 25  1  0
 23 20  1  0
 23 24  1  0
 24 22  2  0
 25 26  1  0
 26 27  2  0
 28 31  1  0
 28 27  1  0
 29 28  2  0
 30 29  1  0
 30 25  2  0
 31 32  1  0
 32 33  1  0
 33 34  2  0
 35 34  1  0
 35 39  1  0
 36 35  2  0
 37 32  2  0
 37 36  1  0
 38 37  1  0
 40 41  1  0
 41 44  1  0
 41 43  1  0
 42 40  2  0
 45 46  1  0
 45 20  1  0
 47 45  1  0
 48 51  1  0
 49 48  1  0
 50 48  1  0
 52 53  1  0
 52 51  1  0
 54 65  2  0
 55 53  1  0
 55 60  1  0
 56 64  1  0
 56 66  1  0
 57 63  1  0
 57 59  1  0
 58 64  1  0
 59 60  2  0
 59 58  1  0
 61 62  1  0
 61 55  2  0
 62 57  2  0
 63 56  1  0
 64 54  1  0
 66 68  2  0
 67 66  1  0
 69 67  1  0
 70 79  2  0
 70 75  1  0
 71 67  1  0
 71 75  1  0
 72 71  1  0
 73 74  1  0
 73 72  1  0
 74 70  1  0
 75 76  2  0
 76 77  1  0
 78 77  2  0
 79 78  1  0
 80 54  1  0
 80 85  1  0
 80 81  1  0
 81 84  1  1
 81 82  1  0
 83 81  1  0
 85 88  1  0
 86 90  1  0
 86 85  1  0
 87 86  2  0
 90 89  1  0
 92 90  1  0
 92 93  1  0
 92 91  1  0
M  ISO  4   5 100  12 100  52 101  53 101
M  END
>  <TORSDO>  (25) 
F 19

>  <SCORE>  (25) 
-14.550

>  <name>  (25) 
24

>  <ligand_id>  (25) 
24

>  <original_smiles>  (25) 
[H]c1c([H])c([H])c2c(c1[H])C([H])([H])C([H])([H])C([H])([H])C2([H])N([H])C(=O)C1([H])N(C(=O)C([H])(N([H])C(=O)C([H])(N([H])C([H])([H])[H])C([H])([H])[H])C(C([H])([H])[H])(C([H])([H])[H])C([H])([H])[H])C([H])([H])c2c([H])c(OC([H])([H])C([H])([H])[N+]([H])([H])C3([H])C(=O)c4c([H])c([H])c(C(=O)N5C([H])([H])C([H])([H])C([H])([H])C([H])(n6nc(-c7c([H])c([H])c(Oc8c([H])c([H])c(F)c([H])c8F)c([H])c7[H])c(C(=O)N([H])[H])c6N([H])[H])C5([H])[H])c([H])c4C([H])([H])C3([H])[H])c([H])c([H])c2C1([H])[H]

>  <smiles>  (25) 
[H]c1c([H])c([H])c2c(c1[H])C([H])([H])C([H])([H])C([H])([H])C2([H])N([H])C(=O)C1([H])N(C(=O)C([H])(N([H])C(=O)C([H])(N([H])C([H])([H])[H])C([H])([H])[H])C(C([H])([H])[H])(C([H])([H])[H])C([H])([H])[H])C([H])([H])c2c([H])c(OC([H])([H])C([H])([H])[N+]([H])([H])C3([H])C(=O)c4c([H])c([H])c(C(=O)N5C([H])([H])C([H])([H])C([H])([H])C([H])(n6nc(-c7c([H])c([H])c(Oc8c([H])c([H])c(F)c([H])c8F)c([H])c7[H])c(C(=O)N([H])[H])c6N([H])[H])C5([H])[H])c([H])c4C([H])([H])C3([H])[H])c([H])c([H])c2C1([H])[H]

$$$$
25:0:0
     RDKit          3D

 92101  0  0  1  0  0  0  0  0999 V2000
  -29.7120  -21.6340   22.2040 C   0  0  0  0  0  3  0  0  0  0  0  0
  -29.7870  -20.2270   22.3250 C   0  0  0  0  0  3  0  0  0  0  0  0
  -28.7320  -19.9890   20.1540 C   0  0  0  0  0  3  0  0  0  0  0  0
  -29.1370  -22.2390   21.0630 C   0  0  0  0  0  0  0  0  0  0  0  0
  -28.6400  -21.3950   20.0390 C   0  0  0  0  0  0  0  0  0  0  0  0
  -29.3090  -19.3880   21.2950 C   0  0  0  0  0  0  0  0  0  0  0  0
  -29.0780  -23.7770   20.9460 C   0  0  0  0  0  2  0  0  0  0  0  0
  -28.0140  -22.0030   18.8000 C   0  0  0  0  0  2  0  0  0  0  0  0
  -28.6440  -23.3560   18.4690 C   0  0  0  0  0  2  0  0  0  0  0  0
  -28.4730  -24.3510   19.6270 C   0  0  0  0  0  3  0  0  0  0  0  0
  -29.3210  -17.8620   21.4570 C   0  0  0  0  0  2  0  0  0  0  0  0
  -30.3450  -17.0760   20.5890 C   0  0  0  0  0  2  0  0  0  0  0  0
  -30.8560  -14.6370   20.0800 C   0  0  0  0  0  0  0  0  0  0  0  0
  -30.5780  -12.4740   18.9160 C   0  0  0  0  0  2  0  0  0  0  0  0
  -29.5580  -12.6700   17.7710 C   0  0  0  0  0  2  0  0  0  0  0  0
  -28.1110  -12.5100   18.2780 C   0  0  0  0  0  2  0  0  0  0  0  0
  -27.8340  -13.3290   19.5680 C   0  0  0  0  0  3  0  0  0  0  0  0
  -28.9500  -13.0780   20.6060 C   0  0  0  0  0  2  0  0  0  0  0  0
  -30.2320  -13.4280   19.9790 N   0  0  0  0  0  0  0  0  0  0  0  0
  -31.9510  -14.8710   19.5600 O   0  0  0  0  0  0  0  0  0  0  0  0
  -30.1030  -15.6170   20.6250 N   0  0  0  0  0  0  0  0  0  0  0  0
  -29.1910  -15.3230   20.9550 H   0  0  0  0  0  0  0  0  0  0  0  0
  -25.4920  -13.9270   20.4490 C   0  0  0  0  0  0  0  0  0  0  0  0
  -24.4430  -13.1480   20.8530 C   0  0  0  0  0  0  0  0  0  0  0  0
  -24.8890  -11.7950   20.7430 C   0  0  0  0  0  0  0  0  0  0  0  0
  -26.5130  -13.0490   20.1170 N   0  0  0  0  0  0  0  0  0  0  0  0
  -26.1560  -11.7590   20.3520 N   0  0  0  0  0  0  0  0  0  0  0  0
  -24.1680  -10.5320   20.9310 C   0  0  0  0  0  0  0  0  0  0  0  0
  -24.5920   -9.5710   21.8770 C   0  0  0  0  0  3  0  0  0  0  0  0
  -23.8720   -8.3710   22.0480 C   0  0  0  0  0  3  0  0  0  0  0  0
  -22.7120   -8.1220   21.2760 C   0  0  0  0  0  0  0  0  0  0  0  0
  -22.3090   -9.0690   20.3180 C   0  0  0  0  0  3  0  0  0  0  0  0
  -23.0300  -10.2610   20.1430 C   0  0  0  0  0  3  0  0  0  0  0  0
  -21.9650   -6.9710   21.3580 O   0  0  0  0  0  0  0  0  0  0  0  0
  -21.8110   -6.2970   22.5430 C   0  0  0  0  0  0  0  0  0  0  0  0
  -21.2580   -6.9140   23.6850 C   0  0  0  0  0  3  0  0  0  0  0  0
  -21.0510   -6.1640   24.8610 C   0  0  0  0  0  3  0  0  0  0  0  0
  -21.3880   -4.7990   24.8930 C   0  0  0  0  0  0  0  0  0  0  0  0
  -21.9350   -4.1800   23.7560 C   0  0  0  0  0  3  0  0  0  0  0  0
  -22.1420   -4.9270   22.5820 C   0  0  0  0  0  0  0  0  0  0  0  0
  -22.6500   -4.3220   21.4810 F   0  0  0  0  0  0  0  0  0  0  0  0
  -21.1830   -4.0750   26.0200 F   0  0  0  0  0  0  0  0  0  0  0  0
  -23.0700  -13.6210   21.2360 C   0  0  0  0  0  0  0  0  0  0  0  0
  -22.3940  -12.8980   22.1230 N   0  0  0  0  0  0  0  0  0  0  0  0
  -22.6070  -14.6660   20.7810 O   0  0  0  0  0  0  0  0  0  0  0  0
  -22.7810  -12.0500   22.5130 H   0  0  0  0  0  0  0  0  0  0  0  0
  -21.4740  -13.1970   22.4140 H   0  0  0  0  0  0  0  0  0  0  0  0
  -25.6580  -15.3030   20.3190 N   0  0  0  0  0  0  0  0  0  0  0  0
  -24.9120  -15.9590   20.5200 H   0  0  0  0  0  0  0  0  0  0  0  0
  -26.4860  -15.7520   19.9490 H   0  0  0  0  0  0  0  0  0  0  0  0
  -29.0430  -25.7310   19.1840 C   0  0  0  0  0  2  0  0  0  0  0  0
  -28.7600  -26.8600   20.0160 O   0  0  0  0  0  0  0  0  0  0  0  0
  -24.6470  -31.7520   23.0960 C   0  0  0  0  0  0  0  0  0  0  0  0
  -27.5350  -27.4990   19.9600 C   0  0  0  0  0  0  0  0  0  0  0  0
  -23.5230  -30.3260   21.4140 C   0  0  0  0  0  3  0  0  0  0  0  0
  -25.0630  -28.8830   19.9740 C   0  0  0  0  0  0  0  0  0  0  0  0
  -26.0300  -30.8070   21.2490 C   0  0  0  0  0  2  0  0  0  0  0  0
  -26.1850  -29.4520   20.5880 C   0  0  0  0  0  0  0  0  0  0  0  0
  -27.4180  -28.7630   20.5820 C   0  0  0  0  0  3  0  0  0  0  0  0
  -26.3930  -26.9470   19.3350 C   0  0  0  0  0  3  0  0  0  0  0  0
  -25.1620  -27.6300   19.3460 C   0  0  0  0  0  3  0  0  0  0  0  0
  -23.7770  -29.6790   20.0230 C   0  0  0  0  0  2  0  0  0  0  0  0
  -24.7510  -30.9790   21.9760 N   0  0  0  0  0  0  0  0  0  0  0  0
  -23.5520  -31.9610   23.6320 O   0  0  0  0  0  0  0  0  0  0  0  0
  -22.9120  -29.2600   22.3510 C   0  0  0  0  0  0  0  0  0  0  0  0
  -21.5950  -29.0320   22.2140 N   0  0  0  0  0  0  0  0  0  0  0  0
  -23.6200  -28.6470   23.1540 O   0  0  0  0  0  0  0  0  0  0  0  0
  -21.0910  -29.5790   21.5300 H   0  0  0  0  0  0  0  0  0  0  0  0
  -18.2670  -27.7040   22.6900 C   0  0  0  0  0  0  0  0  0  0  0  0
  -20.8150  -28.0450   22.9570 C   0  0  0  0  0  3  0  0  0  0  0  0
  -20.9660  -26.6380   22.3260 C   0  0  0  0  0  2  0  0  0  0  0  0
  -19.8660  -26.3080   21.3140 C   0  0  0  0  0  2  0  0  0  0  0  0
  -18.4890  -26.3800   21.9770 C   0  0  0  0  0  2  0  0  0  0  0  0
  -19.3610  -28.4910   23.1400 C   0  0  0  0  0  0  0  0  0  0  0  0
  -19.1020  -29.7280   23.7720 C   0  0  0  0  0  3  0  0  0  0  0  0
  -17.7800  -30.1750   23.9600 C   0  0  0  0  0  3  0  0  0  0  0  0
  -16.7030  -29.3840   23.5260 C   0  0  0  0  0  3  0  0  0  0  0  0
  -16.9470  -28.1510   22.8990 C   0  0  0  0  0  3  0  0  0  0  0  0
  -25.8990  -32.4290   23.7410 C   0  0  0  0  0  3  0  0  0  0  0  0
  -26.4510  -31.6530   25.0010 C   0  0  1  0  0  0  0  0  0  0  0  0
  -25.3670  -31.3270   26.0560 C   0  0  0  0  0  1  0  0  0  0  0  0
  -27.1060  -30.3210   24.5710 C   0  0  0  0  0  1  0  0  0  0  0  0
  -27.5560  -32.4890   25.6900 C   0  0  0  0  0  1  0  0  0  0  0  0
  -25.5200  -33.8030   24.1010 N   0  0  0  0  0  0  0  0  0  0  0  0
  -25.8110  -34.8890   23.3730 C   0  0  0  0  0  0  0  0  0  0  0  0
  -26.4980  -34.8430   22.3480 O   0  0  0  0  0  0  0  0  0  0  0  0
  -24.9150  -33.9070   24.9030 H   0  0  0  0  0  0  0  0  0  0  0  0
  -24.0090  -36.6090   23.0350 C   0  0  0  0  0  1  0  0  0  0  0  0
  -25.2530  -36.2410   23.8590 C   0  0  0  0  0  3  0  0  0  0  0  0
  -27.3280  -37.2000   24.7540 C   0  0  0  0  0  1  0  0  0  0  0  0
  -26.2380  -37.3410   23.7930 N   0  0  0  0  0  0  0  0  0  0  0  0
  -25.7890  -38.2390   23.9520 H   0  0  0  0  0  0  0  0  0  0  0  0
  1  2  1  0
  3  6  1  0
  4  1  2  0
  5  3  2  0
  5  4  1  0
  6 11  1  0
  6  2  2  0
  7  4  1  0
  8  5  1  0
  9  8  1  0
  9 10  1  0
 10 51  1  0
 10  7  1  0
 12 21  1  0
 12 11  1  0
 13 21  1  0
 14 19  1  0
 15 16  1  0
 15 14  1  0
 17 16  1  0
 17 26  1  0
 17 18  1  0
 19 13  1  0
 19 18  1  0
 20 13  2  0
 21 22  1  0
 23 24  2  0
 24 43  1  0
 25 24  1  0
 25 28  1  0
 26 27  1  0
 26 23  1  0
 27 25  2  0
 28 29  1  0
 29 30  2  0
 31 34  1  0
 31 30  1  0
 32 31  2  0
 33 32  1  0
 33 28  2  0
 34 35  1  0
 35 40  2  0
 35 36  1  0
 36 37  2  0
 37 38  1  0
 38 42  1  0
 39 38  2  0
 40 39  1  0
 41 40  1  0
 43 44  1  0
 44 47  1  0
 44 46  1  0
 45 43  2  0
 48 23  1  0
 48 49  1  0
 50 48  1  0
 51 52  1  0
 53 64  2  0
 54 52  1  0
 54 59  1  0
 55 63  1  0
 55 65  1  0
 56 62  1  0
 56 58  1  0
 57 63  1  0
 58 57  1  0
 59 58  2  0
 60 61  1  0
 60 54  2  0
 61 56  2  0
 62 55  1  0
 63 53  1  0
 65 67  2  0
 66 65  1  0
 68 66  1  0
 69 78  2  0
 69 74  1  0
 70 66  1  0
 70 74  1  0
 71 70  1  0
 72 73  1  0
 72 71  1  0
 73 69  1  0
 74 75  2  0
 75 76  1  0
 77 76  2  0
 78 77  1  0
 79 53  1  0
 79 84  1  0
 79 80  1  0
 80 83  1  1
 80 81  1  0
 82 80  1  0
 84 87  1  0
 85 89  1  0
 85 84  1  0
 86 85  2  0
 89 88  1  0
 91 89  1  0
 91 92  1  0
 91 90  1  0
M  ISO  4  13 100  21 100  51 101  52 101
M  END
>  <TORSDO>  (26) 
F 19

>  <SCORE>  (26) 
-12.564

>  <name>  (26) 
25

>  <ligand_id>  (26) 
25

>  <original_smiles>  (26) 
[H]c1c([H])c([H])c2c(c1[H])C([H])([H])C([H])([H])C([H])([H])C2([H])N([H])C(=O)C1([H])N(C(=O)C([H])(N([H])C(=O)C([H])(N([H])C([H])([H])[H])C([H])([H])[H])C(C([H])([H])[H])(C([H])([H])[H])C([H])([H])[H])C([H])([H])c2c([H])c(OC([H])([H])C3([H])C([H])([H])c4c([H])c([H])c(C([H])([H])C([H])([H])N([H])C(=O)N5C([H])([H])C([H])([H])C([H])([H])C([H])(n6nc(-c7c([H])c([H])c(Oc8c([H])c([H])c(F)c([H])c8F)c([H])c7[H])c(C(=O)N([H])[H])c6N([H])[H])C5([H])[H])c([H])c4C([H])([H])C3([H])[H])c([H])c([H])c2C1([H])[H]

>  <smiles>  (26) 
[H]c1c([H])c([H])c2c(c1[H])C([H])([H])C([H])([H])C([H])([H])C2([H])N([H])C(=O)C1([H])N(C(=O)C([H])(N([H])C(=O)C([H])(N([H])C([H])([H])[H])C([H])([H])[H])C(C([H])([H])[H])(C([H])([H])[H])C([H])([H])[H])C([H])([H])c2c([H])c(OC([H])([H])C3([H])C([H])([H])c4c([H])c([H])c(C([H])([H])C([H])([H])N([H])C(=O)N5C([H])([H])C([H])([H])C([H])([H])C([H])(n6nc(-c7c([H])c([H])c(Oc8c([H])c([H])c(F)c([H])c8F)c([H])c7[H])c(C(=O)N([H])[H])c6N([H])[H])C5([H])[H])c([H])c4C([H])([H])C3([H])[H])c([H])c([H])c2C1([H])[H]

$$$$
26:0:0
     RDKit          3D

 91 99  0  0  1  0  0  0  0  0999 V2000
  -30.0530  -19.3440   19.5640 C   0  0  0  0  0  3  0  0  0  0  0  0
  -30.3440  -17.9380   19.6690 C   0  0  0  0  0  3  0  0  0  0  0  0
  -27.8070  -18.9150   20.2710 C   0  0  0  0  0  3  0  0  0  0  0  0
  -28.7640  -19.8710   19.8560 C   0  0  0  0  0  0  0  0  0  0  0  0
  -28.0720  -17.5140   20.3800 C   0  0  0  0  0  0  0  0  0  0  0  0
  -29.3700  -16.9820   20.0900 C   0  0  0  0  0  0  0  0  0  0  0  0
  -30.4120  -14.5730   19.6440 C   0  0  0  0  0  0  0  0  0  0  0  0
  -30.2700  -12.2920   18.6260 C   0  0  0  0  0  2  0  0  0  0  0  0
  -29.2050  -12.3400   17.5020 C   0  0  0  0  0  2  0  0  0  0  0  0
  -27.7730  -12.1750   18.0580 C   0  0  0  0  0  2  0  0  0  0  0  0
  -27.5100  -13.0430   19.3180 C   0  0  0  0  0  3  0  0  0  0  0  0
  -28.6660  -12.8860   20.3300 C   0  0  0  0  0  2  0  0  0  0  0  0
  -29.9020  -13.2960   19.6450 N   0  0  0  0  0  0  0  0  0  0  0  0
  -31.5010  -14.8270   19.1130 O   0  0  0  0  0  0  0  0  0  0  0  0
  -29.5680  -15.5210   20.1800 N   0  0  0  0  0  0  0  0  0  0  0  0
  -28.8290  -15.0620   20.6890 H   0  0  0  0  0  0  0  0  0  0  0  0
  -25.1880  -13.6250   20.2560 C   0  0  0  0  0  0  0  0  0  0  0  0
  -24.1690  -12.8430   20.7280 C   0  0  0  0  0  0  0  0  0  0  0  0
  -24.6420  -11.4960   20.6600 C   0  0  0  0  0  0  0  0  0  0  0  0
  -26.2130  -12.7530   19.9240 N   0  0  0  0  0  0  0  0  0  0  0  0
  -25.8960  -11.4690   20.2280 N   0  0  0  0  0  0  0  0  0  0  0  0
  -23.9540  -10.2270   20.9290 C   0  0  0  0  0  0  0  0  0  0  0  0
  -24.4400   -9.3110   21.8900 C   0  0  0  0  0  3  0  0  0  0  0  0
  -23.7520   -8.1050   22.1420 C   0  0  0  0  0  3  0  0  0  0  0  0
  -22.5630   -7.8060   21.4360 C   0  0  0  0  0  0  0  0  0  0  0  0
  -22.0960   -8.7100   20.4650 C   0  0  0  0  0  3  0  0  0  0  0  0
  -22.7850   -9.9070   20.2100 C   0  0  0  0  0  3  0  0  0  0  0  0
  -21.8420   -6.6490   21.5970 O   0  0  0  0  0  0  0  0  0  0  0  0
  -21.7810   -5.9990   22.8040 C   0  0  0  0  0  0  0  0  0  0  0  0
  -21.3120   -6.6410   23.9710 C   0  0  0  0  0  3  0  0  0  0  0  0
  -21.2000   -5.9160   25.1760 C   0  0  0  0  0  3  0  0  0  0  0  0
  -21.5460   -4.5520   25.2120 C   0  0  0  0  0  0  0  0  0  0  0  0
  -22.0080   -3.9110   24.0500 C   0  0  0  0  0  3  0  0  0  0  0  0
  -22.1200   -4.6310   22.8470 C   0  0  0  0  0  0  0  0  0  0  0  0
  -22.5450   -4.0040   21.7240 F   0  0  0  0  0  0  0  0  0  0  0  0
  -21.4310   -3.8540   26.3660 F   0  0  0  0  0  0  0  0  0  0  0  0
  -22.7970  -13.3040   21.1280 C   0  0  0  0  0  0  0  0  0  0  0  0
  -22.1680  -12.6120   22.0710 N   0  0  0  0  0  0  0  0  0  0  0  0
  -22.2940  -14.3140   20.6390 O   0  0  0  0  0  0  0  0  0  0  0  0
  -22.5910  -11.7960   22.4890 H   0  0  0  0  0  0  0  0  0  0  0  0
  -21.2520  -12.9040   22.3810 H   0  0  0  0  0  0  0  0  0  0  0  0
  -25.3240  -14.9970   20.0680 N   0  0  0  0  0  0  0  0  0  0  0  0
  -24.5990  -15.6510   20.3420 H   0  0  0  0  0  0  0  0  0  0  0  0
  -26.1460  -15.4510   19.6920 H   0  0  0  0  0  0  0  0  0  0  0  0
  -25.5150  -16.9230   20.3910 C   0  0  0  0  0  1  0  0  0  0  0  0
  -26.9460  -16.5890   20.8670 C   0  0  0  0  0  2  0  0  0  0  0  0
  -28.3140  -21.3910   19.8040 C   0  0  0  0  0  3  0  0  0  0  0  0
  -29.0530  -22.4860   18.9200 C   0  0  0  0  0  3  0  0  0  0  0  0
  -28.4310  -23.9570   18.7330 C   0  0  0  0  0  2  0  0  0  0  0  0
  -28.4870  -25.0650   19.8630 C   0  0  0  0  0  2  0  0  0  0  0  0
  -28.4560  -26.4940   19.4940 O   0  0  0  0  0  0  0  0  0  0  0  0
  -24.6690  -31.5150   23.0090 C   0  0  0  0  0  0  0  0  0  0  0  0
  -27.2860  -27.2510   19.6020 C   0  0  0  0  0  0  0  0  0  0  0  0
  -23.4510  -30.2430   21.2770 C   0  0  0  0  0  3  0  0  0  0  0  0
  -24.8910  -28.8020   19.7320 C   0  0  0  0  0  0  0  0  0  0  0  0
  -25.9730  -30.6140   21.0660 C   0  0  0  0  0  2  0  0  0  0  0  0
  -26.0600  -29.2760   20.3410 C   0  0  0  0  0  0  0  0  0  0  0  0
  -27.2630  -28.5200   20.2580 C   0  0  0  0  0  3  0  0  0  0  0  0
  -26.0930  -26.8120   18.9860 C   0  0  0  0  0  3  0  0  0  0  0  0
  -24.9080  -27.5770   19.0390 C   0  0  0  0  0  3  0  0  0  0  0  0
  -23.6480  -29.6610   19.8500 C   0  0  0  0  0  2  0  0  0  0  0  0
  -24.7200  -30.8030   21.8450 N   0  0  0  0  0  0  0  0  0  0  0  0
  -23.5940  -31.7390   23.5830 O   0  0  0  0  0  0  0  0  0  0  0  0
  -22.8040  -29.1580   22.1700 C   0  0  0  0  0  0  0  0  0  0  0  0
  -21.4730  -29.0080   22.0670 N   0  0  0  0  0  0  0  0  0  0  0  0
  -23.4950  -28.4540   22.9120 O   0  0  0  0  0  0  0  0  0  0  0  0
  -20.9720  -29.6320   21.4510 H   0  0  0  0  0  0  0  0  0  0  0  0
  -18.0910  -27.8530   22.5930 C   0  0  0  0  0  0  0  0  0  0  0  0
  -20.6640  -28.0150   22.7760 C   0  0  0  0  0  3  0  0  0  0  0  0
  -20.7000  -26.6480   22.0530 C   0  0  0  0  0  2  0  0  0  0  0  0
  -19.5490  -26.4630   21.0590 C   0  0  0  0  0  2  0  0  0  0  0  0
  -18.1980  -26.5790   21.7710 C   0  0  0  0  0  2  0  0  0  0  0  0
  -19.2500  -28.5370   23.0500 C   0  0  0  0  0  0  0  0  0  0  0  0
  -19.0910  -29.7390   23.7730 C   0  0  0  0  0  3  0  0  0  0  0  0
  -17.8090  -30.2550   24.0420 C   0  0  0  0  0  3  0  0  0  0  0  0
  -16.6670  -29.5680   23.5970 C   0  0  0  0  0  3  0  0  0  0  0  0
  -16.8100  -28.3670   22.8770 C   0  0  0  0  0  3  0  0  0  0  0  0
  -25.9570  -32.1000   23.6680 C   0  0  0  0  0  3  0  0  0  0  0  0
  -25.6430  -33.4570   24.1360 N   0  0  0  0  0  0  0  0  0  0  0  0
  -25.9630  -34.5820   23.4790 C   0  0  0  0  0  0  0  0  0  0  0  0
  -26.6190  -34.5810   22.4340 O   0  0  0  0  0  0  0  0  0  0  0  0
  -25.0520  -33.5290   24.9510 H   0  0  0  0  0  0  0  0  0  0  0  0
  -24.2150  -36.3800   23.3180 C   0  0  0  0  0  1  0  0  0  0  0  0
  -25.4710  -35.9130   24.0730 C   0  0  0  0  0  3  0  0  0  0  0  0
  -27.6110  -36.7310   24.9560 C   0  0  0  0  0  1  0  0  0  0  0  0
  -26.4950  -36.9810   24.0480 N   0  0  0  0  0  0  0  0  0  0  0  0
  -26.0860  -37.8800   24.2890 H   0  0  0  0  0  0  0  0  0  0  0  0
  -26.4990  -31.2130   24.8530 C   0  0  1  0  0  0  0  0  0  0  0  0
  -25.4290  -30.8780   25.9160 C   0  0  0  0  0  1  0  0  0  0  0  0
  -27.0680  -29.8840   24.3080 C   0  0  0  0  0  1  0  0  0  0  0  0
  -27.6710  -31.9350   25.5600 C   0  0  0  0  0  1  0  0  0  0  0  0
  1  2  2  0
  1  4  1  0
  2  6  1  0
  3  5  1  0
  4  3  2  0
  5 46  1  0
  6 15  1  0
  6  5  2  0
  7 13  1  0
  7 15  1  0
  8 13  1  0
  9 10  1  0
  9  8  1  0
 11 10  1  0
 11 20  1  0
 11 12  1  0
 13 12  1  0
 14  7  2  0
 15 16  1  0
 17 18  2  0
 18 37  1  0
 19 18  1  0
 19 22  1  0
 20 21  1  0
 20 17  1  0
 21 19  2  0
 22 23  1  0
 23 24  2  0
 25 28  1  0
 25 24  1  0
 26 25  2  0
 27 26  1  0
 27 22  2  0
 28 29  1  0
 29 34  2  0
 29 30  1  0
 30 31  2  0
 31 32  1  0
 32 36  1  0
 33 32  2  0
 34 33  1  0
 35 34  1  0
 37 38  1  0
 38 41  1  0
 38 40  1  0
 39 37  2  0
 42 17  1  0
 42 43  1  0
 44 42  1  0
 45 46  1  0
 47  4  1  0
 48 47  2  0
 49 48  1  0
 49 50  1  0
 51 53  1  0
 51 50  1  0
 52 63  2  0
 53 58  1  0
 54 62  1  0
 54 64  1  0
 55 61  1  0
 55 57  1  0
 56 62  1  0
 57 56  1  0
 58 57  2  0
 59 60  1  0
 59 53  2  0
 60 55  2  0
 61 54  1  0
 62 52  1  0
 64 66  2  0
 65 64  1  0
 67 65  1  0
 68 77  2  0
 68 73  1  0
 69 65  1  0
 69 73  1  0
 70 69  1  0
 71 72  1  0
 71 70  1  0
 72 68  1  0
 73 74  2  0
 74 75  1  0
 76 75  2  0
 77 76  1  0
 78 52  1  0
 78 79  1  0
 78 88  1  0
 79 82  1  0
 80 84  1  0
 80 79  1  0
 81 80  2  0
 84 83  1  0
 86 84  1  0
 86 87  1  0
 86 85  1  0
 88 91  1  1
 88 89  1  0
 90 88  1  0
M  ISO  4   7 100  15 100  50 101  51 101
M  END
>  <TORSDO>  (27) 
F 21

>  <SCORE>  (27) 
-11.370

>  <name>  (27) 
26

>  <ligand_id>  (27) 
26

>  <original_smiles>  (27) 
[H]c1c([H])c([H])c2c(c1[H])C([H])([H])C([H])([H])C([H])([H])C2([H])N([H])C(=O)C1([H])N(C(=O)C([H])(N([H])C(=O)C([H])(N([H])C([H])([H])[H])C([H])([H])[H])C(C([H])([H])[H])(C([H])([H])[H])C([H])([H])[H])C([H])([H])c2c([H])c(OC([H])([H])C([H])([H])C([H])([H])C([H])([H])c3c([H])c([H])c(N([H])C(=O)N4C([H])([H])C([H])([H])C([H])([H])C([H])(n5nc(-c6c([H])c([H])c(Oc7c([H])c([H])c(F)c([H])c7F)c([H])c6[H])c(C(=O)N([H])[H])c5N([H])[H])C4([H])[H])c(C([H])([H])C([H])([H])[H])c3[H])c([H])c([H])c2C1([H])[H]

>  <smiles>  (27) 
[H]c1c([H])c([H])c2c(c1[H])C([H])([H])C([H])([H])C([H])([H])C2([H])N([H])C(=O)C1([H])N(C(=O)C([H])(N([H])C(=O)C([H])(N([H])C([H])([H])[H])C([H])([H])[H])C(C([H])([H])[H])(C([H])([H])[H])C([H])([H])[H])C([H])([H])c2c([H])c(OC([H])([H])C([H])([H])C([H])([H])C([H])([H])c3c([H])c([H])c(N([H])C(=O)N4C([H])([H])C([H])([H])C([H])([H])C([H])(n5nc(-c6c([H])c([H])c(Oc7c([H])c([H])c(F)c([H])c7F)c([H])c6[H])c(C(=O)N([H])[H])c5N([H])[H])C4([H])[H])c(C([H])([H])C([H])([H])[H])c3[H])c([H])c([H])c2C1([H])[H]

$$$$
27:0:0
     RDKit          3D

 90 99  0  0  1  0  0  0  0  0999 V2000
  -31.0740  -21.0530   21.0620 C   0  0  0  0  0  0  0  0  0  0  0  0
  -30.5910  -22.4620   21.4770 C   0  0  0  0  0  2  0  0  0  0  0  0
  -28.6560  -20.5320   21.8980 C   0  0  0  0  0  2  0  0  0  0  0  0
  -28.0150  -21.8650   21.4800 C   0  0  0  0  0  2  0  0  0  0  0  0
  -29.6460  -20.5950   20.7080 C   0  0  1  0  0  0  0  0  0  0  0  0
  -29.2610  -22.2600   20.6800 C   0  0  2  0  0  0  0  0  0  0  0  0
  -32.1860  -20.5270   20.9820 O   0  0  0  0  0  0  0  0  0  0  0  0
  -29.6370  -19.1730   19.8360 C   0  0  0  0  0  2  0  0  0  0  0  0
  -30.4270  -17.8090   20.4260 C   0  0  0  0  0  2  0  0  0  0  0  0
  -30.8210  -15.1260   20.0350 C   0  0  0  0  0  0  0  0  0  0  0  0
  -30.6620  -12.7880   19.0860 C   0  0  0  0  0  2  0  0  0  0  0  0
  -29.7010  -12.7570   17.8770 C   0  0  0  0  0  2  0  0  0  0  0  0
  -28.2440  -12.5610   18.3430 C   0  0  0  0  0  2  0  0  0  0  0  0
  -27.8700  -13.4870   19.5290 C   0  0  0  0  0  3  0  0  0  0  0  0
  -28.9510  -13.4860   20.6300 C   0  0  0  0  0  2  0  0  0  0  0  0
  -30.2110  -13.8800   19.9890 N   0  0  0  0  0  0  0  0  0  0  0  0
  -32.0240  -15.1920   19.7650 O   0  0  0  0  0  0  0  0  0  0  0  0
  -30.0460  -16.3020   20.1890 N   0  0  0  0  0  0  0  0  0  0  0  0
  -29.0600  -16.1090   20.2920 H   0  0  0  0  0  0  0  0  0  0  0  0
  -25.5090  -14.0770   20.3240 C   0  0  0  0  0  0  0  0  0  0  0  0
  -24.4500  -13.3050   20.7150 C   0  0  0  0  0  0  0  0  0  0  0  0
  -24.9080  -11.9530   20.6710 C   0  0  0  0  0  0  0  0  0  0  0  0
  -26.5430  -13.1950   20.0580 N   0  0  0  0  0  0  0  0  0  0  0  0
  -26.1920  -11.9120   20.3320 N   0  0  0  0  0  0  0  0  0  0  0  0
  -24.1810  -10.6930   20.8710 C   0  0  0  0  0  0  0  0  0  0  0  0
  -24.5730   -9.7620   21.8570 C   0  0  0  0  0  3  0  0  0  0  0  0
  -23.8440   -8.5670   22.0440 C   0  0  0  0  0  3  0  0  0  0  0  0
  -22.7080   -8.2960   21.2440 C   0  0  0  0  0  0  0  0  0  0  0  0
  -22.3360   -9.2160   20.2480 C   0  0  0  0  0  3  0  0  0  0  0  0
  -23.0660  -10.4010   20.0600 C   0  0  0  0  0  3  0  0  0  0  0  0
  -21.9550   -7.1500   21.3370 O   0  0  0  0  0  0  0  0  0  0  0  0
  -21.7900   -6.4920   22.5290 C   0  0  0  0  0  0  0  0  0  0  0  0
  -21.2040   -7.1170   23.6510 C   0  0  0  0  0  3  0  0  0  0  0  0
  -20.9910   -6.3820   24.8350 C   0  0  0  0  0  3  0  0  0  0  0  0
  -21.3540   -5.0240   24.8960 C   0  0  0  0  0  0  0  0  0  0  0  0
  -21.9330   -4.3990   23.7780 C   0  0  0  0  0  3  0  0  0  0  0  0
  -22.1480   -5.1300   22.5970 C   0  0  0  0  0  0  0  0  0  0  0  0
  -22.6870   -4.5170   21.5150 F   0  0  0  0  0  0  0  0  0  0  0  0
  -21.1430   -4.3160   26.0300 F   0  0  0  0  0  0  0  0  0  0  0  0
  -23.0610  -13.7880   21.0150 C   0  0  0  0  0  0  0  0  0  0  0  0
  -22.3500  -13.0980   21.9010 N   0  0  0  0  0  0  0  0  0  0  0  0
  -22.6140  -14.8120   20.5000 O   0  0  0  0  0  0  0  0  0  0  0  0
  -22.7240  -12.2700   22.3400 H   0  0  0  0  0  0  0  0  0  0  0  0
  -21.4190  -13.4030   22.1440 H   0  0  0  0  0  0  0  0  0  0  0  0
  -25.6720  -15.4480   20.1450 N   0  0  0  0  0  0  0  0  0  0  0  0
  -24.9040  -16.0990   20.2690 H   0  0  0  0  0  0  0  0  0  0  0  0
  -26.4980  -15.8840   19.7590 H   0  0  0  0  0  0  0  0  0  0  0  0
  -29.0740  -23.5670   19.6640 C   0  0  0  0  0  2  0  0  0  0  0  0
  -28.3480  -24.9740   20.2280 C   0  0  0  0  0  2  0  0  0  0  0  0
  -28.4340  -26.4220   19.7000 O   0  0  0  0  0  0  0  0  0  0  0  0
  -24.5100  -31.7040   23.0060 C   0  0  0  0  0  0  0  0  0  0  0  0
  -27.3140  -27.3130   19.7500 C   0  0  0  0  0  0  0  0  0  0  0  0
  -23.3790  -30.3440   21.2900 C   0  0  0  0  0  3  0  0  0  0  0  0
  -24.9010  -28.9140   19.7960 C   0  0  0  0  0  0  0  0  0  0  0  0
  -25.9140  -30.7470   21.1450 C   0  0  0  0  0  2  0  0  0  0  0  0
  -26.0550  -29.3970   20.4270 C   0  0  0  0  0  0  0  0  0  0  0  0
  -27.2660  -28.6150   20.3820 C   0  0  0  0  0  3  0  0  0  0  0  0
  -26.1310  -26.9150   19.0960 C   0  0  0  0  0  3  0  0  0  0  0  0
  -24.9480  -27.6850   19.1170 C   0  0  0  0  0  3  0  0  0  0  0  0
  -23.6320  -29.7480   19.8800 C   0  0  0  0  0  2  0  0  0  0  0  0
  -24.6200  -30.9510   21.8710 N   0  0  0  0  0  0  0  0  0  0  0  0
  -23.4120  -31.9100   23.5450 O   0  0  0  0  0  0  0  0  0  0  0  0
  -22.7470  -29.2570   22.1940 C   0  0  0  0  0  0  0  0  0  0  0  0
  -21.4220  -29.0600   22.0800 N   0  0  0  0  0  0  0  0  0  0  0  0
  -23.4500  -28.5950   22.9620 O   0  0  0  0  0  0  0  0  0  0  0  0
  -20.9100  -29.6470   21.4360 H   0  0  0  0  0  0  0  0  0  0  0  0
  -18.0710  -27.7940   22.6170 C   0  0  0  0  0  0  0  0  0  0  0  0
  -20.6380  -28.0530   22.8000 C   0  0  0  0  0  3  0  0  0  0  0  0
  -20.7220  -26.6770   22.1000 C   0  0  0  0  0  2  0  0  0  0  0  0
  -19.5800  -26.4320   21.1080 C   0  0  0  0  0  2  0  0  0  0  0  0
  -18.2260  -26.5100   21.8190 C   0  0  0  0  0  2  0  0  0  0  0  0
  -19.2030  -28.5250   23.0640 C   0  0  0  0  0  0  0  0  0  0  0  0
  -19.0020  -29.7290   23.7740 C   0  0  0  0  0  3  0  0  0  0  0  0
  -17.7030  -30.2010   24.0390 C   0  0  0  0  0  3  0  0  0  0  0  0
  -16.5860  -29.4650   23.6060 C   0  0  0  0  0  3  0  0  0  0  0  0
  -16.7720  -28.2620   22.9020 C   0  0  0  0  0  3  0  0  0  0  0  0
  -25.7580  -32.3630   23.6730 C   0  0  0  0  0  3  0  0  0  0  0  0
  -26.2640  -31.5810   24.9480 C   0  0  1  0  0  0  0  0  0  0  0  0
  -25.1530  -31.2910   25.9840 C   0  0  0  0  0  1  0  0  0  0  0  0
  -26.8960  -30.2280   24.5470 C   0  0  0  0  0  1  0  0  0  0  0  0
  -27.3760  -32.3950   25.6520 C   0  0  0  0  0  1  0  0  0  0  0  0
  -25.3990  -33.7440   24.0270 N   0  0  0  0  0  0  0  0  0  0  0  0
  -25.7390  -34.8280   23.3170 C   0  0  0  0  0  0  0  0  0  0  0  0
  -26.4540  -34.7710   22.3140 O   0  0  0  0  0  0  0  0  0  0  0  0
  -24.7650  -33.8610   24.8050 H   0  0  0  0  0  0  0  0  0  0  0  0
  -24.0050  -36.6100   22.9270 C   0  0  0  0  0  1  0  0  0  0  0  0
  -25.2020  -36.1920   23.7960 C   0  0  0  0  0  3  0  0  0  0  0  0
  -27.2660  -37.0820   24.7890 C   0  0  0  0  0  1  0  0  0  0  0  0
  -26.2220  -37.2640   23.7830 N   0  0  0  0  0  0  0  0  0  0  0  0
  -25.7920  -38.1730   23.9330 H   0  0  0  0  0  0  0  0  0  0  0  0
  1  2  1  0
  4  3  1  0
  5  8  1  6
  5  1  1  0
  5  3  1  0
  6 48  1  6
  6  5  1  0
  6  2  1  0
  6  4  1  0
  7  1  2  0
  8  9  1  0
 10 18  1  0
 11 16  1  0
 12 13  1  0
 12 11  1  0
 14 13  1  0
 14 23  1  0
 14 15  1  0
 16 10  1  0
 16 15  1  0
 17 10  2  0
 18 19  1  0
 18  9  1  0
 20 21  2  0
 21 40  1  0
 22 21  1  0
 22 25  1  0
 23 20  1  0
 23 24  1  0
 24 22  2  0
 25 26  1  0
 26 27  2  0
 28 31  1  0
 28 27  1  0
 29 28  2  0
 30 29  1  0
 30 25  2  0
 31 32  1  0
 32 37  2  0
 32 33  1  0
 33 34  2  0
 34 35  1  0
 35 39  1  0
 36 35  2  0
 37 36  1  0
 38 37  1  0
 40 41  1  0
 41 44  1  0
 41 43  1  0
 42 40  2  0
 45 46  1  0
 45 20  1  0
 47 45  1  0
 48 49  1  0
 50 52  1  0
 50 49  1  0
 51 62  2  0
 52 57  1  0
 53 61  1  0
 53 63  1  0
 54 60  1  0
 54 56  1  0
 55 61  1  0
 56 55  1  0
 57 56  2  0
 58 59  1  0
 58 52  2  0
 59 54  2  0
 60 53  1  0
 61 51  1  0
 63 65  2  0
 64 63  1  0
 66 64  1  0
 67 76  2  0
 67 72  1  0
 68 64  1  0
 68 72  1  0
 69 68  1  0
 70 71  1  0
 70 69  1  0
 71 67  1  0
 72 73  2  0
 73 74  1  0
 75 74  2  0
 76 75  1  0
 77 51  1  0
 77 82  1  0
 77 78  1  0
 78 81  1  1
 78 79  1  0
 80 78  1  0
 82 85  1  0
 83 87  1  0
 83 82  1  0
 84 83  2  0
 87 86  1  0
 89 87  1  0
 89 90  1  0
 89 88  1  0
M  ISO  4  10 100  18 100  49 101  50 101
M  END
>  <TORSDO>  (28) 
F 20

>  <SCORE>  (28) 
-12.511

>  <name>  (28) 
27

>  <ligand_id>  (28) 
27

>  <original_smiles>  (28) 
[H]c1c([H])c([H])c2c(c1[H])C([H])([H])C([H])([H])C([H])([H])C2([H])N([H])C(=O)C1([H])N(C(=O)C([H])(N([H])C(=O)C([H])(N([H])C([H])([H])[H])C([H])([H])[H])C(C([H])([H])[H])(C([H])([H])[H])C([H])([H])[H])C([H])([H])c2c([H])c(OC([H])([H])C([H])([H])C34C([H])([H])C(=O)C3(C([H])([H])C([H])([H])N([H])C(=O)N3C([H])([H])C([H])([H])C([H])([H])C([H])(n5nc(-c6c([H])c([H])c(Oc7c([H])c([H])c(F)c([H])c7F)c([H])c6[H])c(C(=O)N([H])[H])c5N([H])[H])C3([H])[H])C([H])([H])C4([H])[H])c([H])c([H])c2C1([H])[H]

>  <smiles>  (28) 
[H]c1c([H])c([H])c2c(c1[H])C([H])([H])C([H])([H])C([H])([H])C2([H])N([H])C(=O)C1([H])N(C(=O)C([H])(N([H])C(=O)C([H])(N([H])C([H])([H])[H])C([H])([H])[H])C(C([H])([H])[H])(C([H])([H])[H])C([H])([H])[H])C([H])([H])c2c([H])c(OC([H])([H])C([H])([H])C34C([H])([H])C(=O)C3(C([H])([H])C([H])([H])N([H])C(=O)N3C([H])([H])C([H])([H])C([H])([H])C([H])(n5nc(-c6c([H])c([H])c(Oc7c([H])c([H])c(F)c([H])c7F)c([H])c6[H])c(C(=O)N([H])[H])c5N([H])[H])C3([H])[H])C([H])([H])C4([H])[H])c([H])c([H])c2C1([H])[H]

$$$$
28:0:0
     RDKit          3D

 88 96  0  0  1  0  0  0  0  0999 V2000
  -28.1380  -21.0550   20.3230 C   0  0  0  0  0  2  0  0  0  0  0  0
  -30.4590  -21.5270   19.7750 C   0  0  0  0  0  2  0  0  0  0  0  0
  -28.5520  -19.5660   20.7780 C   0  0  0  0  0  2  0  0  0  0  0  0
  -30.8660  -20.0720   20.2520 C   0  0  0  0  0  2  0  0  0  0  0  0
  -29.2180  -22.2030   20.4590 C   0  0  0  0  0  3  0  0  0  0  0  0
  -29.8190  -18.9110   20.0950 C   0  0  0  0  0  3  0  0  0  0  0  0
  -28.9260  -23.7290   19.8820 C   0  0  0  0  0  2  0  0  0  0  0  0
  -28.1900  -24.9570   20.6760 C   0  0  0  0  0  2  0  0  0  0  0  0
  -28.3730  -26.4210   20.2980 O   0  0  0  0  0  0  0  0  0  0  0  0
  -24.6150  -31.9390   23.2490 C   0  0  0  0  0  0  0  0  0  0  0  0
  -27.2690  -27.3100   20.2710 C   0  0  0  0  0  0  0  0  0  0  0  0
  -23.4360  -30.5200   21.6110 C   0  0  0  0  0  3  0  0  0  0  0  0
  -24.9090  -28.9580   20.2090 C   0  0  0  0  0  0  0  0  0  0  0  0
  -25.9800  -30.8380   21.4500 C   0  0  0  0  0  2  0  0  0  0  0  0
  -26.0740  -29.4490   20.8140 C   0  0  0  0  0  0  0  0  0  0  0  0
  -27.2600  -28.6390   20.8240 C   0  0  0  0  0  3  0  0  0  0  0  0
  -26.0810  -26.8910   19.6370 C   0  0  0  0  0  3  0  0  0  0  0  0
  -24.9190  -27.6910   19.6070 C   0  0  0  0  0  3  0  0  0  0  0  0
  -23.6680  -29.8340   20.2390 C   0  0  0  0  0  2  0  0  0  0  0  0
  -24.6960  -31.1200   22.1580 N   0  0  0  0  0  0  0  0  0  0  0  0
  -23.5250  -32.2130   23.7720 O   0  0  0  0  0  0  0  0  0  0  0  0
  -22.7670  -29.5110   22.5750 C   0  0  0  0  0  0  0  0  0  0  0  0
  -21.4410  -29.3320   22.4440 N   0  0  0  0  0  0  0  0  0  0  0  0
  -23.4430  -28.8920   23.4010 O   0  0  0  0  0  0  0  0  0  0  0  0
  -20.9560  -29.8830   21.7510 H   0  0  0  0  0  0  0  0  0  0  0  0
  -18.0610  -28.1390   22.9510 C   0  0  0  0  0  0  0  0  0  0  0  0
  -20.6210  -28.3950   23.2160 C   0  0  0  0  0  3  0  0  0  0  0  0
  -20.7200  -26.9640   22.6400 C   0  0  0  0  0  2  0  0  0  0  0  0
  -19.6170  -26.6430   21.6270 C   0  0  0  0  0  2  0  0  0  0  0  0
  -18.2360  -26.7900   22.2720 C   0  0  0  0  0  2  0  0  0  0  0  0
  -19.1820  -28.8990   23.3800 C   0  0  0  0  0  0  0  0  0  0  0  0
  -18.9650  -30.1610   23.9750 C   0  0  0  0  0  3  0  0  0  0  0  0
  -17.6610  -30.6630   24.1440 C   0  0  0  0  0  3  0  0  0  0  0  0
  -16.5550  -29.8990   23.7320 C   0  0  0  0  0  3  0  0  0  0  0  0
  -16.7560  -28.6390   23.1410 C   0  0  0  0  0  3  0  0  0  0  0  0
  -25.8860  -32.5880   23.8790 C   0  0  0  0  0  3  0  0  0  0  0  0
  -26.3890  -31.8370   25.1740 C   0  0  1  0  0  0  0  0  0  0  0  0
  -25.2810  -31.6070   26.2290 C   0  0  0  0  0  1  0  0  0  0  0  0
  -26.9860  -30.4580   24.8100 C   0  0  0  0  0  1  0  0  0  0  0  0
  -27.5240  -32.6480   25.8420 C   0  0  0  0  0  1  0  0  0  0  0  0
  -25.5650  -33.9890   24.1920 N   0  0  0  0  0  0  0  0  0  0  0  0
  -25.9030  -35.0370   23.4290 C   0  0  0  0  0  0  0  0  0  0  0  0
  -26.5860  -34.9280   22.4080 O   0  0  0  0  0  0  0  0  0  0  0  0
  -24.9620  -34.1480   24.9850 H   0  0  0  0  0  0  0  0  0  0  0  0
  -24.1840  -36.8300   23.0280 C   0  0  0  0  0  1  0  0  0  0  0  0
  -25.4050  -36.4280   23.8720 C   0  0  0  0  0  3  0  0  0  0  0  0
  -27.5150  -37.3190   24.7550 C   0  0  0  0  0  1  0  0  0  0  0  0
  -26.4400  -37.4810   23.7810 N   0  0  0  0  0  0  0  0  0  0  0  0
  -26.0290  -38.4020   23.9110 H   0  0  0  0  0  0  0  0  0  0  0  0
  -30.4440  -17.4780   20.6350 C   0  0  0  0  0  2  0  0  0  0  0  0
  -30.6360  -14.8920   20.0770 C   0  0  0  0  0  0  0  0  0  0  0  0
  -30.3810  -12.6280   19.0200 C   0  0  0  0  0  2  0  0  0  0  0  0
  -29.3770  -12.6970   17.8470 C   0  0  0  0  0  2  0  0  0  0  0  0
  -27.9350  -12.5070   18.3550 C   0  0  0  0  0  2  0  0  0  0  0  0
  -27.6210  -13.3770   19.6010 C   0  0  0  0  0  3  0  0  0  0  0  0
  -28.7390  -13.2920   20.6620 C   0  0  0  0  0  2  0  0  0  0  0  0
  -29.9910  -13.6740   19.9970 N   0  0  0  0  0  0  0  0  0  0  0  0
  -31.8170  -14.9640   19.7260 O   0  0  0  0  0  0  0  0  0  0  0  0
  -29.9120  -16.0550   20.3670 N   0  0  0  0  0  0  0  0  0  0  0  0
  -28.9300  -15.9110   20.5530 H   0  0  0  0  0  0  0  0  0  0  0  0
  -25.2800  -13.9460   20.4730 C   0  0  0  0  0  0  0  0  0  0  0  0
  -24.2340  -13.1620   20.8780 C   0  0  0  0  0  0  0  0  0  0  0  0
  -24.6960  -11.8120   20.7930 C   0  0  0  0  0  0  0  0  0  0  0  0
  -26.3090  -13.0740   20.1600 N   0  0  0  0  0  0  0  0  0  0  0  0
  -25.9690  -11.7840   20.4190 N   0  0  0  0  0  0  0  0  0  0  0  0
  -23.9790  -10.5450   20.9910 C   0  0  0  0  0  0  0  0  0  0  0  0
  -24.4360   -9.5730   21.9070 C   0  0  0  0  0  3  0  0  0  0  0  0
  -23.7190   -8.3720   22.0950 C   0  0  0  0  0  3  0  0  0  0  0  0
  -22.5300   -8.1350   21.3640 C   0  0  0  0  0  0  0  0  0  0  0  0
  -22.0920   -9.0950   20.4370 C   0  0  0  0  0  3  0  0  0  0  0  0
  -22.8100  -10.2890   20.2480 C   0  0  0  0  0  3  0  0  0  0  0  0
  -21.7810   -6.9870   21.4620 O   0  0  0  0  0  0  0  0  0  0  0  0
  -21.7370   -6.2530   22.6200 C   0  0  0  0  0  0  0  0  0  0  0  0
  -21.2660   -6.8030   23.8330 C   0  0  0  0  0  3  0  0  0  0  0  0
  -21.1720   -5.9940   24.9830 C   0  0  0  0  0  3  0  0  0  0  0  0
  -21.5360   -4.6360   24.9210 C   0  0  0  0  0  0  0  0  0  0  0  0
  -21.9980   -4.0850   23.7130 C   0  0  0  0  0  3  0  0  0  0  0  0
  -22.0950   -4.8920   22.5650 C   0  0  0  0  0  0  0  0  0  0  0  0
  -22.5210   -4.3500   21.3990 F   0  0  0  0  0  0  0  0  0  0  0  0
  -21.4380   -3.8550   26.0230 F   0  0  0  0  0  0  0  0  0  0  0  0
  -22.8520  -13.6320   21.2290 C   0  0  0  0  0  0  0  0  0  0  0  0
  -22.1660  -12.9120   22.1090 N   0  0  0  0  0  0  0  0  0  0  0  0
  -22.3930  -14.6720   20.7590 O   0  0  0  0  0  0  0  0  0  0  0  0
  -22.5520  -12.0690   22.5090 H   0  0  0  0  0  0  0  0  0  0  0  0
  -21.2410  -13.2080   22.3880 H   0  0  0  0  0  0  0  0  0  0  0  0
  -25.4340  -15.3210   20.3170 N   0  0  0  0  0  0  0  0  0  0  0  0
  -24.6750  -15.9710   20.4850 H   0  0  0  0  0  0  0  0  0  0  0  0
  -26.2600  -15.7670   19.9380 H   0  0  0  0  0  0  0  0  0  0  0  0
  1  5  1  0
  1  3  1  0
  2  4  1  0
  2  5  1  0
  5  7  1  0
  6  4  1  0
  6 50  1  0
  6  3  1  0
  7  8  1  0
  9  8  1  0
 10 21  2  0
 11  9  1  0
 11 16  1  0
 12 20  1  0
 12 22  1  0
 13 19  1  0
 13 15  1  0
 14 20  1  0
 15 16  2  0
 15 14  1  0
 17 11  2  0
 18 17  1  0
 18 13  2  0
 19 12  1  0
 20 10  1  0
 22 24  2  0
 23 22  1  0
 25 23  1  0
 26 35  2  0
 26 31  1  0
 27 23  1  0
 27 31  1  0
 28 27  1  0
 29 30  1  0
 29 28  1  0
 30 26  1  0
 31 32  2  0
 32 33  1  0
 34 33  2  0
 35 34  1  0
 36 10  1  0
 36 41  1  0
 36 37  1  0
 37 40  1  1
 37 38  1  0
 39 37  1  0
 41 44  1  0
 42 46  1  0
 42 41  1  0
 43 42  2  0
 46 45  1  0
 48 46  1  0
 48 49  1  0
 48 47  1  0
 51 59  1  0
 52 57  1  0
 53 54  1  0
 53 52  1  0
 55 54  1  0
 55 64  1  0
 55 56  1  0
 57 51  1  0
 57 56  1  0
 58 51  2  0
 59 60  1  0
 59 50  1  0
 61 62  2  0
 62 81  1  0
 63 62  1  0
 63 66  1  0
 64 65  1  0
 64 61  1  0
 65 63  2  0
 66 67  1  0
 67 68  2  0
 69 72  1  0
 69 68  1  0
 70 69  2  0
 71 70  1  0
 71 66  2  0
 72 73  1  0
 73 74  1  0
 74 75  2  0
 76 75  1  0
 76 80  1  0
 77 76  2  0
 78 73  2  0
 78 77  1  0
 79 78  1  0
 81 82  1  0
 82 85  1  0
 82 84  1  0
 83 81  2  0
 86 61  1  0
 86 87  1  0
 88 86  1  0
M  ISO  4   8 101   9 101  51 100  59 100
M  END
>  <TORSDO>  (29) 
F 19

>  <SCORE>  (29) 
-13.940

>  <name>  (29) 
28

>  <ligand_id>  (29) 
28

>  <original_smiles>  (29) 
[H]c1c([H])c([H])c2c(c1[H])C([H])([H])C([H])([H])C([H])([H])C2([H])N([H])C(=O)C1([H])N(C(=O)C([H])(N([H])C(=O)C([H])(N([H])C([H])([H])[H])C([H])([H])[H])C(C([H])([H])[H])(C([H])([H])[H])C([H])([H])[H])C([H])([H])c2c([H])c(OC([H])([H])C([H])([H])C3([H])C([H])([H])C([H])([H])C([H])(C([H])([H])N([H])C(=O)N4C([H])([H])C([H])([H])C([H])([H])C([H])(n5nc(-c6c([H])c([H])c(Oc7c([H])c([H])c(F)c([H])c7F)c([H])c6[H])c(C(=O)N([H])[H])c5N([H])[H])C4([H])[H])C([H])([H])C3([H])[H])c([H])c([H])c2C1([H])[H]

>  <smiles>  (29) 
[H]c1c([H])c([H])c2c(c1[H])C([H])([H])C([H])([H])C([H])([H])C2([H])N([H])C(=O)C1([H])N(C(=O)C([H])(N([H])C(=O)C([H])(N([H])C([H])([H])[H])C([H])([H])[H])C(C([H])([H])[H])(C([H])([H])[H])C([H])([H])[H])C([H])([H])c2c([H])c(OC([H])([H])C([H])([H])C3([H])C([H])([H])C([H])([H])C([H])(C([H])([H])N([H])C(=O)N4C([H])([H])C([H])([H])C([H])([H])C([H])(n5nc(-c6c([H])c([H])c(Oc7c([H])c([H])c(F)c([H])c7F)c([H])c6[H])c(C(=O)N([H])[H])c5N([H])[H])C4([H])[H])C([H])([H])C3([H])[H])c([H])c([H])c2C1([H])[H]

$$$$
29:0:0
     RDKit          3D

 94103  0  0  1  0  0  0  0  0999 V2000
  -31.4460  -17.9850   23.3240 C   0  0  0  0  0  3  0  0  0  0  0  0
  -31.2210  -17.2850   22.1430 C   0  0  0  0  0  3  0  0  0  0  0  0
  -30.9290  -19.2600   23.4190 C   0  0  0  0  0  0  0  0  0  0  0  0
  -30.3540  -19.9060   22.3240 C   0  0  0  0  0  0  0  0  0  0  0  0
  -30.2440  -19.3280   21.0060 C   0  0  0  0  0  0  0  0  0  0  0  0
  -30.5410  -17.7990   20.9940 C   0  0  0  0  0  0  0  0  0  0  0  0
  -30.9220  -20.0620   24.6910 C   0  0  0  0  0  2  0  0  0  0  0  0
  -29.8840  -21.2660   22.8220 C   0  0  0  0  0  2  0  0  0  0  0  0
  -30.0000  -21.2350   24.3580 C   0  0  0  0  0  2  0  0  0  0  0  0
  -30.8280  -15.2850   19.9680 C   0  0  0  0  0  0  0  0  0  0  0  0
  -30.6100  -12.9360   18.9920 C   0  0  0  0  0  2  0  0  0  0  0  0
  -29.6180  -12.8480   17.8140 C   0  0  0  0  0  2  0  0  0  0  0  0
  -28.1810  -12.6500   18.3240 C   0  0  0  0  0  2  0  0  0  0  0  0
  -27.8370  -13.5880   19.5110 C   0  0  0  0  0  3  0  0  0  0  0  0
  -28.9490  -13.6420   20.5750 C   0  0  0  0  0  2  0  0  0  0  0  0
  -30.1700  -14.0560   19.8790 N   0  0  0  0  0  0  0  0  0  0  0  0
  -32.0290  -15.2670   19.6620 O   0  0  0  0  0  0  0  0  0  0  0  0
  -30.1570  -16.5550   20.1560 N   0  0  0  0  0  0  0  0  0  0  0  0
  -29.1680  -16.5050   19.9530 H   0  0  0  0  0  0  0  0  0  0  0  0
  -25.5290  -14.1910   20.4230 C   0  0  0  0  0  0  0  0  0  0  0  0
  -24.4690  -13.4290   20.8280 C   0  0  0  0  0  0  0  0  0  0  0  0
  -24.8920  -12.0690   20.7190 C   0  0  0  0  0  0  0  0  0  0  0  0
  -26.5290  -13.2960   20.0850 N   0  0  0  0  0  0  0  0  0  0  0  0
  -26.1630  -12.0110   20.3320 N   0  0  0  0  0  0  0  0  0  0  0  0
  -24.1410  -10.8200   20.9010 C   0  0  0  0  0  0  0  0  0  0  0  0
  -24.5620   -9.8330   21.8200 C   0  0  0  0  0  3  0  0  0  0  0  0
  -23.8130   -8.6490   21.9930 C   0  0  0  0  0  3  0  0  0  0  0  0
  -22.6270   -8.4440   21.2480 C   0  0  0  0  0  0  0  0  0  0  0  0
  -22.2240   -9.4190   20.3190 C   0  0  0  0  0  3  0  0  0  0  0  0
  -22.9720  -10.5950   20.1450 C   0  0  0  0  0  3  0  0  0  0  0  0
  -21.8460   -7.3180   21.3340 O   0  0  0  0  0  0  0  0  0  0  0  0
  -21.7530   -6.5920   22.4950 C   0  0  0  0  0  0  0  0  0  0  0  0
  -21.3010   -7.1710   23.7020 C   0  0  0  0  0  3  0  0  0  0  0  0
  -21.1550   -6.3720   24.8530 C   0  0  0  0  0  3  0  0  0  0  0  0
  -21.4490   -4.9960   24.7990 C   0  0  0  0  0  0  0  0  0  0  0  0
  -21.8950   -4.4180   23.5970 C   0  0  0  0  0  3  0  0  0  0  0  0
  -22.0420   -5.2140   22.4480 C   0  0  0  0  0  0  0  0  0  0  0  0
  -22.4510   -4.6470   21.2870 F   0  0  0  0  0  0  0  0  0  0  0  0
  -21.3020   -4.2270   25.9020 F   0  0  0  0  0  0  0  0  0  0  0  0
  -23.1030  -13.9310   21.1930 C   0  0  0  0  0  0  0  0  0  0  0  0
  -22.4070  -13.2260   22.0780 N   0  0  0  0  0  0  0  0  0  0  0  0
  -22.6640  -14.9820   20.7280 O   0  0  0  0  0  0  0  0  0  0  0  0
  -22.7750  -12.3750   22.4780 H   0  0  0  0  0  0  0  0  0  0  0  0
  -21.4910  -13.5420   22.3600 H   0  0  0  0  0  0  0  0  0  0  0  0
  -25.7180  -15.5630   20.2860 N   0  0  0  0  0  0  0  0  0  0  0  0
  -24.9690  -16.2250   20.4600 H   0  0  0  0  0  0  0  0  0  0  0  0
  -26.5380  -15.9940   19.8810 H   0  0  0  0  0  0  0  0  0  0  0  0
  -29.9590  -20.5020   19.8370 C   0  0  0  0  0  2  0  0  0  0  0  0
  -29.1300  -21.8760   20.0570 N   0  0  0  0  0  4  0  0  0  0  0  0
  -29.1080  -21.9720   21.0590 H   0  0  0  0  0  0  0  0  0  0  0  0
  -28.1850  -21.6410   19.7930 H   0  0  0  0  0  0  0  0  0  0  0  0
  -29.3910  -23.3700   19.5020 C   0  0  0  0  0  3  0  0  0  0  0  0
  -28.3330  -24.7060   19.7700 C   0  0  0  0  0  3  0  0  0  0  0  0
  -28.5030  -26.2650   19.5120 O   0  0  0  0  0  0  0  0  0  0  0  0
  -24.6340  -31.5930   22.9560 C   0  0  0  0  0  0  0  0  0  0  0  0
  -27.4020  -27.2170   19.5620 C   0  0  0  0  0  0  0  0  0  0  0  0
  -23.4860  -30.2530   21.2370 C   0  0  0  0  0  3  0  0  0  0  0  0
  -24.9910  -28.8660   19.6760 C   0  0  0  0  0  0  0  0  0  0  0  0
  -26.0240  -30.6560   21.0640 C   0  0  0  0  0  2  0  0  0  0  0  0
  -26.1580  -29.3200   20.3050 C   0  0  0  0  0  0  0  0  0  0  0  0
  -27.3650  -28.5170   20.2220 C   0  0  0  0  0  3  0  0  0  0  0  0
  -26.2050  -26.8830   18.8930 C   0  0  0  0  0  3  0  0  0  0  0  0
  -25.0320  -27.6680   18.9480 C   0  0  0  0  0  3  0  0  0  0  0  0
  -23.7180  -29.6930   19.8090 C   0  0  0  0  0  2  0  0  0  0  0  0
  -24.7340  -30.8540   21.8070 N   0  0  0  0  0  0  0  0  0  0  0  0
  -23.5410  -31.7840   23.5120 O   0  0  0  0  0  0  0  0  0  0  0  0
  -22.8770  -29.1440   22.1320 C   0  0  0  0  0  0  0  0  0  0  0  0
  -21.5520  -28.9390   22.0400 N   0  0  0  0  0  0  0  0  0  0  0  0
  -23.5980  -28.4730   22.8750 O   0  0  0  0  0  0  0  0  0  0  0  0
  -21.0240  -29.5360   21.4170 H   0  0  0  0  0  0  0  0  0  0  0  0
  -18.2260  -27.6070   22.5970 C   0  0  0  0  0  0  0  0  0  0  0  0
  -20.7890  -27.9080   22.7520 C   0  0  0  0  0  3  0  0  0  0  0  0
  -20.8880  -26.5450   22.0290 C   0  0  0  0  0  2  0  0  0  0  0  0
  -19.7400  -26.2970   21.0470 C   0  0  0  0  0  2  0  0  0  0  0  0
  -18.3940  -26.3390   21.7760 C   0  0  0  0  0  2  0  0  0  0  0  0
  -19.3510  -28.3530   23.0400 C   0  0  0  0  0  0  0  0  0  0  0  0
  -19.1390  -29.5400   23.7730 C   0  0  0  0  0  3  0  0  0  0  0  0
  -17.8370  -29.9880   24.0600 C   0  0  0  0  0  3  0  0  0  0  0  0
  -16.7260  -29.2390   23.6300 C   0  0  0  0  0  3  0  0  0  0  0  0
  -16.9230  -28.0480   22.9080 C   0  0  0  0  0  3  0  0  0  0  0  0
  -25.8850  -32.2520   23.6140 C   0  0  0  0  0  3  0  0  0  0  0  0
  -26.4360  -31.4400   24.8510 C   0  0  1  0  0  0  0  0  0  0  0  0
  -25.3560  -31.1050   25.9060 C   0  0  0  0  0  1  0  0  0  0  0  0
  -27.0770  -30.1100   24.3940 C   0  0  0  0  0  1  0  0  0  0  0  0
  -27.5550  -32.2480   25.5490 C   0  0  0  0  0  1  0  0  0  0  0  0
  -25.5090  -33.6150   24.0260 N   0  0  0  0  0  0  0  0  0  0  0  0
  -25.7920  -34.7300   23.3410 C   0  0  0  0  0  0  0  0  0  0  0  0
  -26.4630  -34.7220   22.3050 O   0  0  0  0  0  0  0  0  0  0  0  0
  -24.9090  -33.6880   24.8350 H   0  0  0  0  0  0  0  0  0  0  0  0
  -23.9740  -36.4590   23.1190 C   0  0  0  0  0  1  0  0  0  0  0  0
  -25.2450  -36.0650   23.8870 C   0  0  0  0  0  3  0  0  0  0  0  0
  -27.3460  -37.0000   24.7510 C   0  0  0  0  0  1  0  0  0  0  0  0
  -26.2270  -37.1710   23.8280 N   0  0  0  0  0  0  0  0  0  0  0  0
  -25.7820  -38.0620   24.0310 H   0  0  0  0  0  0  0  0  0  0  0  0
  1  3  1  0
  2  1  2  0
  3  7  1  0
  4  8  1  0
  4  3  2  0
  5  4  1  0
  6  5  2  0
  6  2  1  0
  8  9  1  0
  9  7  1  0
 10 18  1  0
 11 16  1  0
 12 13  1  0
 12 11  1  0
 14 13  1  0
 14 23  1  0
 14 15  1  0
 16 10  1  0
 16 15  1  0
 17 10  2  0
 18  6  1  0
 19 18  1  0
 20 21  2  0
 21 40  1  0
 22 21  1  0
 22 25  1  0
 23 24  1  0
 23 20  1  0
 24 22  2  0
 25 26  1  0
 26 27  2  0
 28 31  1  0
 28 27  1  0
 29 28  2  0
 30 29  1  0
 30 25  2  0
 31 32  1  0
 32 33  1  0
 33 34  2  0
 35 34  1  0
 35 39  1  0
 36 35  2  0
 37 32  2  0
 37 36  1  0
 38 37  1  0
 40 41  1  0
 41 44  1  0
 41 43  1  0
 42 40  2  0
 45 20  1  0
 45 46  1  0
 47 45  1  0
 48 49  1  0
 48  5  1  0
 49 50  1  0
 51 49  1  0
 52 53  2  0
 52 49  1  0
 54 56  1  0
 54 53  1  0
 55 66  2  0
 56 61  1  0
 57 65  1  0
 57 67  1  0
 58 64  1  0
 58 60  1  0
 59 65  1  0
 60 59  1  0
 61 60  2  0
 62 63  1  0
 62 56  2  0
 63 58  2  0
 64 57  1  0
 65 55  1  0
 67 69  2  0
 68 67  1  0
 70 68  1  0
 71 80  2  0
 71 76  1  0
 72 68  1  0
 72 76  1  0
 73 72  1  0
 74 75  1  0
 74 73  1  0
 75 71  1  0
 76 77  2  0
 77 78  1  0
 79 78  2  0
 80 79  1  0
 81 55  1  0
 81 86  1  0
 81 82  1  0
 82 85  1  1
 82 83  1  0
 84 82  1  0
 86 89  1  0
 87 91  1  0
 87 86  1  0
 88 87  2  0
 91 90  1  0
 93 91  1  0
 93 94  1  0
 93 92  1  0
M  ISO  4  10 100  18 100  53 101  54 101
M  END
>  <TORSDO>  (30) 
F 20

>  <SCORE>  (30) 
-11.920

>  <name>  (30) 
29

>  <ligand_id>  (30) 
29

>  <original_smiles>  (30) 
[H]c1c([H])c([H])c2c(c1[H])C([H])([H])C([H])([H])C([H])([H])C2([H])N([H])C(=O)C1([H])N(C(=O)C([H])(N([H])C(=O)C([H])(N([H])C([H])([H])[H])C([H])([H])[H])C(C([H])([H])[H])(C([H])([H])[H])C([H])([H])[H])C([H])([H])c2c([H])c(OC([H])([H])C([H])([H])[N+]([H])([H])C([H])([H])c3c(N([H])C(=O)N4C([H])([H])C([H])([H])C([H])([H])C([H])(n5nc(-c6c([H])c([H])c(Oc7c([H])c([H])c(F)c([H])c7F)c([H])c6[H])c(C(=O)N([H])[H])c5N([H])[H])C4([H])[H])c([H])c([H])c4c3C([H])([H])C([H])([H])C4([H])[H])c([H])c([H])c2C1([H])[H]

>  <smiles>  (30) 
[H]c1c([H])c([H])c2c(c1[H])C([H])([H])C([H])([H])C([H])([H])C2([H])N([H])C(=O)C1([H])N(C(=O)C([H])(N([H])C(=O)C([H])(N([H])C([H])([H])[H])C([H])([H])[H])C(C([H])([H])[H])(C([H])([H])[H])C([H])([H])[H])C([H])([H])c2c([H])c(OC([H])([H])C([H])([H])[N+]([H])([H])C([H])([H])c3c(N([H])C(=O)N4C([H])([H])C([H])([H])C([H])([H])C([H])(n5nc(-c6c([H])c([H])c(Oc7c([H])c([H])c(F)c([H])c7F)c([H])c6[H])c(C(=O)N([H])[H])c5N([H])[H])C4([H])[H])c([H])c([H])c4c3C([H])([H])C([H])([H])C4([H])[H])c([H])c([H])c2C1([H])[H]

$$$$
30:0:0
     RDKit          3D

 92100  0  0  1  0  0  0  0  0999 V2000
  -29.5450  -20.7350   20.1870 C   0  0  0  0  0  3  0  0  0  0  0  0
  -28.6230  -21.9670   20.5630 N   0  0  0  0  0  4  0  0  0  0  0  0
  -28.5400  -21.9730   21.5680 H   0  0  0  0  0  0  0  0  0  0  0  0
  -27.7030  -21.7470   20.2120 H   0  0  0  0  0  0  0  0  0  0  0  0
  -28.9470  -23.4600   20.1190 C   0  0  0  0  0  3  0  0  0  0  0  0
  -27.9150  -24.7580   20.4050 C   0  0  0  0  0  3  0  0  0  0  0  0
  -28.1850  -26.2790   20.1710 O   0  0  0  0  0  0  0  0  0  0  0  0
  -24.5660  -31.9330   23.2320 C   0  0  0  0  0  0  0  0  0  0  0  0
  -27.1180  -27.2480   20.1510 C   0  0  0  0  0  0  0  0  0  0  0  0
  -23.3480  -30.5370   21.6050 C   0  0  0  0  0  3  0  0  0  0  0  0
  -24.7830  -28.9780   20.1560 C   0  0  0  0  0  0  0  0  0  0  0  0
  -25.8990  -30.8180   21.4050 C   0  0  0  0  0  2  0  0  0  0  0  0
  -25.9690  -29.4290   20.7490 C   0  0  0  0  0  0  0  0  0  0  0  0
  -27.1390  -28.5800   20.7290 C   0  0  0  0  0  3  0  0  0  0  0  0
  -25.9080  -26.9040   19.5070 C   0  0  0  0  0  3  0  0  0  0  0  0
  -24.7650  -27.7300   19.5180 C   0  0  0  0  0  3  0  0  0  0  0  0
  -23.5520  -29.8680   20.2210 C   0  0  0  0  0  2  0  0  0  0  0  0
  -24.6250  -31.1180   22.1350 N   0  0  0  0  0  0  0  0  0  0  0  0
  -23.4860  -32.2100   23.7760 O   0  0  0  0  0  0  0  0  0  0  0  0
  -22.6900  -29.5220   22.5720 C   0  0  0  0  0  0  0  0  0  0  0  0
  -21.3650  -29.3310   22.4520 N   0  0  0  0  0  0  0  0  0  0  0  0
  -23.3750  -28.9080   23.3960 O   0  0  0  0  0  0  0  0  0  0  0  0
  -20.8690  -29.8770   21.7630 H   0  0  0  0  0  0  0  0  0  0  0  0
  -18.0040  -28.0790   22.9670 C   0  0  0  0  0  0  0  0  0  0  0  0
  -20.5600  -28.3850   23.2310 C   0  0  0  0  0  3  0  0  0  0  0  0
  -20.6840  -26.9500   22.6650 C   0  0  0  0  0  2  0  0  0  0  0  0
  -19.5870  -26.6020   21.6550 C   0  0  0  0  0  2  0  0  0  0  0  0
  -18.2030  -26.7280   22.2990 C   0  0  0  0  0  2  0  0  0  0  0  0
  -19.1110  -28.8640   23.3900 C   0  0  0  0  0  0  0  0  0  0  0  0
  -18.8700  -30.1240   23.9760 C   0  0  0  0  0  3  0  0  0  0  0  0
  -17.5560  -30.6020   24.1430 C   0  0  0  0  0  3  0  0  0  0  0  0
  -16.4650  -29.8150   23.7350 C   0  0  0  0  0  3  0  0  0  0  0  0
  -16.6900  -28.5550   23.1520 C   0  0  0  0  0  3  0  0  0  0  0  0
  -25.8510  -32.5720   23.8410 C   0  0  0  0  0  3  0  0  0  0  0  0
  -25.5420  -33.9740   24.1640 N   0  0  0  0  0  0  0  0  0  0  0  0
  -25.8860  -35.0260   23.4070 C   0  0  0  0  0  0  0  0  0  0  0  0
  -26.5650  -34.9170   22.3830 O   0  0  0  0  0  0  0  0  0  0  0  0
  -24.9410  -34.1330   24.9590 H   0  0  0  0  0  0  0  0  0  0  0  0
  -24.1870  -36.8420   23.0240 C   0  0  0  0  0  1  0  0  0  0  0  0
  -25.4050  -36.4190   23.8610 C   0  0  0  0  0  3  0  0  0  0  0  0
  -27.5280  -37.2810   24.7460 C   0  0  0  0  0  1  0  0  0  0  0  0
  -26.4520  -37.4600   23.7750 N   0  0  0  0  0  0  0  0  0  0  0  0
  -26.0520  -38.3860   23.9110 H   0  0  0  0  0  0  0  0  0  0  0  0
  -26.3700  -31.8150   25.1260 C   0  0  1  0  0  0  0  0  0  0  0  0
  -25.2810  -31.5930   26.2010 C   0  0  0  0  0  1  0  0  0  0  0  0
  -26.9480  -30.4310   24.7520 C   0  0  0  0  0  1  0  0  0  0  0  0
  -27.5250  -32.6140   25.7720 C   0  0  0  0  0  1  0  0  0  0  0  0
  -29.3990  -19.1530   20.8060 C   0  0  0  0  0  3  0  0  0  0  0  0
  -32.3100  -17.8060   17.9740 C   0  0  0  0  0  2  0  0  0  0  0  0
  -32.8470  -17.7800   19.4050 C   0  0  0  0  0  2  0  0  0  0  0  0
  -30.9950  -17.0300   17.9010 C   0  0  0  0  0  2  0  0  0  0  0  0
  -31.8220  -18.2710   20.4580 C   0  0  0  0  0  2  0  0  0  0  0  0
  -29.9470  -17.7060   18.7920 C   0  0  0  0  0  2  0  0  0  0  0  0
  -30.3290  -17.8230   20.2980 C   0  0  2  0  0  0  0  0  0  0  0  0
  -30.8560  -15.1280   20.8610 C   0  0  0  0  0  0  0  0  0  0  0  0
  -30.7610  -12.7730   19.9510 C   0  0  0  0  0  2  0  0  0  0  0  0
  -29.9390  -12.7360   18.6430 C   0  0  0  0  0  2  0  0  0  0  0  0
  -28.4430  -12.5460   18.9530 C   0  0  0  0  0  2  0  0  0  0  0  0
  -27.9480  -13.4810   20.0880 C   0  0  0  0  0  3  0  0  0  0  0  0
  -28.9070  -13.5050   21.2970 C   0  0  0  0  0  2  0  0  0  0  0  0
  -30.2300  -13.8860   20.7890 N   0  0  0  0  0  0  0  0  0  0  0  0
  -32.0800  -15.1190   20.7220 O   0  0  0  0  0  0  0  0  0  0  0  0
  -30.1090  -16.3440   20.8640 N   0  0  0  0  0  0  0  0  0  0  0  0
  -29.1410  -16.1660   21.0830 H   0  0  0  0  0  0  0  0  0  0  0  0
  -25.5110  -14.0630   20.6020 C   0  0  0  0  0  0  0  0  0  0  0  0
  -24.4210  -13.2920   20.9000 C   0  0  0  0  0  0  0  0  0  0  0  0
  -24.8930  -11.9430   20.9470 C   0  0  0  0  0  0  0  0  0  0  0  0
  -26.5740  -13.1870   20.4780 N   0  0  0  0  0  0  0  0  0  0  0  0
  -26.2060  -11.9080   20.7530 N   0  0  0  0  0  0  0  0  0  0  0  0
  -24.1550  -10.6830   21.1070 C   0  0  0  0  0  0  0  0  0  0  0  0
  -24.5100   -9.7380   22.0950 C   0  0  0  0  0  3  0  0  0  0  0  0
  -23.7720   -8.5440   22.2420 C   0  0  0  0  0  3  0  0  0  0  0  0
  -22.6660   -8.2840   21.3990 C   0  0  0  0  0  0  0  0  0  0  0  0
  -22.3310   -9.2170   20.4020 C   0  0  0  0  0  3  0  0  0  0  0  0
  -23.0690  -10.4030   20.2530 C   0  0  0  0  0  3  0  0  0  0  0  0
  -21.9080   -7.1400   21.4520 O   0  0  0  0  0  0  0  0  0  0  0  0
  -21.7670   -6.4230   22.6130 C   0  0  0  0  0  0  0  0  0  0  0  0
  -21.2330   -6.9990   23.7850 C   0  0  0  0  0  3  0  0  0  0  0  0
  -21.0410   -6.2070   24.9350 C   0  0  0  0  0  3  0  0  0  0  0  0
  -21.3740   -4.8400   24.9130 C   0  0  0  0  0  0  0  0  0  0  0  0
  -21.9000   -4.2630   23.7440 C   0  0  0  0  0  3  0  0  0  0  0  0
  -22.0930   -5.0520   22.5970 C   0  0  0  0  0  0  0  0  0  0  0  0
  -22.5820   -4.4850   21.4670 F   0  0  0  0  0  0  0  0  0  0  0  0
  -21.1820   -4.0770   26.0150 F   0  0  0  0  0  0  0  0  0  0  0  0
  -23.0040  -13.7680   21.0300 C   0  0  0  0  0  0  0  0  0  0  0  0
  -22.2080  -13.1030   21.8600 N   0  0  0  0  0  0  0  0  0  0  0  0
  -22.6090  -14.7670   20.4320 O   0  0  0  0  0  0  0  0  0  0  0  0
  -22.5400  -12.2960   22.3680 H   0  0  0  0  0  0  0  0  0  0  0  0
  -21.2540  -13.4060   21.9920 H   0  0  0  0  0  0  0  0  0  0  0  0
  -25.6830  -15.4300   20.4010 N   0  0  0  0  0  0  0  0  0  0  0  0
  -24.9020  -16.0770   20.4190 H   0  0  0  0  0  0  0  0  0  0  0  0
  -26.5470  -15.8620   20.1020 H   0  0  0  0  0  0  0  0  0  0  0  0
  1  2  1  0
  1 48  2  0
  2  3  1  0
  4  2  1  0
  5  6  2  0
  5  2  1  0
  7  6  1  0
  8 19  2  0
  9  7  1  0
  9 14  1  0
 10 18  1  0
 10 20  1  0
 11 17  1  0
 11 13  1  0
 12 18  1  0
 13 12  1  0
 14 13  2  0
 15 16  1  0
 15  9  2  0
 16 11  2  0
 17 10  1  0
 18  8  1  0
 20 22  2  0
 21 20  1  0
 23 21  1  0
 24 33  2  0
 24 29  1  0
 25 21  1  0
 25 29  1  0
 26 25  1  0
 27 28  1  0
 27 26  1  0
 28 24  1  0
 29 30  2  0
 30 31  1  0
 32 31  2  0
 33 32  1  0
 34  8  1  0
 34 35  1  0
 34 44  1  0
 35 38  1  0
 36 40  1  0
 36 35  1  0
 37 36  2  0
 40 39  1  0
 42 40  1  0
 42 43  1  0
 42 41  1  0
 44 47  1  1
 44 45  1  0
 46 44  1  0
 49 50  1  0
 50 52  1  0
 51 49  1  0
 51 53  1  0
 53 54  1  0
 54 52  1  0
 54 48  1  0
 54 63  1  1
 55 63  1  0
 56 61  1  0
 57 58  1  0
 57 56  1  0
 59 58  1  0
 59 68  1  0
 59 60  1  0
 61 55  1  0
 61 60  1  0
 62 55  2  0
 63 64  1  0
 65 66  2  0
 66 67  1  0
 66 85  1  0
 67 70  1  0
 68 65  1  0
 68 69  1  0
 69 67  2  0
 70 71  1  0
 71 72  2  0
 73 76  1  0
 73 72  1  0
 74 73  2  0
 75 74  1  0
 75 70  2  0
 76 77  1  0
 77 78  1  0
 78 79  2  0
 80 79  1  0
 80 84  1  0
 81 80  2  0
 82 77  2  0
 82 81  1  0
 83 82  1  0
 85 86  1  0
 86 89  1  0
 86 88  1  0
 87 85  2  0
 90 91  1  0
 90 65  1  0
 92 90  1  0
M  ISO  4   6 101   7 101  55 100  63 100
M  END
>  <TORSDO>  (31) 
F 21

>  <SCORE>  (31) 
-13.994

>  <name>  (31) 
30

>  <ligand_id>  (31) 
30

>  <original_smiles>  (31) 
[H]c1c([H])c([H])c2c(c1[H])C([H])([H])C([H])([H])C([H])([H])C2([H])N([H])C(=O)C1([H])N(C(=O)C([H])(N([H])C(=O)C([H])(N([H])C([H])([H])[H])C([H])([H])[H])C(C([H])([H])[H])(C([H])([H])[H])C([H])([H])[H])C([H])([H])c2c([H])c(OC([H])([H])C([H])([H])[N+]([H])([H])C([H])([H])C([H])([H])C3(N([H])C(=O)N4C([H])([H])C([H])([H])C([H])([H])C([H])(n5nc(-c6c([H])c([H])c(Oc7c([H])c([H])c(F)c([H])c7F)c([H])c6[H])c(C(=O)N([H])[H])c5N([H])[H])C4([H])[H])C([H])([H])C([H])([H])C([H])([H])C([H])([H])C3([H])[H])c([H])c([H])c2C1([H])[H]

>  <smiles>  (31) 
[H]c1c([H])c([H])c2c(c1[H])C([H])([H])C([H])([H])C([H])([H])C2([H])N([H])C(=O)C1([H])N(C(=O)C([H])(N([H])C(=O)C([H])(N([H])C([H])([H])[H])C([H])([H])[H])C(C([H])([H])[H])(C([H])([H])[H])C([H])([H])[H])C([H])([H])c2c([H])c(OC([H])([H])C([H])([H])[N+]([H])([H])C([H])([H])C([H])([H])C3(N([H])C(=O)N4C([H])([H])C([H])([H])C([H])([H])C([H])(n5nc(-c6c([H])c([H])c(Oc7c([H])c([H])c(F)c([H])c7F)c([H])c6[H])c(C(=O)N([H])[H])c5N([H])[H])C4([H])[H])C([H])([H])C([H])([H])C([H])([H])C([H])([H])C3([H])[H])c([H])c([H])c2C1([H])[H]

$$$$
31:0:0
     RDKit          3D

 89 98  0  0  1  0  0  0  0  0999 V2000
  -30.6230  -14.8410   20.3900 C   0  0  0  0  0  0  0  0  0  0  0  0
  -30.3950  -12.5350   19.4260 C   0  0  0  0  0  2  0  0  0  0  0  0
  -29.4790  -12.5700   18.1850 C   0  0  0  0  0  2  0  0  0  0  0  0
  -28.0080  -12.3940   18.6050 C   0  0  0  0  0  2  0  0  0  0  0  0
  -27.6150  -13.3150   19.7920 C   0  0  0  0  0  3  0  0  0  0  0  0
  -28.6610  -13.2910   20.9280 C   0  0  0  0  0  2  0  0  0  0  0  0
  -29.9520  -13.6320   20.3250 N   0  0  0  0  0  0  0  0  0  0  0  0
  -31.8340  -14.8380   20.1410 O   0  0  0  0  0  0  0  0  0  0  0  0
  -30.6390  -21.6700   20.0730 C   0  0  0  0  0  2  0  0  0  0  0  0
  -30.8360  -20.1430   20.3570 C   0  0  0  0  0  2  0  0  0  0  0  0
  -29.3080  -18.3670   19.1240 C   0  0  0  0  0  2  0  0  0  0  0  0
  -29.2570  -18.4180   21.5180 C   0  0  0  0  0  2  0  0  0  0  0  0
  -28.5010  -20.7080   20.1870 C   0  0  0  0  0  2  0  0  0  0  0  0
  -30.0550  -16.9530   19.1840 C   0  0  0  0  0  2  0  0  0  0  0  0
  -30.0660  -17.0300   21.5440 C   0  0  0  0  0  2  0  0  0  0  0  0
  -29.2200  -22.1170   20.5020 C   0  0  0  0  0  3  0  0  0  0  0  0
  -29.4700  -19.4040   20.3020 C   0  0  1  0  0  0  0  0  0  0  0  0
  -29.9230  -16.0730   20.3970 N   0  0  0  0  0  0  0  0  0  0  0  0
  -25.2320  -13.9210   20.4910 C   0  0  0  0  0  0  0  0  0  0  0  0
  -24.1550  -13.1560   20.8520 C   0  0  0  0  0  0  0  0  0  0  0  0
  -24.6100  -11.8030   20.8440 C   0  0  0  0  0  0  0  0  0  0  0  0
  -26.2710  -13.0320   20.2780 N   0  0  0  0  0  0  0  0  0  0  0  0
  -25.9070  -11.7530   20.5580 N   0  0  0  0  0  0  0  0  0  0  0  0
  -23.8730  -10.5470   21.0370 C   0  0  0  0  0  0  0  0  0  0  0  0
  -24.2970   -9.5750   21.9700 C   0  0  0  0  0  3  0  0  0  0  0  0
  -23.5590   -8.3860   22.1500 C   0  0  0  0  0  3  0  0  0  0  0  0
  -22.3820   -8.1590   21.3980 C   0  0  0  0  0  0  0  0  0  0  0  0
  -21.9770   -9.1180   20.4540 C   0  0  0  0  0  3  0  0  0  0  0  0
  -22.7160  -10.2990   20.2730 C   0  0  0  0  0  3  0  0  0  0  0  0
  -21.6180   -7.0210   21.4890 O   0  0  0  0  0  0  0  0  0  0  0  0
  -21.5750   -6.2720   22.6370 C   0  0  0  0  0  0  0  0  0  0  0  0
  -21.1910   -6.8280   23.8770 C   0  0  0  0  0  3  0  0  0  0  0  0
  -21.0940   -6.0080   25.0180 C   0  0  0  0  0  3  0  0  0  0  0  0
  -21.3680   -4.6310   24.9220 C   0  0  0  0  0  0  0  0  0  0  0  0
  -21.7410   -4.0730   23.6870 C   0  0  0  0  0  3  0  0  0  0  0  0
  -21.8420   -4.8900   22.5480 C   0  0  0  0  0  0  0  0  0  0  0  0
  -22.1820   -4.3430   21.3560 F   0  0  0  0  0  0  0  0  0  0  0  0
  -21.2660   -3.8400   26.0150 F   0  0  0  0  0  0  0  0  0  0  0  0
  -22.7580  -13.6460   21.0950 C   0  0  0  0  0  0  0  0  0  0  0  0
  -22.0130  -12.9680   21.9610 N   0  0  0  0  0  0  0  0  0  0  0  0
  -22.3350  -14.6660   20.5500 O   0  0  0  0  0  0  0  0  0  0  0  0
  -22.3680  -12.1420   22.4200 H   0  0  0  0  0  0  0  0  0  0  0  0
  -21.0740  -13.2780   22.1690 H   0  0  0  0  0  0  0  0  0  0  0  0
  -25.4130  -15.2870   20.3000 N   0  0  0  0  0  0  0  0  0  0  0  0
  -24.6570  -15.9560   20.3970 H   0  0  0  0  0  0  0  0  0  0  0  0
  -26.2890  -15.7110   20.0180 H   0  0  0  0  0  0  0  0  0  0  0  0
  -28.7650  -23.5780   19.8450 C   0  0  0  0  0  2  0  0  0  0  0  0
  -28.3240  -24.9180   20.6950 C   0  0  0  0  0  2  0  0  0  0  0  0
  -28.4460  -26.3570   20.2070 O   0  0  0  0  0  0  0  0  0  0  0  0
  -24.6740  -31.8660   23.2120 C   0  0  0  0  0  0  0  0  0  0  0  0
  -27.3370  -27.2450   20.2080 C   0  0  0  0  0  0  0  0  0  0  0  0
  -23.5000  -30.4540   21.5640 C   0  0  0  0  0  3  0  0  0  0  0  0
  -24.9740  -28.8950   20.1610 C   0  0  0  0  0  0  0  0  0  0  0  0
  -26.0460  -30.7690   21.4110 C   0  0  0  0  0  2  0  0  0  0  0  0
  -26.1400  -29.3830   20.7660 C   0  0  0  0  0  0  0  0  0  0  0  0
  -27.3270  -28.5730   20.7660 C   0  0  0  0  0  3  0  0  0  0  0  0
  -26.1450  -26.8250   19.5840 C   0  0  0  0  0  3  0  0  0  0  0  0
  -24.9850  -27.6270   19.5550 C   0  0  0  0  0  3  0  0  0  0  0  0
  -23.7340  -29.7720   20.1900 C   0  0  0  0  0  2  0  0  0  0  0  0
  -24.7590  -31.0490   22.1180 N   0  0  0  0  0  0  0  0  0  0  0  0
  -23.5820  -32.1380   23.7330 O   0  0  0  0  0  0  0  0  0  0  0  0
  -22.8280  -29.4390   22.5240 C   0  0  0  0  0  0  0  0  0  0  0  0
  -21.5000  -29.2750   22.4040 N   0  0  0  0  0  0  0  0  0  0  0  0
  -23.5050  -28.8030   23.3340 O   0  0  0  0  0  0  0  0  0  0  0  0
  -21.0130  -29.8390   21.7220 H   0  0  0  0  0  0  0  0  0  0  0  0
  -18.1140  -28.1000   22.9220 C   0  0  0  0  0  0  0  0  0  0  0  0
  -20.6770  -28.3360   23.1710 C   0  0  0  0  0  3  0  0  0  0  0  0
  -20.7620  -26.9090   22.5800 C   0  0  0  0  0  2  0  0  0  0  0  0
  -19.6490  -26.6060   21.5720 C   0  0  0  0  0  2  0  0  0  0  0  0
  -18.2740  -26.7550   22.2290 C   0  0  0  0  0  2  0  0  0  0  0  0
  -19.2430  -28.8490   23.3500 C   0  0  0  0  0  0  0  0  0  0  0  0
  -19.0400  -30.1050   23.9610 C   0  0  0  0  0  3  0  0  0  0  0  0
  -17.7410  -30.6160   24.1420 C   0  0  0  0  0  3  0  0  0  0  0  0
  -16.6270  -29.8640   23.7310 C   0  0  0  0  0  3  0  0  0  0  0  0
  -16.8150  -28.6070   23.1280 C   0  0  0  0  0  3  0  0  0  0  0  0
  -25.9420  -32.5140   23.8470 C   0  0  0  0  0  3  0  0  0  0  0  0
  -25.6070  -33.9020   24.1940 N   0  0  0  0  0  0  0  0  0  0  0  0
  -25.9190  -34.9740   23.4510 C   0  0  0  0  0  0  0  0  0  0  0  0
  -26.5870  -34.8950   22.4160 O   0  0  0  0  0  0  0  0  0  0  0  0
  -25.0080  -34.0350   24.9960 H   0  0  0  0  0  0  0  0  0  0  0  0
  -24.1530  -36.7390   23.1390 C   0  0  0  0  0  1  0  0  0  0  0  0
  -25.4110  -36.3470   23.9300 C   0  0  0  0  0  3  0  0  0  0  0  0
  -27.5430  -37.2590   24.7390 C   0  0  0  0  0  1  0  0  0  0  0  0
  -26.4220  -37.4220   23.8180 N   0  0  0  0  0  0  0  0  0  0  0  0
  -26.0010  -38.3310   23.9940 H   0  0  0  0  0  0  0  0  0  0  0  0
  -26.4630  -31.7380   25.1200 C   0  0  1  0  0  0  0  0  0  0  0  0
  -25.3690  -31.4790   26.1820 C   0  0  0  0  0  1  0  0  0  0  0  0
  -27.0620  -30.3700   24.7200 C   0  0  0  0  0  1  0  0  0  0  0  0
  -27.6020  -32.5410   25.7920 C   0  0  0  0  0  1  0  0  0  0  0  0
  1 18  1  0
  2  7  1  0
  3  4  1  0
  3  2  1  0
  5  4  1  0
  5 22  1  0
  5  6  1  0
  7  1  1  0
  7  6  1  0
  8  1  2  0
  9 10  1  0
  9 16  1  0
 11 14  1  0
 12 15  1  0
 17 13  1  6
 13 16  1  0
 14 18  1  0
 16 47  1  0
 17 11  1  0
 17 10  1  0
 17 12  1  0
 18 15  1  0
 19 20  2  0
 20 39  1  0
 21 20  1  0
 21 24  1  0
 22 19  1  0
 22 23  1  0
 23 21  2  0
 24 25  1  0
 25 26  2  0
 27 30  1  0
 27 26  1  0
 28 27  2  0
 29 28  1  0
 29 24  2  0
 30 31  1  0
 31 32  1  0
 32 33  2  0
 34 33  1  0
 34 38  1  0
 35 34  2  0
 36 31  2  0
 36 35  1  0
 37 36  1  0
 39 40  1  0
 40 43  1  0
 40 42  1  0
 41 39  2  0
 44 45  1  0
 44 19  1  0
 46 44  1  0
 47 48  1  0
 49 51  1  0
 49 48  1  0
 50 61  2  0
 51 56  1  0
 52 60  1  0
 52 62  1  0
 53 59  1  0
 53 55  1  0
 54 60  1  0
 55 54  1  0
 56 55  2  0
 57 51  2  0
 58 57  1  0
 58 53  2  0
 59 52  1  0
 60 50  1  0
 62 64  2  0
 63 62  1  0
 65 63  1  0
 66 75  2  0
 66 71  1  0
 67 63  1  0
 67 71  1  0
 68 67  1  0
 69 70  1  0
 69 68  1  0
 70 66  1  0
 71 72  2  0
 72 73  1  0
 74 73  2  0
 75 74  1  0
 76 50  1  0
 76 77  1  0
 76 86  1  0
 77 80  1  0
 78 82  1  0
 78 77  1  0
 79 78  2  0
 82 81  1  0
 84 82  1  0
 84 85  1  0
 84 83  1  0
 86 89  1  1
 86 87  1  0
 88 86  1  0
M  ISO  4   1 100  18 100  48 101  49 101
M  END
>  <TORSDO>  (32) 
F 17

>  <SCORE>  (32) 
-14.543

>  <name>  (32) 
31

>  <ligand_id>  (32) 
31

>  <original_smiles>  (32) 
[H]c1c([H])c([H])c2c(c1[H])C([H])([H])C([H])([H])C([H])([H])C2([H])N([H])C(=O)C1([H])N(C(=O)C([H])(N([H])C(=O)C([H])(N([H])C([H])([H])[H])C([H])([H])[H])C(C([H])([H])[H])(C([H])([H])[H])C([H])([H])[H])C([H])([H])c2c([H])c(OC([H])([H])C([H])([H])C3([H])C([H])([H])C([H])([H])C4(C([H])([H])C([H])([H])N(C(=O)N5C([H])([H])C([H])([H])C([H])([H])C([H])(n6nc(-c7c([H])c([H])c(Oc8c([H])c([H])c(F)c([H])c8F)c([H])c7[H])c(C(=O)N([H])[H])c6N([H])[H])C5([H])[H])C([H])([H])C4([H])[H])C3([H])[H])c([H])c([H])c2C1([H])[H]

>  <smiles>  (32) 
[H]c1c([H])c([H])c2c(c1[H])C([H])([H])C([H])([H])C([H])([H])C2([H])N([H])C(=O)C1([H])N(C(=O)C([H])(N([H])C(=O)C([H])(N([H])C([H])([H])[H])C([H])([H])[H])C(C([H])([H])[H])(C([H])([H])[H])C([H])([H])[H])C([H])([H])c2c([H])c(OC([H])([H])C([H])([H])C3([H])C([H])([H])C([H])([H])C4(C([H])([H])C([H])([H])N(C(=O)N5C([H])([H])C([H])([H])C([H])([H])C([H])(n6nc(-c7c([H])c([H])c(Oc8c([H])c([H])c(F)c([H])c8F)c([H])c7[H])c(C(=O)N([H])[H])c6N([H])[H])C5([H])[H])C([H])([H])C4([H])[H])C3([H])[H])c([H])c([H])c2C1([H])[H]

$$$$
32:0:0
     RDKit          3D

100110  0  0  1  0  0  0  0  0999 V2000
  -29.8060  -19.8700   22.3310 C   0  0  0  0  0  3  0  0  0  0  0  0
  -30.1730  -18.6350   21.7290 C   0  0  0  0  0  3  0  0  0  0  0  0
  -29.7030  -19.5580   19.5240 C   0  0  0  0  0  3  0  0  0  0  0  0
  -29.4020  -20.8000   20.1300 C   0  0  0  0  0  0  0  0  0  0  0  0
  -29.4470  -20.9580   21.5060 C   0  0  0  0  0  0  0  0  0  0  0  0
  -30.1570  -18.4590   20.3180 C   0  0  0  0  0  0  0  0  0  0  0  0
  -29.0700  -22.1010   19.5030 C   0  0  0  0  0  0  0  0  0  0  0  0
  -29.1270  -22.3910   21.9140 C   0  0  0  0  0  2  0  0  0  0  0  0
  -30.1610  -25.1000   19.3610 C   0  0  0  0  0  2  0  0  0  0  0  0
  -30.4550  -24.0360   20.4250 C   0  0  0  0  0  2  0  0  0  0  0  0
  -28.0920  -24.3540   20.4400 C   0  0  0  0  0  2  0  0  0  0  0  0
  -28.6780  -25.4610   19.5080 C   0  0  0  0  0  3  0  0  0  0  0  0
  -29.1550  -23.2190   20.5820 C   0  0  1  0  0  0  0  0  0  0  0  0
  -28.8170  -22.3030   18.3120 O   0  0  0  0  0  0  0  0  0  0  0  0
  -28.6090  -26.8130   20.0190 O   0  0  0  0  0  0  0  0  0  0  0  0
  -24.6740  -31.8560   23.1680 C   0  0  0  0  0  0  0  0  0  0  0  0
  -27.4210  -27.5220   19.9920 C   0  0  0  0  0  0  0  0  0  0  0  0
  -23.5120  -30.4750   21.4810 C   0  0  0  0  0  3  0  0  0  0  0  0
  -25.0040  -29.0090   20.0240 C   0  0  0  0  0  0  0  0  0  0  0  0
  -26.0330  -30.8860   21.3120 C   0  0  0  0  0  2  0  0  0  0  0  0
  -26.1500  -29.5310   20.6340 C   0  0  0  0  0  0  0  0  0  0  0  0
  -27.3610  -28.7970   20.6110 C   0  0  0  0  0  3  0  0  0  0  0  0
  -26.2490  -27.0210   19.3800 C   0  0  0  0  0  3  0  0  0  0  0  0
  -25.0510  -27.7560   19.3910 C   0  0  0  0  0  3  0  0  0  0  0  0
  -23.7430  -29.8410   20.0860 C   0  0  0  0  0  2  0  0  0  0  0  0
  -24.7580  -31.0860   22.0480 N   0  0  0  0  0  0  0  0  0  0  0  0
  -23.5810  -32.0900   23.7060 O   0  0  0  0  0  0  0  0  0  0  0  0
  -22.8780  -29.4110   22.4070 C   0  0  0  0  0  0  0  0  0  0  0  0
  -21.5510  -29.2320   22.2920 N   0  0  0  0  0  0  0  0  0  0  0  0
  -23.5750  -28.7520   23.1830 O   0  0  0  0  0  0  0  0  0  0  0  0
  -21.0480  -29.8220   21.6430 H   0  0  0  0  0  0  0  0  0  0  0  0
  -18.1830  -28.0470   22.8370 C   0  0  0  0  0  0  0  0  0  0  0  0
  -20.7500  -28.2620   23.0370 C   0  0  0  0  0  3  0  0  0  0  0  0
  -20.8150  -26.8640   22.3790 C   0  0  0  0  0  2  0  0  0  0  0  0
  -19.6770  -26.6090   21.3860 C   0  0  0  0  0  2  0  0  0  0  0  0
  -18.3170  -26.7360   22.0810 C   0  0  0  0  0  2  0  0  0  0  0  0
  -19.3230  -28.7700   23.2720 C   0  0  0  0  0  0  0  0  0  0  0  0
  -19.1390  -30.0010   23.9390 C   0  0  0  0  0  3  0  0  0  0  0  0
  -17.8470  -30.5060   24.1750 C   0  0  0  0  0  3  0  0  0  0  0  0
  -16.7200  -29.7790   23.7530 C   0  0  0  0  0  3  0  0  0  0  0  0
  -16.8890  -28.5490   23.0920 C   0  0  0  0  0  3  0  0  0  0  0  0
  -25.9390  -32.5010   23.8150 C   0  0  0  0  0  3  0  0  0  0  0  0
  -26.4540  -31.7210   25.0880 C   0  0  1  0  0  0  0  0  0  0  0  0
  -25.3480  -31.4400   26.1310 C   0  0  0  0  0  1  0  0  0  0  0  0
  -27.0760  -30.3650   24.6820 C   0  0  0  0  0  1  0  0  0  0  0  0
  -27.5730  -32.5340   25.7810 C   0  0  0  0  0  1  0  0  0  0  0  0
  -25.6020  -33.8890   24.1570 N   0  0  0  0  0  0  0  0  0  0  0  0
  -25.9160  -34.9540   23.4090 C   0  0  0  0  0  0  0  0  0  0  0  0
  -26.5900  -34.8730   22.3780 O   0  0  0  0  0  0  0  0  0  0  0  0
  -25.0020  -34.0250   24.9570 H   0  0  0  0  0  0  0  0  0  0  0  0
  -24.1520  -36.7150   23.0740 C   0  0  0  0  0  1  0  0  0  0  0  0
  -25.4030  -36.3300   23.8780 C   0  0  0  0  0  3  0  0  0  0  0  0
  -27.5110  -37.2620   24.7250 C   0  0  0  0  0  1  0  0  0  0  0  0
  -26.4160  -37.4030   23.7680 N   0  0  0  0  0  0  0  0  0  0  0  0
  -25.9920  -38.3150   23.9070 H   0  0  0  0  0  0  0  0  0  0  0  0
  -30.7670  -17.1730   19.6790 C   0  0  0  0  0  3  0  0  0  0  0  0
  -31.1570  -14.7350   20.1000 C   0  0  0  0  0  0  0  0  0  0  0  0
  -30.7860  -12.5790   18.9700 C   0  0  0  0  0  2  0  0  0  0  0  0
  -29.8170  -12.8100   17.7920 C   0  0  0  0  0  2  0  0  0  0  0  0
  -28.3540  -12.6990   18.2640 C   0  0  0  0  0  2  0  0  0  0  0  0
  -28.0690  -13.5130   19.5560 C   0  0  0  0  0  3  0  0  0  0  0  0
  -29.1570  -13.2830   20.6300 C   0  0  0  0  0  2  0  0  0  0  0  0
  -30.4620  -13.5680   20.0160 N   0  0  0  0  0  0  0  0  0  0  0  0
  -32.3200  -14.8310   19.7020 O   0  0  0  0  0  0  0  0  0  0  0  0
  -30.4210  -15.8610   20.3000 N   0  0  0  0  0  0  0  0  0  0  0  0
  -29.4730  -15.7400   20.6200 H   0  0  0  0  0  0  0  0  0  0  0  0
  -25.7060  -14.1400   20.3470 C   0  0  0  0  0  0  0  0  0  0  0  0
  -24.6400  -13.3760   20.7380 C   0  0  0  0  0  0  0  0  0  0  0  0
  -25.0810  -12.0180   20.6780 C   0  0  0  0  0  0  0  0  0  0  0  0
  -26.7300  -13.2460   20.0730 N   0  0  0  0  0  0  0  0  0  0  0  0
  -26.3610  -11.9660   20.3340 N   0  0  0  0  0  0  0  0  0  0  0  0
  -24.3430  -10.7620   20.8710 C   0  0  0  0  0  0  0  0  0  0  0  0
  -24.7350   -9.8170   21.8450 C   0  0  0  0  0  3  0  0  0  0  0  0
  -23.9990   -8.6270   22.0250 C   0  0  0  0  0  3  0  0  0  0  0  0
  -22.8600   -8.3690   21.2270 C   0  0  0  0  0  0  0  0  0  0  0  0
  -22.4880   -9.3030   20.2430 C   0  0  0  0  0  3  0  0  0  0  0  0
  -23.2220  -10.4850   20.0620 C   0  0  0  0  0  3  0  0  0  0  0  0
  -22.0990   -7.2270   21.3120 O   0  0  0  0  0  0  0  0  0  0  0  0
  -21.9110   -6.5760   22.5040 C   0  0  0  0  0  0  0  0  0  0  0  0
  -21.2880   -7.2020   23.6060 C   0  0  0  0  0  3  0  0  0  0  0  0
  -21.0530   -6.4750   24.7890 C   0  0  0  0  0  3  0  0  0  0  0  0
  -21.4300   -5.1190   24.8700 C   0  0  0  0  0  0  0  0  0  0  0  0
  -22.0450   -4.4940   23.7720 C   0  0  0  0  0  3  0  0  0  0  0  0
  -22.2830   -5.2190   22.5930 C   0  0  0  0  0  0  0  0  0  0  0  0
  -22.8570   -4.6050   21.5290 F   0  0  0  0  0  0  0  0  0  0  0  0
  -21.1970   -4.4170   26.0030 F   0  0  0  0  0  0  0  0  0  0  0  0
  -23.2570  -13.8670   21.0560 C   0  0  0  0  0  0  0  0  0  0  0  0
  -22.5510  -13.1740   21.9420 N   0  0  0  0  0  0  0  0  0  0  0  0
  -22.8120  -14.8970   20.5490 O   0  0  0  0  0  0  0  0  0  0  0  0
  -22.9240  -12.3380   22.3640 H   0  0  0  0  0  0  0  0  0  0  0  0
  -21.6220  -13.4800   22.1980 H   0  0  0  0  0  0  0  0  0  0  0  0
  -25.8900  -15.5080   20.1800 N   0  0  0  0  0  0  0  0  0  0  0  0
  -25.1450  -16.1820   20.3220 H   0  0  0  0  0  0  0  0  0  0  0  0
  -26.7350  -15.9290   19.8150 H   0  0  0  0  0  0  0  0  0  0  0  0
  -30.5690  -17.0720   18.1340 C   0  0  0  0  0  2  0  0  0  0  0  0
  -31.5650  -17.8710   17.2530 C   0  0  0  0  0  2  0  0  0  0  0  0
  -32.8760  -17.2100   17.0910 N   0  0  0  0  0  4  0  0  0  0  0  0
  -33.3870  -17.1850   17.9570 H   0  0  0  0  0  0  0  0  0  0  0  0
  -33.4290  -17.7260   16.4280 H   0  0  0  0  0  0  0  0  0  0  0  0
  -32.7780  -16.2740   16.7420 H   0  0  0  0  0  0  0  0  0  0  0  0
  2  1  1  0
  3  4  2  0
  3  6  1  0
  4  5  1  0
  5  8  1  0
  5  1  2  0
  6  2  2  0
  7  4  1  0
  7 13  1  0
  9 12  1  0
  9 10  1  0
 13 11  1  1
 12 15  1  0
 12 11  1  0
 13 10  1  0
 13  8  1  0
 14  7  2  0
 16 27  2  0
 17 15  1  0
 17 22  1  0
 18 26  1  0
 18 28  1  0
 19 25  1  0
 19 21  1  0
 20 26  1  0
 21 20  1  0
 22 21  2  0
 23 24  1  0
 23 17  2  0
 24 19  2  0
 25 18  1  0
 26 16  1  0
 28 30  2  0
 29 28  1  0
 31 29  1  0
 32 41  2  0
 32 37  1  0
 33 29  1  0
 33 37  1  0
 34 33  1  0
 35 36  1  0
 35 34  1  0
 36 32  1  0
 37 38  2  0
 38 39  1  0
 40 39  2  0
 41 40  1  0
 42 16  1  0
 42 47  1  0
 42 43  1  0
 43 46  1  1
 43 44  1  0
 45 43  1  0
 47 50  1  0
 48 52  1  0
 48 47  1  0
 49 48  2  0
 52 51  1  0
 54 52  1  0
 54 55  1  0
 54 53  1  0
 56 95  1  0
 56 65  1  0
 56  6  1  0
 57 65  1  0
 58 63  1  0
 59 60  1  0
 59 58  1  0
 61 60  1  0
 61 70  1  0
 61 62  1  0
 63 57  1  0
 63 62  1  0
 64 57  2  0
 65 66  1  0
 67 68  2  0
 68 87  1  0
 69 68  1  0
 69 72  1  0
 70 71  1  0
 70 67  1  0
 71 69  2  0
 72 73  1  0
 73 74  2  0
 75 78  1  0
 75 74  1  0
 76 75  2  0
 77 76  1  0
 77 72  2  0
 78 79  1  0
 79 84  2  0
 79 80  1  0
 80 81  2  0
 81 82  1  0
 82 86  1  0
 83 82  2  0
 84 83  1  0
 85 84  1  0
 87 88  1  0
 88 91  1  0
 88 90  1  0
 89 87  2  0
 92 93  1  0
 92 67  1  0
 94 92  1  0
 96 95  1  0
 97 96  1  0
 97 98  1  0
 99 97  1  0
100 97  1  0
M  ISO  4  12 101  15 101  57 100  65 100
M  END
>  <TORSDO>  (33) 
F 20

>  <SCORE>  (33) 
-12.774

>  <name>  (33) 
32

>  <ligand_id>  (33) 
32

>  <original_smiles>  (33) 
[H]c1c([H])c([H])c2c(c1[H])C([H])([H])C([H])([H])C([H])([H])C2([H])N([H])C(=O)C1([H])N(C(=O)C([H])(N([H])C(=O)C([H])(N([H])C([H])([H])[H])C([H])([H])[H])C(C([H])([H])[H])(C([H])([H])[H])C([H])([H])[H])C([H])([H])c2c([H])c(OC3([H])C([H])([H])C([H])([H])C4(C(=O)c5c([H])c(C([H])(N([H])C(=O)N6C([H])([H])C([H])([H])C([H])([H])C([H])(n7nc(-c8c([H])c([H])c(Oc9c([H])c([H])c(F)c([H])c9F)c([H])c8[H])c(C(=O)N([H])[H])c7N([H])[H])C6([H])[H])C([H])([H])C([H])([H])[N+]([H])([H])[H])c([H])c([H])c5C4([H])[H])C3([H])[H])c([H])c([H])c2C1([H])[H]

>  <smiles>  (33) 
[H]c1c([H])c([H])c2c(c1[H])C([H])([H])C([H])([H])C([H])([H])C2([H])N([H])C(=O)C1([H])N(C(=O)C([H])(N([H])C(=O)C([H])(N([H])C([H])([H])[H])C([H])([H])[H])C(C([H])([H])[H])(C([H])([H])[H])C([H])([H])[H])C([H])([H])c2c([H])c(OC3([H])C([H])([H])C([H])([H])C4(C(=O)c5c([H])c(C([H])(N([H])C(=O)N6C([H])([H])C([H])([H])C([H])([H])C([H])(n7nc(-c8c([H])c([H])c(Oc9c([H])c([H])c(F)c([H])c9F)c([H])c8[H])c(C(=O)N([H])[H])c7N([H])[H])C6([H])[H])C([H])([H])C([H])([H])[N+]([H])([H])[H])c([H])c([H])c5C4([H])[H])C3([H])[H])c([H])c([H])c2C1([H])[H]

$$$$
33:0:0
     RDKit          3D

 92101  0  0  1  0  0  0  0  0999 V2000
  -30.9230  -21.7270   20.9960 C   0  0  0  0  0  2  0  0  0  0  0  0
  -31.1610  -23.0520   20.9610 C   0  0  0  0  0  3  0  0  0  0  0  0
  -30.8880  -23.8390   22.2110 C   0  0  0  0  0  2  0  0  0  0  0  0
  -30.5320  -23.8820   19.8720 C   0  0  0  0  0  2  0  0  0  0  0  0
  -29.4400  -24.3310   21.9300 C   0  0  0  0  0  2  0  0  0  0  0  0
  -28.5930  -22.4070   20.3180 C   0  0  0  0  0  2  0  0  0  0  0  0
  -29.6940  -21.2110   20.2520 C   0  0  0  0  0  3  0  0  0  0  0  0
  -29.1160  -23.9530   20.4390 C   0  0  2  0  0  0  0  0  0  0  0  0
  -28.2670  -25.0560   19.6590 C   0  0  0  0  0  0  0  0  0  0  0  0
  -27.7100  -24.6950   18.6200 O   0  0  0  0  0  0  0  0  0  0  0  0
  -28.2440  -26.4300   20.1380 O   0  0  0  0  0  0  0  0  0  0  0  0
  -24.5660  -31.8610   23.1740 C   0  0  0  0  0  0  0  0  0  0  0  0
  -27.1300  -27.2980   20.0500 C   0  0  0  0  0  0  0  0  0  0  0  0
  -23.3370  -30.4730   21.5460 C   0  0  0  0  0  3  0  0  0  0  0  0
  -24.7650  -28.9350   20.0900 C   0  0  0  0  0  0  0  0  0  0  0  0
  -25.8780  -30.7840   21.3290 C   0  0  0  0  0  2  0  0  0  0  0  0
  -25.9470  -29.4090   20.6720 C   0  0  0  0  0  0  0  0  0  0  0  0
  -27.1270  -28.6040   20.6440 C   0  0  0  0  0  3  0  0  0  0  0  0
  -25.9070  -26.8850   19.4620 C   0  0  0  0  0  3  0  0  0  0  0  0
  -24.7480  -27.6780   19.4770 C   0  0  0  0  0  3  0  0  0  0  0  0
  -23.5320  -29.8100   20.1590 C   0  0  0  0  0  2  0  0  0  0  0  0
  -24.6130  -31.0550   22.0720 N   0  0  0  0  0  0  0  0  0  0  0  0
  -23.4890  -32.1380   23.7230 O   0  0  0  0  0  0  0  0  0  0  0  0
  -22.6870  -29.4500   22.5090 C   0  0  0  0  0  0  0  0  0  0  0  0
  -21.3590  -29.2790   22.4040 N   0  0  0  0  0  0  0  0  0  0  0  0
  -23.3770  -28.8160   23.3110 O   0  0  0  0  0  0  0  0  0  0  0  0
  -20.8610  -29.8430   21.7290 H   0  0  0  0  0  0  0  0  0  0  0  0
  -17.9850  -28.0860   22.9470 C   0  0  0  0  0  0  0  0  0  0  0  0
  -20.5480  -28.3400   23.1830 C   0  0  0  0  0  3  0  0  0  0  0  0
  -20.6390  -26.9090   22.6020 C   0  0  0  0  0  2  0  0  0  0  0  0
  -19.5240  -26.5900   21.6020 C   0  0  0  0  0  2  0  0  0  0  0  0
  -18.1500  -26.7380   22.2640 C   0  0  0  0  0  2  0  0  0  0  0  0
  -19.1110  -28.8450   23.3630 C   0  0  0  0  0  0  0  0  0  0  0  0
  -18.9020  -30.1060   23.9620 C   0  0  0  0  0  3  0  0  0  0  0  0
  -17.6000  -30.6090   24.1470 C   0  0  0  0  0  3  0  0  0  0  0  0
  -16.4890  -29.8480   23.7460 C   0  0  0  0  0  3  0  0  0  0  0  0
  -16.6820  -28.5880   23.1520 C   0  0  0  0  0  3  0  0  0  0  0  0
  -25.8580  -32.4880   23.7810 C   0  0  0  0  0  3  0  0  0  0  0  0
  -26.3960  -31.7040   25.0390 C   0  0  1  0  0  0  0  0  0  0  0  0
  -25.3210  -31.4550   26.1230 C   0  0  0  0  0  1  0  0  0  0  0  0
  -26.9730  -30.3310   24.6220 C   0  0  0  0  0  1  0  0  0  0  0  0
  -27.5600  -32.4910   25.6880 C   0  0  0  0  0  1  0  0  0  0  0  0
  -25.5510  -33.8810   24.1340 N   0  0  0  0  0  0  0  0  0  0  0  0
  -25.8730  -34.9450   23.3860 C   0  0  0  0  0  0  0  0  0  0  0  0
  -26.5320  -34.8570   22.3470 O   0  0  0  0  0  0  0  0  0  0  0  0
  -24.9720  -34.0250   24.9480 H   0  0  0  0  0  0  0  0  0  0  0  0
  -24.1470  -36.7480   23.0670 C   0  0  0  0  0  1  0  0  0  0  0  0
  -25.3900  -36.3260   23.8690 C   0  0  0  0  0  3  0  0  0  0  0  0
  -27.5270  -37.1930   24.7120 C   0  0  0  0  0  1  0  0  0  0  0  0
  -26.4230  -37.3800   23.7730 N   0  0  0  0  0  0  0  0  0  0  0  0
  -26.0180  -38.2980   23.9400 H   0  0  0  0  0  0  0  0  0  0  0  0
  -29.2600  -19.7510   20.7640 C   0  0  0  0  0  2  0  0  0  0  0  0
  -29.8170  -18.4170   20.0670 C   0  0  0  0  0  2  0  0  0  0  0  0
  -30.1300  -17.1440   20.9860 C   0  0  0  0  0  2  0  0  0  0  0  0
  -30.5540  -14.6760   20.1760 C   0  0  0  0  0  0  0  0  0  0  0  0
  -30.3020  -12.4580   19.0630 C   0  0  0  0  0  2  0  0  0  0  0  0
  -29.3130  -12.5820   17.8850 C   0  0  0  0  0  2  0  0  0  0  0  0
  -27.8570  -12.4110   18.3660 C   0  0  0  0  0  2  0  0  0  0  0  0
  -27.5380  -13.2650   19.6210 C   0  0  0  0  0  3  0  0  0  0  0  0
  -28.6360  -13.1090   20.6960 C   0  0  0  0  0  2  0  0  0  0  0  0
  -29.9180  -13.4660   20.0700 N   0  0  0  0  0  0  0  0  0  0  0  0
  -31.7240  -14.8200   19.8140 O   0  0  0  0  0  0  0  0  0  0  0  0
  -29.7740  -15.7480   20.5320 N   0  0  0  0  0  0  0  0  0  0  0  0
  -28.8090  -15.4940   20.6880 H   0  0  0  0  0  0  0  0  0  0  0  0
  -25.1680  -13.8560   20.4150 C   0  0  0  0  0  0  0  0  0  0  0  0
  -24.1160  -13.0790   20.8160 C   0  0  0  0  0  0  0  0  0  0  0  0
  -24.5830  -11.7290   20.7730 C   0  0  0  0  0  0  0  0  0  0  0  0
  -26.2080  -12.9790   20.1500 N   0  0  0  0  0  0  0  0  0  0  0  0
  -25.8640  -11.6960   20.4270 N   0  0  0  0  0  0  0  0  0  0  0  0
  -23.8680  -10.4640   20.9840 C   0  0  0  0  0  0  0  0  0  0  0  0
  -24.3340   -9.4970   21.9020 C   0  0  0  0  0  3  0  0  0  0  0  0
  -23.6190   -8.2970   22.1010 C   0  0  0  0  0  3  0  0  0  0  0  0
  -22.4240   -8.0550   21.3810 C   0  0  0  0  0  0  0  0  0  0  0  0
  -21.9790   -9.0090   20.4510 C   0  0  0  0  0  3  0  0  0  0  0  0
  -22.6940  -10.2010   20.2500 C   0  0  0  0  0  3  0  0  0  0  0  0
  -21.6790   -6.9070   21.4910 O   0  0  0  0  0  0  0  0  0  0  0  0
  -21.6710   -6.1590   22.6410 C   0  0  0  0  0  0  0  0  0  0  0  0
  -21.2840   -6.7060   23.8830 C   0  0  0  0  0  3  0  0  0  0  0  0
  -21.2230   -5.8850   25.0270 C   0  0  0  0  0  3  0  0  0  0  0  0
  -21.5440   -4.5180   24.9300 C   0  0  0  0  0  0  0  0  0  0  0  0
  -21.9260   -3.9690   23.6930 C   0  0  0  0  0  3  0  0  0  0  0  0
  -21.9870   -4.7880   22.5510 C   0  0  0  0  0  0  0  0  0  0  0  0
  -22.3340   -4.2500   21.3580 F   0  0  0  0  0  0  0  0  0  0  0  0
  -21.4790   -3.7270   26.0260 F   0  0  0  0  0  0  0  0  0  0  0  0
  -22.7250  -13.5500   21.1280 C   0  0  0  0  0  0  0  0  0  0  0  0
  -22.0270  -12.8490   22.0150 N   0  0  0  0  0  0  0  0  0  0  0  0
  -22.2680  -14.5730   20.6220 O   0  0  0  0  0  0  0  0  0  0  0  0
  -22.4130  -12.0200   22.4450 H   0  0  0  0  0  0  0  0  0  0  0  0
  -21.0940  -13.1420   22.2660 H   0  0  0  0  0  0  0  0  0  0  0  0
  -25.3210  -15.2270   20.2310 N   0  0  0  0  0  0  0  0  0  0  0  0
  -24.5540  -15.8770   20.3630 H   0  0  0  0  0  0  0  0  0  0  0  0
  -26.1510  -15.6700   19.8550 H   0  0  0  0  0  0  0  0  0  0  0  0
  2  4  1  0
  2  1  1  0
  2  3  1  0
  4  8  1  0
  5  3  1  0
  6  8  1  0
  7  6  1  0
  7 52  1  0
  7  1  1  0
  8  9  1  6
  8  5  1  0
  9 11  1  0
 10  9  2  0
 12 23  2  0
 13 11  1  0
 13 18  1  0
 14 22  1  0
 14 24  1  0
 15 21  1  0
 15 17  1  0
 16 22  1  0
 17 16  1  0
 18 17  2  0
 19 20  1  0
 19 13  2  0
 20 15  2  0
 21 14  1  0
 22 12  1  0
 24 26  2  0
 25 24  1  0
 27 25  1  0
 28 37  2  0
 28 33  1  0
 29 25  1  0
 29 33  1  0
 30 29  1  0
 31 32  1  0
 31 30  1  0
 32 28  1  0
 33 34  2  0
 34 35  1  0
 36 35  2  0
 37 36  1  0
 38 12  1  0
 38 43  1  0
 38 39  1  0
 39 42  1  1
 39 40  1  0
 41 39  1  0
 43 46  1  0
 44 48  1  0
 44 43  1  0
 45 44  2  0
 48 47  1  0
 50 48  1  0
 50 51  1  0
 50 49  1  0
 53 52  1  0
 53 54  1  0
 55 63  1  0
 56 61  1  0
 57 58  1  0
 57 56  1  0
 59 58  1  0
 59 68  1  0
 59 60  1  0
 61 55  1  0
 61 60  1  0
 62 55  2  0
 63 64  1  0
 63 54  1  0
 65 66  2  0
 66 85  1  0
 67 66  1  0
 67 70  1  0
 68 65  1  0
 68 69  1  0
 69 67  2  0
 70 71  1  0
 71 72  2  0
 73 76  1  0
 73 72  1  0
 74 73  2  0
 75 74  1  0
 75 70  2  0
 76 77  1  0
 77 78  1  0
 78 79  2  0
 80 79  1  0
 80 84  1  0
 81 80  2  0
 82 77  2  0
 82 81  1  0
 83 82  1  0
 85 86  1  0
 86 89  1  0
 86 88  1  0
 87 85  2  0
 90 91  1  0
 90 65  1  0
 92 90  1  0
M  ISO  4   9 101  11 101  55 100  63 100
M  END
>  <TORSDO>  (34) 
F 20

>  <SCORE>  (34) 
-13.259

>  <name>  (34) 
33

>  <ligand_id>  (34) 
33

>  <original_smiles>  (34) 
[H]C1=C2C([H])([H])C([H])([H])C(C(=O)Oc3c([H])c([H])c4c(c3[H])C([H])([H])N(C(=O)C([H])(N([H])C(=O)C([H])(N([H])C([H])([H])[H])C([H])([H])[H])C(C([H])([H])[H])(C([H])([H])[H])C([H])([H])[H])C([H])(C(=O)N([H])C3([H])c5c([H])c([H])c([H])c([H])c5C([H])([H])C([H])([H])C3([H])[H])C4([H])[H])(C2([H])[H])C([H])([H])C1([H])C([H])([H])C([H])([H])C([H])([H])N([H])C(=O)N1C([H])([H])C([H])([H])C([H])([H])C([H])(n2nc(-c3c([H])c([H])c(Oc4c([H])c([H])c(F)c([H])c4F)c([H])c3[H])c(C(=O)N([H])[H])c2N([H])[H])C1([H])[H]

>  <smiles>  (34) 
[H]C1=C2C([H])([H])C([H])([H])C(C(=O)Oc3c([H])c([H])c4c(c3[H])C([H])([H])N(C(=O)C([H])(N([H])C(=O)C([H])(N([H])C([H])([H])[H])C([H])([H])[H])C(C([H])([H])[H])(C([H])([H])[H])C([H])([H])[H])C([H])(C(=O)N([H])C3([H])c5c([H])c([H])c([H])c([H])c5C([H])([H])C([H])([H])C3([H])[H])C4([H])[H])(C2([H])[H])C([H])([H])C1([H])C([H])([H])C([H])([H])C([H])([H])N([H])C(=O)N1C([H])([H])C([H])([H])C([H])([H])C([H])(n2nc(-c3c([H])c([H])c(Oc4c([H])c([H])c(F)c([H])c4F)c([H])c3[H])c(C(=O)N([H])[H])c2N([H])[H])C1([H])[H]

$$$$
34:0:0
     RDKit          3D

 91100  0  0  1  0  0  0  0  0999 V2000
  -29.6210  -21.9190   22.3910 C   0  0  0  0  0  3  0  0  0  0  0  0
  -29.6580  -20.5520   21.9850 C   0  0  0  0  0  3  0  0  0  0  0  0
  -28.7270  -21.1820   19.8340 C   0  0  0  0  0  3  0  0  0  0  0  0
  -28.6780  -22.5680   20.2550 C   0  0  0  0  0  0  0  0  0  0  0  0
  -29.1180  -22.9200   21.5240 C   0  0  0  0  0  0  0  0  0  0  0  0
  -29.2120  -20.1220   20.7040 C   0  0  0  0  0  0  0  0  0  0  0  0
  -28.2040  -23.8550   19.5890 C   0  0  0  0  0  0  0  0  0  0  0  0
  -28.9660  -24.4300   21.8000 C   0  0  0  0  0  2  0  0  0  0  0  0
  -28.0660  -25.0120   20.6570 C   0  0  0  0  0  3  0  0  0  0  0  0
  -27.9150  -23.9950   18.3980 O   0  0  0  0  0  0  0  0  0  0  0  0
  -28.3040  -26.4460   20.2440 O   0  0  0  0  0  0  0  0  0  0  0  0
  -24.6050  -31.9310   23.2450 C   0  0  0  0  0  0  0  0  0  0  0  0
  -27.2050  -27.3330   20.2090 C   0  0  0  0  0  0  0  0  0  0  0  0
  -23.3960  -30.5240   21.6140 C   0  0  0  0  0  3  0  0  0  0  0  0
  -24.8450  -28.9670   20.1860 C   0  0  0  0  0  0  0  0  0  0  0  0
  -25.9360  -30.8430   21.4170 C   0  0  0  0  0  2  0  0  0  0  0  0
  -26.0190  -29.4580   20.7740 C   0  0  0  0  0  0  0  0  0  0  0  0
  -27.2050  -28.6550   20.7670 C   0  0  0  0  0  3  0  0  0  0  0  0
  -26.0100  -26.9060   19.5930 C   0  0  0  0  0  3  0  0  0  0  0  0
  -24.8450  -27.7010   19.5830 C   0  0  0  0  0  3  0  0  0  0  0  0
  -23.6060  -29.8430   20.2350 C   0  0  0  0  0  2  0  0  0  0  0  0
  -24.6650  -31.1180   22.1490 N   0  0  0  0  0  0  0  0  0  0  0  0
  -23.5220  -32.2080   23.7840 O   0  0  0  0  0  0  0  0  0  0  0  0
  -22.7400  -29.5100   22.5830 C   0  0  0  0  0  0  0  0  0  0  0  0
  -21.4160  -29.3170   22.4560 N   0  0  0  0  0  0  0  0  0  0  0  0
  -23.4240  -28.9010   23.4100 O   0  0  0  0  0  0  0  0  0  0  0  0
  -20.9230  -29.8610   21.7630 H   0  0  0  0  0  0  0  0  0  0  0  0
  -18.0540  -28.0780   22.9570 C   0  0  0  0  0  0  0  0  0  0  0  0
  -20.6070  -28.3760   23.2330 C   0  0  0  0  0  3  0  0  0  0  0  0
  -20.7300  -26.9390   22.6750 C   0  0  0  0  0  2  0  0  0  0  0  0
  -19.6370  -26.5920   21.6590 C   0  0  0  0  0  2  0  0  0  0  0  0
  -18.2500  -26.7250   22.2950 C   0  0  0  0  0  2  0  0  0  0  0  0
  -19.1600  -28.8610   23.3830 C   0  0  0  0  0  0  0  0  0  0  0  0
  -18.9200  -30.1270   23.9610 C   0  0  0  0  0  3  0  0  0  0  0  0
  -17.6080  -30.6100   24.1180 C   0  0  0  0  0  3  0  0  0  0  0  0
  -16.5160  -29.8260   23.7060 C   0  0  0  0  0  3  0  0  0  0  0  0
  -16.7400  -28.5620   23.1320 C   0  0  0  0  0  3  0  0  0  0  0  0
  -25.8870  -32.5730   23.8580 C   0  0  0  0  0  3  0  0  0  0  0  0
  -25.5740  -33.9720   24.1830 N   0  0  0  0  0  0  0  0  0  0  0  0
  -25.9020  -35.0250   23.4230 C   0  0  0  0  0  0  0  0  0  0  0  0
  -26.5710  -34.9200   22.3910 O   0  0  0  0  0  0  0  0  0  0  0  0
  -24.9840  -34.1270   24.9890 H   0  0  0  0  0  0  0  0  0  0  0  0
  -24.1780  -36.8190   23.0580 C   0  0  0  0  0  1  0  0  0  0  0  0
  -25.4120  -36.4130   23.8790 C   0  0  0  0  0  3  0  0  0  0  0  0
  -27.5410  -37.2970   24.7260 C   0  0  0  0  0  1  0  0  0  0  0  0
  -26.4460  -37.4660   23.7740 N   0  0  0  0  0  0  0  0  0  0  0  0
  -26.0390  -38.3850   23.9230 H   0  0  0  0  0  0  0  0  0  0  0  0
  -26.4120  -31.8110   25.1360 C   0  0  1  0  0  0  0  0  0  0  0  0
  -25.3250  -31.5730   26.2110 C   0  0  0  0  0  1  0  0  0  0  0  0
  -27.0020  -30.4340   24.7520 C   0  0  0  0  0  1  0  0  0  0  0  0
  -27.5610  -32.6160   25.7910 C   0  0  0  0  0  1  0  0  0  0  0  0
  -29.0940  -18.5580   20.3570 C   0  0  0  0  0  3  0  0  0  0  0  0
  -30.2250  -17.4480   20.7230 C   0  0  0  0  0  3  0  0  0  0  0  0
  -30.6520  -14.8380   20.3840 C   0  0  0  0  0  0  0  0  0  0  0  0
  -30.4870  -12.5500   19.3770 C   0  0  0  0  0  2  0  0  0  0  0  0
  -29.5580  -12.5830   18.1420 C   0  0  0  0  0  2  0  0  0  0  0  0
  -28.0830  -12.4190   18.5570 C   0  0  0  0  0  2  0  0  0  0  0  0
  -27.6910  -13.3230   19.7550 C   0  0  0  0  0  3  0  0  0  0  0  0
  -28.7380  -13.2480   20.8890 C   0  0  0  0  0  2  0  0  0  0  0  0
  -30.0360  -13.6080   20.3090 N   0  0  0  0  0  0  0  0  0  0  0  0
  -31.8380  -14.9530   20.0600 O   0  0  0  0  0  0  0  0  0  0  0  0
  -29.8680  -15.9550   20.6430 N   0  0  0  0  0  0  0  0  0  0  0  0
  -28.9060  -15.7370   20.8510 H   0  0  0  0  0  0  0  0  0  0  0  0
  -25.2920  -13.9180   20.4450 C   0  0  0  0  0  0  0  0  0  0  0  0
  -24.2230  -13.1460   20.8090 C   0  0  0  0  0  0  0  0  0  0  0  0
  -24.6880  -11.7950   20.7970 C   0  0  0  0  0  0  0  0  0  0  0  0
  -26.3410  -13.0390   20.2320 N   0  0  0  0  0  0  0  0  0  0  0  0
  -25.9830  -11.7570   20.5050 N   0  0  0  0  0  0  0  0  0  0  0  0
  -23.9600  -10.5330   20.9880 C   0  0  0  0  0  0  0  0  0  0  0  0
  -24.3750   -9.5780   21.9420 C   0  0  0  0  0  3  0  0  0  0  0  0
  -23.6460   -8.3830   22.1210 C   0  0  0  0  0  3  0  0  0  0  0  0
  -22.4910   -8.1320   21.3440 C   0  0  0  0  0  0  0  0  0  0  0  0
  -22.0960   -9.0750   20.3780 C   0  0  0  0  0  3  0  0  0  0  0  0
  -22.8250  -10.2610   20.1970 C   0  0  0  0  0  3  0  0  0  0  0  0
  -21.7360   -6.9870   21.4320 O   0  0  0  0  0  0  0  0  0  0  0  0
  -21.6520   -6.2690   22.5980 C   0  0  0  0  0  0  0  0  0  0  0  0
  -21.1750   -6.8440   23.7960 C   0  0  0  0  0  3  0  0  0  0  0  0
  -21.0380   -6.0510   24.9530 C   0  0  0  0  0  3  0  0  0  0  0  0
  -21.3710   -4.6830   24.9130 C   0  0  0  0  0  0  0  0  0  0  0  0
  -21.8420   -4.1070   23.7200 C   0  0  0  0  0  3  0  0  0  0  0  0
  -21.9780   -4.8980   22.5650 C   0  0  0  0  0  0  0  0  0  0  0  0
  -22.4120   -4.3330   21.4120 F   0  0  0  0  0  0  0  0  0  0  0  0
  -21.2320   -3.9190   26.0220 F   0  0  0  0  0  0  0  0  0  0  0  0
  -22.8190  -13.6230   21.0530 C   0  0  0  0  0  0  0  0  0  0  0  0
  -22.0780  -12.9350   21.9120 N   0  0  0  0  0  0  0  0  0  0  0  0
  -22.3880  -14.6450   20.5180 O   0  0  0  0  0  0  0  0  0  0  0  0
  -22.4360  -12.1100   22.3700 H   0  0  0  0  0  0  0  0  0  0  0  0
  -21.1380  -13.2380   22.1180 H   0  0  0  0  0  0  0  0  0  0  0  0
  -25.4530  -15.2900   20.2560 N   0  0  0  0  0  0  0  0  0  0  0  0
  -24.6870  -15.9450   20.3700 H   0  0  0  0  0  0  0  0  0  0  0  0
  -26.3010  -15.7320   19.9250 H   0  0  0  0  0  0  0  0  0  0  0  0
  2  1  1  0
  3  4  2  0
  3  6  1  0
  4  5  1  0
  5  8  1  0
  5  1  2  0
  6  2  2  0
  7  4  1  0
  7  9  1  0
  9 11  1  0
  9  8  1  0
 10  7  2  0
 12 23  2  0
 13 11  1  0
 13 18  1  0
 14 22  1  0
 14 24  1  0
 15 21  1  0
 15 17  1  0
 16 22  1  0
 17 16  1  0
 18 17  2  0
 19 13  2  0
 20 19  1  0
 20 15  2  0
 21 14  1  0
 22 12  1  0
 24 26  2  0
 25 24  1  0
 27 25  1  0
 28 37  2  0
 28 33  1  0
 29 25  1  0
 29 33  1  0
 30 29  1  0
 31 32  1  0
 31 30  1  0
 32 28  1  0
 33 34  2  0
 34 35  1  0
 36 35  2  0
 37 36  1  0
 38 12  1  0
 38 39  1  0
 38 48  1  0
 39 42  1  0
 40 44  1  0
 40 39  1  0
 41 40  2  0
 44 43  1  0
 46 44  1  0
 46 47  1  0
 46 45  1  0
 48 51  1  1
 48 49  1  0
 50 48  1  0
 52  6  1  0
 52 53  2  0
 54 62  1  0
 55 60  1  0
 56 57  1  0
 56 55  1  0
 58 57  1  0
 58 67  1  0
 58 59  1  0
 60 54  1  0
 60 59  1  0
 61 54  2  0
 62 53  1  0
 62 63  1  0
 64 65  2  0
 65 84  1  0
 66 65  1  0
 66 69  1  0
 67 64  1  0
 67 68  1  0
 68 66  2  0
 69 70  1  0
 70 71  2  0
 72 75  1  0
 72 71  1  0
 73 72  2  0
 74 73  1  0
 74 69  2  0
 75 76  1  0
 76 77  1  0
 77 78  2  0
 79 78  1  0
 79 83  1  0
 80 79  2  0
 81 76  2  0
 81 80  1  0
 82 81  1  0
 84 85  1  0
 85 88  1  0
 85 87  1  0
 86 84  2  0
 89 90  1  0
 89 64  1  0
 91 89  1  0
M  ISO  4   9 101  11 101  54 100  62 100
M  END
>  <TORSDO>  (35) 
F 18

>  <SCORE>  (35) 
-14.621

>  <name>  (35) 
34

>  <ligand_id>  (35) 
34

>  <original_smiles>  (35) 
[H]c1c([H])c([H])c2c(c1[H])C([H])([H])C([H])([H])C([H])([H])C2([H])N([H])C(=O)C1([H])N(C(=O)C([H])(N([H])C(=O)C([H])(N([H])C([H])([H])[H])C([H])([H])[H])C(C([H])([H])[H])(C([H])([H])[H])C([H])([H])[H])C([H])([H])c2c([H])c(OC3([H])C(=O)c4c([H])c(C([H])([H])C([H])([H])N([H])C(=O)N5C([H])([H])C([H])([H])C([H])([H])C([H])(n6nc(-c7c([H])c([H])c(Oc8c([H])c([H])c(F)c([H])c8F)c([H])c7[H])c(C(=O)N([H])[H])c6N([H])[H])C5([H])[H])c([H])c([H])c4C3([H])[H])c([H])c([H])c2C1([H])[H]

>  <smiles>  (35) 
[H]c1c([H])c([H])c2c(c1[H])C([H])([H])C([H])([H])C([H])([H])C2([H])N([H])C(=O)C1([H])N(C(=O)C([H])(N([H])C(=O)C([H])(N([H])C([H])([H])[H])C([H])([H])[H])C(C([H])([H])[H])(C([H])([H])[H])C([H])([H])[H])C([H])([H])c2c([H])c(OC3([H])C(=O)c4c([H])c(C([H])([H])C([H])([H])N([H])C(=O)N5C([H])([H])C([H])([H])C([H])([H])C([H])(n6nc(-c7c([H])c([H])c(Oc8c([H])c([H])c(F)c([H])c8F)c([H])c7[H])c(C(=O)N([H])[H])c6N([H])[H])C5([H])[H])c([H])c([H])c4C3([H])[H])c([H])c([H])c2C1([H])[H]

$$$$
35:0:0
     RDKit          3D

 95104  0  0  1  0  0  0  0  0999 V2000
  -31.9700  -24.1930   17.0170 C   0  0  0  0  0  2  0  0  0  0  0  0
  -32.4290  -22.9880   17.8310 C   0  0  0  0  0  2  0  0  0  0  0  0
  -30.4510  -24.1360   17.1390 C   0  0  0  0  0  2  0  0  0  0  0  0
  -31.4390  -22.8910   19.0100 C   0  0  0  0  0  3  0  0  0  0  0  0
  -30.1820  -23.7050   18.5930 C   0  0  0  0  0  3  0  0  0  0  0  0
  -31.1290  -21.4440   19.3660 C   0  0  0  0  0  3  0  0  0  0  0  0
  -31.0090  -21.0090   20.5560 N   0  0  0  0  0  0  0  0  0  0  0  0
  -31.8950  -18.7790   20.8750 C   0  0  0  0  0  3  0  0  0  0  0  0
  -31.7140  -17.3890   20.9710 C   0  0  0  0  0  3  0  0  0  0  0  0
  -29.3110  -17.6850   20.7390 C   0  0  0  0  0  3  0  0  0  0  0  0
  -29.4880  -19.0830   20.6360 C   0  0  0  0  0  0  0  0  0  0  0  0
  -30.7910  -19.6370   20.6850 C   0  0  0  0  0  0  0  0  0  0  0  0
  -30.4200  -16.8230   20.8730 C   0  0  0  0  0  0  0  0  0  0  0  0
  -28.2750  -19.9790   20.4470 C   0  0  0  0  0  1  0  0  0  0  0  0
  -30.7760  -14.4750   20.1600 C   0  0  0  0  0  0  0  0  0  0  0  0
  -30.3800  -12.3850   18.9260 C   0  0  0  0  0  2  0  0  0  0  0  0
  -29.3810  -12.6770   17.7910 C   0  0  0  0  0  2  0  0  0  0  0  0
  -27.9300  -12.5340   18.2890 C   0  0  0  0  0  2  0  0  0  0  0  0
  -27.6740  -13.2940   19.6190 C   0  0  0  0  0  3  0  0  0  0  0  0
  -28.7870  -12.9990   20.6510 C   0  0  0  0  0  2  0  0  0  0  0  0
  -30.0840  -13.3140   20.0260 N   0  0  0  0  0  0  0  0  0  0  0  0
  -31.8390  -14.6810   19.5660 O   0  0  0  0  0  0  0  0  0  0  0  0
  -30.1760  -15.4180   20.9060 N   0  0  0  0  0  0  0  0  0  0  0  0
  -29.3060  -15.1250   21.3190 H   0  0  0  0  0  0  0  0  0  0  0  0
  -25.3110  -13.8600   20.4690 C   0  0  0  0  0  0  0  0  0  0  0  0
  -24.2690  -13.0680   20.8700 C   0  0  0  0  0  0  0  0  0  0  0  0
  -24.7360  -11.7220   20.7700 C   0  0  0  0  0  0  0  0  0  0  0  0
  -26.3490  -12.9940   20.1570 N   0  0  0  0  0  0  0  0  0  0  0  0
  -26.0090  -11.7010   20.3930 N   0  0  0  0  0  0  0  0  0  0  0  0
  -24.0300  -10.4490   20.9600 C   0  0  0  0  0  0  0  0  0  0  0  0
  -24.4700   -9.4930   21.9030 C   0  0  0  0  0  3  0  0  0  0  0  0
  -23.7620   -8.2830   22.0790 C   0  0  0  0  0  3  0  0  0  0  0  0
  -22.6020   -8.0210   21.3120 C   0  0  0  0  0  0  0  0  0  0  0  0
  -22.1820   -8.9660   20.3590 C   0  0  0  0  0  3  0  0  0  0  0  0
  -22.8890  -10.1670   20.1810 C   0  0  0  0  0  3  0  0  0  0  0  0
  -21.8660   -6.8650   21.3980 O   0  0  0  0  0  0  0  0  0  0  0  0
  -21.7580   -6.1640   22.5740 C   0  0  0  0  0  0  0  0  0  0  0  0
  -21.1950   -6.7390   23.7340 C   0  0  0  0  0  3  0  0  0  0  0  0
  -21.0410   -5.9630   24.8990 C   0  0  0  0  0  3  0  0  0  0  0  0
  -21.4360   -4.6120   24.9040 C   0  0  0  0  0  0  0  0  0  0  0  0
  -21.9900   -4.0360   23.7470 C   0  0  0  0  0  3  0  0  0  0  0  0
  -22.1480   -4.8100   22.5840 C   0  0  0  0  0  0  0  0  0  0  0  0
  -22.6640   -4.2450   21.4660 F   0  0  0  0  0  0  0  0  0  0  0  0
  -21.2800   -3.8630   26.0200 F   0  0  0  0  0  0  0  0  0  0  0  0
  -22.8860  -13.5260   21.2340 C   0  0  0  0  0  0  0  0  0  0  0  0
  -22.2120  -12.7960   22.1150 N   0  0  0  0  0  0  0  0  0  0  0  0
  -22.4130  -14.5640   20.7720 O   0  0  0  0  0  0  0  0  0  0  0  0
  -22.6080  -11.9560   22.5090 H   0  0  0  0  0  0  0  0  0  0  0  0
  -21.2860  -13.0820   22.4010 H   0  0  0  0  0  0  0  0  0  0  0  0
  -25.4580  -15.2360   20.3210 N   0  0  0  0  0  0  0  0  0  0  0  0
  -24.6870  -15.8780   20.4700 H   0  0  0  0  0  0  0  0  0  0  0  0
  -26.2770  -15.6860   19.9370 H   0  0  0  0  0  0  0  0  0  0  0  0
  -29.9380  -24.9220   19.5130 C   0  0  0  0  0  2  0  0  0  0  0  0
  -28.5610  -25.5620   19.3040 C   0  0  0  0  0  2  0  0  0  0  0  0
  -28.4990  -26.7990   20.0030 O   0  0  0  0  0  0  0  0  0  0  0  0
  -24.6200  -31.7770   23.2310 C   0  0  0  0  0  0  0  0  0  0  0  0
  -27.3040  -27.4850   19.9960 C   0  0  0  0  0  0  0  0  0  0  0  0
  -23.4290  -30.4430   21.5220 C   0  0  0  0  0  3  0  0  0  0  0  0
  -24.8990  -28.9710   20.0500 C   0  0  0  0  0  0  0  0  0  0  0  0
  -25.9520  -30.8200   21.3580 C   0  0  0  0  0  2  0  0  0  0  0  0
  -26.0470  -29.4740   20.6730 C   0  0  0  0  0  0  0  0  0  0  0  0
  -27.2470  -28.7340   20.6520 C   0  0  0  0  0  3  0  0  0  0  0  0
  -26.1320  -26.9940   19.3660 C   0  0  0  0  0  3  0  0  0  0  0  0
  -24.9350  -27.7310   19.3970 C   0  0  0  0  0  3  0  0  0  0  0  0
  -23.6520  -29.8220   20.1180 C   0  0  0  0  0  2  0  0  0  0  0  0
  -24.6860  -31.0240   22.0990 N   0  0  0  0  0  0  0  0  0  0  0  0
  -23.5350  -32.0250   23.7740 O   0  0  0  0  0  0  0  0  0  0  0  0
  -22.7740  -29.3810   22.4320 C   0  0  0  0  0  0  0  0  0  0  0  0
  -21.4520  -29.2020   22.2810 N   0  0  0  0  0  0  0  0  0  0  0  0
  -23.4500  -28.7240   23.2280 O   0  0  0  0  0  0  0  0  0  0  0  0
  -20.9660  -29.7850   21.6140 H   0  0  0  0  0  0  0  0  0  0  0  0
  -18.0760  -27.9920   22.6970 C   0  0  0  0  0  0  0  0  0  0  0  0
  -20.6300  -28.2300   23.0020 C   0  0  0  0  0  3  0  0  0  0  0  0
  -20.7380  -26.8270   22.3630 C   0  0  0  0  0  2  0  0  0  0  0  0
  -19.6450  -26.5500   21.3270 C   0  0  0  0  0  2  0  0  0  0  0  0
  -18.2590  -26.6700   21.9650 C   0  0  0  0  0  2  0  0  0  0  0  0
  -19.1920  -28.7300   23.1710 C   0  0  0  0  0  0  0  0  0  0  0  0
  -18.9740  -29.9680   23.8130 C   0  0  0  0  0  3  0  0  0  0  0  0
  -17.6710  -30.4670   23.9900 C   0  0  0  0  0  3  0  0  0  0  0  0
  -16.5670  -29.7250   23.5340 C   0  0  0  0  0  3  0  0  0  0  0  0
  -16.7700  -28.4900   22.8920 C   0  0  0  0  0  3  0  0  0  0  0  0
  -25.9010  -32.3830   23.8870 C   0  0  0  0  0  3  0  0  0  0  0  0
  -26.4150  -31.5530   25.1270 C   0  0  1  0  0  0  0  0  0  0  0  0
  -25.3190  -31.2550   26.1750 C   0  0  0  0  0  1  0  0  0  0  0  0
  -27.0120  -30.2030   24.6660 C   0  0  0  0  0  1  0  0  0  0  0  0
  -27.5550  -32.3210   25.8400 C   0  0  0  0  0  1  0  0  0  0  0  0
  -25.5880  -33.7640   24.2780 N   0  0  0  0  0  0  0  0  0  0  0  0
  -25.8970  -34.8470   23.5540 C   0  0  0  0  0  0  0  0  0  0  0  0
  -26.5490  -34.7920   22.5060 O   0  0  0  0  0  0  0  0  0  0  0  0
  -25.0120  -33.8820   25.0990 H   0  0  0  0  0  0  0  0  0  0  0  0
  -24.1420  -36.6290   23.3020 C   0  0  0  0  0  1  0  0  0  0  0  0
  -25.4030  -36.2110   24.0730 C   0  0  0  0  0  3  0  0  0  0  0  0
  -27.5340  -37.0950   24.9090 C   0  0  0  0  0  1  0  0  0  0  0  0
  -26.4210  -37.2790   23.9830 N   0  0  0  0  0  0  0  0  0  0  0  0
  -26.0040  -38.1870   24.1680 H   0  0  0  0  0  0  0  0  0  0  0  0
  1  3  1  0
  1  2  1  0
  2  4  1  0
  3  5  1  0
  4  6  1  0
  5  4  1  0
  5 53  1  0
  6  7  2  0
  7 12  1  0
  8  9  1  0
 10 13  1  0
 11 12  1  0
 11 10  2  0
 12  8  2  0
 13 23  1  0
 13  9  2  0
 14 11  1  0
 15 23  1  0
 16 21  1  0
 17 18  1  0
 17 16  1  0
 19 18  1  0
 19 28  1  0
 19 20  1  0
 21 15  1  0
 21 20  1  0
 22 15  2  0
 23 24  1  0
 25 26  2  0
 26 45  1  0
 27 26  1  0
 27 30  1  0
 28 29  1  0
 28 25  1  0
 29 27  2  0
 30 31  1  0
 31 32  2  0
 33 36  1  0
 33 32  1  0
 34 33  2  0
 35 34  1  0
 35 30  2  0
 36 37  1  0
 37 42  2  0
 37 38  1  0
 38 39  2  0
 39 40  1  0
 40 44  1  0
 41 40  2  0
 42 41  1  0
 43 42  1  0
 45 46  1  0
 46 49  1  0
 46 48  1  0
 47 45  2  0
 50 25  1  0
 50 51  1  0
 52 50  1  0
 54 53  1  0
 54 55  1  0
 56 67  2  0
 57 55  1  0
 57 62  1  0
 58 66  1  0
 58 68  1  0
 59 65  1  0
 59 61  1  0
 60 66  1  0
 61 60  1  0
 62 61  2  0
 63 64  1  0
 63 57  2  0
 64 59  2  0
 65 58  1  0
 66 56  1  0
 68 70  2  0
 69 68  1  0
 71 69  1  0
 72 81  2  0
 72 77  1  0
 73 69  1  0
 73 77  1  0
 74 73  1  0
 75 76  1  0
 75 74  1  0
 76 72  1  0
 77 78  2  0
 78 79  1  0
 80 79  2  0
 81 80  1  0
 82 56  1  0
 82 87  1  0
 82 83  1  0
 83 86  1  1
 83 84  1  0
 85 83  1  0
 87 90  1  0
 88 92  1  0
 88 87  1  0
 89 88  2  0
 92 91  1  0
 94 92  1  0
 94 95  1  0
 94 93  1  0
M  ISO  4  15 100  23 100  54 101  55 101
M  END
>  <TORSDO>  (36) 
F 20

>  <SCORE>  (36) 
-13.829

>  <name>  (36) 
35

>  <ligand_id>  (36) 
35

>  <original_smiles>  (36) 
[H]C(=Nc1c([H])c([H])c(N([H])C(=O)N2C([H])([H])C([H])([H])C([H])([H])C([H])(n3nc(-c4c([H])c([H])c(Oc5c([H])c([H])c(F)c([H])c5F)c([H])c4[H])c(C(=O)N([H])[H])c3N([H])[H])C2([H])[H])c([H])c1C([H])([H])[H])C1([H])C([H])([H])C([H])([H])C([H])([H])C1([H])C([H])([H])C([H])([H])Oc1c([H])c([H])c2c(c1[H])C([H])([H])N(C(=O)C([H])(N([H])C(=O)C([H])(N([H])C([H])([H])[H])C([H])([H])[H])C(C([H])([H])[H])(C([H])([H])[H])C([H])([H])[H])C([H])(C(=O)N([H])C1([H])c3c([H])c([H])c([H])c([H])c3C([H])([H])C([H])([H])C1([H])[H])C2([H])[H]

>  <smiles>  (36) 
[H]C(=Nc1c([H])c([H])c(N([H])C(=O)N2C([H])([H])C([H])([H])C([H])([H])C([H])(n3nc(-c4c([H])c([H])c(Oc5c([H])c([H])c(F)c([H])c5F)c([H])c4[H])c(C(=O)N([H])[H])c3N([H])[H])C2([H])[H])c([H])c1C([H])([H])[H])C1([H])C([H])([H])C([H])([H])C([H])([H])C1([H])C([H])([H])C([H])([H])Oc1c([H])c([H])c2c(c1[H])C([H])([H])N(C(=O)C([H])(N([H])C(=O)C([H])(N([H])C([H])([H])[H])C([H])([H])[H])C(C([H])([H])[H])(C([H])([H])[H])C([H])([H])[H])C([H])(C(=O)N([H])C1([H])c3c([H])c([H])c([H])c([H])c3C([H])([H])C([H])([H])C1([H])[H])C2([H])[H]

$$$$
36:0:0
     RDKit          3D

 91100  0  0  1  0  0  0  0  0999 V2000
  -27.5970  -18.6690   20.5230 C   0  0  0  0  0  2  0  0  0  0  0  0
  -28.0690  -18.0910   19.1750 C   0  0  0  0  0  2  0  0  0  0  0  0
  -29.7550  -17.9100   21.5520 C   0  0  0  0  0  2  0  0  0  0  0  0
  -30.2530  -17.2940   20.2120 C   0  0  0  0  0  3  0  0  0  0  0  0
  -28.9230  -19.1690   21.1350 C   0  0  0  0  0  3  0  0  0  0  0  0
  -29.5870  -18.3690   19.2360 C   0  0  0  0  0  3  0  0  0  0  0  0
  -29.6650  -19.6920   19.9750 N   0  0  1  0  0  4  0  0  0  0  0  0
  -30.6220  -19.8470   20.2540 H   0  0  0  0  0  0  0  0  0  0  0  0
  -30.7370  -14.7090   19.7840 C   0  0  0  0  0  0  0  0  0  0  0  0
  -30.4960  -12.4140   18.8310 C   0  0  0  0  0  2  0  0  0  0  0  0
  -29.4880  -12.4560   17.6610 C   0  0  0  0  0  2  0  0  0  0  0  0
  -28.0400  -12.3100   18.1720 C   0  0  0  0  0  2  0  0  0  0  0  0
  -27.7370  -13.2340   19.3820 C   0  0  0  0  0  3  0  0  0  0  0  0
  -28.8530  -13.1550   20.4470 C   0  0  0  0  0  2  0  0  0  0  0  0
  -30.1200  -13.4830   19.7790 N   0  0  0  0  0  0  0  0  0  0  0  0
  -31.8960  -14.8380   19.3790 O   0  0  0  0  0  0  0  0  0  0  0  0
  -29.9470  -15.8030   20.0780 N   0  0  0  0  0  0  0  0  0  0  0  0
  -29.0040  -15.5450   20.3220 H   0  0  0  0  0  0  0  0  0  0  0  0
  -25.4190  -13.8750   20.2770 C   0  0  0  0  0  0  0  0  0  0  0  0
  -24.3530  -13.1220   20.6900 C   0  0  0  0  0  0  0  0  0  0  0  0
  -24.7710  -11.7590   20.5910 C   0  0  0  0  0  0  0  0  0  0  0  0
  -26.4180  -12.9720   19.9480 N   0  0  0  0  0  0  0  0  0  0  0  0
  -26.0370  -11.6930   20.1980 N   0  0  0  0  0  0  0  0  0  0  0  0
  -24.0190  -10.5140   20.7910 C   0  0  0  0  0  0  0  0  0  0  0  0
  -24.4590   -9.5240   21.6980 C   0  0  0  0  0  3  0  0  0  0  0  0
  -23.7100   -8.3420   21.8860 C   0  0  0  0  0  3  0  0  0  0  0  0
  -22.5080   -8.1430   21.1690 C   0  0  0  0  0  0  0  0  0  0  0  0
  -22.0860   -9.1210   20.2500 C   0  0  0  0  0  3  0  0  0  0  0  0
  -22.8360  -10.2940   20.0600 C   0  0  0  0  0  3  0  0  0  0  0  0
  -21.7280   -7.0160   21.2720 O   0  0  0  0  0  0  0  0  0  0  0  0
  -21.6750   -6.2790   22.4270 C   0  0  0  0  0  0  0  0  0  0  0  0
  -21.2630   -6.8430   23.6550 C   0  0  0  0  0  3  0  0  0  0  0  0
  -21.1530   -6.0330   24.8010 C   0  0  0  0  0  3  0  0  0  0  0  0
  -21.4490   -4.6590   24.7240 C   0  0  0  0  0  0  0  0  0  0  0  0
  -21.8540   -4.0930   23.5030 C   0  0  0  0  0  3  0  0  0  0  0  0
  -21.9630   -4.9000   22.3570 C   0  0  0  0  0  0  0  0  0  0  0  0
  -22.3340   -4.3460   21.1780 F   0  0  0  0  0  0  0  0  0  0  0  0
  -21.3360   -3.8780   25.8230 F   0  0  0  0  0  0  0  0  0  0  0  0
  -22.9920  -13.6310   21.0630 C   0  0  0  0  0  0  0  0  0  0  0  0
  -22.2990  -12.9310   21.9530 N   0  0  0  0  0  0  0  0  0  0  0  0
  -22.5540  -14.6850   20.6010 O   0  0  0  0  0  0  0  0  0  0  0  0
  -22.6690  -12.0780   22.3480 H   0  0  0  0  0  0  0  0  0  0  0  0
  -21.3870  -13.2510   22.2460 H   0  0  0  0  0  0  0  0  0  0  0  0
  -25.6130  -15.2450   20.1320 N   0  0  0  0  0  0  0  0  0  0  0  0
  -24.8630  -15.9060   20.3050 H   0  0  0  0  0  0  0  0  0  0  0  0
  -26.4300  -15.6750   19.7210 H   0  0  0  0  0  0  0  0  0  0  0  0
  -29.1740  -20.9950   19.3030 C   0  0  0  0  0  3  0  0  0  0  0  0
  -28.8970  -22.3210   20.1860 C   0  0  0  0  0  3  0  0  0  0  0  0
  -28.7290  -23.7590   19.4590 C   0  0  0  0  0  3  0  0  0  0  0  0
  -28.1580  -25.0200   20.2820 C   0  0  0  0  0  3  0  0  0  0  0  0
  -28.2940  -26.4210   19.7810 O   0  0  0  0  0  0  0  0  0  0  0  0
  -24.5630  -31.7080   23.0490 C   0  0  0  0  0  0  0  0  0  0  0  0
  -27.1700  -27.2650   19.8190 C   0  0  0  0  0  0  0  0  0  0  0  0
  -23.3480  -30.3500   21.3830 C   0  0  0  0  0  3  0  0  0  0  0  0
  -24.7900  -28.8550   19.8880 C   0  0  0  0  0  0  0  0  0  0  0  0
  -25.8780  -30.7030   21.1670 C   0  0  0  0  0  2  0  0  0  0  0  0
  -25.9650  -29.3440   20.4780 C   0  0  0  0  0  0  0  0  0  0  0  0
  -27.1600  -28.5630   20.4270 C   0  0  0  0  0  3  0  0  0  0  0  0
  -25.9750  -26.8320   19.2090 C   0  0  0  0  0  3  0  0  0  0  0  0
  -24.7980  -27.6070   19.2430 C   0  0  0  0  0  3  0  0  0  0  0  0
  -23.5460  -29.7160   19.9810 C   0  0  0  0  0  2  0  0  0  0  0  0
  -24.6160  -30.9370   21.9220 N   0  0  0  0  0  0  0  0  0  0  0  0
  -23.4860  -31.9550   23.6100 O   0  0  0  0  0  0  0  0  0  0  0  0
  -22.7100  -29.2990   22.3230 C   0  0  0  0  0  0  0  0  0  0  0  0
  -21.3810  -29.1150   22.2170 N   0  0  0  0  0  0  0  0  0  0  0  0
  -23.4080  -28.6490   23.1060 O   0  0  0  0  0  0  0  0  0  0  0  0
  -20.8760  -29.6940   21.5590 H   0  0  0  0  0  0  0  0  0  0  0  0
  -18.0240  -27.8760   22.7450 C   0  0  0  0  0  0  0  0  0  0  0  0
  -20.5850  -28.1460   22.9730 C   0  0  0  0  0  3  0  0  0  0  0  0
  -20.6850  -26.7360   22.3470 C   0  0  0  0  0  2  0  0  0  0  0  0
  -19.5650  -26.4390   21.3440 C   0  0  0  0  0  2  0  0  0  0  0  0
  -18.1960  -26.5530   22.0210 C   0  0  0  0  0  2  0  0  0  0  0  0
  -19.1460  -28.6320   23.1780 C   0  0  0  0  0  0  0  0  0  0  0  0
  -18.9300  -29.8720   23.8170 C   0  0  0  0  0  3  0  0  0  0  0  0
  -17.6250  -30.3570   24.0270 C   0  0  0  0  0  3  0  0  0  0  0  0
  -16.5180  -29.5980   23.6090 C   0  0  0  0  0  3  0  0  0  0  0  0
  -16.7180  -28.3600   22.9750 C   0  0  0  0  0  3  0  0  0  0  0  0
  -25.8490  -32.3360   23.6710 C   0  0  0  0  0  3  0  0  0  0  0  0
  -26.3970  -31.5290   24.9110 C   0  0  1  0  0  0  0  0  0  0  0  0
  -25.3290  -31.2450   25.9920 C   0  0  0  0  0  1  0  0  0  0  0  0
  -26.9860  -30.1700   24.4650 C   0  0  0  0  0  1  0  0  0  0  0  0
  -27.5550  -32.3120   25.5760 C   0  0  0  0  0  1  0  0  0  0  0  0
  -25.5300  -33.7190   24.0550 N   0  0  0  0  0  0  0  0  0  0  0  0
  -25.8330  -34.8020   23.3270 C   0  0  0  0  0  0  0  0  0  0  0  0
  -26.4830  -34.7430   22.2790 O   0  0  0  0  0  0  0  0  0  0  0  0
  -24.9530  -33.8370   24.8740 H   0  0  0  0  0  0  0  0  0  0  0  0
  -24.0790  -36.5850   23.0690 C   0  0  0  0  0  1  0  0  0  0  0  0
  -25.3390  -36.1670   23.8420 C   0  0  0  0  0  3  0  0  0  0  0  0
  -27.4790  -37.0500   24.6650 C   0  0  0  0  0  1  0  0  0  0  0  0
  -26.3570  -37.2360   23.7470 N   0  0  0  0  0  0  0  0  0  0  0  0
  -25.9420  -38.1460   23.9340 H   0  0  0  0  0  0  0  0  0  0  0  0
  2  1  1  0
  4 17  1  0
  4  3  1  0
  5  1  1  0
  5  3  1  0
  6  2  1  0
  6  7  1  0
  6  4  1  0
  7  8  1  1
  7  5  1  0
  9 17  1  0
 10 15  1  0
 11 12  1  0
 11 10  1  0
 13 12  1  0
 13 22  1  0
 13 14  1  0
 15  9  1  0
 15 14  1  0
 16  9  2  0
 17 18  1  0
 19 20  2  0
 20 39  1  0
 21 20  1  0
 21 24  1  0
 22 23  1  0
 22 19  1  0
 23 21  2  0
 24 25  1  0
 25 26  2  0
 27 30  1  0
 27 26  1  0
 28 27  2  0
 29 28  1  0
 29 24  2  0
 30 31  1  0
 31 32  1  0
 32 33  2  0
 34 33  1  0
 34 38  1  0
 35 34  2  0
 36 31  2  0
 36 35  1  0
 37 36  1  0
 39 40  1  0
 40 43  1  0
 40 42  1  0
 41 39  2  0
 44 19  1  0
 44 45  1  0
 46 44  1  0
 47  7  1  0
 47 48  2  0
 49 48  1  0
 49 50  2  0
 51 53  1  0
 51 50  1  0
 52 63  2  0
 53 58  1  0
 54 62  1  0
 54 64  1  0
 55 61  1  0
 55 57  1  0
 56 62  1  0
 57 56  1  0
 58 57  2  0
 59 60  1  0
 59 53  2  0
 60 55  2  0
 61 54  1  0
 62 52  1  0
 64 66  2  0
 65 64  1  0
 67 65  1  0
 68 77  2  0
 68 73  1  0
 69 65  1  0
 69 73  1  0
 70 69  1  0
 71 72  1  0
 71 70  1  0
 72 68  1  0
 73 74  2  0
 74 75  1  0
 76 75  2  0
 77 76  1  0
 78 52  1  0
 78 83  1  0
 78 79  1  0
 79 82  1  1
 79 80  1  0
 81 79  1  0
 83 86  1  0
 84 88  1  0
 84 83  1  0
 85 84  2  0
 88 87  1  0
 90 88  1  0
 90 91  1  0
 90 89  1  0
M  ISO  4   9 100  17 100  50 101  51 101
M  END
>  <TORSDO>  (37) 
F 20

>  <SCORE>  (37) 
-12.614

>  <name>  (37) 
36

>  <ligand_id>  (37) 
36

>  <original_smiles>  (37) 
[H]c1c([H])c([H])c2c(c1[H])C([H])([H])C([H])([H])C([H])([H])C2([H])N([H])C(=O)C1([H])N(C(=O)C([H])(N([H])C(=O)C([H])(N([H])C([H])([H])[H])C([H])([H])[H])C(C([H])([H])[H])(C([H])([H])[H])C([H])([H])[H])C([H])([H])c2c([H])c(OC([H])([H])C([H])([H])C([H])([H])C([H])([H])[N+]3([H])C4([H])C([H])([H])C([H])([H])C3([H])C([H])(N([H])C(=O)N3C([H])([H])C([H])([H])C([H])([H])C([H])(n5nc(-c6c([H])c([H])c(Oc7c([H])c([H])c(F)c([H])c7F)c([H])c6[H])c(C(=O)N([H])[H])c5N([H])[H])C3([H])[H])C4([H])[H])c([H])c([H])c2C1([H])[H]

>  <smiles>  (37) 
[H]c1c([H])c([H])c2c(c1[H])C([H])([H])C([H])([H])C([H])([H])C2([H])N([H])C(=O)C1([H])N(C(=O)C([H])(N([H])C(=O)C([H])(N([H])C([H])([H])[H])C([H])([H])[H])C(C([H])([H])[H])(C([H])([H])[H])C([H])([H])[H])C([H])([H])c2c([H])c(OC([H])([H])C([H])([H])C([H])([H])C([H])([H])[N+]3([H])C4([H])C([H])([H])C([H])([H])C3([H])C([H])(N([H])C(=O)N3C([H])([H])C([H])([H])C([H])([H])C([H])(n5nc(-c6c([H])c([H])c(Oc7c([H])c([H])c(F)c([H])c7F)c([H])c6[H])c(C(=O)N([H])[H])c5N([H])[H])C3([H])[H])C4([H])[H])c([H])c([H])c2C1([H])[H]

$$$$
37:0:0
     RDKit          3D

 88 96  0  0  1  0  0  0  0  0999 V2000
  -30.3500  -15.8690   20.3390 C   0  0  0  0  0  0  0  0  0  0  0  0
  -30.5330  -13.2980   19.5100 C   0  0  0  0  0  2  0  0  0  0  0  0
  -29.6750  -12.8210   18.3010 C   0  0  0  0  0  2  0  0  0  0  0  0
  -28.2660  -12.4000   18.7460 C   0  0  0  0  0  2  0  0  0  0  0  0
  -27.6970  -13.3950   19.7800 C   0  0  0  0  0  3  0  0  0  0  0  0
  -28.7040  -13.7900   20.8910 C   0  0  0  0  0  2  0  0  0  0  0  0
  -29.8510  -14.4740   20.2290 N   0  0  0  0  0  0  0  0  0  0  0  0
  -31.5960  -15.7690   20.3370 O   0  0  0  0  0  0  0  0  0  0  0  0
  -29.8040  -18.8280   20.4840 C   0  0  0  0  0  0  0  0  0  0  0  0
  -26.1700  -18.2820   18.5450 C   0  0  0  0  0  2  0  0  0  0  0  0
  -28.3250  -16.9110   19.5010 C   0  0  0  0  0  2  0  0  0  0  0  0
  -27.6090  -20.2190   19.7670 C   0  0  0  0  0  2  0  0  0  0  0  0
  -27.6420  -18.0070   18.7470 C   0  0  0  0  0  3  0  0  0  0  0  0
  -26.9220  -18.9050   19.6940 C   0  0  0  0  0  3  0  0  0  0  0  0
  -29.5640  -17.2600   20.2250 N   0  0  0  0  0  0  0  0  0  0  0  0
  -28.9750  -20.2020   20.3090 N   0  0  0  0  0  0  0  0  0  0  0  0
  -30.9160  -19.0550   20.9610 O   0  0  0  0  0  0  0  0  0  0  0  0
  -25.3060  -13.8790   20.4880 C   0  0  0  0  0  0  0  0  0  0  0  0
  -24.2580  -13.0830   20.8380 C   0  0  0  0  0  0  0  0  0  0  0  0
  -24.7600  -11.7460   20.8290 C   0  0  0  0  0  0  0  0  0  0  0  0
  -26.3800  -13.0330   20.2810 N   0  0  0  0  0  0  0  0  0  0  0  0
  -26.0620  -11.7390   20.5520 N   0  0  0  0  0  0  0  0  0  0  0  0
  -24.0510  -10.4730   21.0050 C   0  0  0  0  0  0  0  0  0  0  0  0
  -24.4540   -9.5330   21.9770 C   0  0  0  0  0  3  0  0  0  0  0  0
  -23.7400   -8.3280   22.1460 C   0  0  0  0  0  3  0  0  0  0  0  0
  -22.6100   -8.0530   21.3400 C   0  0  0  0  0  0  0  0  0  0  0  0
  -22.2290   -8.9820   20.3550 C   0  0  0  0  0  3  0  0  0  0  0  0
  -22.9440  -10.1790   20.1860 C   0  0  0  0  0  3  0  0  0  0  0  0
  -21.8720   -6.8980   21.4130 O   0  0  0  0  0  0  0  0  0  0  0  0
  -21.7530   -6.1950   22.5850 C   0  0  0  0  0  0  0  0  0  0  0  0
  -21.1900   -6.7700   23.7450 C   0  0  0  0  0  3  0  0  0  0  0  0
  -21.0240   -5.9900   24.9070 C   0  0  0  0  0  3  0  0  0  0  0  0
  -21.4100   -4.6370   24.9080 C   0  0  0  0  0  0  0  0  0  0  0  0
  -21.9640   -4.0600   23.7510 C   0  0  0  0  0  3  0  0  0  0  0  0
  -22.1320   -4.8370   22.5920 C   0  0  0  0  0  0  0  0  0  0  0  0
  -22.6480   -4.2720   21.4740 F   0  0  0  0  0  0  0  0  0  0  0  0
  -21.2420   -3.8840   26.0210 F   0  0  0  0  0  0  0  0  0  0  0  0
  -22.8450  -13.5360   21.0620 C   0  0  0  0  0  0  0  0  0  0  0  0
  -22.1140  -12.8390   21.9210 N   0  0  0  0  0  0  0  0  0  0  0  0
  -22.4010  -14.5450   20.5140 O   0  0  0  0  0  0  0  0  0  0  0  0
  -22.4970  -12.0260   22.3810 H   0  0  0  0  0  0  0  0  0  0  0  0
  -21.1660  -13.1200   22.1270 H   0  0  0  0  0  0  0  0  0  0  0  0
  -25.4170  -15.2470   20.2880 N   0  0  0  0  0  0  0  0  0  0  0  0
  -24.5960  -15.8420   20.3240 H   0  0  0  0  0  0  0  0  0  0  0  0
  -26.2140  -15.6880   19.8540 H   0  0  0  0  0  0  0  0  0  0  0  0
  -29.1580  -21.9960   20.5330 C   0  0  0  0  0  1  0  0  0  0  0  0
  -28.1460  -23.7030   20.3480 C   0  0  0  0  0  1  0  0  0  0  0  0
  -28.2630  -25.4930   20.5000 O   0  0  0  0  0  0  0  0  0  0  0  0
  -24.7080  -31.8840   23.3030 C   0  0  0  0  0  0  0  0  0  0  0  0
  -27.2870  -26.7260   20.4120 C   0  0  0  0  0  0  0  0  0  0  0  0
  -23.5490  -30.4740   21.6520 C   0  0  0  0  0  3  0  0  0  0  0  0
  -25.0220  -28.7960   20.2910 C   0  0  0  0  0  0  0  0  0  0  0  0
  -26.1300  -30.5960   21.5820 C   0  0  0  0  0  2  0  0  0  0  0  0
  -26.2070  -29.1480   20.9460 C   0  0  0  0  0  0  0  0  0  0  0  0
  -27.3200  -28.1450   20.9710 C   0  0  0  0  0  3  0  0  0  0  0  0
  -26.0650  -26.5980   19.6970 C   0  0  0  0  0  3  0  0  0  0  0  0
  -24.9930  -27.5470   19.6420 C   0  0  0  0  0  3  0  0  0  0  0  0
  -23.8180  -29.7570   20.2960 C   0  0  0  0  0  2  0  0  0  0  0  0
  -24.8200  -31.0180   22.2330 N   0  0  0  0  0  0  0  0  0  0  0  0
  -23.6060  -32.1930   23.7890 O   0  0  0  0  0  0  0  0  0  0  0  0
  -22.8060  -29.5130   22.6190 C   0  0  0  0  0  0  0  0  0  0  0  0
  -21.4730  -29.3710   22.4760 N   0  0  0  0  0  0  0  0  0  0  0  0
  -23.4400  -28.8930   23.4760 O   0  0  0  0  0  0  0  0  0  0  0  0
  -21.0090  -29.9270   21.7720 H   0  0  0  0  0  0  0  0  0  0  0  0
  -18.0690  -28.1920   22.9540 C   0  0  0  0  0  0  0  0  0  0  0  0
  -20.6290  -28.4440   23.2400 C   0  0  0  0  0  3  0  0  0  0  0  0
  -20.7210  -27.0070   22.6720 C   0  0  0  0  0  2  0  0  0  0  0  0
  -19.6280  -26.6910   21.6450 C   0  0  0  0  0  2  0  0  0  0  0  0
  -18.2420  -26.8430   22.2760 C   0  0  0  0  0  2  0  0  0  0  0  0
  -19.1880  -28.9490   23.3920 C   0  0  0  0  0  0  0  0  0  0  0  0
  -18.9680  -30.2070   23.9950 C   0  0  0  0  0  3  0  0  0  0  0  0
  -17.6640  -30.7120   24.1540 C   0  0  0  0  0  3  0  0  0  0  0  0
  -16.5590  -29.9540   23.7290 C   0  0  0  0  0  3  0  0  0  0  0  0
  -16.7630  -28.6950   23.1360 C   0  0  0  0  0  3  0  0  0  0  0  0
  -25.9590  -32.5380   23.9640 C   0  0  0  0  0  3  0  0  0  0  0  0
  -25.6420  -33.9500   24.2600 N   0  0  0  0  0  0  0  0  0  0  0  0
  -25.9810  -34.9960   23.4960 C   0  0  0  0  0  0  0  0  0  0  0  0
  -26.6480  -34.8750   22.4660 O   0  0  0  0  0  0  0  0  0  0  0  0
  -25.0450  -34.1160   25.0580 H   0  0  0  0  0  0  0  0  0  0  0  0
  -24.2430  -36.7940   23.1570 C   0  0  0  0  0  1  0  0  0  0  0  0
  -25.5080  -36.4000   23.9370 C   0  0  0  0  0  3  0  0  0  0  0  0
  -27.6590  -37.3190   24.6910 C   0  0  0  0  0  1  0  0  0  0  0  0
  -26.5370  -37.4510   23.7670 N   0  0  0  0  0  0  0  0  0  0  0  0
  -26.1310  -38.3730   23.8950 H   0  0  0  0  0  0  0  0  0  0  0  0
  -26.4110  -31.8050   25.2890 C   0  0  1  0  0  0  0  0  0  0  0  0
  -25.2720  -31.6140   26.3170 C   0  0  0  0  0  1  0  0  0  0  0  0
  -26.9940  -30.4090   24.9770 C   0  0  0  0  0  1  0  0  0  0  0  0
  -27.5400  -32.6090   25.9760 C   0  0  0  0  0  1  0  0  0  0  0  0
  2  7  1  0
  3  4  1  0
  3  2  1  0
  5  4  1  0
  5 21  1  0
  5  6  1  0
  7  1  1  0
  7  6  1  0
  8  1  2  0
  9 17  2  0
 11 15  1  0
 12 16  1  0
 13 10  1  0
 13 11  1  0
 13 14  1  0
 14 10  1  0
 14 12  1  0
 15  1  1  0
 15  9  1  0
 16  9  1  0
 16 46  1  0
 18 19  2  0
 19 38  1  0
 20 19  1  0
 20 23  1  0
 21 18  1  0
 21 22  1  0
 22 20  2  0
 23 24  1  0
 24 25  2  0
 26 29  1  0
 26 25  1  0
 27 26  2  0
 28 27  1  0
 28 23  2  0
 29 30  1  0
 30 35  2  0
 30 31  1  0
 31 32  2  0
 32 33  1  0
 33 37  1  0
 34 33  2  0
 35 34  1  0
 36 35  1  0
 38 39  1  0
 39 42  1  0
 39 41  1  0
 40 38  2  0
 43 44  1  0
 43 18  1  0
 45 43  1  0
 47 48  1  0
 49 60  2  0
 50 48  1  0
 50 55  1  0
 51 59  1  0
 51 61  1  0
 52 58  1  0
 52 54  1  0
 53 59  1  0
 54 55  2  0
 54 53  1  0
 56 50  2  0
 57 56  1  0
 57 52  2  0
 58 51  1  0
 59 49  1  0
 61 63  2  0
 62 61  1  0
 64 62  1  0
 65 74  2  0
 65 70  1  0
 66 62  1  0
 66 70  1  0
 67 66  1  0
 68 69  1  0
 68 67  1  0
 69 65  1  0
 70 71  2  0
 71 72  1  0
 73 72  2  0
 74 73  1  0
 75 49  1  0
 75 76  1  0
 75 85  1  0
 76 79  1  0
 77 81  1  0
 77 76  1  0
 78 77  2  0
 81 80  1  0
 83 84  1  0
 83 81  1  0
 83 82  1  0
 85 88  1  1
 85 86  1  0
 87 85  1  0
M  ISO  4   1 100  15 100  47 101  48 101
M  END
>  <TORSDO>  (38) 
F 17

>  <SCORE>  (38) 
-15.397

>  <name>  (38) 
37

>  <ligand_id>  (38) 
37

>  <original_smiles>  (38) 
[H]c1c([H])c([H])c2c(c1[H])C([H])([H])C([H])([H])C([H])([H])C2([H])N([H])C(=O)C1([H])N(C(=O)C([H])(N([H])C(=O)C([H])(N([H])C([H])([H])[H])C([H])([H])[H])C(C([H])([H])[H])(C([H])([H])[H])C([H])([H])[H])C([H])([H])c2c([H])c(OC([H])([H])C([H])([H])N3C(=O)N(C(=O)N4C([H])([H])C([H])([H])C([H])([H])C([H])(n5nc(-c6c([H])c([H])c(Oc7c([H])c([H])c(F)c([H])c7F)c([H])c6[H])c(C(=O)N([H])[H])c5N([H])[H])C4([H])[H])C([H])([H])C4([H])C([H])([H])C4([H])C3([H])[H])c([H])c([H])c2C1([H])[H]

>  <smiles>  (38) 
[H]c1c([H])c([H])c2c(c1[H])C([H])([H])C([H])([H])C([H])([H])C2([H])N([H])C(=O)C1([H])N(C(=O)C([H])(N([H])C(=O)C([H])(N([H])C([H])([H])[H])C([H])([H])[H])C(C([H])([H])[H])(C([H])([H])[H])C([H])([H])[H])C([H])([H])c2c([H])c(OC([H])([H])C([H])([H])N3C(=O)N(C(=O)N4C([H])([H])C([H])([H])C([H])([H])C([H])(n5nc(-c6c([H])c([H])c(Oc7c([H])c([H])c(F)c([H])c7F)c([H])c6[H])c(C(=O)N([H])[H])c5N([H])[H])C4([H])[H])C([H])([H])C4([H])C([H])([H])C4([H])C3([H])[H])c([H])c([H])c2C1([H])[H]

$$$$
38:0:0
     RDKit          3D

 94103  0  0  1  0  0  0  0  0999 V2000
  -30.9190  -18.8700   18.7210 C   0  0  0  0  0  3  0  0  0  0  0  0
  -30.9190  -17.5100   19.1150 C   0  0  0  0  0  3  0  0  0  0  0  0
  -29.6320  -18.0610   21.1260 C   0  0  0  0  0  3  0  0  0  0  0  0
  -30.2530  -19.8090   19.5290 C   0  0  0  0  0  0  0  0  0  0  0  0
  -29.6300  -19.4230   20.7120 C   0  0  0  0  0  0  0  0  0  0  0  0
  -30.2830  -17.0790   20.3170 C   0  0  0  0  0  0  0  0  0  0  0  0
  -30.0650  -21.2570   19.2940 C   0  0  0  0  0  0  0  0  0  0  0  0
  -28.9900  -20.6300   21.3900 C   0  0  0  0  0  2  0  0  0  0  0  0
  -29.0430  -21.7810   20.3280 C   0  0  0  0  0  3  0  0  0  0  0  0
  -30.6060  -21.9190   18.4030 O   0  0  0  0  0  0  0  0  0  0  0  0
  -30.9130  -14.6370   20.1820 C   0  0  0  0  0  0  0  0  0  0  0  0
  -30.5920  -12.4510   19.0820 C   0  0  0  0  0  2  0  0  0  0  0  0
  -29.6170  -12.6530   17.9020 C   0  0  0  0  0  2  0  0  0  0  0  0
  -28.1540  -12.5090   18.3720 C   0  0  0  0  0  2  0  0  0  0  0  0
  -27.8520  -13.3480   19.6410 C   0  0  0  0  0  3  0  0  0  0  0  0
  -28.9420  -13.1470   20.7190 C   0  0  0  0  0  2  0  0  0  0  0  0
  -30.2480  -13.4470   20.1120 N   0  0  0  0  0  0  0  0  0  0  0  0
  -32.0410  -14.7860   19.7080 O   0  0  0  0  0  0  0  0  0  0  0  0
  -30.2140  -15.6850   20.6900 N   0  0  0  0  0  0  0  0  0  0  0  0
  -29.4180  -15.4240   21.2510 H   0  0  0  0  0  0  0  0  0  0  0  0
  -25.4880  -13.9620   20.4520 C   0  0  0  0  0  0  0  0  0  0  0  0
  -24.4250  -13.1910   20.8400 C   0  0  0  0  0  0  0  0  0  0  0  0
  -24.8720  -11.8360   20.7640 C   0  0  0  0  0  0  0  0  0  0  0  0
  -26.5150  -13.0760   20.1630 N   0  0  0  0  0  0  0  0  0  0  0  0
  -26.1480  -11.7920   20.4080 N   0  0  0  0  0  0  0  0  0  0  0  0
  -24.1400  -10.5780   20.9550 C   0  0  0  0  0  0  0  0  0  0  0  0
  -24.5560   -9.6160   21.9030 C   0  0  0  0  0  3  0  0  0  0  0  0
  -23.8260   -8.4210   22.0790 C   0  0  0  0  0  3  0  0  0  0  0  0
  -22.6630   -8.1800   21.3090 C   0  0  0  0  0  0  0  0  0  0  0  0
  -22.2660   -9.1300   20.3510 C   0  0  0  0  0  3  0  0  0  0  0  0
  -22.9970  -10.3160   20.1740 C   0  0  0  0  0  3  0  0  0  0  0  0
  -21.9060   -7.0370   21.3950 O   0  0  0  0  0  0  0  0  0  0  0  0
  -21.8000   -6.3300   22.5650 C   0  0  0  0  0  0  0  0  0  0  0  0
  -21.2530   -6.9030   23.7350 C   0  0  0  0  0  3  0  0  0  0  0  0
  -21.1000   -6.1190   24.8950 C   0  0  0  0  0  3  0  0  0  0  0  0
  -21.4820   -4.7640   24.8890 C   0  0  0  0  0  0  0  0  0  0  0  0
  -22.0190   -4.1910   23.7220 C   0  0  0  0  0  3  0  0  0  0  0  0
  -22.1760   -4.9720   22.5630 C   0  0  0  0  0  0  0  0  0  0  0  0
  -22.6780   -4.4100   21.4370 F   0  0  0  0  0  0  0  0  0  0  0  0
  -21.3240   -4.0090   26.0010 F   0  0  0  0  0  0  0  0  0  0  0  0
  -23.0420  -13.6780   21.1720 C   0  0  0  0  0  0  0  0  0  0  0  0
  -22.3360  -12.9720   22.0480 N   0  0  0  0  0  0  0  0  0  0  0  0
  -22.5990  -14.7200   20.6910 O   0  0  0  0  0  0  0  0  0  0  0  0
  -22.7060  -12.1280   22.4590 H   0  0  0  0  0  0  0  0  0  0  0  0
  -21.4130  -13.2850   22.3150 H   0  0  0  0  0  0  0  0  0  0  0  0
  -25.6620  -15.3350   20.3000 N   0  0  0  0  0  0  0  0  0  0  0  0
  -24.9050  -15.9920   20.4460 H   0  0  0  0  0  0  0  0  0  0  0  0
  -26.4980  -15.7710   19.9300 H   0  0  0  0  0  0  0  0  0  0  0  0
  -29.4170  -23.1380   20.8430 N   0  0  0  0  0  4  0  0  0  0  0  0
  -30.4160  -23.1530   20.9900 H   0  0  0  0  0  0  0  0  0  0  0  0
  -28.9810  -23.2320   21.7450 H   0  0  0  0  0  0  0  0  0  0  0  0
  -29.0190  -24.3170   19.9980 C   0  0  0  0  0  2  0  0  0  0  0  0
  -28.6560  -25.5950   20.8140 C   0  0  0  0  0  2  0  0  0  0  0  0
  -28.5940  -26.8000   20.0170 O   0  0  0  0  0  0  0  0  0  0  0  0
  -24.6970  -31.8470   23.2570 C   0  0  0  0  0  0  0  0  0  0  0  0
  -27.4180  -27.5230   20.0680 C   0  0  0  0  0  0  0  0  0  0  0  0
  -23.5190  -30.4910   21.5550 C   0  0  0  0  0  3  0  0  0  0  0  0
  -25.0040  -29.0070   20.1000 C   0  0  0  0  0  0  0  0  0  0  0  0
  -26.0420  -30.8780   21.3930 C   0  0  0  0  0  2  0  0  0  0  0  0
  -26.1500  -29.5250   20.7140 C   0  0  0  0  0  0  0  0  0  0  0  0
  -27.3620  -28.7930   20.6930 C   0  0  0  0  0  3  0  0  0  0  0  0
  -26.2560  -27.0190   19.4470 C   0  0  0  0  0  3  0  0  0  0  0  0
  -25.0530  -27.7560   19.4600 C   0  0  0  0  0  3  0  0  0  0  0  0
  -23.7500  -29.8530   20.1580 C   0  0  0  0  0  2  0  0  0  0  0  0
  -24.7710  -31.0860   22.1280 N   0  0  0  0  0  0  0  0  0  0  0  0
  -23.6090  -32.0910   23.7970 O   0  0  0  0  0  0  0  0  0  0  0  0
  -22.8680  -29.4340   22.4770 C   0  0  0  0  0  0  0  0  0  0  0  0
  -21.5430  -29.2630   22.3490 N   0  0  0  0  0  0  0  0  0  0  0  0
  -23.5550  -28.7720   23.2610 O   0  0  0  0  0  0  0  0  0  0  0  0
  -21.0530  -29.8560   21.6940 H   0  0  0  0  0  0  0  0  0  0  0  0
  -18.1630  -28.0830   22.8280 C   0  0  0  0  0  0  0  0  0  0  0  0
  -20.7250  -28.2950   23.0810 C   0  0  0  0  0  3  0  0  0  0  0  0
  -20.8030  -26.8960   22.4270 C   0  0  0  0  0  2  0  0  0  0  0  0
  -19.6840  -26.6410   21.4120 C   0  0  0  0  0  2  0  0  0  0  0  0
  -18.3130  -26.7680   22.0800 C   0  0  0  0  0  2  0  0  0  0  0  0
  -19.2950  -28.8060   23.2840 C   0  0  0  0  0  0  0  0  0  0  0  0
  -19.0990  -30.0410   23.9400 C   0  0  0  0  0  3  0  0  0  0  0  0
  -17.8030  -30.5490   24.1450 C   0  0  0  0  0  3  0  0  0  0  0  0
  -16.6830  -29.8210   23.7090 C   0  0  0  0  0  3  0  0  0  0  0  0
  -16.8650  -28.5900   23.0540 C   0  0  0  0  0  3  0  0  0  0  0  0
  -25.9710  -32.4670   23.9120 C   0  0  0  0  0  3  0  0  0  0  0  0
  -26.4410  -31.6980   25.2080 C   0  0  1  0  0  0  0  0  0  0  0  0
  -25.3140  -31.4800   26.2440 C   0  0  0  0  0  1  0  0  0  0  0  0
  -27.0190  -30.3120   24.8380 C   0  0  0  0  0  1  0  0  0  0  0  0
  -27.5800  -32.4840   25.8980 C   0  0  0  0  0  1  0  0  0  0  0  0
  -25.6720  -33.8720   24.2220 N   0  0  0  0  0  0  0  0  0  0  0  0
  -26.0410  -34.9130   23.4640 C   0  0  0  0  0  0  0  0  0  0  0  0
  -26.7410  -34.7910   22.4540 O   0  0  0  0  0  0  0  0  0  0  0  0
  -25.0560  -34.0420   25.0030 H   0  0  0  0  0  0  0  0  0  0  0  0
  -24.3660  -36.7360   23.0220 C   0  0  0  0  0  1  0  0  0  0  0  0
  -25.5590  -36.3120   23.8930 C   0  0  0  0  0  3  0  0  0  0  0  0
  -27.6590  -37.1700   24.8340 C   0  0  0  0  0  1  0  0  0  0  0  0
  -26.6160  -37.3450   23.8280 N   0  0  0  0  0  0  0  0  0  0  0  0
  -26.2200  -38.2750   23.9400 H   0  0  0  0  0  0  0  0  0  0  0  0
  1  2  2  0
  1  4  1  0
  2  6  1  0
  4  5  2  0
  5  3  1  0
  5  8  1  0
  6 19  1  0
  6  3  2  0
  7  4  1  0
  7  9  1  0
  9 49  1  0
  9  8  1  0
 10  7  2  0
 11 19  1  0
 12 17  1  0
 13 14  1  0
 13 12  1  0
 15 14  1  0
 15 24  1  0
 15 16  1  0
 17 11  1  0
 17 16  1  0
 18 11  2  0
 19 20  1  0
 21 22  2  0
 22 41  1  0
 23 22  1  0
 23 26  1  0
 24 25  1  0
 24 21  1  0
 25 23  2  0
 26 27  1  0
 27 28  2  0
 29 32  1  0
 29 28  1  0
 30 29  2  0
 31 30  1  0
 31 26  2  0
 32 33  1  0
 33 34  1  0
 34 35  2  0
 36 35  1  0
 36 40  1  0
 37 36  2  0
 38 33  2  0
 38 37  1  0
 39 38  1  0
 41 42  1  0
 42 45  1  0
 42 44  1  0
 43 41  2  0
 46 47  1  0
 46 21  1  0
 48 46  1  0
 49 50  1  0
 49 51  1  0
 52 53  1  0
 52 49  1  0
 54 56  1  0
 54 53  1  0
 55 66  2  0
 56 61  1  0
 57 65  1  0
 57 67  1  0
 58 64  1  0
 58 60  1  0
 59 65  1  0
 60 59  1  0
 61 60  2  0
 62 63  1  0
 62 56  2  0
 63 58  2  0
 64 57  1  0
 65 55  1  0
 67 69  2  0
 68 67  1  0
 70 68  1  0
 71 80  2  0
 71 76  1  0
 72 68  1  0
 72 76  1  0
 73 72  1  0
 74 75  1  0
 74 73  1  0
 75 71  1  0
 76 77  2  0
 77 78  1  0
 79 78  2  0
 80 79  1  0
 81 55  1  0
 81 86  1  0
 81 82  1  0
 82 85  1  1
 82 83  1  0
 84 82  1  0
 86 89  1  0
 87 91  1  0
 87 86  1  0
 88 87  2  0
 91 90  1  0
 93 91  1  0
 93 94  1  0
 93 92  1  0
M  ISO  4  11 100  19 100  53 101  54 101
M  END
>  <TORSDO>  (39) 
F 19

>  <SCORE>  (39) 
-13.900

>  <name>  (39) 
38

>  <ligand_id>  (39) 
38

>  <original_smiles>  (39) 
[H]c1c([H])c([H])c2c(c1[H])C([H])([H])C([H])([H])C([H])([H])C2([H])N([H])C(=O)C1([H])N(C(=O)C([H])(N([H])C(=O)C([H])(N([H])C([H])([H])[H])C([H])([H])[H])C(C([H])([H])[H])(C([H])([H])[H])C([H])([H])[H])C([H])([H])c2c([H])c(OC([H])([H])C([H])([H])[N+]([H])([H])C3([H])C(=O)c4c([H])c([H])c(N([H])C(=O)N5C([H])([H])C([H])([H])C([H])([H])C([H])(n6nc(-c7c([H])c([H])c(Oc8c([H])c([H])c(F)c([H])c8F)c([H])c7[H])c(C(=O)N([H])[H])c6N([H])[H])C5([H])[H])c([H])c4C3([H])[H])c([H])c([H])c2C1([H])[H]

>  <smiles>  (39) 
[H]c1c([H])c([H])c2c(c1[H])C([H])([H])C([H])([H])C([H])([H])C2([H])N([H])C(=O)C1([H])N(C(=O)C([H])(N([H])C(=O)C([H])(N([H])C([H])([H])[H])C([H])([H])[H])C(C([H])([H])[H])(C([H])([H])[H])C([H])([H])[H])C([H])([H])c2c([H])c(OC([H])([H])C([H])([H])[N+]([H])([H])C3([H])C(=O)c4c([H])c([H])c(N([H])C(=O)N5C([H])([H])C([H])([H])C([H])([H])C([H])(n6nc(-c7c([H])c([H])c(Oc8c([H])c([H])c(F)c([H])c8F)c([H])c7[H])c(C(=O)N([H])[H])c6N([H])[H])C5([H])[H])c([H])c4C3([H])[H])c([H])c([H])c2C1([H])[H]

$$$$
39:0:0
     RDKit          3D

 95102  0  0  1  0  0  0  0  0999 V2000
  -29.4240  -20.4190   19.7540 C   0  0  0  0  0  2  0  0  0  0  0  0
  -28.7700  -21.7330   19.4200 N   0  0  0  0  0  4  0  0  0  0  0  0
  -27.7980  -21.5790   19.2070 H   0  0  0  0  0  0  0  0  0  0  0  0
  -29.2020  -22.0340   18.5600 H   0  0  0  0  0  0  0  0  0  0  0  0
  -28.9060  -22.8870   20.3630 C   0  0  0  0  0  2  0  0  0  0  0  0
  -28.4980  -24.2720   19.7330 C   0  0  0  0  0  3  0  0  0  0  0  0
  -28.4800  -25.4770   20.7290 C   0  0  0  0  0  3  0  0  0  0  0  0
  -28.4410  -26.7930   20.1320 O   0  0  0  0  0  0  0  0  0  0  0  0
  -24.5840  -31.9470   23.2630 C   0  0  0  0  0  0  0  0  0  0  0  0
  -27.2560  -27.5010   20.1850 C   0  0  0  0  0  0  0  0  0  0  0  0
  -23.3860  -30.5390   21.6180 C   0  0  0  0  0  3  0  0  0  0  0  0
  -24.8500  -29.0000   20.1990 C   0  0  0  0  0  0  0  0  0  0  0  0
  -25.9100  -30.9060   21.4230 C   0  0  0  0  0  2  0  0  0  0  0  0
  -26.0040  -29.5310   20.7850 C   0  0  0  0  0  0  0  0  0  0  0  0
  -27.2120  -28.7920   20.7670 C   0  0  0  0  0  3  0  0  0  0  0  0
  -26.0830  -26.9860   19.5960 C   0  0  0  0  0  3  0  0  0  0  0  0
  -24.8840  -27.7260   19.6010 C   0  0  0  0  0  3  0  0  0  0  0  0
  -23.6020  -29.8530   20.2410 C   0  0  0  0  0  2  0  0  0  0  0  0
  -24.6450  -31.1470   22.1600 N   0  0  0  0  0  0  0  0  0  0  0  0
  -23.5000  -32.2150   23.8020 O   0  0  0  0  0  0  0  0  0  0  0  0
  -22.7380  -29.5190   22.5810 C   0  0  0  0  0  0  0  0  0  0  0  0
  -21.4150  -29.3290   22.4510 N   0  0  0  0  0  0  0  0  0  0  0  0
  -23.4250  -28.9000   23.3980 O   0  0  0  0  0  0  0  0  0  0  0  0
  -20.9230  -29.8910   21.7700 H   0  0  0  0  0  0  0  0  0  0  0  0
  -18.0440  -28.1230   22.9450 C   0  0  0  0  0  0  0  0  0  0  0  0
  -20.6010  -28.3830   23.2140 C   0  0  0  0  0  3  0  0  0  0  0  0
  -20.7060  -26.9560   22.6270 C   0  0  0  0  0  2  0  0  0  0  0  0
  -19.6010  -26.6370   21.6150 C   0  0  0  0  0  2  0  0  0  0  0  0
  -18.2210  -26.7770   22.2630 C   0  0  0  0  0  2  0  0  0  0  0  0
  -19.1620  -28.8840   23.3780 C   0  0  0  0  0  0  0  0  0  0  0  0
  -18.9410  -30.1440   23.9780 C   0  0  0  0  0  3  0  0  0  0  0  0
  -17.6370  -30.6410   24.1480 C   0  0  0  0  0  3  0  0  0  0  0  0
  -16.5330  -29.8780   23.7290 C   0  0  0  0  0  3  0  0  0  0  0  0
  -16.7390  -28.6200   23.1340 C   0  0  0  0  0  3  0  0  0  0  0  0
  -25.8670  -32.5820   23.8860 C   0  0  0  0  0  3  0  0  0  0  0  0
  -26.3810  -31.8190   25.1680 C   0  0  1  0  0  0  0  0  0  0  0  0
  -25.2810  -31.5840   26.2310 C   0  0  0  0  0  1  0  0  0  0  0  0
  -26.9670  -30.4410   24.7800 C   0  0  0  0  0  1  0  0  0  0  0  0
  -27.5260  -32.6190   25.8310 C   0  0  0  0  0  1  0  0  0  0  0  0
  -25.5600  -33.9830   24.2020 N   0  0  0  0  0  0  0  0  0  0  0  0
  -25.8940  -35.0280   23.4330 C   0  0  0  0  0  0  0  0  0  0  0  0
  -26.5630  -34.9140   22.4020 O   0  0  0  0  0  0  0  0  0  0  0  0
  -24.9680  -34.1450   25.0040 H   0  0  0  0  0  0  0  0  0  0  0  0
  -24.1690  -36.8180   23.0580 C   0  0  0  0  0  1  0  0  0  0  0  0
  -25.4080  -36.4210   23.8770 C   0  0  0  0  0  3  0  0  0  0  0  0
  -27.5390  -37.3130   24.7110 C   0  0  0  0  0  1  0  0  0  0  0  0
  -26.4420  -37.4710   23.7580 N   0  0  0  0  0  0  0  0  0  0  0  0
  -26.0360  -38.3940   23.8920 H   0  0  0  0  0  0  0  0  0  0  0  0
  -28.5720  -19.4080   20.5910 C   0  0  0  0  0  2  0  0  0  0  0  0
  -28.7370  -17.8630   20.3080 C   0  0  0  0  0  2  0  0  0  0  0  0
  -30.0510  -17.0630   20.6520 C   0  0  0  0  0  3  0  0  0  0  0  0
  -30.5620  -14.5910   20.1090 C   0  0  0  0  0  0  0  0  0  0  0  0
  -30.3320  -12.3560   19.0660 C   0  0  0  0  0  2  0  0  0  0  0  0
  -29.3350  -12.4620   17.8910 C   0  0  0  0  0  2  0  0  0  0  0  0
  -27.8820  -12.3020   18.3840 C   0  0  0  0  0  2  0  0  0  0  0  0
  -27.5670  -13.1920   19.6160 C   0  0  0  0  0  3  0  0  0  0  0  0
  -28.6660  -13.0370   20.6900 C   0  0  0  0  0  2  0  0  0  0  0  0
  -29.9540  -13.3730   20.0610 N   0  0  0  0  0  0  0  0  0  0  0  0
  -31.6750  -14.7960   19.6140 O   0  0  0  0  0  0  0  0  0  0  0  0
  -29.7890  -15.5960   20.5950 N   0  0  0  0  0  0  0  0  0  0  0  0
  -28.8900  -15.2950   20.9400 H   0  0  0  0  0  0  0  0  0  0  0  0
  -25.2210  -13.8100   20.4740 C   0  0  0  0  0  0  0  0  0  0  0  0
  -24.1660  -13.0400   20.8830 C   0  0  0  0  0  0  0  0  0  0  0  0
  -24.6100  -11.6860   20.7990 C   0  0  0  0  0  0  0  0  0  0  0  0
  -26.2400  -12.9230   20.1620 N   0  0  0  0  0  0  0  0  0  0  0  0
  -25.8800  -11.6400   20.4150 N   0  0  0  0  0  0  0  0  0  0  0  0
  -23.8830  -10.4280   21.0040 C   0  0  0  0  0  0  0  0  0  0  0  0
  -24.3420   -9.4500   21.9130 C   0  0  0  0  0  3  0  0  0  0  0  0
  -23.6160   -8.2550   22.1060 C   0  0  0  0  0  3  0  0  0  0  0  0
  -22.4190   -8.0290   21.3850 C   0  0  0  0  0  0  0  0  0  0  0  0
  -21.9800   -8.9930   20.4620 C   0  0  0  0  0  3  0  0  0  0  0  0
  -22.7070  -10.1800   20.2680 C   0  0  0  0  0  3  0  0  0  0  0  0
  -21.6600   -6.8870   21.4900 O   0  0  0  0  0  0  0  0  0  0  0  0
  -21.6330   -6.1430   22.6420 C   0  0  0  0  0  0  0  0  0  0  0  0
  -21.1860   -6.6840   23.8680 C   0  0  0  0  0  3  0  0  0  0  0  0
  -21.1070   -5.8650   25.0110 C   0  0  0  0  0  3  0  0  0  0  0  0
  -21.4630   -4.5050   24.9300 C   0  0  0  0  0  0  0  0  0  0  0  0
  -21.9000   -3.9630   23.7090 C   0  0  0  0  0  3  0  0  0  0  0  0
  -21.9830   -4.7800   22.5680 C   0  0  0  0  0  0  0  0  0  0  0  0
  -22.3860   -4.2470   21.3890 F   0  0  0  0  0  0  0  0  0  0  0  0
  -21.3780   -3.7160   26.0260 F   0  0  0  0  0  0  0  0  0  0  0  0
  -22.7900  -13.5260   21.2380 C   0  0  0  0  0  0  0  0  0  0  0  0
  -22.0980  -12.8180   22.1240 N   0  0  0  0  0  0  0  0  0  0  0  0
  -22.3380  -14.5650   20.7620 O   0  0  0  0  0  0  0  0  0  0  0  0
  -22.4730  -11.9740   22.5300 H   0  0  0  0  0  0  0  0  0  0  0  0
  -21.1780  -13.1280   22.4020 H   0  0  0  0  0  0  0  0  0  0  0  0
  -25.3880  -15.1830   20.3210 N   0  0  0  0  0  0  0  0  0  0  0  0
  -24.6290  -15.8310   20.4980 H   0  0  0  0  0  0  0  0  0  0  0  0
  -26.2130  -15.6340   19.9460 H   0  0  0  0  0  0  0  0  0  0  0  0
  -30.6380  -17.4150   22.0480 C   0  0  0  0  0  2  0  0  0  0  0  0
  -31.3450  -18.7750   22.1290 C   0  0  0  0  0  0  0  0  0  0  0  0
  -31.1080  -19.5300   23.1930 N   0  0  0  0  0  0  0  0  0  0  0  0
  -32.1100  -19.1540   21.2460 O   0  0  0  0  0  0  0  0  0  0  0  0
  -30.4880  -19.2130   23.9270 H   0  0  0  0  0  0  0  0  0  0  0  0
  -31.5600  -20.4280   23.2850 H   0  0  0  0  0  0  0  0  0  0  0  0
  1 49  1  0
  2  1  1  0
  2  5  1  0
  3  2  1  0
  4  2  1  0
  6  5  1  0
  6  7  2  0
  8 10  1  0
  8  7  1  0
  9 20  2  0
 10 15  1  0
 11 19  1  0
 11 21  1  0
 12 18  1  0
 12 14  1  0
 13 19  1  0
 14 13  1  0
 15 14  2  0
 16 17  1  0
 16 10  2  0
 17 12  2  0
 18 11  1  0
 19  9  1  0
 21 23  2  0
 22 21  1  0
 24 22  1  0
 25 34  2  0
 25 30  1  0
 26 22  1  0
 26 30  1  0
 27 26  1  0
 28 29  1  0
 28 27  1  0
 29 25  1  0
 30 31  2  0
 31 32  1  0
 33 32  2  0
 34 33  1  0
 35  9  1  0
 35 40  1  0
 35 36  1  0
 36 39  1  1
 36 37  1  0
 38 36  1  0
 40 43  1  0
 41 45  1  0
 41 40  1  0
 42 41  2  0
 45 44  1  0
 47 45  1  0
 47 48  1  0
 47 46  1  0
 50 49  1  0
 51 50  1  0
 51 90  1  0
 52 60  1  0
 53 58  1  0
 54 55  1  0
 54 53  1  0
 56 55  1  0
 56 65  1  0
 56 57  1  0
 58 52  1  0
 58 57  1  0
 59 52  2  0
 60 51  1  0
 60 61  1  0
 62 63  2  0
 63 82  1  0
 64 63  1  0
 64 67  1  0
 65 66  1  0
 65 62  1  0
 66 64  2  0
 67 68  1  0
 68 69  2  0
 70 73  1  0
 70 69  1  0
 71 70  2  0
 72 71  1  0
 72 67  2  0
 73 74  1  0
 74 75  1  0
 75 76  2  0
 77 76  1  0
 77 81  1  0
 78 77  2  0
 79 74  2  0
 79 78  1  0
 80 79  1  0
 82 83  1  0
 83 86  1  0
 83 85  1  0
 84 82  2  0
 87 62  1  0
 87 88  1  0
 89 87  1  0
 90 91  1  0
 91 92  1  0
 92 95  1  0
 92 94  1  0
 93 91  2  0
M  ISO  4   7 101   8 101  52 100  60 100
M  END
>  <TORSDO>  (40) 
F 25

>  <SCORE>  (40) 
-12.407

>  <name>  (40) 
39

>  <ligand_id>  (40) 
39

>  <original_smiles>  (40) 
[H]c1c([H])c([H])c2c(c1[H])C([H])([H])C([H])([H])C([H])([H])C2([H])N([H])C(=O)C1([H])N(C(=O)C([H])(N([H])C(=O)C([H])(N([H])C([H])([H])[H])C([H])([H])[H])C(C([H])([H])[H])(C([H])([H])[H])C([H])([H])[H])C([H])([H])c2c([H])c(OC([H])([H])C([H])([H])C([H])([H])[N+]([H])([H])C([H])([H])C([H])([H])C([H])([H])C([H])(N([H])C(=O)N3C([H])([H])C([H])([H])C([H])([H])C([H])(n4nc(-c5c([H])c([H])c(Oc6c([H])c([H])c(F)c([H])c6F)c([H])c5[H])c(C(=O)N([H])[H])c4N([H])[H])C3([H])[H])C([H])([H])C(=O)N([H])[H])c([H])c([H])c2C1([H])[H]

>  <smiles>  (40) 
[H]c1c([H])c([H])c2c(c1[H])C([H])([H])C([H])([H])C([H])([H])C2([H])N([H])C(=O)C1([H])N(C(=O)C([H])(N([H])C(=O)C([H])(N([H])C([H])([H])[H])C([H])([H])[H])C(C([H])([H])[H])(C([H])([H])[H])C([H])([H])[H])C([H])([H])c2c([H])c(OC([H])([H])C([H])([H])C([H])([H])[N+]([H])([H])C([H])([H])C([H])([H])C([H])([H])C([H])(N([H])C(=O)N3C([H])([H])C([H])([H])C([H])([H])C([H])(n4nc(-c5c([H])c([H])c(Oc6c([H])c([H])c(F)c([H])c6F)c([H])c5[H])c(C(=O)N([H])[H])c4N([H])[H])C3([H])[H])C([H])([H])C(=O)N([H])[H])c([H])c([H])c2C1([H])[H]

$$$$
40:0:0
     RDKit          3D

 89 98  0  0  1  0  0  0  0  0999 V2000
  -28.1060  -22.3900   19.2640 C   0  0  0  0  0  2  0  0  0  0  0  0
  -28.4830  -21.6810   20.5420 C   0  0  0  0  0  3  0  0  0  0  0  0
  -28.7590  -23.3200   20.2660 C   0  0  0  0  0  3  0  0  0  0  0  0
  -31.7190  -19.5000   20.1220 C   0  0  0  0  0  3  0  0  0  0  0  0
  -30.7840  -20.5510   20.2250 C   0  0  0  0  0  3  0  0  0  0  0  0
  -31.3590  -18.1380   20.2310 C   0  0  0  0  0  3  0  0  0  0  0  0
  -29.0740  -18.8670   20.5540 C   0  0  0  0  0  3  0  0  0  0  0  0
  -29.4150  -20.3210   20.4450 C   0  0  0  0  0  0  0  0  0  0  0  0
  -30.0240  -17.7170   20.4500 C   0  0  0  0  0  0  0  0  0  0  0  0
  -30.5010  -15.0130   20.3470 C   0  0  0  0  0  0  0  0  0  0  0  0
  -30.3620  -12.6730   19.3770 C   0  0  0  0  0  2  0  0  0  0  0  0
  -29.4200  -12.6560   18.1540 C   0  0  0  0  0  2  0  0  0  0  0  0
  -27.9580  -12.4430   18.5940 C   0  0  0  0  0  2  0  0  0  0  0  0
  -27.5690  -13.3400   19.8000 C   0  0  0  0  0  3  0  0  0  0  0  0
  -28.6380  -13.3330   20.9140 C   0  0  0  0  0  2  0  0  0  0  0  0
  -29.9000  -13.7560   20.2970 N   0  0  0  0  0  0  0  0  0  0  0  0
  -31.6950  -15.0530   20.0310 O   0  0  0  0  0  0  0  0  0  0  0  0
  -29.7340  -16.2040   20.5600 N   0  0  0  0  0  0  0  0  0  0  0  0
  -28.7800  -15.9920   20.8050 H   0  0  0  0  0  0  0  0  0  0  0  0
  -25.1980  -13.9040   20.5790 C   0  0  0  0  0  0  0  0  0  0  0  0
  -24.1390  -13.1220   20.9480 C   0  0  0  0  0  0  0  0  0  0  0  0
  -24.6010  -11.7720   20.8830 C   0  0  0  0  0  0  0  0  0  0  0  0
  -26.2380  -13.0310   20.3090 N   0  0  0  0  0  0  0  0  0  0  0  0
  -25.8890  -11.7410   20.5560 N   0  0  0  0  0  0  0  0  0  0  0  0
  -23.8730  -10.5060   21.0570 C   0  0  0  0  0  0  0  0  0  0  0  0
  -24.2940   -9.5340   21.9900 C   0  0  0  0  0  3  0  0  0  0  0  0
  -23.5660   -8.3360   22.1550 C   0  0  0  0  0  3  0  0  0  0  0  0
  -22.4010   -8.1030   21.3860 C   0  0  0  0  0  0  0  0  0  0  0  0
  -21.9980   -9.0630   20.4430 C   0  0  0  0  0  3  0  0  0  0  0  0
  -22.7260  -10.2530   20.2770 C   0  0  0  0  0  3  0  0  0  0  0  0
  -21.6480   -6.9550   21.4570 O   0  0  0  0  0  0  0  0  0  0  0  0
  -21.5650   -6.2190   22.6120 C   0  0  0  0  0  0  0  0  0  0  0  0
  -21.0620   -6.7670   23.8110 C   0  0  0  0  0  3  0  0  0  0  0  0
  -20.9290   -5.9550   24.9560 C   0  0  0  0  0  3  0  0  0  0  0  0
  -21.2910   -4.5950   24.9020 C   0  0  0  0  0  0  0  0  0  0  0  0
  -21.7860   -4.0460   23.7050 C   0  0  0  0  0  3  0  0  0  0  0  0
  -21.9190   -4.8550   22.5630 C   0  0  0  0  0  0  0  0  0  0  0  0
  -22.3760   -4.3150   21.4080 F   0  0  0  0  0  0  0  0  0  0  0  0
  -21.1570   -3.8130   25.9980 F   0  0  0  0  0  0  0  0  0  0  0  0
  -22.7450  -13.5970   21.2400 C   0  0  0  0  0  0  0  0  0  0  0  0
  -22.0230  -12.8860   22.1010 N   0  0  0  0  0  0  0  0  0  0  0  0
  -22.3070  -14.6320   20.7440 O   0  0  0  0  0  0  0  0  0  0  0  0
  -22.3880  -12.0470   22.5260 H   0  0  0  0  0  0  0  0  0  0  0  0
  -21.0890  -13.1890   22.3340 H   0  0  0  0  0  0  0  0  0  0  0  0
  -25.3600  -15.2790   20.4220 N   0  0  0  0  0  0  0  0  0  0  0  0
  -24.5870  -15.9250   20.5560 H   0  0  0  0  0  0  0  0  0  0  0  0
  -26.1820  -15.7240   20.0320 H   0  0  0  0  0  0  0  0  0  0  0  0
  -27.9330  -24.7170   20.6650 C   0  0  0  0  0  2  0  0  0  0  0  0
  -28.2160  -26.2030   20.2710 O   0  0  0  0  0  0  0  0  0  0  0  0
  -24.5820  -31.8980   23.2210 C   0  0  0  0  0  0  0  0  0  0  0  0
  -27.1650  -27.1870   20.2240 C   0  0  0  0  0  0  0  0  0  0  0  0
  -23.3870  -30.5020   21.5740 C   0  0  0  0  0  3  0  0  0  0  0  0
  -24.8440  -28.9320   20.1550 C   0  0  0  0  0  0  0  0  0  0  0  0
  -25.9400  -30.7790   21.4130 C   0  0  0  0  0  2  0  0  0  0  0  0
  -26.0200  -29.3840   20.7690 C   0  0  0  0  0  0  0  0  0  0  0  0
  -27.1850  -28.5270   20.7830 C   0  0  0  0  0  3  0  0  0  0  0  0
  -25.9670  -26.8380   19.5630 C   0  0  0  0  0  3  0  0  0  0  0  0
  -24.8320  -27.6740   19.5340 C   0  0  0  0  0  3  0  0  0  0  0  0
  -23.6170  -29.8280   20.1950 C   0  0  0  0  0  2  0  0  0  0  0  0
  -24.6560  -31.0810   22.1260 N   0  0  0  0  0  0  0  0  0  0  0  0
  -23.4940  -32.1780   23.7460 O   0  0  0  0  0  0  0  0  0  0  0  0
  -22.7070  -29.4930   22.5340 C   0  0  0  0  0  0  0  0  0  0  0  0
  -21.3770  -29.3280   22.4110 N   0  0  0  0  0  0  0  0  0  0  0  0
  -23.3790  -28.8610   23.3540 O   0  0  0  0  0  0  0  0  0  0  0  0
  -20.8910  -29.8920   21.7290 H   0  0  0  0  0  0  0  0  0  0  0  0
  -17.9890  -28.1540   22.9290 C   0  0  0  0  0  0  0  0  0  0  0  0
  -20.5530  -28.3900   23.1790 C   0  0  0  0  0  3  0  0  0  0  0  0
  -20.6360  -26.9620   22.5890 C   0  0  0  0  0  2  0  0  0  0  0  0
  -19.5230  -26.6610   21.5820 C   0  0  0  0  0  2  0  0  0  0  0  0
  -18.1490  -26.8100   22.2380 C   0  0  0  0  0  2  0  0  0  0  0  0
  -19.1170  -28.9030   23.3580 C   0  0  0  0  0  0  0  0  0  0  0  0
  -18.9120  -30.1590   23.9680 C   0  0  0  0  0  3  0  0  0  0  0  0
  -17.6130  -30.6690   24.1500 C   0  0  0  0  0  3  0  0  0  0  0  0
  -16.5000  -29.9180   23.7370 C   0  0  0  0  0  3  0  0  0  0  0  0
  -16.6880  -28.6610   23.1330 C   0  0  0  0  0  3  0  0  0  0  0  0
  -25.8570  -32.5350   23.8520 C   0  0  0  0  0  3  0  0  0  0  0  0
  -25.5460  -33.9360   24.1780 N   0  0  0  0  0  0  0  0  0  0  0  0
  -25.8820  -34.9880   23.4200 C   0  0  0  0  0  0  0  0  0  0  0  0
  -26.5520  -34.8820   22.3900 O   0  0  0  0  0  0  0  0  0  0  0  0
  -24.9500  -34.0920   24.9770 H   0  0  0  0  0  0  0  0  0  0  0  0
  -24.1640  -36.7930   23.0620 C   0  0  0  0  0  1  0  0  0  0  0  0
  -25.4000  -36.3800   23.8770 C   0  0  0  0  0  3  0  0  0  0  0  0
  -27.5300  -37.2600   24.7260 C   0  0  0  0  0  1  0  0  0  0  0  0
  -26.4380  -37.4290   23.7710 N   0  0  0  0  0  0  0  0  0  0  0  0
  -26.0340  -38.3500   23.9120 H   0  0  0  0  0  0  0  0  0  0  0  0
  -26.3590  -31.7690   25.1370 C   0  0  1  0  0  0  0  0  0  0  0  0
  -25.2550  -31.5380   26.1960 C   0  0  0  0  0  1  0  0  0  0  0  0
  -26.9390  -30.3870   24.7590 C   0  0  0  0  0  1  0  0  0  0  0  0
  -27.5070  -32.5620   25.8060 C   0  0  0  0  0  1  0  0  0  0  0  0
  1  3  1  0
  1  2  1  0
  2  8  1  0
  3  2  1  0
  3 48  1  0
  4  5  2  0
  4  6  1  0
  5  8  1  0
  6  9  2  0
  8  7  2  0
  9  7  1  0
  9 18  1  0
 10 18  1  0
 11 16  1  0
 12 13  1  0
 12 11  1  0
 14 13  1  0
 14 23  1  0
 14 15  1  0
 16 10  1  0
 16 15  1  0
 17 10  2  0
 18 19  1  0
 20 21  2  0
 21 40  1  0
 22 21  1  0
 22 25  1  0
 23 24  1  0
 23 20  1  0
 24 22  2  0
 25 26  1  0
 26 27  2  0
 28 31  1  0
 28 27  1  0
 29 28  2  0
 30 29  1  0
 30 25  2  0
 31 32  1  0
 32 33  1  0
 33 34  2  0
 35 34  1  0
 35 39  1  0
 36 35  2  0
 37 32  2  0
 37 36  1  0
 38 37  1  0
 40 41  1  0
 41 44  1  0
 41 43  1  0
 42 40  2  0
 45 46  1  0
 45 20  1  0
 47 45  1  0
 49 48  1  0
 50 61  2  0
 51 49  1  0
 51 56  1  0
 52 60  1  0
 52 62  1  0
 53 59  1  0
 53 55  1  0
 54 60  1  0
 55 56  2  0
 55 54  1  0
 57 51  2  0
 58 57  1  0
 58 53  2  0
 59 52  1  0
 60 50  1  0
 62 64  2  0
 63 62  1  0
 65 63  1  0
 66 75  2  0
 66 71  1  0
 67 63  1  0
 67 71  1  0
 68 67  1  0
 69 70  1  0
 69 68  1  0
 70 66  1  0
 71 72  2  0
 72 73  1  0
 74 73  2  0
 75 74  1  0
 76 50  1  0
 76 77  1  0
 76 86  1  0
 77 80  1  0
 78 82  1  0
 78 77  1  0
 79 78  2  0
 82 81  1  0
 84 82  1  0
 84 85  1  0
 84 83  1  0
 86 89  1  1
 86 87  1  0
 88 86  1  0
M  ISO  4  10 100  18 100  48 101  49 101
M  END
>  <TORSDO>  (41) 
F 18

>  <SCORE>  (41) 
-14.651

>  <name>  (41) 
40

>  <ligand_id>  (41) 
40

>  <original_smiles>  (41) 
[H]c1c([H])c([H])c2c(c1[H])C([H])([H])C([H])([H])C([H])([H])C2([H])N([H])C(=O)C1([H])N(C(=O)C([H])(N([H])C(=O)C([H])(N([H])C([H])([H])[H])C([H])([H])[H])C(C([H])([H])[H])(C([H])([H])[H])C([H])([H])[H])C([H])([H])c2c([H])c(OC([H])([H])C3([H])C([H])([H])C3([H])c3c([H])c([H])c([H])c(N([H])C(=O)N4C([H])([H])C([H])([H])C([H])([H])C([H])(n5nc(-c6c([H])c([H])c(Oc7c([H])c([H])c(F)c([H])c7F)c([H])c6[H])c(C(=O)N([H])[H])c5N([H])[H])C4([H])[H])c3[H])c([H])c([H])c2C1([H])[H]

>  <smiles>  (41) 
[H]c1c([H])c([H])c2c(c1[H])C([H])([H])C([H])([H])C([H])([H])C2([H])N([H])C(=O)C1([H])N(C(=O)C([H])(N([H])C(=O)C([H])(N([H])C([H])([H])[H])C([H])([H])[H])C(C([H])([H])[H])(C([H])([H])[H])C([H])([H])[H])C([H])([H])c2c([H])c(OC([H])([H])C3([H])C([H])([H])C3([H])c3c([H])c([H])c([H])c(N([H])C(=O)N4C([H])([H])C([H])([H])C([H])([H])C([H])(n5nc(-c6c([H])c([H])c(Oc7c([H])c([H])c(F)c([H])c7F)c([H])c6[H])c(C(=O)N([H])[H])c5N([H])[H])C4([H])[H])c3[H])c([H])c([H])c2C1([H])[H]

$$$$
41:0:0
     RDKit          3D

 92101  0  0  1  0  0  0  0  0999 V2000
  -28.8090  -19.8580   21.9700 C   0  0  0  0  0  3  0  0  0  0  0  0
  -30.9880  -18.8320   17.5300 C   0  0  0  0  0  3  0  0  0  0  0  0
  -29.3030  -18.6740   21.3810 C   0  0  0  0  0  3  0  0  0  0  0  0
  -30.4780  -20.0040   18.1220 C   0  0  0  0  0  3  0  0  0  0  0  0
  -28.8530  -21.1000   21.2950 C   0  0  0  0  0  3  0  0  0  0  0  0
  -30.9490  -17.5940   18.2000 C   0  0  0  0  0  3  0  0  0  0  0  0
  -29.9090  -19.9770   19.4130 C   0  0  0  0  0  0  0  0  0  0  0  0
  -29.8740  -18.6880   20.0910 C   0  0  0  0  0  0  0  0  0  0  0  0
  -29.3910  -21.2090   19.9950 C   0  0  0  0  0  0  0  0  0  0  0  0
  -30.3980  -17.4600   19.4970 C   0  0  0  0  0  0  0  0  0  0  0  0
  -31.0330  -14.9560   19.7610 C   0  0  0  0  0  0  0  0  0  0  0  0
  -30.7160  -12.6850   18.7970 C   0  0  0  0  0  2  0  0  0  0  0  0
  -29.6990  -12.7950   17.6390 C   0  0  0  0  0  2  0  0  0  0  0  0
  -28.2600  -12.6530   18.1690 C   0  0  0  0  0  2  0  0  0  0  0  0
  -27.9920  -13.5410   19.4140 C   0  0  0  0  0  3  0  0  0  0  0  0
  -29.1240  -13.4260   20.4590 C   0  0  0  0  0  2  0  0  0  0  0  0
  -30.3880  -13.7420   19.7810 N   0  0  0  0  0  0  0  0  0  0  0  0
  -32.1840  -15.0320   19.3210 O   0  0  0  0  0  0  0  0  0  0  0  0
  -30.3160  -16.0980   20.0860 N   0  0  0  0  0  0  0  0  0  0  0  0
  -29.4940  -15.9270   20.6450 H   0  0  0  0  0  0  0  0  0  0  0  0
  -25.6990  -14.1730   20.3760 C   0  0  0  0  0  0  0  0  0  0  0  0
  -24.6370  -13.4170   20.7910 C   0  0  0  0  0  0  0  0  0  0  0  0
  -25.0390  -12.0540   20.6410 C   0  0  0  0  0  0  0  0  0  0  0  0
  -26.6820  -13.2730   19.9990 N   0  0  0  0  0  0  0  0  0  0  0  0
  -26.2970  -11.9890   20.2200 N   0  0  0  0  0  0  0  0  0  0  0  0
  -24.2790  -10.8090   20.8190 C   0  0  0  0  0  0  0  0  0  0  0  0
  -24.6950   -9.8140   21.7290 C   0  0  0  0  0  3  0  0  0  0  0  0
  -23.9380   -8.6340   21.8950 C   0  0  0  0  0  3  0  0  0  0  0  0
  -22.7490   -8.4420   21.1510 C   0  0  0  0  0  0  0  0  0  0  0  0
  -22.3520   -9.4260   20.2290 C   0  0  0  0  0  3  0  0  0  0  0  0
  -23.1110  -10.5980   20.0600 C   0  0  0  0  0  3  0  0  0  0  0  0
  -21.9640   -7.3180   21.2290 O   0  0  0  0  0  0  0  0  0  0  0  0
  -21.8310   -6.6110   22.3970 C   0  0  0  0  0  0  0  0  0  0  0  0
  -21.3190   -7.2030   23.5730 C   0  0  0  0  0  3  0  0  0  0  0  0
  -21.1350   -6.4230   24.7320 C   0  0  0  0  0  3  0  0  0  0  0  0
  -21.4530   -5.0510   24.7150 C   0  0  0  0  0  0  0  0  0  0  0  0
  -21.9570   -4.4590   23.5440 C   0  0  0  0  0  3  0  0  0  0  0  0
  -22.1430   -5.2370   22.3880 C   0  0  0  0  0  0  0  0  0  0  0  0
  -22.6100   -4.6570   21.2550 F   0  0  0  0  0  0  0  0  0  0  0  0
  -21.2690   -4.2990   25.8250 F   0  0  0  0  0  0  0  0  0  0  0  0
  -23.2870  -13.9260   21.2070 C   0  0  0  0  0  0  0  0  0  0  0  0
  -22.6120  -13.2140   22.1020 N   0  0  0  0  0  0  0  0  0  0  0  0
  -22.8450  -14.9900   20.7740 O   0  0  0  0  0  0  0  0  0  0  0  0
  -22.9830  -12.3520   22.4730 H   0  0  0  0  0  0  0  0  0  0  0  0
  -21.7110  -13.5390   22.4230 H   0  0  0  0  0  0  0  0  0  0  0  0
  -25.9060  -15.5450   20.2650 N   0  0  0  0  0  0  0  0  0  0  0  0
  -25.1790  -16.2190   20.4800 H   0  0  0  0  0  0  0  0  0  0  0  0
  -26.7330  -15.9710   19.8660 H   0  0  0  0  0  0  0  0  0  0  0  0
  -29.3780  -22.6240   19.2620 C   0  0  0  0  0  2  0  0  0  0  0  0
  -28.8680  -23.9860   19.9720 C   0  0  0  0  0  3  0  0  0  0  0  0
  -28.8080  -25.3340   19.0870 C   0  0  0  0  0  3  0  0  0  0  0  0
  -28.6660  -26.6950   19.6860 O   0  0  0  0  0  0  0  0  0  0  0  0
  -24.7320  -31.7430   23.0310 C   0  0  0  0  0  0  0  0  0  0  0  0
  -27.4860  -27.4650   19.6770 C   0  0  0  0  0  0  0  0  0  0  0  0
  -23.5600  -30.3870   21.3330 C   0  0  0  0  0  3  0  0  0  0  0  0
  -25.0490  -28.9800   19.7970 C   0  0  0  0  0  0  0  0  0  0  0  0
  -26.0790  -30.8250   21.1260 C   0  0  0  0  0  2  0  0  0  0  0  0
  -26.2060  -29.4860   20.4000 C   0  0  0  0  0  0  0  0  0  0  0  0
  -27.4220  -28.7410   20.3290 C   0  0  0  0  0  3  0  0  0  0  0  0
  -26.2970  -27.0100   19.0650 C   0  0  0  0  0  3  0  0  0  0  0  0
  -25.0980  -27.7500   19.1220 C   0  0  0  0  0  3  0  0  0  0  0  0
  -23.7770  -29.7980   19.9140 C   0  0  0  0  0  2  0  0  0  0  0  0
  -24.8100  -31.0000   21.8880 N   0  0  0  0  0  0  0  0  0  0  0  0
  -23.6460  -31.9420   23.5980 O   0  0  0  0  0  0  0  0  0  0  0  0
  -22.9590  -29.2920   22.2460 C   0  0  0  0  0  0  0  0  0  0  0  0
  -21.6390  -29.0620   22.1290 N   0  0  0  0  0  0  0  0  0  0  0  0
  -23.6770  -28.6540   23.0190 O   0  0  0  0  0  0  0  0  0  0  0  0
  -21.1140  -29.6360   21.4840 H   0  0  0  0  0  0  0  0  0  0  0  0
  -18.3260  -27.6940   22.6150 C   0  0  0  0  0  0  0  0  0  0  0  0
  -20.8750  -28.0480   22.8580 C   0  0  0  0  0  3  0  0  0  0  0  0
  -21.0260  -26.6570   22.1990 C   0  0  0  0  0  2  0  0  0  0  0  0
  -19.9190  -26.3450   21.1870 C   0  0  0  0  0  2  0  0  0  0  0  0
  -18.5460  -26.3930   21.8600 C   0  0  0  0  0  2  0  0  0  0  0  0
  -19.4190  -28.4780   23.0700 C   0  0  0  0  0  0  0  0  0  0  0  0
  -19.1580  -29.6950   23.7360 C   0  0  0  0  0  3  0  0  0  0  0  0
  -17.8350  -30.1280   23.9530 C   0  0  0  0  0  3  0  0  0  0  0  0
  -16.7570  -29.3400   23.5120 C   0  0  0  0  0  3  0  0  0  0  0  0
  -17.0040  -28.1250   22.8490 C   0  0  0  0  0  3  0  0  0  0  0  0
  -25.9970  -32.3960   23.6700 C   0  0  0  0  0  3  0  0  0  0  0  0
  -26.5490  -31.5960   24.9140 C   0  0  1  0  0  0  0  0  0  0  0  0
  -25.4710  -31.2820   25.9790 C   0  0  0  0  0  1  0  0  0  0  0  0
  -27.1760  -30.2550   24.4690 C   0  0  0  0  0  1  0  0  0  0  0  0
  -27.6730  -32.4050   25.6010 C   0  0  0  0  0  1  0  0  0  0  0  0
  -25.6420  -33.7690   24.0540 N   0  0  0  0  0  0  0  0  0  0  0  0
  -25.9340  -34.8620   23.3360 C   0  0  0  0  0  0  0  0  0  0  0  0
  -26.6000  -34.8210   22.2990 O   0  0  0  0  0  0  0  0  0  0  0  0
  -25.0460  -33.8740   24.8620 H   0  0  0  0  0  0  0  0  0  0  0  0
  -24.1450  -36.6100   23.0640 C   0  0  0  0  0  1  0  0  0  0  0  0
  -25.4040  -36.2150   23.8510 C   0  0  0  0  0  3  0  0  0  0  0  0
  -27.5110  -37.1420   24.7080 C   0  0  0  0  0  1  0  0  0  0  0  0
  -26.4010  -37.3050   23.7730 N   0  0  0  0  0  0  0  0  0  0  0  0
  -25.9630  -38.2040   23.9540 H   0  0  0  0  0  0  0  0  0  0  0  0
  2  4  2  0
  2  6  1  0
  3  1  1  0
  4  7  1  0
  5  1  2  0
  6 10  2  0
  7  9  2  0
  7  8  1  0
  8  3  2  0
  9  5  1  0
 10 19  1  0
 10  8  1  0
 11 17  1  0
 11 19  1  0
 12 17  1  0
 13 14  1  0
 13 12  1  0
 15 14  1  0
 15 24  1  0
 15 16  1  0
 17 16  1  0
 18 11  2  0
 19 20  1  0
 21 22  2  0
 22 41  1  0
 23 22  1  0
 23 26  1  0
 24 25  1  0
 24 21  1  0
 25 23  2  0
 26 27  1  0
 27 28  2  0
 29 32  1  0
 29 28  1  0
 30 29  2  0
 31 30  1  0
 31 26  2  0
 32 33  1  0
 33 34  1  0
 34 35  2  0
 36 35  1  0
 36 40  1  0
 37 36  2  0
 38 33  2  0
 38 37  1  0
 39 38  1  0
 41 42  1  0
 42 45  1  0
 42 44  1  0
 43 41  2  0
 46 21  1  0
 46 47  1  0
 48 46  1  0
 49 50  1  0
 49  9  1  0
 51 52  1  0
 51 50  2  0
 53 64  2  0
 54 52  1  0
 54 59  1  0
 55 63  1  0
 55 65  1  0
 56 62  1  0
 56 58  1  0
 57 63  1  0
 58 57  1  0
 59 58  2  0
 60 61  1  0
 60 54  2  0
 61 56  2  0
 62 55  1  0
 63 53  1  0
 65 67  2  0
 66 65  1  0
 68 66  1  0
 69 78  2  0
 69 74  1  0
 70 66  1  0
 70 74  1  0
 71 70  1  0
 72 73  1  0
 72 71  1  0
 73 69  1  0
 74 75  2  0
 75 76  1  0
 77 76  2  0
 78 77  1  0
 79 53  1  0
 79 84  1  0
 79 80  1  0
 80 83  1  1
 80 81  1  0
 82 80  1  0
 84 87  1  0
 85 89  1  0
 85 84  1  0
 86 85  2  0
 89 88  1  0
 91 89  1  0
 91 92  1  0
 91 90  1  0
M  ISO  4  11 100  19 100  51 101  52 101
M  END
>  <TORSDO>  (42) 
F 19

>  <SCORE>  (42) 
-11.175

>  <name>  (42) 
41

>  <ligand_id>  (42) 
41

>  <original_smiles>  (42) 
[H]c1c([H])c([H])c2c(c1[H])C([H])([H])C([H])([H])C([H])([H])C2([H])N([H])C(=O)C1([H])N(C(=O)C([H])(N([H])C(=O)C([H])(N([H])C([H])([H])[H])C([H])([H])[H])C(C([H])([H])[H])(C([H])([H])[H])C([H])([H])[H])C([H])([H])c2c([H])c(OC([H])([H])C([H])([H])C([H])([H])c3c([H])c([H])c([H])c4c(N([H])C(=O)N5C([H])([H])C([H])([H])C([H])([H])C([H])(n6nc(-c7c([H])c([H])c(Oc8c([H])c([H])c(F)c([H])c8F)c([H])c7[H])c(C(=O)N([H])[H])c6N([H])[H])C5([H])[H])c([H])c([H])c([H])c34)c([H])c([H])c2C1([H])[H]

>  <smiles>  (42) 
[H]c1c([H])c([H])c2c(c1[H])C([H])([H])C([H])([H])C([H])([H])C2([H])N([H])C(=O)C1([H])N(C(=O)C([H])(N([H])C(=O)C([H])(N([H])C([H])([H])[H])C([H])([H])[H])C(C([H])([H])[H])(C([H])([H])[H])C([H])([H])[H])C([H])([H])c2c([H])c(OC([H])([H])C([H])([H])C([H])([H])c3c([H])c([H])c([H])c4c(N([H])C(=O)N5C([H])([H])C([H])([H])C([H])([H])C([H])(n6nc(-c7c([H])c([H])c(Oc8c([H])c([H])c(F)c([H])c8F)c([H])c7[H])c(C(=O)N([H])[H])c6N([H])[H])C5([H])[H])c([H])c([H])c([H])c34)c([H])c([H])c2C1([H])[H]

$$$$
42:0:0
     RDKit          3D

 93103  0  0  1  0  0  0  0  0999 V2000
  -29.8790  -22.3970   22.5580 C   0  0  0  0  0  3  0  0  0  0  0  0
  -30.0190  -21.0340   22.1990 C   0  0  0  0  0  3  0  0  0  0  0  0
  -29.0200  -21.4720   20.0150 C   0  0  0  0  0  3  0  0  0  0  0  0
  -29.2950  -23.2900   21.6440 C   0  0  0  0  0  0  0  0  0  0  0  0
  -29.5950  -20.5300   20.9380 C   0  0  0  0  0  0  0  0  0  0  0  0
  -28.8820  -22.8540   20.3870 C   0  0  0  0  0  0  0  0  0  0  0  0
  -29.0390  -24.7430   21.8110 C   0  0  0  0  0  0  0  0  0  0  0  0
  -28.3380  -24.0610   19.5910 C   0  0  0  0  0  2  0  0  0  0  0  0
  -28.1580  -25.2280   20.6420 C   0  0  0  0  0  3  0  0  0  0  0  0
  -29.4260  -25.4630   22.7390 O   0  0  0  0  0  0  0  0  0  0  0  0
  -30.7600  -14.7580   20.0110 C   0  0  0  0  0  0  0  0  0  0  0  0
  -30.4140  -12.5550   18.9260 C   0  0  0  0  0  2  0  0  0  0  0  0
  -29.4070  -12.7030   17.7680 C   0  0  0  0  0  2  0  0  0  0  0  0
  -27.9690  -12.5170   18.2890 C   0  0  0  0  0  2  0  0  0  0  0  0
  -27.6770  -13.3540   19.5640 C   0  0  0  0  0  3  0  0  0  0  0  0
  -28.8090  -13.2310   20.6060 C   0  0  0  0  0  2  0  0  0  0  0  0
  -30.0640  -13.5800   19.9330 N   0  0  0  0  0  0  0  0  0  0  0  0
  -31.9180  -14.8070   19.5800 O   0  0  0  0  0  0  0  0  0  0  0  0
  -29.3560  -17.9790   21.6690 C   0  0  0  0  0  2  0  0  0  0  0  0
  -29.6100  -18.3860   19.2920 C   0  0  0  0  0  2  0  0  0  0  0  0
  -29.9880  -16.5410   21.5470 C   0  0  0  0  0  2  0  0  0  0  0  0
  -30.3210  -16.9960   19.1380 C   0  0  0  0  0  2  0  0  0  0  0  0
  -29.9190  -19.0110   20.6620 C   0  0  0  0  0  3  0  0  0  0  0  0
  -30.0740  -15.9480   20.1830 N   0  0  0  0  0  0  0  0  0  0  0  0
  -25.3400  -13.8850   20.4880 C   0  0  0  0  0  0  0  0  0  0  0  0
  -24.3100  -13.0840   20.8980 C   0  0  0  0  0  0  0  0  0  0  0  0
  -24.7800  -11.7400   20.7740 C   0  0  0  0  0  0  0  0  0  0  0  0
  -26.3720  -13.0290   20.1380 N   0  0  0  0  0  0  0  0  0  0  0  0
  -26.0440  -11.7300   20.3720 N   0  0  0  0  0  0  0  0  0  0  0  0
  -24.0760  -10.4630   20.9640 C   0  0  0  0  0  0  0  0  0  0  0  0
  -24.5380   -9.4960   21.8840 C   0  0  0  0  0  3  0  0  0  0  0  0
  -23.8360   -8.2850   22.0640 C   0  0  0  0  0  3  0  0  0  0  0  0
  -22.6560   -8.0320   21.3240 C   0  0  0  0  0  0  0  0  0  0  0  0
  -22.2130   -8.9900   20.3930 C   0  0  0  0  0  3  0  0  0  0  0  0
  -22.9160  -10.1920   20.2100 C   0  0  0  0  0  3  0  0  0  0  0  0
  -21.9230   -6.8730   21.4090 O   0  0  0  0  0  0  0  0  0  0  0  0
  -21.8300   -6.1670   22.5810 C   0  0  0  0  0  0  0  0  0  0  0  0
  -21.3330   -6.7510   23.7660 C   0  0  0  0  0  3  0  0  0  0  0  0
  -21.1900   -5.9700   24.9290 C   0  0  0  0  0  3  0  0  0  0  0  0
  -21.5330   -4.6050   24.9090 C   0  0  0  0  0  0  0  0  0  0  0  0
  -22.0250   -4.0220   23.7290 C   0  0  0  0  0  3  0  0  0  0  0  0
  -22.1710   -4.8000   22.5670 C   0  0  0  0  0  0  0  0  0  0  0  0
  -22.6250   -4.2270   21.4280 F   0  0  0  0  0  0  0  0  0  0  0  0
  -21.3900   -3.8540   26.0260 F   0  0  0  0  0  0  0  0  0  0  0  0
  -22.9300  -13.5340   21.2880 C   0  0  0  0  0  0  0  0  0  0  0  0
  -22.2730  -12.8030   22.1810 N   0  0  0  0  0  0  0  0  0  0  0  0
  -22.4420  -14.5700   20.8360 O   0  0  0  0  0  0  0  0  0  0  0  0
  -22.6810  -11.9680   22.5720 H   0  0  0  0  0  0  0  0  0  0  0  0
  -21.3510  -13.0850   22.4830 H   0  0  0  0  0  0  0  0  0  0  0  0
  -25.4810  -15.2630   20.3630 N   0  0  0  0  0  0  0  0  0  0  0  0
  -24.7250  -15.9060   20.5680 H   0  0  0  0  0  0  0  0  0  0  0  0
  -26.3150  -15.7270   20.0270 H   0  0  0  0  0  0  0  0  0  0  0  0
  -28.3990  -26.6420   20.2880 O   0  0  0  0  0  0  0  0  0  0  0  0
  -24.6280  -31.9630   23.3120 C   0  0  0  0  0  0  0  0  0  0  0  0
  -27.2750  -27.4680   20.2460 C   0  0  0  0  0  0  0  0  0  0  0  0
  -23.4320  -30.5680   21.6610 C   0  0  0  0  0  3  0  0  0  0  0  0
  -24.8960  -29.0350   20.2290 C   0  0  0  0  0  0  0  0  0  0  0  0
  -25.9650  -30.9140   21.4790 C   0  0  0  0  0  2  0  0  0  0  0  0
  -26.0570  -29.5420   20.8280 C   0  0  0  0  0  0  0  0  0  0  0  0
  -27.2530  -28.7690   20.8250 C   0  0  0  0  0  3  0  0  0  0  0  0
  -26.0960  -27.0030   19.6240 C   0  0  0  0  0  3  0  0  0  0  0  0
  -24.9160  -27.7710   19.6170 C   0  0  0  0  0  3  0  0  0  0  0  0
  -23.6530  -29.8980   20.2780 C   0  0  0  0  0  2  0  0  0  0  0  0
  -24.6930  -31.1630   22.2090 N   0  0  0  0  0  0  0  0  0  0  0  0
  -23.5440  -32.2320   23.8490 O   0  0  0  0  0  0  0  0  0  0  0  0
  -22.7760  -29.5400   22.6140 C   0  0  0  0  0  0  0  0  0  0  0  0
  -21.4510  -29.3520   22.4800 N   0  0  0  0  0  0  0  0  0  0  0  0
  -23.4550  -28.9150   23.4330 O   0  0  0  0  0  0  0  0  0  0  0  0
  -20.9620  -29.9080   21.7940 H   0  0  0  0  0  0  0  0  0  0  0  0
  -18.0790  -28.1360   22.9530 C   0  0  0  0  0  0  0  0  0  0  0  0
  -20.6350  -28.4060   23.2420 C   0  0  0  0  0  3  0  0  0  0  0  0
  -20.7470  -26.9780   22.6620 C   0  0  0  0  0  2  0  0  0  0  0  0
  -19.6530  -26.6540   21.6380 C   0  0  0  0  0  2  0  0  0  0  0  0
  -18.2660  -26.7900   22.2730 C   0  0  0  0  0  2  0  0  0  0  0  0
  -19.1920  -28.9030   23.3930 C   0  0  0  0  0  0  0  0  0  0  0  0
  -18.9630  -30.1620   23.9890 C   0  0  0  0  0  3  0  0  0  0  0  0
  -17.6540  -30.6560   24.1470 C   0  0  0  0  0  3  0  0  0  0  0  0
  -16.5570  -29.8870   23.7240 C   0  0  0  0  0  3  0  0  0  0  0  0
  -16.7700  -28.6290   23.1330 C   0  0  0  0  0  3  0  0  0  0  0  0
  -25.9080  -32.5970   23.9390 C   0  0  0  0  0  3  0  0  0  0  0  0
  -25.6000  -33.9970   24.2580 N   0  0  0  0  0  0  0  0  0  0  0  0
  -25.9220  -35.0430   23.4840 C   0  0  0  0  0  0  0  0  0  0  0  0
  -26.5800  -34.9290   22.4460 O   0  0  0  0  0  0  0  0  0  0  0  0
  -25.0170  -34.1620   25.0670 H   0  0  0  0  0  0  0  0  0  0  0  0
  -24.1730  -36.8160   23.1430 C   0  0  0  0  0  1  0  0  0  0  0  0
  -25.4370  -36.4340   23.9300 C   0  0  0  0  0  3  0  0  0  0  0  0
  -27.5830  -37.3490   24.6920 C   0  0  0  0  0  1  0  0  0  0  0  0
  -26.4580  -37.4920   23.7720 N   0  0  0  0  0  0  0  0  0  0  0  0
  -26.0490  -38.4120   23.9140 H   0  0  0  0  0  0  0  0  0  0  0  0
  -26.4110  -31.8320   25.2260 C   0  0  1  0  0  0  0  0  0  0  0  0
  -25.3080  -31.6000   26.2830 C   0  0  0  0  0  1  0  0  0  0  0  0
  -27.0000  -30.4530   24.8450 C   0  0  0  0  0  1  0  0  0  0  0  0
  -27.5550  -32.6300   25.8970 C   0  0  0  0  0  1  0  0  0  0  0  0
  2  1  1  0
  3  6  2  0
  3  5  1  0
  4  7  1  0
  4  1  2  0
  5  2  2  0
  6  4  1  0
  7 10  2  0
  8  6  1  0
  8  9  1  0
  9 53  1  0
  9  7  1  0
 11 24  1  0
 12 17  1  0
 13 14  1  0
 13 12  1  0
 15 14  1  0
 15 28  1  0
 15 16  1  0
 17 11  1  0
 17 16  1  0
 18 11  2  0
 20 23  1  0
 21 19  1  0
 22 20  1  0
 22 24  1  0
 23  5  1  0
 23 19  1  0
 24 21  1  0
 25 26  2  0
 26 45  1  0
 27 26  1  0
 27 30  1  0
 28 29  1  0
 28 25  1  0
 29 27  2  0
 30 31  1  0
 31 32  2  0
 33 36  1  0
 33 32  1  0
 34 33  2  0
 35 34  1  0
 35 30  2  0
 36 37  1  0
 37 38  1  0
 38 39  2  0
 40 39  1  0
 40 44  1  0
 41 40  2  0
 42 37  2  0
 42 41  1  0
 43 42  1  0
 45 46  1  0
 46 49  1  0
 46 48  1  0
 47 45  2  0
 50 25  1  0
 50 51  1  0
 52 50  1  0
 54 65  2  0
 55 53  1  0
 55 60  1  0
 56 64  1  0
 56 66  1  0
 57 63  1  0
 57 59  1  0
 58 64  1  0
 59 58  1  0
 60 59  2  0
 61 55  2  0
 62 61  1  0
 62 57  2  0
 63 56  1  0
 64 54  1  0
 66 68  2  0
 67 66  1  0
 69 67  1  0
 70 79  2  0
 70 75  1  0
 71 67  1  0
 71 75  1  0
 72 71  1  0
 73 74  1  0
 73 72  1  0
 74 70  1  0
 75 76  2  0
 76 77  1  0
 78 77  2  0
 79 78  1  0
 80 54  1  0
 80 81  1  0
 80 90  1  0
 81 84  1  0
 82 86  1  0
 82 81  1  0
 83 82  2  0
 86 85  1  0
 88 89  1  0
 88 86  1  0
 88 87  1  0
 90 93  1  1
 90 91  1  0
 92 90  1  0
M  ISO  4   9 101  11 100  24 100  53 101
M  END
>  <TORSDO>  (43) 
F 16

>  <SCORE>  (43) 
-15.192

>  <name>  (43) 
42

>  <ligand_id>  (43) 
42

>  <original_smiles>  (43) 
[H]c1c([H])c([H])c2c(c1[H])C([H])([H])C([H])([H])C([H])([H])C2([H])N([H])C(=O)C1([H])N(C(=O)C([H])(N([H])C(=O)C([H])(N([H])C([H])([H])[H])C([H])([H])[H])C(C([H])([H])[H])(C([H])([H])[H])C([H])([H])[H])C([H])([H])c2c([H])c(OC3([H])C(=O)c4c([H])c([H])c(C5([H])C([H])([H])C([H])([H])N(C(=O)N6C([H])([H])C([H])([H])C([H])([H])C([H])(n7nc(-c8c([H])c([H])c(Oc9c([H])c([H])c(F)c([H])c9F)c([H])c8[H])c(C(=O)N([H])[H])c7N([H])[H])C6([H])[H])C([H])([H])C5([H])[H])c([H])c4C3([H])[H])c([H])c([H])c2C1([H])[H]

>  <smiles>  (43) 
[H]c1c([H])c([H])c2c(c1[H])C([H])([H])C([H])([H])C([H])([H])C2([H])N([H])C(=O)C1([H])N(C(=O)C([H])(N([H])C(=O)C([H])(N([H])C([H])([H])[H])C([H])([H])[H])C(C([H])([H])[H])(C([H])([H])[H])C([H])([H])[H])C([H])([H])c2c([H])c(OC3([H])C(=O)c4c([H])c([H])c(C5([H])C([H])([H])C([H])([H])N(C(=O)N6C([H])([H])C([H])([H])C([H])([H])C([H])(n7nc(-c8c([H])c([H])c(Oc9c([H])c([H])c(F)c([H])c9F)c([H])c8[H])c(C(=O)N([H])[H])c7N([H])[H])C6([H])[H])C([H])([H])C5([H])[H])c([H])c4C3([H])[H])c([H])c([H])c2C1([H])[H]

$$$$
43:0:0
     RDKit          3D

 98107  0  0  1  0  0  0  0  0999 V2000
  -31.4920  -20.0370   20.8430 C   0  0  0  0  0  3  0  0  0  0  0  0
  -31.8700  -17.6340   20.9160 C   0  0  0  0  0  3  0  0  0  0  0  0
  -32.3670  -18.9470   21.0130 C   0  0  0  0  0  0  0  0  0  0  0  0
  -30.1110  -19.8520   20.6190 C   0  0  0  0  0  0  0  0  0  0  0  0
  -29.6210  -18.4970   20.5070 C   0  0  0  0  0  0  0  0  0  0  0  0
  -30.5080  -17.3660   20.6390 C   0  0  0  0  0  0  0  0  0  0  0  0
  -28.1420  -18.2690   20.2330 C   0  0  0  0  0  1  0  0  0  0  0  0
  -30.7470  -14.8850   20.0970 C   0  0  0  0  0  0  0  0  0  0  0  0
  -30.4380  -12.6760   19.0160 C   0  0  0  0  0  2  0  0  0  0  0  0
  -29.4440  -12.8140   17.8460 C   0  0  0  0  0  2  0  0  0  0  0  0
  -28.0000  -12.6260   18.3460 C   0  0  0  0  0  2  0  0  0  0  0  0
  -27.6870  -13.4760   19.6060 C   0  0  0  0  0  3  0  0  0  0  0  0
  -28.8030  -13.3570   20.6710 C   0  0  0  0  0  2  0  0  0  0  0  0
  -30.0790  -13.6930   20.0250 N   0  0  0  0  0  0  0  0  0  0  0  0
  -31.8710  -15.0010   19.6050 O   0  0  0  0  0  0  0  0  0  0  0  0
  -30.0590  -15.9770   20.5510 N   0  0  0  0  0  0  0  0  0  0  0  0
  -29.0950  -15.8040   20.7870 H   0  0  0  0  0  0  0  0  0  0  0  0
  -25.3280  -14.0130   20.4710 C   0  0  0  0  0  0  0  0  0  0  0  0
  -24.2950  -13.2120   20.8730 C   0  0  0  0  0  0  0  0  0  0  0  0
  -24.7740  -11.8700   20.7750 C   0  0  0  0  0  0  0  0  0  0  0  0
  -26.3720  -13.1570   20.1540 N   0  0  0  0  0  0  0  0  0  0  0  0
  -26.0460  -11.8620   20.3980 N   0  0  0  0  0  0  0  0  0  0  0  0
  -24.0760  -10.5910   20.9640 C   0  0  0  0  0  0  0  0  0  0  0  0
  -24.5300   -9.6320   21.8960 C   0  0  0  0  0  3  0  0  0  0  0  0
  -23.8320   -8.4190   22.0730 C   0  0  0  0  0  3  0  0  0  0  0  0
  -22.6640   -8.1550   21.3190 C   0  0  0  0  0  0  0  0  0  0  0  0
  -22.2280   -9.1020   20.3750 C   0  0  0  0  0  3  0  0  0  0  0  0
  -22.9280  -10.3070   20.1960 C   0  0  0  0  0  3  0  0  0  0  0  0
  -21.9360   -6.9930   21.4050 O   0  0  0  0  0  0  0  0  0  0  0  0
  -21.8450   -6.2860   22.5770 C   0  0  0  0  0  0  0  0  0  0  0  0
  -21.3110   -6.8560   23.7530 C   0  0  0  0  0  3  0  0  0  0  0  0
  -21.1730   -6.0730   24.9170 C   0  0  0  0  0  3  0  0  0  0  0  0
  -21.5580   -4.7180   24.9040 C   0  0  0  0  0  0  0  0  0  0  0  0
  -22.0840   -4.1460   23.7320 C   0  0  0  0  0  3  0  0  0  0  0  0
  -22.2250   -4.9280   22.5710 C   0  0  0  0  0  0  0  0  0  0  0  0
  -22.7130   -4.3670   21.4390 F   0  0  0  0  0  0  0  0  0  0  0  0
  -21.4180   -3.9630   26.0180 F   0  0  0  0  0  0  0  0  0  0  0  0
  -22.9070  -13.6590   21.2330 C   0  0  0  0  0  0  0  0  0  0  0  0
  -22.2370  -12.9250   22.1150 N   0  0  0  0  0  0  0  0  0  0  0  0
  -22.4280  -14.6920   20.7690 O   0  0  0  0  0  0  0  0  0  0  0  0
  -22.6390  -12.0890   22.5110 H   0  0  0  0  0  0  0  0  0  0  0  0
  -21.3090  -13.2050   22.3980 H   0  0  0  0  0  0  0  0  0  0  0  0
  -25.4620  -15.3890   20.3240 N   0  0  0  0  0  0  0  0  0  0  0  0
  -24.6850  -16.0230   20.4830 H   0  0  0  0  0  0  0  0  0  0  0  0
  -26.2690  -15.8450   19.9220 H   0  0  0  0  0  0  0  0  0  0  0  0
  -29.5150  -22.0640   19.3220 C   0  0  0  0  0  2  0  0  0  0  0  0
  -29.3990  -22.0390   21.8100 C   0  0  0  0  0  2  0  0  0  0  0  0
  -28.6780  -23.3890   19.2900 C   0  0  0  0  0  2  0  0  0  0  0  0
  -28.5630  -23.3460   21.7770 C   0  0  0  0  0  2  0  0  0  0  0  0
  -29.2310  -21.1480   20.5500 C   0  0  0  0  0  3  0  0  0  0  0  0
  -28.8310  -24.2760   20.5580 C   0  0  0  0  0  3  0  0  0  0  0  0
  -27.8650  -25.5240   20.6360 C   0  0  0  0  0  2  0  0  0  0  0  0
  -28.1190  -26.7670   19.9030 O   0  0  0  0  0  0  0  0  0  0  0  0
  -24.5410  -32.0040   23.2550 C   0  0  0  0  0  0  0  0  0  0  0  0
  -27.0210  -27.6230   19.9130 C   0  0  0  0  0  0  0  0  0  0  0  0
  -23.2610  -30.6600   21.6240 C   0  0  0  0  0  3  0  0  0  0  0  0
  -24.6470  -29.1810   20.0690 C   0  0  0  0  0  0  0  0  0  0  0  0
  -25.7810  -31.0140   21.3250 C   0  0  0  0  0  2  0  0  0  0  0  0
  -25.8380  -29.6660   20.6280 C   0  0  0  0  0  0  0  0  0  0  0  0
  -27.0300  -28.8970   20.5450 C   0  0  0  0  0  3  0  0  0  0  0  0
  -25.8170  -27.1880   19.3150 C   0  0  0  0  0  3  0  0  0  0  0  0
  -24.6350  -27.9450   19.4040 C   0  0  0  0  0  3  0  0  0  0  0  0
  -23.4070  -30.0370   20.2110 C   0  0  0  0  0  2  0  0  0  0  0  0
  -24.5480  -31.2400   22.1250 N   0  0  0  0  0  0  0  0  0  0  0  0
  -23.4840  -32.2550   23.8530 O   0  0  0  0  0  0  0  0  0  0  0  0
  -22.6530  -29.6030   22.5780 C   0  0  0  0  0  0  0  0  0  0  0  0
  -21.3340  -29.3750   22.4620 N   0  0  0  0  0  0  0  0  0  0  0  0
  -23.3660  -28.9930   23.3790 O   0  0  0  0  0  0  0  0  0  0  0  0
  -20.8160  -29.9220   21.7870 H   0  0  0  0  0  0  0  0  0  0  0  0
  -18.0200  -28.0110   22.9400 C   0  0  0  0  0  0  0  0  0  0  0  0
  -20.5600  -28.3990   23.2300 C   0  0  0  0  0  3  0  0  0  0  0  0
  -20.7380  -26.9740   22.6570 C   0  0  0  0  0  2  0  0  0  0  0  0
  -19.6610  -26.5950   21.6350 C   0  0  0  0  0  2  0  0  0  0  0  0
  -18.2690  -26.6720   22.2690 C   0  0  0  0  0  2  0  0  0  0  0  0
  -19.0950  -28.8300   23.3770 C   0  0  0  0  0  0  0  0  0  0  0  0
  -18.8090  -30.0810   23.9630 C   0  0  0  0  0  3  0  0  0  0  0  0
  -17.4800  -30.5160   24.1180 C   0  0  0  0  0  3  0  0  0  0  0  0
  -16.4180  -29.6960   23.7000 C   0  0  0  0  0  3  0  0  0  0  0  0
  -16.6890  -28.4450   23.1150 C   0  0  0  0  0  3  0  0  0  0  0  0
  -25.8530  -32.6170   23.8350 C   0  0  0  0  0  3  0  0  0  0  0  0
  -26.4060  -31.8300   25.0860 C   0  0  1  0  0  0  0  0  0  0  0  0
  -25.3430  -31.5710   26.1790 C   0  0  0  0  0  1  0  0  0  0  0  0
  -26.9870  -30.4610   24.6590 C   0  0  0  0  0  1  0  0  0  0  0  0
  -27.5700  -32.6210   25.7290 C   0  0  0  0  0  1  0  0  0  0  0  0
  -25.5720  -34.0170   24.1850 N   0  0  0  0  0  0  0  0  0  0  0  0
  -25.8970  -35.0700   23.4240 C   0  0  0  0  0  0  0  0  0  0  0  0
  -26.5360  -34.9660   22.3740 O   0  0  0  0  0  0  0  0  0  0  0  0
  -25.0030  -34.1720   25.0040 H   0  0  0  0  0  0  0  0  0  0  0  0
  -24.1860  -36.8880   23.1260 C   0  0  0  0  0  1  0  0  0  0  0  0
  -25.4400  -36.4610   23.9050 C   0  0  0  0  0  3  0  0  0  0  0  0
  -27.6040  -37.3110   24.6960 C   0  0  0  0  0  1  0  0  0  0  0  0
  -26.4830  -37.5000   23.7770 N   0  0  0  0  0  0  0  0  0  0  0  0
  -26.0930  -38.4250   23.9410 H   0  0  0  0  0  0  0  0  0  0  0  0
  -33.8310  -19.1680   21.2640 C   0  0  0  0  0  0  0  0  0  0  0  0
  -34.1370  -20.0880   22.1700 N   0  0  0  0  0  0  0  0  0  0  0  0
  -34.6940  -18.4960   20.7020 O   0  0  0  0  0  0  0  0  0  0  0  0
  -33.4020  -20.5840   22.6500 H   0  0  0  0  0  0  0  0  0  0  0  0
  -35.1020  -20.2740   22.4010 H   0  0  0  0  0  0  0  0  0  0  0  0
  1  3  1  0
  2  3  2  0
  3 94  1  0
  4  1  2  0
  5  4  1  0
  5  6  2  0
  6  2  1  0
  7  5  1  0
  8 16  1  0
  9 14  1  0
 10 11  1  0
 10  9  1  0
 12 11  1  0
 12 21  1  0
 12 13  1  0
 14  8  1  0
 14 13  1  0
 15  8  2  0
 16  6  1  0
 16 17  1  0
 18 19  2  0
 19 38  1  0
 20 19  1  0
 20 23  1  0
 21 22  1  0
 21 18  1  0
 22 20  2  0
 23 24  1  0
 24 25  2  0
 26 29  1  0
 26 25  1  0
 27 26  2  0
 28 27  1  0
 28 23  2  0
 29 30  1  0
 30 31  1  0
 31 32  2  0
 33 32  1  0
 33 37  1  0
 34 33  2  0
 35 30  2  0
 35 34  1  0
 36 35  1  0
 38 39  1  0
 39 42  1  0
 39 41  1  0
 40 38  2  0
 43 18  1  0
 43 44  1  0
 45 43  1  0
 46 50  1  0
 48 46  1  0
 48 51  1  0
 49 47  1  0
 50  4  1  0
 50 47  1  0
 51 52  1  0
 51 49  1  0
 53 55  1  0
 53 52  1  0
 54 65  2  0
 55 60  1  0
 56 64  1  0
 56 66  1  0
 57 63  1  0
 57 59  1  0
 58 64  1  0
 59 58  1  0
 60 59  2  0
 61 62  1  0
 61 55  2  0
 62 57  2  0
 63 56  1  0
 64 54  1  0
 66 68  2  0
 67 66  1  0
 69 67  1  0
 70 79  2  0
 70 75  1  0
 71 67  1  0
 71 75  1  0
 72 71  1  0
 73 74  1  0
 73 72  1  0
 74 70  1  0
 75 76  2  0
 76 77  1  0
 78 77  2  0
 79 78  1  0
 80 54  1  0
 80 85  1  0
 80 81  1  0
 81 84  1  1
 81 82  1  0
 83 81  1  0
 85 88  1  0
 86 90  1  0
 86 85  1  0
 87 86  2  0
 90 89  1  0
 92 90  1  0
 92 93  1  0
 92 91  1  0
 94 95  1  0
 95 98  1  0
 95 97  1  0
 96 94  2  0
M  ISO  4   8 100  16 100  52 101  53 101
M  END
>  <TORSDO>  (44) 
F 19

>  <SCORE>  (44) 
-14.712

>  <name>  (44) 
43

>  <ligand_id>  (44) 
43

>  <original_smiles>  (44) 
[H]c1c([H])c([H])c2c(c1[H])C([H])([H])C([H])([H])C([H])([H])C2([H])N([H])C(=O)C1([H])N(C(=O)C([H])(N([H])C(=O)C([H])(N([H])C([H])([H])[H])C([H])([H])[H])C(C([H])([H])[H])(C([H])([H])[H])C([H])([H])[H])C([H])([H])c2c([H])c(OC([H])([H])C3([H])C([H])([H])C([H])([H])C([H])(c4c([H])c(C(=O)N([H])[H])c([H])c(N([H])C(=O)N5C([H])([H])C([H])([H])C([H])([H])C([H])(n6nc(-c7c([H])c([H])c(Oc8c([H])c([H])c(F)c([H])c8F)c([H])c7[H])c(C(=O)N([H])[H])c6N([H])[H])C5([H])[H])c4C([H])([H])[H])C([H])([H])C3([H])[H])c([H])c([H])c2C1([H])[H]

>  <smiles>  (44) 
[H]c1c([H])c([H])c2c(c1[H])C([H])([H])C([H])([H])C([H])([H])C2([H])N([H])C(=O)C1([H])N(C(=O)C([H])(N([H])C(=O)C([H])(N([H])C([H])([H])[H])C([H])([H])[H])C(C([H])([H])[H])(C([H])([H])[H])C([H])([H])[H])C([H])([H])c2c([H])c(OC([H])([H])C3([H])C([H])([H])C([H])([H])C([H])(c4c([H])c(C(=O)N([H])[H])c([H])c(N([H])C(=O)N5C([H])([H])C([H])([H])C([H])([H])C([H])(n6nc(-c7c([H])c([H])c(Oc8c([H])c([H])c(F)c([H])c8F)c([H])c7[H])c(C(=O)N([H])[H])c6N([H])[H])C5([H])[H])c4C([H])([H])[H])C([H])([H])C3([H])[H])c([H])c([H])c2C1([H])[H]

$$$$
44:0:0
     RDKit          3D

 86 95  0  0  1  0  0  0  0  0999 V2000
  -30.4730  -15.3090   20.3340 C   0  0  0  0  0  0  0  0  0  0  0  0
  -30.4200  -12.8350   19.5350 C   0  0  0  0  0  2  0  0  0  0  0  0
  -29.5460  -12.5690   18.2860 C   0  0  0  0  0  2  0  0  0  0  0  0
  -28.0840  -12.3260   18.6910 C   0  0  0  0  0  2  0  0  0  0  0  0
  -27.6010  -13.3290   19.7710 C   0  0  0  0  0  3  0  0  0  0  0  0
  -28.6150  -13.5340   20.9170 C   0  0  0  0  0  2  0  0  0  0  0  0
  -29.8530  -14.0210   20.2880 N   0  0  0  0  0  0  0  0  0  0  0  0
  -31.7000  -15.2190   20.1630 O   0  0  0  0  0  0  0  0  0  0  0  0
  -27.7390  -19.9600   19.8330 C   0  0  0  0  0  2  0  0  0  0  0  0
  -28.4310  -17.2030   20.4510 C   0  0  0  0  0  2  0  0  0  0  0  0
  -30.4880  -18.1090   20.0790 C   0  0  0  0  0  2  0  0  0  0  0  0
  -28.3340  -18.8100   20.7500 C   0  0  0  0  0  3  0  0  0  0  0  0
  -29.6690  -19.4880   20.6080 C   0  0  0  0  0  3  0  0  0  0  0  0
  -28.9740  -20.9410   19.9130 C   0  0  0  0  0  3  0  0  0  0  0  0
  -29.8480  -16.6770   20.3300 N   0  0  0  0  0  0  0  0  0  0  0  0
  -25.2180  -13.9080   20.4510 C   0  0  0  0  0  0  0  0  0  0  0  0
  -24.1450  -13.1440   20.8100 C   0  0  0  0  0  0  0  0  0  0  0  0
  -24.6070  -11.7910   20.8240 C   0  0  0  0  0  0  0  0  0  0  0  0
  -26.2630  -13.0250   20.2550 N   0  0  0  0  0  0  0  0  0  0  0  0
  -25.9080  -11.7470   20.5490 N   0  0  0  0  0  0  0  0  0  0  0  0
  -23.8700  -10.5370   21.0220 C   0  0  0  0  0  0  0  0  0  0  0  0
  -24.2880   -9.5700   21.9640 C   0  0  0  0  0  3  0  0  0  0  0  0
  -23.5470   -8.3840   22.1500 C   0  0  0  0  0  3  0  0  0  0  0  0
  -22.3720   -8.1540   21.3950 C   0  0  0  0  0  0  0  0  0  0  0  0
  -21.9710   -9.1070   20.4430 C   0  0  0  0  0  3  0  0  0  0  0  0
  -22.7140  -10.2860   20.2550 C   0  0  0  0  0  3  0  0  0  0  0  0
  -21.6040   -7.0180   21.4910 O   0  0  0  0  0  0  0  0  0  0  0  0
  -21.5660   -6.2670   22.6390 C   0  0  0  0  0  0  0  0  0  0  0  0
  -21.1970   -6.8270   23.8810 C   0  0  0  0  0  3  0  0  0  0  0  0
  -21.1040   -6.0070   25.0240 C   0  0  0  0  0  3  0  0  0  0  0  0
  -21.3690   -4.6270   24.9240 C   0  0  0  0  0  0  0  0  0  0  0  0
  -21.7310   -4.0670   23.6860 C   0  0  0  0  0  3  0  0  0  0  0  0
  -21.8270   -4.8850   22.5470 C   0  0  0  0  0  0  0  0  0  0  0  0
  -22.1550   -4.3370   21.3530 F   0  0  0  0  0  0  0  0  0  0  0  0
  -21.2720   -3.8380   26.0190 F   0  0  0  0  0  0  0  0  0  0  0  0
  -22.7430  -13.6310   21.0250 C   0  0  0  0  0  0  0  0  0  0  0  0
  -21.9910  -12.9700   21.8960 N   0  0  0  0  0  0  0  0  0  0  0  0
  -22.3240  -14.6390   20.4560 O   0  0  0  0  0  0  0  0  0  0  0  0
  -22.3430  -12.1560   22.3770 H   0  0  0  0  0  0  0  0  0  0  0  0
  -21.0480  -13.2800   22.0820 H   0  0  0  0  0  0  0  0  0  0  0  0
  -25.3870  -15.2730   20.2410 N   0  0  0  0  0  0  0  0  0  0  0  0
  -24.6100  -15.9220   20.3120 H   0  0  0  0  0  0  0  0  0  0  0  0
  -26.2300  -15.7000   19.8820 H   0  0  0  0  0  0  0  0  0  0  0  0
  -28.8630  -22.6850   20.4330 C   0  0  0  0  0  3  0  0  0  0  0  0
  -28.0950  -24.1970   19.7820 C   0  0  0  0  0  3  0  0  0  0  0  0
  -28.2370  -25.8270   20.0790 O   0  0  0  0  0  0  0  0  0  0  0  0
  -24.6170  -31.7580   23.0290 C   0  0  0  0  0  0  0  0  0  0  0  0
  -27.2210  -26.9190   19.9820 C   0  0  0  0  0  0  0  0  0  0  0  0
  -23.4370  -30.3530   21.3890 C   0  0  0  0  0  3  0  0  0  0  0  0
  -24.9020  -28.7790   19.9450 C   0  0  0  0  0  0  0  0  0  0  0  0
  -25.9990  -30.5990   21.2330 C   0  0  0  0  0  2  0  0  0  0  0  0
  -26.0840  -29.1930   20.5680 C   0  0  0  0  0  0  0  0  0  0  0  0
  -27.2370  -28.2840   20.5630 C   0  0  0  0  0  3  0  0  0  0  0  0
  -26.0100  -26.6630   19.3010 C   0  0  0  0  0  3  0  0  0  0  0  0
  -24.8910  -27.5370   19.2890 C   0  0  0  0  0  3  0  0  0  0  0  0
  -23.6700  -29.6820   20.0060 C   0  0  0  0  0  2  0  0  0  0  0  0
  -24.7070  -30.9300   21.9380 N   0  0  0  0  0  0  0  0  0  0  0  0
  -23.5260  -32.0270   23.5560 O   0  0  0  0  0  0  0  0  0  0  0  0
  -22.7620  -29.3400   22.3510 C   0  0  0  0  0  0  0  0  0  0  0  0
  -21.4290  -29.1840   22.2580 N   0  0  0  0  0  0  0  0  0  0  0  0
  -23.4450  -28.6960   23.1520 O   0  0  0  0  0  0  0  0  0  0  0  0
  -20.9300  -29.7520   21.5870 H   0  0  0  0  0  0  0  0  0  0  0  0
  -18.0530  -27.9930   22.8410 C   0  0  0  0  0  0  0  0  0  0  0  0
  -20.6220  -28.2350   23.0320 C   0  0  0  0  0  3  0  0  0  0  0  0
  -20.6950  -26.8160   22.4200 C   0  0  0  0  0  2  0  0  0  0  0  0
  -19.5600  -26.5260   21.4330 C   0  0  0  0  0  2  0  0  0  0  0  0
  -18.1990  -26.6620   22.1240 C   0  0  0  0  0  2  0  0  0  0  0  0
  -19.1890  -28.7390   23.2540 C   0  0  0  0  0  0  0  0  0  0  0  0
  -18.9950  -29.9830   23.8920 C   0  0  0  0  0  3  0  0  0  0  0  0
  -17.6990  -30.4830   24.1180 C   0  0  0  0  0  3  0  0  0  0  0  0
  -16.5770  -29.7350   23.7200 C   0  0  0  0  0  3  0  0  0  0  0  0
  -16.7560  -28.4910   23.0880 C   0  0  0  0  0  3  0  0  0  0  0  0
  -25.8800  -32.4170   23.6610 C   0  0  0  0  0  3  0  0  0  0  0  0
  -25.5260  -33.7930   24.0510 N   0  0  0  0  0  0  0  0  0  0  0  0
  -25.8160  -34.8910   23.3400 C   0  0  0  0  0  0  0  0  0  0  0  0
  -26.4700  -34.8540   22.2950 O   0  0  0  0  0  0  0  0  0  0  0  0
  -24.9410  -33.8940   24.8660 H   0  0  0  0  0  0  0  0  0  0  0  0
  -24.0280  -36.6510   23.1110 C   0  0  0  0  0  1  0  0  0  0  0  0
  -25.3000  -36.2450   23.8700 C   0  0  0  0  0  3  0  0  0  0  0  0
  -27.4300  -37.1600   24.6850 C   0  0  0  0  0  1  0  0  0  0  0  0
  -26.2980  -37.3340   23.7790 N   0  0  0  0  0  0  0  0  0  0  0  0
  -25.8690  -38.2330   23.9790 H   0  0  0  0  0  0  0  0  0  0  0  0
  -26.4330  -31.6260   24.9110 C   0  0  1  0  0  0  0  0  0  0  0  0
  -25.3610  -31.3340   25.9880 C   0  0  0  0  0  1  0  0  0  0  0  0
  -27.0410  -30.2720   24.4800 C   0  0  0  0  0  1  0  0  0  0  0  0
  -27.5760  -32.4280   25.5760 C   0  0  0  0  0  1  0  0  0  0  0  0
  2  7  1  0
  3  4  1  0
  3  2  1  0
  5  4  1  0
  5 19  1  0
  5  6  1  0
  7  1  1  0
  7  6  1  0
  8  1  2  0
  9 14  1  0
 10 12  1  0
 11 15  1  0
 12  9  1  0
 13 11  1  0
 13 12  1  0
 14 44  1  0
 14 13  1  0
 15  1  1  0
 15 10  1  0
 16 17  2  0
 17 18  1  0
 17 36  1  0
 18 21  1  0
 19 16  1  0
 19 20  1  0
 20 18  2  0
 21 22  1  0
 22 23  2  0
 24 27  1  0
 24 23  1  0
 25 24  2  0
 26 25  1  0
 26 21  2  0
 27 28  1  0
 28 29  1  0
 29 30  2  0
 31 30  1  0
 31 35  1  0
 32 31  2  0
 33 28  2  0
 33 32  1  0
 34 33  1  0
 36 37  1  0
 37 40  1  0
 37 39  1  0
 38 36  2  0
 41 42  1  0
 41 16  1  0
 43 41  1  0
 45 46  1  0
 45 44  2  0
 47 58  2  0
 48 46  1  0
 48 53  1  0
 49 57  1  0
 49 59  1  0
 50 56  1  0
 50 52  1  0
 51 57  1  0
 52 51  1  0
 53 52  2  0
 54 48  2  0
 55 54  1  0
 55 50  2  0
 56 49  1  0
 57 47  1  0
 59 61  2  0
 60 59  1  0
 62 60  1  0
 63 72  2  0
 63 68  1  0
 64 60  1  0
 64 68  1  0
 65 64  1  0
 66 67  1  0
 66 65  1  0
 67 63  1  0
 68 69  2  0
 69 70  1  0
 71 70  2  0
 72 71  1  0
 73 47  1  0
 73 74  1  0
 73 83  1  0
 74 77  1  0
 75 79  1  0
 75 74  1  0
 76 75  2  0
 79 78  1  0
 81 79  1  0
 81 82  1  0
 81 80  1  0
 83 86  1  1
 83 84  1  0
 85 83  1  0
M  ISO  4   1 100  15 100  45 101  46 101
M  END
>  <TORSDO>  (45) 
F 17

>  <SCORE>  (45) 
-16.094

>  <name>  (45) 
44

>  <ligand_id>  (45) 
44

>  <original_smiles>  (45) 
[H]c1c([H])c([H])c2c(c1[H])C([H])([H])C([H])([H])C([H])([H])C2([H])N([H])C(=O)C1([H])N(C(=O)C([H])(N([H])C(=O)C([H])(N([H])C([H])([H])[H])C([H])([H])[H])C(C([H])([H])[H])(C([H])([H])[H])C([H])([H])[H])C([H])([H])c2c([H])c(OC([H])([H])C([H])([H])C3([H])C([H])([H])C4([H])C([H])([H])N(C(=O)N5C([H])([H])C([H])([H])C([H])([H])C([H])(n6nc(-c7c([H])c([H])c(Oc8c([H])c([H])c(F)c([H])c8F)c([H])c7[H])c(C(=O)N([H])[H])c6N([H])[H])C5([H])[H])C([H])([H])C43[H])c([H])c([H])c2C1([H])[H]

>  <smiles>  (45) 
[H]c1c([H])c([H])c2c(c1[H])C([H])([H])C([H])([H])C([H])([H])C2([H])N([H])C(=O)C1([H])N(C(=O)C([H])(N([H])C(=O)C([H])(N([H])C([H])([H])[H])C([H])([H])[H])C(C([H])([H])[H])(C([H])([H])[H])C([H])([H])[H])C([H])([H])c2c([H])c(OC([H])([H])C([H])([H])C3([H])C([H])([H])C4([H])C([H])([H])N(C(=O)N5C([H])([H])C([H])([H])C([H])([H])C([H])(n6nc(-c7c([H])c([H])c(Oc8c([H])c([H])c(F)c([H])c8F)c([H])c7[H])c(C(=O)N([H])[H])c6N([H])[H])C5([H])[H])C([H])([H])C43[H])c([H])c([H])c2C1([H])[H]

$$$$
45:0:0
     RDKit          3D

 91 96  0  0  1  0  0  0  0  0999 V2000
  -29.5910  -10.6480   18.5700 C   0  0  0  0  0  2  0  0  0  0  0  0
  -29.5980  -11.2170   20.8060 C   0  0  0  0  0  2  0  0  0  0  0  0
  -30.8720  -12.5180   18.3290 C   0  0  0  0  0  2  0  0  0  0  0  0
  -31.0180  -11.0920   18.8630 C   0  0  0  0  0  3  0  0  0  0  0  0
  -31.0980  -11.0610   20.4340 C   0  0  0  0  0  3  0  0  0  0  0  0
  -28.9930  -11.7270   19.4780 C   0  0  0  0  0  3  0  0  0  0  0  0
  -29.6930  -13.0110   19.1190 N   0  0  2  0  0  4  0  0  0  0  0  0
  -30.0780  -13.2620   20.0180 H   0  0  0  0  0  0  0  0  0  0  0  0
  -32.0250  -12.0960   21.1820 C   0  0  0  0  0  2  0  0  0  0  0  0
  -31.4980  -14.5720   21.1860 C   0  0  0  0  0  0  0  0  0  0  0  0
  -30.6100  -16.1140   19.5120 C   0  0  0  0  0  2  0  0  0  0  0  0
  -29.1310  -16.7330   18.3950 C   0  0  0  0  0  2  0  0  0  0  0  0
  -27.3290  -16.1830   19.2180 C   0  0  0  0  0  1  0  0  0  0  0  0
  -27.4300  -15.0530   20.7830 C   0  0  0  0  0  3  0  0  0  0  0  0
  -28.9370  -14.6750   21.5270 C   0  0  0  0  0  2  0  0  0  0  0  0
  -30.3560  -15.2110   20.9170 N   0  0  0  0  0  0  0  0  0  0  0  0
  -32.5450  -14.9190   20.6570 O   0  0  0  0  0  0  0  0  0  0  0  0
  -31.3300  -13.3200   21.6480 N   0  0  0  0  0  0  0  0  0  0  0  0
  -30.5250  -13.1770   22.2440 H   0  0  0  0  0  0  0  0  0  0  0  0
  -25.1390  -14.4060   20.8400 C   0  0  0  0  0  0  0  0  0  0  0  0
  -24.2650  -13.4180   21.0760 C   0  0  0  0  0  0  0  0  0  0  0  0
  -24.9610  -12.1740   20.9920 C   0  0  0  0  0  0  0  0  0  0  0  0
  -26.3780  -13.9130   20.8050 N   0  0  0  0  0  0  0  0  0  0  0  0
  -26.3050  -12.4860   20.8730 N   0  0  0  0  0  0  0  0  0  0  0  0
  -24.2880  -10.8100   21.0130 C   0  0  0  0  0  0  0  0  0  0  0  0
  -24.6130   -9.7610   21.9110 C   0  0  0  0  0  3  0  0  0  0  0  0
  -23.8520   -8.5600   21.9690 C   0  0  0  0  0  3  0  0  0  0  0  0
  -22.7260   -8.3680   21.1300 C   0  0  0  0  0  0  0  0  0  0  0  0
  -22.4020   -9.3960   20.2230 C   0  0  0  0  0  3  0  0  0  0  0  0
  -23.1700  -10.5820   20.1670 C   0  0  0  0  0  3  0  0  0  0  0  0
  -21.9530   -7.2220   21.0910 O   0  0  0  0  0  0  0  0  0  0  0  0
  -21.7820   -6.4020   22.1830 C   0  0  0  0  0  0  0  0  0  0  0  0
  -21.2430   -6.8880   23.3950 C   0  0  0  0  0  3  0  0  0  0  0  0
  -21.0170   -6.0080   24.4750 C   0  0  0  0  0  3  0  0  0  0  0  0
  -21.3190   -4.6380   24.3450 C   0  0  0  0  0  0  0  0  0  0  0  0
  -21.8420   -4.1480   23.1360 C   0  0  0  0  0  3  0  0  0  0  0  0
  -22.0660   -5.0240   22.0580 C   0  0  0  0  0  0  0  0  0  0  0  0
  -22.5430   -4.5320   20.8900 F   0  0  0  0  0  0  0  0  0  0  0  0
  -21.1040   -3.7950   25.3810 F   0  0  0  0  0  0  0  0  0  0  0  0
  -22.8270  -13.7220   21.2970 C   0  0  0  0  0  0  0  0  0  0  0  0
  -22.1480  -12.9440   22.1200 N   0  0  0  0  0  0  0  0  0  0  0  0
  -22.3290  -14.7410   20.8150 O   0  0  0  0  0  0  0  0  0  0  0  0
  -22.5740  -12.1380   22.5500 H   0  0  0  0  0  0  0  0  0  0  0  0
  -21.1800  -13.1540   22.3190 H   0  0  0  0  0  0  0  0  0  0  0  0
  -24.9610  -15.7720   20.6990 N   0  0  0  0  0  0  0  0  0  0  0  0
  -24.0250  -16.1470   20.5870 H   0  0  0  0  0  0  0  0  0  0  0  0
  -25.6960  -16.4260   20.4630 H   0  0  0  0  0  0  0  0  0  0  0  0
  -28.9230  -14.3120   18.7140 C   0  0  0  0  0  1  0  0  0  0  0  0
  -28.6780  -17.6240   19.6410 C   0  0  0  0  0  1  0  0  0  0  0  0
  -28.0790  -20.6050   19.5870 C   0  0  0  0  0 15  0  0  0  0  0  0
  -27.9110  -23.2460   20.0000 O   0  0  0  0  0 15  0  0  0  0  0  0
  -24.8580  -31.7240   23.0220 C   0  0  0  0  0  0  0  0  0  0  0  0
  -27.1860  -25.1920   20.0780 C   0  0  0  0  0  3  0  0  0  0  0  0
  -23.7320  -30.2370   21.4380 C   0  0  0  0  0  3  0  0  0  0  0  0
  -25.1440  -28.2330   20.1110 C   0  0  0  0  0  0  0  0  0  0  0  0
  -26.3280  -29.8840   21.5000 C   0  0  0  0  0  2  0  0  0  0  0  0
  -26.3520  -28.2750   20.8100 C   0  0  0  0  0  0  0  0  0  0  0  0
  -27.2750  -26.8490   20.7320 C   0  0  0  0  0  3  0  0  0  0  0  0
  -25.9860  -25.7850   19.3610 C   0  0  0  0  0  3  0  0  0  0  0  0
  -25.0930  -27.0130   19.3650 C   0  0  0  0  0  3  0  0  0  0  0  0
  -24.0240  -29.3830   20.1300 C   0  0  0  0  0  2  0  0  0  0  0  0
  -25.0290  -30.6940   22.0400 N   0  0  0  0  0  0  0  0  0  0  0  0
  -23.7300  -32.0890   23.4330 O   0  0  0  0  0  0  0  0  0  0  0  0
  -22.8770  -29.4380   22.4710 C   0  0  0  0  0  0  0  0  0  0  0  0
  -21.5330  -29.3560   22.3480 N   0  0  0  0  0  0  0  0  0  0  0  0
  -23.4680  -28.8700   23.3910 O   0  0  0  0  0  0  0  0  0  0  0  0
  -21.0840  -29.8650   21.5990 H   0  0  0  0  0  0  0  0  0  0  0  0
  -18.1210  -28.1490   22.9350 C   0  0  0  0  0  0  0  0  0  0  0  0
  -20.6860  -28.4510   23.1520 C   0  0  0  0  0  3  0  0  0  0  0  0
  -20.7820  -27.0030   22.6140 C   0  0  0  0  0  2  0  0  0  0  0  0
  -19.6800  -26.6630   21.6060 C   0  0  0  0  0  2  0  0  0  0  0  0
  -18.3020  -26.8010   22.2560 C   0  0  0  0  0  2  0  0  0  0  0  0
  -19.2380  -28.9330   23.3370 C   0  0  0  0  0  0  0  0  0  0  0  0
  -19.0040  -30.1830   23.9500 C   0  0  0  0  0  3  0  0  0  0  0  0
  -17.6920  -30.6550   24.1520 C   0  0  0  0  0  3  0  0  0  0  0  0
  -16.5930  -29.8720   23.7560 C   0  0  0  0  0  3  0  0  0  0  0  0
  -16.8080  -28.6200   23.1550 C   0  0  0  0  0  3  0  0  0  0  0  0
  -26.0190  -32.5230   23.7200 C   0  0  0  0  0  3  0  0  0  0  0  0
  -26.5010  -31.8420   25.0620 C   0  0  1  0  0  0  0  0  0  0  0  0
  -25.3730  -31.6080   26.0970 C   0  0  0  0  0  1  0  0  0  0  0  0
  -27.1490  -30.4770   24.7810 C   0  0  0  0  0  1  0  0  0  0  0  0
  -27.5950  -32.7050   25.7360 C   0  0  0  0  0  1  0  0  0  0  0  0
  -25.5930  -33.9220   24.0580 N   0  0  0  0  0  0  0  0  0  0  0  0
  -25.8940  -35.0460   23.3830 C   0  0  0  0  0  0  0  0  0  0  0  0
  -26.5610  -35.0210   22.3490 O   0  0  0  0  0  0  0  0  0  0  0  0
  -24.9830  -34.0080   24.8570 H   0  0  0  0  0  0  0  0  0  0  0  0
  -24.0860  -36.8160   23.2120 C   0  0  0  0  0  1  0  0  0  0  0  0
  -25.3900  -36.4140   23.9240 C   0  0  0  0  0  3  0  0  0  0  0  0
  -27.5280  -37.3950   24.6540 C   0  0  0  0  0  1  0  0  0  0  0  0
  -26.3680  -37.5190   23.7770 N   0  0  0  0  0  0  0  0  0  0  0  0
  -25.9280  -38.4170   23.9590 H   0  0  0  0  0  0  0  0  0  0  0  0
  1  4  1  0
  3  7  1  0
  4  3  1  0
  4  5  1  0
  5  2  1  0
  5  9  1  0
  6  1  1  0
  6  2  1  0
  7  6  1  0
  7  8  1  1
  9 18  1  0
 10 18  1  0
 11 16  1  0
 12 11  1  0
 12 49  1  0
 14 13  1  0
 14 23  1  0
 14 15  1  0
 16 10  1  0
 16 15  1  0
 17 10  2  0
 18 19  1  0
 20 21  2  0
 21 40  1  0
 22 25  1  0
 22 21  1  0
 23 20  1  0
 23 24  1  0
 24 22  2  0
 25 26  1  0
 26 27  2  0
 28 27  1  0
 29 28  2  0
 30 29  1  0
 30 25  2  0
 31 28  1  0
 31 32  1  0
 32 33  1  0
 33 34  2  0
 35 34  1  0
 35 39  1  0
 36 35  2  0
 37 32  2  0
 37 36  1  0
 38 37  1  0
 40 41  1  0
 41 44  1  0
 41 43  1  0
 42 40  2  0
 45 20  1  0
 46 45  1  0
 47 45  1  0
 48  7  1  0
 52 63  2  0
 53 58  1  0
 54 62  1  0
 54 64  1  0
 55 61  1  0
 55 57  1  0
 56 62  1  0
 57 56  1  0
 58 57  2  0
 59 60  1  0
 59 53  2  0
 60 55  2  0
 61 54  1  0
 62 52  1  0
 64 66  2  0
 65 64  1  0
 67 65  1  0
 68 77  2  0
 68 73  1  0
 69 65  1  0
 69 73  1  0
 70 69  1  0
 71 72  1  0
 71 70  1  0
 72 68  1  0
 73 74  2  0
 74 75  1  0
 76 75  2  0
 77 76  1  0
 78 52  1  0
 78 83  1  0
 78 79  1  0
 79 82  1  1
 79 80  1  0
 81 79  1  0
 83 86  1  0
 84 88  1  0
 84 83  1  0
 85 84  2  0
 88 87  1  0
 90 88  1  0
 90 91  1  0
 90 89  1  0
M  ISO  4  10 100  18 100  50 101  51 101
M  END
>  <TORSDO>  (46) 
F 20

>  <SCORE>  (46) 
-14.042

>  <name>  (46) 
45

>  <ligand_id>  (46) 
45

>  <original_smiles>  (46) 
[H]c1c([H])c([H])c2c(c1[H])C([H])([H])C([H])([H])C([H])([H])C2([H])N([H])C(=O)C1([H])N(C(=O)C([H])(N([H])C(=O)C([H])(N([H])C([H])([H])[H])C([H])([H])[H])C(C([H])([H])[H])(C([H])([H])[H])C([H])([H])[H])C([H])([H])c2c([H])c(OC([H])([H])C([H])([H])C([H])([H])[N+]3([H])C([H])([H])C4([H])C([H])([H])C3([H])C([H])([H])C4([H])C([H])([H])N([H])C(=O)N3C([H])([H])C([H])([H])C([H])([H])C([H])(n4nc(-c5c([H])c([H])c(Oc6c([H])c([H])c(F)c([H])c6F)c([H])c5[H])c(C(=O)N([H])[H])c4N([H])[H])C3([H])[H])c([H])c([H])c2C1([H])[H]

>  <smiles>  (46) 
[H]c1c([H])c([H])c2c(c1[H])C([H])([H])C([H])([H])C([H])([H])C2([H])N([H])C(=O)C1([H])N(C(=O)C([H])(N([H])C(=O)C([H])(N([H])C([H])([H])[H])C([H])([H])[H])C(C([H])([H])[H])(C([H])([H])[H])C([H])([H])[H])C([H])([H])c2c([H])c(OC([H])([H])C([H])([H])C([H])([H])[N+]3([H])C([H])([H])C4([H])C([H])([H])C3([H])C([H])([H])C4([H])C([H])([H])N([H])C(=O)N3C([H])([H])C([H])([H])C([H])([H])C([H])(n4nc(-c5c([H])c([H])c(Oc6c([H])c([H])c(F)c([H])c6F)c([H])c5[H])c(C(=O)N([H])[H])c4N([H])[H])C3([H])[H])c([H])c([H])c2C1([H])[H]

$$$$
46:0:0
     RDKit          3D

 94103  0  0  1  0  0  0  0  0999 V2000
  -25.1770  -23.0730   20.1450 C   0  0  0  0  0  2  0  0  0  0  0  0
  -25.9260  -21.7860   19.8300 C   0  0  0  0  0  2  0  0  0  0  0  0
  -26.1150  -23.7510   21.1350 C   0  0  0  0  0  2  0  0  0  0  0  0
  -27.4000  -22.2230   19.8150 C   0  0  0  0  0  3  0  0  0  0  0  0
  -27.4960  -23.4250   20.6890 N   0  0  1  0  0  4  0  0  0  0  0  0
  -28.0230  -23.1740   21.5140 H   0  0  0  0  0  0  0  0  0  0  0  0
  -28.3750  -21.1060   20.2320 C   0  0  0  0  0  2  0  0  0  0  0  0
  -28.4100  -19.9570   19.2020 C   0  0  0  0  0  2  0  0  0  0  0  0
  -28.1970  -18.5510   19.7860 C   0  0  0  0  0  2  0  0  0  0  0  0
  -30.8250  -14.5960   20.1130 C   0  0  0  0  0  0  0  0  0  0  0  0
  -30.4510  -12.4470   18.9430 C   0  0  0  0  0  2  0  0  0  0  0  0
  -29.4750  -12.6210   17.7630 C   0  0  0  0  0  2  0  0  0  0  0  0
  -28.0190  -12.4500   18.2390 C   0  0  0  0  0  2  0  0  0  0  0  0
  -27.7040  -13.3190   19.4820 C   0  0  0  0  0  3  0  0  0  0  0  0
  -28.7920  -13.1510   20.5700 C   0  0  0  0  0  2  0  0  0  0  0  0
  -30.1060  -13.4460   19.9650 N   0  0  0  0  0  0  0  0  0  0  0  0
  -31.9170  -14.7750   19.5620 O   0  0  0  0  0  0  0  0  0  0  0  0
  -31.3790  -17.5970   21.8540 C   0  0  0  0  0  2  0  0  0  0  0  0
  -30.1400  -18.4210   21.4740 C   0  0  0  0  0  2  0  0  0  0  0  0
  -31.0320  -16.1100   22.0650 C   0  0  0  0  0  2  0  0  0  0  0  0
  -29.1440  -16.3380   20.4890 C   0  0  0  0  0  2  0  0  0  0  0  0
  -29.4780  -17.8160   20.2290 C   0  0  0  0  0  3  0  0  0  0  0  0
  -30.2950  -15.5350   20.9300 N   0  0  0  0  0  0  0  0  0  0  0  0
  -25.3480  -13.9740   20.2780 C   0  0  0  0  0  0  0  0  0  0  0  0
  -24.2820  -13.2160   20.6820 C   0  0  0  0  0  0  0  0  0  0  0  0
  -24.7260  -11.8590   20.6400 C   0  0  0  0  0  0  0  0  0  0  0  0
  -26.3690  -13.0730   20.0100 N   0  0  0  0  0  0  0  0  0  0  0  0
  -26.0030  -11.7990   20.2880 N   0  0  0  0  0  0  0  0  0  0  0  0
  -23.9950  -10.6060   20.8520 C   0  0  0  0  0  0  0  0  0  0  0  0
  -24.4150   -9.6640   21.8160 C   0  0  0  0  0  3  0  0  0  0  0  0
  -23.6870   -8.4720   22.0160 C   0  0  0  0  0  3  0  0  0  0  0  0
  -22.5250   -8.2150   21.2500 C   0  0  0  0  0  0  0  0  0  0  0  0
  -22.1240   -9.1460   20.2770 C   0  0  0  0  0  3  0  0  0  0  0  0
  -22.8540  -10.3300   20.0760 C   0  0  0  0  0  3  0  0  0  0  0  0
  -21.7700   -7.0720   21.3570 O   0  0  0  0  0  0  0  0  0  0  0  0
  -21.6640   -6.3890   22.5410 C   0  0  0  0  0  0  0  0  0  0  0  0
  -21.1880   -7.0060   23.7190 C   0  0  0  0  0  3  0  0  0  0  0  0
  -21.0270   -6.2480   24.8960 C   0  0  0  0  0  3  0  0  0  0  0  0
  -21.3350   -4.8740   24.8960 C   0  0  0  0  0  0  0  0  0  0  0  0
  -21.8060   -4.2570   23.7240 C   0  0  0  0  0  3  0  0  0  0  0  0
  -21.9670   -5.0120   22.5480 C   0  0  0  0  0  0  0  0  0  0  0  0
  -22.4010   -4.4080   21.4160 F   0  0  0  0  0  0  0  0  0  0  0  0
  -21.1740   -4.1440   26.0250 F   0  0  0  0  0  0  0  0  0  0  0  0
  -22.9000  -13.7090   20.9980 C   0  0  0  0  0  0  0  0  0  0  0  0
  -22.1940  -13.0220   21.8890 N   0  0  0  0  0  0  0  0  0  0  0  0
  -22.4540  -14.7370   20.4900 O   0  0  0  0  0  0  0  0  0  0  0  0
  -22.5640  -12.1900   22.3230 H   0  0  0  0  0  0  0  0  0  0  0  0
  -21.2680  -13.3360   22.1430 H   0  0  0  0  0  0  0  0  0  0  0  0
  -25.5220  -15.3430   20.0960 N   0  0  0  0  0  0  0  0  0  0  0  0
  -24.7660  -16.0020   20.2420 H   0  0  0  0  0  0  0  0  0  0  0  0
  -26.3690  -15.7810   19.7570 H   0  0  0  0  0  0  0  0  0  0  0  0
  -28.2090  -24.5360   20.0010 C   0  0  0  0  0  2  0  0  0  0  0  0
  -28.4320  -25.7970   20.8560 C   0  0  0  0  0  2  0  0  0  0  0  0
  -28.3830  -26.9440   20.0090 O   0  0  0  0  0  0  0  0  0  0  0  0
  -24.5700  -31.9810   23.2190 C   0  0  0  0  0  0  0  0  0  0  0  0
  -27.1950  -27.6310   20.0420 C   0  0  0  0  0  0  0  0  0  0  0  0
  -23.3440  -30.6040   21.5680 C   0  0  0  0  0  3  0  0  0  0  0  0
  -24.7860  -29.0930   20.1070 C   0  0  0  0  0  0  0  0  0  0  0  0
  -25.8610  -30.9850   21.3410 C   0  0  0  0  0  2  0  0  0  0  0  0
  -25.9440  -29.6250   20.6830 C   0  0  0  0  0  0  0  0  0  0  0  0
  -27.1530  -28.9000   20.6510 C   0  0  0  0  0  3  0  0  0  0  0  0
  -26.0230  -27.1020   19.4580 C   0  0  0  0  0  3  0  0  0  0  0  0
  -24.8150  -27.8260   19.4960 C   0  0  0  0  0  3  0  0  0  0  0  0
  -23.5370  -29.9410   20.1770 C   0  0  0  0  0  2  0  0  0  0  0  0
  -24.6110  -31.2020   22.1020 N   0  0  0  0  0  0  0  0  0  0  0  0
  -23.4960  -32.2440   23.7780 O   0  0  0  0  0  0  0  0  0  0  0  0
  -22.7080  -29.5670   22.5220 C   0  0  0  0  0  0  0  0  0  0  0  0
  -21.3820  -29.3880   22.4100 N   0  0  0  0  0  0  0  0  0  0  0  0
  -23.4040  -28.9250   23.3120 O   0  0  0  0  0  0  0  0  0  0  0  0
  -20.8830  -29.9620   21.7440 H   0  0  0  0  0  0  0  0  0  0  0  0
  -18.0200  -28.1710   22.8980 C   0  0  0  0  0  0  0  0  0  0  0  0
  -20.5760  -28.4340   23.1700 C   0  0  0  0  0  3  0  0  0  0  0  0
  -20.6850  -27.0140   22.5700 C   0  0  0  0  0  2  0  0  0  0  0  0
  -19.5830  -26.7060   21.5500 C   0  0  0  0  0  2  0  0  0  0  0  0
  -18.2010  -26.8340   22.1980 C   0  0  0  0  0  2  0  0  0  0  0  0
  -19.1360  -28.9310   23.3380 C   0  0  0  0  0  0  0  0  0  0  0  0
  -18.9140  -30.1860   23.9460 C   0  0  0  0  0  3  0  0  0  0  0  0
  -17.6090  -30.6800   24.1210 C   0  0  0  0  0  3  0  0  0  0  0  0
  -16.5060  -29.9160   23.7000 C   0  0  0  0  0  3  0  0  0  0  0  0
  -16.7130  -28.6630   23.0930 C   0  0  0  0  0  3  0  0  0  0  0  0
  -25.8640  -32.6030   23.8340 C   0  0  0  0  0  3  0  0  0  0  0  0
  -25.5650  -33.9990   24.1790 N   0  0  0  0  0  0  0  0  0  0  0  0
  -25.8960  -35.0540   23.4230 C   0  0  0  0  0  0  0  0  0  0  0  0
  -26.5530  -34.9530   22.3820 O   0  0  0  0  0  0  0  0  0  0  0  0
  -24.9850  -34.1510   24.9890 H   0  0  0  0  0  0  0  0  0  0  0  0
  -24.1650  -36.8470   23.0950 C   0  0  0  0  0  1  0  0  0  0  0  0
  -25.4140  -36.4400   23.8910 C   0  0  0  0  0  3  0  0  0  0  0  0
  -27.5610  -37.3140   24.6990 C   0  0  0  0  0  1  0  0  0  0  0  0
  -26.4470  -37.4920   23.7710 N   0  0  0  0  0  0  0  0  0  0  0  0
  -26.0470  -38.4120   23.9300 H   0  0  0  0  0  0  0  0  0  0  0  0
  -26.3950  -31.8160   25.0950 C   0  0  1  0  0  0  0  0  0  0  0  0
  -25.3140  -31.5700   26.1730 C   0  0  0  0  0  1  0  0  0  0  0  0
  -26.9680  -30.4420   24.6790 C   0  0  0  0  0  1  0  0  0  0  0  0
  -27.5580  -32.5980   25.7510 C   0  0  0  0  0  1  0  0  0  0  0  0
  1  3  1  0
  2  1  1  0
  4  2  1  0
  4  7  1  0
  4  5  1  0
  5  3  1  0
  5  6  1  1
  8  9  1  0
  8  7  1  0
 10 23  1  0
 11 16  1  0
 12 13  1  0
 12 11  1  0
 14 13  1  0
 14 27  1  0
 14 15  1  0
 16 10  1  0
 16 15  1  0
 17 10  2  0
 18 20  1  0
 19 18  1  0
 21 23  1  0
 22  9  1  0
 22 21  1  0
 22 19  1  0
 23 20  1  0
 24 25  2  0
 25 44  1  0
 26 25  1  0
 26 29  1  0
 27 24  1  0
 27 28  1  0
 28 26  2  0
 29 30  1  0
 30 31  2  0
 32 35  1  0
 32 31  1  0
 33 32  2  0
 34 33  1  0
 34 29  2  0
 35 36  1  0
 36 41  2  0
 36 37  1  0
 37 38  2  0
 38 39  1  0
 39 43  1  0
 40 39  2  0
 41 40  1  0
 42 41  1  0
 44 45  1  0
 45 48  1  0
 45 47  1  0
 46 44  2  0
 49 50  1  0
 49 24  1  0
 51 49  1  0
 52  5  1  0
 52 53  1  0
 54 56  1  0
 54 53  1  0
 55 66  2  0
 56 61  1  0
 57 65  1  0
 57 67  1  0
 58 64  1  0
 58 60  1  0
 59 65  1  0
 60 59  1  0
 61 60  2  0
 62 63  1  0
 62 56  2  0
 63 58  2  0
 64 57  1  0
 65 55  1  0
 67 69  2  0
 68 67  1  0
 70 68  1  0
 71 80  2  0
 71 76  1  0
 72 68  1  0
 72 76  1  0
 73 72  1  0
 74 75  1  0
 74 73  1  0
 75 71  1  0
 76 77  2  0
 77 78  1  0
 79 78  2  0
 80 79  1  0
 81 55  1  0
 81 82  1  0
 81 91  1  0
 82 85  1  0
 83 87  1  0
 83 82  1  0
 84 83  2  0
 87 86  1  0
 89 87  1  0
 89 90  1  0
 89 88  1  0
 91 94  1  1
 91 92  1  0
 93 91  1  0
M  ISO  4  10 100  23 100  53 101  54 101
M  END
>  <TORSDO>  (47) 
F 21

>  <SCORE>  (47) 
-12.754

>  <name>  (47) 
46

>  <ligand_id>  (47) 
46

>  <original_smiles>  (47) 
[H]c1c([H])c([H])c2c(c1[H])C([H])([H])C([H])([H])C([H])([H])C2([H])N([H])C(=O)C1([H])N(C(=O)C([H])(N([H])C(=O)C([H])(N([H])C([H])([H])[H])C([H])([H])[H])C(C([H])([H])[H])(C([H])([H])[H])C([H])([H])[H])C([H])([H])c2c([H])c(OC([H])([H])C([H])([H])[N+]3([H])C([H])([H])C([H])([H])C([H])([H])C3([H])C([H])([H])C([H])([H])C([H])([H])C3([H])C([H])([H])N(C(=O)N4C([H])([H])C([H])([H])C([H])([H])C([H])(n5nc(-c6c([H])c([H])c(Oc7c([H])c([H])c(F)c([H])c7F)c([H])c6[H])c(C(=O)N([H])[H])c5N([H])[H])C4([H])[H])C([H])([H])C([H])([H])C3([H])[H])c([H])c([H])c2C1([H])[H]

>  <smiles>  (47) 
[H]c1c([H])c([H])c2c(c1[H])C([H])([H])C([H])([H])C([H])([H])C2([H])N([H])C(=O)C1([H])N(C(=O)C([H])(N([H])C(=O)C([H])(N([H])C([H])([H])[H])C([H])([H])[H])C(C([H])([H])[H])(C([H])([H])[H])C([H])([H])[H])C([H])([H])c2c([H])c(OC([H])([H])C([H])([H])[N+]3([H])C([H])([H])C([H])([H])C([H])([H])C3([H])C([H])([H])C([H])([H])C([H])([H])C3([H])C([H])([H])N(C(=O)N4C([H])([H])C([H])([H])C([H])([H])C([H])(n5nc(-c6c([H])c([H])c(Oc7c([H])c([H])c(F)c([H])c7F)c([H])c6[H])c(C(=O)N([H])[H])c5N([H])[H])C4([H])[H])C([H])([H])C([H])([H])C3([H])[H])c([H])c([H])c2C1([H])[H]

$$$$
47:0:0
     RDKit          3D

 87 95  0  0  1  0  0  0  0  0999 V2000
  -26.8120  -20.6600   20.3630 C   0  0  0  0  0  2  0  0  0  0  0  0
  -26.7290  -20.1140   18.9460 C   0  0  0  0  0  2  0  0  0  0  0  0
  -28.2570  -20.3840   20.7670 C   0  0  0  0  0  2  0  0  0  0  0  0
  -28.1210  -20.3450   18.3460 C   0  0  0  0  0  2  0  0  0  0  0  0
  -29.1190  -20.5850   19.5040 C   0  0  1  0  0  0  0  0  0  0  0  0
  -29.3620  -22.4960   19.4790 C   0  0  0  0  0  3  0  0  0  0  0  0
  -28.3510  -24.1340   19.5280 C   0  0  0  0  0  3  0  0  0  0  0  0
  -28.5350  -25.8600   19.7050 O   0  0  0  0  0  0  0  0  0  0  0  0
  -24.8920  -31.7060   23.2270 C   0  0  0  0  0  0  0  0  0  0  0  0
  -27.5370  -27.0360   19.7660 C   0  0  0  0  0  0  0  0  0  0  0  0
  -23.7480  -30.4750   21.4320 C   0  0  0  0  0  3  0  0  0  0  0  0
  -25.2400  -29.0100   19.8800 C   0  0  0  0  0  0  0  0  0  0  0  0
  -26.3240  -30.6730   21.3650 C   0  0  0  0  0  2  0  0  0  0  0  0
  -26.4190  -29.3220   20.5650 C   0  0  0  0  0  0  0  0  0  0  0  0
  -27.5570  -28.3660   20.4780 C   0  0  0  0  0  3  0  0  0  0  0  0
  -26.3210  -26.9250   19.0480 C   0  0  0  0  0  3  0  0  0  0  0  0
  -25.2270  -27.8390   19.1010 C   0  0  0  0  0  3  0  0  0  0  0  0
  -24.0180  -29.9320   19.9980 C   0  0  0  0  0  2  0  0  0  0  0  0
  -25.0100  -30.9770   22.0640 N   0  0  0  0  0  0  0  0  0  0  0  0
  -23.7870  -31.9340   23.7500 O   0  0  0  0  0  0  0  0  0  0  0  0
  -23.0340  -29.3870   22.2810 C   0  0  0  0  0  0  0  0  0  0  0  0
  -21.7040  -29.2380   22.1270 N   0  0  0  0  0  0  0  0  0  0  0  0
  -23.6890  -28.6800   23.0500 O   0  0  0  0  0  0  0  0  0  0  0  0
  -21.2260  -29.8650   21.4940 H   0  0  0  0  0  0  0  0  0  0  0  0
  -18.3150  -27.9960   22.5200 C   0  0  0  0  0  0  0  0  0  0  0  0
  -20.8800  -28.2170   22.7860 C   0  0  0  0  0  3  0  0  0  0  0  0
  -20.9660  -26.8670   22.0360 C   0  0  0  0  0  2  0  0  0  0  0  0
  -19.8520  -26.6800   21.0000 C   0  0  0  0  0  2  0  0  0  0  0  0
  -18.4780  -26.7450   21.6730 C   0  0  0  0  0  2  0  0  0  0  0  0
  -19.4410  -28.6950   23.0300 C   0  0  0  0  0  0  0  0  0  0  0  0
  -19.2320  -29.8670   23.7880 C   0  0  0  0  0  3  0  0  0  0  0  0
  -17.9290  -30.3410   24.0360 C   0  0  0  0  0  3  0  0  0  0  0  0
  -16.8170  -29.6390   23.5390 C   0  0  0  0  0  3  0  0  0  0  0  0
  -17.0120  -28.4670   22.7880 C   0  0  0  0  0  3  0  0  0  0  0  0
  -26.1370  -32.2990   23.9520 C   0  0  0  0  0  3  0  0  0  0  0  0
  -26.5640  -31.4680   25.2250 C   0  0  1  0  0  0  0  0  0  0  0  0
  -25.4090  -31.2210   26.2260 C   0  0  0  0  0  1  0  0  0  0  0  0
  -27.1330  -30.0900   24.8220 C   0  0  0  0  0  1  0  0  0  0  0  0
  -27.6970  -32.2060   25.9780 C   0  0  0  0  0  1  0  0  0  0  0  0
  -25.8230  -33.6880   24.3450 N   0  0  0  0  0  0  0  0  0  0  0  0
  -26.1710  -34.7820   23.6530 C   0  0  0  0  0  0  0  0  0  0  0  0
  -26.8460  -34.7280   22.6230 O   0  0  0  0  0  0  0  0  0  0  0  0
  -25.2210  -33.8030   25.1460 H   0  0  0  0  0  0  0  0  0  0  0  0
  -24.4460  -36.6050   23.4140 C   0  0  0  0  0  1  0  0  0  0  0  0
  -25.6970  -36.1510   24.1860 C   0  0  0  0  0  3  0  0  0  0  0  0
  -27.8330  -37.0050   25.0440 C   0  0  0  0  0  1  0  0  0  0  0  0
  -26.7310  -37.2070   24.1090 N   0  0  0  0  0  0  0  0  0  0  0  0
  -26.3260  -38.1210   24.2880 H   0  0  0  0  0  0  0  0  0  0  0  0
  -30.2240  -19.0110   19.4650 C   0  0  0  0  0  2  0  0  0  0  0  0
  -30.8530  -15.9330   19.6320 C   0  0  0  0  0  0  0  0  0  0  0  0
  -30.9700  -13.3560   18.9880 C   0  0  0  0  0  2  0  0  0  0  0  0
  -30.0310  -12.8680   17.8510 C   0  0  0  0  0  2  0  0  0  0  0  0
  -28.6400  -12.5180   18.4020 C   0  0  0  0  0  2  0  0  0  0  0  0
  -28.1550  -13.5830   19.4130 C   0  0  0  0  0  3  0  0  0  0  0  0
  -29.2280  -13.9830   20.4510 C   0  0  0  0  0  2  0  0  0  0  0  0
  -30.3590  -14.5650   19.6950 N   0  0  0  0  0  0  0  0  0  0  0  0
  -32.0750  -15.8990   19.3980 O   0  0  0  0  0  0  0  0  0  0  0  0
  -30.0600  -17.2620   19.6390 N   0  0  0  0  0  0  0  0  0  0  0  0
  -29.0900  -17.0360   19.8050 H   0  0  0  0  0  0  0  0  0  0  0  0
  -25.8880  -14.1310   20.4180 C   0  0  0  0  0  0  0  0  0  0  0  0
  -24.8370  -13.3580   20.8180 C   0  0  0  0  0  0  0  0  0  0  0  0
  -25.2550  -12.0020   20.6510 C   0  0  0  0  0  0  0  0  0  0  0  0
  -26.8760  -13.2510   20.0210 N   0  0  0  0  0  0  0  0  0  0  0  0
  -26.5160  -11.9570   20.2270 N   0  0  0  0  0  0  0  0  0  0  0  0
  -24.5030  -10.7500   20.8130 C   0  0  0  0  0  0  0  0  0  0  0  0
  -24.8950   -9.7650   21.7470 C   0  0  0  0  0  3  0  0  0  0  0  0
  -24.1410   -8.5810   21.8980 C   0  0  0  0  0  3  0  0  0  0  0  0
  -22.9800   -8.3740   21.1160 C   0  0  0  0  0  0  0  0  0  0  0  0
  -22.6070   -9.3460   20.1720 C   0  0  0  0  0  3  0  0  0  0  0  0
  -23.3620  -10.5210   20.0180 C   0  0  0  0  0  3  0  0  0  0  0  0
  -22.2010   -7.2440   21.1770 O   0  0  0  0  0  0  0  0  0  0  0  0
  -21.9600   -6.5980   22.3630 C   0  0  0  0  0  0  0  0  0  0  0  0
  -21.3060   -7.2360   23.4400 C   0  0  0  0  0  3  0  0  0  0  0  0
  -21.0160   -6.5160   24.6150 C   0  0  0  0  0  3  0  0  0  0  0  0
  -21.3720   -5.1570   24.7160 C   0  0  0  0  0  0  0  0  0  0  0  0
  -22.0180   -4.5180   23.6420 C   0  0  0  0  0  3  0  0  0  0  0  0
  -22.3090   -5.2370   22.4690 C   0  0  0  0  0  0  0  0  0  0  0  0
  -22.9140   -4.6100   21.4310 F   0  0  0  0  0  0  0  0  0  0  0  0
  -21.0870   -4.4620   25.8410 F   0  0  0  0  0  0  0  0  0  0  0  0
  -23.4820  -13.8540   21.2320 C   0  0  0  0  0  0  0  0  0  0  0  0
  -22.8090  -13.1290   22.1180 N   0  0  0  0  0  0  0  0  0  0  0  0
  -23.0350  -14.9170   20.8070 O   0  0  0  0  0  0  0  0  0  0  0  0
  -23.1860  -12.2670   22.4850 H   0  0  0  0  0  0  0  0  0  0  0  0
  -21.9030  -13.4410   22.4380 H   0  0  0  0  0  0  0  0  0  0  0  0
  -26.0800  -15.5080   20.3240 N   0  0  0  0  0  0  0  0  0  0  0  0
  -25.3460  -16.1700   20.5500 H   0  0  0  0  0  0  0  0  0  0  0  0
  -26.9010  -15.9450   19.9260 H   0  0  0  0  0  0  0  0  0  0  0  0
  1  3  1  0
  2  1  1  0
  4  2  1  0
  4  5  1  0
  5  3  1  0
  6  5  1  0
  6  7  2  0
  7  8  1  0
  8 10  1  0
  9 20  2  0
 10 15  1  0
 11 19  1  0
 11 21  1  0
 12 18  1  0
 12 14  1  0
 13 19  1  0
 14 13  1  0
 15 14  2  0
 16 17  1  0
 16 10  2  0
 17 12  2  0
 18 11  1  0
 19  9  1  0
 21 23  2  0
 22 21  1  0
 24 22  1  0
 25 34  2  0
 25 30  1  0
 26 22  1  0
 26 30  1  0
 27 26  1  0
 28 29  1  0
 28 27  1  0
 29 25  1  0
 30 31  2  0
 31 32  1  0
 33 32  2  0
 34 33  1  0
 35  9  1  0
 35 40  1  0
 35 36  1  0
 36 39  1  1
 36 37  1  0
 38 36  1  0
 40 43  1  0
 41 45  1  0
 41 40  1  0
 42 41  2  0
 45 44  1  0
 47 45  1  0
 47 48  1  0
 47 46  1  0
  5 49  1  1
 49 58  1  0
 50 58  1  0
 50 56  1  0
 51 56  1  0
 52 53  1  0
 52 51  1  0
 54 53  1  0
 54 63  1  0
 54 55  1  0
 56 55  1  0
 57 50  2  0
 58 59  1  0
 60 61  2  0
 61 80  1  0
 62 65  1  0
 62 61  1  0
 63 64  1  0
 63 60  1  0
 64 62  2  0
 65 66  1  0
 66 67  2  0
 68 71  1  0
 68 67  1  0
 69 68  2  0
 70 69  1  0
 70 65  2  0
 71 72  1  0
 72 77  2  0
 72 73  1  0
 73 74  2  0
 74 75  1  0
 75 79  1  0
 76 75  2  0
 77 76  1  0
 78 77  1  0
 80 81  1  0
 81 84  1  0
 81 83  1  0
 82 80  2  0
 85 60  1  0
 85 86  1  0
 87 85  1  0
M  ISO  4   7 101   8 101  50 100  58 100
M  END
>  <TORSDO>  (48) 
F 19

>  <SCORE>  (48) 
-13.526

>  <name>  (48) 
47

>  <ligand_id>  (48) 
47

>  <original_smiles>  (48) 
[H]c1c([H])c([H])c2c(c1[H])C([H])([H])C([H])([H])C([H])([H])C2([H])N([H])C(=O)C1([H])N(C(=O)C([H])(N([H])C(=O)C([H])(N([H])C([H])([H])[H])C([H])([H])[H])C(C([H])([H])[H])(C([H])([H])[H])C([H])([H])[H])C([H])([H])c2c([H])c(OC([H])([H])C([H])([H])C3(C([H])([H])N([H])C(=O)N4C([H])([H])C([H])([H])C([H])([H])C([H])(n5nc(-c6c([H])c([H])c(Oc7c([H])c([H])c(F)c([H])c7F)c([H])c6[H])c(C(=O)N([H])[H])c5N([H])[H])C4([H])[H])C([H])([H])C([H])([H])C([H])([H])C3([H])[H])c([H])c([H])c2C1([H])[H]

>  <smiles>  (48) 
[H]c1c([H])c([H])c2c(c1[H])C([H])([H])C([H])([H])C([H])([H])C2([H])N([H])C(=O)C1([H])N(C(=O)C([H])(N([H])C(=O)C([H])(N([H])C([H])([H])[H])C([H])([H])[H])C(C([H])([H])[H])(C([H])([H])[H])C([H])([H])[H])C([H])([H])c2c([H])c(OC([H])([H])C([H])([H])C3(C([H])([H])N([H])C(=O)N4C([H])([H])C([H])([H])C([H])([H])C([H])(n5nc(-c6c([H])c([H])c(Oc7c([H])c([H])c(F)c([H])c7F)c([H])c6[H])c(C(=O)N([H])[H])c5N([H])[H])C4([H])[H])C([H])([H])C([H])([H])C([H])([H])C3([H])[H])c([H])c([H])c2C1([H])[H]

$$$$
48:0:0
     RDKit          3D

 92101  0  0  1  0  0  0  0  0999 V2000
  -30.4920  -18.6400   18.7690 C   0  0  0  0  0  3  0  0  0  0  0  0
  -30.4710  -17.2870   19.1780 C   0  0  0  0  0  3  0  0  0  0  0  0
  -29.8410  -17.9490   21.4510 C   0  0  0  0  0  3  0  0  0  0  0  0
  -30.1980  -19.6350   19.7190 C   0  0  0  0  0  0  0  0  0  0  0  0
  -29.8840  -19.2990   21.0290 C   0  0  0  0  0  0  0  0  0  0  0  0
  -30.1520  -16.9220   20.5180 C   0  0  0  0  0  0  0  0  0  0  0  0
  -30.1580  -21.1000   19.5480 C   0  0  0  0  0  0  0  0  0  0  0  0
  -29.6090  -20.5380   21.8570 C   0  0  0  0  0  2  0  0  0  0  0  0
  -29.9720  -21.7460   20.9360 C   0  0  0  0  0  3  0  0  0  0  0  0
  -30.2760  -21.7320   18.4950 O   0  0  0  0  0  0  0  0  0  0  0  0
  -30.7650  -14.5120   20.4210 C   0  0  0  0  0  0  0  0  0  0  0  0
  -30.4580  -12.3470   19.2960 C   0  0  0  0  0  2  0  0  0  0  0  0
  -29.5340  -12.5780   18.0810 C   0  0  0  0  0  2  0  0  0  0  0  0
  -28.0540  -12.4530   18.4950 C   0  0  0  0  0  2  0  0  0  0  0  0
  -27.7140  -13.2830   19.7610 C   0  0  0  0  0  3  0  0  0  0  0  0
  -28.7570  -13.0510   20.8790 C   0  0  0  0  0  2  0  0  0  0  0  0
  -30.0930  -13.3330   20.3260 N   0  0  0  0  0  0  0  0  0  0  0  0
  -31.9030  -14.6680   19.9670 O   0  0  0  0  0  0  0  0  0  0  0  0
  -30.0650  -15.5490   20.9240 N   0  0  0  0  0  0  0  0  0  0  0  0
  -29.2580  -15.3010   21.4760 H   0  0  0  0  0  0  0  0  0  0  0  0
  -25.3090  -13.9050   20.4370 C   0  0  0  0  0  0  0  0  0  0  0  0
  -24.2330  -13.1400   20.7980 C   0  0  0  0  0  0  0  0  0  0  0  0
  -24.6890  -11.7860   20.7830 C   0  0  0  0  0  0  0  0  0  0  0  0
  -26.3530  -13.0180   20.2250 N   0  0  0  0  0  0  0  0  0  0  0  0
  -25.9830  -11.7380   20.4910 N   0  0  0  0  0  0  0  0  0  0  0  0
  -23.9560  -10.5280   20.9750 C   0  0  0  0  0  0  0  0  0  0  0  0
  -24.3720   -9.5680   21.9250 C   0  0  0  0  0  3  0  0  0  0  0  0
  -23.6400   -8.3740   22.1040 C   0  0  0  0  0  3  0  0  0  0  0  0
  -22.4790   -8.1310   21.3350 C   0  0  0  0  0  0  0  0  0  0  0  0
  -22.0800   -9.0810   20.3760 C   0  0  0  0  0  3  0  0  0  0  0  0
  -22.8130  -10.2660   20.1940 C   0  0  0  0  0  3  0  0  0  0  0  0
  -21.7200   -6.9890   21.4210 O   0  0  0  0  0  0  0  0  0  0  0  0
  -21.6450   -6.2620   22.5820 C   0  0  0  0  0  0  0  0  0  0  0  0
  -21.1840   -6.8320   23.7890 C   0  0  0  0  0  3  0  0  0  0  0  0
  -21.0560   -6.0310   24.9420 C   0  0  0  0  0  3  0  0  0  0  0  0
  -21.3790   -4.6610   24.8880 C   0  0  0  0  0  0  0  0  0  0  0  0
  -21.8330   -4.0910   23.6850 C   0  0  0  0  0  3  0  0  0  0  0  0
  -21.9620   -4.8890   22.5360 C   0  0  0  0  0  0  0  0  0  0  0  0
  -22.3800   -4.3310   21.3740 F   0  0  0  0  0  0  0  0  0  0  0  0
  -21.2480   -3.8900   25.9930 F   0  0  0  0  0  0  0  0  0  0  0  0
  -22.8350  -13.6250   21.0520 C   0  0  0  0  0  0  0  0  0  0  0  0
  -22.0950  -12.9390   21.9170 N   0  0  0  0  0  0  0  0  0  0  0  0
  -22.4060  -14.6470   20.5190 O   0  0  0  0  0  0  0  0  0  0  0  0
  -22.4540  -12.1120   22.3700 H   0  0  0  0  0  0  0  0  0  0  0  0
  -21.1570  -13.2470   22.1290 H   0  0  0  0  0  0  0  0  0  0  0  0
  -25.4840  -15.2730   20.2510 N   0  0  0  0  0  0  0  0  0  0  0  0
  -24.7250  -15.9380   20.3530 H   0  0  0  0  0  0  0  0  0  0  0  0
  -26.3470  -15.7030   19.9430 H   0  0  0  0  0  0  0  0  0  0  0  0
  -28.9610  -22.9280   21.0230 C   0  0  0  0  0  2  0  0  0  0  0  0
  -29.3950  -24.3070   20.4410 C   0  0  0  0  0  2  0  0  0  0  0  0
  -28.4810  -25.4520   20.9480 C   0  0  0  0  0  2  0  0  0  0  0  0
  -28.6520  -26.7200   20.2820 O   0  0  0  0  0  0  0  0  0  0  0  0
  -24.6990  -31.8880   23.2170 C   0  0  0  0  0  0  0  0  0  0  0  0
  -27.4970  -27.4750   20.2270 C   0  0  0  0  0  0  0  0  0  0  0  0
  -23.5610  -30.4560   21.5530 C   0  0  0  0  0  3  0  0  0  0  0  0
  -25.0790  -28.9440   20.1670 C   0  0  0  0  0  0  0  0  0  0  0  0
  -26.0840  -30.8610   21.4160 C   0  0  0  0  0  2  0  0  0  0  0  0
  -26.2140  -29.4900   20.7820 C   0  0  0  0  0  0  0  0  0  0  0  0
  -27.4290  -28.7630   20.8070 C   0  0  0  0  0  3  0  0  0  0  0  0
  -26.3480  -26.9550   19.5880 C   0  0  0  0  0  3  0  0  0  0  0  0
  -25.1420  -27.6760   19.5660 C   0  0  0  0  0  3  0  0  0  0  0  0
  -23.8160  -29.7770   20.1810 C   0  0  0  0  0  2  0  0  0  0  0  0
  -24.7980  -31.0830   22.1200 N   0  0  0  0  0  0  0  0  0  0  0  0
  -23.6010  -32.1420   23.7290 O   0  0  0  0  0  0  0  0  0  0  0  0
  -22.9060  -29.4270   22.5020 C   0  0  0  0  0  0  0  0  0  0  0  0
  -21.5820  -29.2430   22.3650 N   0  0  0  0  0  0  0  0  0  0  0  0
  -23.5850  -28.7950   23.3150 O   0  0  0  0  0  0  0  0  0  0  0  0
  -21.0950  -29.8040   21.6790 H   0  0  0  0  0  0  0  0  0  0  0  0
  -18.2010  -28.0740   22.8670 C   0  0  0  0  0  0  0  0  0  0  0  0
  -20.7630  -28.3000   23.1240 C   0  0  0  0  0  3  0  0  0  0  0  0
  -20.8460  -26.8790   22.5190 C   0  0  0  0  0  2  0  0  0  0  0  0
  -19.7330  -26.5880   21.5080 C   0  0  0  0  0  2  0  0  0  0  0  0
  -18.3580  -26.7360   22.1650 C   0  0  0  0  0  2  0  0  0  0  0  0
  -19.3310  -28.8160   23.3040 C   0  0  0  0  0  0  0  0  0  0  0  0
  -19.1300  -30.0700   23.9200 C   0  0  0  0  0  3  0  0  0  0  0  0
  -17.8330  -30.5830   24.1040 C   0  0  0  0  0  3  0  0  0  0  0  0
  -16.7170  -29.8380   23.6840 C   0  0  0  0  0  3  0  0  0  0  0  0
  -16.9020  -28.5850   23.0720 C   0  0  0  0  0  3  0  0  0  0  0  0
  -25.9580  -32.5460   23.8630 C   0  0  0  0  0  3  0  0  0  0  0  0
  -26.4650  -31.7860   25.1500 C   0  0  1  0  0  0  0  0  0  0  0  0
  -25.3560  -31.5260   26.1950 C   0  0  0  0  0  1  0  0  0  0  0  0
  -27.0850  -30.4210   24.7670 C   0  0  0  0  0  1  0  0  0  0  0  0
  -27.5850  -32.6040   25.8350 C   0  0  0  0  0  1  0  0  0  0  0  0
  -25.6130  -33.9370   24.1840 N   0  0  0  0  0  0  0  0  0  0  0  0
  -25.9310  -34.9930   23.4230 C   0  0  0  0  0  0  0  0  0  0  0  0
  -26.6150  -34.9000   22.4000 O   0  0  0  0  0  0  0  0  0  0  0  0
  -25.0060  -34.0810   24.9770 H   0  0  0  0  0  0  0  0  0  0  0  0
  -24.1650  -36.7410   23.0390 C   0  0  0  0  0  1  0  0  0  0  0  0
  -25.4060  -36.3710   23.8670 C   0  0  0  0  0  3  0  0  0  0  0  0
  -27.5070  -37.3130   24.7190 C   0  0  0  0  0  1  0  0  0  0  0  0
  -26.4130  -37.4470   23.7590 N   0  0  0  0  0  0  0  0  0  0  0  0
  -25.9840  -38.3580   23.8950 H   0  0  0  0  0  0  0  0  0  0  0  0
  1  2  2  0
  1  4  1  0
  2  6  1  0
  4  5  2  0
  5  3  1  0
  5  8  1  0
  6 19  1  0
  6  3  2  0
  7  4  1  0
  7  9  1  0
  9 49  1  0
  9  8  1  0
 10  7  2  0
 11 19  1  0
 12 17  1  0
 13 14  1  0
 13 12  1  0
 15 14  1  0
 15 24  1  0
 15 16  1  0
 17 11  1  0
 17 16  1  0
 18 11  2  0
 19 20  1  0
 21 22  2  0
 22 41  1  0
 23 22  1  0
 23 26  1  0
 24 21  1  0
 24 25  1  0
 25 23  2  0
 26 27  1  0
 27 28  2  0
 29 32  1  0
 29 28  1  0
 30 29  2  0
 31 30  1  0
 31 26  2  0
 32 33  1  0
 33 34  1  0
 34 35  2  0
 36 35  1  0
 36 40  1  0
 37 36  2  0
 38 33  2  0
 38 37  1  0
 39 38  1  0
 41 42  1  0
 42 45  1  0
 42 44  1  0
 43 41  2  0
 46 47  1  0
 46 21  1  0
 48 46  1  0
 50 51  1  0
 50 49  1  0
 52 51  1  0
 53 64  2  0
 54 52  1  0
 54 59  1  0
 55 63  1  0
 55 65  1  0
 56 62  1  0
 56 58  1  0
 57 63  1  0
 58 59  2  0
 58 57  1  0
 60 54  2  0
 61 60  1  0
 61 56  2  0
 62 55  1  0
 63 53  1  0
 65 67  2  0
 66 65  1  0
 68 66  1  0
 69 78  2  0
 69 74  1  0
 70 66  1  0
 70 74  1  0
 71 70  1  0
 72 73  1  0
 72 71  1  0
 73 69  1  0
 74 75  2  0
 75 76  1  0
 77 76  2  0
 78 77  1  0
 79 53  1  0
 79 84  1  0
 79 80  1  0
 80 83  1  1
 80 81  1  0
 82 80  1  0
 84 87  1  0
 85 89  1  0
 85 84  1  0
 86 85  2  0
 89 88  1  0
 91 89  1  0
 91 92  1  0
 91 90  1  0
M  ISO  4  11 100  19 100  51 101  52 101
M  END
>  <TORSDO>  (49) 
F 19

>  <SCORE>  (49) 
-14.003

>  <name>  (49) 
48

>  <ligand_id>  (49) 
48

>  <original_smiles>  (49) 
[H]c1c([H])c([H])c2c(c1[H])C([H])([H])C([H])([H])C([H])([H])C2([H])N([H])C(=O)C1([H])N(C(=O)C([H])(N([H])C(=O)C([H])(N([H])C([H])([H])[H])C([H])([H])[H])C(C([H])([H])[H])(C([H])([H])[H])C([H])([H])[H])C([H])([H])c2c([H])c(OC([H])([H])C([H])([H])C([H])([H])C3([H])C(=O)c4c([H])c([H])c(N([H])C(=O)N5C([H])([H])C([H])([H])C([H])([H])C([H])(n6nc(-c7c([H])c([H])c(Oc8c([H])c([H])c(F)c([H])c8F)c([H])c7[H])c(C(=O)N([H])[H])c6N([H])[H])C5([H])[H])c([H])c4C3([H])[H])c([H])c([H])c2C1([H])[H]

>  <smiles>  (49) 
[H]c1c([H])c([H])c2c(c1[H])C([H])([H])C([H])([H])C([H])([H])C2([H])N([H])C(=O)C1([H])N(C(=O)C([H])(N([H])C(=O)C([H])(N([H])C([H])([H])[H])C([H])([H])[H])C(C([H])([H])[H])(C([H])([H])[H])C([H])([H])[H])C([H])([H])c2c([H])c(OC([H])([H])C([H])([H])C([H])([H])C3([H])C(=O)c4c([H])c([H])c(N([H])C(=O)N5C([H])([H])C([H])([H])C([H])([H])C([H])(n6nc(-c7c([H])c([H])c(Oc8c([H])c([H])c(F)c([H])c8F)c([H])c7[H])c(C(=O)N([H])[H])c6N([H])[H])C5([H])[H])c([H])c4C3([H])[H])c([H])c([H])c2C1([H])[H]

$$$$
49:0:0
     RDKit          3D

 91100  0  0  1  0  0  0  0  0999 V2000
  -29.2310  -22.2000   21.4190 C   0  0  0  0  0  3  0  0  0  0  0  0
  -28.8920  -23.6530   21.4450 C   0  0  0  0  0  3  0  0  0  0  0  0
  -28.1720  -23.5610   19.2430 C   0  0  0  0  0  3  0  0  0  0  0  0
  -29.0620  -21.3220   20.2760 C   0  0  0  0  0  0  0  0  0  0  0  0
  -28.4930  -22.1080   19.2310 C   0  0  0  0  0  0  0  0  0  0  0  0
  -28.3470  -24.4870   20.3620 C   0  0  0  0  0  0  0  0  0  0  0  0
  -28.3300  -21.1800   18.0380 C   0  0  0  0  0  2  0  0  0  0  0  0
  -29.4420  -19.7160   19.8070 C   0  0  0  0  0  3  0  0  0  0  0  0
  -28.5940  -19.6830   18.4830 C   0  0  0  0  0  3  0  0  0  0  0  0
  -28.3140  -18.7930   16.0680 C   0  0  0  0  0  1  0  0  0  0  0  0
  -29.2060  -18.8540   17.3240 C   0  0  0  0  0  2  0  0  0  0  0  0
  -28.2910  -26.0190   20.3530 O   0  0  0  0  0  0  0  0  0  0  0  0
  -24.6440  -31.9280   23.2470 C   0  0  0  0  0  0  0  0  0  0  0  0
  -27.2120  -27.0390   20.3070 C   0  0  0  0  0  0  0  0  0  0  0  0
  -23.4550  -30.5150   21.6200 C   0  0  0  0  0  3  0  0  0  0  0  0
  -24.9050  -28.8920   20.2210 C   0  0  0  0  0  0  0  0  0  0  0  0
  -26.0160  -30.7330   21.4690 C   0  0  0  0  0  2  0  0  0  0  0  0
  -26.0870  -29.3140   20.8390 C   0  0  0  0  0  0  0  0  0  0  0  0
  -27.2320  -28.4080   20.8540 C   0  0  0  0  0  3  0  0  0  0  0  0
  -26.0040  -26.7510   19.6350 C   0  0  0  0  0  3  0  0  0  0  0  0
  -24.8870  -27.6310   19.5970 C   0  0  0  0  0  3  0  0  0  0  0  0
  -23.6850  -29.8100   20.2520 C   0  0  0  0  0  2  0  0  0  0  0  0
  -24.7280  -31.0860   22.1670 N   0  0  0  0  0  0  0  0  0  0  0  0
  -23.5550  -32.2220   23.7670 O   0  0  0  0  0  0  0  0  0  0  0  0
  -22.7560  -29.5330   22.5970 C   0  0  0  0  0  0  0  0  0  0  0  0
  -21.4270  -29.3700   22.4670 N   0  0  0  0  0  0  0  0  0  0  0  0
  -23.4200  -28.9140   23.4320 O   0  0  0  0  0  0  0  0  0  0  0  0
  -20.9480  -29.9130   21.7600 H   0  0  0  0  0  0  0  0  0  0  0  0
  -18.0390  -28.1760   22.9650 C   0  0  0  0  0  0  0  0  0  0  0  0
  -20.5970  -28.4420   23.2400 C   0  0  0  0  0  3  0  0  0  0  0  0
  -20.6990  -27.0030   22.6840 C   0  0  0  0  0  2  0  0  0  0  0  0
  -19.6040  -26.6720   21.6650 C   0  0  0  0  0  2  0  0  0  0  0  0
  -18.2190  -26.8220   22.3000 C   0  0  0  0  0  2  0  0  0  0  0  0
  -19.1550  -28.9450   23.3920 C   0  0  0  0  0  0  0  0  0  0  0  0
  -18.9320  -30.2100   23.9750 C   0  0  0  0  0  3  0  0  0  0  0  0
  -17.6250  -30.7070   24.1370 C   0  0  0  0  0  3  0  0  0  0  0  0
  -16.5230  -29.9370   23.7260 C   0  0  0  0  0  3  0  0  0  0  0  0
  -16.7310  -28.6730   23.1440 C   0  0  0  0  0  3  0  0  0  0  0  0
  -25.9150  -32.5740   23.8760 C   0  0  0  0  0  3  0  0  0  0  0  0
  -25.5950  -33.9760   24.1980 N   0  0  0  0  0  0  0  0  0  0  0  0
  -25.9260  -35.0330   23.4430 C   0  0  0  0  0  0  0  0  0  0  0  0
  -26.5940  -34.9330   22.4110 O   0  0  0  0  0  0  0  0  0  0  0  0
  -24.9920  -34.1200   24.9940 H   0  0  0  0  0  0  0  0  0  0  0  0
  -24.1900  -36.8300   23.1150 C   0  0  0  0  0  1  0  0  0  0  0  0
  -25.4430  -36.4230   23.9060 C   0  0  0  0  0  3  0  0  0  0  0  0
  -27.5900  -37.3190   24.6980 C   0  0  0  0  0  1  0  0  0  0  0  0
  -26.4720  -37.4800   23.7730 N   0  0  0  0  0  0  0  0  0  0  0  0
  -26.0660  -38.3990   23.9200 H   0  0  0  0  0  0  0  0  0  0  0  0
  -26.4120  -31.8210   25.1710 C   0  0  1  0  0  0  0  0  0  0  0  0
  -25.3090  -31.6000   26.2330 C   0  0  0  0  0  1  0  0  0  0  0  0
  -26.9960  -30.4350   24.8130 C   0  0  0  0  0  1  0  0  0  0  0  0
  -27.5570  -32.6220   25.8350 C   0  0  0  0  0  1  0  0  0  0  0  0
  -29.8100  -18.1700   20.6240 C   0  0  0  0  0  2  0  0  0  0  0  0
  -30.4350  -15.3090   20.1590 C   0  0  0  0  0  0  0  0  0  0  0  0
  -30.3720  -12.8990   19.2330 C   0  0  0  0  0  2  0  0  0  0  0  0
  -29.4210  -12.7350   18.0230 C   0  0  0  0  0  2  0  0  0  0  0  0
  -27.9830  -12.4550   18.5000 C   0  0  0  0  0  2  0  0  0  0  0  0
  -27.5510  -13.4090   19.6480 C   0  0  0  0  0  3  0  0  0  0  0  0
  -28.6290  -13.5350   20.7480 C   0  0  0  0  0  2  0  0  0  0  0  0
  -29.8530  -14.0230   20.0840 N   0  0  0  0  0  0  0  0  0  0  0  0
  -31.6620  -15.3130   19.9720 O   0  0  0  0  0  0  0  0  0  0  0  0
  -29.6580  -16.5590   20.2400 N   0  0  0  0  0  0  0  0  0  0  0  0
  -28.6780  -16.3170   20.2180 H   0  0  0  0  0  0  0  0  0  0  0  0
  -25.1970  -13.9630   20.4690 C   0  0  0  0  0  0  0  0  0  0  0  0
  -24.1460  -13.1830   20.8650 C   0  0  0  0  0  0  0  0  0  0  0  0
  -24.6160  -11.8340   20.8140 C   0  0  0  0  0  0  0  0  0  0  0  0
  -26.2370  -13.0900   20.1930 N   0  0  0  0  0  0  0  0  0  0  0  0
  -25.8990  -11.8040   20.4680 N   0  0  0  0  0  0  0  0  0  0  0  0
  -23.8940  -10.5680   21.0080 C   0  0  0  0  0  0  0  0  0  0  0  0
  -24.3390   -9.5960   21.9320 C   0  0  0  0  0  3  0  0  0  0  0  0
  -23.6120   -8.4010   22.1200 C   0  0  0  0  0  3  0  0  0  0  0  0
  -22.4260   -8.1690   21.3860 C   0  0  0  0  0  0  0  0  0  0  0  0
  -21.9970   -9.1310   20.4530 C   0  0  0  0  0  3  0  0  0  0  0  0
  -22.7280  -10.3160   20.2610 C   0  0  0  0  0  3  0  0  0  0  0  0
  -21.6700   -7.0270   21.4850 O   0  0  0  0  0  0  0  0  0  0  0  0
  -21.6350   -6.2790   22.6350 C   0  0  0  0  0  0  0  0  0  0  0  0
  -21.2310   -6.8290   23.8700 C   0  0  0  0  0  3  0  0  0  0  0  0
  -21.1450   -6.0080   25.0110 C   0  0  0  0  0  3  0  0  0  0  0  0
  -21.4550   -4.6380   24.9200 C   0  0  0  0  0  0  0  0  0  0  0  0
  -21.8620   -4.0900   23.6920 C   0  0  0  0  0  3  0  0  0  0  0  0
  -21.9460   -4.9070   22.5520 C   0  0  0  0  0  0  0  0  0  0  0  0
  -22.3130   -4.3690   21.3660 F   0  0  0  0  0  0  0  0  0  0  0  0
  -21.3690   -3.8460   26.0180 F   0  0  0  0  0  0  0  0  0  0  0  0
  -22.7560  -13.6560   21.1610 C   0  0  0  0  0  0  0  0  0  0  0  0
  -22.0360  -12.9610   22.0340 N   0  0  0  0  0  0  0  0  0  0  0  0
  -22.3100  -14.6850   20.6530 O   0  0  0  0  0  0  0  0  0  0  0  0
  -22.4040  -12.1350   22.4820 H   0  0  0  0  0  0  0  0  0  0  0  0
  -21.1030  -13.2680   22.2700 H   0  0  0  0  0  0  0  0  0  0  0  0
  -25.3510  -15.3340   20.2960 N   0  0  0  0  0  0  0  0  0  0  0  0
  -24.5820  -15.9790   20.4250 H   0  0  0  0  0  0  0  0  0  0  0  0
  -26.1770  -15.7710   19.9080 H   0  0  0  0  0  0  0  0  0  0  0  0
  1  2  1  0
  3  6  1  0
  4  1  2  0
  5  3  2  0
  5  4  1  0
  6  2  2  0
  7  9  1  0
  7  5  1  0
  8  4  1  0
  8 53  1  0
  9 11  1  0
  9  8  1  0
 10 11  1  0
 12  6  1  0
 13 24  2  0
 14 12  1  0
 14 19  1  0
 15 23  1  0
 15 25  1  0
 16 22  1  0
 16 18  1  0
 17 23  1  0
 18 19  2  0
 18 17  1  0
 20 14  2  0
 21 20  1  0
 21 16  2  0
 22 15  1  0
 23 13  1  0
 25 27  2  0
 26 25  1  0
 28 26  1  0
 29 38  2  0
 29 34  1  0
 30 26  1  0
 30 34  1  0
 31 30  1  0
 32 33  1  0
 32 31  1  0
 33 29  1  0
 34 35  2  0
 35 36  1  0
 37 36  2  0
 38 37  1  0
 39 13  1  0
 39 40  1  0
 39 49  1  0
 40 43  1  0
 41 45  1  0
 41 40  1  0
 42 41  2  0
 45 44  1  0
 47 45  1  0
 47 48  1  0
 47 46  1  0
 49 52  1  1
 49 50  1  0
 51 49  1  0
 54 62  1  0
 55 60  1  0
 56 57  1  0
 56 55  1  0
 58 57  1  0
 58 67  1  0
 58 59  1  0
 60 54  1  0
 60 59  1  0
 61 54  2  0
 62 53  1  0
 63 62  1  0
 64 65  2  0
 65 84  1  0
 66 65  1  0
 66 69  1  0
 67 68  1  0
 67 64  1  0
 68 66  2  0
 69 70  1  0
 70 71  2  0
 72 75  1  0
 72 71  1  0
 73 72  2  0
 74 73  1  0
 74 69  2  0
 75 76  1  0
 76 77  1  0
 77 78  2  0
 79 78  1  0
 79 83  1  0
 80 79  2  0
 81 76  2  0
 81 80  1  0
 82 81  1  0
 84 85  1  0
 85 88  1  0
 85 87  1  0
 86 84  2  0
 89 90  1  0
 89 64  1  0
 91 89  1  0
M  ISO  4   6 101  12 101  54 100  62 100
M  END
>  <TORSDO>  (50) 
F 18

>  <SCORE>  (50) 
-15.637

>  <name>  (50) 
49

>  <ligand_id>  (50) 
49

>  <original_smiles>  (50) 
[H]c1c([H])c([H])c2c(c1[H])C([H])([H])C([H])([H])C([H])([H])C2([H])N([H])C(=O)C1([H])N(C(=O)C([H])(N([H])C(=O)C([H])(N([H])C([H])([H])[H])C([H])([H])[H])C(C([H])([H])[H])(C([H])([H])[H])C([H])([H])[H])C([H])([H])c2c([H])c(Oc3c([H])c([H])c4c(c3[H])C([H])([H])C([H])(C([H])([H])C([H])([H])[H])C4([H])C([H])([H])N([H])C(=O)N3C([H])([H])C([H])([H])C([H])([H])C([H])(n4nc(-c5c([H])c([H])c(Oc6c([H])c([H])c(F)c([H])c6F)c([H])c5[H])c(C(=O)N([H])[H])c4N([H])[H])C3([H])[H])c([H])c([H])c2C1([H])[H]

>  <smiles>  (50) 
[H]c1c([H])c([H])c2c(c1[H])C([H])([H])C([H])([H])C([H])([H])C2([H])N([H])C(=O)C1([H])N(C(=O)C([H])(N([H])C(=O)C([H])(N([H])C([H])([H])[H])C([H])([H])[H])C(C([H])([H])[H])(C([H])([H])[H])C([H])([H])[H])C([H])([H])c2c([H])c(Oc3c([H])c([H])c4c(c3[H])C([H])([H])C([H])(C([H])([H])C([H])([H])[H])C4([H])C([H])([H])N([H])C(=O)N3C([H])([H])C([H])([H])C([H])([H])C([H])(n4nc(-c5c([H])c([H])c(Oc6c([H])c([H])c(F)c([H])c6F)c([H])c5[H])c(C(=O)N([H])[H])c4N([H])[H])C3([H])[H])c([H])c([H])c2C1([H])[H]

$$$$
50:0:0
     RDKit          3D

 89 98  0  0  1  0  0  0  0  0999 V2000
  -26.6100  -22.9540   21.4090 C   0  0  0  0  0  3  0  0  0  0  0  0
  -27.4260  -21.8550   21.0430 C   0  0  0  0  0  3  0  0  0  0  0  0
  -26.9140  -24.3000   21.0940 C   0  0  0  0  0  3  0  0  0  0  0  0
  -28.9010  -23.4710   20.0010 C   0  0  0  0  0  3  0  0  0  0  0  0
  -28.6300  -22.0060   20.3280 C   0  0  0  0  0  0  0  0  0  0  0  0
  -28.0550  -24.6910   20.3560 C   0  0  0  0  0  0  0  0  0  0  0  0
  -29.8910  -19.3420   21.0590 C   0  0  0  0  0  2  0  0  0  0  0  0
  -28.9810  -19.1700   19.2890 C   0  0  0  0  0  2  0  0  0  0  0  0
  -29.4610  -20.5420   20.0330 C   0  0  0  0  0  3  0  0  0  0  0  0
  -30.0870  -18.1810   19.9440 C   0  0  0  0  0  3  0  0  0  0  0  0
  -30.6160  -15.3600   20.0190 C   0  0  0  0  0  0  0  0  0  0  0  0
  -30.5360  -12.9570   19.1180 C   0  0  0  0  0  2  0  0  0  0  0  0
  -29.5590  -12.8250   17.9230 C   0  0  0  0  0  2  0  0  0  0  0  0
  -28.1260  -12.5580   18.4210 C   0  0  0  0  0  2  0  0  0  0  0  0
  -27.7340  -13.4890   19.5950 C   0  0  0  0  0  3  0  0  0  0  0  0
  -28.8330  -13.5870   20.6750 C   0  0  0  0  0  2  0  0  0  0  0  0
  -30.0500  -14.0670   20.0030 N   0  0  0  0  0  0  0  0  0  0  0  0
  -31.8080  -15.4060   19.6900 O   0  0  0  0  0  0  0  0  0  0  0  0
  -29.8420  -16.5830   20.1920 N   0  0  0  0  0  0  0  0  0  0  0  0
  -28.8900  -16.3730   20.4520 H   0  0  0  0  0  0  0  0  0  0  0  0
  -25.3970  -14.0120   20.4830 C   0  0  0  0  0  0  0  0  0  0  0  0
  -24.3580  -13.2180   20.8790 C   0  0  0  0  0  0  0  0  0  0  0  0
  -24.8280  -11.8720   20.7750 C   0  0  0  0  0  0  0  0  0  0  0  0
  -26.4300  -13.1520   20.1560 N   0  0  0  0  0  0  0  0  0  0  0  0
  -26.1030  -11.8570   20.3980 N   0  0  0  0  0  0  0  0  0  0  0  0
  -24.1170  -10.5990   20.9550 C   0  0  0  0  0  0  0  0  0  0  0  0
  -24.5390   -9.6450   21.9080 C   0  0  0  0  0  3  0  0  0  0  0  0
  -23.8250   -8.4390   22.0780 C   0  0  0  0  0  3  0  0  0  0  0  0
  -22.6750   -8.1770   21.2940 C   0  0  0  0  0  0  0  0  0  0  0  0
  -22.2710   -9.1210   20.3330 C   0  0  0  0  0  3  0  0  0  0  0  0
  -22.9870  -10.3190   20.1620 C   0  0  0  0  0  3  0  0  0  0  0  0
  -21.9350   -7.0220   21.3710 O   0  0  0  0  0  0  0  0  0  0  0  0
  -21.7840   -6.3420   22.5530 C   0  0  0  0  0  0  0  0  0  0  0  0
  -21.2000   -6.9440   23.6900 C   0  0  0  0  0  3  0  0  0  0  0  0
  -21.0000   -6.1880   24.8620 C   0  0  0  0  0  3  0  0  0  0  0  0
  -21.3730   -4.8310   24.8970 C   0  0  0  0  0  0  0  0  0  0  0  0
  -21.9490   -4.2280   23.7660 C   0  0  0  0  0  3  0  0  0  0  0  0
  -22.1500   -4.9810   22.5960 C   0  0  0  0  0  0  0  0  0  0  0  0
  -22.6860   -4.3920   21.5000 F   0  0  0  0  0  0  0  0  0  0  0  0
  -21.1750   -4.1020   26.0210 F   0  0  0  0  0  0  0  0  0  0  0  0
  -22.9740  -13.6760   21.2330 C   0  0  0  0  0  0  0  0  0  0  0  0
  -22.2900  -12.9430   22.1040 N   0  0  0  0  0  0  0  0  0  0  0  0
  -22.5100  -14.7180   20.7730 O   0  0  0  0  0  0  0  0  0  0  0  0
  -22.6800  -12.0990   22.4960 H   0  0  0  0  0  0  0  0  0  0  0  0
  -21.3620  -13.2310   22.3830 H   0  0  0  0  0  0  0  0  0  0  0  0
  -25.5420  -15.3900   20.3450 N   0  0  0  0  0  0  0  0  0  0  0  0
  -24.7740  -16.0300   20.5180 H   0  0  0  0  0  0  0  0  0  0  0  0
  -26.3550  -15.8480   19.9540 H   0  0  0  0  0  0  0  0  0  0  0  0
  -28.2440  -26.1720   20.1250 O   0  0  0  0  0  0  0  0  0  0  0  0
  -24.6410  -31.9650   23.2400 C   0  0  0  0  0  0  0  0  0  0  0  0
  -27.2090  -27.2220   20.1290 C   0  0  0  0  0  0  0  0  0  0  0  0
  -23.4360  -30.5790   21.6000 C   0  0  0  0  0  3  0  0  0  0  0  0
  -24.8830  -29.0220   20.1370 C   0  0  0  0  0  0  0  0  0  0  0  0
  -25.9930  -30.8370   21.4200 C   0  0  0  0  0  2  0  0  0  0  0  0
  -26.0690  -29.4440   20.7500 C   0  0  0  0  0  0  0  0  0  0  0  0
  -27.2280  -28.5600   20.7330 C   0  0  0  0  0  3  0  0  0  0  0  0
  -26.0010  -26.9410   19.4540 C   0  0  0  0  0  3  0  0  0  0  0  0
  -24.8670  -27.7860   19.4710 C   0  0  0  0  0  3  0  0  0  0  0  0
  -23.6520  -29.9190   20.2110 C   0  0  0  0  0  2  0  0  0  0  0  0
  -24.7110  -31.1520   22.1400 N   0  0  0  0  0  0  0  0  0  0  0  0
  -23.5570  -32.2370   23.7820 O   0  0  0  0  0  0  0  0  0  0  0  0
  -22.7700  -29.5590   22.5590 C   0  0  0  0  0  0  0  0  0  0  0  0
  -21.4440  -29.3670   22.4340 N   0  0  0  0  0  0  0  0  0  0  0  0
  -23.4520  -28.9440   23.3810 O   0  0  0  0  0  0  0  0  0  0  0  0
  -20.9490  -29.9160   21.7450 H   0  0  0  0  0  0  0  0  0  0  0  0
  -18.0880  -28.0940   22.9370 C   0  0  0  0  0  0  0  0  0  0  0  0
  -20.6410  -28.4110   23.2020 C   0  0  0  0  0  3  0  0  0  0  0  0
  -20.7730  -26.9830   22.6220 C   0  0  0  0  0  2  0  0  0  0  0  0
  -19.6780  -26.6410   21.6070 C   0  0  0  0  0  2  0  0  0  0  0  0
  -18.2940  -26.7520   22.2520 C   0  0  0  0  0  2  0  0  0  0  0  0
  -19.1910  -28.8800   23.3680 C   0  0  0  0  0  0  0  0  0  0  0  0
  -18.9420  -30.1320   23.9700 C   0  0  0  0  0  3  0  0  0  0  0  0
  -17.6260  -30.6000   24.1460 C   0  0  0  0  0  3  0  0  0  0  0  0
  -16.5390  -29.8110   23.7280 C   0  0  0  0  0  3  0  0  0  0  0  0
  -16.7710  -28.5610   23.1290 C   0  0  0  0  0  3  0  0  0  0  0  0
  -25.9170  -32.6100   23.8630 C   0  0  0  0  0  3  0  0  0  0  0  0
  -26.4330  -31.8460   25.1440 C   0  0  1  0  0  0  0  0  0  0  0  0
  -25.3380  -31.6090   26.2120 C   0  0  0  0  0  1  0  0  0  0  0  0
  -27.0230  -30.4680   24.7660 C   0  0  0  0  0  1  0  0  0  0  0  0
  -27.5790  -32.6480   25.8040 C   0  0  0  0  0  1  0  0  0  0  0  0
  -25.5990  -34.0080   24.1970 N   0  0  0  0  0  0  0  0  0  0  0  0
  -25.9100  -35.0680   23.4380 C   0  0  0  0  0  0  0  0  0  0  0  0
  -26.5580  -34.9720   22.3940 O   0  0  0  0  0  0  0  0  0  0  0  0
  -25.0160  -34.1560   25.0080 H   0  0  0  0  0  0  0  0  0  0  0  0
  -24.1620  -36.8560   23.1380 C   0  0  0  0  0  1  0  0  0  0  0  0
  -25.4270  -36.4540   23.9130 C   0  0  0  0  0  3  0  0  0  0  0  0
  -27.5740  -37.3590   24.6920 C   0  0  0  0  0  1  0  0  0  0  0  0
  -26.4500  -37.5150   23.7720 N   0  0  0  0  0  0  0  0  0  0  0  0
  -26.0410  -38.4330   23.9240 H   0  0  0  0  0  0  0  0  0  0  0  0
  2  1  2  0
  3  1  1  0
  4  5  2  0
  4  6  1  0
  5  2  1  0
  6  3  2  0
  8 10  1  0
  8  9  1  0
  9  5  1  0
  9  7  1  0
 10 19  1  0
 10  7  1  0
 11 19  1  0
 12 17  1  0
 13 14  1  0
 13 12  1  0
 15 14  1  0
 15 24  1  0
 15 16  1  0
 17 11  1  0
 17 16  1  0
 18 11  2  0
 19 20  1  0
 21 22  2  0
 22 41  1  0
 23 22  1  0
 23 26  1  0
 24 25  1  0
 24 21  1  0
 25 23  2  0
 26 27  1  0
 27 28  2  0
 29 32  1  0
 29 28  1  0
 30 29  2  0
 31 30  1  0
 31 26  2  0
 32 33  1  0
 33 38  2  0
 33 34  1  0
 34 35  2  0
 35 36  1  0
 36 40  1  0
 37 36  2  0
 38 37  1  0
 39 38  1  0
 41 42  1  0
 42 45  1  0
 42 44  1  0
 43 41  2  0
 46 21  1  0
 46 47  1  0
 48 46  1  0
 49 51  1  0
 49  6  1  0
 50 61  2  0
 51 56  1  0
 52 60  1  0
 52 62  1  0
 53 59  1  0
 53 55  1  0
 54 60  1  0
 55 54  1  0
 56 55  2  0
 57 58  1  0
 57 51  2  0
 58 53  2  0
 59 52  1  0
 60 50  1  0
 62 64  2  0
 63 62  1  0
 65 63  1  0
 66 75  2  0
 66 71  1  0
 67 63  1  0
 67 71  1  0
 68 67  1  0
 69 70  1  0
 69 68  1  0
 70 66  1  0
 71 72  2  0
 72 73  1  0
 74 73  2  0
 75 74  1  0
 76 50  1  0
 76 81  1  0
 76 77  1  0
 77 80  1  1
 77 78  1  0
 79 77  1  0
 81 84  1  0
 82 86  1  0
 82 81  1  0
 83 82  2  0
 86 85  1  0
 88 86  1  0
 88 89  1  0
 88 87  1  0
M  ISO  4   6 101  11 100  19 100  49 101
M  END
>  <TORSDO>  (51) 
F 17

>  <SCORE>  (51) 
-15.060

>  <name>  (51) 
50

>  <ligand_id>  (51) 
50

>  <original_smiles>  (51) 
[H]c1c([H])c([H])c2c(c1[H])C([H])([H])C([H])([H])C([H])([H])C2([H])N([H])C(=O)C1([H])N(C(=O)C([H])(N([H])C(=O)C([H])(N([H])C([H])([H])[H])C([H])([H])[H])C(C([H])([H])[H])(C([H])([H])[H])C([H])([H])[H])C([H])([H])c2c([H])c(Oc3c([H])c([H])c([H])c(C4([H])C([H])([H])C([H])(N([H])C(=O)N5C([H])([H])C([H])([H])C([H])([H])C([H])(n6nc(-c7c([H])c([H])c(Oc8c([H])c([H])c(F)c([H])c8F)c([H])c7[H])c(C(=O)N([H])[H])c6N([H])[H])C5([H])[H])C4([H])[H])c3[H])c([H])c([H])c2C1([H])[H]

>  <smiles>  (51) 
[H]c1c([H])c([H])c2c(c1[H])C([H])([H])C([H])([H])C([H])([H])C2([H])N([H])C(=O)C1([H])N(C(=O)C([H])(N([H])C(=O)C([H])(N([H])C([H])([H])[H])C([H])([H])[H])C(C([H])([H])[H])(C([H])([H])[H])C([H])([H])[H])C([H])([H])c2c([H])c(Oc3c([H])c([H])c([H])c(C4([H])C([H])([H])C([H])(N([H])C(=O)N5C([H])([H])C([H])([H])C([H])([H])C([H])(n6nc(-c7c([H])c([H])c(Oc8c([H])c([H])c(F)c([H])c8F)c([H])c7[H])c(C(=O)N([H])[H])c6N([H])[H])C5([H])[H])C4([H])[H])c3[H])c([H])c([H])c2C1([H])[H]

$$$$
51:0:0
     RDKit          3D

 88 96  0  0  1  0  0  0  0  0999 V2000
  -30.1880  -17.3090   19.9490 C   0  0  0  0  0  0  0  0  0  0  0  0
  -29.2420  -17.8000   21.0390 C   0  0  0  0  0  0  0  0  0  0  0  0
  -30.6880  -18.6670   19.1160 C   0  0  0  0  0  2  0  0  0  0  0  0
  -28.2210  -18.9140   20.7510 C   0  0  0  0  0  2  0  0  0  0  0  0
  -28.6130  -20.0100   19.7420 C   0  0  0  0  0  2  0  0  0  0  0  0
  -30.1200  -20.2130   19.5620 C   0  0  0  0  0  3  0  0  0  0  0  0
  -30.3320  -15.9490   20.0030 N   0  0  0  0  0  0  0  0  0  0  0  0
  -29.2210  -17.2790   22.1610 O   0  0  0  0  0  0  0  0  0  0  0  0
  -31.1100  -14.8430   19.4440 C   0  0  0  0  0  0  0  0  0  0  0  0
  -30.9260  -12.4100   18.6870 C   0  0  0  0  0  2  0  0  0  0  0  0
  -29.8880  -12.2990   17.5430 C   0  0  0  0  0  2  0  0  0  0  0  0
  -28.4560  -12.1690   18.0990 C   0  0  0  0  0  2  0  0  0  0  0  0
  -28.1720  -13.1940   19.2270 C   0  0  0  0  0  3  0  0  0  0  0  0
  -29.3110  -13.2210   20.2680 C   0  0  0  0  0  2  0  0  0  0  0  0
  -30.5490  -13.5670   19.5480 N   0  0  0  0  0  0  0  0  0  0  0  0
  -32.2060  -14.9250   18.8850 O   0  0  0  0  0  0  0  0  0  0  0  0
  -25.9240  -13.9420   20.2040 C   0  0  0  0  0  0  0  0  0  0  0  0
  -24.8390  -13.2460   20.6580 C   0  0  0  0  0  0  0  0  0  0  0  0
  -25.1820  -11.8630   20.5440 C   0  0  0  0  0  0  0  0  0  0  0  0
  -26.8640  -12.9910   19.8400 N   0  0  0  0  0  0  0  0  0  0  0  0
  -26.4290  -11.7310   20.1050 N   0  0  0  0  0  0  0  0  0  0  0  0
  -24.3730  -10.6590   20.7710 C   0  0  0  0  0  0  0  0  0  0  0  0
  -24.7860   -9.6500   21.6710 C   0  0  0  0  0  3  0  0  0  0  0  0
  -23.9800   -8.5110   21.8870 C   0  0  0  0  0  3  0  0  0  0  0  0
  -22.7480   -8.3720   21.2050 C   0  0  0  0  0  0  0  0  0  0  0  0
  -22.3540   -9.3670   20.2950 C   0  0  0  0  0  3  0  0  0  0  0  0
  -23.1580  -10.4980   20.0750 C   0  0  0  0  0  3  0  0  0  0  0  0
  -21.9130   -7.2880   21.3340 O   0  0  0  0  0  0  0  0  0  0  0  0
  -21.8360   -6.5740   22.5030 C   0  0  0  0  0  0  0  0  0  0  0  0
  -21.4480   -7.1760   23.7190 C   0  0  0  0  0  3  0  0  0  0  0  0
  -21.3120   -6.3920   24.8820 C   0  0  0  0  0  3  0  0  0  0  0  0
  -21.5550   -5.0070   24.8290 C   0  0  0  0  0  0  0  0  0  0  0  0
  -21.9360   -4.4040   23.6180 C   0  0  0  0  0  3  0  0  0  0  0  0
  -22.0730   -5.1850   22.4570 C   0  0  0  0  0  0  0  0  0  0  0  0
  -22.4200   -4.5960   21.2870 F   0  0  0  0  0  0  0  0  0  0  0  0
  -21.4180   -4.2510   25.9440 F   0  0  0  0  0  0  0  0  0  0  0  0
  -23.5200  -13.8250   21.0800 C   0  0  0  0  0  0  0  0  0  0  0  0
  -22.8310  -13.1680   22.0060 N   0  0  0  0  0  0  0  0  0  0  0  0
  -23.1150  -14.8930   20.6220 O   0  0  0  0  0  0  0  0  0  0  0  0
  -23.1740  -12.3020   22.3950 H   0  0  0  0  0  0  0  0  0  0  0  0
  -21.9480  -13.5370   22.3320 H   0  0  0  0  0  0  0  0  0  0  0  0
  -26.1850  -15.3010   20.0450 N   0  0  0  0  0  0  0  0  0  0  0  0
  -25.4880  -16.0140   20.2300 H   0  0  0  0  0  0  0  0  0  0  0  0
  -27.0290  -15.6660   19.6250 H   0  0  0  0  0  0  0  0  0  0  0  0
  -30.3110  -21.7020   18.7620 C   0  0  0  0  0  2  0  0  0  0  0  0
  -29.9600  -23.2520   19.3770 C   0  0  0  0  0  3  0  0  0  0  0  0
  -29.5290  -24.6380   18.4980 C   0  0  0  0  0  3  0  0  0  0  0  0
  -29.3690  -26.1230   18.9760 O   0  0  0  0  0  0  0  0  0  0  0  0
  -25.0330  -30.7250   22.7640 C   0  0  0  0  0  0  0  0  0  0  0  0
  -28.1620  -26.9200   19.0280 C   0  0  0  0  0  0  0  0  0  0  0  0
  -23.9890  -29.4160   20.9550 C   0  0  0  0  0  3  0  0  0  0  0  0
  -25.5990  -28.2920   19.2920 C   0  0  0  0  0  0  0  0  0  0  0  0
  -26.4720  -30.0730   20.7970 C   0  0  0  0  0  2  0  0  0  0  0  0
  -26.7220  -28.8150   19.9450 C   0  0  0  0  0  0  0  0  0  0  0  0
  -27.9950  -28.1430   19.8020 C   0  0  0  0  0  3  0  0  0  0  0  0
  -26.9930  -26.5050   18.3490 C   0  0  0  0  0  3  0  0  0  0  0  0
  -25.7460  -27.1550   18.4820 C   0  0  0  0  0  3  0  0  0  0  0  0
  -24.2570  -28.9820   19.4880 C   0  0  0  0  0  2  0  0  0  0  0  0
  -25.1830  -30.0890   21.5620 N   0  0  0  0  0  0  0  0  0  0  0  0
  -23.9350  -30.7680   23.3430 O   0  0  0  0  0  0  0  0  0  0  0  0
  -23.4970  -28.1930   21.7690 C   0  0  0  0  0  0  0  0  0  0  0  0
  -22.2130  -27.8260   21.6090 N   0  0  0  0  0  0  0  0  0  0  0  0
  -24.2710  -27.5830   22.5100 O   0  0  0  0  0  0  0  0  0  0  0  0
  -21.6330  -28.3830   20.9960 H   0  0  0  0  0  0  0  0  0  0  0  0
  -19.0850  -26.0220   21.9010 C   0  0  0  0  0  0  0  0  0  0  0  0
  -21.5640  -26.6740   22.2420 C   0  0  0  0  0  3  0  0  0  0  0  0
  -21.9020  -25.3640   21.4930 C   0  0  0  0  0  2  0  0  0  0  0  0
  -20.8670  -24.9940   20.4260 C   0  0  0  0  0  2  0  0  0  0  0  0
  -19.4830  -24.8210   21.0590 C   0  0  0  0  0  2  0  0  0  0  0  0
  -20.0610  -26.9020   22.4420 C   0  0  0  0  0  0  0  0  0  0  0  0
  -19.6330  -28.0200   23.1890 C   0  0  0  0  0  3  0  0  0  0  0  0
  -18.2640  -28.2670   23.3980 C   0  0  0  0  0  3  0  0  0  0  0  0
  -17.3030  -27.3850   22.8710 C   0  0  0  0  0  3  0  0  0  0  0  0
  -17.7150  -26.2640   22.1300 C   0  0  0  0  0  3  0  0  0  0  0  0
  -26.2260  -31.4470   23.4610 C   0  0  0  0  0  3  0  0  0  0  0  0
  -26.8840  -30.5890   24.6110 C   0  0  1  0  0  0  0  0  0  0  0  0
  -25.8680  -30.0550   25.6490 C   0  0  0  0  0  1  0  0  0  0  0  0
  -27.6390  -29.3730   24.0280 C   0  0  0  0  0  1  0  0  0  0  0  0
  -27.9350  -31.4390   25.3640 C   0  0  0  0  0  1  0  0  0  0  0  0
  -25.7270  -32.7230   23.9970 N   0  0  0  0  0  0  0  0  0  0  0  0
  -25.9070  -33.9180   23.4200 C   0  0  0  0  0  0  0  0  0  0  0  0
  -26.5750  -34.0700   22.3930 O   0  0  0  0  0  0  0  0  0  0  0  0
  -25.1230  -32.6680   24.8040 H   0  0  0  0  0  0  0  0  0  0  0  0
  -23.9440  -35.4930   23.3370 C   0  0  0  0  0  1  0  0  0  0  0  0
  -25.2410  -35.1410   24.0830 C   0  0  0  0  0  3  0  0  0  0  0  0
  -27.2430  -36.1750   25.0610 C   0  0  0  0  0  1  0  0  0  0  0  0
  -26.1180  -36.3310   24.1420 N   0  0  0  0  0  0  0  0  0  0  0  0
  -25.5910  -37.1540   24.4220 H   0  0  0  0  0  0  0  0  0  0  0  0
  1  7  2  0
  1  2  1  0
  2  8  2  0
  3  6  1  0
  3  1  1  0
  4  2  1  0
  5  4  1  0
  6 45  1  0
  6  5  1  0
  9 15  1  0
  9  7  1  0
 10 15  1  0
 11 12  1  0
 11 10  1  0
 13 12  1  0
 13 20  1  0
 13 14  1  0
 15 14  1  0
 16  9  2  0
 17 18  2  0
 18 37  1  0
 19 18  1  0
 19 22  1  0
 20 21  1  0
 20 17  1  0
 21 19  2  0
 22 23  1  0
 23 24  2  0
 25 28  1  0
 25 24  1  0
 26 25  2  0
 27 26  1  0
 27 22  2  0
 28 29  1  0
 29 30  1  0
 30 31  2  0
 32 31  1  0
 32 36  1  0
 33 32  2  0
 34 29  2  0
 34 33  1  0
 35 34  1  0
 37 38  1  0
 38 41  1  0
 38 40  1  0
 39 37  2  0
 42 17  1  0
 42 43  1  0
 44 42  1  0
 45 46  1  0
 47 48  1  0
 47 46  2  0
 48 50  1  0
 49 60  2  0
 50 55  1  0
 51 59  1  0
 51 61  1  0
 52 58  1  0
 52 54  1  0
 53 59  1  0
 54 53  1  0
 55 54  2  0
 56 57  1  0
 56 50  2  0
 57 52  2  0
 58 51  1  0
 59 49  1  0
 61 63  2  0
 62 61  1  0
 64 62  1  0
 65 74  2  0
 65 70  1  0
 66 62  1  0
 66 70  1  0
 67 66  1  0
 68 69  1  0
 68 67  1  0
 69 65  1  0
 70 71  2  0
 71 72  1  0
 73 72  2  0
 74 73  1  0
 75 49  1  0
 75 80  1  0
 75 76  1  0
 76 79  1  1
 76 77  1  0
 78 76  1  0
 80 83  1  0
 81 80  1  0
 81 85  1  0
 82 81  2  0
 85 84  1  0
 85 87  1  0
 87 88  1  0
 87 86  1  0
M  ISO  4   7 100   9 100  47 101  48 101
M  END
>  <TORSDO>  (52) 
F 19

>  <SCORE>  (52) 
-10.536

>  <name>  (52) 
51

>  <ligand_id>  (52) 
51

>  <original_smiles>  (52) 
[H]c1c([H])c([H])c2c(c1[H])C([H])([H])C([H])([H])C([H])([H])C2([H])N([H])C(=O)C1([H])N(C(=O)C([H])(N([H])C(=O)C([H])(N([H])C([H])([H])[H])C([H])([H])[H])C(C([H])([H])[H])(C([H])([H])[H])C([H])([H])[H])C([H])([H])c2c([H])c(OC([H])([H])C([H])([H])C([H])([H])C3([H])C([H])([H])C(=NC(=O)N4C([H])([H])C([H])([H])C([H])([H])C([H])(n5nc(-c6c([H])c([H])c(Oc7c([H])c([H])c(F)c([H])c7F)c([H])c6[H])c(C(=O)N([H])[H])c5N([H])[H])C4([H])[H])C(=O)C([H])([H])C3([H])[H])c([H])c([H])c2C1([H])[H]

>  <smiles>  (52) 
[H]c1c([H])c([H])c2c(c1[H])C([H])([H])C([H])([H])C([H])([H])C2([H])N([H])C(=O)C1([H])N(C(=O)C([H])(N([H])C(=O)C([H])(N([H])C([H])([H])[H])C([H])([H])[H])C(C([H])([H])[H])(C([H])([H])[H])C([H])([H])[H])C([H])([H])c2c([H])c(OC([H])([H])C([H])([H])C([H])([H])C3([H])C([H])([H])C(=NC(=O)N4C([H])([H])C([H])([H])C([H])([H])C([H])(n5nc(-c6c([H])c([H])c(Oc7c([H])c([H])c(F)c([H])c7F)c([H])c6[H])c(C(=O)N([H])[H])c5N([H])[H])C4([H])[H])C(=O)C([H])([H])C3([H])[H])c([H])c([H])c2C1([H])[H]

$$$$
52:0:0
     RDKit          3D

 89 97  0  0  1  0  0  0  0  0999 V2000
  -27.8050  -22.2410   21.1390 C   0  0  0  0  0  2  0  0  0  0  0  0
  -27.5340  -23.7410   20.8780 C   0  0  0  0  0  2  0  0  0  0  0  0
  -29.3070  -23.0500   19.4290 C   0  0  0  0  0  2  0  0  0  0  0  0
  -29.1290  -21.8940   20.4290 C   0  0  0  0  0  3  0  0  0  0  0  0
  -28.7930  -24.2850   20.1910 C   0  0  0  0  0  3  0  0  0  0  0  0
  -29.2020  -20.4620   19.8250 C   0  0  0  0  0  2  0  0  0  0  0  0
  -29.6660  -19.3790   20.8350 C   0  0  0  0  0  2  0  0  0  0  0  0
  -29.6140  -17.9150   20.3180 C   0  0  0  0  0  2  0  0  0  0  0  0
  -30.2940  -16.8970   21.2750 C   0  0  0  0  0  2  0  0  0  0  0  0
  -30.6420  -14.5020   20.4810 C   0  0  0  0  0  0  0  0  0  0  0  0
  -30.3560  -12.3400   19.3180 C   0  0  0  0  0  2  0  0  0  0  0  0
  -29.4050  -12.5450   18.1200 C   0  0  0  0  0  2  0  0  0  0  0  0
  -27.9320  -12.4100   18.5560 C   0  0  0  0  0  2  0  0  0  0  0  0
  -27.6040  -13.2470   19.8210 C   0  0  0  0  0  3  0  0  0  0  0  0
  -28.6610  -13.0100   20.9240 C   0  0  0  0  0  2  0  0  0  0  0  0
  -29.9820  -13.3190   20.3500 N   0  0  0  0  0  0  0  0  0  0  0  0
  -31.7720  -14.6990   20.0230 O   0  0  0  0  0  0  0  0  0  0  0  0
  -29.9140  -15.4950   21.0280 N   0  0  0  0  0  0  0  0  0  0  0  0
  -28.9910  -15.2270   21.3340 H   0  0  0  0  0  0  0  0  0  0  0  0
  -25.2100  -13.8740   20.5320 C   0  0  0  0  0  0  0  0  0  0  0  0
  -24.1380  -13.1110   20.9030 C   0  0  0  0  0  0  0  0  0  0  0  0
  -24.5900  -11.7560   20.8760 C   0  0  0  0  0  0  0  0  0  0  0  0
  -26.2500  -12.9850   20.3030 N   0  0  0  0  0  0  0  0  0  0  0  0
  -25.8800  -11.7060   20.5670 N   0  0  0  0  0  0  0  0  0  0  0  0
  -23.8550  -10.4990   21.0720 C   0  0  0  0  0  0  0  0  0  0  0  0
  -24.2990   -9.5180   21.9860 C   0  0  0  0  0  3  0  0  0  0  0  0
  -23.5660   -8.3250   22.1680 C   0  0  0  0  0  3  0  0  0  0  0  0
  -22.3750   -8.1060   21.4360 C   0  0  0  0  0  0  0  0  0  0  0  0
  -21.9510   -9.0760   20.5110 C   0  0  0  0  0  3  0  0  0  0  0  0
  -22.6840  -10.2580   20.3270 C   0  0  0  0  0  3  0  0  0  0  0  0
  -21.6110   -6.9680   21.5300 O   0  0  0  0  0  0  0  0  0  0  0  0
  -21.5980   -6.2010   22.6680 C   0  0  0  0  0  0  0  0  0  0  0  0
  -21.2460   -6.7380   23.9240 C   0  0  0  0  0  3  0  0  0  0  0  0
  -21.1760   -5.9000   25.0540 C   0  0  0  0  0  3  0  0  0  0  0  0
  -21.4520   -4.5240   24.9290 C   0  0  0  0  0  0  0  0  0  0  0  0
  -21.7980   -3.9870   23.6770 C   0  0  0  0  0  3  0  0  0  0  0  0
  -21.8680   -4.8220   22.5490 C   0  0  0  0  0  0  0  0  0  0  0  0
  -22.1820   -4.2960   21.3410 F   0  0  0  0  0  0  0  0  0  0  0  0
  -21.3770   -3.7170   26.0130 F   0  0  0  0  0  0  0  0  0  0  0  0
  -22.7440  -13.5980   21.1770 C   0  0  0  0  0  0  0  0  0  0  0  0
  -22.0120  -12.9080   22.0450 N   0  0  0  0  0  0  0  0  0  0  0  0
  -22.3120  -14.6250   20.6560 O   0  0  0  0  0  0  0  0  0  0  0  0
  -22.3750  -12.0760   22.4850 H   0  0  0  0  0  0  0  0  0  0  0  0
  -21.0780  -13.2170   22.2720 H   0  0  0  0  0  0  0  0  0  0  0  0
  -25.3850  -15.2430   20.3510 N   0  0  0  0  0  0  0  0  0  0  0  0
  -24.6220  -15.9030   20.4620 H   0  0  0  0  0  0  0  0  0  0  0  0
  -26.2390  -15.6780   20.0240 H   0  0  0  0  0  0  0  0  0  0  0  0
  -28.6090  -25.5590   19.3260 C   0  0  0  0  0  2  0  0  0  0  0  0
  -28.4220  -26.7430   20.1270 O   0  0  0  0  0  0  0  0  0  0  0  0
  -24.6080  -31.8990   23.2420 C   0  0  0  0  0  0  0  0  0  0  0  0
  -27.2210  -27.4310   20.1340 C   0  0  0  0  0  0  0  0  0  0  0  0
  -23.3860  -30.4960   21.6140 C   0  0  0  0  0  3  0  0  0  0  0  0
  -24.8250  -28.9500   20.1830 C   0  0  0  0  0  0  0  0  0  0  0  0
  -25.9140  -30.8430   21.3970 C   0  0  0  0  0  2  0  0  0  0  0  0
  -25.9890  -29.4700   20.7580 C   0  0  0  0  0  0  0  0  0  0  0  0
  -27.1850  -28.7140   20.7340 C   0  0  0  0  0  3  0  0  0  0  0  0
  -26.0230  -26.9180   19.5850 C   0  0  0  0  0  3  0  0  0  0  0  0
  -24.8360  -27.6730   19.6000 C   0  0  0  0  0  3  0  0  0  0  0  0
  -23.5830  -29.8110   20.2360 C   0  0  0  0  0  2  0  0  0  0  0  0
  -24.6550  -31.0950   22.1430 N   0  0  0  0  0  0  0  0  0  0  0  0
  -23.5300  -32.1740   23.7900 O   0  0  0  0  0  0  0  0  0  0  0  0
  -22.7430  -29.4770   22.5820 C   0  0  0  0  0  0  0  0  0  0  0  0
  -21.4170  -29.2930   22.4650 N   0  0  0  0  0  0  0  0  0  0  0  0
  -23.4320  -28.8520   23.3930 O   0  0  0  0  0  0  0  0  0  0  0  0
  -20.9210  -29.8530   21.7870 H   0  0  0  0  0  0  0  0  0  0  0  0
  -18.0490  -28.0890   22.9720 C   0  0  0  0  0  0  0  0  0  0  0  0
  -20.6060  -28.3560   23.2420 C   0  0  0  0  0  3  0  0  0  0  0  0
  -20.7110  -26.9210   22.6740 C   0  0  0  0  0  2  0  0  0  0  0  0
  -19.6100  -26.5890   21.6620 C   0  0  0  0  0  2  0  0  0  0  0  0
  -18.2280  -26.7360   22.3060 C   0  0  0  0  0  2  0  0  0  0  0  0
  -19.1650  -28.8580   23.3960 C   0  0  0  0  0  0  0  0  0  0  0  0
  -18.9420  -30.1250   23.9760 C   0  0  0  0  0  3  0  0  0  0  0  0
  -17.6360  -30.6230   24.1400 C   0  0  0  0  0  3  0  0  0  0  0  0
  -16.5340  -29.8510   23.7330 C   0  0  0  0  0  3  0  0  0  0  0  0
  -16.7410  -28.5870   23.1540 C   0  0  0  0  0  3  0  0  0  0  0  0
  -25.8980  -32.5330   23.8510 C   0  0  0  0  0  3  0  0  0  0  0  0
  -25.5910  -33.9290   24.1850 N   0  0  0  0  0  0  0  0  0  0  0  0
  -25.9150  -34.9820   23.4240 C   0  0  0  0  0  0  0  0  0  0  0  0
  -26.5730  -34.8810   22.3840 O   0  0  0  0  0  0  0  0  0  0  0  0
  -25.0100  -34.0830   24.9950 H   0  0  0  0  0  0  0  0  0  0  0  0
  -24.1770  -36.7690   23.0930 C   0  0  0  0  0  1  0  0  0  0  0  0
  -25.4290  -36.3680   23.8890 C   0  0  0  0  0  3  0  0  0  0  0  0
  -27.5750  -37.2540   24.6910 C   0  0  0  0  0  1  0  0  0  0  0  0
  -26.4570  -37.4240   23.7660 N   0  0  0  0  0  0  0  0  0  0  0  0
  -26.0510  -38.3420   23.9260 H   0  0  0  0  0  0  0  0  0  0  0  0
  -26.4320  -31.7620   25.1210 C   0  0  1  0  0  0  0  0  0  0  0  0
  -25.3540  -31.5210   26.2040 C   0  0  0  0  0  1  0  0  0  0  0  0
  -27.0120  -30.3870   24.7170 C   0  0  0  0  0  1  0  0  0  0  0  0
  -27.5890  -32.5600   25.7690 C   0  0  0  0  0  1  0  0  0  0  0  0
  2  1  1  0
  3  5  1  0
  3  4  1  0
  4  6  1  0
  4  1  1  0
  5 48  1  0
  5  2  1  0
  6  7  1  0
  8  7  1  0
  8  9  1  0
 10 18  1  0
 11 16  1  0
 12 13  1  0
 12 11  1  0
 14 13  1  0
 14 23  1  0
 14 15  1  0
 16 10  1  0
 16 15  1  0
 17 10  2  0
 18  9  1  0
 18 19  1  0
 20 21  2  0
 21 40  1  0
 22 21  1  0
 22 25  1  0
 23 20  1  0
 23 24  1  0
 24 22  2  0
 25 26  1  0
 26 27  2  0
 28 31  1  0
 28 27  1  0
 29 28  2  0
 30 29  1  0
 30 25  2  0
 31 32  1  0
 32 33  1  0
 33 34  2  0
 35 34  1  0
 35 39  1  0
 36 35  2  0
 37 32  2  0
 37 36  1  0
 38 37  1  0
 40 41  1  0
 41 44  1  0
 41 43  1  0
 42 40  2  0
 45 46  1  0
 45 20  1  0
 47 45  1  0
 48 49  1  0
 49 51  1  0
 50 61  2  0
 51 56  1  0
 52 60  1  0
 52 62  1  0
 53 59  1  0
 53 55  1  0
 54 60  1  0
 55 54  1  0
 56 55  2  0
 57 58  1  0
 57 51  2  0
 58 53  2  0
 59 52  1  0
 60 50  1  0
 62 64  2  0
 63 62  1  0
 65 63  1  0
 66 75  2  0
 66 71  1  0
 67 63  1  0
 67 71  1  0
 68 67  1  0
 69 70  1  0
 69 68  1  0
 70 66  1  0
 71 72  2  0
 72 73  1  0
 74 73  2  0
 75 74  1  0
 76 50  1  0
 76 77  1  0
 76 86  1  0
 77 80  1  0
 78 82  1  0
 78 77  1  0
 79 78  2  0
 82 81  1  0
 84 82  1  0
 84 85  1  0
 84 83  1  0
 86 89  1  1
 86 87  1  0
 88 86  1  0
M  ISO  4  10 100  18 100  48 101  49 101
M  END
>  <TORSDO>  (53) 
F 21

>  <SCORE>  (53) 
-13.448

>  <name>  (53) 
52

>  <ligand_id>  (53) 
52

>  <original_smiles>  (53) 
[H]c1c([H])c([H])c2c(c1[H])C([H])([H])C([H])([H])C([H])([H])C2([H])N([H])C(=O)C1([H])N(C(=O)C([H])(N([H])C(=O)C([H])(N([H])C([H])([H])[H])C([H])([H])[H])C(C([H])([H])[H])(C([H])([H])[H])C([H])([H])[H])C([H])([H])c2c([H])c(OC([H])([H])C3([H])C([H])([H])C([H])([H])C([H])(C([H])([H])C([H])([H])C([H])([H])C([H])([H])N([H])C(=O)N4C([H])([H])C([H])([H])C([H])([H])C([H])(n5nc(-c6c([H])c([H])c(Oc7c([H])c([H])c(F)c([H])c7F)c([H])c6[H])c(C(=O)N([H])[H])c5N([H])[H])C4([H])[H])C3([H])[H])c([H])c([H])c2C1([H])[H]

>  <smiles>  (53) 
[H]c1c([H])c([H])c2c(c1[H])C([H])([H])C([H])([H])C([H])([H])C2([H])N([H])C(=O)C1([H])N(C(=O)C([H])(N([H])C(=O)C([H])(N([H])C([H])([H])[H])C([H])([H])[H])C(C([H])([H])[H])(C([H])([H])[H])C([H])([H])[H])C([H])([H])c2c([H])c(OC([H])([H])C3([H])C([H])([H])C([H])([H])C([H])(C([H])([H])C([H])([H])C([H])([H])C([H])([H])N([H])C(=O)N4C([H])([H])C([H])([H])C([H])([H])C([H])(n5nc(-c6c([H])c([H])c(Oc7c([H])c([H])c(F)c([H])c7F)c([H])c6[H])c(C(=O)N([H])[H])c5N([H])[H])C4([H])[H])C3([H])[H])c([H])c([H])c2C1([H])[H]

$$$$
53:0:0
     RDKit          3D

 95103  0  0  1  0  0  0  0  0999 V2000
  -29.0850  -20.7720   19.3380 C   0  0  0  0  0  2  0  0  0  0  0  0
  -29.9120  -21.1800   21.6740 C   0  0  0  0  0  2  0  0  0  0  0  0
  -28.9520  -22.3630   19.1490 C   0  0  0  0  0  2  0  0  0  0  0  0
  -29.8360  -22.7580   21.4240 C   0  0  0  0  0  2  0  0  0  0  0  0
  -30.1150  -20.2490   20.4100 C   0  0  0  0  0  3  0  0  0  0  0  0
  -28.6970  -23.1960   20.4600 C   0  0  0  0  0  3  0  0  0  0  0  0
  -30.5240  -18.6270   20.6100 C   0  0  0  0  0  2  0  0  0  0  0  0
  -29.7180  -17.2520   20.1910 C   0  0  0  0  0  3  0  0  0  0  0  0
  -30.9250  -14.7070   20.0820 C   0  0  0  0  0  0  0  0  0  0  0  0
  -30.7580  -12.3210   19.2290 C   0  0  0  0  0  2  0  0  0  0  0  0
  -29.8110  -12.2860   18.0020 C   0  0  0  0  0  2  0  0  0  0  0  0
  -28.3410  -12.1620   18.4490 C   0  0  0  0  0  2  0  0  0  0  0  0
  -27.9870  -13.1550   19.5880 C   0  0  0  0  0  3  0  0  0  0  0  0
  -29.0410  -13.1170   20.7190 C   0  0  0  0  0  2  0  0  0  0  0  0
  -30.3470  -13.4440   20.1220 N   0  0  0  0  0  0  0  0  0  0  0  0
  -32.0410  -14.8380   19.5640 O   0  0  0  0  0  0  0  0  0  0  0  0
  -30.1580  -15.7880   20.5450 N   0  0  0  0  0  0  0  0  0  0  0  0
  -29.4520  -15.3950   21.1520 H   0  0  0  0  0  0  0  0  0  0  0  0
  -25.6280  -13.8680   20.2880 C   0  0  0  0  0  0  0  0  0  0  0  0
  -24.5380  -13.1620   20.7060 C   0  0  0  0  0  0  0  0  0  0  0  0
  -24.9380  -11.7890   20.7170 C   0  0  0  0  0  0  0  0  0  0  0  0
  -26.6360  -12.9410   20.0940 N   0  0  0  0  0  0  0  0  0  0  0  0
  -26.2240  -11.6840   20.4030 N   0  0  0  0  0  0  0  0  0  0  0  0
  -24.1540  -10.5720   20.9490 C   0  0  0  0  0  0  0  0  0  0  0  0
  -24.5760   -9.5870   21.8690 C   0  0  0  0  0  3  0  0  0  0  0  0
  -23.7930   -8.4350   22.0920 C   0  0  0  0  0  3  0  0  0  0  0  0
  -22.5740   -8.2560   21.3950 C   0  0  0  0  0  0  0  0  0  0  0  0
  -22.1690   -9.2300   20.4630 C   0  0  0  0  0  3  0  0  0  0  0  0
  -22.9520  -10.3750   20.2400 C   0  0  0  0  0  3  0  0  0  0  0  0
  -21.7660   -7.1540   21.5250 O   0  0  0  0  0  0  0  0  0  0  0  0
  -21.7570   -6.4020   22.6730 C   0  0  0  0  0  0  0  0  0  0  0  0
  -21.4630   -6.9670   23.9320 C   0  0  0  0  0  3  0  0  0  0  0  0
  -21.3960   -6.1450   25.0760 C   0  0  0  0  0  3  0  0  0  0  0  0
  -21.6120   -4.7590   24.9610 C   0  0  0  0  0  0  0  0  0  0  0  0
  -21.9020   -4.1940   23.7070 C   0  0  0  0  0  3  0  0  0  0  0  0
  -21.9720   -5.0130   22.5660 C   0  0  0  0  0  0  0  0  0  0  0  0
  -22.2330   -4.4590   21.3580 F   0  0  0  0  0  0  0  0  0  0  0  0
  -21.5360   -3.9690   26.0570 F   0  0  0  0  0  0  0  0  0  0  0  0
  -23.1690  -13.7120   20.9800 C   0  0  0  0  0  0  0  0  0  0  0  0
  -22.4380  -13.1040   21.9060 N   0  0  0  0  0  0  0  0  0  0  0  0
  -22.7680  -14.7260   20.4050 O   0  0  0  0  0  0  0  0  0  0  0  0
  -22.7800  -12.2920   22.4000 H   0  0  0  0  0  0  0  0  0  0  0  0
  -21.5190  -13.4560   22.1320 H   0  0  0  0  0  0  0  0  0  0  0  0
  -25.8330  -15.2160   20.0040 N   0  0  0  0  0  0  0  0  0  0  0  0
  -25.0230  -15.4800   19.4510 H   0  0  0  0  0  0  0  0  0  0  0  0
  -26.6600  -15.3070   19.4260 H   0  0  0  0  0  0  0  0  0  0  0  0
  -28.2550  -17.2910   20.7330 C   0  0  0  0  0  2  0  0  0  0  0  0
  -27.3040  -18.3340   20.1220 C   0  0  0  0  0  2  0  0  0  0  0  0
  -25.8110  -18.0960   20.4460 C   0  0  0  0  0  2  0  0  0  0  0  0
  -25.0880  -17.4450   19.3410 N   0  0  0  0  0  4  0  0  0  0  0  0
  -25.1580  -17.9940   18.5020 H   0  0  0  0  0  0  0  0  0  0  0  0
  -24.1150  -17.3380   19.5680 H   0  0  0  0  0  0  0  0  0  0  0  0
  -25.4810  -16.5230   19.1540 H   0  0  0  0  0  0  0  0  0  0  0  0
  -28.0000  -24.7050   20.5020 C   0  0  0  0  0  2  0  0  0  0  0  0
  -28.4280  -26.1480   20.2210 O   0  0  0  0  0  0  0  0  0  0  0  0
  -24.6830  -31.7310   23.1240 C   0  0  0  0  0  0  0  0  0  0  0  0
  -27.3760  -27.1120   20.1230 C   0  0  0  0  0  0  0  0  0  0  0  0
  -23.5230  -30.3110   21.4770 C   0  0  0  0  0  3  0  0  0  0  0  0
  -25.0150  -28.7820   20.0620 C   0  0  0  0  0  0  0  0  0  0  0  0
  -26.0690  -30.6350   21.3370 C   0  0  0  0  0  2  0  0  0  0  0  0
  -26.1740  -29.2500   20.6920 C   0  0  0  0  0  0  0  0  0  0  0  0
  -27.3540  -28.4240   20.7240 C   0  0  0  0  0  3  0  0  0  0  0  0
  -26.2060  -26.7590   19.4080 C   0  0  0  0  0  3  0  0  0  0  0  0
  -25.0390  -27.5450   19.4070 C   0  0  0  0  0  3  0  0  0  0  0  0
  -23.7650  -29.6440   20.1000 C   0  0  0  0  0  2  0  0  0  0  0  0
  -24.7770  -30.9130   22.0340 N   0  0  0  0  0  0  0  0  0  0  0  0
  -23.5880  -31.9950   23.6430 O   0  0  0  0  0  0  0  0  0  0  0  0
  -22.8650  -29.2850   22.4300 C   0  0  0  0  0  0  0  0  0  0  0  0
  -21.5430  -29.0790   22.2890 N   0  0  0  0  0  0  0  0  0  0  0  0
  -23.5430  -28.6780   23.2630 O   0  0  0  0  0  0  0  0  0  0  0  0
  -21.0490  -29.6150   21.5890 H   0  0  0  0  0  0  0  0  0  0  0  0
  -18.1910  -27.8000   22.7530 C   0  0  0  0  0  0  0  0  0  0  0  0
  -20.7370  -28.1290   23.0580 C   0  0  0  0  0  3  0  0  0  0  0  0
  -20.8860  -26.6960   22.4980 C   0  0  0  0  0  2  0  0  0  0  0  0
  -19.8100  -26.3310   21.4720 C   0  0  0  0  0  2  0  0  0  0  0  0
  -18.4150  -26.4480   22.0950 C   0  0  0  0  0  2  0  0  0  0  0  0
  -19.2820  -28.5950   23.1940 C   0  0  0  0  0  0  0  0  0  0  0  0
  -19.0190  -29.8540   23.7750 C   0  0  0  0  0  3  0  0  0  0  0  0
  -17.6990  -30.3240   23.9130 C   0  0  0  0  0  3  0  0  0  0  0  0
  -16.6240  -29.5260   23.4860 C   0  0  0  0  0  3  0  0  0  0  0  0
  -16.8700  -28.2670   22.9130 C   0  0  0  0  0  3  0  0  0  0  0  0
  -25.9460  -32.3920   23.7550 C   0  0  0  0  0  3  0  0  0  0  0  0
  -26.4760  -31.6250   25.0290 C   0  0  1  0  0  0  0  0  0  0  0  0
  -25.3830  -31.3540   26.0880 C   0  0  0  0  0  1  0  0  0  0  0  0
  -27.0960  -30.2670   24.6330 C   0  0  0  0  0  1  0  0  0  0  0  0
  -27.6020  -32.4440   25.7050 C   0  0  0  0  0  1  0  0  0  0  0  0
  -25.5970  -33.7790   24.0990 N   0  0  0  0  0  0  0  0  0  0  0  0
  -25.9270  -34.8530   23.3700 C   0  0  0  0  0  0  0  0  0  0  0  0
  -26.6240  -34.7840   22.3540 O   0  0  0  0  0  0  0  0  0  0  0  0
  -24.9790  -33.9070   24.8860 H   0  0  0  0  0  0  0  0  0  0  0  0
  -24.1740  -36.6220   23.0010 C   0  0  0  0  0  1  0  0  0  0  0  0
  -25.3970  -36.2210   23.8400 C   0  0  0  0  0  3  0  0  0  0  0  0
  -27.4870  -37.1320   24.7530 C   0  0  0  0  0  1  0  0  0  0  0  0
  -26.4110  -37.2980   23.7800 N   0  0  0  0  0  0  0  0  0  0  0  0
  -25.9800  -38.2060   23.9350 H   0  0  0  0  0  0  0  0  0  0  0  0
  1  5  1  0
  3  1  1  0
  3  6  1  0
  4  2  1  0
  5  7  1  0
  5  2  1  0
  6 54  1  0
  6  4  1  0
  8 17  1  0
  8  7  1  0
  8 47  1  0
  9 15  1  0
  9 17  1  0
 10 15  1  0
 11 12  1  0
 11 10  1  0
 13 12  1  0
 13 22  1  0
 13 14  1  0
 15 14  1  0
 16  9  2  0
 17 18  1  0
 19 20  2  0
 20 21  1  0
 20 39  1  0
 21 24  1  0
 22 19  1  0
 22 23  1  0
 23 21  2  0
 24 25  1  0
 25 26  2  0
 27 30  1  0
 27 26  1  0
 28 27  2  0
 29 28  1  0
 29 24  2  0
 30 31  1  0
 31 32  1  0
 32 33  2  0
 34 33  1  0
 34 38  1  0
 35 34  2  0
 36 31  2  0
 36 35  1  0
 37 36  1  0
 39 40  1  0
 40 43  1  0
 40 42  1  0
 41 39  2  0
 44 19  1  0
 45 44  1  0
 46 44  1  0
 48 49  1  0
 48 47  1  0
 50 52  1  0
 50 49  1  0
 51 50  1  0
 53 50  1  0
 55 54  1  0
 56 67  2  0
 57 55  1  0
 57 62  1  0
 58 66  1  0
 58 68  1  0
 59 65  1  0
 59 61  1  0
 60 66  1  0
 61 62  2  0
 61 60  1  0
 63 57  2  0
 64 63  1  0
 64 59  2  0
 65 58  1  0
 66 56  1  0
 68 70  2  0
 69 68  1  0
 71 69  1  0
 72 81  2  0
 72 77  1  0
 73 69  1  0
 73 77  1  0
 74 73  1  0
 75 76  1  0
 75 74  1  0
 76 72  1  0
 77 78  2  0
 78 79  1  0
 80 79  2  0
 81 80  1  0
 82 56  1  0
 82 87  1  0
 82 83  1  0
 83 86  1  1
 83 84  1  0
 85 83  1  0
 87 90  1  0
 88 92  1  0
 88 87  1  0
 89 88  2  0
 92 91  1  0
 94 92  1  0
 94 95  1  0
 94 93  1  0
M  ISO  4   9 100  17 100  54 101  55 101
M  END
>  <TORSDO>  (54) 
F 23

>  <SCORE>  (54) 
-11.448

>  <name>  (54) 
53

>  <ligand_id>  (54) 
53

>  <original_smiles>  (54) 
[H]c1c([H])c([H])c2c(c1[H])C([H])([H])C([H])([H])C([H])([H])C2([H])N([H])C(=O)C1([H])N(C(=O)C([H])(N([H])C(=O)C([H])(N([H])C([H])([H])[H])C([H])([H])[H])C(C([H])([H])[H])(C([H])([H])[H])C([H])([H])[H])C([H])([H])c2c([H])c(OC([H])([H])C3([H])C([H])([H])C([H])([H])C([H])(C([H])([H])C([H])(N([H])C(=O)N4C([H])([H])C([H])([H])C([H])([H])C([H])(n5nc(-c6c([H])c([H])c(Oc7c([H])c([H])c(F)c([H])c7F)c([H])c6[H])c(C(=O)N([H])[H])c5N([H])[H])C4([H])[H])C([H])([H])C([H])([H])C([H])([H])[N+]([H])([H])[H])C([H])([H])C3([H])[H])c([H])c([H])c2C1([H])[H]

>  <smiles>  (54) 
[H]c1c([H])c([H])c2c(c1[H])C([H])([H])C([H])([H])C([H])([H])C2([H])N([H])C(=O)C1([H])N(C(=O)C([H])(N([H])C(=O)C([H])(N([H])C([H])([H])[H])C([H])([H])[H])C(C([H])([H])[H])(C([H])([H])[H])C([H])([H])[H])C([H])([H])c2c([H])c(OC([H])([H])C3([H])C([H])([H])C([H])([H])C([H])(C([H])([H])C([H])(N([H])C(=O)N4C([H])([H])C([H])([H])C([H])([H])C([H])(n5nc(-c6c([H])c([H])c(Oc7c([H])c([H])c(F)c([H])c7F)c([H])c6[H])c(C(=O)N([H])[H])c5N([H])[H])C4([H])[H])C([H])([H])C([H])([H])C([H])([H])[N+]([H])([H])[H])C([H])([H])C3([H])[H])c([H])c([H])c2C1([H])[H]

$$$$
54:0:0
     RDKit          3D

 91100  0  0  1  0  0  0  0  0999 V2000
  -30.0320  -22.9140   19.4980 C   0  0  0  0  0  0  0  0  0  0  0  0
  -30.2240  -21.5150   18.8070 C   0  0  0  0  0  2  0  0  0  0  0  0
  -28.2170  -21.7250   20.7640 C   0  0  0  0  0  2  0  0  0  0  0  0
  -30.4230  -18.7810   19.2910 C   0  0  0  0  0  2  0  0  0  0  0  0
  -28.7820  -18.8140   20.9360 C   0  0  0  0  0  2  0  0  0  0  0  0
  -28.6150  -23.1800   20.0480 C   0  0  0  0  0  3  0  0  0  0  0  0
  -30.3400  -20.3070   19.8030 C   0  0  0  0  0  3  0  0  0  0  0  0
  -29.2220  -20.3850   20.8510 C   0  0  0  0  0  3  0  0  0  0  0  0
  -29.9730  -17.8150   20.4590 C   0  0  0  0  0  3  0  0  0  0  0  0
  -30.9830  -23.7410   19.6130 N   0  0  0  0  0  0  0  0  0  0  0  0
  -31.8430  -23.3900   19.2020 H   0  0  0  0  0  0  0  0  0  0  0  0
  -30.5180  -15.0730   20.0400 C   0  0  0  0  0  0  0  0  0  0  0  0
  -30.3700  -12.7380   19.0320 C   0  0  0  0  0  2  0  0  0  0  0  0
  -29.3660  -12.6940   17.8560 C   0  0  0  0  0  2  0  0  0  0  0  0
  -27.9350  -12.4490   18.3710 C   0  0  0  0  0  2  0  0  0  0  0  0
  -27.5820  -13.3520   19.5800 C   0  0  0  0  0  3  0  0  0  0  0  0
  -28.6990  -13.3610   20.6450 C   0  0  0  0  0  2  0  0  0  0  0  0
  -29.9250  -13.8090   19.9700 N   0  0  0  0  0  0  0  0  0  0  0  0
  -31.7150  -15.1430   19.7450 O   0  0  0  0  0  0  0  0  0  0  0  0
  -29.7260  -16.2490   20.2450 N   0  0  0  0  0  0  0  0  0  0  0  0
  -28.7550  -16.0000   20.3610 H   0  0  0  0  0  0  0  0  0  0  0  0
  -25.2380  -13.8950   20.4520 C   0  0  0  0  0  0  0  0  0  0  0  0
  -24.2020  -13.1030   20.8630 C   0  0  0  0  0  0  0  0  0  0  0  0
  -24.6780  -11.7580   20.7880 C   0  0  0  0  0  0  0  0  0  0  0  0
  -26.2760  -13.0310   20.1450 N   0  0  0  0  0  0  0  0  0  0  0  0
  -25.9520  -11.7400   20.4140 N   0  0  0  0  0  0  0  0  0  0  0  0
  -23.9740  -10.4850   20.9920 C   0  0  0  0  0  0  0  0  0  0  0  0
  -24.4290   -9.5300   21.9280 C   0  0  0  0  0  3  0  0  0  0  0  0
  -23.7230   -8.3230   22.1210 C   0  0  0  0  0  3  0  0  0  0  0  0
  -22.5470   -8.0620   21.3790 C   0  0  0  0  0  0  0  0  0  0  0  0
  -22.1110   -9.0060   20.4320 C   0  0  0  0  0  3  0  0  0  0  0  0
  -22.8180  -10.2050   20.2370 C   0  0  0  0  0  3  0  0  0  0  0  0
  -21.8100   -6.9070   21.4810 O   0  0  0  0  0  0  0  0  0  0  0  0
  -21.7500   -6.1930   22.6500 C   0  0  0  0  0  0  0  0  0  0  0  0
  -21.2580   -6.7600   23.8460 C   0  0  0  0  0  3  0  0  0  0  0  0
  -21.1500   -5.9700   25.0070 C   0  0  0  0  0  3  0  0  0  0  0  0
  -21.5230   -4.6130   24.9740 C   0  0  0  0  0  0  0  0  0  0  0  0
  -22.0080   -4.0450   23.7830 C   0  0  0  0  0  3  0  0  0  0  0  0
  -22.1180   -4.8330   22.6240 C   0  0  0  0  0  0  0  0  0  0  0  0
  -22.5660   -4.2740   21.4740 F   0  0  0  0  0  0  0  0  0  0  0  0
  -21.4120   -3.8510   26.0870 F   0  0  0  0  0  0  0  0  0  0  0  0
  -22.8150  -13.5610   21.2070 C   0  0  0  0  0  0  0  0  0  0  0  0
  -22.1340  -12.8420   22.0930 N   0  0  0  0  0  0  0  0  0  0  0  0
  -22.3450  -14.5910   20.7270 O   0  0  0  0  0  0  0  0  0  0  0  0
  -22.5270  -12.0060   22.5000 H   0  0  0  0  0  0  0  0  0  0  0  0
  -21.2080  -13.1330   22.3690 H   0  0  0  0  0  0  0  0  0  0  0  0
  -25.3760  -15.2700   20.2860 N   0  0  0  0  0  0  0  0  0  0  0  0
  -24.6030  -15.9090   20.4400 H   0  0  0  0  0  0  0  0  0  0  0  0
  -26.1870  -15.7240   19.8870 H   0  0  0  0  0  0  0  0  0  0  0  0
  -28.2090  -24.7150   20.7160 C   0  0  0  0  0  2  0  0  0  0  0  0
  -28.3540  -26.2040   20.2280 O   0  0  0  0  0  0  0  0  0  0  0  0
  -24.6490  -31.9080   23.2040 C   0  0  0  0  0  0  0  0  0  0  0  0
  -27.2770  -27.1740   20.2310 C   0  0  0  0  0  0  0  0  0  0  0  0
  -23.4690  -30.4930   21.5670 C   0  0  0  0  0  3  0  0  0  0  0  0
  -24.9360  -28.9110   20.1640 C   0  0  0  0  0  0  0  0  0  0  0  0
  -26.0220  -30.7720   21.4120 C   0  0  0  0  0  2  0  0  0  0  0  0
  -26.1100  -29.3720   20.7740 C   0  0  0  0  0  0  0  0  0  0  0  0
  -27.2840  -28.5220   20.7840 C   0  0  0  0  0  3  0  0  0  0  0  0
  -26.0740  -26.8130   19.5880 C   0  0  0  0  0  3  0  0  0  0  0  0
  -24.9310  -27.6460   19.5540 C   0  0  0  0  0  3  0  0  0  0  0  0
  -23.7030  -29.8050   20.1950 C   0  0  0  0  0  2  0  0  0  0  0  0
  -24.7330  -31.0810   22.1150 N   0  0  0  0  0  0  0  0  0  0  0  0
  -23.5580  -32.1880   23.7230 O   0  0  0  0  0  0  0  0  0  0  0  0
  -22.7910  -29.4890   22.5320 C   0  0  0  0  0  0  0  0  0  0  0  0
  -21.4650  -29.3060   22.3990 N   0  0  0  0  0  0  0  0  0  0  0  0
  -23.4630  -28.8750   23.3640 O   0  0  0  0  0  0  0  0  0  0  0  0
  -20.9780  -29.8560   21.7040 H   0  0  0  0  0  0  0  0  0  0  0  0
  -18.0960  -28.0590   22.8750 C   0  0  0  0  0  0  0  0  0  0  0  0
  -20.6470  -28.3660   23.1690 C   0  0  0  0  0  3  0  0  0  0  0  0
  -20.7780  -26.9270   22.6130 C   0  0  0  0  0  2  0  0  0  0  0  0
  -19.6930  -26.5750   21.5900 C   0  0  0  0  0  2  0  0  0  0  0  0
  -18.3010  -26.7070   22.2150 C   0  0  0  0  0  2  0  0  0  0  0  0
  -19.1960  -28.8460   23.3080 C   0  0  0  0  0  0  0  0  0  0  0  0
  -18.9500  -30.1100   23.8850 C   0  0  0  0  0  3  0  0  0  0  0  0
  -17.6350  -30.5910   24.0310 C   0  0  0  0  0  3  0  0  0  0  0  0
  -16.5480  -29.8020   23.6130 C   0  0  0  0  0  3  0  0  0  0  0  0
  -16.7790  -28.5390   23.0410 C   0  0  0  0  0  3  0  0  0  0  0  0
  -25.9190  -32.5580   23.8340 C   0  0  0  0  0  3  0  0  0  0  0  0
  -25.5930  -33.9550   24.1600 N   0  0  0  0  0  0  0  0  0  0  0  0
  -25.9120  -35.0130   23.4020 C   0  0  0  0  0  0  0  0  0  0  0  0
  -26.5780  -34.9150   22.3680 O   0  0  0  0  0  0  0  0  0  0  0  0
  -24.9990  -34.1030   24.9630 H   0  0  0  0  0  0  0  0  0  0  0  0
  -24.1680  -36.7960   23.0600 C   0  0  0  0  0  1  0  0  0  0  0  0
  -25.4170  -36.3990   23.8630 C   0  0  0  0  0  3  0  0  0  0  0  0
  -27.5440  -37.3070   24.6870 C   0  0  0  0  0  1  0  0  0  0  0  0
  -26.4400  -37.4600   23.7430 N   0  0  0  0  0  0  0  0  0  0  0  0
  -26.0270  -38.3770   23.8850 H   0  0  0  0  0  0  0  0  0  0  0  0
  -26.4280  -31.8010   25.1230 C   0  0  1  0  0  0  0  0  0  0  0  0
  -25.3250  -31.5610   26.1810 C   0  0  0  0  0  1  0  0  0  0  0  0
  -27.0300  -30.4280   24.7510 C   0  0  0  0  0  1  0  0  0  0  0  0
  -27.5650  -32.6110   25.7910 C   0  0  0  0  0  1  0  0  0  0  0  0
  1 10  2  0
  1  6  1  0
  2  1  1  0
  4  7  1  0
  4  9  1  0
  6 50  1  0
  6  3  1  0
  7  2  1  0
  7  8  1  0
  8  3  1  0
  8  5  1  0
  9 20  1  0
  9  5  1  0
 11 10  1  0
 12 20  1  0
 13 18  1  0
 14 15  1  0
 14 13  1  0
 16 15  1  0
 16 25  1  0
 16 17  1  0
 18 12  1  0
 18 17  1  0
 19 12  2  0
 20 21  1  0
 22 23  2  0
 23 42  1  0
 24 23  1  0
 24 27  1  0
 25 26  1  0
 25 22  1  0
 26 24  2  0
 27 28  1  0
 28 29  2  0
 30 33  1  0
 30 29  1  0
 31 30  2  0
 32 31  1  0
 32 27  2  0
 33 34  1  0
 34 35  1  0
 35 36  2  0
 37 36  1  0
 37 41  1  0
 38 37  2  0
 39 34  2  0
 39 38  1  0
 40 39  1  0
 42 43  1  0
 43 46  1  0
 43 45  1  0
 44 42  2  0
 47 48  1  0
 47 22  1  0
 49 47  1  0
 51 53  1  0
 51 50  1  0
 52 63  2  0
 53 58  1  0
 54 62  1  0
 54 64  1  0
 55 61  1  0
 55 57  1  0
 56 62  1  0
 57 58  2  0
 57 56  1  0
 59 53  2  0
 60 59  1  0
 60 55  2  0
 61 54  1  0
 62 52  1  0
 64 66  2  0
 65 64  1  0
 67 65  1  0
 68 77  2  0
 68 73  1  0
 69 65  1  0
 69 73  1  0
 70 69  1  0
 71 72  1  0
 71 70  1  0
 72 68  1  0
 73 74  2  0
 74 75  1  0
 76 75  2  0
 77 76  1  0
 78 52  1  0
 78 79  1  0
 78 88  1  0
 79 82  1  0
 80 84  1  0
 80 79  1  0
 81 80  2  0
 84 83  1  0
 86 84  1  0
 86 87  1  0
 86 85  1  0
 88 91  1  1
 88 89  1  0
 90 88  1  0
M  ISO  4  12 100  20 100  50 101  51 101
M  END
>  <TORSDO>  (55) 
F 17

>  <SCORE>  (55) 
-15.511

>  <name>  (55) 
54

>  <ligand_id>  (55) 
54

>  <original_smiles>  (55) 
[H]N=C1C([H])([H])C2([H])C([H])([H])C([H])(N([H])C(=O)N3C([H])([H])C([H])([H])C([H])([H])C([H])(n4nc(-c5c([H])c([H])c(Oc6c([H])c([H])c(F)c([H])c6F)c([H])c5[H])c(C(=O)N([H])[H])c4N([H])[H])C3([H])[H])C([H])([H])C2([H])C([H])([H])C1([H])C([H])([H])Oc1c([H])c([H])c2c(c1[H])C([H])([H])N(C(=O)C([H])(N([H])C(=O)C([H])(N([H])C([H])([H])[H])C([H])([H])[H])C(C([H])([H])[H])(C([H])([H])[H])C([H])([H])[H])C([H])(C(=O)N([H])C1([H])c3c([H])c([H])c([H])c([H])c3C([H])([H])C([H])([H])C1([H])[H])C2([H])[H]

>  <smiles>  (55) 
[H]N=C1C([H])([H])C2([H])C([H])([H])C([H])(N([H])C(=O)N3C([H])([H])C([H])([H])C([H])([H])C([H])(n4nc(-c5c([H])c([H])c(Oc6c([H])c([H])c(F)c([H])c6F)c([H])c5[H])c(C(=O)N([H])[H])c4N([H])[H])C3([H])[H])C([H])([H])C2([H])C([H])([H])C1([H])C([H])([H])Oc1c([H])c([H])c2c(c1[H])C([H])([H])N(C(=O)C([H])(N([H])C(=O)C([H])(N([H])C([H])([H])[H])C([H])([H])[H])C(C([H])([H])[H])(C([H])([H])[H])C([H])([H])[H])C([H])(C(=O)N([H])C1([H])c3c([H])c([H])c([H])c([H])c3C([H])([H])C([H])([H])C1([H])[H])C2([H])[H]

$$$$
55:0:0
     RDKit          3D

 92101  0  0  1  0  0  0  0  0999 V2000
  -29.8410  -21.4350   21.8430 C   0  0  0  0  0  3  0  0  0  0  0  0
  -29.3800  -20.5760   19.6250 C   0  0  0  0  0  3  0  0  0  0  0  0
  -29.2040  -22.6470   21.5170 C   0  0  0  0  0  3  0  0  0  0  0  0
  -28.7540  -21.8000   19.2910 C   0  0  0  0  0  3  0  0  0  0  0  0
  -29.9560  -20.3860   20.9030 C   0  0  0  0  0  0  0  0  0  0  0  0
  -28.6740  -22.8630   20.2250 C   0  0  0  0  0  0  0  0  0  0  0  0
  -30.2120  -18.4260   22.5690 C   0  0  0  0  0  2  0  0  0  0  0  0
  -30.9460  -17.0770   22.5830 C   0  0  0  0  0  2  0  0  0  0  0  0
  -30.8290  -17.9530   20.3020 C   0  0  0  0  0  2  0  0  0  0  0  0
  -30.7260  -19.1180   21.3070 C   0  0  0  0  0  3  0  0  0  0  0  0
  -31.4330  -16.7980   21.1370 C   0  0  0  0  0  3  0  0  0  0  0  0
  -31.5880  -14.4980   20.0020 C   0  0  0  0  0  0  0  0  0  0  0  0
  -31.1920  -12.2710   18.9790 C   0  0  0  0  0  2  0  0  0  0  0  0
  -30.2120  -12.3970   17.7960 C   0  0  0  0  0  2  0  0  0  0  0  0
  -28.7470  -12.3540   18.2770 C   0  0  0  0  0  2  0  0  0  0  0  0
  -28.4850  -13.3230   19.4580 C   0  0  0  0  0  3  0  0  0  0  0  0
  -29.5530  -13.1260   20.5550 C   0  0  0  0  0  2  0  0  0  0  0  0
  -30.8790  -13.3390   19.9410 N   0  0  0  0  0  0  0  0  0  0  0  0
  -32.6540  -14.6790   19.4050 O   0  0  0  0  0  0  0  0  0  0  0  0
  -30.9930  -15.4530   20.7410 N   0  0  0  0  0  0  0  0  0  0  0  0
  -30.1340  -15.1490   21.1700 H   0  0  0  0  0  0  0  0  0  0  0  0
  -26.1860  -14.1320   20.2870 C   0  0  0  0  0  0  0  0  0  0  0  0
  -25.0690  -13.4530   20.6950 C   0  0  0  0  0  0  0  0  0  0  0  0
  -25.4010  -12.0670   20.6180 C   0  0  0  0  0  0  0  0  0  0  0  0
  -27.1340  -13.1650   19.9900 N   0  0  0  0  0  0  0  0  0  0  0  0
  -26.6650  -11.9180   20.2440 N   0  0  0  0  0  0  0  0  0  0  0  0
  -24.5720  -10.8720   20.8190 C   0  0  0  0  0  0  0  0  0  0  0  0
  -24.9240   -9.8810   21.7620 C   0  0  0  0  0  3  0  0  0  0  0  0
  -24.1010   -8.7490   21.9510 C   0  0  0  0  0  3  0  0  0  0  0  0
  -22.9150   -8.6000   21.1940 C   0  0  0  0  0  0  0  0  0  0  0  0
  -22.5800   -9.5800   20.2440 C   0  0  0  0  0  3  0  0  0  0  0  0
  -23.4010  -10.7020   20.0530 C   0  0  0  0  0  3  0  0  0  0  0  0
  -22.0680   -7.5220   21.2910 O   0  0  0  0  0  0  0  0  0  0  0  0
  -21.8860   -6.8530   22.4730 C   0  0  0  0  0  0  0  0  0  0  0  0
  -21.4400   -7.5110   23.6410 C   0  0  0  0  0  3  0  0  0  0  0  0
  -21.2040   -6.7730   24.8180 C   0  0  0  0  0  3  0  0  0  0  0  0
  -21.4020   -5.3800   24.8280 C   0  0  0  0  0  0  0  0  0  0  0  0
  -21.8450   -4.7200   23.6660 C   0  0  0  0  0  3  0  0  0  0  0  0
  -22.0820   -5.4570   22.4920 C   0  0  0  0  0  0  0  0  0  0  0  0
  -22.4870   -4.8180   21.3690 F   0  0  0  0  0  0  0  0  0  0  0  0
  -21.1670   -4.6670   25.9550 F   0  0  0  0  0  0  0  0  0  0  0  0
  -23.7380  -14.0530   21.0490 C   0  0  0  0  0  0  0  0  0  0  0  0
  -23.0010  -13.4170   21.9520 N   0  0  0  0  0  0  0  0  0  0  0  0
  -23.3640  -15.1180   20.5580 O   0  0  0  0  0  0  0  0  0  0  0  0
  -23.3130  -12.5520   22.3690 H   0  0  0  0  0  0  0  0  0  0  0  0
  -22.1130  -13.8050   22.2380 H   0  0  0  0  0  0  0  0  0  0  0  0
  -26.4720  -15.4860   20.1340 N   0  0  0  0  0  0  0  0  0  0  0  0
  -25.7830  -16.2100   20.3060 H   0  0  0  0  0  0  0  0  0  0  0  0
  -27.3600  -15.8490   19.8140 H   0  0  0  0  0  0  0  0  0  0  0  0
  -28.0450  -24.2130   19.8190 C   0  0  0  0  0  2  0  0  0  0  0  0
  -28.3360  -25.4120   20.7670 C   0  0  0  0  0  2  0  0  0  0  0  0
  -28.3220  -26.7250   20.1830 O   0  0  0  0  0  0  0  0  0  0  0  0
  -24.6190  -31.9530   23.3590 C   0  0  0  0  0  0  0  0  0  0  0  0
  -27.1520  -27.4480   20.2670 C   0  0  0  0  0  0  0  0  0  0  0  0
  -23.3660  -30.5560   21.7500 C   0  0  0  0  0  3  0  0  0  0  0  0
  -24.7760  -28.9810   20.3190 C   0  0  0  0  0  0  0  0  0  0  0  0
  -25.8950  -30.8730   21.5080 C   0  0  0  0  0  2  0  0  0  0  0  0
  -25.9500  -29.4930   20.8800 C   0  0  0  0  0  0  0  0  0  0  0  0
  -27.1450  -28.7370   20.8460 C   0  0  0  0  0  3  0  0  0  0  0  0
  -25.9610  -26.9460   19.7020 C   0  0  0  0  0  3  0  0  0  0  0  0
  -24.7750  -27.7030   19.7280 C   0  0  0  0  0  3  0  0  0  0  0  0
  -23.5420  -29.8580   20.3730 C   0  0  0  0  0  2  0  0  0  0  0  0
  -24.6470  -31.1430   22.2620 N   0  0  0  0  0  0  0  0  0  0  0  0
  -23.5500  -32.2430   23.9160 O   0  0  0  0  0  0  0  0  0  0  0  0
  -22.7180  -29.5500   22.7260 C   0  0  0  0  0  0  0  0  0  0  0  0
  -21.4050  -29.3200   22.5640 N   0  0  0  0  0  0  0  0  0  0  0  0
  -23.3940  -28.9780   23.5870 O   0  0  0  0  0  0  0  0  0  0  0  0
  -20.9210  -29.8360   21.8440 H   0  0  0  0  0  0  0  0  0  0  0  0
  -18.0780  -27.9630   22.9520 C   0  0  0  0  0  0  0  0  0  0  0  0
  -20.5940  -28.3900   23.3450 C   0  0  0  0  0  3  0  0  0  0  0  0
  -20.8120  -26.9330   22.8810 C   0  0  0  0  0  2  0  0  0  0  0  0
  -19.7910  -26.4720   21.8370 C   0  0  0  0  0  2  0  0  0  0  0  0
  -18.3700  -26.5820   22.3950 C   0  0  0  0  0  2  0  0  0  0  0  0
  -19.1250  -28.8190   23.3880 C   0  0  0  0  0  0  0  0  0  0  0  0
  -18.8040  -30.1040   23.8740 C   0  0  0  0  0  3  0  0  0  0  0  0
  -17.4650  -30.5390   23.9300 C   0  0  0  0  0  3  0  0  0  0  0  0
  -16.4320  -29.6820   23.5100 C   0  0  0  0  0  3  0  0  0  0  0  0
  -16.7380  -28.3970   23.0280 C   0  0  0  0  0  3  0  0  0  0  0  0
  -25.9250  -32.5700   23.9520 C   0  0  0  0  0  3  0  0  0  0  0  0
  -26.4490  -31.8060   25.2300 C   0  0  1  0  0  0  0  0  0  0  0  0
  -25.3600  -31.5690   26.3020 C   0  0  0  0  0  1  0  0  0  0  0  0
  -27.0390  -30.4290   24.8420 C   0  0  0  0  0  1  0  0  0  0  0  0
  -27.5940  -32.6090   25.8870 C   0  0  0  0  0  1  0  0  0  0  0  0
  -25.6410  -33.9760   24.2680 N   0  0  0  0  0  0  0  0  0  0  0  0
  -25.9700  -35.0120   23.4850 C   0  0  0  0  0  0  0  0  0  0  0  0
  -26.6180  -34.8860   22.4420 O   0  0  0  0  0  0  0  0  0  0  0  0
  -25.0710  -34.1480   25.0820 H   0  0  0  0  0  0  0  0  0  0  0  0
  -24.2460  -36.8120   23.1460 C   0  0  0  0  0  1  0  0  0  0  0  0
  -25.5080  -36.4120   23.9280 C   0  0  0  0  0  3  0  0  0  0  0  0
  -27.6760  -37.2940   24.6760 C   0  0  0  0  0  1  0  0  0  0  0  0
  -26.5470  -37.4530   23.7640 N   0  0  0  0  0  0  0  0  0  0  0  0
  -26.1530  -38.3800   23.9030 H   0  0  0  0  0  0  0  0  0  0  0  0
  2  5  1  0
  3  1  1  0
  4  2  2  0
  4  6  1  0
  5  1  2  0
  6  3  2  0
  7  8  1  0
  9 11  1  0
  9 10  1  0
 10  5  1  0
 10  7  1  0
 11 20  1  0
 11  8  1  0
 12 20  1  0
 13 18  1  0
 14 15  1  0
 14 13  1  0
 16 15  1  0
 16 25  1  0
 16 17  1  0
 18 12  1  0
 18 17  1  0
 19 12  2  0
 20 21  1  0
 22 23  2  0
 23 42  1  0
 24 23  1  0
 24 27  1  0
 25 26  1  0
 25 22  1  0
 26 24  2  0
 27 28  1  0
 28 29  2  0
 30 33  1  0
 30 29  1  0
 31 30  2  0
 32 31  1  0
 32 27  2  0
 33 34  1  0
 34 39  2  0
 34 35  1  0
 35 36  2  0
 36 37  1  0
 37 41  1  0
 38 37  2  0
 39 38  1  0
 40 39  1  0
 42 43  1  0
 43 46  1  0
 43 45  1  0
 44 42  2  0
 47 22  1  0
 47 48  1  0
 49 47  1  0
 50  6  1  0
 50 51  1  0
 52 54  1  0
 52 51  1  0
 53 64  2  0
 54 59  1  0
 55 63  1  0
 55 65  1  0
 56 62  1  0
 56 58  1  0
 57 63  1  0
 58 57  1  0
 59 58  2  0
 60 61  1  0
 60 54  2  0
 61 56  2  0
 62 55  1  0
 63 53  1  0
 65 67  2  0
 66 65  1  0
 68 66  1  0
 69 78  2  0
 69 74  1  0
 70 66  1  0
 70 74  1  0
 71 70  1  0
 72 73  1  0
 72 71  1  0
 73 69  1  0
 74 75  2  0
 75 76  1  0
 77 76  2  0
 78 77  1  0
 79 53  1  0
 79 84  1  0
 79 80  1  0
 80 83  1  1
 80 81  1  0
 82 80  1  0
 84 87  1  0
 85 89  1  0
 85 84  1  0
 86 85  2  0
 89 88  1  0
 91 92  1  0
 91 89  1  0
 91 90  1  0
M  ISO  4  12 100  20 100  51 101  52 101
M  END
>  <TORSDO>  (56) 
F 19

>  <SCORE>  (56) 
-12.847

>  <name>  (56) 
55

>  <ligand_id>  (56) 
55

>  <original_smiles>  (56) 
[H]c1c([H])c([H])c2c(c1[H])C([H])([H])C([H])([H])C([H])([H])C2([H])N([H])C(=O)C1([H])N(C(=O)C([H])(N([H])C(=O)C([H])(N([H])C([H])([H])[H])C([H])([H])[H])C(C([H])([H])[H])(C([H])([H])[H])C([H])([H])[H])C([H])([H])c2c([H])c(OC([H])([H])C([H])([H])c3c([H])c([H])c(C4([H])C([H])([H])C([H])([H])C([H])(N([H])C(=O)N5C([H])([H])C([H])([H])C([H])([H])C([H])(n6nc(-c7c([H])c([H])c(Oc8c([H])c([H])c(F)c([H])c8F)c([H])c7[H])c(C(=O)N([H])[H])c6N([H])[H])C5([H])[H])C4([H])[H])c([H])c3[H])c([H])c([H])c2C1([H])[H]

>  <smiles>  (56) 
[H]c1c([H])c([H])c2c(c1[H])C([H])([H])C([H])([H])C([H])([H])C2([H])N([H])C(=O)C1([H])N(C(=O)C([H])(N([H])C(=O)C([H])(N([H])C([H])([H])[H])C([H])([H])[H])C(C([H])([H])[H])(C([H])([H])[H])C([H])([H])[H])C([H])([H])c2c([H])c(OC([H])([H])C([H])([H])c3c([H])c([H])c(C4([H])C([H])([H])C([H])([H])C([H])(N([H])C(=O)N5C([H])([H])C([H])([H])C([H])([H])C([H])(n6nc(-c7c([H])c([H])c(Oc8c([H])c([H])c(F)c([H])c8F)c([H])c7[H])c(C(=O)N([H])[H])c6N([H])[H])C5([H])[H])C4([H])[H])c([H])c3[H])c([H])c([H])c2C1([H])[H]

$$$$
56:0:0
     RDKit          3D

 92101  0  0  1  0  0  0  0  0999 V2000
  -29.7290  -24.3880   19.7010 C   0  0  0  0  0  2  0  0  0  0  0  0
  -27.5540  -24.1450   20.7800 C   0  0  0  0  0  2  0  0  0  0  0  0
  -29.6890  -22.8800   19.2490 C   0  0  0  0  0  2  0  0  0  0  0  0
  -27.5080  -22.6470   20.3260 C   0  0  0  0  0  2  0  0  0  0  0  0
  -28.3300  -25.0560   19.7970 C   0  0  0  0  0  3  0  0  0  0  0  0
  -28.8440  -21.9920   20.1140 N   0  0  1  0  0  4  0  0  0  0  0  0
  -29.2820  -21.9410   21.0220 H   0  0  0  0  0  0  0  0  0  0  0  0
  -28.3730  -26.4800   20.1890 O   0  0  0  0  0  0  0  0  0  0  0  0
  -24.5260  -31.7510   23.2200 C   0  0  0  0  0  0  0  0  0  0  0  0
  -27.2200  -27.2760   20.1340 C   0  0  0  0  0  0  0  0  0  0  0  0
  -23.3560  -30.3750   21.5360 C   0  0  0  0  0  3  0  0  0  0  0  0
  -24.8360  -28.8540   20.1160 C   0  0  0  0  0  0  0  0  0  0  0  0
  -25.8930  -30.7140   21.3990 C   0  0  0  0  0  2  0  0  0  0  0  0
  -25.9910  -29.3460   20.7360 C   0  0  0  0  0  0  0  0  0  0  0  0
  -27.1840  -28.5700   20.7360 C   0  0  0  0  0  3  0  0  0  0  0  0
  -26.0400  -26.8280   19.4970 C   0  0  0  0  0  3  0  0  0  0  0  0
  -24.8610  -27.5970   19.4910 C   0  0  0  0  0  3  0  0  0  0  0  0
  -23.5960  -29.7190   20.1520 C   0  0  0  0  0  2  0  0  0  0  0  0
  -24.6100  -30.9630   22.1110 N   0  0  0  0  0  0  0  0  0  0  0  0
  -23.4320  -32.0170   23.7410 O   0  0  0  0  0  0  0  0  0  0  0  0
  -22.6800  -29.3430   22.4680 C   0  0  0  0  0  0  0  0  0  0  0  0
  -21.3600  -29.1560   22.3050 N   0  0  0  0  0  0  0  0  0  0  0  0
  -23.3440  -28.7120   23.2960 O   0  0  0  0  0  0  0  0  0  0  0  0
  -20.8850  -29.7160   21.6100 H   0  0  0  0  0  0  0  0  0  0  0  0
  -17.9790  -27.9300   22.7030 C   0  0  0  0  0  0  0  0  0  0  0  0
  -20.5270  -28.2040   23.0440 C   0  0  0  0  0  3  0  0  0  0  0  0
  -20.6560  -26.7810   22.4560 C   0  0  0  0  0  2  0  0  0  0  0  0
  -19.5840  -26.4610   21.4110 C   0  0  0  0  0  2  0  0  0  0  0  0
  -18.1830  -26.5890   22.0190 C   0  0  0  0  0  2  0  0  0  0  0  0
  -19.0800  -28.6960   23.1700 C   0  0  0  0  0  0  0  0  0  0  0  0
  -18.8370  -29.9500   23.7690 C   0  0  0  0  0  3  0  0  0  0  0  0
  -17.5250  -30.4410   23.9050 C   0  0  0  0  0  3  0  0  0  0  0  0
  -16.4370  -29.6720   23.4550 C   0  0  0  0  0  3  0  0  0  0  0  0
  -16.6650  -28.4180   22.8610 C   0  0  0  0  0  3  0  0  0  0  0  0
  -25.7960  -32.3760   23.8750 C   0  0  0  0  0  3  0  0  0  0  0  0
  -25.4960  -33.7830   24.1750 N   0  0  0  0  0  0  0  0  0  0  0  0
  -25.8560  -34.8190   23.4050 C   0  0  0  0  0  0  0  0  0  0  0  0
  -26.5480  -34.6910   22.3930 O   0  0  0  0  0  0  0  0  0  0  0  0
  -24.8870  -33.9580   24.9600 H   0  0  0  0  0  0  0  0  0  0  0  0
  -24.1490  -36.6180   22.9860 C   0  0  0  0  0  1  0  0  0  0  0  0
  -25.3720  -36.2200   23.8270 C   0  0  0  0  0  3  0  0  0  0  0  0
  -27.5000  -37.0990   24.6770 C   0  0  0  0  0  1  0  0  0  0  0  0
  -26.4140  -37.2650   23.7160 N   0  0  0  0  0  0  0  0  0  0  0  0
  -26.0110  -38.1880   23.8520 H   0  0  0  0  0  0  0  0  0  0  0  0
  -26.2580  -31.6180   25.1810 C   0  0  1  0  0  0  0  0  0  0  0  0
  -25.1260  -31.4050   26.2130 C   0  0  0  0  0  1  0  0  0  0  0  0
  -26.8390  -30.2290   24.8270 C   0  0  0  0  0  1  0  0  0  0  0  0
  -27.3990  -32.4050   25.8690 C   0  0  0  0  0  1  0  0  0  0  0  0
  -28.6880  -20.5590   19.6080 C   0  0  0  0  0  2  0  0  0  0  0  0
  -30.1330  -16.9160   20.0660 C   0  0  0  0  0  0  0  0  0  0  0  0
  -29.4340  -18.1750   20.6070 C   0  0  0  0  0  0  0  0  0  0  0  0
  -30.9260  -17.4290   18.8670 C   0  0  0  0  0  2  0  0  0  0  0  0
  -30.4820  -18.8910   18.5780 C   0  0  0  0  0  2  0  0  0  0  0  0
  -29.8390  -19.4810   19.8540 C   0  0  0  0  0  3  0  0  0  0  0  0
  -30.0490  -15.6890   20.5240 N   0  0  0  0  0  0  0  0  0  0  0  0
  -28.6500  -18.1810   21.5630 O   0  0  0  0  0  0  0  0  0  0  0  0
  -30.7880  -14.6050   19.9910 C   0  0  0  0  0  0  0  0  0  0  0  0
  -30.4800  -12.3630   18.9540 C   0  0  0  0  0  2  0  0  0  0  0  0
  -29.4870  -12.5010   17.7790 C   0  0  0  0  0  2  0  0  0  0  0  0
  -28.0330  -12.3590   18.2750 C   0  0  0  0  0  2  0  0  0  0  0  0
  -27.7410  -13.2390   19.5210 C   0  0  0  0  0  3  0  0  0  0  0  0
  -28.8480  -13.0890   20.5860 C   0  0  0  0  0  2  0  0  0  0  0  0
  -30.1360  -13.4000   19.9470 N   0  0  0  0  0  0  0  0  0  0  0  0
  -31.9050  -14.7090   19.4810 O   0  0  0  0  0  0  0  0  0  0  0  0
  -25.3990  -13.8720   20.3680 C   0  0  0  0  0  0  0  0  0  0  0  0
  -24.3380  -13.1140   20.7830 C   0  0  0  0  0  0  0  0  0  0  0  0
  -24.7720  -11.7560   20.7170 C   0  0  0  0  0  0  0  0  0  0  0  0
  -26.4140  -12.9750   20.0720 N   0  0  0  0  0  0  0  0  0  0  0  0
  -26.0440  -11.6960   20.3410 N   0  0  0  0  0  0  0  0  0  0  0  0
  -24.0320  -10.5040   20.9340 C   0  0  0  0  0  0  0  0  0  0  0  0
  -24.4660   -9.5440   21.8750 C   0  0  0  0  0  3  0  0  0  0  0  0
  -23.7270   -8.3580   22.0790 C   0  0  0  0  0  3  0  0  0  0  0  0
  -22.5430   -8.1230   21.3410 C   0  0  0  0  0  0  0  0  0  0  0  0
  -22.1280   -9.0730   20.3890 C   0  0  0  0  0  3  0  0  0  0  0  0
  -22.8670  -10.2490   20.1840 C   0  0  0  0  0  3  0  0  0  0  0  0
  -21.7760   -6.9890   21.4550 O   0  0  0  0  0  0  0  0  0  0  0  0
  -21.6940   -6.2910   22.6310 C   0  0  0  0  0  0  0  0  0  0  0  0
  -21.2480   -6.8950   23.8280 C   0  0  0  0  0  3  0  0  0  0  0  0
  -21.1120   -6.1230   24.9980 C   0  0  0  0  0  3  0  0  0  0  0  0
  -21.4100   -4.7470   24.9750 C   0  0  0  0  0  0  0  0  0  0  0  0
  -21.8460   -4.1420   23.7820 C   0  0  0  0  0  3  0  0  0  0  0  0
  -21.9860   -4.9110   22.6140 C   0  0  0  0  0  0  0  0  0  0  0  0
  -22.3870   -4.3190   21.4640 F   0  0  0  0  0  0  0  0  0  0  0  0
  -21.2720   -4.0030   26.0970 F   0  0  0  0  0  0  0  0  0  0  0  0
  -22.9650  -13.6140   21.1320 C   0  0  0  0  0  0  0  0  0  0  0  0
  -22.2700  -12.9280   22.0320 N   0  0  0  0  0  0  0  0  0  0  0  0
  -22.5190  -14.6510   20.6390 O   0  0  0  0  0  0  0  0  0  0  0  0
  -22.6430  -12.0900   22.4530 H   0  0  0  0  0  0  0  0  0  0  0  0
  -21.3510  -13.2470   22.3040 H   0  0  0  0  0  0  0  0  0  0  0  0
  -25.5790  -15.2410   20.1980 N   0  0  0  0  0  0  0  0  0  0  0  0
  -24.8380  -15.9120   20.3720 H   0  0  0  0  0  0  0  0  0  0  0  0
  -26.4420  -15.6700   19.8910 H   0  0  0  0  0  0  0  0  0  0  0  0
  1  5  1  0
  3  1  1  0
  3  6  1  0
  4  2  1  0
  5  8  1  0
  5  2  1  0
  6  4  1  0
  6  7  1  1
  9 20  2  0
 10  8  1  0
 10 15  1  0
 11 19  1  0
 11 21  1  0
 12 18  1  0
 12 14  1  0
 13 19  1  0
 14 15  2  0
 14 13  1  0
 16 10  2  0
 17 16  1  0
 17 12  2  0
 18 11  1  0
 19  9  1  0
 21 23  2  0
 22 21  1  0
 24 22  1  0
 25 34  2  0
 25 30  1  0
 26 22  1  0
 26 30  1  0
 27 26  1  0
 28 29  1  0
 28 27  1  0
 29 25  1  0
 30 31  2  0
 31 32  1  0
 33 32  2  0
 34 33  1  0
 35  9  1  0
 35 36  1  0
 35 45  1  0
 36 39  1  0
 37 41  1  0
 37 36  1  0
 38 37  2  0
 41 40  1  0
 43 41  1  0
 43 44  1  0
 43 42  1  0
 45 48  1  1
 45 46  1  0
 47 45  1  0
 49  6  1  0
 50 55  2  0
 50 51  1  0
 51 56  2  0
 52 50  1  0
 53 52  1  0
 53 54  1  0
 54 49  1  0
 54 51  1  0
 57 55  1  0
 58 63  1  0
 59 60  1  0
 59 58  1  0
 61 60  1  0
 61 68  1  0
 61 62  1  0
 63 57  1  0
 63 62  1  0
 64 57  2  0
 65 66  2  0
 66 85  1  0
 67 66  1  0
 67 70  1  0
 68 69  1  0
 68 65  1  0
 69 67  2  0
 70 71  1  0
 71 72  2  0
 73 76  1  0
 73 72  1  0
 74 73  2  0
 75 74  1  0
 75 70  2  0
 76 77  1  0
 77 78  1  0
 78 79  2  0
 80 79  1  0
 80 84  1  0
 81 80  2  0
 82 77  2  0
 82 81  1  0
 83 82  1  0
 85 86  1  0
 86 89  1  0
 86 88  1  0
 87 85  2  0
 90 65  1  0
 90 91  1  0
 92 90  1  0
M  ISO  4   5 101   8 101  55 100  57 100
M  END
>  <TORSDO>  (57) 
F 18

>  <SCORE>  (57) 
-13.859

>  <name>  (57) 
56

>  <ligand_id>  (57) 
56

>  <original_smiles>  (57) 
[H]c1c([H])c([H])c2c(c1[H])C([H])([H])C([H])([H])C([H])([H])C2([H])N([H])C(=O)C1([H])N(C(=O)C([H])(N([H])C(=O)C([H])(N([H])C([H])([H])[H])C([H])([H])[H])C(C([H])([H])[H])(C([H])([H])[H])C([H])([H])[H])C([H])([H])c2c([H])c(OC3([H])C([H])([H])C([H])([H])[N+]([H])(C([H])([H])C4([H])C(=O)C(=NC(=O)N5C([H])([H])C([H])([H])C([H])([H])C([H])(n6nc(-c7c([H])c([H])c(Oc8c([H])c([H])c(F)c([H])c8F)c([H])c7[H])c(C(=O)N([H])[H])c6N([H])[H])C5([H])[H])C([H])([H])C4([H])[H])C([H])([H])C3([H])[H])c([H])c([H])c2C1([H])[H]

>  <smiles>  (57) 
[H]c1c([H])c([H])c2c(c1[H])C([H])([H])C([H])([H])C([H])([H])C2([H])N([H])C(=O)C1([H])N(C(=O)C([H])(N([H])C(=O)C([H])(N([H])C([H])([H])[H])C([H])([H])[H])C(C([H])([H])[H])(C([H])([H])[H])C([H])([H])[H])C([H])([H])c2c([H])c(OC3([H])C([H])([H])C([H])([H])[N+]([H])(C([H])([H])C4([H])C(=O)C(=NC(=O)N5C([H])([H])C([H])([H])C([H])([H])C([H])(n6nc(-c7c([H])c([H])c(Oc8c([H])c([H])c(F)c([H])c8F)c([H])c7[H])c(C(=O)N([H])[H])c6N([H])[H])C5([H])[H])C([H])([H])C4([H])[H])C([H])([H])C3([H])[H])c([H])c([H])c2C1([H])[H]

$$$$
57:0:0
     RDKit          3D

 86 95  0  0  1  0  0  0  0  0999 V2000
  -29.0980  -22.4430   20.0420 C   0  0  0  0  0  0  0  0  0  0  0  0
  -30.2440  -22.7650   20.3680 O   0  0  0  0  0  0  0  0  0  0  0  0
  -30.4890  -15.7770   19.7940 C   0  0  0  0  0  0  0  0  0  0  0  0
  -30.5430  -13.2530   18.9350 C   0  0  0  0  0  2  0  0  0  0  0  0
  -29.5750  -12.8590   17.7830 C   0  0  0  0  0  2  0  0  0  0  0  0
  -28.1890  -12.4900   18.3300 C   0  0  0  0  0  2  0  0  0  0  0  0
  -27.7430  -13.4720   19.4370 C   0  0  0  0  0  3  0  0  0  0  0  0
  -28.8460  -13.7690   20.4800 C   0  0  0  0  0  2  0  0  0  0  0  0
  -29.9600  -14.4160   19.7450 N   0  0  0  0  0  0  0  0  0  0  0  0
  -31.7080  -15.7180   19.5460 O   0  0  0  0  0  0  0  0  0  0  0  0
  -27.7760  -19.9030   20.7550 C   0  0  0  0  0  2  0  0  0  0  0  0
  -28.3440  -17.3140   20.2220 C   0  0  0  0  0  2  0  0  0  0  0  0
  -28.8380  -20.5590   19.8470 C   0  0  0  0  0  3  0  0  0  0  0  0
  -28.7160  -18.6600   20.8630 C   0  0  0  0  0  3  0  0  0  0  0  0
  -29.8500  -18.9290   19.8520 C   0  0  0  0  0  3  0  0  0  0  0  0
  -29.7490  -17.1510   19.9030 N   0  0  0  0  0  0  0  0  0  0  0  0
  -25.4360  -13.9590   20.3880 C   0  0  0  0  0  0  0  0  0  0  0  0
  -24.4110  -13.1610   20.8030 C   0  0  0  0  0  0  0  0  0  0  0  0
  -24.8860  -11.8170   20.6900 C   0  0  0  0  0  0  0  0  0  0  0  0
  -26.4670  -13.1080   20.0400 N   0  0  0  0  0  0  0  0  0  0  0  0
  -26.1540  -11.8080   20.2870 N   0  0  0  0  0  0  0  0  0  0  0  0
  -24.1790  -10.5430   20.8810 C   0  0  0  0  0  0  0  0  0  0  0  0
  -24.6070   -9.5950   21.8350 C   0  0  0  0  0  3  0  0  0  0  0  0
  -23.8940   -8.3890   22.0170 C   0  0  0  0  0  3  0  0  0  0  0  0
  -22.7390   -8.1240   21.2440 C   0  0  0  0  0  0  0  0  0  0  0  0
  -22.3300   -9.0620   20.2790 C   0  0  0  0  0  3  0  0  0  0  0  0
  -23.0440  -10.2570   20.0950 C   0  0  0  0  0  3  0  0  0  0  0  0
  -21.9980   -6.9690   21.3330 O   0  0  0  0  0  0  0  0  0  0  0  0
  -21.8330   -6.3120   22.5260 C   0  0  0  0  0  0  0  0  0  0  0  0
  -21.2310   -6.9330   23.6420 C   0  0  0  0  0  3  0  0  0  0  0  0
  -21.0180   -6.2000   24.8260 C   0  0  0  0  0  3  0  0  0  0  0  0
  -21.3960   -4.8450   24.8940 C   0  0  0  0  0  0  0  0  0  0  0  0
  -21.9910   -4.2230   23.7820 C   0  0  0  0  0  3  0  0  0  0  0  0
  -22.2050   -4.9550   22.6000 C   0  0  0  0  0  0  0  0  0  0  0  0
  -22.7590   -4.3450   21.5240 F   0  0  0  0  0  0  0  0  0  0  0  0
  -21.1850   -4.1370   26.0280 F   0  0  0  0  0  0  0  0  0  0  0  0
  -23.0320  -13.6170   21.1820 C   0  0  0  0  0  0  0  0  0  0  0  0
  -22.3700  -12.8900   22.0730 N   0  0  0  0  0  0  0  0  0  0  0  0
  -22.5560  -14.6550   20.7220 O   0  0  0  0  0  0  0  0  0  0  0  0
  -22.7720  -12.0500   22.4640 H   0  0  0  0  0  0  0  0  0  0  0  0
  -21.4480  -13.1750   22.3710 H   0  0  0  0  0  0  0  0  0  0  0  0
  -25.5660  -15.3370   20.2400 N   0  0  0  0  0  0  0  0  0  0  0  0
  -24.7910  -15.9680   20.4100 H   0  0  0  0  0  0  0  0  0  0  0  0
  -26.3590  -15.7880   19.8070 H   0  0  0  0  0  0  0  0  0  0  0  0
  -28.0370  -23.9580   19.8560 C   0  0  0  0  0  2  0  0  0  0  0  0
  -28.2690  -25.6770   20.0990 O   0  0  0  0  0  0  0  0  0  0  0  0
  -24.7250  -31.8240   23.2180 C   0  0  0  0  0  0  0  0  0  0  0  0
  -27.2910  -26.8780   20.0730 C   0  0  0  0  0  0  0  0  0  0  0  0
  -23.5480  -30.4720   21.5350 C   0  0  0  0  0  3  0  0  0  0  0  0
  -25.0080  -28.8810   20.0750 C   0  0  0  0  0  0  0  0  0  0  0  0
  -26.1250  -30.6400   21.4230 C   0  0  0  0  0  2  0  0  0  0  0  0
  -26.1990  -29.2310   20.7200 C   0  0  0  0  0  0  0  0  0  0  0  0
  -27.3270  -28.2580   20.6880 C   0  0  0  0  0  3  0  0  0  0  0  0
  -26.0640  -26.7340   19.3790 C   0  0  0  0  0  3  0  0  0  0  0  0
  -24.9770  -27.6600   19.3810 C   0  0  0  0  0  3  0  0  0  0  0  0
  -23.7930  -29.8190   20.1440 C   0  0  0  0  0  2  0  0  0  0  0  0
  -24.8230  -31.0100   22.1120 N   0  0  0  0  0  0  0  0  0  0  0  0
  -23.6290  -32.1020   23.7350 O   0  0  0  0  0  0  0  0  0  0  0  0
  -22.8350  -29.4610   22.4740 C   0  0  0  0  0  0  0  0  0  0  0  0
  -21.5070  -29.2890   22.3270 N   0  0  0  0  0  0  0  0  0  0  0  0
  -23.4900  -28.8280   23.3060 O   0  0  0  0  0  0  0  0  0  0  0  0
  -21.0290  -29.8480   21.6350 H   0  0  0  0  0  0  0  0  0  0  0  0
  -18.1300  -28.0260   22.7790 C   0  0  0  0  0  0  0  0  0  0  0  0
  -20.6840  -28.3230   23.0680 C   0  0  0  0  0  3  0  0  0  0  0  0
  -20.8080  -26.9060   22.4600 C   0  0  0  0  0  2  0  0  0  0  0  0
  -19.7190  -26.5960   21.4270 C   0  0  0  0  0  2  0  0  0  0  0  0
  -18.3300  -26.7010   22.0630 C   0  0  0  0  0  2  0  0  0  0  0  0
  -19.2330  -28.7950   23.2360 C   0  0  0  0  0  0  0  0  0  0  0  0
  -18.9870  -30.0330   23.8690 C   0  0  0  0  0  3  0  0  0  0  0  0
  -17.6710  -30.5030   24.0450 C   0  0  0  0  0  3  0  0  0  0  0  0
  -16.5840  -29.7320   23.6000 C   0  0  0  0  0  3  0  0  0  0  0  0
  -16.8130  -28.4950   22.9730 C   0  0  0  0  0  3  0  0  0  0  0  0
  -25.9820  -32.4610   23.8820 C   0  0  0  0  0  3  0  0  0  0  0  0
  -25.6670  -33.8640   24.2150 N   0  0  0  0  0  0  0  0  0  0  0  0
  -25.9850  -34.9260   23.4620 C   0  0  0  0  0  0  0  0  0  0  0  0
  -26.6290  -34.8280   22.4160 O   0  0  0  0  0  0  0  0  0  0  0  0
  -25.0870  -34.0120   25.0280 H   0  0  0  0  0  0  0  0  0  0  0  0
  -24.2260  -36.7130   23.2030 C   0  0  0  0  0  1  0  0  0  0  0  0
  -25.5140  -36.3160   23.9420 C   0  0  0  0  0  3  0  0  0  0  0  0
  -27.6780  -37.2360   24.6560 C   0  0  0  0  0  1  0  0  0  0  0  0
  -26.5310  -37.3780   23.7630 N   0  0  0  0  0  0  0  0  0  0  0  0
  -26.1230  -38.2960   23.9140 H   0  0  0  0  0  0  0  0  0  0  0  0
  -26.4480  -31.6950   25.1840 C   0  0  1  0  0  0  0  0  0  0  0  0
  -25.3180  -31.4730   26.2170 C   0  0  0  0  0  1  0  0  0  0  0  0
  -27.0330  -30.3080   24.8320 C   0  0  0  0  0  1  0  0  0  0  0  0
  -27.5840  -32.4840   25.8760 C   0  0  0  0  0  1  0  0  0  0  0  0
  1  2  2  0
  3 16  1  0
  4  9  1  0
  5  6  1  0
  5  4  1  0
  7  6  1  0
  7 20  1  0
  7  8  1  0
  9  3  1  0
  9  8  1  0
 10  3  2  0
 11 14  1  0
 13 15  1  0
 13  1  1  0
 13 11  1  0
 14 12  1  0
 15 16  1  0
 15 14  1  0
 16 12  1  0
 17 18  2  0
 18 37  1  0
 19 18  1  0
 19 22  1  0
 20 21  1  0
 20 17  1  0
 21 19  2  0
 22 23  1  0
 23 24  2  0
 25 28  1  0
 25 24  1  0
 26 25  2  0
 27 26  1  0
 27 22  2  0
 28 29  1  0
 29 34  2  0
 29 30  1  0
 30 31  2  0
 31 32  1  0
 32 36  1  0
 33 32  2  0
 34 33  1  0
 35 34  1  0
 37 38  1  0
 38 41  1  0
 38 40  1  0
 39 37  2  0
 42 17  1  0
 42 43  1  0
 44 42  1  0
 45  1  1  0
 45 46  1  0
 47 58  2  0
 48 46  1  0
 48 53  1  0
 49 57  1  0
 49 59  1  0
 50 56  1  0
 50 52  1  0
 51 57  1  0
 52 51  1  0
 53 52  2  0
 54 55  1  0
 54 48  2  0
 55 50  2  0
 56 49  1  0
 57 47  1  0
 59 61  2  0
 60 59  1  0
 62 60  1  0
 63 72  2  0
 63 68  1  0
 64 60  1  0
 64 68  1  0
 65 64  1  0
 66 67  1  0
 66 65  1  0
 67 63  1  0
 68 69  2  0
 69 70  1  0
 71 70  2  0
 72 71  1  0
 73 47  1  0
 73 74  1  0
 73 83  1  0
 74 77  1  0
 75 79  1  0
 75 74  1  0
 76 75  2  0
 79 78  1  0
 81 82  1  0
 81 79  1  0
 81 80  1  0
 83 86  1  1
 83 84  1  0
 85 83  1  0
M  ISO  4   3 100  16 100  45 101  46 101
M  END
>  <TORSDO>  (58) 
F 17

>  <SCORE>  (58) 
-15.505

>  <name>  (58) 
57

>  <ligand_id>  (58) 
57

>  <original_smiles>  (58) 
[H]c1c([H])c([H])c2c(c1[H])C([H])([H])C([H])([H])C([H])([H])C2([H])N([H])C(=O)C1([H])N(C(=O)C([H])(N([H])C(=O)C([H])(N([H])C([H])([H])[H])C([H])([H])[H])C(C([H])([H])[H])(C([H])([H])[H])C([H])([H])[H])C([H])([H])c2c([H])c(OC([H])([H])C(=O)C3([H])C([H])([H])C4([H])C([H])([H])N(C(=O)N5C([H])([H])C([H])([H])C([H])([H])C([H])(n6nc(-c7c([H])c([H])c(Oc8c([H])c([H])c(F)c([H])c8F)c([H])c7[H])c(C(=O)N([H])[H])c6N([H])[H])C5([H])[H])C34[H])c([H])c([H])c2C1([H])[H]

>  <smiles>  (58) 
[H]c1c([H])c([H])c2c(c1[H])C([H])([H])C([H])([H])C([H])([H])C2([H])N([H])C(=O)C1([H])N(C(=O)C([H])(N([H])C(=O)C([H])(N([H])C([H])([H])[H])C([H])([H])[H])C(C([H])([H])[H])(C([H])([H])[H])C([H])([H])[H])C([H])([H])c2c([H])c(OC([H])([H])C(=O)C3([H])C([H])([H])C4([H])C([H])([H])N(C(=O)N5C([H])([H])C([H])([H])C([H])([H])C([H])(n6nc(-c7c([H])c([H])c(Oc8c([H])c([H])c(F)c([H])c8F)c([H])c7[H])c(C(=O)N([H])[H])c6N([H])[H])C5([H])[H])C34[H])c([H])c([H])c2C1([H])[H]

$$$$
58:0:0
     RDKit          3D

 87 96  0  0  1  0  0  0  0  0999 V2000
  -29.0460  -18.7520   18.7620 C   0  0  0  0  0  2  0  0  0  0  0  0
  -30.0850  -21.2240   18.9150 C   0  0  0  0  0  2  0  0  0  0  0  0
  -29.2950  -19.6370   20.9430 C   0  0  0  0  0  2  0  0  0  0  0  0
  -28.8810  -20.3360   18.7350 C   0  0  0  0  0  3  0  0  0  0  0  0
  -29.7680  -18.2280   20.0630 C   0  0  0  0  0  3  0  0  0  0  0  0
  -29.1100  -21.0790   20.0630 C   0  0  2  0  0  0  0  0  0  0  0  0
  -30.4460  -15.3280   20.2580 C   0  0  0  0  0  0  0  0  0  0  0  0
  -30.4610  -12.8750   19.4090 C   0  0  0  0  0  2  0  0  0  0  0  0
  -29.5490  -12.6620   18.1760 C   0  0  0  0  0  2  0  0  0  0  0  0
  -28.1000  -12.3810   18.6130 C   0  0  0  0  0  2  0  0  0  0  0  0
  -27.6380  -13.3420   19.7350 C   0  0  0  0  0  3  0  0  0  0  0  0
  -28.6790  -13.5000   20.8640 C   0  0  0  0  0  2  0  0  0  0  0  0
  -29.9080  -14.0100   20.2390 N   0  0  0  0  0  0  0  0  0  0  0  0
  -31.6560  -15.3520   19.9880 O   0  0  0  0  0  0  0  0  0  0  0  0
  -29.6540  -16.5810   20.3850 N   0  0  0  0  0  0  0  0  0  0  0  0
  -28.7100  -16.3390   20.6590 H   0  0  0  0  0  0  0  0  0  0  0  0
  -25.2620  -13.8810   20.4830 C   0  0  0  0  0  0  0  0  0  0  0  0
  -24.2050  -13.0960   20.8480 C   0  0  0  0  0  0  0  0  0  0  0  0
  -24.6830  -11.7490   20.8170 C   0  0  0  0  0  0  0  0  0  0  0  0
  -26.3120  -13.0150   20.2400 N   0  0  0  0  0  0  0  0  0  0  0  0
  -25.9760  -11.7260   20.5090 N   0  0  0  0  0  0  0  0  0  0  0  0
  -23.9650  -10.4810   21.0010 C   0  0  0  0  0  0  0  0  0  0  0  0
  -24.3800   -9.5260   21.9560 C   0  0  0  0  0  3  0  0  0  0  0  0
  -23.6570   -8.3260   22.1280 C   0  0  0  0  0  3  0  0  0  0  0  0
  -22.5060   -8.0720   21.3460 C   0  0  0  0  0  0  0  0  0  0  0  0
  -22.1100   -9.0150   20.3810 C   0  0  0  0  0  3  0  0  0  0  0  0
  -22.8340  -10.2070   20.2060 C   0  0  0  0  0  3  0  0  0  0  0  0
  -21.7570   -6.9230   21.4270 O   0  0  0  0  0  0  0  0  0  0  0  0
  -21.6570   -6.2090   22.5940 C   0  0  0  0  0  0  0  0  0  0  0  0
  -21.1410   -6.7820   23.7770 C   0  0  0  0  0  3  0  0  0  0  0  0
  -20.9910   -5.9920   24.9340 C   0  0  0  0  0  3  0  0  0  0  0  0
  -21.3490   -4.6320   24.9110 C   0  0  0  0  0  0  0  0  0  0  0  0
  -21.8590   -4.0580   23.7330 C   0  0  0  0  0  3  0  0  0  0  0  0
  -22.0090   -4.8440   22.5770 C   0  0  0  0  0  0  0  0  0  0  0  0
  -22.4800   -4.2810   21.4390 F   0  0  0  0  0  0  0  0  0  0  0  0
  -21.1990   -3.8700   26.0200 F   0  0  0  0  0  0  0  0  0  0  0  0
  -22.8040  -13.5620   21.1120 C   0  0  0  0  0  0  0  0  0  0  0  0
  -22.0710  -12.8530   21.9620 N   0  0  0  0  0  0  0  0  0  0  0  0
  -22.3660  -14.5910   20.5960 O   0  0  0  0  0  0  0  0  0  0  0  0
  -22.4370  -12.0200   22.3980 H   0  0  0  0  0  0  0  0  0  0  0  0
  -21.1310  -13.1500   22.1830 H   0  0  0  0  0  0  0  0  0  0  0  0
  -25.4110  -15.2550   20.3070 N   0  0  0  0  0  0  0  0  0  0  0  0
  -24.6330  -15.8960   20.4090 H   0  0  0  0  0  0  0  0  0  0  0  0
  -26.2440  -15.6990   19.9420 H   0  0  0  0  0  0  0  0  0  0  0  0
  -28.5860  -22.6960   20.6410 C   0  0  0  0  0  2  0  0  0  0  0  0
  -28.1930  -24.2880   19.8780 C   0  0  0  0  0  2  0  0  0  0  0  0
  -28.2010  -25.8800   20.3430 O   0  0  0  0  0  0  0  0  0  0  0  0
  -24.5850  -31.8370   23.2150 C   0  0  0  0  0  0  0  0  0  0  0  0
  -27.1870  -26.9680   20.2150 C   0  0  0  0  0  0  0  0  0  0  0  0
  -23.4160  -30.4370   21.5610 C   0  0  0  0  0  3  0  0  0  0  0  0
  -24.8830  -28.8420   20.1460 C   0  0  0  0  0  0  0  0  0  0  0  0
  -25.9820  -30.6550   21.4460 C   0  0  0  0  0  2  0  0  0  0  0  0
  -26.0600  -29.2470   20.7860 C   0  0  0  0  0  0  0  0  0  0  0  0
  -27.2030  -28.3290   20.7990 C   0  0  0  0  0  3  0  0  0  0  0  0
  -25.9840  -26.7200   19.5160 C   0  0  0  0  0  3  0  0  0  0  0  0
  -24.8700  -27.6000   19.4930 C   0  0  0  0  0  3  0  0  0  0  0  0
  -23.6640  -29.7620   20.1830 C   0  0  0  0  0  2  0  0  0  0  0  0
  -24.6810  -31.0040   22.1270 N   0  0  0  0  0  0  0  0  0  0  0  0
  -23.4880  -32.1220   23.7240 O   0  0  0  0  0  0  0  0  0  0  0  0
  -22.7140  -29.4370   22.5170 C   0  0  0  0  0  0  0  0  0  0  0  0
  -21.3840  -29.2840   22.3920 N   0  0  0  0  0  0  0  0  0  0  0  0
  -23.3760  -28.8000   23.3420 O   0  0  0  0  0  0  0  0  0  0  0  0
  -20.9040  -29.8530   21.7100 H   0  0  0  0  0  0  0  0  0  0  0  0
  -17.9910  -28.1040   22.9020 C   0  0  0  0  0  0  0  0  0  0  0  0
  -20.5550  -28.3430   23.1540 C   0  0  0  0  0  3  0  0  0  0  0  0
  -20.6390  -26.9180   22.5580 C   0  0  0  0  0  2  0  0  0  0  0  0
  -19.5280  -26.6200   21.5460 C   0  0  0  0  0  2  0  0  0  0  0  0
  -18.1520  -26.7650   22.2010 C   0  0  0  0  0  2  0  0  0  0  0  0
  -19.1180  -28.8530   23.3340 C   0  0  0  0  0  0  0  0  0  0  0  0
  -18.9130  -30.1040   23.9520 C   0  0  0  0  0  3  0  0  0  0  0  0
  -17.6130  -30.6090   24.1420 C   0  0  0  0  0  3  0  0  0  0  0  0
  -16.5000  -29.8600   23.7220 C   0  0  0  0  0  3  0  0  0  0  0  0
  -16.6890  -28.6090   23.1080 C   0  0  0  0  0  3  0  0  0  0  0  0
  -25.8480  -32.4860   23.8610 C   0  0  0  0  0  3  0  0  0  0  0  0
  -25.5260  -33.8900   24.1700 N   0  0  0  0  0  0  0  0  0  0  0  0
  -25.8810  -34.9420   23.4210 C   0  0  0  0  0  0  0  0  0  0  0  0
  -26.5730  -34.8340   22.4070 O   0  0  0  0  0  0  0  0  0  0  0  0
  -24.9140  -34.0490   24.9570 H   0  0  0  0  0  0  0  0  0  0  0  0
  -24.1770  -36.7560   23.0210 C   0  0  0  0  0  1  0  0  0  0  0  0
  -25.3920  -36.3390   23.8650 C   0  0  0  0  0  3  0  0  0  0  0  0
  -27.5050  -37.2170   24.7570 C   0  0  0  0  0  1  0  0  0  0  0  0
  -26.4350  -37.3850   23.7790 N   0  0  0  0  0  0  0  0  0  0  0  0
  -26.0300  -38.3080   23.9090 H   0  0  0  0  0  0  0  0  0  0  0  0
  -26.3240  -31.7390   25.1690 C   0  0  1  0  0  0  0  0  0  0  0  0
  -25.2030  -31.5290   26.2130 C   0  0  0  0  0  1  0  0  0  0  0  0
  -26.9120  -30.3500   24.8280 C   0  0  0  0  0  1  0  0  0  0  0  0
  -27.4590  -32.5420   25.8460 C   0  0  0  0  0  1  0  0  0  0  0  0
  1  5  1  0
  2  6  1  0
  4  1  1  0
  4  2  1  0
  4  6  1  0
  5 15  1  0
  5  3  1  0
  6 45  1  1
  6  3  1  0
  7 15  1  0
  8 13  1  0
  9 10  1  0
  9  8  1  0
 11 10  1  0
 11 20  1  0
 11 12  1  0
 13  7  1  0
 13 12  1  0
 14  7  2  0
 15 16  1  0
 17 18  2  0
 18 37  1  0
 19 18  1  0
 19 22  1  0
 20 17  1  0
 20 21  1  0
 21 19  2  0
 22 23  1  0
 23 24  2  0
 25 28  1  0
 25 24  1  0
 26 25  2  0
 27 26  1  0
 27 22  2  0
 28 29  1  0
 29 30  1  0
 30 31  2  0
 32 31  1  0
 32 36  1  0
 33 32  2  0
 34 29  2  0
 34 33  1  0
 35 34  1  0
 37 38  1  0
 38 41  1  0
 38 40  1  0
 39 37  2  0
 42 43  1  0
 42 17  1  0
 44 42  1  0
 46 47  1  0
 46 45  1  0
 48 59  2  0
 49 47  1  0
 49 54  1  0
 50 58  1  0
 50 60  1  0
 51 57  1  0
 51 53  1  0
 52 58  1  0
 53 54  2  0
 53 52  1  0
 55 49  2  0
 56 55  1  0
 56 51  2  0
 57 50  1  0
 58 48  1  0
 60 62  2  0
 61 60  1  0
 63 61  1  0
 64 73  2  0
 64 69  1  0
 65 61  1  0
 65 69  1  0
 66 65  1  0
 67 68  1  0
 67 66  1  0
 68 64  1  0
 69 70  2  0
 70 71  1  0
 72 71  2  0
 73 72  1  0
 74 48  1  0
 74 75  1  0
 74 84  1  0
 75 78  1  0
 76 80  1  0
 76 75  1  0
 77 76  2  0
 80 79  1  0
 82 80  1  0
 82 83  1  0
 82 81  1  0
 84 87  1  1
 84 85  1  0
 86 84  1  0
M  ISO  4   7 100  15 100  46 101  47 101
M  END
>  <TORSDO>  (59) 
F 18

>  <SCORE>  (59) 
-16.420

>  <name>  (59) 
58

>  <ligand_id>  (59) 
58

>  <original_smiles>  (59) 
[H]c1c([H])c([H])c2c(c1[H])C([H])([H])C([H])([H])C([H])([H])C2([H])N([H])C(=O)C1([H])N(C(=O)C([H])(N([H])C(=O)C([H])(N([H])C([H])([H])[H])C([H])([H])[H])C(C([H])([H])[H])(C([H])([H])[H])C([H])([H])[H])C([H])([H])c2c([H])c(OC([H])([H])C([H])([H])C34C([H])([H])C([H])(N([H])C(=O)N5C([H])([H])C([H])([H])C([H])([H])C([H])(n6nc(-c7c([H])c([H])c(Oc8c([H])c([H])c(F)c([H])c8F)c([H])c7[H])c(C(=O)N([H])[H])c6N([H])[H])C5([H])[H])C([H])([H])C3([H])C4([H])[H])c([H])c([H])c2C1([H])[H]

>  <smiles>  (59) 
[H]c1c([H])c([H])c2c(c1[H])C([H])([H])C([H])([H])C([H])([H])C2([H])N([H])C(=O)C1([H])N(C(=O)C([H])(N([H])C(=O)C([H])(N([H])C([H])([H])[H])C([H])([H])[H])C(C([H])([H])[H])(C([H])([H])[H])C([H])([H])[H])C([H])([H])c2c([H])c(OC([H])([H])C([H])([H])C34C([H])([H])C([H])(N([H])C(=O)N5C([H])([H])C([H])([H])C([H])([H])C([H])(n6nc(-c7c([H])c([H])c(Oc8c([H])c([H])c(F)c([H])c8F)c([H])c7[H])c(C(=O)N([H])[H])c6N([H])[H])C5([H])[H])C([H])([H])C3([H])C4([H])[H])c([H])c([H])c2C1([H])[H]

$$$$
59:0:0
     RDKit          3D

 91 93  0  0  1  0  0  0  0  0999 V2000
  -26.4560  -26.0300   23.1130 C   0  0  0  0  0  2  0  0  0  0  0  0
  -25.4710  -27.3670   23.5440 N   0  0  0  0  0  2  0  0  0  0  0  0
  -27.5300  -26.4680   23.5280 O   0  0  0  0  0  1  0  0  0  0  0  0
  -26.1830  -27.8550   24.0770 H   0  0  0  0  0  0  0  0  0  0  0  0
  -26.7650  -22.4730   21.8060 C   0  0  0  0  0  2  0  0  0  0  0  0
  -28.6900  -23.3790   21.9020 C   0  0  0  0  0  2  0  0  0  0  0  0
  -27.1230  -24.1590   22.3830 C   0  0  0  0  0  2  0  0  0  0  0  0
  -27.8590  -20.9840   21.7460 C   0  0  0  0  0  3  0  0  0  0  0  0
  -29.1590  -21.6000   21.8780 C   0  0  0  0  0  3  0  0  0  0  0  0
  -29.2120  -20.0470   20.8730 C   0  0  0  0  0  2  0  0  0  0  0  0
  -30.5670  -16.8140   20.0990 C   0  0  0  0  0  0  0  0  0  0  0  0
  -30.9140  -14.2090   19.0060 C   0  0  0  0  0  2  0  0  0  0  0  0
  -30.0650  -13.6230   17.7980 C   0  0  0  0  0  2  0  0  0  0  0  0
  -28.6930  -13.1250   18.2510 C   0  0  0  0  0  2  0  0  0  0  0  0
  -28.1580  -14.1070   19.3070 C   0  0  0  0  0  3  0  0  0  0  0  0
  -29.1430  -14.4770   20.4540 C   0  0  0  0  0  2  0  0  0  0  0  0
  -30.2210  -15.3320   19.9040 N   0  0  0  0  0  0  0  0  0  0  0  0
  -31.6970  -16.8170   19.5220 O   0  0  0  0  0  0  0  0  0  0  0  0
  -29.8720  -18.1750   20.8600 N   0  0  0  0  0  2  0  0  0  0  0  0
  -29.9150  -17.8790   21.8520 H   0  0  0  0  0  0  0  0  0  0  0  0
  -25.8540  -14.6250   20.1520 C   0  0  0  0  0  0  0  0  0  0  0  0
  -24.8140  -13.8520   20.5700 C   0  0  0  0  0  0  0  0  0  0  0  0
  -25.2630  -12.4970   20.4850 C   0  0  0  0  0  0  0  0  0  0  0  0
  -26.8620  -13.7460   19.8290 N   0  0  0  0  0  0  0  0  0  0  0  0
  -26.5320  -12.4520   20.0850 N   0  0  0  0  0  0  0  0  0  0  0  0
  -24.5300  -11.2440   20.6950 C   0  0  0  0  0  0  0  0  0  0  0  0
  -24.9210  -10.3120   21.6820 C   0  0  0  0  0  3  0  0  0  0  0  0
  -24.1770   -9.1290   21.8830 C   0  0  0  0  0  3  0  0  0  0  0  0
  -23.0280   -8.8710   21.0970 C   0  0  0  0  0  0  0  0  0  0  0  0
  -22.6580   -9.7910   20.0990 C   0  0  0  0  0  3  0  0  0  0  0  0
  -23.4020  -10.9650   19.8990 C   0  0  0  0  0  3  0  0  0  0  0  0
  -22.2590   -7.7380   21.2040 O   0  0  0  0  0  0  0  0  0  0  0  0
  -22.0270   -7.1360   22.4150 C   0  0  0  0  0  0  0  0  0  0  0  0
  -21.4850   -7.8480   23.5080 C   0  0  0  0  0  3  0  0  0  0  0  0
  -21.2000   -7.1760   24.7120 C   0  0  0  0  0  3  0  0  0  0  0  0
  -21.4420   -5.7930   24.8220 C   0  0  0  0  0  0  0  0  0  0  0  0
  -21.9730   -5.0820   23.7330 C   0  0  0  0  0  3  0  0  0  0  0  0
  -22.2620   -5.7510   22.5300 C   0  0  0  0  0  0  0  0  0  0  0  0
  -22.7550   -5.0580   21.4770 F   0  0  0  0  0  0  0  0  0  0  0  0
  -21.1610   -5.1460   25.9770 F   0  0  0  0  0  0  0  0  0  0  0  0
  -23.4500  -14.3510   20.9370 C   0  0  0  0  0  0  0  0  0  0  0  0
  -22.7930  -13.6960   21.8860 N   0  0  0  0  0  0  0  0  0  0  0  0
  -22.9790  -15.3630   20.4150 O   0  0  0  0  0  0  0  0  0  0  0  0
  -23.1920  -12.8820   22.3250 H   0  0  0  0  0  0  0  0  0  0  0  0
  -21.8800  -14.0130   22.1820 H   0  0  0  0  0  0  0  0  0  0  0  0
  -26.0310  -15.9980   20.0030 N   0  0  0  0  0  0  0  0  0  0  0  0
  -25.2920  -16.6670   20.1900 H   0  0  0  0  0  0  0  0  0  0  0  0
  -26.8750  -16.4290   19.6460 H   0  0  0  0  0  0  0  0  0  0  0  0
  -23.9770  -28.7940   23.7060 C   0  0  0  0  0 15  0  0  0  0  0  0
  -22.6160  -29.5280   21.7750 C   0  0  0  0  0 15  0  0  0  0  0  0
  -23.6010  -28.0790   20.0820 O   0  0  0  0  0  1  0  0  0  0  0  0
  -24.5920  -31.3980   22.9840 C   0  0  0  0  0  0  0  0  0  0  0  0
  -25.1000  -27.4320   19.8290 C   0  0  0  0  0  3  0  0  0  0  0  0
  -24.6890  -28.9230   21.7170 C   0  0  0  0  0  1  0  0  0  0  0  0
  -25.1840  -29.7510   19.1160 C   0  0  0  0  0  3  0  0  0  0  0  0
  -26.3530  -30.5150   21.2850 C   0  0  0  0  0  2  0  0  0  0  0  0
  -26.2650  -29.5580   19.9780 C   0  0  0  0  0  3  0  0  0  0  0  0
  -26.4210  -28.1360   20.0530 C   0  0  0  0  0  2  0  0  0  0  0  0
  -25.1370  -27.3300   18.4900 C   0  0  0  0  0  2  0  0  0  0  0  0
  -24.7970  -28.6740   18.1860 C   0  0  0  0  0  2  0  0  0  0  0  0
  -24.2800  -30.1710   20.2000 C   0  0  0  0  0  1  0  0  0  0  0  0
  -25.1140  -30.3400   22.1960 N   0  0  0  0  0  0  0  0  0  0  0  0
  -23.4180  -31.6360   23.3430 O   0  0  0  0  0  0  0  0  0  0  0  0
  -22.9160  -27.1520   21.9940 C   0  0  0  0  0  2  0  0  0  0  0  0
  -21.4530  -27.4190   21.7810 N   0  0  0  0  0  0  0  0  0  0  0  0
  -22.8100  -26.4080   22.9080 O   0  0  0  0  0  1  0  0  0  0  0  0
  -21.2850  -28.0320   20.9910 H   0  0  0  0  0  0  0  0  0  0  0  0
  -17.6850  -28.0170   22.5020 C   0  0  0  0  0  0  0  0  0  0  0  0
  -20.3050  -27.5570   22.8260 C   0  0  0  0  0  3  0  0  0  0  0  0
  -19.7980  -26.1920   22.5210 C   0  0  0  0  0  2  0  0  0  0  0  0
  -18.9350  -26.2440   21.2580 C   0  0  0  0  0  2  0  0  0  0  0  0
  -17.5820  -26.7470   21.6980 C   0  0  0  0  0  2  0  0  0  0  0  0
  -18.9660  -28.5110   22.9360 C   0  0  0  0  0  0  0  0  0  0  0  0
  -18.8690  -29.7260   23.6960 C   0  0  0  0  0  3  0  0  0  0  0  0
  -17.6270  -30.3710   23.9760 C   0  0  0  0  0  3  0  0  0  0  0  0
  -16.4060  -29.8250   23.5460 C   0  0  0  0  0  3  0  0  0  0  0  0
  -16.4500  -28.6300   22.8190 C   0  0  0  0  0  3  0  0  0  0  0  0
  -25.6610  -32.2400   23.6820 C   0  0  0  0  0  3  0  0  0  0  0  0
  -26.0830  -31.4910   25.0070 C   0  0  1  0  0  0  0  0  0  0  0  0
  -24.9330  -31.2300   26.0200 C   0  0  0  0  0  1  0  0  0  0  0  0
  -26.8340  -30.1440   24.7770 C   0  0  0  0  0  1  0  0  0  0  0  0
  -27.1150  -32.3820   25.7190 C   0  0  0  0  0  1  0  0  0  0  0  0
  -25.1920  -33.6190   23.9760 N   0  0  0  0  0  0  0  0  0  0  0  0
  -25.5380  -34.7120   23.2770 C   0  0  0  0  0  0  0  0  0  0  0  0
  -26.2380  -34.6560   22.2630 O   0  0  0  0  0  0  0  0  0  0  0  0
  -24.6120  -33.7390   24.7930 H   0  0  0  0  0  0  0  0  0  0  0  0
  -23.8580  -36.5570   22.9590 C   0  0  0  0  0  1  0  0  0  0  0  0
  -25.0560  -36.0850   23.7890 C   0  0  0  0  0  3  0  0  0  0  0  0
  -27.1730  -36.9150   24.7260 C   0  0  0  0  0  1  0  0  0  0  0  0
  -26.1080  -37.1260   23.7540 N   0  0  0  0  0  0  0  0  0  0  0  0
  -25.7090  -38.0430   23.9280 H   0  0  0  0  0  0  0  0  0  0  0  0
  1  3  1  0
  1  2  1  0
  2  4  1  0
  5  7  1  0
  6  7  1  0
  8 10  1  0
  8  5  1  0
  8  9  1  0
  9 10  1  0
  9  6  1  0
 11 19  1  0
 12 17  1  0
 13 14  1  0
 13 12  1  0
 15 14  1  0
 15 24  1  0
 15 16  1  0
 17 11  1  0
 17 16  1  0
 18 11  2  0
 19 20  1  0
 21 22  2  0
 22 41  1  0
 23 22  1  0
 23 26  1  0
 24 25  1  0
 24 21  1  0
 25 23  2  0
 26 27  1  0
 27 28  2  0
 29 32  1  0
 29 28  1  0
 30 29  2  0
 31 30  1  0
 31 26  2  0
 32 33  1  0
 33 38  2  0
 33 34  1  0
 34 35  2  0
 35 36  1  0
 36 40  1  0
 37 36  2  0
 38 37  1  0
 39 38  1  0
 41 42  1  0
 42 45  1  0
 42 44  1  0
 43 41  2  0
 46 21  1  0
 46 47  1  0
 48 46  1  0
 52 63  2  0
 53 58  1  0
 53 51  1  0
 54 62  1  0
 55 57  1  0
 55 61  1  0
 56 62  1  0
 57 58  1  0
 57 56  1  0
 59 53  1  0
 60 59  1  0
 60 55  1  0
 62 52  1  0
 64 66  1  0
 65 64  1  0
 67 65  1  0
 68 77  2  0
 68 73  1  0
 69 65  1  0
 69 73  1  0
 70 69  1  0
 71 72  1  0
 71 70  1  0
 72 68  1  0
 73 74  2  0
 74 75  1  0
 76 75  2  0
 77 76  1  0
 78 52  1  0
 78 83  1  0
 78 79  1  0
 79 82  1  1
 79 80  1  0
 81 79  1  0
 83 86  1  0
 84 88  1  0
 84 83  1  0
 85 84  2  0
 88 87  1  0
 90 88  1  0
 90 91  1  0
 90 89  1  0
M  ISO  4  11 100  19 100  50 101  51 101
M  END
>  <TORSDO>  (60) 
F 19

>  <SCORE>  (60) 
-12.476

>  <name>  (60) 
59

>  <ligand_id>  (60) 
59

>  <original_smiles>  (60) 
[H]c1c([H])c([H])c2c(c1[H])C([H])([H])C([H])([H])C([H])([H])C2([H])N([H])C(=O)C1([H])N(C(=O)C([H])(N([H])C(=O)C([H])(N([H])C([H])([H])[H])C([H])([H])[H])C(C([H])([H])[H])(C([H])([H])[H])C([H])([H])[H])C([H])([H])c2c([H])c(OC([H])([H])C([H])([H])N([H])C(=O)C3([H])C([H])([H])C4([H])C([H])(N([H])C(=O)N5C([H])([H])C([H])([H])C([H])([H])C([H])(n6nc(-c7c([H])c([H])c(Oc8c([H])c([H])c(F)c([H])c8F)c([H])c7[H])c(C(=O)N([H])[H])c6N([H])[H])C5([H])[H])C4([H])C3([H])[H])c([H])c([H])c2C1([H])[H]

>  <smiles>  (60) 
[H]c1c([H])c([H])c2c(c1[H])C([H])([H])C([H])([H])C([H])([H])C2([H])N([H])C(=O)C1([H])N(C(=O)C([H])(N([H])C(=O)C([H])(N([H])C([H])([H])[H])C([H])([H])[H])C(C([H])([H])[H])(C([H])([H])[H])C([H])([H])[H])C([H])([H])c2c([H])c(OC([H])([H])C([H])([H])N([H])C(=O)C3([H])C([H])([H])C4([H])C([H])(N([H])C(=O)N5C([H])([H])C([H])([H])C([H])([H])C([H])(n6nc(-c7c([H])c([H])c(Oc8c([H])c([H])c(F)c([H])c8F)c([H])c7[H])c(C(=O)N([H])[H])c6N([H])[H])C5([H])[H])C4([H])C3([H])[H])c([H])c([H])c2C1([H])[H]

$$$$
60:0:0
     RDKit          3D

 86 95  0  0  1  0  0  0  0  0999 V2000
  -30.3980  -15.4590   20.3240 C   0  0  0  0  0  0  0  0  0  0  0  0
  -30.4290  -12.9570   19.5190 C   0  0  0  0  0  2  0  0  0  0  0  0
  -29.5540  -12.6190   18.2840 C   0  0  0  0  0  2  0  0  0  0  0  0
  -28.1100  -12.3090   18.7090 C   0  0  0  0  0  2  0  0  0  0  0  0
  -27.5970  -13.3150   19.7670 C   0  0  0  0  0  3  0  0  0  0  0  0
  -28.6110  -13.5880   20.9000 C   0  0  0  0  0  2  0  0  0  0  0  0
  -29.8210  -14.1390   20.2590 N   0  0  0  0  0  0  0  0  0  0  0  0
  -31.6340  -15.3830   20.1910 O   0  0  0  0  0  0  0  0  0  0  0  0
  -27.8690  -18.6710   20.0740 C   0  0  0  0  0  2  0  0  0  0  0  0
  -28.9550  -21.0830   19.1790 C   0  0  0  0  0  2  0  0  0  0  0  0
  -28.7690  -21.1050   21.1530 C   0  0  0  0  0  2  0  0  0  0  0  0
  -28.2650  -17.1300   20.3750 C   0  0  0  0  0  2  0  0  0  0  0  0
  -30.1500  -18.4060   20.2760 C   0  0  0  0  0  2  0  0  0  0  0  0
  -28.8780  -22.4370   20.1500 C   0  0  0  0  0  3  0  0  0  0  0  0
  -29.0030  -19.7450   20.1920 C   0  0  1  0  0  0  0  0  0  0  0  0
  -29.7110  -16.8230   20.3250 N   0  0  0  0  0  0  0  0  0  0  0  0
  -25.2090  -13.8510   20.4660 C   0  0  0  0  0  0  0  0  0  0  0  0
  -24.1480  -13.0680   20.8220 C   0  0  0  0  0  0  0  0  0  0  0  0
  -24.6330  -11.7230   20.8260 C   0  0  0  0  0  0  0  0  0  0  0  0
  -26.2680  -12.9850   20.2620 N   0  0  0  0  0  0  0  0  0  0  0  0
  -25.9330  -11.7000   20.5480 N   0  0  0  0  0  0  0  0  0  0  0  0
  -23.9140  -10.4570   21.0180 C   0  0  0  0  0  0  0  0  0  0  0  0
  -24.3390   -9.5010   21.9670 C   0  0  0  0  0  3  0  0  0  0  0  0
  -23.6150   -8.3020   22.1480 C   0  0  0  0  0  3  0  0  0  0  0  0
  -22.4530   -8.0510   21.3800 C   0  0  0  0  0  0  0  0  0  0  0  0
  -22.0480   -8.9950   20.4200 C   0  0  0  0  0  3  0  0  0  0  0  0
  -22.7730  -10.1850   20.2370 C   0  0  0  0  0  3  0  0  0  0  0  0
  -21.7030   -6.9040   21.4700 O   0  0  0  0  0  0  0  0  0  0  0  0
  -21.6500   -6.1670   22.6270 C   0  0  0  0  0  0  0  0  0  0  0  0
  -21.2300   -6.7300   23.8510 C   0  0  0  0  0  3  0  0  0  0  0  0
  -21.1250   -5.9200   24.9990 C   0  0  0  0  0  3  0  0  0  0  0  0
  -21.4300   -4.5480   24.9250 C   0  0  0  0  0  0  0  0  0  0  0  0
  -21.8430   -3.9850   23.7050 C   0  0  0  0  0  3  0  0  0  0  0  0
  -21.9500   -4.7910   22.5580 C   0  0  0  0  0  0  0  0  0  0  0  0
  -22.3290   -4.2390   21.3810 F   0  0  0  0  0  0  0  0  0  0  0  0
  -21.3210   -3.7680   26.0250 F   0  0  0  0  0  0  0  0  0  0  0  0
  -22.7400  -13.5350   21.0420 C   0  0  0  0  0  0  0  0  0  0  0  0
  -21.9970  -12.8550   21.9070 N   0  0  0  0  0  0  0  0  0  0  0  0
  -22.3070  -14.5410   20.4820 O   0  0  0  0  0  0  0  0  0  0  0  0
  -22.3620  -12.0430   22.3830 H   0  0  0  0  0  0  0  0  0  0  0  0
  -21.0520  -13.1520   22.0990 H   0  0  0  0  0  0  0  0  0  0  0  0
  -25.3520  -15.2190   20.2680 N   0  0  0  0  0  0  0  0  0  0  0  0
  -24.5690  -15.8580   20.3510 H   0  0  0  0  0  0  0  0  0  0  0  0
  -26.1990  -15.6670   19.9460 H   0  0  0  0  0  0  0  0  0  0  0  0
  -27.9310  -24.0450   20.0080 C   0  0  0  0  0  2  0  0  0  0  0  0
  -28.1720  -25.7220   20.1180 O   0  0  0  0  0  0  0  0  0  0  0  0
  -24.6340  -31.8100   23.0920 C   0  0  0  0  0  0  0  0  0  0  0  0
  -27.1740  -26.8650   20.0670 C   0  0  0  0  0  0  0  0  0  0  0  0
  -23.4410  -30.4190   21.4520 C   0  0  0  0  0  3  0  0  0  0  0  0
  -24.8870  -28.8040   20.0250 C   0  0  0  0  0  0  0  0  0  0  0  0
  -26.0120  -30.6050   21.3110 C   0  0  0  0  0  2  0  0  0  0  0  0
  -26.0790  -29.1890   20.6490 C   0  0  0  0  0  0  0  0  0  0  0  0
  -27.2140  -28.2440   20.6400 C   0  0  0  0  0  3  0  0  0  0  0  0
  -25.9480  -26.6530   19.3930 C   0  0  0  0  0  3  0  0  0  0  0  0
  -24.8510  -27.5590   19.3740 C   0  0  0  0  0  3  0  0  0  0  0  0
  -23.6720  -29.7350   20.0750 C   0  0  0  0  0  2  0  0  0  0  0  0
  -24.7190  -30.9750   22.0040 N   0  0  0  0  0  0  0  0  0  0  0  0
  -23.5450  -32.1020   23.6120 O   0  0  0  0  0  0  0  0  0  0  0  0
  -22.7400  -29.4280   22.4170 C   0  0  0  0  0  0  0  0  0  0  0  0
  -21.4040  -29.2890   22.3140 N   0  0  0  0  0  0  0  0  0  0  0  0
  -23.4050  -28.7810   23.2310 O   0  0  0  0  0  0  0  0  0  0  0  0
  -20.9180  -29.8600   21.6350 H   0  0  0  0  0  0  0  0  0  0  0  0
  -18.0080  -28.1390   22.8820 C   0  0  0  0  0  0  0  0  0  0  0  0
  -20.5790  -28.3540   23.0870 C   0  0  0  0  0  3  0  0  0  0  0  0
  -20.6380  -26.9310   22.4820 C   0  0  0  0  0  2  0  0  0  0  0  0
  -19.5060  -26.6480   21.4890 C   0  0  0  0  0  2  0  0  0  0  0  0
  -18.1430  -26.8020   22.1700 C   0  0  0  0  0  2  0  0  0  0  0  0
  -19.1500  -28.8730   23.2980 C   0  0  0  0  0  0  0  0  0  0  0  0
  -18.9660  -30.1230   23.9300 C   0  0  0  0  0  3  0  0  0  0  0  0
  -17.6730  -30.6370   24.1450 C   0  0  0  0  0  3  0  0  0  0  0  0
  -16.5460  -29.9000   23.7430 C   0  0  0  0  0  3  0  0  0  0  0  0
  -16.7150  -28.6520   23.1170 C   0  0  0  0  0  3  0  0  0  0  0  0
  -25.9030  -32.4540   23.7290 C   0  0  0  0  0  3  0  0  0  0  0  0
  -25.5730  -33.8430   24.1000 N   0  0  0  0  0  0  0  0  0  0  0  0
  -25.8860  -34.9270   23.3780 C   0  0  0  0  0  0  0  0  0  0  0  0
  -26.5430  -34.8650   22.3360 O   0  0  0  0  0  0  0  0  0  0  0  0
  -24.9860  -33.9630   24.9110 H   0  0  0  0  0  0  0  0  0  0  0  0
  -24.1320  -36.7190   23.1240 C   0  0  0  0  0  1  0  0  0  0  0  0
  -25.3970  -36.2990   23.8910 C   0  0  0  0  0  3  0  0  0  0  0  0
  -27.5420  -37.1850   24.6980 C   0  0  0  0  0  1  0  0  0  0  0  0
  -26.4160  -37.3670   23.7850 N   0  0  0  0  0  0  0  0  0  0  0  0
  -26.0040  -38.2780   23.9680 H   0  0  0  0  0  0  0  0  0  0  0  0
  -26.4260  -31.6680   24.9950 C   0  0  1  0  0  0  0  0  0  0  0  0
  -25.3370  -31.4110   26.0640 C   0  0  0  0  0  1  0  0  0  0  0  0
  -27.0170  -30.2980   24.5920 C   0  0  0  0  0  1  0  0  0  0  0  0
  -27.5750  -32.4590   25.6650 C   0  0  0  0  0  1  0  0  0  0  0  0
  1 16  1  0
  2  7  1  0
  3  4  1  0
  3  2  1  0
  5  4  1  0
  5 20  1  0
  5  6  1  0
  7  1  1  0
  7  6  1  0
  8  1  2  0
 15  9  1  6
  9 12  1  0
 10 14  1  0
 13 16  1  0
 14 45  1  0
 14 11  1  0
 15 10  1  0
 15 13  1  0
 15 11  1  0
 16 12  1  0
 17 18  2  0
 18 19  1  0
 18 37  1  0
 19 22  1  0
 20 17  1  0
 20 21  1  0
 21 19  2  0
 22 23  1  0
 23 24  2  0
 25 28  1  0
 25 24  1  0
 26 25  2  0
 27 26  1  0
 27 22  2  0
 28 29  1  0
 29 30  1  0
 30 31  2  0
 32 31  1  0
 32 36  1  0
 33 32  2  0
 34 29  2  0
 34 33  1  0
 35 34  1  0
 37 38  1  0
 38 41  1  0
 38 40  1  0
 39 37  2  0
 42 43  1  0
 42 17  1  0
 44 42  1  0
 45 46  1  0
 47 58  2  0
 48 46  1  0
 48 53  1  0
 49 57  1  0
 49 59  1  0
 50 56  1  0
 50 52  1  0
 51 57  1  0
 52 51  1  0
 53 52  2  0
 54 48  2  0
 55 54  1  0
 55 50  2  0
 56 49  1  0
 57 47  1  0
 59 61  2  0
 60 59  1  0
 62 60  1  0
 63 72  2  0
 63 68  1  0
 64 60  1  0
 64 68  1  0
 65 64  1  0
 66 67  1  0
 66 65  1  0
 67 63  1  0
 68 69  2  0
 69 70  1  0
 71 70  2  0
 72 71  1  0
 73 47  1  0
 73 74  1  0
 73 83  1  0
 74 77  1  0
 75 79  1  0
 75 74  1  0
 76 75  2  0
 79 78  1  0
 81 79  1  0
 81 82  1  0
 81 80  1  0
 83 86  1  1
 83 84  1  0
 85 83  1  0
M  ISO  4   1 100  16 100  45 101  46 101
M  END
>  <TORSDO>  (61) 
F 16

>  <SCORE>  (61) 
-16.698

>  <name>  (61) 
60

>  <ligand_id>  (61) 
60

>  <original_smiles>  (61) 
[H]c1c([H])c([H])c2c(c1[H])C([H])([H])C([H])([H])C([H])([H])C2([H])N([H])C(=O)C1([H])N(C(=O)C([H])(N([H])C(=O)C([H])(N([H])C([H])([H])[H])C([H])([H])[H])C(C([H])([H])[H])(C([H])([H])[H])C([H])([H])[H])C([H])([H])c2c([H])c(OC([H])([H])C3([H])C([H])([H])C4(C([H])([H])N(C(=O)N5C([H])([H])C([H])([H])C([H])([H])C([H])(n6nc(-c7c([H])c([H])c(Oc8c([H])c([H])c(F)c([H])c8F)c([H])c7[H])c(C(=O)N([H])[H])c6N([H])[H])C5([H])[H])C([H])([H])C4([H])[H])C3([H])[H])c([H])c([H])c2C1([H])[H]

>  <smiles>  (61) 
[H]c1c([H])c([H])c2c(c1[H])C([H])([H])C([H])([H])C([H])([H])C2([H])N([H])C(=O)C1([H])N(C(=O)C([H])(N([H])C(=O)C([H])(N([H])C([H])([H])[H])C([H])([H])[H])C(C([H])([H])[H])(C([H])([H])[H])C([H])([H])[H])C([H])([H])c2c([H])c(OC([H])([H])C3([H])C([H])([H])C4(C([H])([H])N(C(=O)N5C([H])([H])C([H])([H])C([H])([H])C([H])(n6nc(-c7c([H])c([H])c(Oc8c([H])c([H])c(F)c([H])c8F)c([H])c7[H])c(C(=O)N([H])[H])c6N([H])[H])C5([H])[H])C([H])([H])C4([H])[H])C3([H])[H])c([H])c([H])c2C1([H])[H]

$$$$
61:0:0
     RDKit          3D

 94103  0  0  1  0  0  0  0  0999 V2000
  -30.5710  -19.3250   22.4750 C   0  0  0  0  0  3  0  0  0  0  0  0
  -30.6820  -20.5810   22.0520 C   0  0  0  0  0  0  0  0  0  0  0  0
  -30.0150  -18.2340   21.5930 C   0  0  0  0  0  2  0  0  0  0  0  0
  -31.3110  -20.3350   19.6340 C   0  0  0  0  0  2  0  0  0  0  0  0
  -30.9130  -18.8840   19.3020 C   0  0  0  0  0  2  0  0  0  0  0  0
  -30.2770  -20.8960   20.6310 C   0  0  0  0  0  3  0  0  0  0  0  0
  -29.6320  -18.5710   20.0940 C   0  0  2  0  0  0  0  0  0  0  0  0
  -28.9730  -20.2570   20.2660 N   0  0  2  0  0  4  0  0  0  0  0  0
  -28.4010  -20.2080   21.0960 H   0  0  0  0  0  0  0  0  0  0  0  0
  -30.0740  -15.4390   19.7980 C   0  0  0  0  0  0  0  0  0  0  0  0
  -30.1590  -12.8870   18.9960 C   0  0  0  0  0  2  0  0  0  0  0  0
  -29.1920  -12.4170   17.8710 C   0  0  0  0  0  2  0  0  0  0  0  0
  -27.8230  -12.0290   18.4470 C   0  0  0  0  0  2  0  0  0  0  0  0
  -27.3610  -13.0410   19.5180 C   0  0  0  0  0  3  0  0  0  0  0  0
  -28.4630  -13.4230   20.5350 C   0  0  0  0  0  2  0  0  0  0  0  0
  -29.5540  -14.0680   19.7630 N   0  0  0  0  0  0  0  0  0  0  0  0
  -31.3030  -15.3650   19.5960 O   0  0  0  0  0  0  0  0  0  0  0  0
  -29.3280  -16.8210   19.8700 N   0  0  0  0  0  0  0  0  0  0  0  0
  -28.3330  -16.6500   19.8710 H   0  0  0  0  0  0  0  0  0  0  0  0
  -25.0660  -13.5160   20.4900 C   0  0  0  0  0  0  0  0  0  0  0  0
  -24.0550  -12.7110   20.9320 C   0  0  0  0  0  0  0  0  0  0  0  0
  -24.5470  -11.3720   20.8420 C   0  0  0  0  0  0  0  0  0  0  0  0
  -26.1030  -12.6700   20.1480 N   0  0  0  0  0  0  0  0  0  0  0  0
  -25.8110  -11.3700   20.4260 N   0  0  0  0  0  0  0  0  0  0  0  0
  -23.8590  -10.0920   21.0720 C   0  0  0  0  0  0  0  0  0  0  0  0
  -24.3150   -9.1700   22.0400 C   0  0  0  0  0  3  0  0  0  0  0  0
  -23.6210   -7.9600   22.2580 C   0  0  0  0  0  3  0  0  0  0  0  0
  -22.4590   -7.6630   21.5060 C   0  0  0  0  0  0  0  0  0  0  0  0
  -22.0230   -8.5730   20.5290 C   0  0  0  0  0  3  0  0  0  0  0  0
  -22.7170   -9.7750   20.3100 C   0  0  0  0  0  3  0  0  0  0  0  0
  -21.7370   -6.5010   21.6320 O   0  0  0  0  0  0  0  0  0  0  0  0
  -21.6010   -5.8640   22.8400 C   0  0  0  0  0  0  0  0  0  0  0  0
  -20.9470   -6.4730   23.9320 C   0  0  0  0  0  3  0  0  0  0  0  0
  -20.7680   -5.7580   25.1330 C   0  0  0  0  0  3  0  0  0  0  0  0
  -21.2320   -4.4320   25.2390 C   0  0  0  0  0  0  0  0  0  0  0  0
  -21.8770   -3.8220   24.1500 C   0  0  0  0  0  3  0  0  0  0  0  0
  -22.0580   -4.5360   22.9530 C   0  0  0  0  0  0  0  0  0  0  0  0
  -22.6620   -3.9350   21.8990 F   0  0  0  0  0  0  0  0  0  0  0  0
  -21.0530   -3.7420   26.3900 F   0  0  0  0  0  0  0  0  0  0  0  0
  -22.6750  -13.1580   21.3140 C   0  0  0  0  0  0  0  0  0  0  0  0
  -22.0370  -12.4490   22.2390 N   0  0  0  0  0  0  0  0  0  0  0  0
  -22.1750  -14.1710   20.8270 O   0  0  0  0  0  0  0  0  0  0  0  0
  -22.4560  -11.6290   22.6500 H   0  0  0  0  0  0  0  0  0  0  0  0
  -21.1170  -12.7340   22.5430 H   0  0  0  0  0  0  0  0  0  0  0  0
  -25.1830  -14.8930   20.3160 N   0  0  0  0  0  0  0  0  0  0  0  0
  -24.4070  -15.5240   20.4850 H   0  0  0  0  0  0  0  0  0  0  0  0
  -25.9790  -15.3480   19.8930 H   0  0  0  0  0  0  0  0  0  0  0  0
  -31.2710  -21.6950   22.9050 C   0  0  0  0  0  2  0  0  0  0  0  0
  -30.5030  -22.2220   25.2770 C   0  0  0  0  0  1  0  0  0  0  0  0
  -30.1030  -23.8990   23.4330 C   0  0  0  0  0  1  0  0  0  0  0  0
  -30.2120  -22.4060   23.7780 C   0  0  0  0  0  3  0  0  0  0  0  0
  -28.3300  -21.6840   19.4320 C   0  0  0  0  0  2  0  0  0  0  0  0
  -27.8490  -23.5070   19.9720 C   0  0  0  0  0  2  0  0  0  0  0  0
  -27.9020  -25.2400   19.5730 O   0  0  0  0  0  0  0  0  0  0  0  0
  -24.6850  -31.4610   23.0380 C   0  0  0  0  0  0  0  0  0  0  0  0
  -26.9610  -26.4770   19.7010 C   0  0  0  0  0  0  0  0  0  0  0  0
  -23.4320  -30.2450   21.3090 C   0  0  0  0  0  3  0  0  0  0  0  0
  -24.7960  -28.6260   19.7880 C   0  0  0  0  0  0  0  0  0  0  0  0
  -26.0180  -30.2630   21.1930 C   0  0  0  0  0  2  0  0  0  0  0  0
  -26.0110  -28.8770   20.4380 C   0  0  0  0  0  0  0  0  0  0  0  0
  -27.0800  -27.8380   20.3550 C   0  0  0  0  0  3  0  0  0  0  0  0
  -25.7180  -26.4400   19.0150 C   0  0  0  0  0  3  0  0  0  0  0  0
  -24.6910  -27.4320   19.0540 C   0  0  0  0  0  3  0  0  0  0  0  0
  -23.6390  -29.6340   19.8930 C   0  0  0  0  0  2  0  0  0  0  0  0
  -24.7380  -30.6840   21.9010 N   0  0  0  0  0  0  0  0  0  0  0  0
  -23.6070  -31.7780   23.5690 O   0  0  0  0  0  0  0  0  0  0  0  0
  -22.6670  -29.2370   22.2100 C   0  0  0  0  0  0  0  0  0  0  0  0
  -21.3240  -29.1930   22.1130 N   0  0  0  0  0  0  0  0  0  0  0  0
  -23.2930  -28.4940   22.9700 O   0  0  0  0  0  0  0  0  0  0  0  0
  -20.8710  -29.8400   21.4830 H   0  0  0  0  0  0  0  0  0  0  0  0
  -17.8630  -28.2340   22.6680 C   0  0  0  0  0  0  0  0  0  0  0  0
  -20.4480  -28.2530   22.8240 C   0  0  0  0  0  3  0  0  0  0  0  0
  -20.3940  -26.8880   22.0970 C   0  0  0  0  0  2  0  0  0  0  0  0
  -19.2250  -26.7750   21.1140 C   0  0  0  0  0  2  0  0  0  0  0  0
  -17.8900  -26.9610   21.8400 C   0  0  0  0  0  2  0  0  0  0  0  0
  -19.0640  -28.8480   23.1180 C   0  0  0  0  0  0  0  0  0  0  0  0
  -18.9810  -30.0430   23.8640 C   0  0  0  0  0  3  0  0  0  0  0  0
  -17.7330  -30.6230   24.1600 C   0  0  0  0  0  3  0  0  0  0  0  0
  -16.5480  -30.0040   23.7250 C   0  0  0  0  0  3  0  0  0  0  0  0
  -16.6150  -28.8100   22.9850 C   0  0  0  0  0  3  0  0  0  0  0  0
  -25.9770  -32.0020   23.7220 C   0  0  0  0  0  3  0  0  0  0  0  0
  -26.4620  -31.1010   24.9250 C   0  0  1  0  0  0  0  0  0  0  0  0
  -25.3660  -30.8330   25.9840 C   0  0  0  0  0  1  0  0  0  0  0  0
  -26.9690  -29.7320   24.4240 C   0  0  0  0  0  1  0  0  0  0  0  0
  -27.6590  -31.7780   25.6340 C   0  0  0  0  0  1  0  0  0  0  0  0
  -25.7050  -33.3720   24.2030 N   0  0  0  0  0  0  0  0  0  0  0  0
  -26.1370  -34.4980   23.6190 C   0  0  0  0  0  0  0  0  0  0  0  0
  -26.8650  -34.4900   22.6230 O   0  0  0  0  0  0  0  0  0  0  0  0
  -25.0670  -33.4560   24.9800 H   0  0  0  0  0  0  0  0  0  0  0  0
  -24.5580  -36.4510   23.4030 C   0  0  0  0  0  1  0  0  0  0  0  0
  -25.6990  -35.8440   24.2350 C   0  0  0  0  0  3  0  0  0  0  0  0
  -27.7940  -36.4690   25.3560 C   0  0  0  0  0  1  0  0  0  0  0  0
  -26.7990  -36.8280   24.3510 N   0  0  0  0  0  0  0  0  0  0  0  0
  -26.4340  -37.7500   24.5780 H   0  0  0  0  0  0  0  0  0  0  0  0
  2  1  2  0
  2 48  1  0
  3  1  1  0
  5  4  1  0
  5  7  1  0
  6  4  1  0
  6  2  1  0
  7 18  1  6
  7  8  1  0
  7  3  1  0
  8  6  1  0
  8  9  1  1
 10 18  1  0
 11 16  1  0
 12 13  1  0
 12 11  1  0
 14 13  1  0
 14 23  1  0
 14 15  1  0
 16 10  1  0
 16 15  1  0
 17 10  2  0
 18 19  1  0
 20 21  2  0
 21 40  1  0
 22 21  1  0
 22 25  1  0
 23 24  1  0
 23 20  1  0
 24 22  2  0
 25 26  1  0
 26 27  2  0
 28 31  1  0
 28 27  1  0
 29 28  2  0
 30 29  1  0
 30 25  2  0
 31 32  1  0
 32 37  2  0
 32 33  1  0
 33 34  2  0
 34 35  1  0
 35 39  1  0
 36 35  2  0
 37 36  1  0
 38 37  1  0
 40 41  1  0
 41 44  1  0
 41 43  1  0
 42 40  2  0
 45 46  1  0
 45 20  1  0
 47 45  1  0
 48 51  1  0
 50 51  1  0
 51 49  1  0
 52 53  1  0
 52  8  1  0
 54 56  1  0
 54 53  1  0
 55 66  2  0
 56 61  1  0
 57 65  1  0
 57 67  1  0
 58 64  1  0
 58 60  1  0
 59 65  1  0
 60 59  1  0
 61 60  2  0
 62 63  1  0
 62 56  2  0
 63 58  2  0
 64 57  1  0
 65 55  1  0
 67 69  2  0
 68 67  1  0
 70 68  1  0
 71 80  2  0
 71 76  1  0
 72 68  1  0
 72 76  1  0
 73 72  1  0
 74 75  1  0
 74 73  1  0
 75 71  1  0
 76 77  2  0
 77 78  1  0
 79 78  2  0
 80 79  1  0
 81 55  1  0
 81 86  1  0
 81 82  1  0
 82 85  1  1
 82 83  1  0
 84 82  1  0
 86 89  1  0
 87 86  1  0
 87 91  1  0
 88 87  2  0
 91 90  1  0
 91 93  1  0
 93 94  1  0
 93 92  1  0
M  ISO  4  10 100  18 100  53 101  54 101
M  END
>  <TORSDO>  (62) 
F 20

>  <SCORE>  (62) 
-13.557

>  <name>  (62) 
61

>  <ligand_id>  (62) 
61

>  <original_smiles>  (62) 
[H]C1=C(C([H])([H])C([H])(C([H])([H])[H])C([H])([H])[H])C2([H])C([H])([H])C([H])([H])C(N([H])C(=O)N3C([H])([H])C([H])([H])C([H])([H])C([H])(n4nc(-c5c([H])c([H])c(Oc6c([H])c([H])c(F)c([H])c6F)c([H])c5[H])c(C(=O)N([H])[H])c4N([H])[H])C3([H])[H])(C1([H])[H])[N+]2([H])C([H])([H])C([H])([H])Oc1c([H])c([H])c2c(c1[H])C([H])([H])N(C(=O)C([H])(N([H])C(=O)C([H])(N([H])C([H])([H])[H])C([H])([H])[H])C(C([H])([H])[H])(C([H])([H])[H])C([H])([H])[H])C([H])(C(=O)N([H])C1([H])c3c([H])c([H])c([H])c([H])c3C([H])([H])C([H])([H])C1([H])[H])C2([H])[H]

>  <smiles>  (62) 
[H]C1=C(C([H])([H])C([H])(C([H])([H])[H])C([H])([H])[H])C2([H])C([H])([H])C([H])([H])C(N([H])C(=O)N3C([H])([H])C([H])([H])C([H])([H])C([H])(n4nc(-c5c([H])c([H])c(Oc6c([H])c([H])c(F)c([H])c6F)c([H])c5[H])c(C(=O)N([H])[H])c4N([H])[H])C3([H])[H])(C1([H])[H])[N+]2([H])C([H])([H])C([H])([H])Oc1c([H])c([H])c2c(c1[H])C([H])([H])N(C(=O)C([H])(N([H])C(=O)C([H])(N([H])C([H])([H])[H])C([H])([H])[H])C(C([H])([H])[H])(C([H])([H])[H])C([H])([H])[H])C([H])(C(=O)N([H])C1([H])c3c([H])c([H])c([H])c([H])c3C([H])([H])C([H])([H])C1([H])[H])C2([H])[H]

$$$$
62:0:0
     RDKit          3D

 95 97  0  0  1  0  0  0  0  0999 V2000
  -19.4500  -24.6210   19.3650 C   0  0  0  0  0  3  0  0  0  0  0  0
  -20.4240  -23.1030   19.5500 C   0  0  0  0  0  3  0  0  0  0  0  0
  -21.5730  -23.5250   21.6930 C   0  0  0  0  0  2  0  0  0  0  0  0
  -19.6780  -26.1320   20.4170 C   0  0  0  0  0  2  0  0  0  0  0  0
  -20.8960  -25.1150   21.9950 C   0  0  0  0  0  2  0  0  0  0  0  0
  -21.8440  -22.4730   20.3780 C   0  0  0  0  0  2  0  0  0  0  0  0
  -19.3680  -28.1150   20.5360 C   0  0  0  0  0  2  0  0  0  0  0  0
  -21.5400  -25.8920   23.4320 C   0  0  0  0  0  2  0  0  0  0  0  0
  -20.3300  -29.1020   22.1260 C   0  0  0  0  0  2  0  0  0  0  0  0
  -21.8820  -27.6910   23.4800 C   0  0  0  0  0  1  0  0  0  0  0  0
  -18.7050  -28.7540   19.7150 O   0  0  0  0  0  0  0  0  0  0  0  0
  -23.4030  -20.7080   20.0300 C   0  0  0  0  0 15  0  0  0  0  0  0
  -25.5760  -19.4730   19.5220 C   0  0  0  0  0  1  0  0  0  0  0  0
  -28.6600  -16.7790   19.2890 C   0  0  0  0  0  0  0  0  0  0  0  0
  -30.3350  -14.3790   18.6060 C   0  0  0  0  0  2  0  0  0  0  0  0
  -29.8770  -13.1430   17.6990 C   0  0  0  0  0  2  0  0  0  0  0  0
  -28.7230  -12.3730   18.3450 C   0  0  0  0  0  2  0  0  0  0  0  0
  -27.9520  -13.4100   19.1570 C   0  0  0  0  0  3  0  0  0  0  0  0
  -28.7640  -14.1900   20.1810 C   0  0  0  0  0  2  0  0  0  0  0  0
  -29.1760  -15.2800   19.3340 N   0  0  0  0  0  0  0  0  0  0  0  0
  -29.8720  -17.0860   18.9030 O   0  0  0  0  0  0  0  0  0  0  0  0
  -27.0660  -17.7690   19.5260 N   0  0  0  0  0  2  0  0  0  0  0  0
  -26.4790  -16.9870   19.8150 H   0  0  0  0  0  0  0  0  0  0  0  0
  -25.9200  -13.9060   20.4200 C   0  0  0  0  0  0  0  0  0  0  0  0
  -24.9650  -13.1100   20.9460 C   0  0  0  0  0  0  0  0  0  0  0  0
  -25.3630  -11.7690   20.6470 C   0  0  0  0  0  0  0  0  0  0  0  0
  -26.7910  -13.0290   19.8200 N   0  0  0  0  0  0  0  0  0  0  0  0
  -26.5290  -11.7340   20.0300 N   0  0  0  0  0  0  0  0  0  0  0  0
  -24.6580  -10.5160   20.8210 C   0  0  0  0  0  0  0  0  0  0  0  0
  -25.1010   -9.5460   21.7430 C   0  0  0  0  0  3  0  0  0  0  0  0
  -24.3810   -8.3450   21.8950 C   0  0  0  0  0  3  0  0  0  0  0  0
  -23.2170   -8.1190   21.1240 C   0  0  0  0  0  0  0  0  0  0  0  0
  -22.8050   -9.0800   20.1850 C   0  0  0  0  0  3  0  0  0  0  0  0
  -23.5240  -10.2720   20.0290 C   0  0  0  0  0  3  0  0  0  0  0  0
  -22.4610   -6.9770   21.1930 O   0  0  0  0  0  0  0  0  0  0  0  0
  -22.1930   -6.3730   22.3930 C   0  0  0  0  0  0  0  0  0  0  0  0
  -21.5090   -7.0420   23.4300 C   0  0  0  0  0  3  0  0  0  0  0  0
  -21.1930   -6.3550   24.6190 C   0  0  0  0  0  3  0  0  0  0  0  0
  -21.5530   -5.0030   24.7680 C   0  0  0  0  0  0  0  0  0  0  0  0
  -22.2340   -4.3360   23.7330 C   0  0  0  0  0  3  0  0  0  0  0  0
  -22.5500   -5.0200   22.5480 C   0  0  0  0  0  0  0  0  0  0  0  0
  -23.1880   -4.3700   21.5440 F   0  0  0  0  0  0  0  0  0  0  0  0
  -21.2430   -4.3390   25.9050 F   0  0  0  0  0  0  0  0  0  0  0  0
  -23.6980  -13.5890   21.5650 C   0  0  0  0  0  0  0  0  0  0  0  0
  -23.1580  -12.8290   22.5060 N   0  0  0  0  0  0  0  0  0  0  0  0
  -23.2130  -14.6760   21.2470 O   0  0  0  0  0  0  0  0  0  0  0  0
  -23.5770  -11.9520   22.7750 H   0  0  0  0  0  0  0  0  0  0  0  0
  -22.3100  -13.1280   22.9660 H   0  0  0  0  0  0  0  0  0  0  0  0
  -26.0960  -15.2890   20.3640 N   0  0  0  0  0  0  0  0  0  0  0  0
  -25.2380  -15.7760   20.6060 H   0  0  0  0  0  0  0  0  0  0  0  0
  -26.4400  -15.6080   19.4670 H   0  0  0  0  0  0  0  0  0  0  0  0
  -24.6300  -20.1020   16.9960 C   0  0  0  0  0  1  0  0  0  0  0  0
  -25.7440  -19.9020   18.0520 C   0  0  0  0  0  2  0  0  0  0  0  0
  -23.9300  -27.2760   22.9250 C   0  0  0  0  0  1  0  0  0  0  0  0
  -25.1700  -26.8670   21.6270 O   0  0  0  0  0  0  0  0  0  0  0  0
  -24.9330  -31.6910   23.7190 C   0  0  0  0  0  0  0  0  0  0  0  0
  -26.2790  -27.4160   20.8570 C   0  0  0  0  0  3  0  0  0  0  0  0
  -24.1100  -31.1530   21.3830 C   0  0  0  0  0  3  0  0  0  0  0  0
  -25.5610  -29.7260   19.9060 C   0  0  0  0  0  3  0  0  0  0  0  0
  -26.5180  -30.8730   21.9490 C   0  0  0  0  0  2  0  0  0  0  0  0
  -26.4470  -29.6950   20.9990 C   0  0  0  0  0  3  0  0  0  0  0  0
  -27.0230  -28.4840   21.3640 C   0  0  0  0  0  2  0  0  0  0  0  0
  -26.0550  -27.4150   19.4600 C   0  0  0  0  0  2  0  0  0  0  0  0
  -25.4730  -28.6200   19.0290 C   0  0  0  0  0  2  0  0  0  0  0  0
  -24.6020  -30.8930   19.9240 C   0  0  0  0  0  2  0  0  0  0  0  0
  -25.1970  -31.3130   22.4120 N   0  0  0  0  0  0  0  0  0  0  0  0
  -23.7870  -32.0220   24.0910 O   0  0  0  0  0  0  0  0  0  0  0  0
  -23.4360  -29.9130   21.7800 C   0  0  0  0  0  0  0  0  0  0  0  0
  -22.3420  -29.5040   21.1030 N   0  0  0  0  0  0  0  0  0  0  0  0
  -23.8710  -29.4180   22.7840 O   0  0  0  0  0  0  0  0  0  0  0  0
  -22.2210  -29.9990   20.2330 H   0  0  0  0  0  0  0  0  0  0  0  0
  -17.8280  -28.2770   22.5490 C   0  0  0  0  0  3  0  0  0  0  0  0
  -21.2110  -28.4990   21.3880 C   0  0  0  0  0  3  0  0  0  0  0  0
  -21.4120  -27.9200   19.9970 C   0  0  0  0  0  2  0  0  0  0  0  0
  -20.5640  -26.6750   19.7100 C   0  0  0  0  0  2  0  0  0  0  0  0
  -17.7940  -26.6830   21.5180 C   0  0  0  0  0  1  0  0  0  0  0  0
  -19.2450  -28.6870   22.9230 C   0  0  0  0  0  3  0  0  0  0  0  0
  -19.0150  -29.6930   24.0990 C   0  0  0  0  0  2  0  0  0  0  0  0
  -18.0990  -30.8240   24.1440 C   0  0  0  0  0  3  0  0  0  0  0  0
  -16.9620  -30.6950   23.3490 C   0  0  0  0  0  3  0  0  0  0  0  0
  -16.8210  -29.4180   22.6610 C   0  0  0  0  0  2  0  0  0  0  0  0
  -26.0330  -31.6760   24.8130 C   0  0  0  0  0  3  0  0  0  0  0  0
  -25.8310  -30.6870   26.0300 C   0  0  1  0  0  0  0  0  0  0  0  0
  -24.4630  -30.8020   26.7420 C   0  0  0  0  0  1  0  0  0  0  0  0
  -26.0240  -29.2250   25.5790 C   0  0  0  0  0  1  0  0  0  0  0  0
  -26.9390  -30.9610   27.0750 C   0  0  0  0  0  1  0  0  0  0  0  0
  -26.0860  -33.0540   25.2830 N   0  0  0  0  0  0  0  0  0  0  0  0
  -26.8810  -33.9660   24.7230 C   0  0  0  0  0  0  0  0  0  0  0  0
  -27.7230  -33.6790   23.8670 O   0  0  0  0  0  0  0  0  0  0  0  0
  -25.3850  -33.3510   25.9450 H   0  0  0  0  0  0  0  0  0  0  0  0
  -26.0460  -36.2490   24.1060 C   0  0  0  0  0  1  0  0  0  0  0  0
  -26.7270  -35.4140   25.2010 C   0  0  0  0  0  3  0  0  0  0  0  0
  -28.6000  -35.4320   26.7830 C   0  0  0  0  0  1  0  0  0  0  0  0
  -28.0140  -36.0270   25.5820 N   0  0  0  0  0  0  0  0  0  0  0  0
  -27.9030  -37.0240   25.7470 H   0  0  0  0  0  0  0  0  0  0  0  0
  1  2  2  0
  1  4  1  0
  2  6  1  0
  3  5  1  0
  5  8  1  0
  6  3  1  0
  8 10  1  0
 11  7  2  0
 14 20  1  0
 14 22  1  0
 15 20  1  0
 16 17  1  0
 16 15  1  0
 18 17  1  0
 18 27  1  0
 18 19  1  0
 20 19  1  0
 21 14  2  0
 22 23  1  0
 24 25  2  0
 25 44  1  0
 26 29  1  0
 26 25  1  0
 27 28  1  0
 27 24  1  0
 28 26  2  0
 29 30  1  0
 30 31  2  0
 32 35  1  0
 32 31  1  0
 33 32  2  0
 34 33  1  0
 34 29  2  0
 35 36  1  0
 36 41  2  0
 36 37  1  0
 37 38  2  0
 38 39  1  0
 39 43  1  0
 40 39  2  0
 41 40  1  0
 42 41  1  0
 44 45  1  0
 45 47  1  0
 45 48  1  0
 46 44  2  0
 49 24  1  0
 49 50  1  0
 51 49  1  0
 52 53  1  0
 53 13  1  0
 55 54  1  0
 56 67  2  0
 57 62  1  0
 57 55  1  0
 58 68  1  0
 58 66  1  0
 59 64  1  0
 59 65  1  0
 59 61  1  0
 60 66  1  0
 61 62  1  0
 61 60  1  0
 63 57  1  0
 64 63  1  0
 65 58  1  0
 66 56  1  0
 68 70  2  0
 69 73  1  0
 69 68  1  0
 71 69  1  0
 72 76  1  0
 72 81  1  0
 72 77  1  0
 73 74  1  0
 73  9  1  0
 75 74  1  0
 75  4  1  0
 77  9  1  0
 77 78  1  0
 78 79  1  0
 80 79  2  0
 81 80  1  0
 82 56  1  0
 82 87  1  0
 82 83  1  0
 83 84  1  1
 83 86  1  0
 85 83  1  0
 87 90  1  0
 88 92  1  0
 88 87  1  0
 89 88  2  0
 92 91  1  0
 92 94  1  0
 94 95  1  0
 94 93  1  0
M  ISO  4  14 100  22 100  54 101  55 101
M  END
>  <TORSDO>  (63) 
F 20

>  <SCORE>  (63) 
-1.151

>  <name>  (63) 
62

>  <ligand_id>  (63) 
62

>  <original_smiles>  (63) 
[H]c1c([H])c([H])c2c(c1[H])C([H])([H])C([H])([H])C([H])([H])C2([H])N([H])C(=O)C1([H])N(C(=O)C([H])(N([H])C(=O)C([H])(N([H])C([H])([H])[H])C([H])([H])[H])C(C([H])([H])[H])(C([H])([H])[H])C([H])([H])[H])C([H])([H])c2c([H])c(OC([H])([H])C3([H])C([H])([H])C(=O)c4c([H])c([H])c(C([H])([H])C([H])(N([H])C(=O)N5C([H])([H])C([H])([H])C([H])([H])C([H])(n6nc(-c7c([H])c([H])c(Oc8c([H])c([H])c(F)c([H])c8F)c([H])c7[H])c(C(=O)N([H])[H])c6N([H])[H])C5([H])[H])C([H])([H])C([H])([H])[H])c([H])c4C3([H])[H])c([H])c([H])c2C1([H])[H]

>  <smiles>  (63) 
[H]c1c([H])c([H])c2c(c1[H])C([H])([H])C([H])([H])C([H])([H])C2([H])N([H])C(=O)C1([H])N(C(=O)C([H])(N([H])C(=O)C([H])(N([H])C([H])([H])[H])C([H])([H])[H])C(C([H])([H])[H])(C([H])([H])[H])C([H])([H])[H])C([H])([H])c2c([H])c(OC([H])([H])C3([H])C([H])([H])C(=O)c4c([H])c([H])c(C([H])([H])C([H])(N([H])C(=O)N5C([H])([H])C([H])([H])C([H])([H])C([H])(n6nc(-c7c([H])c([H])c(Oc8c([H])c([H])c(F)c([H])c8F)c([H])c7[H])c(C(=O)N([H])[H])c6N([H])[H])C5([H])[H])C([H])([H])C([H])([H])[H])c([H])c4C3([H])[H])c([H])c([H])c2C1([H])[H]

$$$$
63:0:0
     RDKit          3D

 92101  0  0  1  0  0  0  0  0999 V2000
  -28.9770  -24.6110   21.7920 C   0  0  0  0  0  2  0  0  0  0  0  0
  -29.2330  -23.0740   21.6990 C   0  0  0  0  0  2  0  0  0  0  0  0
  -28.6470  -23.8750   19.5630 C   0  0  0  0  0  3  0  0  0  0  0  0
  -28.1900  -25.0380   20.5400 C   0  0  0  0  0  3  0  0  0  0  0  0
  -28.7030  -22.6050   20.3980 N   0  0  1  0  0  4  0  0  0  0  0  0
  -27.7390  -22.3690   20.5910 H   0  0  0  0  0  0  0  0  0  0  0  0
  -27.8730  -24.7190   17.1930 C   0  0  0  0  0  2  0  0  0  0  0  0
  -28.3190  -23.2900   17.0030 C   0  0  0  0  0  2  0  0  0  0  0  0
  -27.7570  -23.7350   18.3360 C   0  0  0  0  0  3  0  0  0  0  0  0
  -28.3860  -26.4910   20.2290 O   0  0  0  0  0  0  0  0  0  0  0  0
  -24.6310  -31.9150   23.2400 C   0  0  0  0  0  0  0  0  0  0  0  0
  -27.2670  -27.3470   20.2050 C   0  0  0  0  0  0  0  0  0  0  0  0
  -23.4390  -30.5090   21.5990 C   0  0  0  0  0  3  0  0  0  0  0  0
  -24.9000  -28.9580   20.1810 C   0  0  0  0  0  0  0  0  0  0  0  0
  -25.9770  -30.8340   21.4230 C   0  0  0  0  0  2  0  0  0  0  0  0
  -26.0670  -29.4530   20.7800 C   0  0  0  0  0  0  0  0  0  0  0  0
  -27.2560  -28.6600   20.7770 C   0  0  0  0  0  3  0  0  0  0  0  0
  -26.0790  -26.9090   19.5830 C   0  0  0  0  0  3  0  0  0  0  0  0
  -24.9090  -27.6920   19.5750 C   0  0  0  0  0  3  0  0  0  0  0  0
  -23.6590  -29.8290   20.2220 C   0  0  0  0  0  2  0  0  0  0  0  0
  -24.7010  -31.1030   22.1440 N   0  0  0  0  0  0  0  0  0  0  0  0
  -23.5440  -32.1910   23.7690 O   0  0  0  0  0  0  0  0  0  0  0  0
  -22.7740  -29.4940   22.5600 C   0  0  0  0  0  0  0  0  0  0  0  0
  -21.4470  -29.3170   22.4320 N   0  0  0  0  0  0  0  0  0  0  0  0
  -23.4520  -28.8690   23.3790 O   0  0  0  0  0  0  0  0  0  0  0  0
  -20.9580  -29.8740   21.7460 H   0  0  0  0  0  0  0  0  0  0  0  0
  -18.0690  -28.1270   22.9390 C   0  0  0  0  0  0  0  0  0  0  0  0
  -20.6290  -28.3790   23.2030 C   0  0  0  0  0  3  0  0  0  0  0  0
  -20.7260  -26.9490   22.6230 C   0  0  0  0  0  2  0  0  0  0  0  0
  -19.6210  -26.6320   21.6110 C   0  0  0  0  0  2  0  0  0  0  0  0
  -18.2400  -26.7790   22.2590 C   0  0  0  0  0  2  0  0  0  0  0  0
  -19.1910  -28.8850   23.3680 C   0  0  0  0  0  0  0  0  0  0  0  0
  -18.9770  -30.1460   23.9640 C   0  0  0  0  0  3  0  0  0  0  0  0
  -17.6750  -30.6510   24.1350 C   0  0  0  0  0  3  0  0  0  0  0  0
  -16.5670  -29.8910   23.7220 C   0  0  0  0  0  3  0  0  0  0  0  0
  -16.7650  -28.6300   23.1320 C   0  0  0  0  0  3  0  0  0  0  0  0
  -25.9080  -32.5550   23.8650 C   0  0  0  0  0  3  0  0  0  0  0  0
  -25.5940  -33.9570   24.1790 N   0  0  0  0  0  0  0  0  0  0  0  0
  -25.9330  -35.0030   23.4150 C   0  0  0  0  0  0  0  0  0  0  0  0
  -26.6120  -34.8900   22.3890 O   0  0  0  0  0  0  0  0  0  0  0  0
  -24.9930  -34.1190   24.9730 H   0  0  0  0  0  0  0  0  0  0  0  0
  -24.2120  -36.7970   23.0320 C   0  0  0  0  0  1  0  0  0  0  0  0
  -25.4450  -36.3960   23.8570 C   0  0  0  0  0  3  0  0  0  0  0  0
  -27.5730  -37.2870   24.6990 C   0  0  0  0  0  1  0  0  0  0  0  0
  -26.4800  -37.4470   23.7430 N   0  0  0  0  0  0  0  0  0  0  0  0
  -26.0740  -38.3690   23.8800 H   0  0  0  0  0  0  0  0  0  0  0  0
  -26.4130  -31.7990   25.1550 C   0  0  1  0  0  0  0  0  0  0  0  0
  -25.3100  -31.5740   26.2160 C   0  0  0  0  0  1  0  0  0  0  0  0
  -27.0000  -30.4170   24.7860 C   0  0  0  0  0  1  0  0  0  0  0  0
  -27.5570  -32.6010   25.8190 C   0  0  0  0  0  1  0  0  0  0  0  0
  -29.3070  -21.3170   19.8060 C   0  0  0  0  0  2  0  0  0  0  0  0
  -29.4660  -20.0030   20.7330 C   0  0  0  0  0  2  0  0  0  0  0  0
  -29.5960  -18.5320   20.0730 C   0  0  0  0  0  2  0  0  0  0  0  0
  -30.2730  -17.3320   20.9130 C   0  0  0  0  0  2  0  0  0  0  0  0
  -30.7100  -14.7780   20.3760 C   0  0  0  0  0  0  0  0  0  0  0  0
  -30.5190  -12.5250   19.3190 C   0  0  0  0  0  2  0  0  0  0  0  0
  -29.5820  -12.6150   18.0940 C   0  0  0  0  0  2  0  0  0  0  0  0
  -28.1090  -12.4480   18.5150 C   0  0  0  0  0  2  0  0  0  0  0  0
  -27.7320  -13.3260   19.7380 C   0  0  0  0  0  3  0  0  0  0  0  0
  -28.7830  -13.2050   20.8620 C   0  0  0  0  0  2  0  0  0  0  0  0
  -30.0850  -13.5570   20.2810 N   0  0  0  0  0  0  0  0  0  0  0  0
  -31.9010  -14.8990   20.0780 O   0  0  0  0  0  0  0  0  0  0  0  0
  -29.9170  -15.8800   20.6240 N   0  0  0  0  0  0  0  0  0  0  0  0
  -28.9440  -15.6500   20.7630 H   0  0  0  0  0  0  0  0  0  0  0  0
  -25.3320  -13.9220   20.4300 C   0  0  0  0  0  0  0  0  0  0  0  0
  -24.2650  -13.1480   20.7980 C   0  0  0  0  0  0  0  0  0  0  0  0
  -24.7340  -11.7990   20.7900 C   0  0  0  0  0  0  0  0  0  0  0  0
  -26.3820  -13.0430   20.2170 N   0  0  0  0  0  0  0  0  0  0  0  0
  -26.0280  -11.7620   20.4970 N   0  0  0  0  0  0  0  0  0  0  0  0
  -24.0100  -10.5360   20.9860 C   0  0  0  0  0  0  0  0  0  0  0  0
  -24.4370   -9.5800   21.9340 C   0  0  0  0  0  3  0  0  0  0  0  0
  -23.7120   -8.3810   22.1180 C   0  0  0  0  0  3  0  0  0  0  0  0
  -22.5480   -8.1320   21.3530 C   0  0  0  0  0  0  0  0  0  0  0  0
  -22.1410   -9.0770   20.3960 C   0  0  0  0  0  3  0  0  0  0  0  0
  -22.8660  -10.2670   20.2100 C   0  0  0  0  0  3  0  0  0  0  0  0
  -21.7970   -6.9860   21.4460 O   0  0  0  0  0  0  0  0  0  0  0  0
  -21.7430   -6.2520   22.6040 C   0  0  0  0  0  0  0  0  0  0  0  0
  -21.3060   -6.8150   23.8230 C   0  0  0  0  0  3  0  0  0  0  0  0
  -21.2010   -6.0070   24.9740 C   0  0  0  0  0  3  0  0  0  0  0  0
  -21.5210   -4.6380   24.9050 C   0  0  0  0  0  0  0  0  0  0  0  0
  -21.9510   -4.0750   23.6910 C   0  0  0  0  0  3  0  0  0  0  0  0
  -22.0580   -4.8800   22.5430 C   0  0  0  0  0  0  0  0  0  0  0  0
  -22.4530   -4.3270   21.3700 F   0  0  0  0  0  0  0  0  0  0  0  0
  -21.4120   -3.8600   26.0080 F   0  0  0  0  0  0  0  0  0  0  0  0
  -22.8630  -13.6230   21.0450 C   0  0  0  0  0  0  0  0  0  0  0  0
  -22.1260  -12.9340   21.9110 N   0  0  0  0  0  0  0  0  0  0  0  0
  -22.4270  -14.6390   20.5060 O   0  0  0  0  0  0  0  0  0  0  0  0
  -22.4910  -12.1120   22.3680 H   0  0  0  0  0  0  0  0  0  0  0  0
  -21.1840  -13.2340   22.1190 H   0  0  0  0  0  0  0  0  0  0  0  0
  -25.4910  -15.2900   20.2350 N   0  0  0  0  0  0  0  0  0  0  0  0
  -24.7140  -15.9360   20.3270 H   0  0  0  0  0  0  0  0  0  0  0  0
  -26.3280  -15.7300   19.8740 H   0  0  0  0  0  0  0  0  0  0  0  0
  2  1  1  0
  3  9  1  0
  3  5  1  0
  3  4  1  0
  4 10  1  0
  4  1  1  0
  5  6  1  1
  5  2  1  0
  7  9  1  0
  8  7  1  0
  8  9  1  0
 11 22  2  0
 12 10  1  0
 12 17  1  0
 13 21  1  0
 13 23  1  0
 14 20  1  0
 14 16  1  0
 15 21  1  0
 16 15  1  0
 17 16  2  0
 18 12  2  0
 19 18  1  0
 19 14  2  0
 20 13  1  0
 21 11  1  0
 23 25  2  0
 24 23  1  0
 26 24  1  0
 27 36  2  0
 27 32  1  0
 28 24  1  0
 28 32  1  0
 29 28  1  0
 30 31  1  0
 30 29  1  0
 31 27  1  0
 32 33  2  0
 33 34  1  0
 35 34  2  0
 36 35  1  0
 37 11  1  0
 37 38  1  0
 37 47  1  0
 38 41  1  0
 39 43  1  0
 39 38  1  0
 40 39  2  0
 43 42  1  0
 45 43  1  0
 45 46  1  0
 45 44  1  0
 47 50  1  1
 47 48  1  0
 49 47  1  0
 51  5  1  0
 51 52  1  0
 53 52  1  0
 53 54  1  0
 55 63  1  0
 56 61  1  0
 57 58  1  0
 57 56  1  0
 59 58  1  0
 59 68  1  0
 59 60  1  0
 61 55  1  0
 61 60  1  0
 62 55  2  0
 63 64  1  0
 63 54  1  0
 65 66  2  0
 66 85  1  0
 67 66  1  0
 67 70  1  0
 68 65  1  0
 68 69  1  0
 69 67  2  0
 70 71  1  0
 71 72  2  0
 73 76  1  0
 73 72  1  0
 74 73  2  0
 75 74  1  0
 75 70  2  0
 76 77  1  0
 77 78  1  0
 78 79  2  0
 80 79  1  0
 80 84  1  0
 81 80  2  0
 82 77  2  0
 82 81  1  0
 83 82  1  0
 85 86  1  0
 86 89  1  0
 86 88  1  0
 87 85  2  0
 90 91  1  0
 90 65  1  0
 92 90  1  0
M  ISO  4   4 101  10 101  55 100  63 100
M  END
>  <TORSDO>  (64) 
F 21

>  <SCORE>  (64) 
-13.252

>  <name>  (64) 
63

>  <ligand_id>  (64) 
63

>  <original_smiles>  (64) 
[H]c1c([H])c([H])c2c(c1[H])C([H])([H])C([H])([H])C([H])([H])C2([H])N([H])C(=O)C1([H])N(C(=O)C([H])(N([H])C(=O)C([H])(N([H])C([H])([H])[H])C([H])([H])[H])C(C([H])([H])[H])(C([H])([H])[H])C([H])([H])[H])C([H])([H])c2c([H])c(OC3([H])C([H])([H])C([H])([H])[N+]([H])(C([H])([H])C([H])([H])C([H])([H])C([H])([H])N([H])C(=O)N4C([H])([H])C([H])([H])C([H])([H])C([H])(n5nc(-c6c([H])c([H])c(Oc7c([H])c([H])c(F)c([H])c7F)c([H])c6[H])c(C(=O)N([H])[H])c5N([H])[H])C4([H])[H])C3([H])C3([H])C([H])([H])C3([H])[H])c([H])c([H])c2C1([H])[H]

>  <smiles>  (64) 
[H]c1c([H])c([H])c2c(c1[H])C([H])([H])C([H])([H])C([H])([H])C2([H])N([H])C(=O)C1([H])N(C(=O)C([H])(N([H])C(=O)C([H])(N([H])C([H])([H])[H])C([H])([H])[H])C(C([H])([H])[H])(C([H])([H])[H])C([H])([H])[H])C([H])([H])c2c([H])c(OC3([H])C([H])([H])C([H])([H])[N+]([H])(C([H])([H])C([H])([H])C([H])([H])C([H])([H])N([H])C(=O)N4C([H])([H])C([H])([H])C([H])([H])C([H])(n5nc(-c6c([H])c([H])c(Oc7c([H])c([H])c(F)c([H])c7F)c([H])c6[H])c(C(=O)N([H])[H])c5N([H])[H])C4([H])[H])C3([H])C3([H])C([H])([H])C3([H])[H])c([H])c([H])c2C1([H])[H]

$$$$
64:0:0
     RDKit          3D

 91100  0  0  1  0  0  0  0  0999 V2000
  -29.5250  -18.9370   20.7540 C   0  0  0  0  0  3  0  0  0  0  0  0
  -29.5210  -17.6570   18.6320 C   0  0  0  0  0  3  0  0  0  0  0  0
  -29.2520  -20.1890   20.0050 C   0  0  0  0  0  0  0  0  0  0  0  0
  -29.1190  -20.0590   18.5830 C   0  0  0  0  0  0  0  0  0  0  0  0
  -29.6520  -17.6070   20.0590 C   0  0  0  0  0  0  0  0  0  0  0  0
  -29.2610  -18.8480   17.8820 C   0  0  0  0  0  0  0  0  0  0  0  0
  -29.0620  -21.5540   18.3140 C   0  0  0  0  0  2  0  0  0  0  0  0
  -29.3370  -21.8460   19.8700 C   0  0  0  0  0  3  0  0  0  0  0  0
  -30.4960  -15.0090   20.3220 C   0  0  0  0  0  0  0  0  0  0  0  0
  -30.3780  -12.6410   19.4200 C   0  0  0  0  0  2  0  0  0  0  0  0
  -29.4690  -12.6220   18.1670 C   0  0  0  0  0  2  0  0  0  0  0  0
  -27.9970  -12.4180   18.5720 C   0  0  0  0  0  2  0  0  0  0  0  0
  -27.5790  -13.3290   19.7550 C   0  0  0  0  0  3  0  0  0  0  0  0
  -28.6200  -13.3300   20.8970 C   0  0  0  0  0  2  0  0  0  0  0  0
  -29.9080  -13.7400   20.3230 N   0  0  0  0  0  0  0  0  0  0  0  0
  -31.6680  -15.0700   19.9330 O   0  0  0  0  0  0  0  0  0  0  0  0
  -29.7850  -16.2000   20.6780 N   0  0  0  0  0  0  0  0  0  0  0  0
  -29.0660  -16.0130   21.3620 H   0  0  0  0  0  0  0  0  0  0  0  0
  -25.1910  -13.9020   20.4690 C   0  0  0  0  0  0  0  0  0  0  0  0
  -24.1230  -13.1280   20.8290 C   0  0  0  0  0  0  0  0  0  0  0  0
  -24.5900  -11.7760   20.8140 C   0  0  0  0  0  0  0  0  0  0  0  0
  -26.2350  -13.0230   20.2400 N   0  0  0  0  0  0  0  0  0  0  0  0
  -25.8850  -11.7400   20.5160 N   0  0  0  0  0  0  0  0  0  0  0  0
  -23.8620  -10.5150   21.0120 C   0  0  0  0  0  0  0  0  0  0  0  0
  -24.2900   -9.5520   21.9530 C   0  0  0  0  0  3  0  0  0  0  0  0
  -23.5600   -8.3580   22.1380 C   0  0  0  0  0  3  0  0  0  0  0  0
  -22.3910   -8.1170   21.3790 C   0  0  0  0  0  0  0  0  0  0  0  0
  -21.9800   -9.0660   20.4270 C   0  0  0  0  0  3  0  0  0  0  0  0
  -22.7090  -10.2540   20.2420 C   0  0  0  0  0  3  0  0  0  0  0  0
  -21.6340   -6.9740   21.4690 O   0  0  0  0  0  0  0  0  0  0  0  0
  -21.5820   -6.2340   22.6210 C   0  0  0  0  0  0  0  0  0  0  0  0
  -21.1590   -6.7930   23.8470 C   0  0  0  0  0  3  0  0  0  0  0  0
  -21.0580   -5.9810   24.9940 C   0  0  0  0  0  3  0  0  0  0  0  0
  -21.3680   -4.6080   24.9160 C   0  0  0  0  0  0  0  0  0  0  0  0
  -21.7800   -4.0490   23.6930 C   0  0  0  0  0  3  0  0  0  0  0  0
  -21.8860   -4.8590   22.5500 C   0  0  0  0  0  0  0  0  0  0  0  0
  -22.2670   -4.3090   21.3710 F   0  0  0  0  0  0  0  0  0  0  0  0
  -21.2600   -3.8240   26.0130 F   0  0  0  0  0  0  0  0  0  0  0  0
  -22.7200  -13.6040   21.0760 C   0  0  0  0  0  0  0  0  0  0  0  0
  -21.9790  -12.9190   21.9390 N   0  0  0  0  0  0  0  0  0  0  0  0
  -22.2930  -14.6240   20.5390 O   0  0  0  0  0  0  0  0  0  0  0  0
  -22.3370  -12.0890   22.3890 H   0  0  0  0  0  0  0  0  0  0  0  0
  -21.0420  -13.2260   22.1530 H   0  0  0  0  0  0  0  0  0  0  0  0
  -25.3560  -15.2750   20.3050 N   0  0  0  0  0  0  0  0  0  0  0  0
  -24.6130  -15.9380   20.4940 H   0  0  0  0  0  0  0  0  0  0  0  0
  -26.2270  -15.7240   20.0390 H   0  0  0  0  0  0  0  0  0  0  0  0
  -29.1950  -18.8260   16.5170 O   0  0  0  0  0  0  0  0  0  0  0  0
  -29.4020  -17.9770   16.1350 H   0  0  0  0  0  0  0  0  0  0  0  0
  -28.5750  -23.1760   20.6010 C   0  0  0  0  0  2  0  0  0  0  0  0
  -28.3390  -24.6800   19.8280 C   0  0  0  0  0  2  0  0  0  0  0  0
  -28.2820  -26.1570   20.3770 O   0  0  0  0  0  0  0  0  0  0  0  0
  -24.6150  -31.8800   23.2490 C   0  0  0  0  0  0  0  0  0  0  0  0
  -27.2190  -27.1360   20.2470 C   0  0  0  0  0  0  0  0  0  0  0  0
  -23.4280  -30.4760   21.6020 C   0  0  0  0  0  3  0  0  0  0  0  0
  -24.8910  -28.9030   20.1880 C   0  0  0  0  0  0  0  0  0  0  0  0
  -25.9810  -30.7430   21.4580 C   0  0  0  0  0  2  0  0  0  0  0  0
  -26.0620  -29.3430   20.8130 C   0  0  0  0  0  0  0  0  0  0  0  0
  -27.2210  -28.4750   20.8250 C   0  0  0  0  0  3  0  0  0  0  0  0
  -26.0160  -26.8040   19.5800 C   0  0  0  0  0  3  0  0  0  0  0  0
  -24.8870  -27.6500   19.5520 C   0  0  0  0  0  3  0  0  0  0  0  0
  -23.6620  -29.7990   20.2240 C   0  0  0  0  0  2  0  0  0  0  0  0
  -24.6930  -31.0560   22.1580 N   0  0  0  0  0  0  0  0  0  0  0  0
  -23.5290  -32.1680   23.7710 O   0  0  0  0  0  0  0  0  0  0  0  0
  -22.7420  -29.4750   22.5660 C   0  0  0  0  0  0  0  0  0  0  0  0
  -21.4130  -29.3120   22.4450 N   0  0  0  0  0  0  0  0  0  0  0  0
  -23.4100  -28.8420   23.3890 O   0  0  0  0  0  0  0  0  0  0  0  0
  -20.9290  -29.8810   21.7640 H   0  0  0  0  0  0  0  0  0  0  0  0
  -18.0280  -28.1210   22.9480 C   0  0  0  0  0  0  0  0  0  0  0  0
  -20.5870  -28.3780   23.2150 C   0  0  0  0  0  3  0  0  0  0  0  0
  -20.6820  -26.9420   22.6450 C   0  0  0  0  0  2  0  0  0  0  0  0
  -19.5810  -26.6200   21.6290 C   0  0  0  0  0  2  0  0  0  0  0  0
  -18.2010  -26.7710   22.2730 C   0  0  0  0  0  2  0  0  0  0  0  0
  -19.1490  -28.8810   23.3780 C   0  0  0  0  0  0  0  0  0  0  0  0
  -18.9290  -30.1420   23.9730 C   0  0  0  0  0  3  0  0  0  0  0  0
  -17.6240  -30.6440   24.1400 C   0  0  0  0  0  3  0  0  0  0  0  0
  -16.5180  -29.8800   23.7250 C   0  0  0  0  0  3  0  0  0  0  0  0
  -16.7220  -28.6200   23.1320 C   0  0  0  0  0  3  0  0  0  0  0  0
  -25.8910  -32.5200   23.8810 C   0  0  0  0  0  3  0  0  0  0  0  0
  -26.3910  -31.7640   25.1720 C   0  0  1  0  0  0  0  0  0  0  0  0
  -25.2870  -31.5500   26.2320 C   0  0  0  0  0  1  0  0  0  0  0  0
  -26.9680  -30.3770   24.8080 C   0  0  0  0  0  1  0  0  0  0  0  0
  -27.5370  -32.5620   25.8380 C   0  0  0  0  0  1  0  0  0  0  0  0
  -25.5810  -33.9230   24.2020 N   0  0  0  0  0  0  0  0  0  0  0  0
  -25.9090  -34.9740   23.4380 C   0  0  0  0  0  0  0  0  0  0  0  0
  -26.5760  -34.8670   22.4080 O   0  0  0  0  0  0  0  0  0  0  0  0
  -24.9910  -34.0820   25.0030 H   0  0  0  0  0  0  0  0  0  0  0  0
  -24.1820  -36.7730   23.0850 C   0  0  0  0  0  1  0  0  0  0  0  0
  -25.4240  -36.3660   23.8920 C   0  0  0  0  0  3  0  0  0  0  0  0
  -27.5610  -37.2580   24.7120 C   0  0  0  0  0  1  0  0  0  0  0  0
  -26.4570  -37.4170   23.7700 N   0  0  0  0  0  0  0  0  0  0  0  0
  -26.0500  -38.3370   23.9190 H   0  0  0  0  0  0  0  0  0  0  0  0
  2  5  2  0
  3  1  2  0
  4  3  1  0
  5 17  1  0
  5  1  1  0
  6  4  2  0
  6  2  1  0
  7  4  1  0
  7  8  1  0
  8  3  1  0
  8 49  1  0
  9 15  1  0
  9 17  1  0
 10 15  1  0
 11 12  1  0
 11 10  1  0
 13 12  1  0
 13 22  1  0
 13 14  1  0
 15 14  1  0
 16  9  2  0
 17 18  1  0
 19 20  2  0
 20 39  1  0
 21 20  1  0
 21 24  1  0
 22 19  1  0
 22 23  1  0
 23 21  2  0
 24 25  1  0
 25 26  2  0
 27 30  1  0
 27 26  1  0
 28 27  2  0
 29 28  1  0
 29 24  2  0
 30 31  1  0
 31 32  1  0
 32 33  2  0
 34 33  1  0
 34 38  1  0
 35 34  2  0
 36 31  2  0
 36 35  1  0
 37 36  1  0
 39 40  1  0
 40 43  1  0
 40 42  1  0
 41 39  2  0
 44 19  1  0
 44 45  1  0
 46 44  1  0
 47  6  1  0
 48 47  1  0
 50 51  1  0
 50 49  1  0
 52 63  2  0
 53 51  1  0
 53 58  1  0
 54 62  1  0
 54 64  1  0
 55 61  1  0
 55 57  1  0
 56 62  1  0
 57 58  2  0
 57 56  1  0
 59 53  2  0
 60 59  1  0
 60 55  2  0
 61 54  1  0
 62 52  1  0
 64 66  2  0
 65 64  1  0
 67 65  1  0
 68 77  2  0
 68 73  1  0
 69 65  1  0
 69 73  1  0
 70 69  1  0
 71 72  1  0
 71 70  1  0
 72 68  1  0
 73 74  2  0
 74 75  1  0
 76 75  2  0
 77 76  1  0
 78 52  1  0
 78 83  1  0
 78 79  1  0
 79 82  1  1
 79 80  1  0
 81 79  1  0
 83 86  1  0
 84 88  1  0
 84 83  1  0
 85 84  2  0
 88 87  1  0
 90 88  1  0
 90 91  1  0
 90 89  1  0
M  ISO  4   9 100  17 100  50 101  51 101
M  END
>  <TORSDO>  (65) 
F 19

>  <SCORE>  (65) 
-15.535

>  <name>  (65) 
64

>  <ligand_id>  (65) 
64

>  <original_smiles>  (65) 
[H]Oc1c([H])c(N([H])C(=O)N2C([H])([H])C([H])([H])C([H])([H])C([H])(n3nc(-c4c([H])c([H])c(Oc5c([H])c([H])c(F)c([H])c5F)c([H])c4[H])c(C(=O)N([H])[H])c3N([H])[H])C2([H])[H])c([H])c2c1C([H])([H])C2([H])C([H])([H])C([H])([H])Oc1c([H])c([H])c2c(c1[H])C([H])([H])N(C(=O)C([H])(N([H])C(=O)C([H])(N([H])C([H])([H])[H])C([H])([H])[H])C(C([H])([H])[H])(C([H])([H])[H])C([H])([H])[H])C([H])(C(=O)N([H])C1([H])c3c([H])c([H])c([H])c([H])c3C([H])([H])C([H])([H])C1([H])[H])C2([H])[H]

>  <smiles>  (65) 
[H]Oc1c([H])c(N([H])C(=O)N2C([H])([H])C([H])([H])C([H])([H])C([H])(n3nc(-c4c([H])c([H])c(Oc5c([H])c([H])c(F)c([H])c5F)c([H])c4[H])c(C(=O)N([H])[H])c3N([H])[H])C2([H])[H])c([H])c2c1C([H])([H])C2([H])C([H])([H])C([H])([H])Oc1c([H])c([H])c2c(c1[H])C([H])([H])N(C(=O)C([H])(N([H])C(=O)C([H])(N([H])C([H])([H])[H])C([H])([H])[H])C(C([H])([H])[H])(C([H])([H])[H])C([H])([H])[H])C([H])(C(=O)N([H])C1([H])c3c([H])c([H])c([H])c([H])c3C([H])([H])C([H])([H])C1([H])[H])C2([H])[H]

$$$$
65:0:0
     RDKit          3D

 87 94  0  0  1  0  0  0  0  0999 V2000
  -28.5720  -21.8660   20.2650 N   0  0  0  0  0  4  0  0  0  0  0  0
  -27.8610  -21.7250   20.9660 H   0  0  0  0  0  0  0  0  0  0  0  0
  -28.1090  -21.7550   19.3770 H   0  0  0  0  0  0  0  0  0  0  0  0
  -29.5730  -20.6410   20.3930 C   0  0  0  0  0  2  0  0  0  0  0  0
  -29.1030  -19.0140   20.3830 C   0  0  0  0  0  3  0  0  0  0  0  0
  -30.1590  -17.6960   20.4240 C   0  0  0  0  0  3  0  0  0  0  0  0
  -30.5210  -14.9810   20.3370 C   0  0  0  0  0  0  0  0  0  0  0  0
  -30.3860  -12.6420   19.3800 C   0  0  0  0  0  2  0  0  0  0  0  0
  -29.4480  -12.6130   18.1520 C   0  0  0  0  0  2  0  0  0  0  0  0
  -27.9850  -12.4040   18.5900 C   0  0  0  0  0  2  0  0  0  0  0  0
  -27.5850  -13.3160   19.7790 C   0  0  0  0  0  3  0  0  0  0  0  0
  -28.6480  -13.3180   20.9000 C   0  0  0  0  0  2  0  0  0  0  0  0
  -29.9150  -13.7290   20.2840 N   0  0  0  0  0  0  0  0  0  0  0  0
  -31.7210  -15.0450   20.0530 O   0  0  0  0  0  0  0  0  0  0  0  0
  -29.7580  -16.1690   20.4970 N   0  0  0  0  0  0  0  0  0  0  0  0
  -28.7790  -15.9980   20.6790 H   0  0  0  0  0  0  0  0  0  0  0  0
  -25.2050  -13.8790   20.5340 C   0  0  0  0  0  0  0  0  0  0  0  0
  -24.1470  -13.0960   20.9040 C   0  0  0  0  0  0  0  0  0  0  0  0
  -24.6180  -11.7480   20.8630 C   0  0  0  0  0  0  0  0  0  0  0  0
  -26.2510  -13.0080   20.2830 N   0  0  0  0  0  0  0  0  0  0  0  0
  -25.9090  -11.7210   20.5480 N   0  0  0  0  0  0  0  0  0  0  0  0
  -23.8980  -10.4800   21.0460 C   0  0  0  0  0  0  0  0  0  0  0  0
  -24.3320   -9.5120   21.9780 C   0  0  0  0  0  3  0  0  0  0  0  0
  -23.6100   -8.3110   22.1500 C   0  0  0  0  0  3  0  0  0  0  0  0
  -22.4400   -8.0700   21.3920 C   0  0  0  0  0  0  0  0  0  0  0  0
  -22.0260   -9.0280   20.4490 C   0  0  0  0  0  3  0  0  0  0  0  0
  -22.7490  -10.2200   20.2750 C   0  0  0  0  0  3  0  0  0  0  0  0
  -21.6900   -6.9220   21.4730 O   0  0  0  0  0  0  0  0  0  0  0  0
  -21.6350   -6.1790   22.6250 C   0  0  0  0  0  0  0  0  0  0  0  0
  -21.1810   -6.7270   23.8450 C   0  0  0  0  0  3  0  0  0  0  0  0
  -21.0750   -5.9090   24.9880 C   0  0  0  0  0  3  0  0  0  0  0  0
  -21.4140   -4.5450   24.9130 C   0  0  0  0  0  0  0  0  0  0  0  0
  -21.8610   -3.9970   23.6980 C   0  0  0  0  0  3  0  0  0  0  0  0
  -21.9680   -4.8120   22.5560 C   0  0  0  0  0  0  0  0  0  0  0  0
  -22.3800   -4.2730   21.3830 F   0  0  0  0  0  0  0  0  0  0  0  0
  -21.3050   -3.7570   26.0080 F   0  0  0  0  0  0  0  0  0  0  0  0
  -22.7480  -13.5650   21.1810 C   0  0  0  0  0  0  0  0  0  0  0  0
  -22.0280  -12.8640   22.0500 N   0  0  0  0  0  0  0  0  0  0  0  0
  -22.3030  -14.5870   20.6620 O   0  0  0  0  0  0  0  0  0  0  0  0
  -22.4030  -12.0370   22.4910 H   0  0  0  0  0  0  0  0  0  0  0  0
  -21.0900  -13.1590   22.2790 H   0  0  0  0  0  0  0  0  0  0  0  0
  -25.3590  -15.2510   20.3620 N   0  0  0  0  0  0  0  0  0  0  0  0
  -24.5840  -15.8960   20.4740 H   0  0  0  0  0  0  0  0  0  0  0  0
  -26.1910  -15.6960   19.9970 H   0  0  0  0  0  0  0  0  0  0  0  0
  -29.0140  -23.3920   20.3650 C   0  0  0  0  0  3  0  0  0  0  0  0
  -27.9550  -24.6840   20.1350 C   0  0  0  0  0  3  0  0  0  0  0  0
  -28.2380  -26.2140   20.2750 O   0  0  0  0  0  0  0  0  0  0  0  0
  -24.6190  -31.9100   23.2420 C   0  0  0  0  0  0  0  0  0  0  0  0
  -27.1820  -27.1950   20.2080 C   0  0  0  0  0  0  0  0  0  0  0  0
  -23.4170  -30.5250   21.5940 C   0  0  0  0  0  3  0  0  0  0  0  0
  -24.8610  -28.9490   20.1710 C   0  0  0  0  0  0  0  0  0  0  0  0
  -25.9720  -30.7790   21.4390 C   0  0  0  0  0  2  0  0  0  0  0  0
  -26.0400  -29.3890   20.7830 C   0  0  0  0  0  0  0  0  0  0  0  0
  -27.2030  -28.5310   20.7820 C   0  0  0  0  0  3  0  0  0  0  0  0
  -25.9730  -26.8550   19.5600 C   0  0  0  0  0  3  0  0  0  0  0  0
  -24.8400  -27.6950   19.5440 C   0  0  0  0  0  3  0  0  0  0  0  0
  -23.6370  -29.8500   20.2160 C   0  0  0  0  0  2  0  0  0  0  0  0
  -24.6900  -31.0940   22.1460 N   0  0  0  0  0  0  0  0  0  0  0  0
  -23.5320  -32.1990   23.7660 O   0  0  0  0  0  0  0  0  0  0  0  0
  -22.7300  -29.5190   22.5520 C   0  0  0  0  0  0  0  0  0  0  0  0
  -21.4010  -29.3580   22.4240 N   0  0  0  0  0  0  0  0  0  0  0  0
  -23.3970  -28.8850   23.3750 O   0  0  0  0  0  0  0  0  0  0  0  0
  -20.9200  -29.9220   21.7360 H   0  0  0  0  0  0  0  0  0  0  0  0
  -18.0070  -28.1930   22.9270 C   0  0  0  0  0  0  0  0  0  0  0  0
  -20.5710  -28.4260   23.1900 C   0  0  0  0  0  3  0  0  0  0  0  0
  -20.6550  -26.9960   22.6060 C   0  0  0  0  0  2  0  0  0  0  0  0
  -19.5470  -26.6910   21.5920 C   0  0  0  0  0  2  0  0  0  0  0  0
  -18.1680  -26.8470   22.2410 C   0  0  0  0  0  2  0  0  0  0  0  0
  -19.1350  -28.9410   23.3580 C   0  0  0  0  0  0  0  0  0  0  0  0
  -18.9300  -30.2010   23.9610 C   0  0  0  0  0  3  0  0  0  0  0  0
  -17.6310  -30.7130   24.1360 C   0  0  0  0  0  3  0  0  0  0  0  0
  -16.5180  -29.9620   23.7200 C   0  0  0  0  0  3  0  0  0  0  0  0
  -16.7070  -28.7040   23.1210 C   0  0  0  0  0  3  0  0  0  0  0  0
  -25.8980  -32.5370   23.8750 C   0  0  0  0  0  3  0  0  0  0  0  0
  -25.5910  -33.9360   24.2110 N   0  0  0  0  0  0  0  0  0  0  0  0
  -25.9050  -34.9930   23.4490 C   0  0  0  0  0  0  0  0  0  0  0  0
  -26.5500  -34.8930   22.4020 O   0  0  0  0  0  0  0  0  0  0  0  0
  -25.0140  -34.0880   25.0260 H   0  0  0  0  0  0  0  0  0  0  0  0
  -24.1530  -36.7780   23.1630 C   0  0  0  0  0  1  0  0  0  0  0  0
  -25.4280  -36.3810   23.9230 C   0  0  0  0  0  3  0  0  0  0  0  0
  -27.5880  -37.2830   24.6670 C   0  0  0  0  0  1  0  0  0  0  0  0
  -26.4490  -37.4390   23.7650 N   0  0  0  0  0  0  0  0  0  0  0  0
  -26.0430  -38.3580   23.9230 H   0  0  0  0  0  0  0  0  0  0  0  0
  -26.3990  -31.7620   25.1550 C   0  0  1  0  0  0  0  0  0  0  0  0
  -25.2960  -31.5320   26.2150 C   0  0  0  0  0  1  0  0  0  0  0  0
  -26.9760  -30.3790   24.7720 C   0  0  0  0  0  1  0  0  0  0  0  0
  -27.5510  -32.5490   25.8250 C   0  0  0  0  0  1  0  0  0  0  0  0
  1 45  1  0
  1  4  1  0
  1  2  1  0
  3  1  1  0
  5  4  1  0
  5  6  2  0
  6 15  1  0
  7 15  1  0
  8 13  1  0
  9 10  1  0
  9  8  1  0
 11 10  1  0
 11 20  1  0
 11 12  1  0
 13  7  1  0
 13 12  1  0
 14  7  2  0
 15 16  1  0
 17 18  2  0
 18 37  1  0
 19 18  1  0
 19 22  1  0
 20 17  1  0
 20 21  1  0
 21 19  2  0
 22 23  1  0
 23 24  2  0
 25 28  1  0
 25 24  1  0
 26 25  2  0
 27 26  1  0
 27 22  2  0
 28 29  1  0
 29 30  1  0
 30 31  2  0
 32 31  1  0
 32 36  1  0
 33 32  2  0
 34 29  2  0
 34 33  1  0
 35 34  1  0
 37 38  1  0
 38 41  1  0
 38 40  1  0
 39 37  2  0
 42 43  1  0
 42 17  1  0
 44 42  1  0
 46 47  1  0
 46 45  2  0
 48 59  2  0
 49 47  1  0
 49 54  1  0
 50 58  1  0
 50 60  1  0
 51 57  1  0
 51 53  1  0
 52 58  1  0
 53 52  1  0
 54 53  2  0
 55 49  2  0
 56 55  1  0
 56 51  2  0
 57 50  1  0
 58 48  1  0
 60 62  2  0
 61 60  1  0
 63 61  1  0
 64 73  2  0
 64 69  1  0
 65 61  1  0
 65 69  1  0
 66 65  1  0
 67 68  1  0
 67 66  1  0
 68 64  1  0
 69 70  2  0
 70 71  1  0
 72 71  2  0
 73 72  1  0
 74 48  1  0
 74 75  1  0
 74 84  1  0
 75 78  1  0
 76 80  1  0
 76 75  1  0
 77 76  2  0
 80 79  1  0
 82 80  1  0
 82 83  1  0
 82 81  1  0
 84 87  1  1
 84 85  1  0
 86 84  1  0
M  ISO  4   7 100  15 100  46 101  47 101
M  END
>  <TORSDO>  (66) 
F 21

>  <SCORE>  (66) 
-13.179

>  <name>  (66) 
65

>  <ligand_id>  (66) 
65

>  <original_smiles>  (66) 
[H]c1c([H])c([H])c2c(c1[H])C([H])([H])C([H])([H])C([H])([H])C2([H])N([H])C(=O)C1([H])N(C(=O)C([H])(N([H])C(=O)C([H])(N([H])C([H])([H])[H])C([H])([H])[H])C(C([H])([H])[H])(C([H])([H])[H])C([H])([H])[H])C([H])([H])c2c([H])c(OC([H])([H])C([H])([H])[N+]([H])([H])C([H])([H])C([H])([H])C([H])([H])N([H])C(=O)N3C([H])([H])C([H])([H])C([H])([H])C([H])(n4nc(-c5c([H])c([H])c(Oc6c([H])c([H])c(F)c([H])c6F)c([H])c5[H])c(C(=O)N([H])[H])c4N([H])[H])C3([H])[H])c([H])c([H])c2C1([H])[H]

>  <smiles>  (66) 
[H]c1c([H])c([H])c2c(c1[H])C([H])([H])C([H])([H])C([H])([H])C2([H])N([H])C(=O)C1([H])N(C(=O)C([H])(N([H])C(=O)C([H])(N([H])C([H])([H])[H])C([H])([H])[H])C(C([H])([H])[H])(C([H])([H])[H])C([H])([H])[H])C([H])([H])c2c([H])c(OC([H])([H])C([H])([H])[N+]([H])([H])C([H])([H])C([H])([H])C([H])([H])N([H])C(=O)N3C([H])([H])C([H])([H])C([H])([H])C([H])(n4nc(-c5c([H])c([H])c(Oc6c([H])c([H])c(F)c([H])c6F)c([H])c5[H])c(C(=O)N([H])[H])c4N([H])[H])C3([H])[H])c([H])c([H])c2C1([H])[H]

$$$$
66:0:0
     RDKit          3D

 93102  0  0  1  0  0  0  0  0999 V2000
  -28.5720  -21.5160   20.4080 N   0  0  0  0  0  4  0  0  0  0  0  0
  -28.0230  -21.4710   21.2520 H   0  0  0  0  0  0  0  0  0  0  0  0
  -27.9240  -21.5040   19.6380 H   0  0  0  0  0  0  0  0  0  0  0  0
  -28.0610  -18.6220   19.3200 C   0  0  0  0  0  2  0  0  0  0  0  0
  -28.4770  -19.0340   20.5160 C   0  0  0  0  0  3  0  0  0  0  0  0
  -29.1070  -17.8600   21.2760 C   0  0  0  0  0  2  0  0  0  0  0  0
  -29.9750  -19.9890   18.9380 C   0  0  0  0  0  2  0  0  0  0  0  0
  -30.0960  -17.4070   18.8370 C   0  0  0  0  0  2  0  0  0  0  0  0
  -29.2860  -18.6880   18.4660 C   0  0  0  0  0  3  0  0  0  0  0  0
  -29.3830  -20.2550   20.3430 C   0  0  0  0  0  3  0  0  0  0  0  0
  -30.1080  -17.0170   20.3740 C   0  0  0  0  0  3  0  0  0  0  0  0
  -30.6400  -14.5350   20.0950 C   0  0  0  0  0  0  0  0  0  0  0  0
  -30.3150  -12.3880   18.9240 C   0  0  0  0  0  2  0  0  0  0  0  0
  -29.3090  -12.6200   17.7750 C   0  0  0  0  0  2  0  0  0  0  0  0
  -27.8580  -12.4690   18.2770 C   0  0  0  0  0  2  0  0  0  0  0  0
  -27.5880  -13.2690   19.5790 C   0  0  0  0  0  3  0  0  0  0  0  0
  -28.7000  -13.0150   20.6230 C   0  0  0  0  0  2  0  0  0  0  0  0
  -29.9900  -13.3420   19.9960 N   0  0  0  0  0  0  0  0  0  0  0  0
  -31.7600  -14.7270   19.6140 O   0  0  0  0  0  0  0  0  0  0  0  0
  -29.8820  -15.5600   20.5520 N   0  0  0  0  0  0  0  0  0  0  0  0
  -28.9860  -15.2870   20.9250 H   0  0  0  0  0  0  0  0  0  0  0  0
  -25.2280  -13.8620   20.4170 C   0  0  0  0  0  0  0  0  0  0  0  0
  -24.1800  -13.0830   20.8270 C   0  0  0  0  0  0  0  0  0  0  0  0
  -24.6390  -11.7330   20.7510 C   0  0  0  0  0  0  0  0  0  0  0  0
  -26.2610  -12.9850   20.1200 N   0  0  0  0  0  0  0  0  0  0  0  0
  -25.9120  -11.6990   20.3780 N   0  0  0  0  0  0  0  0  0  0  0  0
  -23.9240  -10.4680   20.9570 C   0  0  0  0  0  0  0  0  0  0  0  0
  -24.3800   -9.5030   21.8820 C   0  0  0  0  0  3  0  0  0  0  0  0
  -23.6650   -8.3010   22.0750 C   0  0  0  0  0  3  0  0  0  0  0  0
  -22.4790   -8.0560   21.3430 C   0  0  0  0  0  0  0  0  0  0  0  0
  -22.0420   -9.0090   20.4060 C   0  0  0  0  0  3  0  0  0  0  0  0
  -22.7570  -10.2020   20.2110 C   0  0  0  0  0  3  0  0  0  0  0  0
  -21.7330   -6.9070   21.4460 O   0  0  0  0  0  0  0  0  0  0  0  0
  -21.6770   -6.1880   22.6120 C   0  0  0  0  0  0  0  0  0  0  0  0
  -21.2310   -6.7620   23.8220 C   0  0  0  0  0  3  0  0  0  0  0  0
  -21.1240   -5.9680   24.9810 C   0  0  0  0  0  3  0  0  0  0  0  0
  -21.4530   -4.5990   24.9310 C   0  0  0  0  0  0  0  0  0  0  0  0
  -21.8910   -4.0250   23.7260 C   0  0  0  0  0  3  0  0  0  0  0  0
  -22.0000   -4.8160   22.5690 C   0  0  0  0  0  0  0  0  0  0  0  0
  -22.4040   -4.2520   21.4050 F   0  0  0  0  0  0  0  0  0  0  0  0
  -21.3420   -3.8350   26.0420 F   0  0  0  0  0  0  0  0  0  0  0  0
  -22.7980  -13.5560   21.1760 C   0  0  0  0  0  0  0  0  0  0  0  0
  -22.1140  -12.8440   22.0660 N   0  0  0  0  0  0  0  0  0  0  0  0
  -22.3350  -14.5890   20.6970 O   0  0  0  0  0  0  0  0  0  0  0  0
  -22.5040  -12.0080   22.4760 H   0  0  0  0  0  0  0  0  0  0  0  0
  -21.1890  -13.1410   22.3420 H   0  0  0  0  0  0  0  0  0  0  0  0
  -25.3850  -15.2360   20.2520 N   0  0  0  0  0  0  0  0  0  0  0  0
  -24.6210  -15.8850   20.4020 H   0  0  0  0  0  0  0  0  0  0  0  0
  -26.2090  -15.6740   19.8630 H   0  0  0  0  0  0  0  0  0  0  0  0
  -29.3120  -22.8210   20.3990 C   0  0  0  0  0  2  0  0  0  0  0  0
  -28.3850  -24.1010   20.2500 C   0  0  0  0  0  2  0  0  0  0  0  0
  -28.4110  -25.4800   21.0210 C   0  0  0  0  0  2  0  0  0  0  0  0
  -28.4570  -26.6750   20.1980 O   0  0  0  0  0  0  0  0  0  0  0  0
  -24.6150  -31.8810   23.2260 C   0  0  0  0  0  0  0  0  0  0  0  0
  -27.3020  -27.4310   20.1860 C   0  0  0  0  0  0  0  0  0  0  0  0
  -23.4290  -30.4710   21.5740 C   0  0  0  0  0  3  0  0  0  0  0  0
  -24.9040  -28.9360   20.1630 C   0  0  0  0  0  0  0  0  0  0  0  0
  -25.9560  -30.8400   21.3970 C   0  0  0  0  0  2  0  0  0  0  0  0
  -26.0550  -29.4670   20.7590 C   0  0  0  0  0  0  0  0  0  0  0  0
  -27.2600  -28.7240   20.7620 C   0  0  0  0  0  3  0  0  0  0  0  0
  -26.1360  -26.9150   19.5850 C   0  0  0  0  0  3  0  0  0  0  0  0
  -24.9410  -27.6600   19.5700 C   0  0  0  0  0  3  0  0  0  0  0  0
  -23.6560  -29.7890   20.1970 C   0  0  0  0  0  2  0  0  0  0  0  0
  -24.6840  -31.0790   22.1250 N   0  0  0  0  0  0  0  0  0  0  0  0
  -23.5280  -32.1500   23.7560 O   0  0  0  0  0  0  0  0  0  0  0  0
  -22.7730  -29.4510   22.5320 C   0  0  0  0  0  0  0  0  0  0  0  0
  -21.4470  -29.2800   22.4080 N   0  0  0  0  0  0  0  0  0  0  0  0
  -23.4540  -28.8140   23.3400 O   0  0  0  0  0  0  0  0  0  0  0  0
  -20.9580  -29.8440   21.7270 H   0  0  0  0  0  0  0  0  0  0  0  0
  -18.0610  -28.1240   22.9220 C   0  0  0  0  0  0  0  0  0  0  0  0
  -20.6250  -28.3420   23.1740 C   0  0  0  0  0  3  0  0  0  0  0  0
  -20.7030  -26.9190   22.5770 C   0  0  0  0  0  2  0  0  0  0  0  0
  -19.5880  -26.6250   21.5690 C   0  0  0  0  0  2  0  0  0  0  0  0
  -18.2140  -26.7800   22.2280 C   0  0  0  0  0  2  0  0  0  0  0  0
  -19.1940  -28.8640   23.3520 C   0  0  0  0  0  0  0  0  0  0  0  0
  -18.9990  -30.1220   23.9610 C   0  0  0  0  0  3  0  0  0  0  0  0
  -17.7040  -30.6400   24.1470 C   0  0  0  0  0  3  0  0  0  0  0  0
  -16.5850  -29.8950   23.7340 C   0  0  0  0  0  3  0  0  0  0  0  0
  -16.7650  -28.6400   23.1270 C   0  0  0  0  0  3  0  0  0  0  0  0
  -25.8920  -32.5180   23.8560 C   0  0  0  0  0  3  0  0  0  0  0  0
  -26.4080  -31.7460   25.1330 C   0  0  1  0  0  0  0  0  0  0  0  0
  -25.3100  -31.5000   26.1950 C   0  0  0  0  0  1  0  0  0  0  0  0
  -26.9990  -30.3730   24.7370 C   0  0  0  0  0  1  0  0  0  0  0  0
  -27.5500  -32.5440   25.8040 C   0  0  0  0  0  1  0  0  0  0  0  0
  -25.5750  -33.9130   24.1870 N   0  0  0  0  0  0  0  0  0  0  0  0
  -25.9040  -34.9680   23.4280 C   0  0  0  0  0  0  0  0  0  0  0  0
  -26.5760  -34.8690   22.3980 O   0  0  0  0  0  0  0  0  0  0  0  0
  -24.9800  -34.0650   24.9880 H   0  0  0  0  0  0  0  0  0  0  0  0
  -24.1630  -36.7480   23.0720 C   0  0  0  0  0  1  0  0  0  0  0  0
  -25.4070  -36.3520   23.8850 C   0  0  0  0  0  3  0  0  0  0  0  0
  -27.5340  -37.2530   24.7150 C   0  0  0  0  0  1  0  0  0  0  0  0
  -26.4330  -37.4130   23.7720 N   0  0  0  0  0  0  0  0  0  0  0  0
  -26.0200  -38.3300   23.9190 H   0  0  0  0  0  0  0  0  0  0  0  0
  1  2  1  0
  3  1  1  0
  5  4  1  0
  5  6  1  0
  7 10  1  0
  8 11  1  0
  9  8  1  0
  9  7  1  0
  9  4  1  0
 10  1  1  0
 10  5  1  0
 11 20  1  0
 11  6  1  0
 12 20  1  0
 13 18  1  0
 14 15  1  0
 14 13  1  0
 16 15  1  0
 16 25  1  0
 16 17  1  0
 18 12  1  0
 18 17  1  0
 19 12  2  0
 20 21  1  0
 22 23  2  0
 23 42  1  0
 24 23  1  0
 24 27  1  0
 25 26  1  0
 25 22  1  0
 26 24  2  0
 27 28  1  0
 28 29  2  0
 30 33  1  0
 30 29  1  0
 31 30  2  0
 32 31  1  0
 32 27  2  0
 33 34  1  0
 34 35  1  0
 35 36  2  0
 37 36  1  0
 37 41  1  0
 38 37  2  0
 39 34  2  0
 39 38  1  0
 40 39  1  0
 42 43  1  0
 43 46  1  0
 43 45  1  0
 44 42  2  0
 47 48  1  0
 47 22  1  0
 49 47  1  0
 50  1  1  0
 51 50  1  0
 51 52  1  0
 53 52  1  0
 54 65  2  0
 55 53  1  0
 55 60  1  0
 56 64  1  0
 56 66  1  0
 57 63  1  0
 57 59  1  0
 58 64  1  0
 59 60  2  0
 59 58  1  0
 61 55  2  0
 62 61  1  0
 62 57  2  0
 63 56  1  0
 64 54  1  0
 66 68  2  0
 67 66  1  0
 69 67  1  0
 70 79  2  0
 70 75  1  0
 71 67  1  0
 71 75  1  0
 72 71  1  0
 73 74  1  0
 73 72  1  0
 74 70  1  0
 75 76  2  0
 76 77  1  0
 78 77  2  0
 79 78  1  0
 80 54  1  0
 80 85  1  0
 80 81  1  0
 81 84  1  1
 81 82  1  0
 83 81  1  0
 85 88  1  0
 86 90  1  0
 86 85  1  0
 87 86  2  0
 90 89  1  0
 92 90  1  0
 92 93  1  0
 92 91  1  0
M  ISO  4  12 100  20 100  52 101  53 101
M  END
>  <TORSDO>  (67) 
F 20

>  <SCORE>  (67) 
-13.600

>  <name>  (67) 
66

>  <ligand_id>  (67) 
66

>  <original_smiles>  (67) 
[H]C1=C2C([H])([H])C([H])(N([H])C(=O)N3C([H])([H])C([H])([H])C([H])([H])C([H])(n4nc(-c5c([H])c([H])c(Oc6c([H])c([H])c(F)c([H])c6F)c([H])c5[H])c(C(=O)N([H])[H])c4N([H])[H])C3([H])[H])C([H])([H])C1([H])C([H])([H])C2([H])[N+]([H])([H])C([H])([H])C([H])([H])C([H])([H])Oc1c([H])c([H])c2c(c1[H])C([H])([H])N(C(=O)C([H])(N([H])C(=O)C([H])(N([H])C([H])([H])[H])C([H])([H])[H])C(C([H])([H])[H])(C([H])([H])[H])C([H])([H])[H])C([H])(C(=O)N([H])C1([H])c3c([H])c([H])c([H])c([H])c3C([H])([H])C([H])([H])C1([H])[H])C2([H])[H]

>  <smiles>  (67) 
[H]C1=C2C([H])([H])C([H])(N([H])C(=O)N3C([H])([H])C([H])([H])C([H])([H])C([H])(n4nc(-c5c([H])c([H])c(Oc6c([H])c([H])c(F)c([H])c6F)c([H])c5[H])c(C(=O)N([H])[H])c4N([H])[H])C3([H])[H])C([H])([H])C1([H])C([H])([H])C2([H])[N+]([H])([H])C([H])([H])C([H])([H])C([H])([H])Oc1c([H])c([H])c2c(c1[H])C([H])([H])N(C(=O)C([H])(N([H])C(=O)C([H])(N([H])C([H])([H])[H])C([H])([H])[H])C(C([H])([H])[H])(C([H])([H])[H])C([H])([H])[H])C([H])(C(=O)N([H])C1([H])c3c([H])c([H])c([H])c([H])c3C([H])([H])C([H])([H])C1([H])[H])C2([H])[H]

$$$$
67:0:0
     RDKit          3D

 94103  0  0  1  0  0  0  0  0999 V2000
  -29.2590  -20.3810   20.7750 C   0  0  0  0  0  3  0  0  0  0  0  0
  -29.9520  -19.2290   20.8800 C   0  0  0  0  0  0  0  0  0  0  0  0
  -29.6890  -17.9220   20.1570 C   0  0  0  0  0  2  0  0  0  0  0  0
  -30.7450  -21.4050   22.5930 C   0  0  0  0  0  2  0  0  0  0  0  0
  -30.8850  -19.9540   23.0980 C   0  0  0  0  0  2  0  0  0  0  0  0
  -31.0360  -17.5020   22.1430 C   0  0  0  0  0  2  0  0  0  0  0  0
  -29.5260  -21.6120   21.6520 C   0  0  0  0  0  3  0  0  0  0  0  0
  -31.0500  -19.0160   21.8920 C   0  0  0  0  0  3  0  0  0  0  0  0
  -30.7280  -16.9380   20.7440 C   0  0  0  0  0  3  0  0  0  0  0  0
  -30.9050  -14.5320   20.0870 C   0  0  0  0  0  0  0  0  0  0  0  0
  -30.5400  -12.3770   18.9510 C   0  0  0  0  0  2  0  0  0  0  0  0
  -29.5490  -12.5770   17.7870 C   0  0  0  0  0  2  0  0  0  0  0  0
  -28.0960  -12.4410   18.2810 C   0  0  0  0  0  2  0  0  0  0  0  0
  -27.8130  -13.2870   19.5500 C   0  0  0  0  0  3  0  0  0  0  0  0
  -28.9130  -13.0750   20.6150 C   0  0  0  0  0  2  0  0  0  0  0  0
  -30.2150  -13.3650   19.9910 N   0  0  0  0  0  0  0  0  0  0  0  0
  -31.9810  -14.7170   19.5130 O   0  0  0  0  0  0  0  0  0  0  0  0
  -30.2860  -15.5340   20.7410 N   0  0  0  0  0  0  0  0  0  0  0  0
  -29.4050  -15.3140   21.1800 H   0  0  0  0  0  0  0  0  0  0  0  0
  -25.4540  -13.8990   20.3810 C   0  0  0  0  0  0  0  0  0  0  0  0
  -24.3990  -13.1270   20.7900 C   0  0  0  0  0  0  0  0  0  0  0  0
  -24.8490  -11.7730   20.7140 C   0  0  0  0  0  0  0  0  0  0  0  0
  -26.4810  -13.0150   20.0880 N   0  0  0  0  0  0  0  0  0  0  0  0
  -26.1230  -11.7310   20.3430 N   0  0  0  0  0  0  0  0  0  0  0  0
  -24.1240  -10.5120   20.9180 C   0  0  0  0  0  0  0  0  0  0  0  0
  -24.5570   -9.5560   21.8630 C   0  0  0  0  0  3  0  0  0  0  0  0
  -23.8320   -8.3590   22.0540 C   0  0  0  0  0  3  0  0  0  0  0  0
  -22.6610   -8.1110   21.3010 C   0  0  0  0  0  0  0  0  0  0  0  0
  -22.2480   -9.0560   20.3440 C   0  0  0  0  0  3  0  0  0  0  0  0
  -22.9730  -10.2440   20.1520 C   0  0  0  0  0  3  0  0  0  0  0  0
  -21.9080   -6.9660   21.3990 O   0  0  0  0  0  0  0  0  0  0  0  0
  -21.8100   -6.2700   22.5770 C   0  0  0  0  0  0  0  0  0  0  0  0
  -21.2910   -6.8590   23.7500 C   0  0  0  0  0  3  0  0  0  0  0  0
  -21.1440   -6.0860   24.9210 C   0  0  0  0  0  3  0  0  0  0  0  0
  -21.5040   -4.7250   24.9150 C   0  0  0  0  0  0  0  0  0  0  0  0
  -22.0150   -4.1350   23.7460 C   0  0  0  0  0  3  0  0  0  0  0  0
  -22.1650   -4.9050   22.5800 C   0  0  0  0  0  0  0  0  0  0  0  0
  -22.6380   -4.3270   21.4510 F   0  0  0  0  0  0  0  0  0  0  0  0
  -21.3550   -3.9810   26.0370 F   0  0  0  0  0  0  0  0  0  0  0  0
  -23.0210  -13.6090   21.1390 C   0  0  0  0  0  0  0  0  0  0  0  0
  -22.3300  -12.8990   22.0250 N   0  0  0  0  0  0  0  0  0  0  0  0
  -22.5660  -14.6480   20.6620 O   0  0  0  0  0  0  0  0  0  0  0  0
  -22.7100  -12.0580   22.4320 H   0  0  0  0  0  0  0  0  0  0  0  0
  -21.4050  -13.2020   22.2980 H   0  0  0  0  0  0  0  0  0  0  0  0
  -25.6200  -15.2710   20.2170 N   0  0  0  0  0  0  0  0  0  0  0  0
  -24.8640  -15.9300   20.3650 H   0  0  0  0  0  0  0  0  0  0  0  0
  -26.4580  -15.7060   19.8500 H   0  0  0  0  0  0  0  0  0  0  0  0
  -29.7080  -22.8310   20.8200 N   0  0  0  0  0  4  0  0  0  0  0  0
  -30.1490  -22.5430   19.9600 H   0  0  0  0  0  0  0  0  0  0  0  0
  -30.3530  -23.4530   21.2800 H   0  0  0  0  0  0  0  0  0  0  0  0
  -28.4790  -23.5920   20.4820 C   0  0  0  0  0  2  0  0  0  0  0  0
  -28.0880  -24.6480   21.5460 C   0  0  0  0  0  2  0  0  0  0  0  0
  -28.8190  -26.0090   21.4270 C   0  0  0  0  0  2  0  0  0  0  0  0
  -28.5280  -26.6910   20.2040 O   0  0  0  0  0  0  0  0  0  0  0  0
  -24.6130  -31.8420   23.2110 C   0  0  0  0  0  0  0  0  0  0  0  0
  -27.3670  -27.4230   20.2130 C   0  0  0  0  0  0  0  0  0  0  0  0
  -23.4550  -30.4160   21.5540 C   0  0  0  0  0  3  0  0  0  0  0  0
  -24.9540  -28.8860   20.1680 C   0  0  0  0  0  0  0  0  0  0  0  0
  -25.9780  -30.8050   21.4040 C   0  0  0  0  0  2  0  0  0  0  0  0
  -26.0910  -29.4300   20.7810 C   0  0  0  0  0  0  0  0  0  0  0  0
  -27.3020  -28.7030   20.8080 C   0  0  0  0  0  3  0  0  0  0  0  0
  -26.2230  -26.8920   19.5870 C   0  0  0  0  0  3  0  0  0  0  0  0
  -25.0140  -27.6140   19.5710 C   0  0  0  0  0  3  0  0  0  0  0  0
  -23.6980  -29.7280   20.1840 C   0  0  0  0  0  2  0  0  0  0  0  0
  -24.6980  -31.0360   22.1150 N   0  0  0  0  0  0  0  0  0  0  0  0
  -23.5190  -32.1050   23.7290 O   0  0  0  0  0  0  0  0  0  0  0  0
  -22.7980  -29.3930   22.5090 C   0  0  0  0  0  0  0  0  0  0  0  0
  -21.4780  -29.1940   22.3550 N   0  0  0  0  0  0  0  0  0  0  0  0
  -23.4720  -28.7810   23.3400 O   0  0  0  0  0  0  0  0  0  0  0  0
  -20.9960  -29.7400   21.6540 H   0  0  0  0  0  0  0  0  0  0  0  0
  -18.1090  -27.9640   22.7830 C   0  0  0  0  0  0  0  0  0  0  0  0
  -20.6560  -28.2540   23.1150 C   0  0  0  0  0  3  0  0  0  0  0  0
  -20.7890  -26.8190   22.5530 C   0  0  0  0  0  2  0  0  0  0  0  0
  -19.7160  -26.4760   21.5150 C   0  0  0  0  0  2  0  0  0  0  0  0
  -18.3170  -26.6120   22.1240 C   0  0  0  0  0  2  0  0  0  0  0  0
  -19.2090  -28.7430   23.2350 C   0  0  0  0  0  0  0  0  0  0  0  0
  -18.9620  -30.0080   23.8090 C   0  0  0  0  0  3  0  0  0  0  0  0
  -17.6490  -30.4960   23.9390 C   0  0  0  0  0  3  0  0  0  0  0  0
  -16.5640  -29.7140   23.5070 C   0  0  0  0  0  3  0  0  0  0  0  0
  -16.7940  -28.4520   22.9340 C   0  0  0  0  0  3  0  0  0  0  0  0
  -25.8820  -32.4890   23.8510 C   0  0  0  0  0  3  0  0  0  0  0  0
  -26.3920  -31.7220   25.1320 C   0  0  1  0  0  0  0  0  0  0  0  0
  -25.2880  -31.4650   26.1820 C   0  0  0  0  0  1  0  0  0  0  0  0
  -27.0020  -30.3540   24.7420 C   0  0  0  0  0  1  0  0  0  0  0  0
  -27.5200  -32.5320   25.8130 C   0  0  0  0  0  1  0  0  0  0  0  0
  -25.5510  -33.8820   24.1770 N   0  0  0  0  0  0  0  0  0  0  0  0
  -25.8820  -34.9380   23.4220 C   0  0  0  0  0  0  0  0  0  0  0  0
  -26.5690  -34.8430   22.4000 O   0  0  0  0  0  0  0  0  0  0  0  0
  -24.9430  -34.0300   24.9680 H   0  0  0  0  0  0  0  0  0  0  0  0
  -24.1410  -36.7080   23.0290 C   0  0  0  0  0  1  0  0  0  0  0  0
  -25.3680  -36.3200   23.8690 C   0  0  0  0  0  3  0  0  0  0  0  0
  -27.4700  -37.2290   24.7530 C   0  0  0  0  0  1  0  0  0  0  0  0
  -26.3900  -37.3850   23.7810 N   0  0  0  0  0  0  0  0  0  0  0  0
  -25.9700  -38.3000   23.9170 H   0  0  0  0  0  0  0  0  0  0  0  0
  1  2  2  0
  1  7  1  0
  2  8  1  0
  3  9  1  0
  3  2  1  0
  4  5  1  0
  7 48  1  0
  7  4  1  0
  8  6  1  0
  8  5  1  0
  9 18  1  0
  9  6  1  0
 10 18  1  0
 11 16  1  0
 12 13  1  0
 12 11  1  0
 14 13  1  0
 14 23  1  0
 14 15  1  0
 16 10  1  0
 16 15  1  0
 17 10  2  0
 18 19  1  0
 20 21  2  0
 21 40  1  0
 22 21  1  0
 22 25  1  0
 23 24  1  0
 23 20  1  0
 24 22  2  0
 25 26  1  0
 26 27  2  0
 28 31  1  0
 28 27  1  0
 29 28  2  0
 30 29  1  0
 30 25  2  0
 31 32  1  0
 32 37  2  0
 32 33  1  0
 33 34  2  0
 35 34  1  0
 35 39  1  0
 36 35  2  0
 37 36  1  0
 38 37  1  0
 40 41  1  0
 41 44  1  0
 41 43  1  0
 42 40  2  0
 45 46  1  0
 45 20  1  0
 47 45  1  0
 48 50  1  0
 49 48  1  0
 51 48  1  0
 51 52  1  0
 53 52  1  0
 54 56  1  0
 54 53  1  0
 55 66  2  0
 56 61  1  0
 57 65  1  0
 57 67  1  0
 58 64  1  0
 58 60  1  0
 59 65  1  0
 60 61  2  0
 60 59  1  0
 62 56  2  0
 63 62  1  0
 63 58  2  0
 64 57  1  0
 65 55  1  0
 67 69  2  0
 68 67  1  0
 70 68  1  0
 71 80  2  0
 71 76  1  0
 72 68  1  0
 72 76  1  0
 73 72  1  0
 74 75  1  0
 74 73  1  0
 75 71  1  0
 76 77  2  0
 77 78  1  0
 79 78  2  0
 80 79  1  0
 81 55  1  0
 81 86  1  0
 81 82  1  0
 82 85  1  1
 82 83  1  0
 84 82  1  0
 86 89  1  0
 87 91  1  0
 87 86  1  0
 88 87  2  0
 91 90  1  0
 93 91  1  0
 93 94  1  0
 93 92  1  0
M  ISO  4  10 100  18 100  53 101  54 101
M  END
>  <TORSDO>  (68) 
F 20

>  <SCORE>  (68) 
-13.918

>  <name>  (68) 
67

>  <ligand_id>  (68) 
67

>  <original_smiles>  (68) 
[H]C1=C2C([H])([H])C([H])(N([H])C(=O)N3C([H])([H])C([H])([H])C([H])([H])C([H])(n4nc(-c5c([H])c([H])c(Oc6c([H])c([H])c(F)c([H])c6F)c([H])c5[H])c(C(=O)N([H])[H])c4N([H])[H])C3([H])[H])C([H])([H])C2([H])C([H])([H])C([H])([H])C1([H])[N+]([H])([H])C([H])([H])C([H])([H])C([H])([H])Oc1c([H])c([H])c2c(c1[H])C([H])([H])N(C(=O)C([H])(N([H])C(=O)C([H])(N([H])C([H])([H])[H])C([H])([H])[H])C(C([H])([H])[H])(C([H])([H])[H])C([H])([H])[H])C([H])(C(=O)N([H])C1([H])c3c([H])c([H])c([H])c([H])c3C([H])([H])C([H])([H])C1([H])[H])C2([H])[H]

>  <smiles>  (68) 
[H]C1=C2C([H])([H])C([H])(N([H])C(=O)N3C([H])([H])C([H])([H])C([H])([H])C([H])(n4nc(-c5c([H])c([H])c(Oc6c([H])c([H])c(F)c([H])c6F)c([H])c5[H])c(C(=O)N([H])[H])c4N([H])[H])C3([H])[H])C([H])([H])C2([H])C([H])([H])C([H])([H])C1([H])[N+]([H])([H])C([H])([H])C([H])([H])C([H])([H])Oc1c([H])c([H])c2c(c1[H])C([H])([H])N(C(=O)C([H])(N([H])C(=O)C([H])(N([H])C([H])([H])[H])C([H])([H])[H])C(C([H])([H])[H])(C([H])([H])[H])C([H])([H])[H])C([H])(C(=O)N([H])C1([H])c3c([H])c([H])c([H])c([H])c3C([H])([H])C([H])([H])C1([H])[H])C2([H])[H]

$$$$
68:0:0
     RDKit          3D

 97106  0  0  1  0  0  0  0  0999 V2000
  -30.4300  -20.9300   19.2710 C   0  0  0  0  0  0  0  0  0  0  0  0
  -30.9730  -22.3530   17.1560 C   0  0  0  0  0  2  0  0  0  0  0  0
  -30.8920  -23.5110   18.1380 C   0  0  0  0  0  2  0  0  0  0  0  0
  -31.1650  -21.0190   17.9070 C   0  0  0  0  0  3  0  0  0  0  0  0
  -29.7260  -23.2370   19.1020 C   0  0  0  0  0  3  0  0  0  0  0  0
  -29.8720  -21.9570   19.8160 N   0  0  0  0  0  0  0  0  0  0  0  0
  -31.5250  -18.8120   20.0920 C   0  0  0  0  0  3  0  0  0  0  0  0
  -29.1130  -19.0300   20.3080 C   0  0  0  0  0  3  0  0  0  0  0  0
  -31.4430  -17.4720   20.5240 C   0  0  0  0  0  3  0  0  0  0  0  0
  -29.0310  -17.6820   20.7300 C   0  0  0  0  0  3  0  0  0  0  0  0
  -30.3560  -19.5900   19.9340 C   0  0  0  0  0  0  0  0  0  0  0  0
  -30.1870  -16.8690   20.7850 C   0  0  0  0  0  0  0  0  0  0  0  0
  -30.7010  -14.4550   20.5070 C   0  0  0  0  0  0  0  0  0  0  0  0
  -30.3750  -12.3100   19.3460 C   0  0  0  0  0  2  0  0  0  0  0  0
  -29.4420  -12.5400   18.1420 C   0  0  0  0  0  2  0  0  0  0  0  0
  -27.9660  -12.4060   18.5660 C   0  0  0  0  0  2  0  0  0  0  0  0
  -27.6300  -13.2330   19.8350 C   0  0  0  0  0  3  0  0  0  0  0  0
  -28.6820  -12.9990   20.9450 C   0  0  0  0  0  2  0  0  0  0  0  0
  -30.0120  -13.2880   20.3850 N   0  0  0  0  0  0  0  0  0  0  0  0
  -31.8270  -14.6040   20.0230 O   0  0  0  0  0  0  0  0  0  0  0  0
  -30.0290  -15.4760   21.0780 N   0  0  0  0  0  0  0  0  0  0  0  0
  -29.1360  -15.2080   21.4600 H   0  0  0  0  0  0  0  0  0  0  0  0
  -25.2240  -13.8380   20.5280 C   0  0  0  0  0  0  0  0  0  0  0  0
  -24.1550  -13.0650   20.8950 C   0  0  0  0  0  0  0  0  0  0  0  0
  -24.6190  -11.7140   20.8720 C   0  0  0  0  0  0  0  0  0  0  0  0
  -26.2730  -12.9580   20.3070 N   0  0  0  0  0  0  0  0  0  0  0  0
  -25.9110  -11.6750   20.5690 N   0  0  0  0  0  0  0  0  0  0  0  0
  -23.8930  -10.4510   21.0640 C   0  0  0  0  0  0  0  0  0  0  0  0
  -24.3350   -9.4790   21.9900 C   0  0  0  0  0  3  0  0  0  0  0  0
  -23.6100   -8.2810   22.1690 C   0  0  0  0  0  3  0  0  0  0  0  0
  -22.4290   -8.0470   21.4250 C   0  0  0  0  0  0  0  0  0  0  0  0
  -22.0070   -9.0080   20.4900 C   0  0  0  0  0  3  0  0  0  0  0  0
  -22.7310  -10.1970   20.3080 C   0  0  0  0  0  3  0  0  0  0  0  0
  -21.6750   -6.9020   21.5150 O   0  0  0  0  0  0  0  0  0  0  0  0
  -21.6500   -6.1450   22.6590 C   0  0  0  0  0  0  0  0  0  0  0  0
  -21.2580   -6.6860   23.9030 C   0  0  0  0  0  3  0  0  0  0  0  0
  -21.1790   -5.8560   25.0390 C   0  0  0  0  0  3  0  0  0  0  0  0
  -21.4820   -4.4850   24.9320 C   0  0  0  0  0  0  0  0  0  0  0  0
  -21.8670   -3.9430   23.6940 C   0  0  0  0  0  3  0  0  0  0  0  0
  -21.9480   -4.7710   22.5600 C   0  0  0  0  0  0  0  0  0  0  0  0
  -22.2990   -4.2400   21.3630 F   0  0  0  0  0  0  0  0  0  0  0  0
  -21.3990   -3.6870   26.0210 F   0  0  0  0  0  0  0  0  0  0  0  0
  -22.7550  -13.5410   21.1590 C   0  0  0  0  0  0  0  0  0  0  0  0
  -22.0240  -12.8490   22.0240 N   0  0  0  0  0  0  0  0  0  0  0  0
  -22.3190  -14.5650   20.6350 O   0  0  0  0  0  0  0  0  0  0  0  0
  -22.3860  -12.0210   22.4730 H   0  0  0  0  0  0  0  0  0  0  0  0
  -21.0860  -13.1550   22.2440 H   0  0  0  0  0  0  0  0  0  0  0  0
  -25.3880  -15.2070   20.3450 N   0  0  0  0  0  0  0  0  0  0  0  0
  -24.6190  -15.8590   20.4560 H   0  0  0  0  0  0  0  0  0  0  0  0
  -26.2280  -15.6450   19.9920 H   0  0  0  0  0  0  0  0  0  0  0  0
  -30.7860  -19.8920   17.0330 N   0  0  0  0  0  4  0  0  0  0  0  0
  -29.8010  -19.9100   16.8410 H   0  0  0  0  0  0  0  0  0  0  0  0
  -31.0050  -19.0170   17.4760 H   0  0  0  0  0  0  0  0  0  0  0  0
  -31.2860  -19.9370   16.1640 H   0  0  0  0  0  0  0  0  0  0  0  0
  -29.5050  -24.4410   20.0600 C   0  0  0  0  0  2  0  0  0  0  0  0
  -28.3990  -25.3870   19.5400 C   0  0  0  0  0  2  0  0  0  0  0  0
  -28.3820  -26.6830   20.1620 O   0  0  0  0  0  0  0  0  0  0  0  0
  -24.5890  -31.8730   23.2440 C   0  0  0  0  0  0  0  0  0  0  0  0
  -27.2050  -27.4170   20.1300 C   0  0  0  0  0  0  0  0  0  0  0  0
  -23.3710  -30.4770   21.6080 C   0  0  0  0  0  3  0  0  0  0  0  0
  -24.8140  -28.9460   20.1690 C   0  0  0  0  0  0  0  0  0  0  0  0
  -25.9010  -30.8220   21.4040 C   0  0  0  0  0  2  0  0  0  0  0  0
  -25.9770  -29.4530   20.7580 C   0  0  0  0  0  0  0  0  0  0  0  0
  -27.1710  -28.6930   20.7440 C   0  0  0  0  0  3  0  0  0  0  0  0
  -26.0170  -26.9410   19.5200 C   0  0  0  0  0  3  0  0  0  0  0  0
  -24.8290  -27.6880   19.5490 C   0  0  0  0  0  3  0  0  0  0  0  0
  -23.5730  -29.8070   20.2250 C   0  0  0  0  0  2  0  0  0  0  0  0
  -24.6390  -31.0730   22.1420 N   0  0  0  0  0  0  0  0  0  0  0  0
  -23.5100  -32.1470   23.7880 O   0  0  0  0  0  0  0  0  0  0  0  0
  -22.7240  -29.4530   22.5670 C   0  0  0  0  0  0  0  0  0  0  0  0
  -21.4000  -29.2700   22.4420 N   0  0  0  0  0  0  0  0  0  0  0  0
  -23.4100  -28.8250   23.3790 O   0  0  0  0  0  0  0  0  0  0  0  0
  -20.9090  -29.8270   21.7570 H   0  0  0  0  0  0  0  0  0  0  0  0
  -18.0260  -28.0740   22.9390 C   0  0  0  0  0  0  0  0  0  0  0  0
  -20.5830  -28.3320   23.2130 C   0  0  0  0  0  3  0  0  0  0  0  0
  -20.6860  -26.9010   22.6370 C   0  0  0  0  0  2  0  0  0  0  0  0
  -19.5850  -26.5770   21.6220 C   0  0  0  0  0  2  0  0  0  0  0  0
  -18.2040  -26.7240   22.2660 C   0  0  0  0  0  2  0  0  0  0  0  0
  -19.1430  -28.8370   23.3690 C   0  0  0  0  0  0  0  0  0  0  0  0
  -18.9250  -30.1020   23.9560 C   0  0  0  0  0  3  0  0  0  0  0  0
  -17.6200  -30.6040   24.1180 C   0  0  0  0  0  3  0  0  0  0  0  0
  -16.5160  -29.8380   23.7060 C   0  0  0  0  0  3  0  0  0  0  0  0
  -16.7200  -28.5750   23.1210 C   0  0  0  0  0  3  0  0  0  0  0  0
  -25.8780  -32.4990   23.8580 C   0  0  0  0  0  3  0  0  0  0  0  0
  -26.4020  -31.7240   25.1290 C   0  0  1  0  0  0  0  0  0  0  0  0
  -25.3160  -31.4870   26.2030 C   0  0  0  0  0  1  0  0  0  0  0  0
  -26.9790  -30.3470   24.7280 C   0  0  0  0  0  1  0  0  0  0  0  0
  -27.5590  -32.5150   25.7850 C   0  0  0  0  0  1  0  0  0  0  0  0
  -25.5740  -33.8980   24.1910 N   0  0  0  0  0  0  0  0  0  0  0  0
  -25.9050  -34.9490   23.4300 C   0  0  0  0  0  0  0  0  0  0  0  0
  -26.5690  -34.8450   22.3950 O   0  0  0  0  0  0  0  0  0  0  0  0
  -24.9800  -34.0530   24.9920 H   0  0  0  0  0  0  0  0  0  0  0  0
  -24.1750  -36.7420   23.0840 C   0  0  0  0  0  1  0  0  0  0  0  0
  -25.4210  -36.3370   23.8900 C   0  0  0  0  0  3  0  0  0  0  0  0
  -27.5610  -37.2170   24.7100 C   0  0  0  0  0  1  0  0  0  0  0  0
  -26.4530  -37.3890   23.7730 N   0  0  0  0  0  0  0  0  0  0  0  0
  -26.0500  -38.3100   23.9230 H   0  0  0  0  0  0  0  0  0  0  0  0
  1  6  2  0
  1 11  1  0
  2  4  1  0
  2  3  1  0
  3  5  1  0
  4 51  1  0
  4  1  1  0
  5  6  1  0
  5 55  1  0
  7  9  1  0
  8 10  2  0
  9 12  2  0
 10 12  1  0
 11  7  2  0
 11  8  1  0
 12 21  1  0
 13 21  1  0
 14 19  1  0
 15 16  1  0
 15 14  1  0
 17 16  1  0
 17 26  1  0
 17 18  1  0
 19 13  1  0
 19 18  1  0
 20 13  2  0
 21 22  1  0
 23 24  2  0
 24 43  1  0
 25 24  1  0
 25 28  1  0
 26 23  1  0
 26 27  1  0
 27 25  2  0
 28 29  1  0
 29 30  2  0
 31 34  1  0
 31 30  1  0
 32 31  2  0
 33 32  1  0
 33 28  2  0
 34 35  1  0
 35 36  1  0
 36 37  2  0
 38 37  1  0
 38 42  1  0
 39 38  2  0
 40 35  2  0
 40 39  1  0
 41 40  1  0
 43 44  1  0
 44 47  1  0
 44 46  1  0
 45 43  2  0
 48 49  1  0
 48 23  1  0
 50 48  1  0
 51 53  1  0
 52 51  1  0
 54 51  1  0
 56 55  1  0
 56 57  1  0
 58 69  2  0
 59 57  1  0
 59 64  1  0
 60 68  1  0
 60 70  1  0
 61 67  1  0
 61 63  1  0
 62 68  1  0
 63 62  1  0
 64 63  2  0
 65 66  1  0
 65 59  2  0
 66 61  2  0
 67 60  1  0
 68 58  1  0
 70 72  2  0
 71 70  1  0
 73 71  1  0
 74 83  2  0
 74 79  1  0
 75 71  1  0
 75 79  1  0
 76 75  1  0
 77 78  1  0
 77 76  1  0
 78 74  1  0
 79 80  2  0
 80 81  1  0
 82 81  2  0
 83 82  1  0
 84 58  1  0
 84 89  1  0
 84 85  1  0
 85 88  1  1
 85 86  1  0
 87 85  1  0
 89 92  1  0
 90 94  1  0
 90 89  1  0
 91 90  2  0
 94 93  1  0
 96 94  1  0
 96 97  1  0
 96 95  1  0
M  ISO  4  13 100  21 100  56 101  57 101
M  END
>  <TORSDO>  (69) 
F 20

>  <SCORE>  (69) 
-14.208

>  <name>  (69) 
68

>  <ligand_id>  (69) 
68

>  <original_smiles>  (69) 
[H]c1c([H])c([H])c2c(c1[H])C([H])([H])C([H])([H])C([H])([H])C2([H])N([H])C(=O)C1([H])N(C(=O)C([H])(N([H])C(=O)C([H])(N([H])C([H])([H])[H])C([H])([H])[H])C(C([H])([H])[H])(C([H])([H])[H])C([H])([H])[H])C([H])([H])c2c([H])c(OC([H])([H])C([H])([H])C3([H])N=C(c4c([H])c([H])c(N([H])C(=O)N5C([H])([H])C([H])([H])C([H])([H])C([H])(n6nc(-c7c([H])c([H])c(Oc8c([H])c([H])c(F)c([H])c8F)c([H])c7[H])c(C(=O)N([H])[H])c6N([H])[H])C5([H])[H])c([H])c4[H])C([H])([N+]([H])([H])[H])C([H])([H])C3([H])[H])c([H])c([H])c2C1([H])[H]

>  <smiles>  (69) 
[H]c1c([H])c([H])c2c(c1[H])C([H])([H])C([H])([H])C([H])([H])C2([H])N([H])C(=O)C1([H])N(C(=O)C([H])(N([H])C(=O)C([H])(N([H])C([H])([H])[H])C([H])([H])[H])C(C([H])([H])[H])(C([H])([H])[H])C([H])([H])[H])C([H])([H])c2c([H])c(OC([H])([H])C([H])([H])C3([H])N=C(c4c([H])c([H])c(N([H])C(=O)N5C([H])([H])C([H])([H])C([H])([H])C([H])(n6nc(-c7c([H])c([H])c(Oc8c([H])c([H])c(F)c([H])c8F)c([H])c7[H])c(C(=O)N([H])[H])c6N([H])[H])C5([H])[H])c([H])c4[H])C([H])([N+]([H])([H])[H])C([H])([H])C3([H])[H])c([H])c([H])c2C1([H])[H]

$$$$
69:0:0
     RDKit          3D

 92101  0  0  1  0  0  0  0  0999 V2000
  -32.1020  -19.6940   20.5820 C   0  0  0  0  0  2  0  0  0  0  0  0
  -31.4000  -17.4550   21.6770 C   0  0  0  0  0  2  0  0  0  0  0  0
  -29.2300  -17.9810   20.7460 C   0  0  0  0  0  2  0  0  0  0  0  0
  -31.0780  -20.2480   19.5810 C   0  0  0  0  0  2  0  0  0  0  0  0
  -31.2740  -18.9890   21.6730 C   0  0  0  0  0  3  0  0  0  0  0  0
  -30.3920  -16.9680   20.6290 C   0  0  0  0  0  3  0  0  0  0  0  0
  -29.8080  -19.3070   21.3290 C   0  0  0  0  0  3  0  0  0  0  0  0
  -29.8300  -20.4350   20.3510 N   0  0  1  0  0  4  0  0  0  0  0  0
  -29.0330  -20.3380   19.7380 H   0  0  0  0  0  0  0  0  0  0  0  0
  -30.6820  -14.5150   20.2830 C   0  0  0  0  0  0  0  0  0  0  0  0
  -30.3310  -12.3880   19.0930 C   0  0  0  0  0  2  0  0  0  0  0  0
  -29.3640  -12.6310   17.9160 C   0  0  0  0  0  2  0  0  0  0  0  0
  -27.9010  -12.4900   18.3780 C   0  0  0  0  0  2  0  0  0  0  0  0
  -27.5970  -13.3020   19.6660 C   0  0  0  0  0  3  0  0  0  0  0  0
  -28.6760  -13.0540   20.7460 C   0  0  0  0  0  2  0  0  0  0  0  0
  -29.9900  -13.3500   20.1530 N   0  0  0  0  0  0  0  0  0  0  0  0
  -31.8020  -14.6810   19.7940 O   0  0  0  0  0  0  0  0  0  0  0  0
  -29.9990  -15.5560   20.8000 N   0  0  0  0  0  0  0  0  0  0  0  0
  -29.0760  -15.3580   21.1560 H   0  0  0  0  0  0  0  0  0  0  0  0
  -25.2060  -13.9000   20.4100 C   0  0  0  0  0  0  0  0  0  0  0  0
  -24.1480  -13.1230   20.7980 C   0  0  0  0  0  0  0  0  0  0  0  0
  -24.6160  -11.7740   20.7660 C   0  0  0  0  0  0  0  0  0  0  0  0
  -26.2540  -13.0230   20.1680 N   0  0  0  0  0  0  0  0  0  0  0  0
  -25.9020  -11.7400   20.4390 N   0  0  0  0  0  0  0  0  0  0  0  0
  -23.9000  -10.5090   20.9730 C   0  0  0  0  0  0  0  0  0  0  0  0
  -24.3510   -9.5490   21.9060 C   0  0  0  0  0  3  0  0  0  0  0  0
  -23.6350   -8.3470   22.1000 C   0  0  0  0  0  3  0  0  0  0  0  0
  -22.4560   -8.0960   21.3620 C   0  0  0  0  0  0  0  0  0  0  0  0
  -22.0230   -9.0450   20.4180 C   0  0  0  0  0  3  0  0  0  0  0  0
  -22.7400  -10.2380   20.2220 C   0  0  0  0  0  3  0  0  0  0  0  0
  -21.7090   -6.9470   21.4650 O   0  0  0  0  0  0  0  0  0  0  0  0
  -21.6800   -6.2110   22.6230 C   0  0  0  0  0  0  0  0  0  0  0  0
  -21.2720   -6.7710   23.8520 C   0  0  0  0  0  3  0  0  0  0  0  0
  -21.1890   -5.9600   25.0020 C   0  0  0  0  0  3  0  0  0  0  0  0
  -21.5040   -4.5900   24.9230 C   0  0  0  0  0  0  0  0  0  0  0  0
  -21.9050   -4.0300   23.6980 C   0  0  0  0  0  3  0  0  0  0  0  0
  -21.9890   -4.8380   22.5500 C   0  0  0  0  0  0  0  0  0  0  0  0
  -22.3560   -4.2870   21.3680 F   0  0  0  0  0  0  0  0  0  0  0  0
  -21.4170   -3.8100   26.0250 F   0  0  0  0  0  0  0  0  0  0  0  0
  -22.7520  -13.5930   21.0890 C   0  0  0  0  0  0  0  0  0  0  0  0
  -22.0410  -12.8980   21.9690 N   0  0  0  0  0  0  0  0  0  0  0  0
  -22.3010  -14.6140   20.5710 O   0  0  0  0  0  0  0  0  0  0  0  0
  -22.4200  -12.0730   22.4110 H   0  0  0  0  0  0  0  0  0  0  0  0
  -21.1060  -13.1960   22.2050 H   0  0  0  0  0  0  0  0  0  0  0  0
  -25.3620  -15.2700   20.2250 N   0  0  0  0  0  0  0  0  0  0  0  0
  -24.5920  -15.9200   20.3420 H   0  0  0  0  0  0  0  0  0  0  0  0
  -26.2020  -15.7130   19.8760 H   0  0  0  0  0  0  0  0  0  0  0  0
  -29.7330  -21.8010   20.9640 C   0  0  0  0  0  2  0  0  0  0  0  0
  -29.2310  -22.8920   19.9750 C   0  0  0  0  0  2  0  0  0  0  0  0
  -29.2850  -24.3560   20.5060 C   0  0  0  0  0  2  0  0  0  0  0  0
  -28.2950  -25.2900   19.7710 C   0  0  0  0  0  2  0  0  0  0  0  0
  -28.3720  -26.6790   20.1610 O   0  0  0  0  0  0  0  0  0  0  0  0
  -24.5880  -31.8860   23.2370 C   0  0  0  0  0  0  0  0  0  0  0  0
  -27.2070  -27.4350   20.1180 C   0  0  0  0  0  0  0  0  0  0  0  0
  -23.3740  -30.4960   21.5950 C   0  0  0  0  0  3  0  0  0  0  0  0
  -24.8180  -28.9710   20.1510 C   0  0  0  0  0  0  0  0  0  0  0  0
  -25.9030  -30.8430   21.3940 C   0  0  0  0  0  2  0  0  0  0  0  0
  -25.9810  -29.4760   20.7420 C   0  0  0  0  0  0  0  0  0  0  0  0
  -27.1770  -28.7150   20.7240 C   0  0  0  0  0  3  0  0  0  0  0  0
  -26.0230  -26.9670   19.4960 C   0  0  0  0  0  3  0  0  0  0  0  0
  -24.8350  -27.7160   19.5240 C   0  0  0  0  0  3  0  0  0  0  0  0
  -23.5760  -29.8310   20.2080 C   0  0  0  0  0  2  0  0  0  0  0  0
  -24.6390  -31.0920   22.1320 N   0  0  0  0  0  0  0  0  0  0  0  0
  -23.5090  -32.1580   23.7820 O   0  0  0  0  0  0  0  0  0  0  0  0
  -22.7280  -29.4660   22.5500 C   0  0  0  0  0  0  0  0  0  0  0  0
  -21.4020  -29.2820   22.4260 N   0  0  0  0  0  0  0  0  0  0  0  0
  -23.4140  -28.8380   23.3600 O   0  0  0  0  0  0  0  0  0  0  0  0
  -20.9090  -29.8440   21.7450 H   0  0  0  0  0  0  0  0  0  0  0  0
  -18.0310  -28.0770   22.9190 C   0  0  0  0  0  0  0  0  0  0  0  0
  -20.5880  -28.3420   23.1940 C   0  0  0  0  0  3  0  0  0  0  0  0
  -20.6930  -26.9110   22.6160 C   0  0  0  0  0  2  0  0  0  0  0  0
  -19.5940  -26.5870   21.6000 C   0  0  0  0  0  2  0  0  0  0  0  0
  -18.2120  -26.7280   22.2420 C   0  0  0  0  0  2  0  0  0  0  0  0
  -19.1470  -28.8410   23.3510 C   0  0  0  0  0  0  0  0  0  0  0  0
  -18.9250  -30.1030   23.9420 C   0  0  0  0  0  3  0  0  0  0  0  0
  -17.6190  -30.6020   24.1070 C   0  0  0  0  0  3  0  0  0  0  0  0
  -16.5170  -29.8350   23.6900 C   0  0  0  0  0  3  0  0  0  0  0  0
  -16.7230  -28.5750   23.1020 C   0  0  0  0  0  3  0  0  0  0  0  0
  -25.8770  -32.5130   23.8540 C   0  0  0  0  0  3  0  0  0  0  0  0
  -26.3960  -31.7400   25.1280 C   0  0  1  0  0  0  0  0  0  0  0  0
  -25.3070  -31.5070   26.2010 C   0  0  0  0  0  1  0  0  0  0  0  0
  -26.9730  -30.3600   24.7330 C   0  0  0  0  0  1  0  0  0  0  0  0
  -27.5510  -32.5330   25.7860 C   0  0  0  0  0  1  0  0  0  0  0  0
  -25.5720  -33.9120   24.1840 N   0  0  0  0  0  0  0  0  0  0  0  0
  -25.9050  -34.9630   23.4230 C   0  0  0  0  0  0  0  0  0  0  0  0
  -26.5740  -34.8580   22.3910 O   0  0  0  0  0  0  0  0  0  0  0  0
  -24.9760  -34.0690   24.9830 H   0  0  0  0  0  0  0  0  0  0  0  0
  -24.1810  -36.7600   23.0670 C   0  0  0  0  0  1  0  0  0  0  0  0
  -25.4200  -36.3520   23.8800 C   0  0  0  0  0  3  0  0  0  0  0  0
  -27.5560  -37.2310   24.7130 C   0  0  0  0  0  1  0  0  0  0  0  0
  -26.4550  -37.4030   23.7690 N   0  0  0  0  0  0  0  0  0  0  0  0
  -26.0510  -38.3240   23.9160 H   0  0  0  0  0  0  0  0  0  0  0  0
  4  8  1  0
  4  1  1  0
  5  1  1  0
  5  2  1  0
  6  3  1  0
  6 18  1  0
  6  2  1  0
  7  3  1  0
  7  5  1  0
  8 48  1  0
  8  7  1  0
  8  9  1  6
 10 18  1  0
 11 16  1  0
 12 13  1  0
 12 11  1  0
 14 13  1  0
 14 23  1  0
 14 15  1  0
 16 10  1  0
 16 15  1  0
 17 10  2  0
 18 19  1  0
 20 21  2  0
 21 40  1  0
 22 21  1  0
 22 25  1  0
 23 20  1  0
 23 24  1  0
 24 22  2  0
 25 26  1  0
 26 27  2  0
 28 31  1  0
 28 27  1  0
 29 28  2  0
 30 29  1  0
 30 25  2  0
 31 32  1  0
 32 33  1  0
 33 34  2  0
 35 34  1  0
 35 39  1  0
 36 35  2  0
 37 32  2  0
 37 36  1  0
 38 37  1  0
 40 41  1  0
 41 44  1  0
 41 43  1  0
 42 40  2  0
 45 46  1  0
 45 20  1  0
 47 45  1  0
 49 50  1  0
 49 48  1  0
 51 52  1  0
 51 50  1  0
 53 64  2  0
 54 52  1  0
 54 59  1  0
 55 63  1  0
 55 65  1  0
 56 62  1  0
 56 58  1  0
 57 63  1  0
 58 57  1  0
 59 58  2  0
 60 61  1  0
 60 54  2  0
 61 56  2  0
 62 55  1  0
 63 53  1  0
 65 67  2  0
 66 65  1  0
 68 66  1  0
 69 78  2  0
 69 74  1  0
 70 66  1  0
 70 74  1  0
 71 70  1  0
 72 73  1  0
 72 71  1  0
 73 69  1  0
 74 75  2  0
 75 76  1  0
 77 76  2  0
 78 77  1  0
 79 53  1  0
 79 84  1  0
 79 80  1  0
 80 83  1  1
 80 81  1  0
 82 80  1  0
 84 87  1  0
 85 89  1  0
 85 84  1  0
 86 85  2  0
 89 88  1  0
 91 89  1  0
 91 92  1  0
 91 90  1  0
M  ISO  4  10 100  18 100  51 101  52 101
M  END
>  <TORSDO>  (70) 
F 20

>  <SCORE>  (70) 
-13.748

>  <name>  (70) 
69

>  <ligand_id>  (70) 
69

>  <original_smiles>  (70) 
[H]c1c([H])c([H])c2c(c1[H])C([H])([H])C([H])([H])C([H])([H])C2([H])N([H])C(=O)C1([H])N(C(=O)C([H])(N([H])C(=O)C([H])(N([H])C([H])([H])[H])C([H])([H])[H])C(C([H])([H])[H])(C([H])([H])[H])C([H])([H])[H])C([H])([H])c2c([H])c(OC([H])([H])C([H])([H])C([H])([H])C([H])([H])[N+]3([H])C([H])([H])C([H])([H])C4([H])C([H])([H])C([H])(N([H])C(=O)N5C([H])([H])C([H])([H])C([H])([H])C([H])(n6nc(-c7c([H])c([H])c(Oc8c([H])c([H])c(F)c([H])c8F)c([H])c7[H])c(C(=O)N([H])[H])c6N([H])[H])C5([H])[H])C([H])([H])C43[H])c([H])c([H])c2C1([H])[H]

>  <smiles>  (70) 
[H]c1c([H])c([H])c2c(c1[H])C([H])([H])C([H])([H])C([H])([H])C2([H])N([H])C(=O)C1([H])N(C(=O)C([H])(N([H])C(=O)C([H])(N([H])C([H])([H])[H])C([H])([H])[H])C(C([H])([H])[H])(C([H])([H])[H])C([H])([H])[H])C([H])([H])c2c([H])c(OC([H])([H])C([H])([H])C([H])([H])C([H])([H])[N+]3([H])C([H])([H])C([H])([H])C4([H])C([H])([H])C([H])(N([H])C(=O)N5C([H])([H])C([H])([H])C([H])([H])C([H])(n6nc(-c7c([H])c([H])c(Oc8c([H])c([H])c(F)c([H])c8F)c([H])c7[H])c(C(=O)N([H])[H])c6N([H])[H])C5([H])[H])C([H])([H])C43[H])c([H])c([H])c2C1([H])[H]

$$$$
70:0:0
     RDKit          3D

 94103  0  0  1  0  0  0  0  0999 V2000
  -29.7100  -23.4030   22.9840 C   0  0  0  0  0  2  0  0  0  0  0  0
  -28.8190  -24.5990   22.6150 C   0  0  0  0  0  2  0  0  0  0  0  0
  -30.4470  -22.8240   21.7600 C   0  0  0  0  0  2  0  0  0  0  0  0
  -27.8660  -24.2630   21.4520 C   0  0  0  0  0  2  0  0  0  0  0  0
  -29.4640  -22.4590   20.6290 C   0  0  0  0  0  3  0  0  0  0  0  0
  -28.6430  -23.8230   20.1880 C   0  0  0  0  0  3  0  0  0  0  0  0
  -30.0740  -21.2700   19.6950 C   0  0  0  0  0  2  0  0  0  0  0  0
  -29.7650  -19.8210   20.1400 N   0  0  0  0  0  4  0  0  0  0  0  0
  -28.8080  -19.6530   19.8710 H   0  0  0  0  0  0  0  0  0  0  0  0
  -29.7740  -19.8330   21.1470 H   0  0  0  0  0  0  0  0  0  0  0  0
  -30.5760  -18.5610   19.7380 C   0  0  0  0  0  2  0  0  0  0  0  0
  -31.2970  -14.8390   19.5990 C   0  0  0  0  0  0  0  0  0  0  0  0
  -30.9000  -12.6100   18.5030 C   0  0  0  0  0  2  0  0  0  0  0  0
  -29.8150  -12.7400   17.4110 C   0  0  0  0  0  2  0  0  0  0  0  0
  -28.4070  -12.5840   18.0160 C   0  0  0  0  0  2  0  0  0  0  0  0
  -28.2180  -13.4400   19.2970 C   0  0  0  0  0  3  0  0  0  0  0  0
  -29.4000  -13.2650   20.2710 C   0  0  0  0  0  2  0  0  0  0  0  0
  -30.6330  -13.6260   19.5520 N   0  0  0  0  0  0  0  0  0  0  0  0
  -32.2940  -15.0180   18.8900 O   0  0  0  0  0  0  0  0  0  0  0  0
  -30.0920  -16.2240   22.6960 C   0  0  0  0  0  2  0  0  0  0  0  0
  -29.7490  -17.4650   21.8960 C   0  0  0  0  0  2  0  0  0  0  0  0
  -31.2150  -15.5930   21.8880 C   0  0  0  0  0  2  0  0  0  0  0  0
  -30.0750  -17.1600   20.4140 C   0  0  0  0  0  3  0  0  0  0  0  0
  -30.8670  -15.8240   20.4840 N   0  0  0  0  0  0  0  0  0  0  0  0
  -25.9880  -14.0790   20.3950 C   0  0  0  0  0  0  0  0  0  0  0  0
  -24.9420  -13.3260   20.8530 C   0  0  0  0  0  0  0  0  0  0  0  0
  -25.3170  -11.9630   20.6510 C   0  0  0  0  0  0  0  0  0  0  0  0
  -26.9360  -13.1750   19.9430 N   0  0  0  0  0  0  0  0  0  0  0  0
  -26.5460  -11.8910   20.1560 N   0  0  0  0  0  0  0  0  0  0  0  0
  -24.5520  -10.7240   20.8450 C   0  0  0  0  0  0  0  0  0  0  0  0
  -24.9770   -9.7250   21.7490 C   0  0  0  0  0  3  0  0  0  0  0  0
  -24.2140   -8.5520   21.9320 C   0  0  0  0  0  3  0  0  0  0  0  0
  -23.0090   -8.3700   21.2110 C   0  0  0  0  0  0  0  0  0  0  0  0
  -22.6020   -9.3570   20.2960 C   0  0  0  0  0  3  0  0  0  0  0  0
  -23.3660  -10.5210   20.1110 C   0  0  0  0  0  3  0  0  0  0  0  0
  -22.2160   -7.2520   21.3060 O   0  0  0  0  0  0  0  0  0  0  0  0
  -22.0700   -6.5720   22.4880 C   0  0  0  0  0  0  0  0  0  0  0  0
  -21.6510   -7.2170   23.6730 C   0  0  0  0  0  3  0  0  0  0  0  0
  -21.4450   -6.4660   24.8480 C   0  0  0  0  0  3  0  0  0  0  0  0
  -21.6470   -5.0730   24.8390 C   0  0  0  0  0  0  0  0  0  0  0  0
  -22.0590   -4.4280   23.6600 C   0  0  0  0  0  3  0  0  0  0  0  0
  -22.2660   -5.1750   22.4870 C   0  0  0  0  0  0  0  0  0  0  0  0
  -22.6420   -4.5460   21.3480 F   0  0  0  0  0  0  0  0  0  0  0  0
  -21.4430   -4.3510   25.9660 F   0  0  0  0  0  0  0  0  0  0  0  0
  -23.6260  -13.8430   21.3600 C   0  0  0  0  0  0  0  0  0  0  0  0
  -23.0150  -13.1420   22.3090 N   0  0  0  0  0  0  0  0  0  0  0  0
  -23.1550  -14.9030   20.9490 O   0  0  0  0  0  0  0  0  0  0  0  0
  -23.4120  -12.2830   22.6600 H   0  0  0  0  0  0  0  0  0  0  0  0
  -22.1390  -13.4690   22.6890 H   0  0  0  0  0  0  0  0  0  0  0  0
  -26.2040  -15.4500   20.3040 N   0  0  0  0  0  0  0  0  0  0  0  0
  -25.4960  -16.1230   20.5770 H   0  0  0  0  0  0  0  0  0  0  0  0
  -27.0190  -15.8780   19.8870 H   0  0  0  0  0  0  0  0  0  0  0  0
  -29.2810  -25.1660   19.5300 C   0  0  0  0  0  2  0  0  0  0  0  0
  -29.0450  -26.5650   20.0430 O   0  0  0  0  0  0  0  0  0  0  0  0
  -24.7910  -31.5690   23.0620 C   0  0  0  0  0  0  0  0  0  0  0  0
  -27.8550  -27.3170   19.9380 C   0  0  0  0  0  0  0  0  0  0  0  0
  -23.7640  -30.1720   21.3020 C   0  0  0  0  0  3  0  0  0  0  0  0
  -25.3840  -28.7820   19.8790 C   0  0  0  0  0  0  0  0  0  0  0  0
  -26.2810  -30.6610   21.2590 C   0  0  0  0  0  2  0  0  0  0  0  0
  -26.4850  -29.3190   20.5550 C   0  0  0  0  0  0  0  0  0  0  0  0
  -27.7190  -28.5970   20.5730 C   0  0  0  0  0  3  0  0  0  0  0  0
  -26.7280  -26.8330   19.2420 C   0  0  0  0  0  3  0  0  0  0  0  0
  -25.5100  -27.5490   19.2130 C   0  0  0  0  0  3  0  0  0  0  0  0
  -24.0890  -29.5730   19.9060 C   0  0  0  0  0  2  0  0  0  0  0  0
  -24.9600  -30.8190   21.9330 N   0  0  0  0  0  0  0  0  0  0  0  0
  -23.6680  -31.7480   23.5550 O   0  0  0  0  0  0  0  0  0  0  0  0
  -23.1270  -29.0730   22.1860 C   0  0  0  0  0  0  0  0  0  0  0  0
  -21.8090  -28.8570   22.0280 N   0  0  0  0  0  0  0  0  0  0  0  0
  -23.8180  -28.4200   22.9720 O   0  0  0  0  0  0  0  0  0  0  0  0
  -21.3100  -29.4410   21.3740 H   0  0  0  0  0  0  0  0  0  0  0  0
  -18.4650  -27.5380   22.4340 C   0  0  0  0  0  0  0  0  0  0  0  0
  -21.0160  -27.8390   22.7210 C   0  0  0  0  0  3  0  0  0  0  0  0
  -21.1520  -26.4630   22.0290 C   0  0  0  0  0  2  0  0  0  0  0  0
  -20.0550  -26.1980   20.9930 C   0  0  0  0  0  2  0  0  0  0  0  0
  -18.6730  -26.2550   21.6490 C   0  0  0  0  0  2  0  0  0  0  0  0
  -19.5660  -28.2900   22.9240 C   0  0  0  0  0  0  0  0  0  0  0  0
  -19.3180  -29.4930   23.6190 C   0  0  0  0  0  3  0  0  0  0  0  0
  -18.0020  -29.9460   23.8290 C   0  0  0  0  0  3  0  0  0  0  0  0
  -16.9140  -29.1890   23.3560 C   0  0  0  0  0  3  0  0  0  0  0  0
  -17.1470  -27.9870   22.6640 C   0  0  0  0  0  3  0  0  0  0  0  0
  -25.9960  -32.2550   23.7770 C   0  0  0  0  0  3  0  0  0  0  0  0
  -26.4900  -31.4710   25.0550 C   0  0  1  0  0  0  0  0  0  0  0  0
  -25.3560  -31.1050   26.0390 C   0  0  0  0  0  1  0  0  0  0  0  0
  -27.2020  -30.1590   24.6490 C   0  0  0  0  0  1  0  0  0  0  0  0
  -27.5320  -32.3200   25.8210 C   0  0  0  0  0  1  0  0  0  0  0  0
  -25.5820  -33.6200   24.1400 N   0  0  0  0  0  0  0  0  0  0  0  0
  -25.8880  -34.7210   23.4420 C   0  0  0  0  0  0  0  0  0  0  0  0
  -26.6150  -34.6990   22.4450 O   0  0  0  0  0  0  0  0  0  0  0  0
  -24.9370  -33.7040   24.9120 H   0  0  0  0  0  0  0  0  0  0  0  0
  -24.0770  -36.4240   23.0580 C   0  0  0  0  0  1  0  0  0  0  0  0
  -25.2940  -36.0590   23.9230 C   0  0  0  0  0  3  0  0  0  0  0  0
  -27.3220  -37.0310   24.9080 C   0  0  0  0  0  1  0  0  0  0  0  0
  -26.2650  -37.1740   23.9100 N   0  0  0  0  0  0  0  0  0  0  0  0
  -25.7970  -38.0620   24.0690 H   0  0  0  0  0  0  0  0  0  0  0  0
  2  1  1  0
  3  1  1  0
  4  2  1  0
  5  7  1  0
  5  3  1  0
  6 53  1  0
  6  5  1  0
  6  4  1  0
  7  8  1  0
  8 10  1  0
  9  8  1  0
 11  8  1  0
 12 24  1  0
 13 18  1  0
 14 15  1  0
 14 13  1  0
 16 15  1  0
 16 28  1  0
 16 17  1  0
 18 12  1  0
 18 17  1  0
 19 12  2  0
 21 20  1  0
 22 20  1  0
 23 11  1  0
 23 24  1  0
 23 21  1  0
 24 22  1  0
 25 26  2  0
 26 45  1  0
 27 30  1  0
 27 26  1  0
 28 29  1  0
 28 25  1  0
 29 27  2  0
 30 31  1  0
 31 32  2  0
 33 36  1  0
 33 32  1  0
 34 33  2  0
 35 34  1  0
 35 30  2  0
 36 37  1  0
 37 38  1  0
 38 39  2  0
 40 39  1  0
 40 44  1  0
 41 40  2  0
 42 37  2  0
 42 41  1  0
 43 42  1  0
 45 46  1  0
 46 48  1  0
 46 49  1  0
 47 45  2  0
 50 25  1  0
 50 51  1  0
 52 50  1  0
 53 54  1  0
 55 66  2  0
 56 54  1  0
 56 61  1  0
 57 65  1  0
 57 67  1  0
 58 64  1  0
 58 60  1  0
 59 65  1  0
 60 61  2  0
 60 59  1  0
 62 56  2  0
 63 62  1  0
 63 58  2  0
 64 57  1  0
 65 55  1  0
 67 69  2  0
 68 67  1  0
 70 68  1  0
 71 80  2  0
 71 76  1  0
 72 68  1  0
 72 76  1  0
 73 72  1  0
 74 75  1  0
 74 73  1  0
 75 71  1  0
 76 77  2  0
 77 78  1  0
 79 78  2  0
 80 79  1  0
 81 55  1  0
 81 86  1  0
 81 82  1  0
 82 85  1  1
 82 83  1  0
 84 82  1  0
 86 89  1  0
 87 91  1  0
 87 86  1  0
 88 87  2  0
 91 90  1  0
 93 91  1  0
 93 94  1  0
 93 92  1  0
M  ISO  4  12 100  24 100  53 101  54 101
M  END
>  <TORSDO>  (71) 
F 20

>  <SCORE>  (71) 
-10.510

>  <name>  (71) 
70

>  <ligand_id>  (71) 
70

>  <original_smiles>  (71) 
[H]c1c([H])c([H])c2c(c1[H])C([H])([H])C([H])([H])C([H])([H])C2([H])N([H])C(=O)C1([H])N(C(=O)C([H])(N([H])C(=O)C([H])(N([H])C([H])([H])[H])C([H])([H])[H])C(C([H])([H])[H])(C([H])([H])[H])C([H])([H])[H])C([H])([H])c2c([H])c(OC([H])([H])C3([H])C([H])([H])C([H])([H])C([H])([H])C([H])([H])C3([H])C([H])([H])[N+]([H])([H])C([H])([H])C3([H])N(C(=O)N4C([H])([H])C([H])([H])C([H])([H])C([H])(n5nc(-c6c([H])c([H])c(Oc7c([H])c([H])c(F)c([H])c7F)c([H])c6[H])c(C(=O)N([H])[H])c5N([H])[H])C4([H])[H])C([H])([H])C([H])([H])C3([H])[H])c([H])c([H])c2C1([H])[H]

>  <smiles>  (71) 
[H]c1c([H])c([H])c2c(c1[H])C([H])([H])C([H])([H])C([H])([H])C2([H])N([H])C(=O)C1([H])N(C(=O)C([H])(N([H])C(=O)C([H])(N([H])C([H])([H])[H])C([H])([H])[H])C(C([H])([H])[H])(C([H])([H])[H])C([H])([H])[H])C([H])([H])c2c([H])c(OC([H])([H])C3([H])C([H])([H])C([H])([H])C([H])([H])C([H])([H])C3([H])C([H])([H])[N+]([H])([H])C([H])([H])C3([H])N(C(=O)N4C([H])([H])C([H])([H])C([H])([H])C([H])(n5nc(-c6c([H])c([H])c(Oc7c([H])c([H])c(F)c([H])c7F)c([H])c6[H])c(C(=O)N([H])[H])c5N([H])[H])C4([H])[H])C([H])([H])C([H])([H])C3([H])[H])c([H])c([H])c2C1([H])[H]

$$$$
71:0:0
     RDKit          3D

 89 97  0  0  1  0  0  0  0  0999 V2000
  -29.5390  -21.0780   20.4790 C   0  0  0  0  0  3  0  0  0  0  0  0
  -28.8000  -22.1970   20.1300 C   0  0  0  0  0  3  0  0  0  0  0  0
  -29.3000  -19.5430   20.1110 C   0  0  0  0  0  2  0  0  0  0  0  0
  -30.9750  -17.5090   22.8260 C   0  0  0  0  0  3  0  0  0  0  0  0
  -30.7570  -18.6860   22.0360 C   0  0  0  0  0  3  0  0  0  0  0  0
  -30.3320  -16.4770   22.2740 C   0  0  0  0  0  3  0  0  0  0  0  0
  -29.9850  -18.4030   20.9720 C   0  0  0  0  0  0  0  0  0  0  0  0
  -29.6610  -16.8340   20.9590 C   0  0  0  0  0  3  0  0  0  0  0  0
  -30.8270  -14.7090   19.8530 C   0  0  0  0  0  0  0  0  0  0  0  0
  -30.3550  -12.5420   18.7140 C   0  0  0  0  0  2  0  0  0  0  0  0
  -29.3260  -12.7430   17.5830 C   0  0  0  0  0  2  0  0  0  0  0  0
  -27.8950  -12.6110   18.1370 C   0  0  0  0  0  2  0  0  0  0  0  0
  -27.6740  -13.4290   19.4390 C   0  0  0  0  0  3  0  0  0  0  0  0
  -28.8250  -13.2460   20.4500 C   0  0  0  0  0  2  0  0  0  0  0  0
  -30.0720  -13.5650   19.7480 N   0  0  0  0  0  0  0  0  0  0  0  0
  -31.9910  -14.7050   19.4550 O   0  0  0  0  0  0  0  0  0  0  0  0
  -30.2090  -15.9470   19.8650 N   0  0  0  0  0  0  0  0  0  0  0  0
  -30.7150  -16.5360   19.2220 H   0  0  0  0  0  0  0  0  0  0  0  0
  -25.3720  -14.0460   20.3860 C   0  0  0  0  0  0  0  0  0  0  0  0
  -24.3200  -13.2840   20.8150 C   0  0  0  0  0  0  0  0  0  0  0  0
  -24.7430  -11.9240   20.6990 C   0  0  0  0  0  0  0  0  0  0  0  0
  -26.3690  -13.1520   20.0340 N   0  0  0  0  0  0  0  0  0  0  0  0
  -26.0040  -11.8670   20.2880 N   0  0  0  0  0  0  0  0  0  0  0  0
  -24.0030  -10.6720   20.9030 C   0  0  0  0  0  0  0  0  0  0  0  0
  -24.4700   -9.6700   21.7820 C   0  0  0  0  0  3  0  0  0  0  0  0
  -23.7280   -8.4860   21.9750 C   0  0  0  0  0  3  0  0  0  0  0  0
  -22.5050   -8.2930   21.2900 C   0  0  0  0  0  0  0  0  0  0  0  0
  -22.0570   -9.2820   20.3970 C   0  0  0  0  0  3  0  0  0  0  0  0
  -22.7990  -10.4600   20.2010 C   0  0  0  0  0  3  0  0  0  0  0  0
  -21.7310   -7.1610   21.3950 O   0  0  0  0  0  0  0  0  0  0  0  0
  -21.7160   -6.4050   22.5400 C   0  0  0  0  0  0  0  0  0  0  0  0
  -21.3720   -6.9560   23.7950 C   0  0  0  0  0  3  0  0  0  0  0  0
  -21.3030   -6.1260   24.9320 C   0  0  0  0  0  3  0  0  0  0  0  0
  -21.5650   -4.7480   24.8160 C   0  0  0  0  0  0  0  0  0  0  0  0
  -21.9020   -4.1970   23.5650 C   0  0  0  0  0  3  0  0  0  0  0  0
  -21.9740   -5.0240   22.4320 C   0  0  0  0  0  0  0  0  0  0  0  0
  -22.2780   -4.4860   21.2270 F   0  0  0  0  0  0  0  0  0  0  0  0
  -21.4940   -3.9490   25.9050 F   0  0  0  0  0  0  0  0  0  0  0  0
  -22.9630  -13.7820   21.2170 C   0  0  0  0  0  0  0  0  0  0  0  0
  -22.3010  -13.0820   22.1320 N   0  0  0  0  0  0  0  0  0  0  0  0
  -22.5020  -14.8260   20.7560 O   0  0  0  0  0  0  0  0  0  0  0  0
  -22.6920  -12.2400   22.5280 H   0  0  0  0  0  0  0  0  0  0  0  0
  -21.3930  -13.3940   22.4420 H   0  0  0  0  0  0  0  0  0  0  0  0
  -25.5590  -15.4170   20.2450 N   0  0  0  0  0  0  0  0  0  0  0  0
  -24.8270  -16.0930   20.4340 H   0  0  0  0  0  0  0  0  0  0  0  0
  -26.3950  -15.8370   19.8570 H   0  0  0  0  0  0  0  0  0  0  0  0
  -29.1060  -23.7350   20.4240 C   0  0  0  0  0  3  0  0  0  0  0  0
  -27.9910  -24.8600   20.1090 C   0  0  0  0  0  3  0  0  0  0  0  0
  -28.2550  -26.3380   20.2440 O   0  0  0  0  0  0  0  0  0  0  0  0
  -24.5530  -31.8490   23.1900 C   0  0  0  0  0  0  0  0  0  0  0  0
  -27.1590  -27.2320   20.1720 C   0  0  0  0  0  0  0  0  0  0  0  0
  -23.3500  -30.4310   21.5690 C   0  0  0  0  0  3  0  0  0  0  0  0
  -24.8020  -28.8780   20.1470 C   0  0  0  0  0  0  0  0  0  0  0  0
  -25.8930  -30.7470   21.3780 C   0  0  0  0  0  2  0  0  0  0  0  0
  -25.9760  -29.3620   20.7380 C   0  0  0  0  0  0  0  0  0  0  0  0
  -27.1590  -28.5540   20.7360 C   0  0  0  0  0  3  0  0  0  0  0  0
  -25.9590  -26.8200   19.5470 C   0  0  0  0  0  3  0  0  0  0  0  0
  -24.7990  -27.6160   19.5390 C   0  0  0  0  0  3  0  0  0  0  0  0
  -23.5620  -29.7490   20.1930 C   0  0  0  0  0  2  0  0  0  0  0  0
  -24.6180  -31.0260   22.1010 N   0  0  0  0  0  0  0  0  0  0  0  0
  -23.4680  -32.1260   23.7250 O   0  0  0  0  0  0  0  0  0  0  0  0
  -22.6940  -29.4170   22.5380 C   0  0  0  0  0  0  0  0  0  0  0  0
  -21.3670  -29.2380   22.4250 N   0  0  0  0  0  0  0  0  0  0  0  0
  -23.3790  -28.7960   23.3560 O   0  0  0  0  0  0  0  0  0  0  0  0
  -20.8720  -29.7870   21.7380 H   0  0  0  0  0  0  0  0  0  0  0  0
  -17.9960  -28.0380   22.9610 C   0  0  0  0  0  0  0  0  0  0  0  0
  -20.5560  -28.3050   23.2110 C   0  0  0  0  0  3  0  0  0  0  0  0
  -20.6570  -26.8680   22.6450 C   0  0  0  0  0  2  0  0  0  0  0  0
  -19.5470  -26.5340   21.6430 C   0  0  0  0  0  2  0  0  0  0  0  0
  -18.1710  -26.6840   22.2960 C   0  0  0  0  0  2  0  0  0  0  0  0
  -19.1150  -28.8050   23.3770 C   0  0  0  0  0  0  0  0  0  0  0  0
  -18.8980  -30.0730   23.9590 C   0  0  0  0  0  3  0  0  0  0  0  0
  -17.5940  -30.5700   24.1350 C   0  0  0  0  0  3  0  0  0  0  0  0
  -16.4870  -29.7980   23.7370 C   0  0  0  0  0  3  0  0  0  0  0  0
  -16.6900  -28.5360   23.1520 C   0  0  0  0  0  3  0  0  0  0  0  0
  -25.8310  -32.4960   23.8010 C   0  0  0  0  0  3  0  0  0  0  0  0
  -26.3690  -31.7280   25.0710 C   0  0  1  0  0  0  0  0  0  0  0  0
  -25.2890  -31.4780   26.1490 C   0  0  0  0  0  1  0  0  0  0  0  0
  -26.9670  -30.3580   24.6750 C   0  0  0  0  0  1  0  0  0  0  0  0
  -27.5150  -32.5360   25.7240 C   0  0  0  0  0  1  0  0  0  0  0  0
  -25.5070  -33.8900   24.1380 N   0  0  0  0  0  0  0  0  0  0  0  0
  -25.8310  -34.9520   23.3880 C   0  0  0  0  0  0  0  0  0  0  0  0
  -26.5060  -34.8620   22.3580 O   0  0  0  0  0  0  0  0  0  0  0  0
  -24.9100  -34.0330   24.9390 H   0  0  0  0  0  0  0  0  0  0  0  0
  -24.0980  -36.7400   23.0380 C   0  0  0  0  0  1  0  0  0  0  0  0
  -25.3320  -36.3320   23.8560 C   0  0  0  0  0  3  0  0  0  0  0  0
  -27.4540  -37.2200   24.7180 C   0  0  0  0  0  1  0  0  0  0  0  0
  -26.3600  -37.3920   23.7650 N   0  0  0  0  0  0  0  0  0  0  0  0
  -25.9460  -38.3070   23.9210 H   0  0  0  0  0  0  0  0  0  0  0  0
  2 47  1  0
  2  1  2  0
  3  1  1  0
  3  7  1  0
  5  4  1  0
  6  4  2  0
  7  5  2  0
  8 17  1  0
  8  7  1  0
  8  6  1  0
  9 17  1  0
 10 15  1  0
 11 12  1  0
 11 10  1  0
 13 12  1  0
 13 22  1  0
 13 14  1  0
 15  9  1  0
 15 14  1  0
 16  9  2  0
 18 17  1  0
 19 20  2  0
 20 39  1  0
 21 20  1  0
 21 24  1  0
 22 23  1  0
 22 19  1  0
 23 21  2  0
 24 25  1  0
 25 26  2  0
 27 30  1  0
 27 26  1  0
 28 27  2  0
 29 28  1  0
 29 24  2  0
 30 31  1  0
 31 32  1  0
 32 33  2  0
 34 33  1  0
 34 38  1  0
 35 34  2  0
 36 31  2  0
 36 35  1  0
 37 36  1  0
 39 40  1  0
 40 43  1  0
 40 42  1  0
 41 39  2  0
 44 19  1  0
 44 45  1  0
 46 44  1  0
 48 49  1  0
 48 47  2  0
 50 61  2  0
 51 49  1  0
 51 56  1  0
 52 60  1  0
 52 62  1  0
 53 59  1  0
 53 55  1  0
 54 60  1  0
 55 54  1  0
 56 55  2  0
 57 51  2  0
 58 57  1  0
 58 53  2  0
 59 52  1  0
 60 50  1  0
 62 64  2  0
 63 62  1  0
 65 63  1  0
 66 75  2  0
 66 71  1  0
 67 63  1  0
 67 71  1  0
 68 67  1  0
 69 70  1  0
 69 68  1  0
 70 66  1  0
 71 72  2  0
 72 73  1  0
 74 73  2  0
 75 74  1  0
 76 50  1  0
 76 81  1  0
 76 77  1  0
 77 80  1  1
 77 78  1  0
 79 77  1  0
 81 84  1  0
 82 86  1  0
 82 81  1  0
 83 82  2  0
 86 85  1  0
 88 86  1  0
 88 89  1  0
 88 87  1  0
M  ISO  4   9 100  17 100  48 101  49 101
M  END
>  <TORSDO>  (72) 
F 20

>  <SCORE>  (72) 
-12.979

>  <name>  (72) 
71

>  <ligand_id>  (72) 
71

>  <original_smiles>  (72) 
[H]C1=C([H])C([H])(N([H])C(=O)N2C([H])([H])C([H])([H])C([H])([H])C([H])(n3nc(-c4c([H])c([H])c(Oc5c([H])c([H])c(F)c([H])c5F)c([H])c4[H])c(C(=O)N([H])[H])c3N([H])[H])C2([H])[H])C(C([H])([H])C([H])=C([H])C([H])([H])C([H])([H])Oc2c([H])c([H])c3c(c2[H])C([H])([H])N(C(=O)C([H])(N([H])C(=O)C([H])(N([H])C([H])([H])[H])C([H])([H])[H])C(C([H])([H])[H])(C([H])([H])[H])C([H])([H])[H])C([H])(C(=O)N([H])C2([H])c4c([H])c([H])c([H])c([H])c4C([H])([H])C([H])([H])C2([H])[H])C3([H])[H])=C1[H]

>  <smiles>  (72) 
[H]C1=C([H])C([H])(N([H])C(=O)N2C([H])([H])C([H])([H])C([H])([H])C([H])(n3nc(-c4c([H])c([H])c(Oc5c([H])c([H])c(F)c([H])c5F)c([H])c4[H])c(C(=O)N([H])[H])c3N([H])[H])C2([H])[H])C(C([H])([H])C([H])=C([H])C([H])([H])C([H])([H])Oc2c([H])c([H])c3c(c2[H])C([H])([H])N(C(=O)C([H])(N([H])C(=O)C([H])(N([H])C([H])([H])[H])C([H])([H])[H])C(C([H])([H])[H])(C([H])([H])[H])C([H])([H])[H])C([H])(C(=O)N([H])C2([H])c4c([H])c([H])c([H])c([H])c4C([H])([H])C([H])([H])C2([H])[H])C3([H])[H])=C1[H]

$$$$
72:0:0
     RDKit          3D

107115  0  0  1  0  0  0  0  0999 V2000
  -29.4320  -18.5150   20.5820 C   0  0  0  0  0  3  0  0  0  0  0  0
  -31.3710  -17.6250   19.4650 C   0  0  0  0  0  3  0  0  0  0  0  0
  -29.7760  -19.8970   20.2370 C   0  0  0  0  0  0  0  0  0  0  0  0
  -31.7730  -18.9350   19.1320 C   0  0  0  0  0  0  0  0  0  0  0  0
  -31.0060  -20.0760   19.5140 C   0  0  0  0  0  0  0  0  0  0  0  0
  -30.2180  -17.3410   20.2260 C   0  0  0  0  0  0  0  0  0  0  0  0
  -33.0820  -19.0650   18.3580 C   0  0  0  0  0  1  0  0  0  0  0  0
  -30.6300  -14.7440   20.4300 C   0  0  0  0  0  0  0  0  0  0  0  0
  -30.4240  -12.4490   19.4780 C   0  0  0  0  0  2  0  0  0  0  0  0
  -29.5070  -12.4970   18.2370 C   0  0  0  0  0  2  0  0  0  0  0  0
  -28.0340  -12.3250   18.6530 C   0  0  0  0  0  2  0  0  0  0  0  0
  -27.6390  -13.2350   19.8480 C   0  0  0  0  0  3  0  0  0  0  0  0
  -28.6840  -13.1900   20.9830 C   0  0  0  0  0  2  0  0  0  0  0  0
  -29.9840  -13.5290   20.3930 N   0  0  0  0  0  0  0  0  0  0  0  0
  -31.8350  -14.7710   20.1680 O   0  0  0  0  0  0  0  0  0  0  0  0
  -29.8860  -15.9200   20.5700 N   0  0  0  0  0  0  0  0  0  0  0  0
  -28.9370  -15.7630   20.8730 H   0  0  0  0  0  0  0  0  0  0  0  0
  -25.2510  -13.8210   20.5700 C   0  0  0  0  0  0  0  0  0  0  0  0
  -24.1800  -13.0450   20.9220 C   0  0  0  0  0  0  0  0  0  0  0  0
  -24.6400  -11.6930   20.8770 C   0  0  0  0  0  0  0  0  0  0  0  0
  -26.2930  -12.9420   20.3290 N   0  0  0  0  0  0  0  0  0  0  0  0
  -25.9340  -11.6560   20.5770 N   0  0  0  0  0  0  0  0  0  0  0  0
  -23.9090  -10.4290   21.0430 C   0  0  0  0  0  0  0  0  0  0  0  0
  -24.3630   -9.4200   21.9200 C   0  0  0  0  0  3  0  0  0  0  0  0
  -23.6300   -8.2250   22.0760 C   0  0  0  0  0  3  0  0  0  0  0  0
  -22.4280   -8.0290   21.3550 C   0  0  0  0  0  0  0  0  0  0  0  0
  -21.9930   -9.0270   20.4660 C   0  0  0  0  0  3  0  0  0  0  0  0
  -22.7270  -10.2140   20.3070 C   0  0  0  0  0  3  0  0  0  0  0  0
  -21.6640   -6.8890   21.4240 O   0  0  0  0  0  0  0  0  0  0  0  0
  -21.6860   -6.0750   22.5280 C   0  0  0  0  0  0  0  0  0  0  0  0
  -21.4010   -6.5640   23.8220 C   0  0  0  0  0  3  0  0  0  0  0  0
  -21.3650   -5.6800   24.9180 C   0  0  0  0  0  3  0  0  0  0  0  0
  -21.6040   -4.3060   24.7230 C   0  0  0  0  0  0  0  0  0  0  0  0
  -21.8820   -3.8150   23.4350 C   0  0  0  0  0  3  0  0  0  0  0  0
  -21.9190   -4.6970   22.3400 C   0  0  0  0  0  0  0  0  0  0  0  0
  -22.1660   -4.2160   21.0990 F   0  0  0  0  0  0  0  0  0  0  0  0
  -21.5630   -3.4550   25.7740 F   0  0  0  0  0  0  0  0  0  0  0  0
  -22.7820  -13.5230   21.1860 C   0  0  0  0  0  0  0  0  0  0  0  0
  -22.0470  -12.8220   22.0420 N   0  0  0  0  0  0  0  0  0  0  0  0
  -22.3510  -14.5530   20.6710 O   0  0  0  0  0  0  0  0  0  0  0  0
  -22.4100  -11.9880   22.4800 H   0  0  0  0  0  0  0  0  0  0  0  0
  -21.1090  -13.1240   22.2630 H   0  0  0  0  0  0  0  0  0  0  0  0
  -25.4190  -15.1930   20.4100 N   0  0  0  0  0  0  0  0  0  0  0  0
  -24.6490  -15.8450   20.5140 H   0  0  0  0  0  0  0  0  0  0  0  0
  -26.2620  -15.6310   20.0630 H   0  0  0  0  0  0  0  0  0  0  0  0
  -28.9530  -21.1200   20.7840 C   0  0  0  0  0  0  0  0  0  0  0  0
  -28.8530  -22.3360   20.1260 N   0  0  0  0  0  0  0  0  0  0  0  0
  -28.4040  -20.9870   21.8770 O   0  0  0  0  0  0  0  0  0  0  0  0
  -29.1680  -22.3430   19.1670 H   0  0  0  0  0  0  0  0  0  0  0  0
  -28.3640  -23.6880   20.6600 C   0  0  0  0  0  3  0  0  0  0  0  0
  -28.3950  -24.9890   19.6930 C   0  0  0  0  0  3  0  0  0  0  0  0
  -28.3390  -26.4010   20.2100 O   0  0  0  0  0  0  0  0  0  0  0  0
  -24.6330  -31.8520   23.1980 C   0  0  0  0  0  0  0  0  0  0  0  0
  -27.2180  -27.2560   20.1290 C   0  0  0  0  0  0  0  0  0  0  0  0
  -23.4300  -30.4760   21.5390 C   0  0  0  0  0  3  0  0  0  0  0  0
  -24.8750  -28.9220   20.1060 C   0  0  0  0  0  0  0  0  0  0  0  0
  -25.9760  -30.7630   21.3800 C   0  0  0  0  0  2  0  0  0  0  0  0
  -26.0440  -29.3870   20.7190 C   0  0  0  0  0  0  0  0  0  0  0  0
  -27.2140  -28.5650   20.7190 C   0  0  0  0  0  3  0  0  0  0  0  0
  -26.0220  -26.8510   19.4960 C   0  0  0  0  0  3  0  0  0  0  0  0
  -24.8700  -27.6640   19.4850 C   0  0  0  0  0  3  0  0  0  0  0  0
  -23.6470  -29.8100   20.1550 C   0  0  0  0  0  2  0  0  0  0  0  0
  -24.6990  -31.0490   22.0950 N   0  0  0  0  0  0  0  0  0  0  0  0
  -23.5480  -32.1340   23.7270 O   0  0  0  0  0  0  0  0  0  0  0  0
  -22.7510  -29.4590   22.4890 C   0  0  0  0  0  0  0  0  0  0  0  0
  -21.4210  -29.3040   22.3640 N   0  0  0  0  0  0  0  0  0  0  0  0
  -23.4200  -28.8130   23.2990 O   0  0  0  0  0  0  0  0  0  0  0  0
  -20.9400  -29.8760   21.6840 H   0  0  0  0  0  0  0  0  0  0  0  0
  -18.0290  -28.1390   22.8490 C   0  0  0  0  0  0  0  0  0  0  0  0
  -20.5900  -28.3700   23.1270 C   0  0  0  0  0  3  0  0  0  0  0  0
  -20.6770  -26.9410   22.5410 C   0  0  0  0  0  2  0  0  0  0  0  0
  -19.5750  -26.6380   21.5230 C   0  0  0  0  0  2  0  0  0  0  0  0
  -18.1920  -26.7940   22.1620 C   0  0  0  0  0  2  0  0  0  0  0  0
  -19.1550  -28.8860   23.2870 C   0  0  0  0  0  0  0  0  0  0  0  0
  -18.9470  -30.1460   23.8900 C   0  0  0  0  0  3  0  0  0  0  0  0
  -17.6470  -30.6590   24.0560 C   0  0  0  0  0  3  0  0  0  0  0  0
  -16.5360  -29.9090   23.6350 C   0  0  0  0  0  3  0  0  0  0  0  0
  -16.7280  -28.6500   23.0370 C   0  0  0  0  0  3  0  0  0  0  0  0
  -25.9150  -32.4730   23.8330 C   0  0  0  0  0  3  0  0  0  0  0  0
  -25.5940  -33.8540   24.2250 N   0  0  0  0  0  0  0  0  0  0  0  0
  -25.9050  -34.9420   23.5090 C   0  0  0  0  0  0  0  0  0  0  0  0
  -26.5630  -34.8900   22.4660 O   0  0  0  0  0  0  0  0  0  0  0  0
  -25.0110  -33.9660   25.0410 H   0  0  0  0  0  0  0  0  0  0  0  0
  -24.1490  -36.7270   23.2650 C   0  0  0  0  0  1  0  0  0  0  0  0
  -25.4110  -36.3050   24.0330 C   0  0  0  0  0  3  0  0  0  0  0  0
  -27.5570  -37.1770   24.8460 C   0  0  0  0  0  1  0  0  0  0  0  0
  -26.4280  -37.3760   23.9420 N   0  0  0  0  0  0  0  0  0  0  0  0
  -26.0160  -38.2820   24.1460 H   0  0  0  0  0  0  0  0  0  0  0  0
  -26.4530  -31.6570   25.0730 C   0  0  1  0  0  0  0  0  0  0  0  0
  -25.3760  -31.3700   26.1450 C   0  0  0  0  0  1  0  0  0  0  0  0
  -27.0420  -30.3000   24.6240 C   0  0  0  0  0  1  0  0  0  0  0  0
  -27.6080  -32.4340   25.7480 C   0  0  0  0  0  1  0  0  0  0  0  0
  -31.5690  -21.4680   19.1690 C   0  0  0  0  0  2  0  0  0  0  0  0
  -32.2500  -22.0860   20.3270 N   0  0  0  0  0  4  0  0  0  0  0  0
  -33.1080  -21.5840   20.4910 H   0  0  0  0  0  0  0  0  0  0  0  0
  -31.6780  -21.9770   21.1480 H   0  0  0  0  0  0  0  0  0  0  0  0
  -32.5550  -23.5210   20.1460 C   0  0  0  0  0  2  0  0  0  0  0  0
  -33.3980  -24.0860   21.3030 C   0  0  0  0  0  2  0  0  0  0  0  0
  -33.6310  -25.6000   21.1720 C   0  0  0  0  0  2  0  0  0  0  0  0
  -34.5680  -26.1540   22.2540 C   0  0  0  0  0  2  0  0  0  0  0  0
  -34.7290  -27.6800   22.1620 C   0  0  0  0  0  2  0  0  0  0  0  0
  -35.6730  -28.2410   23.2380 C   0  0  0  0  0  2  0  0  0  0  0  0
  -35.8300  -29.7710   23.1460 C   0  0  0  0  0  2  0  0  0  0  0  0
  -36.7500  -30.3030   24.1660 N   0  0  0  0  0  4  0  0  0  0  0  0
  -36.4150  -30.1090   25.0920 H   0  0  0  0  0  0  0  0  0  0  0  0
  -36.8290  -31.2990   24.0660 H   0  0  0  0  0  0  0  0  0  0  0  0
  -37.6670  -29.9070   24.0620 H   0  0  0  0  0  0  0  0  0  0  0  0
  2  6  1  0
  3  1  1  0
  3 46  1  0
  4  2  2  0
  4  5  1  0
  5  3  2  0
  6 16  1  0
  6  1  2  0
  7  4  1  0
  8 16  1  0
  9 14  1  0
 10 11  1  0
 10  9  1  0
 12 11  1  0
 12 21  1  0
 12 13  1  0
 14  8  1  0
 14 13  1  0
 15  8  2  0
 16 17  1  0
 18 19  2  0
 19 38  1  0
 20 19  1  0
 20 23  1  0
 21 18  1  0
 21 22  1  0
 22 20  2  0
 23 24  1  0
 24 25  2  0
 26 29  1  0
 26 25  1  0
 27 26  2  0
 28 27  1  0
 28 23  2  0
 29 30  1  0
 30 31  1  0
 31 32  2  0
 33 32  1  0
 33 37  1  0
 34 33  2  0
 35 30  2  0
 35 34  1  0
 36 35  1  0
 38 39  1  0
 39 42  1  0
 39 41  1  0
 40 38  2  0
 43 44  1  0
 43 18  1  0
 45 43  1  0
 46 48  2  0
 47 50  1  0
 47 46  1  0
 49 47  1  0
 51 52  1  0
 51 50  2  0
 53 64  2  0
 54 52  1  0
 54 59  1  0
 55 63  1  0
 55 65  1  0
 56 62  1  0
 56 58  1  0
 57 63  1  0
 58 57  1  0
 59 58  2  0
 60 54  2  0
 61 60  1  0
 61 56  2  0
 62 55  1  0
 63 53  1  0
 65 67  2  0
 66 65  1  0
 68 66  1  0
 69 78  2  0
 69 74  1  0
 70 66  1  0
 70 74  1  0
 71 70  1  0
 72 73  1  0
 72 71  1  0
 73 69  1  0
 74 75  2  0
 75 76  1  0
 77 76  2  0
 78 77  1  0
 79 53  1  0
 79 80  1  0
 79 89  1  0
 80 83  1  0
 81 85  1  0
 81 80  1  0
 82 81  2  0
 85 84  1  0
 87 85  1  0
 87 88  1  0
 87 86  1  0
 89 92  1  1
 89 90  1  0
 91 89  1  0
 93  5  1  0
 93 94  1  0
 94 95  1  0
 94 96  1  0
 97 94  1  0
 97 98  1  0
 99 98  1  0
 99100  1  0
101100  1  0
101102  1  0
103102  1  0
103104  1  0
104105  1  0
106104  1  0
107104  1  0
M  ISO  4   8 100  16 100  51 101  52 101
M  END
>  <TORSDO>  (73) 
F 29

>  <SCORE>  (73) 
-4.167

>  <name>  (73) 
72

>  <ligand_id>  (73) 
72

>  <original_smiles>  (73) 
[H]c1c([H])c([H])c2c(c1[H])C([H])([H])C([H])([H])C([H])([H])C2([H])N([H])C(=O)C1([H])N(C(=O)C([H])(N([H])C(=O)C([H])(N([H])C([H])([H])[H])C([H])([H])[H])C(C([H])([H])[H])(C([H])([H])[H])C([H])([H])[H])C([H])([H])c2c([H])c(OC([H])([H])C([H])([H])N([H])C(=O)c3c([H])c(N([H])C(=O)N4C([H])([H])C([H])([H])C([H])([H])C([H])(n5nc(-c6c([H])c([H])c(Oc7c([H])c([H])c(F)c([H])c7F)c([H])c6[H])c(C(=O)N([H])[H])c5N([H])[H])C4([H])[H])c([H])c(C([H])([H])[H])c3C([H])([H])[N+]([H])([H])C([H])([H])C([H])([H])C([H])([H])C([H])([H])C([H])([H])C([H])([H])C([H])([H])[N+]([H])([H])[H])c([H])c([H])c2C1([H])[H]

>  <smiles>  (73) 
[H]c1c([H])c([H])c2c(c1[H])C([H])([H])C([H])([H])C([H])([H])C2([H])N([H])C(=O)C1([H])N(C(=O)C([H])(N([H])C(=O)C([H])(N([H])C([H])([H])[H])C([H])([H])[H])C(C([H])([H])[H])(C([H])([H])[H])C([H])([H])[H])C([H])([H])c2c([H])c(OC([H])([H])C([H])([H])N([H])C(=O)c3c([H])c(N([H])C(=O)N4C([H])([H])C([H])([H])C([H])([H])C([H])(n5nc(-c6c([H])c([H])c(Oc7c([H])c([H])c(F)c([H])c7F)c([H])c6[H])c(C(=O)N([H])[H])c5N([H])[H])C4([H])[H])c([H])c(C([H])([H])[H])c3C([H])([H])[N+]([H])([H])C([H])([H])C([H])([H])C([H])([H])C([H])([H])C([H])([H])C([H])([H])C([H])([H])[N+]([H])([H])[H])c([H])c([H])c2C1([H])[H]

$$$$
73:0:0
     RDKit          3D

 89 98  0  0  1  0  0  0  0  0999 V2000
  -30.1190  -20.9840   19.0180 C   0  0  0  0  0  3  0  0  0  0  0  0
  -29.0340  -19.4960   20.5600 C   0  0  0  0  0  3  0  0  0  0  0  0
  -30.6580  -18.5240   19.0630 C   0  0  0  0  0  3  0  0  0  0  0  0
  -29.1800  -20.9690   20.0750 C   0  0  0  0  0  0  0  0  0  0  0  0
  -30.8230  -19.8390   18.5440 C   0  0  0  0  0  0  0  0  0  0  0  0
  -29.7500  -18.1980   20.0930 C   0  0  0  0  0  0  0  0  0  0  0  0
  -31.8190  -20.0320   17.4160 C   0  0  0  0  0  1  0  0  0  0  0  0
  -30.3830  -15.3380   20.2200 C   0  0  0  0  0  0  0  0  0  0  0  0
  -30.3550  -12.8790   19.3640 C   0  0  0  0  0  2  0  0  0  0  0  0
  -29.4170  -12.6740   18.1450 C   0  0  0  0  0  2  0  0  0  0  0  0
  -27.9780  -12.3920   18.6110 C   0  0  0  0  0  2  0  0  0  0  0  0
  -27.5450  -13.3510   19.7460 C   0  0  0  0  0  3  0  0  0  0  0  0
  -28.6110  -13.5040   20.8550 C   0  0  0  0  0  2  0  0  0  0  0  0
  -29.8300  -14.0190   20.2090 N   0  0  0  0  0  0  0  0  0  0  0  0
  -31.5840  -15.3360   19.9040 O   0  0  0  0  0  0  0  0  0  0  0  0
  -29.6330  -16.6100   20.4510 N   0  0  0  0  0  0  0  0  0  0  0  0
  -28.7470  -16.3950   20.8840 H   0  0  0  0  0  0  0  0  0  0  0  0
  -25.1930  -13.9020   20.5580 C   0  0  0  0  0  0  0  0  0  0  0  0
  -24.1380  -13.1220   20.9390 C   0  0  0  0  0  0  0  0  0  0  0  0
  -24.6000  -11.7710   20.8760 C   0  0  0  0  0  0  0  0  0  0  0  0
  -26.2280  -13.0280   20.2780 N   0  0  0  0  0  0  0  0  0  0  0  0
  -25.8850  -11.7390   20.5380 N   0  0  0  0  0  0  0  0  0  0  0  0
  -23.8730  -10.5090   21.0620 C   0  0  0  0  0  0  0  0  0  0  0  0
  -24.3120   -9.5290   21.9800 C   0  0  0  0  0  3  0  0  0  0  0  0
  -23.5810   -8.3330   22.1550 C   0  0  0  0  0  3  0  0  0  0  0  0
  -22.3970   -8.1080   21.4130 C   0  0  0  0  0  0  0  0  0  0  0  0
  -21.9770   -9.0770   20.4850 C   0  0  0  0  0  3  0  0  0  0  0  0
  -22.7070  -10.2630   20.3070 C   0  0  0  0  0  3  0  0  0  0  0  0
  -21.6380   -6.9670   21.5000 O   0  0  0  0  0  0  0  0  0  0  0  0
  -21.5940   -6.2160   22.6470 C   0  0  0  0  0  0  0  0  0  0  0  0
  -21.1620   -6.7580   23.8770 C   0  0  0  0  0  3  0  0  0  0  0  0
  -21.0660   -5.9330   25.0150 C   0  0  0  0  0  3  0  0  0  0  0  0
  -21.3930   -4.5660   24.9250 C   0  0  0  0  0  0  0  0  0  0  0  0
  -21.8190   -4.0240   23.7000 C   0  0  0  0  0  3  0  0  0  0  0  0
  -21.9150   -4.8450   22.5640 C   0  0  0  0  0  0  0  0  0  0  0  0
  -22.3050   -4.3130   21.3810 F   0  0  0  0  0  0  0  0  0  0  0  0
  -21.2950   -3.7720   26.0170 F   0  0  0  0  0  0  0  0  0  0  0  0
  -22.7480  -13.5990   21.2430 C   0  0  0  0  0  0  0  0  0  0  0  0
  -22.0320  -12.8920   22.1090 N   0  0  0  0  0  0  0  0  0  0  0  0
  -22.3070  -14.6360   20.7470 O   0  0  0  0  0  0  0  0  0  0  0  0
  -22.4030  -12.0530   22.5310 H   0  0  0  0  0  0  0  0  0  0  0  0
  -21.1000  -13.1940   22.3540 H   0  0  0  0  0  0  0  0  0  0  0  0
  -25.3550  -15.2750   20.3970 N   0  0  0  0  0  0  0  0  0  0  0  0
  -24.5870  -15.9260   20.5260 H   0  0  0  0  0  0  0  0  0  0  0  0
  -26.1850  -15.7140   20.0200 H   0  0  0  0  0  0  0  0  0  0  0  0
  -29.4850  -23.7560   20.5190 C   0  0  0  0  0  2  0  0  0  0  0  0
  -28.5570  -22.5690   20.5590 C   0  0  0  0  0  3  0  0  0  0  0  0
  -28.1700  -24.2320   19.9290 C   0  0  0  0  0  3  0  0  0  0  0  0
  -28.1880  -25.8470   20.3370 O   0  0  0  0  0  0  0  0  0  0  0  0
  -24.6290  -31.8450   23.2270 C   0  0  0  0  0  0  0  0  0  0  0  0
  -27.1730  -26.9420   20.2210 C   0  0  0  0  0  0  0  0  0  0  0  0
  -23.4300  -30.4460   21.5930 C   0  0  0  0  0  3  0  0  0  0  0  0
  -24.8740  -28.8310   20.1680 C   0  0  0  0  0  0  0  0  0  0  0  0
  -25.9970  -30.6480   21.4440 C   0  0  0  0  0  2  0  0  0  0  0  0
  -26.0620  -29.2360   20.7900 C   0  0  0  0  0  0  0  0  0  0  0  0
  -27.2010  -28.3100   20.7930 C   0  0  0  0  0  3  0  0  0  0  0  0
  -25.9590  -26.6930   19.5430 C   0  0  0  0  0  3  0  0  0  0  0  0
  -24.8500  -27.5820   19.5240 C   0  0  0  0  0  3  0  0  0  0  0  0
  -23.6570  -29.7560   20.2180 C   0  0  0  0  0  2  0  0  0  0  0  0
  -24.7070  -31.0080   22.1420 N   0  0  0  0  0  0  0  0  0  0  0  0
  -23.5400  -32.1390   23.7490 O   0  0  0  0  0  0  0  0  0  0  0  0
  -22.7340  -29.4580   22.5640 C   0  0  0  0  0  0  0  0  0  0  0  0
  -21.4030  -29.2950   22.4410 N   0  0  0  0  0  0  0  0  0  0  0  0
  -23.3990  -28.8350   23.3970 O   0  0  0  0  0  0  0  0  0  0  0  0
  -20.9210  -29.8480   21.7470 H   0  0  0  0  0  0  0  0  0  0  0  0
  -18.0200  -28.0880   22.9530 C   0  0  0  0  0  0  0  0  0  0  0  0
  -20.5800  -28.3610   23.2160 C   0  0  0  0  0  3  0  0  0  0  0  0
  -20.6840  -26.9260   22.6490 C   0  0  0  0  0  2  0  0  0  0  0  0
  -19.5830  -26.5970   21.6350 C   0  0  0  0  0  2  0  0  0  0  0  0
  -18.2000  -26.7390   22.2790 C   0  0  0  0  0  2  0  0  0  0  0  0
  -19.1360  -28.8560   23.3790 C   0  0  0  0  0  0  0  0  0  0  0  0
  -18.9110  -30.1170   23.9740 C   0  0  0  0  0  3  0  0  0  0  0  0
  -17.6030  -30.6100   24.1450 C   0  0  0  0  0  3  0  0  0  0  0  0
  -16.5030  -29.8390   23.7330 C   0  0  0  0  0  3  0  0  0  0  0  0
  -16.7110  -28.5800   23.1440 C   0  0  0  0  0  3  0  0  0  0  0  0
  -25.9010  -32.4880   23.8580 C   0  0  0  0  0  3  0  0  0  0  0  0
  -25.5910  -33.8940   24.1740 N   0  0  0  0  0  0  0  0  0  0  0  0
  -25.9330  -34.9460   23.4180 C   0  0  0  0  0  0  0  0  0  0  0  0
  -26.6040  -34.8350   22.3890 O   0  0  0  0  0  0  0  0  0  0  0  0
  -24.9930  -34.0540   24.9720 H   0  0  0  0  0  0  0  0  0  0  0  0
  -24.2200  -36.7600   23.0630 C   0  0  0  0  0  1  0  0  0  0  0  0
  -25.4590  -36.3430   23.8740 C   0  0  0  0  0  3  0  0  0  0  0  0
  -27.5980  -37.2200   24.7050 C   0  0  0  0  0  1  0  0  0  0  0  0
  -26.5010  -37.3870   23.7550 N   0  0  0  0  0  0  0  0  0  0  0  0
  -26.1020  -38.3120   23.8910 H   0  0  0  0  0  0  0  0  0  0  0  0
  -26.3950  -31.7380   25.1570 C   0  0  1  0  0  0  0  0  0  0  0  0
  -25.2870  -31.5320   26.2170 C   0  0  0  0  0  1  0  0  0  0  0  0
  -26.9700  -30.3470   24.8070 C   0  0  0  0  0  1  0  0  0  0  0  0
  -27.5450  -32.5340   25.8160 C   0  0  0  0  0  1  0  0  0  0  0  0
  1  4  1  0
  3  6  2  0
  4  2  2  0
  5  1  2  0
  5  3  1  0
  6 16  1  0
  6  2  1  0
  7  5  1  0
  8 16  1  0
  9 14  1  0
 10 11  1  0
 10  9  1  0
 12 11  1  0
 12 21  1  0
 12 13  1  0
 14  8  1  0
 14 13  1  0
 15  8  2  0
 16 17  1  0
 18 19  2  0
 19 38  1  0
 20 19  1  0
 20 23  1  0
 21 22  1  0
 21 18  1  0
 22 20  2  0
 23 24  1  0
 24 25  2  0
 26 29  1  0
 26 25  1  0
 27 26  2  0
 28 27  1  0
 28 23  2  0
 29 30  1  0
 30 31  1  0
 31 32  2  0
 33 32  1  0
 33 37  1  0
 34 33  2  0
 35 30  2  0
 35 34  1  0
 36 35  1  0
 38 39  1  0
 39 42  1  0
 39 41  1  0
 40 38  2  0
 43 44  1  0
 43 18  1  0
 45 43  1  0
 46 47  1  0
 47  4  1  0
 48 49  1  0
 48 46  1  0
 48 47  1  0
 50 61  2  0
 51 49  1  0
 51 56  1  0
 52 60  1  0
 52 62  1  0
 53 59  1  0
 53 55  1  0
 54 60  1  0
 55 56  2  0
 55 54  1  0
 57 51  2  0
 58 57  1  0
 58 53  2  0
 59 52  1  0
 60 50  1  0
 62 64  2  0
 63 62  1  0
 65 63  1  0
 66 75  2  0
 66 71  1  0
 67 63  1  0
 67 71  1  0
 68 67  1  0
 69 70  1  0
 69 68  1  0
 70 66  1  0
 71 72  2  0
 72 73  1  0
 74 73  2  0
 75 74  1  0
 76 50  1  0
 76 77  1  0
 76 86  1  0
 77 80  1  0
 78 82  1  0
 78 77  1  0
 79 78  2  0
 82 81  1  0
 84 82  1  0
 84 85  1  0
 84 83  1  0
 86 89  1  1
 86 87  1  0
 88 86  1  0
M  ISO  4   8 100  16 100  48 101  49 101
M  END
>  <TORSDO>  (74) 
F 17

>  <SCORE>  (74) 
-16.075

>  <name>  (74) 
73

>  <ligand_id>  (74) 
73

>  <original_smiles>  (74) 
[H]c1c([H])c([H])c2c(c1[H])C([H])([H])C([H])([H])C([H])([H])C2([H])N([H])C(=O)C1([H])N(C(=O)C([H])(N([H])C(=O)C([H])(N([H])C([H])([H])[H])C([H])([H])[H])C(C([H])([H])[H])(C([H])([H])[H])C([H])([H])[H])C([H])([H])c2c([H])c(OC3([H])C([H])([H])C3([H])c3c([H])c(N([H])C(=O)N4C([H])([H])C([H])([H])C([H])([H])C([H])(n5nc(-c6c([H])c([H])c(Oc7c([H])c([H])c(F)c([H])c7F)c([H])c6[H])c(C(=O)N([H])[H])c5N([H])[H])C4([H])[H])c([H])c(C([H])([H])[H])c3[H])c([H])c([H])c2C1([H])[H]

>  <smiles>  (74) 
[H]c1c([H])c([H])c2c(c1[H])C([H])([H])C([H])([H])C([H])([H])C2([H])N([H])C(=O)C1([H])N(C(=O)C([H])(N([H])C(=O)C([H])(N([H])C([H])([H])[H])C([H])([H])[H])C(C([H])([H])[H])(C([H])([H])[H])C([H])([H])[H])C([H])([H])c2c([H])c(OC3([H])C([H])([H])C3([H])c3c([H])c(N([H])C(=O)N4C([H])([H])C([H])([H])C([H])([H])C([H])(n5nc(-c6c([H])c([H])c(Oc7c([H])c([H])c(F)c([H])c7F)c([H])c6[H])c(C(=O)N([H])[H])c5N([H])[H])C4([H])[H])c([H])c(C([H])([H])[H])c3[H])c([H])c([H])c2C1([H])[H]

$$$$
74:0:0
     RDKit          3D

 90 99  0  0  1  0  0  0  0  0999 V2000
  -30.0170  -19.9640   20.4250 C   0  0  0  0  0  2  0  0  0  0  0  0
  -29.6290  -18.6690   20.2450 C   0  0  0  0  0  3  0  0  0  0  0  0
  -28.1510  -19.3780   18.3740 C   0  0  0  0  0  2  0  0  0  0  0  0
  -28.6040  -20.8610   18.5780 C   0  0  0  0  0  2  0  0  0  0  0  0
  -27.7210  -20.0510   20.5760 C   0  0  0  0  0  2  0  0  0  0  0  0
  -28.1790  -18.7820   19.8040 C   0  0  0  0  0  3  0  0  0  0  0  0
  -28.8680  -20.9670   20.1010 C   0  0  1  0  0  0  0  0  0  0  0  0
  -30.5170  -17.3530   20.3220 C   0  0  0  0  0  2  0  0  0  0  0  0
  -30.6960  -14.7860   20.1070 C   0  0  0  0  0  0  0  0  0  0  0  0
  -30.4070  -12.5570   19.0270 C   0  0  0  0  0  2  0  0  0  0  0  0
  -29.4170  -12.7000   17.8500 C   0  0  0  0  0  2  0  0  0  0  0  0
  -27.9630  -12.5410   18.3380 C   0  0  0  0  0  2  0  0  0  0  0  0
  -27.6670  -13.3760   19.6140 C   0  0  0  0  0  3  0  0  0  0  0  0
  -28.7760  -13.2230   20.6760 C   0  0  0  0  0  2  0  0  0  0  0  0
  -30.0430  -13.5790   20.0330 N   0  0  0  0  0  0  0  0  0  0  0  0
  -31.8670  -14.8790   19.7260 O   0  0  0  0  0  0  0  0  0  0  0  0
  -29.9740  -15.9320   20.3960 N   0  0  0  0  0  0  0  0  0  0  0  0
  -29.0030  -15.8200   20.6440 H   0  0  0  0  0  0  0  0  0  0  0  0
  -25.3160  -13.9580   20.4620 C   0  0  0  0  0  0  0  0  0  0  0  0
  -24.2670  -13.1800   20.8680 C   0  0  0  0  0  0  0  0  0  0  0  0
  -24.7230  -11.8290   20.7910 C   0  0  0  0  0  0  0  0  0  0  0  0
  -26.3450  -13.0810   20.1620 N   0  0  0  0  0  0  0  0  0  0  0  0
  -25.9980  -11.7930   20.4220 N   0  0  0  0  0  0  0  0  0  0  0  0
  -24.0000  -10.5660   20.9900 C   0  0  0  0  0  0  0  0  0  0  0  0
  -24.4550   -9.5940   21.9070 C   0  0  0  0  0  3  0  0  0  0  0  0
  -23.7370   -8.3950   22.0950 C   0  0  0  0  0  3  0  0  0  0  0  0
  -22.5470   -8.1590   21.3660 C   0  0  0  0  0  0  0  0  0  0  0  0
  -22.1100   -9.1200   20.4360 C   0  0  0  0  0  3  0  0  0  0  0  0
  -22.8300  -10.3110   20.2470 C   0  0  0  0  0  3  0  0  0  0  0  0
  -21.7920   -7.0160   21.4660 O   0  0  0  0  0  0  0  0  0  0  0  0
  -21.7570   -6.2740   22.6200 C   0  0  0  0  0  0  0  0  0  0  0  0
  -21.3070   -6.8170   23.8440 C   0  0  0  0  0  3  0  0  0  0  0  0
  -21.2250   -5.9990   24.9890 C   0  0  0  0  0  3  0  0  0  0  0  0
  -21.5830   -4.6400   24.9110 C   0  0  0  0  0  0  0  0  0  0  0  0
  -22.0230   -4.0960   23.6930 C   0  0  0  0  0  3  0  0  0  0  0  0
  -22.1080   -4.9110   22.5490 C   0  0  0  0  0  0  0  0  0  0  0  0
  -22.5160   -4.3760   21.3740 F   0  0  0  0  0  0  0  0  0  0  0  0
  -21.4940   -3.8530   26.0080 F   0  0  0  0  0  0  0  0  0  0  0  0
  -22.8830  -13.6580   21.2080 C   0  0  0  0  0  0  0  0  0  0  0  0
  -22.1870  -12.9460   22.0870 N   0  0  0  0  0  0  0  0  0  0  0  0
  -22.4320  -14.6960   20.7280 O   0  0  0  0  0  0  0  0  0  0  0  0
  -22.5610  -12.1040   22.4970 H   0  0  0  0  0  0  0  0  0  0  0  0
  -21.2590  -13.2490   22.3520 H   0  0  0  0  0  0  0  0  0  0  0  0
  -25.4750  -15.3300   20.2990 N   0  0  0  0  0  0  0  0  0  0  0  0
  -24.7070  -15.9750   20.4490 H   0  0  0  0  0  0  0  0  0  0  0  0
  -26.2910  -15.7740   19.8990 H   0  0  0  0  0  0  0  0  0  0  0  0
  -28.9010  -22.4540   20.7500 C   0  0  0  0  0  3  0  0  0  0  0  0
  -28.5720  -23.8130   19.9400 C   0  0  0  0  0  3  0  0  0  0  0  0
  -28.2730  -25.1540   20.7820 C   0  0  0  0  0  2  0  0  0  0  0  0
  -28.4210  -26.5220   20.2100 O   0  0  0  0  0  0  0  0  0  0  0  0
  -24.5860  -31.8730   23.2270 C   0  0  0  0  0  0  0  0  0  0  0  0
  -27.3030  -27.3680   20.1910 C   0  0  0  0  0  0  0  0  0  0  0  0
  -23.4330  -30.4860   21.5370 C   0  0  0  0  0  3  0  0  0  0  0  0
  -24.9320  -28.9600   20.1290 C   0  0  0  0  0  0  0  0  0  0  0  0
  -25.9720  -30.8290   21.4180 C   0  0  0  0  0  2  0  0  0  0  0  0
  -26.0810  -29.4570   20.7610 C   0  0  0  0  0  0  0  0  0  0  0  0
  -27.2730  -28.6720   20.7790 C   0  0  0  0  0  3  0  0  0  0  0  0
  -26.1370  -26.9230   19.5380 C   0  0  0  0  0  3  0  0  0  0  0  0
  -24.9630  -27.7030   19.5050 C   0  0  0  0  0  3  0  0  0  0  0  0
  -23.6860  -29.8240   20.1560 C   0  0  0  0  0  2  0  0  0  0  0  0
  -24.6820  -31.0810   22.1180 N   0  0  0  0  0  0  0  0  0  0  0  0
  -23.4880  -32.1340   23.7400 O   0  0  0  0  0  0  0  0  0  0  0  0
  -22.7570  -29.4530   22.4720 C   0  0  0  0  0  0  0  0  0  0  0  0
  -21.4320  -29.2820   22.3240 N   0  0  0  0  0  0  0  0  0  0  0  0
  -23.4240  -28.8110   23.2870 O   0  0  0  0  0  0  0  0  0  0  0  0
  -20.9520  -29.8560   21.6450 H   0  0  0  0  0  0  0  0  0  0  0  0
  -18.0380  -28.1130   22.7830 C   0  0  0  0  0  0  0  0  0  0  0  0
  -20.5990  -28.3320   23.0640 C   0  0  0  0  0  3  0  0  0  0  0  0
  -20.6850  -26.9180   22.4450 C   0  0  0  0  0  2  0  0  0  0  0  0
  -19.5810  -26.6400   21.4190 C   0  0  0  0  0  2  0  0  0  0  0  0
  -18.2000  -26.7830   22.0650 C   0  0  0  0  0  2  0  0  0  0  0  0
  -19.1650  -28.8480   23.2370 C   0  0  0  0  0  0  0  0  0  0  0  0
  -18.9610  -30.0960   23.8670 C   0  0  0  0  0  3  0  0  0  0  0  0
  -17.6630  -30.6070   24.0470 C   0  0  0  0  0  3  0  0  0  0  0  0
  -16.5500  -29.8660   23.6120 C   0  0  0  0  0  3  0  0  0  0  0  0
  -16.7380  -28.6220   22.9850 C   0  0  0  0  0  3  0  0  0  0  0  0
  -25.8500  -32.5080   23.8890 C   0  0  0  0  0  3  0  0  0  0  0  0
  -26.3220  -31.7440   25.1860 C   0  0  1  0  0  0  0  0  0  0  0  0
  -25.1930  -31.5070   26.2170 C   0  0  0  0  0  1  0  0  0  0  0  0
  -26.9190  -30.3660   24.8220 C   0  0  0  0  0  1  0  0  0  0  0  0
  -27.4500  -32.5410   25.8830 C   0  0  0  0  0  1  0  0  0  0  0  0
  -25.5320  -33.9100   24.2020 N   0  0  0  0  0  0  0  0  0  0  0  0
  -25.8860  -34.9580   23.4460 C   0  0  0  0  0  0  0  0  0  0  0  0
  -26.5830  -34.8480   22.4330 O   0  0  0  0  0  0  0  0  0  0  0  0
  -24.9210  -34.0690   24.9890 H   0  0  0  0  0  0  0  0  0  0  0  0
  -24.1790  -36.7570   23.0240 C   0  0  0  0  0  1  0  0  0  0  0  0
  -25.3870  -36.3500   23.8820 C   0  0  0  0  0  3  0  0  0  0  0  0
  -27.4850  -37.2380   24.7950 C   0  0  0  0  0  1  0  0  0  0  0  0
  -26.4270  -37.3990   23.8030 N   0  0  0  0  0  0  0  0  0  0  0  0
  -26.0170  -38.3220   23.9220 H   0  0  0  0  0  0  0  0  0  0  0  0
  2  8  1  0
  2  1  1  0
  3  4  1  0
  4  7  1  0
  6  3  1  0
  6  2  1  0
  6  5  1  0
  7  1  1  0
  7  5  1  0
  7 47  1  1
  8 17  1  0
  9 17  1  0
 10 15  1  0
 11 12  1  0
 11 10  1  0
 13 12  1  0
 13 22  1  0
 13 14  1  0
 15  9  1  0
 15 14  1  0
 16  9  2  0
 17 18  1  0
 19 20  2  0
 20 39  1  0
 21 20  1  0
 21 24  1  0
 22 23  1  0
 22 19  1  0
 23 21  2  0
 24 25  1  0
 25 26  2  0
 27 30  1  0
 27 26  1  0
 28 27  2  0
 29 28  1  0
 29 24  2  0
 30 31  1  0
 31 32  1  0
 32 33  2  0
 34 33  1  0
 34 38  1  0
 35 34  2  0
 36 31  2  0
 36 35  1  0
 37 36  1  0
 39 40  1  0
 40 43  1  0
 40 42  1  0
 41 39  2  0
 44 45  1  0
 44 19  1  0
 46 44  1  0
 48 47  2  0
 48 49  1  0
 50 49  1  0
 51 62  2  0
 52 50  1  0
 52 57  1  0
 53 61  1  0
 53 63  1  0
 54 60  1  0
 54 56  1  0
 55 61  1  0
 56 57  2  0
 56 55  1  0
 58 52  2  0
 59 58  1  0
 59 54  2  0
 60 53  1  0
 61 51  1  0
 63 65  2  0
 64 63  1  0
 66 64  1  0
 67 76  2  0
 67 72  1  0
 68 64  1  0
 68 72  1  0
 69 68  1  0
 70 71  1  0
 70 69  1  0
 71 67  1  0
 72 73  2  0
 73 74  1  0
 75 74  2  0
 76 75  1  0
 77 51  1  0
 77 82  1  0
 77 78  1  0
 78 81  1  1
 78 79  1  0
 80 78  1  0
 82 85  1  0
 83 87  1  0
 83 82  1  0
 84 83  2  0
 87 86  1  0
 89 87  1  0
 89 90  1  0
 89 88  1  0
M  ISO  4   9 100  17 100  49 101  50 101
M  END
>  <TORSDO>  (75) 
F 20

>  <SCORE>  (75) 
-13.668

>  <name>  (75) 
74

>  <ligand_id>  (75) 
74

>  <original_smiles>  (75) 
[H]C1=C(C([H])([H])N([H])C(=O)N2C([H])([H])C([H])([H])C([H])([H])C([H])(n3nc(-c4c([H])c([H])c(Oc5c([H])c([H])c(F)c([H])c5F)c([H])c4[H])c(C(=O)N([H])[H])c3N([H])[H])C2([H])[H])C2([H])C([H])([H])C([H])([H])C1(C([H])([H])C([H])([H])C([H])([H])Oc1c([H])c([H])c3c(c1[H])C([H])([H])N(C(=O)C([H])(N([H])C(=O)C([H])(N([H])C([H])([H])[H])C([H])([H])[H])C(C([H])([H])[H])(C([H])([H])[H])C([H])([H])[H])C([H])(C(=O)N([H])C1([H])c4c([H])c([H])c([H])c([H])c4C([H])([H])C([H])([H])C1([H])[H])C3([H])[H])C2([H])[H]

>  <smiles>  (75) 
[H]C1=C(C([H])([H])N([H])C(=O)N2C([H])([H])C([H])([H])C([H])([H])C([H])(n3nc(-c4c([H])c([H])c(Oc5c([H])c([H])c(F)c([H])c5F)c([H])c4[H])c(C(=O)N([H])[H])c3N([H])[H])C2([H])[H])C2([H])C([H])([H])C([H])([H])C1(C([H])([H])C([H])([H])C([H])([H])Oc1c([H])c([H])c3c(c1[H])C([H])([H])N(C(=O)C([H])(N([H])C(=O)C([H])(N([H])C([H])([H])[H])C([H])([H])[H])C(C([H])([H])[H])(C([H])([H])[H])C([H])([H])[H])C([H])(C(=O)N([H])C1([H])c4c([H])c([H])c([H])c([H])c4C([H])([H])C([H])([H])C1([H])[H])C3([H])[H])C2([H])[H]

$$$$
75:0:0
     RDKit          3D

 91 99  0  0  1  0  0  0  0  0999 V2000
  -29.1400  -21.2760   17.1440 C   0  0  0  0  0  2  0  0  0  0  0  0
  -29.2390  -20.0230   18.0020 C   0  0  0  0  0  2  0  0  0  0  0  0
  -28.8920  -22.4150   18.1400 C   0  0  0  0  0  2  0  0  0  0  0  0
  -29.7770  -20.5340   19.3430 C   0  0  0  0  0  3  0  0  0  0  0  0
  -29.0940  -21.8720   19.5110 N   0  0  1  0  0  4  0  0  0  0  0  0
  -28.1610  -21.6550   19.8270 H   0  0  0  0  0  0  0  0  0  0  0  0
  -29.6130  -19.4680   20.4890 C   0  0  0  0  0  3  0  0  0  0  0  0
  -29.9040  -17.9720   20.0800 C   0  0  0  0  0  3  0  0  0  0  0  0
  -30.1910  -16.9660   21.2440 C   0  0  0  0  0  2  0  0  0  0  0  0
  -30.6160  -14.5290   20.5120 C   0  0  0  0  0  0  0  0  0  0  0  0
  -30.3700  -12.3450   19.3700 C   0  0  0  0  0  2  0  0  0  0  0  0
  -29.4280  -12.5210   18.1600 C   0  0  0  0  0  2  0  0  0  0  0  0
  -27.9510  -12.3760   18.5810 C   0  0  0  0  0  2  0  0  0  0  0  0
  -27.6010  -13.2200   19.8350 C   0  0  0  0  0  3  0  0  0  0  0  0
  -28.6510  -13.0080   20.9490 C   0  0  0  0  0  2  0  0  0  0  0  0
  -29.9720  -13.3340   20.3850 N   0  0  0  0  0  0  0  0  0  0  0  0
  -31.7640  -14.7160   20.1010 O   0  0  0  0  0  0  0  0  0  0  0  0
  -29.8500  -15.5470   20.9740 N   0  0  0  0  0  0  0  0  0  0  0  0
  -28.9140  -15.2730   21.2320 H   0  0  0  0  0  0  0  0  0  0  0  0
  -25.1990  -13.8340   20.5230 C   0  0  0  0  0  0  0  0  0  0  0  0
  -24.1270  -13.0660   20.8890 C   0  0  0  0  0  0  0  0  0  0  0  0
  -24.5860  -11.7130   20.8700 C   0  0  0  0  0  0  0  0  0  0  0  0
  -26.2450  -12.9500   20.3060 N   0  0  0  0  0  0  0  0  0  0  0  0
  -25.8790  -11.6700   20.5740 N   0  0  0  0  0  0  0  0  0  0  0  0
  -23.8570  -10.4540   21.0610 C   0  0  0  0  0  0  0  0  0  0  0  0
  -24.2920   -9.4820   21.9890 C   0  0  0  0  0  3  0  0  0  0  0  0
  -23.5640   -8.2860   22.1670 C   0  0  0  0  0  3  0  0  0  0  0  0
  -22.3850   -8.0540   21.4190 C   0  0  0  0  0  0  0  0  0  0  0  0
  -21.9680   -9.0150   20.4810 C   0  0  0  0  0  3  0  0  0  0  0  0
  -22.6980  -10.2020   20.3000 C   0  0  0  0  0  3  0  0  0  0  0  0
  -21.6280   -6.9110   21.5080 O   0  0  0  0  0  0  0  0  0  0  0  0
  -21.5970   -6.1550   22.6520 C   0  0  0  0  0  0  0  0  0  0  0  0
  -21.2100   -6.7010   23.8950 C   0  0  0  0  0  3  0  0  0  0  0  0
  -21.1260   -5.8710   25.0320 C   0  0  0  0  0  3  0  0  0  0  0  0
  -21.4170   -4.4980   24.9260 C   0  0  0  0  0  0  0  0  0  0  0  0
  -21.7970   -3.9520   23.6870 C   0  0  0  0  0  3  0  0  0  0  0  0
  -21.8840   -4.7780   22.5530 C   0  0  0  0  0  0  0  0  0  0  0  0
  -22.2300   -4.2440   21.3570 F   0  0  0  0  0  0  0  0  0  0  0  0
  -21.3290   -3.6990   26.0150 F   0  0  0  0  0  0  0  0  0  0  0  0
  -22.7280  -13.5470   21.1470 C   0  0  0  0  0  0  0  0  0  0  0  0
  -21.9920  -12.8570   22.0110 N   0  0  0  0  0  0  0  0  0  0  0  0
  -22.2950  -14.5690   20.6150 O   0  0  0  0  0  0  0  0  0  0  0  0
  -22.3530  -12.0310   22.4630 H   0  0  0  0  0  0  0  0  0  0  0  0
  -21.0530  -13.1630   22.2250 H   0  0  0  0  0  0  0  0  0  0  0  0
  -25.3680  -15.2040   20.3370 N   0  0  0  0  0  0  0  0  0  0  0  0
  -24.6000  -15.8590   20.4320 H   0  0  0  0  0  0  0  0  0  0  0  0
  -26.2170  -15.6370   19.9990 H   0  0  0  0  0  0  0  0  0  0  0  0
  -29.6440  -22.8370   20.5320 C   0  0  0  0  0  2  0  0  0  0  0  0
  -29.6000  -24.4000   20.2610 C   0  0  0  0  0  2  0  0  0  0  0  0
  -28.2360  -25.1500   20.1430 C   0  0  0  0  0  2  0  0  0  0  0  0
  -28.3680  -26.6020   20.1680 O   0  0  0  0  0  0  0  0  0  0  0  0
  -24.6010  -31.8690   23.2360 C   0  0  0  0  0  0  0  0  0  0  0  0
  -27.2050  -27.3670   20.1530 C   0  0  0  0  0  0  0  0  0  0  0  0
  -23.3820  -30.4700   21.6040 C   0  0  0  0  0  3  0  0  0  0  0  0
  -24.8210  -28.9240   20.1730 C   0  0  0  0  0  0  0  0  0  0  0  0
  -25.9140  -30.8070   21.3940 C   0  0  0  0  0  2  0  0  0  0  0  0
  -25.9900  -29.4320   20.7510 C   0  0  0  0  0  0  0  0  0  0  0  0
  -27.1850  -28.6660   20.7310 C   0  0  0  0  0  3  0  0  0  0  0  0
  -26.0090  -26.8870   19.5690 C   0  0  0  0  0  3  0  0  0  0  0  0
  -24.8290  -27.6530   19.5760 C   0  0  0  0  0  3  0  0  0  0  0  0
  -23.5820  -29.7900   20.2240 C   0  0  0  0  0  2  0  0  0  0  0  0
  -24.6520  -31.0640   22.1360 N   0  0  0  0  0  0  0  0  0  0  0  0
  -23.5230  -32.1460   23.7810 O   0  0  0  0  0  0  0  0  0  0  0  0
  -22.7300  -29.4530   22.5700 C   0  0  0  0  0  0  0  0  0  0  0  0
  -21.4040  -29.2760   22.4500 N   0  0  0  0  0  0  0  0  0  0  0  0
  -23.4150  -28.8260   23.3820 O   0  0  0  0  0  0  0  0  0  0  0  0
  -20.9120  -29.8330   21.7660 H   0  0  0  0  0  0  0  0  0  0  0  0
  -18.0280  -28.0880   22.9640 C   0  0  0  0  0  0  0  0  0  0  0  0
  -20.5870  -28.3410   23.2260 C   0  0  0  0  0  3  0  0  0  0  0  0
  -20.6850  -26.9080   22.6530 C   0  0  0  0  0  2  0  0  0  0  0  0
  -19.5790  -26.5850   21.6440 C   0  0  0  0  0  2  0  0  0  0  0  0
  -18.2000  -26.7350   22.2920 C   0  0  0  0  0  2  0  0  0  0  0  0
  -19.1500  -28.8480   23.3880 C   0  0  0  0  0  0  0  0  0  0  0  0
  -18.9370  -30.1140   23.9770 C   0  0  0  0  0  3  0  0  0  0  0  0
  -17.6340  -30.6190   24.1440 C   0  0  0  0  0  3  0  0  0  0  0  0
  -16.5260  -29.8560   23.7370 C   0  0  0  0  0  3  0  0  0  0  0  0
  -16.7250  -28.5930   23.1520 C   0  0  0  0  0  3  0  0  0  0  0  0
  -25.8910  -32.4970   23.8480 C   0  0  0  0  0  3  0  0  0  0  0  0
  -25.5870  -33.8940   24.1840 N   0  0  0  0  0  0  0  0  0  0  0  0
  -25.9150  -34.9490   23.4250 C   0  0  0  0  0  0  0  0  0  0  0  0
  -26.5780  -34.8470   22.3890 O   0  0  0  0  0  0  0  0  0  0  0  0
  -24.9990  -34.0480   24.9900 H   0  0  0  0  0  0  0  0  0  0  0  0
  -24.1870  -36.7430   23.0860 C   0  0  0  0  0  1  0  0  0  0  0  0
  -25.4330  -36.3360   23.8900 C   0  0  0  0  0  3  0  0  0  0  0  0
  -27.5750  -37.2130   24.7060 C   0  0  0  0  0  1  0  0  0  0  0  0
  -26.4660  -37.3880   23.7730 N   0  0  0  0  0  0  0  0  0  0  0  0
  -26.0630  -38.3080   23.9290 H   0  0  0  0  0  0  0  0  0  0  0  0
  -26.4190  -31.7210   25.1170 C   0  0  1  0  0  0  0  0  0  0  0  0
  -25.3370  -31.4820   26.1940 C   0  0  0  0  0  1  0  0  0  0  0  0
  -26.9960  -30.3440   24.7140 C   0  0  0  0  0  1  0  0  0  0  0  0
  -27.5780  -32.5110   25.7700 C   0  0  0  0  0  1  0  0  0  0  0  0
  1  2  1  0
  1  3  1  0
  2  4  1  0
  3  5  1  0
  4  5  1  0
  4  7  1  0
  5  6  1  1
  5 48  1  0
  8  7  2  0
  8  9  1  0
 10 18  1  0
 11 16  1  0
 12 13  1  0
 12 11  1  0
 14 13  1  0
 14 23  1  0
 14 15  1  0
 16 10  1  0
 16 15  1  0
 17 10  2  0
 18 19  1  0
 18  9  1  0
 20 21  2  0
 21 40  1  0
 22 21  1  0
 22 25  1  0
 23 20  1  0
 23 24  1  0
 24 22  2  0
 25 26  1  0
 26 27  2  0
 28 31  1  0
 28 27  1  0
 29 28  2  0
 30 29  1  0
 30 25  2  0
 31 32  1  0
 32 33  1  0
 33 34  2  0
 35 34  1  0
 35 39  1  0
 36 35  2  0
 37 32  2  0
 37 36  1  0
 38 37  1  0
 40 41  1  0
 41 44  1  0
 41 43  1  0
 42 40  2  0
 45 46  1  0
 45 20  1  0
 47 45  1  0
 49 48  1  0
 50 51  1  0
 50 49  1  0
 52 63  2  0
 53 51  1  0
 53 58  1  0
 54 62  1  0
 54 64  1  0
 55 61  1  0
 55 57  1  0
 56 62  1  0
 57 56  1  0
 58 57  2  0
 59 60  1  0
 59 53  2  0
 60 55  2  0
 61 54  1  0
 62 52  1  0
 64 66  2  0
 65 64  1  0
 67 65  1  0
 68 77  2  0
 68 73  1  0
 69 65  1  0
 69 73  1  0
 70 69  1  0
 71 72  1  0
 71 70  1  0
 72 68  1  0
 73 74  2  0
 74 75  1  0
 76 75  2  0
 77 76  1  0
 78 52  1  0
 78 79  1  0
 78 88  1  0
 79 82  1  0
 80 84  1  0
 80 79  1  0
 81 80  2  0
 84 83  1  0
 86 84  1  0
 86 87  1  0
 86 85  1  0
 88 91  1  1
 88 89  1  0
 90 88  1  0
M  ISO  4  10 100  18 100  50 101  51 101
M  END
>  <TORSDO>  (76) 
F 22

>  <SCORE>  (76) 
-13.093

>  <name>  (76) 
75

>  <ligand_id>  (76) 
75

>  <original_smiles>  (76) 
[H]c1c([H])c([H])c2c(c1[H])C([H])([H])C([H])([H])C([H])([H])C2([H])N([H])C(=O)C1([H])N(C(=O)C([H])(N([H])C(=O)C([H])(N([H])C([H])([H])[H])C([H])([H])[H])C(C([H])([H])[H])(C([H])([H])[H])C([H])([H])[H])C([H])([H])c2c([H])c(OC([H])([H])C([H])([H])C([H])([H])[N+]3([H])C([H])([H])C([H])([H])C([H])([H])C3([H])C([H])([H])C([H])([H])C([H])([H])N([H])C(=O)N3C([H])([H])C([H])([H])C([H])([H])C([H])(n4nc(-c5c([H])c([H])c(Oc6c([H])c([H])c(F)c([H])c6F)c([H])c5[H])c(C(=O)N([H])[H])c4N([H])[H])C3([H])[H])c([H])c([H])c2C1([H])[H]

>  <smiles>  (76) 
[H]c1c([H])c([H])c2c(c1[H])C([H])([H])C([H])([H])C([H])([H])C2([H])N([H])C(=O)C1([H])N(C(=O)C([H])(N([H])C(=O)C([H])(N([H])C([H])([H])[H])C([H])([H])[H])C(C([H])([H])[H])(C([H])([H])[H])C([H])([H])[H])C([H])([H])c2c([H])c(OC([H])([H])C([H])([H])C([H])([H])[N+]3([H])C([H])([H])C([H])([H])C([H])([H])C3([H])C([H])([H])C([H])([H])C([H])([H])N([H])C(=O)N3C([H])([H])C([H])([H])C([H])([H])C([H])(n4nc(-c5c([H])c([H])c(Oc6c([H])c([H])c(F)c([H])c6F)c([H])c5[H])c(C(=O)N([H])[H])c4N([H])[H])C3([H])[H])c([H])c([H])c2C1([H])[H]

$$$$
76:0:0
     RDKit          3D

 92101  0  0  1  0  0  0  0  0999 V2000
  -28.6540  -18.2790   20.5210 C   0  0  0  0  0  0  0  0  0  0  0  0
  -27.9620  -20.8510   19.8840 C   0  0  0  0  0  2  0  0  0  0  0  0
  -30.3590  -20.6080   19.3260 C   0  0  0  0  0  2  0  0  0  0  0  0
  -30.0270  -17.7950   19.9770 C   0  0  0  0  0  3  0  0  0  0  0  0
  -27.9450  -19.2860   19.5240 C   0  0  0  0  0  3  0  0  0  0  0  0
  -29.1220  -21.6950   19.2210 C   0  0  0  0  0  3  0  0  0  0  0  0
  -30.1280  -19.0120   18.8770 C   0  0  0  0  0  3  0  0  0  0  0  0
  -28.7730  -19.0370   18.3320 N   0  0  0  0  0  4  0  0  0  0  0  0
  -28.1420  -17.8400   21.5560 O   0  0  0  0  0  0  0  0  0  0  0  0
  -28.6710  -19.7430   17.6210 H   0  0  0  0  0  0  0  0  0  0  0  0
  -28.5590  -18.1370   17.9360 H   0  0  0  0  0  0  0  0  0  0  0  0
  -30.7470  -15.0570   19.6430 C   0  0  0  0  0  0  0  0  0  0  0  0
  -30.5710  -12.6790   18.7460 C   0  0  0  0  0  2  0  0  0  0  0  0
  -29.5290  -12.5840   17.6110 C   0  0  0  0  0  2  0  0  0  0  0  0
  -28.1090  -12.3780   18.1770 C   0  0  0  0  0  2  0  0  0  0  0  0
  -27.7980  -13.3160   19.3730 C   0  0  0  0  0  3  0  0  0  0  0  0
  -28.9570  -13.3730   20.3860 C   0  0  0  0  0  2  0  0  0  0  0  0
  -30.1530  -13.7930   19.6400 N   0  0  0  0  0  0  0  0  0  0  0  0
  -31.9590  -15.1070   19.4120 O   0  0  0  0  0  0  0  0  0  0  0  0
  -29.9330  -16.2280   19.6460 N   0  0  0  0  0  0  0  0  0  0  0  0
  -28.9710  -15.9400   19.6630 H   0  0  0  0  0  0  0  0  0  0  0  0
  -25.5190  -13.9000   20.3760 C   0  0  0  0  0  0  0  0  0  0  0  0
  -24.4740  -13.1320   20.8050 C   0  0  0  0  0  0  0  0  0  0  0  0
  -24.9010  -11.7750   20.6710 C   0  0  0  0  0  0  0  0  0  0  0  0
  -26.5130  -13.0150   19.9970 N   0  0  0  0  0  0  0  0  0  0  0  0
  -26.1580  -11.7270   20.2400 N   0  0  0  0  0  0  0  0  0  0  0  0
  -24.1610  -10.5230   20.8710 C   0  0  0  0  0  0  0  0  0  0  0  0
  -24.6030   -9.5460   21.7900 C   0  0  0  0  0  3  0  0  0  0  0  0
  -23.8680   -8.3570   21.9820 C   0  0  0  0  0  3  0  0  0  0  0  0
  -22.6720   -8.1370   21.2590 C   0  0  0  0  0  0  0  0  0  0  0  0
  -22.2440   -9.1030   20.3300 C   0  0  0  0  0  3  0  0  0  0  0  0
  -22.9820  -10.2840   20.1380 C   0  0  0  0  0  3  0  0  0  0  0  0
  -21.9050   -7.0010   21.3620 O   0  0  0  0  0  0  0  0  0  0  0  0
  -21.8040   -6.3060   22.5390 C   0  0  0  0  0  0  0  0  0  0  0  0
  -21.2780   -6.8950   23.7100 C   0  0  0  0  0  3  0  0  0  0  0  0
  -21.1310   -6.1240   24.8800 C   0  0  0  0  0  3  0  0  0  0  0  0
  -21.5000   -4.7660   24.8800 C   0  0  0  0  0  0  0  0  0  0  0  0
  -22.0180   -4.1750   23.7130 C   0  0  0  0  0  3  0  0  0  0  0  0
  -22.1700   -4.9440   22.5460 C   0  0  0  0  0  0  0  0  0  0  0  0
  -22.6500   -4.3680   21.4170 F   0  0  0  0  0  0  0  0  0  0  0  0
  -21.3520   -4.0200   25.9990 F   0  0  0  0  0  0  0  0  0  0  0  0
  -23.1210  -13.6270   21.2210 C   0  0  0  0  0  0  0  0  0  0  0  0
  -22.4610  -12.9140   22.1260 N   0  0  0  0  0  0  0  0  0  0  0  0
  -22.6630  -14.6820   20.7770 O   0  0  0  0  0  0  0  0  0  0  0  0
  -22.8440  -12.0620   22.5040 H   0  0  0  0  0  0  0  0  0  0  0  0
  -21.5540  -13.2250   22.4450 H   0  0  0  0  0  0  0  0  0  0  0  0
  -25.6950  -15.2740   20.2460 N   0  0  0  0  0  0  0  0  0  0  0  0
  -24.9560  -15.9230   20.4940 H   0  0  0  0  0  0  0  0  0  0  0  0
  -26.4980  -15.7220   19.8300 H   0  0  0  0  0  0  0  0  0  0  0  0
  -29.2950  -23.3430   19.6530 C   0  0  0  0  0  3  0  0  0  0  0  0
  -28.3660  -24.6890   19.1850 C   0  0  0  0  0  3  0  0  0  0  0  0
  -28.4720  -26.1680   19.6940 O   0  0  0  0  0  0  0  0  0  0  0  0
  -24.6080  -31.5510   22.9990 C   0  0  0  0  0  0  0  0  0  0  0  0
  -27.3760  -27.1160   19.6810 C   0  0  0  0  0  0  0  0  0  0  0  0
  -23.4680  -30.2060   21.2810 C   0  0  0  0  0  3  0  0  0  0  0  0
  -24.9750  -28.7760   19.7630 C   0  0  0  0  0  0  0  0  0  0  0  0
  -26.0110  -30.5670   21.1430 C   0  0  0  0  0  2  0  0  0  0  0  0
  -26.1390  -29.2230   20.4060 C   0  0  0  0  0  0  0  0  0  0  0  0
  -27.3350  -28.4100   20.3510 C   0  0  0  0  0  3  0  0  0  0  0  0
  -26.1820  -26.7820   19.0040 C   0  0  0  0  0  3  0  0  0  0  0  0
  -25.0130  -27.5730   19.0450 C   0  0  0  0  0  3  0  0  0  0  0  0
  -23.7090  -29.6190   19.8680 C   0  0  0  0  0  2  0  0  0  0  0  0
  -24.7160  -30.7930   21.8640 N   0  0  0  0  0  0  0  0  0  0  0  0
  -23.5080  -31.7640   23.5330 O   0  0  0  0  0  0  0  0  0  0  0  0
  -22.8260  -29.1200   22.1790 C   0  0  0  0  0  0  0  0  0  0  0  0
  -21.5000  -28.9380   22.0630 N   0  0  0  0  0  0  0  0  0  0  0  0
  -23.5230  -28.4470   22.9410 O   0  0  0  0  0  0  0  0  0  0  0  0
  -20.9930  -29.5320   21.4210 H   0  0  0  0  0  0  0  0  0  0  0  0
  -18.1350  -27.7010   22.6010 C   0  0  0  0  0  0  0  0  0  0  0  0
  -20.7060  -27.9350   22.7780 C   0  0  0  0  0  3  0  0  0  0  0  0
  -20.7740  -26.5610   22.0710 C   0  0  0  0  0  2  0  0  0  0  0  0
  -19.6270  -26.3350   21.0810 C   0  0  0  0  0  2  0  0  0  0  0  0
  -18.2760  -26.4200   21.7960 C   0  0  0  0  0  2  0  0  0  0  0  0
  -19.2760  -28.4210   23.0490 C   0  0  0  0  0  0  0  0  0  0  0  0
  -19.0900  -29.6230   23.7650 C   0  0  0  0  0  3  0  0  0  0  0  0
  -17.7960  -30.1060   24.0360 C   0  0  0  0  0  3  0  0  0  0  0  0
  -16.6710  -29.3830   23.6030 C   0  0  0  0  0  3  0  0  0  0  0  0
  -16.8420  -28.1830   22.8920 C   0  0  0  0  0  3  0  0  0  0  0  0
  -25.8550  -32.2020   23.6690 C   0  0  0  0  0  3  0  0  0  0  0  0
  -25.4940  -33.5790   24.0470 N   0  0  0  0  0  0  0  0  0  0  0  0
  -25.7890  -34.6710   23.3300 C   0  0  0  0  0  0  0  0  0  0  0  0
  -26.4610  -34.6280   22.2960 O   0  0  0  0  0  0  0  0  0  0  0  0
  -24.8930  -33.6810   24.8520 H   0  0  0  0  0  0  0  0  0  0  0  0
  -23.9940  -36.4140   23.0540 C   0  0  0  0  0  1  0  0  0  0  0  0
  -25.2570  -36.0280   23.8380 C   0  0  0  0  0  3  0  0  0  0  0  0
  -27.3590  -36.9710   24.6920 C   0  0  0  0  0  1  0  0  0  0  0  0
  -26.2510  -37.1200   23.7500 N   0  0  0  0  0  0  0  0  0  0  0  0
  -25.8140  -38.0230   23.9180 H   0  0  0  0  0  0  0  0  0  0  0  0
  -26.3620  -31.4030   24.9320 C   0  0  1  0  0  0  0  0  0  0  0  0
  -25.2570  -31.1010   25.9710 C   0  0  0  0  0  1  0  0  0  0  0  0
  -26.9860  -30.0530   24.5090 C   0  0  0  0  0  1  0  0  0  0  0  0
  -27.4800  -32.2020   25.6400 C   0  0  0  0  0  1  0  0  0  0  0  0
  1  9  2  0
  4 20  1  0
  4  1  1  0
  5  2  1  0
  5  1  1  0
  6  3  1  0
  6 50  1  0
  6  2  1  0
  7  3  1  0
  7  4  1  0
  8  7  1  0
  8  5  1  0
 10  8  1  0
 11  8  1  0
 12 20  1  0
 13 18  1  0
 14 15  1  0
 14 13  1  0
 16 15  1  0
 16 25  1  0
 16 17  1  0
 18 12  1  0
 18 17  1  0
 19 12  2  0
 20 21  1  0
 22 23  2  0
 23 42  1  0
 24 23  1  0
 24 27  1  0
 25 26  1  0
 25 22  1  0
 26 24  2  0
 27 28  1  0
 28 29  2  0
 30 33  1  0
 30 29  1  0
 31 30  2  0
 32 31  1  0
 32 27  2  0
 33 34  1  0
 34 39  2  0
 34 35  1  0
 35 36  2  0
 37 36  1  0
 37 41  1  0
 38 37  2  0
 39 38  1  0
 40 39  1  0
 42 43  1  0
 43 46  1  0
 43 45  1  0
 44 42  2  0
 47 22  1  0
 47 48  1  0
 49 47  1  0
 51 50  2  0
 51 52  1  0
 53 64  2  0
 54 52  1  0
 54 59  1  0
 55 63  1  0
 55 65  1  0
 56 62  1  0
 56 58  1  0
 57 63  1  0
 58 57  1  0
 59 58  2  0
 60 61  1  0
 60 54  2  0
 61 56  2  0
 62 55  1  0
 63 53  1  0
 65 67  2  0
 66 65  1  0
 68 66  1  0
 69 78  2  0
 69 74  1  0
 70 66  1  0
 70 74  1  0
 71 70  1  0
 72 73  1  0
 72 71  1  0
 73 69  1  0
 74 75  2  0
 75 76  1  0
 77 76  2  0
 78 77  1  0
 79 53  1  0
 79 80  1  0
 79 89  1  0
 80 83  1  0
 81 85  1  0
 81 80  1  0
 82 81  2  0
 85 84  1  0
 87 85  1  0
 87 88  1  0
 87 86  1  0
 89 92  1  1
 89 90  1  0
 91 89  1  0
M  ISO  4  12 100  20 100  51 101  52 101
M  END
>  <TORSDO>  (77) 
F 18

>  <SCORE>  (77) 
-13.709

>  <name>  (77) 
76

>  <ligand_id>  (77) 
76

>  <original_smiles>  (77) 
[H]c1c([H])c([H])c2c(c1[H])C([H])([H])C([H])([H])C([H])([H])C2([H])N([H])C(=O)C1([H])N(C(=O)C([H])(N([H])C(=O)C([H])(N([H])C([H])([H])[H])C([H])([H])[H])C(C([H])([H])[H])(C([H])([H])[H])C([H])([H])[H])C([H])([H])c2c([H])c(OC([H])([H])C([H])([H])C3([H])C([H])([H])C4([H])C(=O)C([H])(N([H])C(=O)N5C([H])([H])C([H])([H])C([H])([H])C([H])(n6nc(-c7c([H])c([H])c(Oc8c([H])c([H])c(F)c([H])c8F)c([H])c7[H])c(C(=O)N([H])[H])c6N([H])[H])C5([H])[H])C([H])(C3([H])[H])[N+]4([H])[H])c([H])c([H])c2C1([H])[H]

>  <smiles>  (77) 
[H]c1c([H])c([H])c2c(c1[H])C([H])([H])C([H])([H])C([H])([H])C2([H])N([H])C(=O)C1([H])N(C(=O)C([H])(N([H])C(=O)C([H])(N([H])C([H])([H])[H])C([H])([H])[H])C(C([H])([H])[H])(C([H])([H])[H])C([H])([H])[H])C([H])([H])c2c([H])c(OC([H])([H])C([H])([H])C3([H])C([H])([H])C4([H])C(=O)C([H])(N([H])C(=O)N5C([H])([H])C([H])([H])C([H])([H])C([H])(n6nc(-c7c([H])c([H])c(Oc8c([H])c([H])c(F)c([H])c8F)c([H])c7[H])c(C(=O)N([H])[H])c6N([H])[H])C5([H])[H])C([H])(C3([H])[H])[N+]4([H])[H])c([H])c([H])c2C1([H])[H]

$$$$
77:0:0
     RDKit          3D

 94103  0  0  1  0  0  0  0  0999 V2000
  -30.0070  -20.4930   22.6440 C   0  0  0  0  0  3  0  0  0  0  0  0
  -30.6480  -19.2450   22.5150 C   0  0  0  0  0  3  0  0  0  0  0  0
  -30.4850  -19.4130   20.0960 C   0  0  0  0  0  3  0  0  0  0  0  0
  -29.8670  -20.6810   20.2120 C   0  0  0  0  0  0  0  0  0  0  0  0
  -29.6190  -21.2260   21.5020 C   0  0  0  0  0  0  0  0  0  0  0  0
  -30.8920  -18.6960   21.2390 C   0  0  0  0  0  0  0  0  0  0  0  0
  -29.4900  -21.4160   18.9720 C   0  0  0  0  0  0  0  0  0  0  0  0
  -28.9530  -22.5940   21.6870 C   0  0  0  0  0  2  0  0  0  0  0  0
  -29.0850  -22.8760   19.1470 C   0  0  0  0  0  2  0  0  0  0  0  0
  -28.2370  -23.0970   20.4120 C   0  0  0  0  0  3  0  0  0  0  0  0
  -29.5080  -20.9180   17.8420 O   0  0  0  0  0  0  0  0  0  0  0  0
  -31.6940  -17.4070   21.0800 C   0  0  0  0  0  2  0  0  0  0  0  0
  -31.1840  -16.1720   21.8690 C   0  0  0  0  0  2  0  0  0  0  0  0
  -30.7100  -14.4250   20.1630 C   0  0  0  0  0  0  0  0  0  0  0  0
  -30.3010  -12.3290   18.9270 C   0  0  0  0  0  2  0  0  0  0  0  0
  -29.2910  -12.5380   17.7860 C   0  0  0  0  0  2  0  0  0  0  0  0
  -27.8510  -12.3630   18.3020 C   0  0  0  0  0  2  0  0  0  0  0  0
  -27.5750  -13.1840   19.5900 C   0  0  0  0  0  3  0  0  0  0  0  0
  -28.6920  -12.9740   20.6330 C   0  0  0  0  0  2  0  0  0  0  0  0
  -29.9810  -13.2900   19.9930 N   0  0  0  0  0  0  0  0  0  0  0  0
  -31.7210  -14.6770   19.5040 O   0  0  0  0  0  0  0  0  0  0  0  0
  -30.3070  -15.2430   21.1450 N   0  0  0  0  0  0  0  0  0  0  0  0
  -29.4250  -15.0160   21.5840 H   0  0  0  0  0  0  0  0  0  0  0  0
  -25.2130  -13.7340   20.4520 C   0  0  0  0  0  0  0  0  0  0  0  0
  -24.1830  -12.9360   20.8690 C   0  0  0  0  0  0  0  0  0  0  0  0
  -24.6630  -11.5930   20.7810 C   0  0  0  0  0  0  0  0  0  0  0  0
  -26.2580  -12.8770   20.1430 N   0  0  0  0  0  0  0  0  0  0  0  0
  -25.9330  -11.5830   20.3950 N   0  0  0  0  0  0  0  0  0  0  0  0
  -23.9710  -10.3150   20.9860 C   0  0  0  0  0  0  0  0  0  0  0  0
  -24.4200   -9.3740   21.9400 C   0  0  0  0  0  3  0  0  0  0  0  0
  -23.7260   -8.1600   22.1310 C   0  0  0  0  0  3  0  0  0  0  0  0
  -22.5660   -7.8770   21.3700 C   0  0  0  0  0  0  0  0  0  0  0  0
  -22.1370   -8.8070   20.4060 C   0  0  0  0  0  3  0  0  0  0  0  0
  -22.8320  -10.0110   20.2120 C   0  0  0  0  0  3  0  0  0  0  0  0
  -21.8430   -6.7150   21.4720 O   0  0  0  0  0  0  0  0  0  0  0  0
  -21.7540   -6.0240   22.6530 C   0  0  0  0  0  0  0  0  0  0  0  0
  -21.2160   -6.6100   23.8210 C   0  0  0  0  0  3  0  0  0  0  0  0
  -21.0760   -5.8410   24.9930 C   0  0  0  0  0  3  0  0  0  0  0  0
  -21.4660   -4.4880   25.0000 C   0  0  0  0  0  0  0  0  0  0  0  0
  -21.9960   -3.9010   23.8380 C   0  0  0  0  0  3  0  0  0  0  0  0
  -22.1360   -4.6670   22.6670 C   0  0  0  0  0  0  0  0  0  0  0  0
  -22.6290   -4.0920   21.5430 F   0  0  0  0  0  0  0  0  0  0  0  0
  -21.3250   -3.7470   26.1230 F   0  0  0  0  0  0  0  0  0  0  0  0
  -22.7960  -13.3820   21.2350 C   0  0  0  0  0  0  0  0  0  0  0  0
  -22.1250  -12.6430   22.1130 N   0  0  0  0  0  0  0  0  0  0  0  0
  -22.3170  -14.4190   20.7770 O   0  0  0  0  0  0  0  0  0  0  0  0
  -22.5250  -11.8020   22.5050 H   0  0  0  0  0  0  0  0  0  0  0  0
  -21.1990  -12.9240   22.4010 H   0  0  0  0  0  0  0  0  0  0  0  0
  -25.3480  -15.1090   20.2920 N   0  0  0  0  0  0  0  0  0  0  0  0
  -24.5870  -15.7570   20.4600 H   0  0  0  0  0  0  0  0  0  0  0  0
  -26.1820  -15.5630   19.9360 H   0  0  0  0  0  0  0  0  0  0  0  0
  -27.6550  -24.5340   20.4700 C   0  0  0  0  0  2  0  0  0  0  0  0
  -28.6210  -25.7020   20.7790 C   0  0  0  0  0  2  0  0  0  0  0  0
  -28.4000  -26.8870   20.0010 O   0  0  0  0  0  0  0  0  0  0  0  0
  -24.6540  -31.9580   23.3520 C   0  0  0  0  0  0  0  0  0  0  0  0
  -27.2120  -27.5710   20.1350 C   0  0  0  0  0  0  0  0  0  0  0  0
  -23.4110  -30.6090   21.6920 C   0  0  0  0  0  3  0  0  0  0  0  0
  -24.8300  -29.0920   20.2200 C   0  0  0  0  0  0  0  0  0  0  0  0
  -25.9370  -30.9520   21.4690 C   0  0  0  0  0  2  0  0  0  0  0  0
  -26.0010  -29.5940   20.8000 C   0  0  0  0  0  0  0  0  0  0  0  0
  -27.1970  -28.8390   20.7570 C   0  0  0  0  0  3  0  0  0  0  0  0
  -26.0240  -27.0900   19.5400 C   0  0  0  0  0  3  0  0  0  0  0  0
  -24.8350  -27.8390   19.5900 C   0  0  0  0  0  3  0  0  0  0  0  0
  -23.5970  -29.9580   20.2960 C   0  0  0  0  0  2  0  0  0  0  0  0
  -24.6860  -31.1860   22.2290 N   0  0  0  0  0  0  0  0  0  0  0  0
  -23.5840  -32.2260   23.9160 O   0  0  0  0  0  0  0  0  0  0  0  0
  -22.7650  -29.5690   22.6340 C   0  0  0  0  0  0  0  0  0  0  0  0
  -21.4460  -29.3690   22.4900 N   0  0  0  0  0  0  0  0  0  0  0  0
  -23.4490  -28.9460   23.4520 O   0  0  0  0  0  0  0  0  0  0  0  0
  -20.9590  -29.9250   21.7990 H   0  0  0  0  0  0  0  0  0  0  0  0
  -18.0800  -28.1270   22.9220 C   0  0  0  0  0  0  0  0  0  0  0  0
  -20.6310  -28.4140   23.2390 C   0  0  0  0  0  3  0  0  0  0  0  0
  -20.7600  -26.9900   22.6540 C   0  0  0  0  0  2  0  0  0  0  0  0
  -19.6780  -26.6610   21.6200 C   0  0  0  0  0  2  0  0  0  0  0  0
  -18.2840  -26.7840   22.2430 C   0  0  0  0  0  2  0  0  0  0  0  0
  -19.1820  -28.8990   23.3740 C   0  0  0  0  0  0  0  0  0  0  0  0
  -18.9380  -30.1540   23.9710 C   0  0  0  0  0  3  0  0  0  0  0  0
  -17.6250  -30.6380   24.1200 C   0  0  0  0  0  3  0  0  0  0  0  0
  -16.5360  -29.8620   23.6880 C   0  0  0  0  0  3  0  0  0  0  0  0
  -16.7650  -28.6090   23.0930 C   0  0  0  0  0  3  0  0  0  0  0  0
  -25.9560  -32.5570   23.9680 C   0  0  0  0  0  3  0  0  0  0  0  0
  -26.4750  -31.7600   25.2260 C   0  0  1  0  0  0  0  0  0  0  0  0
  -25.3770  -31.4940   26.2830 C   0  0  0  0  0  1  0  0  0  0  0  0
  -27.0670  -30.3970   24.8010 C   0  0  0  0  0  1  0  0  0  0  0  0
  -27.6190  -32.5480   25.9080 C   0  0  0  0  0  1  0  0  0  0  0  0
  -25.6750  -33.9560   24.3180 N   0  0  0  0  0  0  0  0  0  0  0  0
  -26.0280  -35.0120   23.5720 C   0  0  0  0  0  0  0  0  0  0  0  0
  -26.6950  -34.9100   22.5380 O   0  0  0  0  0  0  0  0  0  0  0  0
  -25.0830  -34.1100   25.1210 H   0  0  0  0  0  0  0  0  0  0  0  0
  -24.3360  -36.8410   23.2400 C   0  0  0  0  0  1  0  0  0  0  0  0
  -25.5650  -36.4010   24.0500 C   0  0  0  0  0  3  0  0  0  0  0  0
  -27.7070  -37.2320   24.9110 C   0  0  0  0  0  1  0  0  0  0  0  0
  -26.6190  -37.4340   23.9600 N   0  0  0  0  0  0  0  0  0  0  0  0
  -26.2300  -38.3600   24.1170 H   0  0  0  0  0  0  0  0  0  0  0  0
  2  1  1  0
  3  4  2  0
  3  6  1  0
  4  5  1  0
  5  8  1  0
  5  1  2  0
  6  2  2  0
  7  9  1  0
  7  4  1  0
  9 10  1  0
 10 52  1  0
 10  8  1  0
 11  7  2  0
 12  6  1  0
 12 13  1  0
 14 22  1  0
 15 20  1  0
 16 17  1  0
 16 15  1  0
 18 17  1  0
 18 27  1  0
 18 19  1  0
 20 14  1  0
 20 19  1  0
 21 14  2  0
 22 23  1  0
 22 13  1  0
 24 25  2  0
 25 44  1  0
 26 25  1  0
 26 29  1  0
 27 28  1  0
 27 24  1  0
 28 26  2  0
 29 30  1  0
 30 31  2  0
 32 35  1  0
 32 31  1  0
 33 32  2  0
 34 33  1  0
 34 29  2  0
 35 36  1  0
 36 41  2  0
 36 37  1  0
 37 38  2  0
 38 39  1  0
 39 43  1  0
 40 39  2  0
 41 40  1  0
 42 41  1  0
 44 45  1  0
 45 48  1  0
 45 47  1  0
 46 44  2  0
 49 24  1  0
 49 50  1  0
 51 49  1  0
 52 53  1  0
 54 56  1  0
 54 53  1  0
 55 66  2  0
 56 61  1  0
 57 65  1  0
 57 67  1  0
 58 64  1  0
 58 60  1  0
 59 65  1  0
 60 59  1  0
 61 60  2  0
 62 63  1  0
 62 56  2  0
 63 58  2  0
 64 57  1  0
 65 55  1  0
 67 69  2  0
 68 67  1  0
 70 68  1  0
 71 80  2  0
 71 76  1  0
 72 68  1  0
 72 76  1  0
 73 72  1  0
 74 75  1  0
 74 73  1  0
 75 71  1  0
 76 77  2  0
 77 78  1  0
 79 78  2  0
 80 79  1  0
 81 55  1  0
 81 86  1  0
 81 82  1  0
 82 85  1  1
 82 83  1  0
 84 82  1  0
 86 89  1  0
 87 91  1  0
 87 86  1  0
 88 87  2  0
 91 90  1  0
 93 91  1  0
 93 94  1  0
 93 92  1  0
M  ISO  4  14 100  22 100  53 101  54 101
M  END
>  <TORSDO>  (78) 
F 20

>  <SCORE>  (78) 
-13.328

>  <name>  (78) 
77

>  <ligand_id>  (78) 
77

>  <original_smiles>  (78) 
[H]c1c([H])c([H])c2c(c1[H])C([H])([H])C([H])([H])C([H])([H])C2([H])N([H])C(=O)C1([H])N(C(=O)C([H])(N([H])C(=O)C([H])(N([H])C([H])([H])[H])C([H])([H])[H])C(C([H])([H])[H])(C([H])([H])[H])C([H])([H])[H])C([H])([H])c2c([H])c(OC([H])([H])C([H])([H])C3([H])C([H])([H])C(=O)c4c([H])c(C([H])([H])C([H])([H])N([H])C(=O)N5C([H])([H])C([H])([H])C([H])([H])C([H])(n6nc(-c7c([H])c([H])c(Oc8c([H])c([H])c(F)c([H])c8F)c([H])c7[H])c(C(=O)N([H])[H])c6N([H])[H])C5([H])[H])c([H])c([H])c4C3([H])[H])c([H])c([H])c2C1([H])[H]

>  <smiles>  (78) 
[H]c1c([H])c([H])c2c(c1[H])C([H])([H])C([H])([H])C([H])([H])C2([H])N([H])C(=O)C1([H])N(C(=O)C([H])(N([H])C(=O)C([H])(N([H])C([H])([H])[H])C([H])([H])[H])C(C([H])([H])[H])(C([H])([H])[H])C([H])([H])[H])C([H])([H])c2c([H])c(OC([H])([H])C([H])([H])C3([H])C([H])([H])C(=O)c4c([H])c(C([H])([H])C([H])([H])N([H])C(=O)N5C([H])([H])C([H])([H])C([H])([H])C([H])(n6nc(-c7c([H])c([H])c(Oc8c([H])c([H])c(F)c([H])c8F)c([H])c7[H])c(C(=O)N([H])[H])c6N([H])[H])C5([H])[H])c([H])c([H])c4C3([H])[H])c([H])c([H])c2C1([H])[H]

$$$$
78:0:0
     RDKit          3D

 91100  0  0  1  0  0  0  0  0999 V2000
  -29.3220  -19.7570   18.9870 C   0  0  0  0  0  3  0  0  0  0  0  0
  -29.2260  -21.2040   19.0270 C   0  0  0  0  0  3  0  0  0  0  0  0
  -29.7110  -19.7110   21.3090 C   0  0  0  0  0  3  0  0  0  0  0  0
  -29.5730  -18.9180   20.1220 C   0  0  0  0  0  0  0  0  0  0  0  0
  -29.3490  -21.9940   20.2150 C   0  0  0  0  0  0  0  0  0  0  0  0
  -29.6020  -21.1610   21.3650 C   0  0  0  0  0  0  0  0  0  0  0  0
  -30.8390  -14.9080   19.9690 C   0  0  0  0  0  0  0  0  0  0  0  0
  -30.5870  -12.6220   18.9170 C   0  0  0  0  0  2  0  0  0  0  0  0
  -29.5900  -12.6580   17.7360 C   0  0  0  0  0  2  0  0  0  0  0  0
  -28.1490  -12.4390   18.2340 C   0  0  0  0  0  2  0  0  0  0  0  0
  -27.8200  -13.3070   19.4760 C   0  0  0  0  0  3  0  0  0  0  0  0
  -28.9370  -13.2360   20.5400 C   0  0  0  0  0  2  0  0  0  0  0  0
  -30.1900  -13.6720   19.9030 N   0  0  0  0  0  0  0  0  0  0  0  0
  -31.9460  -14.9940   19.4310 O   0  0  0  0  0  0  0  0  0  0  0  0
  -28.5200  -16.8120   21.2530 C   0  0  0  0  0  2  0  0  0  0  0  0
  -29.8030  -16.2710   21.8880 C   0  0  0  0  0  2  0  0  0  0  0  0
  -29.3700  -17.2850   20.0660 C   0  0  0  0  0  3  0  0  0  0  0  0
  -30.2610  -16.0800   20.5180 N   0  0  0  0  0  0  0  0  0  0  0  0
  -25.4710  -13.8450   20.3560 C   0  0  0  0  0  0  0  0  0  0  0  0
  -24.4390  -13.0540   20.7710 C   0  0  0  0  0  0  0  0  0  0  0  0
  -24.9040  -11.7090   20.6580 C   0  0  0  0  0  0  0  0  0  0  0  0
  -26.5080  -12.9860   20.0320 N   0  0  0  0  0  0  0  0  0  0  0  0
  -26.1750  -11.6910   20.2730 N   0  0  0  0  0  0  0  0  0  0  0  0
  -24.1890  -10.4380   20.8360 C   0  0  0  0  0  0  0  0  0  0  0  0
  -24.6240   -9.4680   21.7660 C   0  0  0  0  0  3  0  0  0  0  0  0
  -23.9070   -8.2650   21.9320 C   0  0  0  0  0  3  0  0  0  0  0  0
  -22.7380   -8.0230   21.1710 C   0  0  0  0  0  0  0  0  0  0  0  0
  -22.3220   -8.9820   20.2310 C   0  0  0  0  0  3  0  0  0  0  0  0
  -23.0410  -10.1770   20.0610 C   0  0  0  0  0  3  0  0  0  0  0  0
  -21.9920   -6.8730   21.2480 O   0  0  0  0  0  0  0  0  0  0  0  0
  -21.8680   -6.1730   22.4220 C   0  0  0  0  0  0  0  0  0  0  0  0
  -21.3430   -6.7660   23.5900 C   0  0  0  0  0  3  0  0  0  0  0  0
  -21.1680   -5.9920   24.7560 C   0  0  0  0  0  3  0  0  0  0  0  0
  -21.5070   -4.6260   24.7510 C   0  0  0  0  0  0  0  0  0  0  0  0
  -22.0250   -4.0320   23.5870 C   0  0  0  0  0  3  0  0  0  0  0  0
  -22.2020   -4.8030   22.4240 C   0  0  0  0  0  0  0  0  0  0  0  0
  -22.6810   -4.2220   21.2980 F   0  0  0  0  0  0  0  0  0  0  0  0
  -21.3320   -3.8800   25.8670 F   0  0  0  0  0  0  0  0  0  0  0  0
  -23.0610  -13.5170   21.1460 C   0  0  0  0  0  0  0  0  0  0  0  0
  -22.3940  -12.7970   22.0400 N   0  0  0  0  0  0  0  0  0  0  0  0
  -22.5870  -14.5540   20.6820 O   0  0  0  0  0  0  0  0  0  0  0  0
  -22.7920  -11.9580   22.4360 H   0  0  0  0  0  0  0  0  0  0  0  0
  -21.4730  -13.0890   22.3350 H   0  0  0  0  0  0  0  0  0  0  0  0
  -25.5920  -15.2210   20.1960 N   0  0  0  0  0  0  0  0  0  0  0  0
  -24.8100  -15.8460   20.3560 H   0  0  0  0  0  0  0  0  0  0  0  0
  -26.3860  -15.6790   19.7690 H   0  0  0  0  0  0  0  0  0  0  0  0
  -31.2520  -21.9840   23.1060 C   0  0  0  0  0  1  0  0  0  0  0  0
  -29.7750  -21.8030   22.7340 C   0  0  0  0  0  2  0  0  0  0  0  0
  -29.4530  -23.6360   20.2020 C   0  0  0  0  0  3  0  0  0  0  0  0
  -28.2410  -24.7610   20.1150 C   0  0  0  0  0  3  0  0  0  0  0  0
  -28.4850  -26.2830   20.1860 O   0  0  0  0  0  0  0  0  0  0  0  0
  -24.8560  -31.8660   23.2570 C   0  0  0  0  0  0  0  0  0  0  0  0
  -27.4050  -27.2230   20.1490 C   0  0  0  0  0  0  0  0  0  0  0  0
  -23.6380  -30.4950   21.6080 C   0  0  0  0  0  3  0  0  0  0  0  0
  -25.0710  -28.9390   20.1560 C   0  0  0  0  0  0  0  0  0  0  0  0
  -26.1880  -30.7680   21.4230 C   0  0  0  0  0  2  0  0  0  0  0  0
  -26.2540  -29.3880   20.7560 C   0  0  0  0  0  0  0  0  0  0  0  0
  -27.4230  -28.5470   20.7330 C   0  0  0  0  0  3  0  0  0  0  0  0
  -26.1940  -26.8610   19.5190 C   0  0  0  0  0  3  0  0  0  0  0  0
  -25.0500  -27.6870   19.5230 C   0  0  0  0  0  3  0  0  0  0  0  0
  -23.8450  -29.8340   20.2200 C   0  0  0  0  0  2  0  0  0  0  0  0
  -24.9140  -31.0630   22.1520 N   0  0  0  0  0  0  0  0  0  0  0  0
  -23.7750  -32.1460   23.7970 O   0  0  0  0  0  0  0  0  0  0  0  0
  -22.9650  -29.4760   22.5630 C   0  0  0  0  0  0  0  0  0  0  0  0
  -21.6380  -29.3060   22.4380 N   0  0  0  0  0  0  0  0  0  0  0  0
  -23.6410  -28.8410   23.3780 O   0  0  0  0  0  0  0  0  0  0  0  0
  -21.1510  -29.8700   21.7550 H   0  0  0  0  0  0  0  0  0  0  0  0
  -18.2570  -28.1070   22.9370 C   0  0  0  0  0  0  0  0  0  0  0  0
  -20.8170  -28.3630   23.2020 C   0  0  0  0  0  3  0  0  0  0  0  0
  -20.9150  -26.9360   22.6150 C   0  0  0  0  0  2  0  0  0  0  0  0
  -19.8120  -26.6230   21.6000 C   0  0  0  0  0  2  0  0  0  0  0  0
  -18.4310  -26.7640   22.2480 C   0  0  0  0  0  2  0  0  0  0  0  0
  -19.3770  -28.8650   23.3710 C   0  0  0  0  0  0  0  0  0  0  0  0
  -19.1600  -30.1220   23.9760 C   0  0  0  0  0  3  0  0  0  0  0  0
  -17.8560  -30.6210   24.1510 C   0  0  0  0  0  3  0  0  0  0  0  0
  -16.7500  -29.8610   23.7330 C   0  0  0  0  0  3  0  0  0  0  0  0
  -16.9520  -28.6050   23.1320 C   0  0  0  0  0  3  0  0  0  0  0  0
  -26.1420  -32.4880   23.8820 C   0  0  0  0  0  3  0  0  0  0  0  0
  -26.6600  -31.6980   25.1470 C   0  0  1  0  0  0  0  0  0  0  0  0
  -25.5700  -31.4530   26.2180 C   0  0  0  0  0  1  0  0  0  0  0  0
  -27.2360  -30.3220   24.7400 C   0  0  0  0  0  1  0  0  0  0  0  0
  -27.8160  -32.4800   25.8150 C   0  0  0  0  0  1  0  0  0  0  0  0
  -25.8380  -33.8820   24.2360 N   0  0  0  0  0  0  0  0  0  0  0  0
  -26.1520  -34.9470   23.4850 C   0  0  0  0  0  0  0  0  0  0  0  0
  -26.7950  -34.8570   22.4360 O   0  0  0  0  0  0  0  0  0  0  0  0
  -25.2630  -34.0250   25.0530 H   0  0  0  0  0  0  0  0  0  0  0  0
  -24.4060  -36.7400   23.2140 C   0  0  0  0  0  1  0  0  0  0  0  0
  -25.6780  -36.3290   23.9750 C   0  0  0  0  0  3  0  0  0  0  0  0
  -27.8380  -37.2170   24.7370 C   0  0  0  0  0  1  0  0  0  0  0  0
  -26.7020  -37.3870   23.8330 N   0  0  0  0  0  0  0  0  0  0  0  0
  -26.2990  -38.3050   24.0010 H   0  0  0  0  0  0  0  0  0  0  0  0
  1  2  2  0
  1  4  1  0
  2  5  1  0
  3  6  1  0
  4  3  2  0
  5  6  2  0
  6 48  1  0
  7 18  1  0
  8 13  1  0
  9 10  1  0
  9  8  1  0
 11 10  1  0
 11 22  1  0
 11 12  1  0
 13  7  1  0
 13 12  1  0
 14  7  2  0
 15 16  1  0
 17  4  1  0
 17 18  1  0
 17 15  1  0
 18 16  1  0
 19 20  2  0
 20 39  1  0
 21 20  1  0
 21 24  1  0
 22 23  1  0
 22 19  1  0
 23 21  2  0
 24 25  1  0
 25 26  2  0
 27 30  1  0
 27 26  1  0
 28 27  2  0
 29 28  1  0
 29 24  2  0
 30 31  1  0
 31 36  2  0
 31 32  1  0
 32 33  2  0
 34 33  1  0
 34 38  1  0
 35 34  2  0
 36 35  1  0
 37 36  1  0
 39 40  1  0
 40 43  1  0
 40 42  1  0
 41 39  2  0
 44 19  1  0
 44 45  1  0
 46 44  1  0
 48 47  1  0
 49  5  1  0
 50 51  1  0
 50 49  2  0
 52 63  2  0
 53 51  1  0
 53 58  1  0
 54 62  1  0
 54 64  1  0
 55 61  1  0
 55 57  1  0
 56 62  1  0
 57 56  1  0
 58 57  2  0
 59 60  1  0
 59 53  2  0
 60 55  2  0
 61 54  1  0
 62 52  1  0
 64 66  2  0
 65 64  1  0
 67 65  1  0
 68 77  2  0
 68 73  1  0
 69 65  1  0
 69 73  1  0
 70 69  1  0
 71 72  1  0
 71 70  1  0
 72 68  1  0
 73 74  2  0
 74 75  1  0
 76 75  2  0
 77 76  1  0
 78 52  1  0
 78 83  1  0
 78 79  1  0
 79 82  1  1
 79 80  1  0
 81 79  1  0
 83 86  1  0
 84 88  1  0
 84 83  1  0
 85 84  2  0
 88 87  1  0
 90 88  1  0
 90 91  1  0
 90 89  1  0
M  ISO  4   7 100  18 100  50 101  51 101
M  END
>  <TORSDO>  (79) 
F 19

>  <SCORE>  (79) 
-12.976

>  <name>  (79) 
78

>  <ligand_id>  (79) 
78

>  <original_smiles>  (79) 
[H]c1c([H])c([H])c2c(c1[H])C([H])([H])C([H])([H])C([H])([H])C2([H])N([H])C(=O)C1([H])N(C(=O)C([H])(N([H])C(=O)C([H])(N([H])C([H])([H])[H])C([H])([H])[H])C(C([H])([H])[H])(C([H])([H])[H])C([H])([H])[H])C([H])([H])c2c([H])c(OC([H])([H])C([H])([H])c3c([H])c([H])c(C4([H])N(C(=O)N5C([H])([H])C([H])([H])C([H])([H])C([H])(n6nc(-c7c([H])c([H])c(Oc8c([H])c([H])c(F)c([H])c8F)c([H])c7[H])c(C(=O)N([H])[H])c6N([H])[H])C5([H])[H])C([H])([H])C4([H])[H])c([H])c3C([H])([H])C([H])([H])[H])c([H])c([H])c2C1([H])[H]

>  <smiles>  (79) 
[H]c1c([H])c([H])c2c(c1[H])C([H])([H])C([H])([H])C([H])([H])C2([H])N([H])C(=O)C1([H])N(C(=O)C([H])(N([H])C(=O)C([H])(N([H])C([H])([H])[H])C([H])([H])[H])C(C([H])([H])[H])(C([H])([H])[H])C([H])([H])[H])C([H])([H])c2c([H])c(OC([H])([H])C([H])([H])c3c([H])c([H])c(C4([H])N(C(=O)N5C([H])([H])C([H])([H])C([H])([H])C([H])(n6nc(-c7c([H])c([H])c(Oc8c([H])c([H])c(F)c([H])c8F)c([H])c7[H])c(C(=O)N([H])[H])c6N([H])[H])C5([H])[H])C([H])([H])C4([H])[H])c([H])c3C([H])([H])C([H])([H])[H])c([H])c([H])c2C1([H])[H]

$$$$
79:0:0
     RDKit          3D

 93103  0  0  1  0  0  0  0  0999 V2000
  -29.6290  -22.6800   22.4320 N   0  0  0  0  0  4  0  0  0  0  0  0
  -29.6050  -22.4460   23.4130 H   0  0  0  0  0  0  0  0  0  0  0  0
  -28.6770  -22.6510   22.1060 H   0  0  0  0  0  0  0  0  0  0  0  0
  -31.3210  -19.4010   19.8220 C   0  0  0  0  0  2  0  0  0  0  0  0
  -30.6780  -20.4980   20.1950 C   0  0  1  0  0  0  0  0  0  0  0  0
  -30.9390  -21.9690   20.3110 C   0  0  0  0  0  2  0  0  0  0  0  0
  -29.8540  -18.9420   21.6560 C   0  0  0  0  0  2  0  0  0  0  0  0
  -30.6760  -18.2340   20.5240 C   0  0  0  0  0  3  0  0  0  0  0  0
  -30.4370  -21.6360   21.7520 C   0  0  1  0  0  0  0  0  0  0  0  0
  -29.6130  -20.4090   21.2270 C   0  0  1  0  0  0  0  0  0  0  0  0
  -28.2310  -20.6020   20.5910 C   0  0  0  0  0  1  0  0  0  0  0  0
  -31.6830  -17.1740   21.0310 C   0  0  0  0  0  2  0  0  0  0  0  0
  -31.0480  -15.7760   21.2810 C   0  0  0  0  0  2  0  0  0  0  0  0
  -31.5390  -14.6500   20.3430 C   0  0  0  0  0  0  0  0  0  0  0  0
  -31.1550  -12.4850   19.2130 C   0  0  0  0  0  2  0  0  0  0  0  0
  -30.2400  -12.6650   17.9860 C   0  0  0  0  0  2  0  0  0  0  0  0
  -28.7550  -12.6110   18.3920 C   0  0  0  0  0  2  0  0  0  0  0  0
  -28.4340  -13.5230   19.6060 C   0  0  0  0  0  3  0  0  0  0  0  0
  -29.4540  -13.2890   20.7440 C   0  0  0  0  0  2  0  0  0  0  0  0
  -30.8010  -13.5170   20.1970 N   0  0  0  0  0  0  0  0  0  0  0  0
  -32.6070  -14.8090   19.7400 O   0  0  0  0  0  0  0  0  0  0  0  0
  -26.0560  -14.2770   20.2530 C   0  0  0  0  0  0  0  0  0  0  0  0
  -24.9410  -13.5720   20.6190 C   0  0  0  0  0  0  0  0  0  0  0  0
  -25.3270  -12.1970   20.6240 C   0  0  0  0  0  0  0  0  0  0  0  0
  -27.0580  -13.3370   20.0630 N   0  0  0  0  0  0  0  0  0  0  0  0
  -26.6180  -12.0820   20.3370 N   0  0  0  0  0  0  0  0  0  0  0  0
  -24.5310  -10.9800   20.8260 C   0  0  0  0  0  0  0  0  0  0  0  0
  -24.8700  -10.0340   21.8180 C   0  0  0  0  0  3  0  0  0  0  0  0
  -24.0780   -8.8820   22.0090 C   0  0  0  0  0  3  0  0  0  0  0  0
  -22.9330   -8.6660   21.2050 C   0  0  0  0  0  0  0  0  0  0  0  0
  -22.6120   -9.6010   20.2040 C   0  0  0  0  0  3  0  0  0  0  0  0
  -23.4040  -10.7440   20.0130 C   0  0  0  0  0  3  0  0  0  0  0  0
  -22.1200   -7.5630   21.3010 O   0  0  0  0  0  0  0  0  0  0  0  0
  -21.9320   -6.9070   22.4900 C   0  0  0  0  0  0  0  0  0  0  0  0
  -21.4410   -7.5710   23.6370 C   0  0  0  0  0  3  0  0  0  0  0  0
  -21.1970   -6.8450   24.8190 C   0  0  0  0  0  3  0  0  0  0  0  0
  -21.4330   -5.4580   24.8560 C   0  0  0  0  0  0  0  0  0  0  0  0
  -21.9160   -4.7940   23.7150 C   0  0  0  0  0  3  0  0  0  0  0  0
  -22.1620   -5.5180   22.5340 C   0  0  0  0  0  0  0  0  0  0  0  0
  -22.6080   -4.8700   21.4310 F   0  0  0  0  0  0  0  0  0  0  0  0
  -21.1910   -4.7580   25.9900 F   0  0  0  0  0  0  0  0  0  0  0  0
  -23.5680  -14.1300   20.8620 C   0  0  0  0  0  0  0  0  0  0  0  0
  -22.7990  -13.5000   21.7430 N   0  0  0  0  0  0  0  0  0  0  0  0
  -23.1870  -15.1580   20.3040 O   0  0  0  0  0  0  0  0  0  0  0  0
  -23.1200  -12.6690   22.2160 H   0  0  0  0  0  0  0  0  0  0  0  0
  -21.8740  -13.8530   21.9470 H   0  0  0  0  0  0  0  0  0  0  0  0
  -26.2980  -15.6330   20.0510 N   0  0  0  0  0  0  0  0  0  0  0  0
  -25.5650  -16.3300   20.1290 H   0  0  0  0  0  0  0  0  0  0  0  0
  -27.1820  -16.0190   19.7460 H   0  0  0  0  0  0  0  0  0  0  0  0
  -30.1360  -24.0680   22.3110 C   0  0  0  0  0  2  0  0  0  0  0  0
  -29.2220  -24.9210   21.3620 C   0  0  0  0  0  2  0  0  0  0  0  0
  -29.1180  -26.4850   21.3440 C   0  0  0  0  0  2  0  0  0  0  0  0
  -28.5330  -26.8690   20.0980 O   0  0  0  0  0  0  0  0  0  0  0  0
  -24.6230  -31.9560   23.2580 C   0  0  0  0  0  0  0  0  0  0  0  0
  -27.3660  -27.5940   20.1650 C   0  0  0  0  0  0  0  0  0  0  0  0
  -23.4470  -30.5390   21.6040 C   0  0  0  0  0  3  0  0  0  0  0  0
  -24.9350  -29.0330   20.1770 C   0  0  0  0  0  0  0  0  0  0  0  0
  -25.9630  -30.9450   21.4200 C   0  0  0  0  0  2  0  0  0  0  0  0
  -26.0770  -29.5790   20.7790 C   0  0  0  0  0  0  0  0  0  0  0  0
  -27.2940  -28.8630   20.7820 C   0  0  0  0  0  3  0  0  0  0  0  0
  -26.2160  -27.0590   19.5540 C   0  0  0  0  0  3  0  0  0  0  0  0
  -24.9970  -27.7660   19.5670 C   0  0  0  0  0  3  0  0  0  0  0  0
  -23.6740  -29.8690   20.2210 C   0  0  0  0  0  2  0  0  0  0  0  0
  -24.6950  -31.1620   22.1510 N   0  0  0  0  0  0  0  0  0  0  0  0
  -23.5360  -32.2060   23.7960 O   0  0  0  0  0  0  0  0  0  0  0  0
  -22.8080  -29.5030   22.5560 C   0  0  0  0  0  0  0  0  0  0  0  0
  -21.4870  -29.3050   22.4240 N   0  0  0  0  0  0  0  0  0  0  0  0
  -23.4990  -28.8790   23.3670 O   0  0  0  0  0  0  0  0  0  0  0  0
  -20.9920  -29.8610   21.7410 H   0  0  0  0  0  0  0  0  0  0  0  0
  -18.1220  -28.0850   22.9190 C   0  0  0  0  0  0  0  0  0  0  0  0
  -20.6790  -28.3530   23.1850 C   0  0  0  0  0  3  0  0  0  0  0  0
  -20.7890  -26.9310   22.5880 C   0  0  0  0  0  2  0  0  0  0  0  0
  -19.6850  -26.6150   21.5750 C   0  0  0  0  0  2  0  0  0  0  0  0
  -18.3050  -26.7450   22.2260 C   0  0  0  0  0  2  0  0  0  0  0  0
  -19.2390  -28.8470   23.3540 C   0  0  0  0  0  0  0  0  0  0  0  0
  -19.0160  -30.1030   23.9600 C   0  0  0  0  0  3  0  0  0  0  0  0
  -17.7100  -30.5960   24.1370 C   0  0  0  0  0  3  0  0  0  0  0  0
  -16.6080  -29.8280   23.7210 C   0  0  0  0  0  3  0  0  0  0  0  0
  -16.8150  -28.5760   23.1160 C   0  0  0  0  0  3  0  0  0  0  0  0
  -25.8990  -32.6020   23.8840 C   0  0  0  0  0  3  0  0  0  0  0  0
  -25.5750  -34.0000   24.2010 N   0  0  0  0  0  0  0  0  0  0  0  0
  -25.9150  -35.0480   23.4400 C   0  0  0  0  0  0  0  0  0  0  0  0
  -26.6070  -34.9430   22.4230 O   0  0  0  0  0  0  0  0  0  0  0  0
  -24.9670  -34.1540   24.9910 H   0  0  0  0  0  0  0  0  0  0  0  0
  -24.1810  -36.8230   23.0430 C   0  0  0  0  0  1  0  0  0  0  0  0
  -25.4100  -36.4350   23.8790 C   0  0  0  0  0  3  0  0  0  0  0  0
  -27.5250  -37.3410   24.7380 C   0  0  0  0  0  1  0  0  0  0  0  0
  -26.4380  -37.4950   23.7760 N   0  0  0  0  0  0  0  0  0  0  0  0
  -26.0230  -38.4130   23.9130 H   0  0  0  0  0  0  0  0  0  0  0  0
  -26.4140  -31.8420   25.1680 C   0  0  1  0  0  0  0  0  0  0  0  0
  -25.3130  -31.5920   26.2240 C   0  0  0  0  0  1  0  0  0  0  0  0
  -27.0230  -30.4730   24.7850 C   0  0  0  0  0  1  0  0  0  0  0  0
  -27.5460  -32.6580   25.8380 C   0  0  0  0  0  1  0  0  0  0  0  0
  1  2  1  0
  3  1  1  0
  4  8  1  0
  5  4  1  6
  5  6  1  0
  5 10  1  0
  5  9  1  0
  6  9  1  0
  8 12  1  0
  8  7  1  0
  9  1  1  6
 10 11  1  6
 10  7  1  0
 10  9  1  0
 12 13  1  0
 14 13  1  0
 15 20  1  0
 16 17  1  0
 16 15  1  0
 18 17  1  0
 18 25  1  0
 18 19  1  0
 20 14  1  0
 20 19  1  0
 21 14  2  0
 22 23  2  0
 23 24  1  0
 23 42  1  0
 24 27  1  0
 25 22  1  0
 25 26  1  0
 26 24  2  0
 27 28  1  0
 28 29  2  0
 30 33  1  0
 30 29  1  0
 31 30  2  0
 32 31  1  0
 32 27  2  0
 33 34  1  0
 34 39  2  0
 34 35  1  0
 35 36  2  0
 36 37  1  0
 37 41  1  0
 38 37  2  0
 39 38  1  0
 40 39  1  0
 42 43  1  0
 43 46  1  0
 43 45  1  0
 44 42  2  0
 47 48  1  0
 47 22  1  0
 49 47  1  0
 50  1  1  0
 51 50  1  0
 52 51  1  0
 53 55  1  0
 53 52  1  0
 54 65  2  0
 55 60  1  0
 56 64  1  0
 56 66  1  0
 57 63  1  0
 57 59  1  0
 58 64  1  0
 59 60  2  0
 59 58  1  0
 61 62  1  0
 61 55  2  0
 62 57  2  0
 63 56  1  0
 64 54  1  0
 66 68  2  0
 67 66  1  0
 69 67  1  0
 70 79  2  0
 70 75  1  0
 71 67  1  0
 71 75  1  0
 72 71  1  0
 73 74  1  0
 73 72  1  0
 74 70  1  0
 75 76  2  0
 76 77  1  0
 78 77  2  0
 79 78  1  0
 80 54  1  0
 80 81  1  0
 80 90  1  0
 81 84  1  0
 82 86  1  0
 82 81  1  0
 83 82  2  0
 86 85  1  0
 88 86  1  0
 88 89  1  0
 88 87  1  0
 90 93  1  1
 90 91  1  0
 92 90  1  0
M  ISO  4  13 100  14 100  52 101  53 101
M  END
>  <TORSDO>  (80) 
F 22

>  <SCORE>  (80) 
-12.234

>  <name>  (80) 
79

>  <ligand_id>  (80) 
79

>  <original_smiles>  (80) 
[H]C1=C2C([H])([H])C([H])([N+]([H])([H])C([H])([H])C([H])([H])C([H])([H])Oc3c([H])c([H])c4c(c3[H])C([H])([H])N(C(=O)C([H])(N([H])C(=O)C([H])(N([H])C([H])([H])[H])C([H])([H])[H])C(C([H])([H])[H])(C([H])([H])[H])C([H])([H])[H])C([H])(C(=O)N([H])C3([H])c5c([H])c([H])c([H])c([H])c5C([H])([H])C([H])([H])C3([H])[H])C4([H])[H])C2(C([H])([H])[H])C([H])([H])C1([H])C([H])([H])C([H])([H])C(=O)N1C([H])([H])C([H])([H])C([H])([H])C([H])(n2nc(-c3c([H])c([H])c(Oc4c([H])c([H])c(F)c([H])c4F)c([H])c3[H])c(C(=O)N([H])[H])c2N([H])[H])C1([H])[H]

>  <smiles>  (80) 
[H]C1=C2C([H])([H])C([H])([N+]([H])([H])C([H])([H])C([H])([H])C([H])([H])Oc3c([H])c([H])c4c(c3[H])C([H])([H])N(C(=O)C([H])(N([H])C(=O)C([H])(N([H])C([H])([H])[H])C([H])([H])[H])C(C([H])([H])[H])(C([H])([H])[H])C([H])([H])[H])C([H])(C(=O)N([H])C3([H])c5c([H])c([H])c([H])c([H])c5C([H])([H])C([H])([H])C3([H])[H])C4([H])[H])C2(C([H])([H])[H])C([H])([H])C1([H])C([H])([H])C([H])([H])C(=O)N1C([H])([H])C([H])([H])C([H])([H])C([H])(n2nc(-c3c([H])c([H])c(Oc4c([H])c([H])c(F)c([H])c4F)c([H])c3[H])c(C(=O)N([H])[H])c2N([H])[H])C1([H])[H]

$$$$
80:0:0
     RDKit          3D

 90 99  0  0  1  0  0  0  0  0999 V2000
  -28.4140  -19.5350   19.6230 C   0  0  0  0  0  3  0  0  0  0  0  0
  -28.8570  -18.2390   19.4580 C   0  0  0  0  0  3  0  0  0  0  0  0
  -31.2840  -20.7570   20.2560 C   0  0  0  0  0  2  0  0  0  0  0  0
  -30.7530  -22.2040   20.1070 C   0  0  0  0  0  2  0  0  0  0  0  0
  -30.4150  -18.4700   21.3680 C   0  0  0  0  0  2  0  0  0  0  0  0
  -28.9360  -20.6310   20.5960 C   0  0  0  0  0  3  0  0  0  0  0  0
  -30.0360  -17.5180   20.1700 C   0  0  0  0  0  3  0  0  0  0  0  0
  -30.2690  -20.0580   21.1670 C   0  0  0  0  0  3  0  0  0  0  0  0
  -29.2080  -22.1390   19.9900 C   0  0  0  0  0  3  0  0  0  0  0  0
  -30.5930  -14.8610   20.2640 C   0  0  0  0  0  0  0  0  0  0  0  0
  -30.4050  -12.5580   19.2730 C   0  0  0  0  0  2  0  0  0  0  0  0
  -29.4460  -12.6080   18.0620 C   0  0  0  0  0  2  0  0  0  0  0  0
  -27.9860  -12.4180   18.5150 C   0  0  0  0  0  2  0  0  0  0  0  0
  -27.6250  -13.2990   19.7410 C   0  0  0  0  0  3  0  0  0  0  0  0
  -28.7070  -13.2350   20.8430 C   0  0  0  0  0  2  0  0  0  0  0  0
  -29.9820  -13.6180   20.2250 N   0  0  0  0  0  0  0  0  0  0  0  0
  -31.7720  -14.9520   19.9110 O   0  0  0  0  0  0  0  0  0  0  0  0
  -29.8100  -16.0050   20.4730 N   0  0  0  0  0  0  0  0  0  0  0  0
  -28.8640  -15.7870   20.7510 H   0  0  0  0  0  0  0  0  0  0  0  0
  -25.2530  -13.8710   20.5220 C   0  0  0  0  0  0  0  0  0  0  0  0
  -24.1970  -13.0920   20.9010 C   0  0  0  0  0  0  0  0  0  0  0  0
  -24.6610  -11.7420   20.8480 C   0  0  0  0  0  0  0  0  0  0  0  0
  -26.2940  -12.9990   20.2560 N   0  0  0  0  0  0  0  0  0  0  0  0
  -25.9450  -11.7100   20.5160 N   0  0  0  0  0  0  0  0  0  0  0  0
  -23.9380  -10.4770   21.0370 C   0  0  0  0  0  0  0  0  0  0  0  0
  -24.3830   -9.5030   21.9590 C   0  0  0  0  0  3  0  0  0  0  0  0
  -23.6590   -8.3050   22.1400 C   0  0  0  0  0  3  0  0  0  0  0  0
  -22.4760   -8.0700   21.3960 C   0  0  0  0  0  0  0  0  0  0  0  0
  -22.0520   -9.0330   20.4640 C   0  0  0  0  0  3  0  0  0  0  0  0
  -22.7760  -10.2240   20.2830 C   0  0  0  0  0  3  0  0  0  0  0  0
  -21.7230   -6.9240   21.4850 O   0  0  0  0  0  0  0  0  0  0  0  0
  -21.6820   -6.1790   22.6360 C   0  0  0  0  0  0  0  0  0  0  0  0
  -21.2450   -6.7250   23.8620 C   0  0  0  0  0  3  0  0  0  0  0  0
  -21.1530   -5.9040   25.0050 C   0  0  0  0  0  3  0  0  0  0  0  0
  -21.4860   -4.5400   24.9210 C   0  0  0  0  0  0  0  0  0  0  0  0
  -21.9150   -3.9920   23.6990 C   0  0  0  0  0  3  0  0  0  0  0  0
  -22.0110   -4.8100   22.5600 C   0  0  0  0  0  0  0  0  0  0  0  0
  -22.4040   -4.2740   21.3780 F   0  0  0  0  0  0  0  0  0  0  0  0
  -21.3890   -3.7490   26.0150 F   0  0  0  0  0  0  0  0  0  0  0  0
  -22.8040  -13.5640   21.2040 C   0  0  0  0  0  0  0  0  0  0  0  0
  -22.0930  -12.8530   22.0730 N   0  0  0  0  0  0  0  0  0  0  0  0
  -22.3570  -14.5970   20.7070 O   0  0  0  0  0  0  0  0  0  0  0  0
  -22.4720  -12.0160   22.4940 H   0  0  0  0  0  0  0  0  0  0  0  0
  -21.1600  -13.1480   22.3210 H   0  0  0  0  0  0  0  0  0  0  0  0
  -25.4070  -15.2460   20.3600 N   0  0  0  0  0  0  0  0  0  0  0  0
  -24.6350  -15.8890   20.5000 H   0  0  0  0  0  0  0  0  0  0  0  0
  -26.2420  -15.7020   20.0150 H   0  0  0  0  0  0  0  0  0  0  0  0
  -28.4900  -23.5320   20.5450 C   0  0  0  0  0  2  0  0  0  0  0  0
  -28.5330  -24.9780   19.7430 C   0  0  0  0  0  2  0  0  0  0  0  0
  -28.3660  -26.3740   20.3400 O   0  0  0  0  0  0  0  0  0  0  0  0
  -24.6120  -31.8940   23.2440 C   0  0  0  0  0  0  0  0  0  0  0  0
  -27.2460  -27.2480   20.2260 C   0  0  0  0  0  0  0  0  0  0  0  0
  -23.4220  -30.4910   21.5990 C   0  0  0  0  0  3  0  0  0  0  0  0
  -24.8840  -28.9160   20.1860 C   0  0  0  0  0  0  0  0  0  0  0  0
  -25.9660  -30.7840   21.4380 C   0  0  0  0  0  2  0  0  0  0  0  0
  -26.0490  -29.3940   20.7950 C   0  0  0  0  0  0  0  0  0  0  0  0
  -27.2260  -28.5730   20.8010 C   0  0  0  0  0  3  0  0  0  0  0  0
  -26.0550  -26.8440   19.5860 C   0  0  0  0  0  3  0  0  0  0  0  0
  -24.8940  -27.6520   19.5690 C   0  0  0  0  0  3  0  0  0  0  0  0
  -23.6490  -29.8010   20.2250 C   0  0  0  0  0  2  0  0  0  0  0  0
  -24.6850  -31.0770   22.1510 N   0  0  0  0  0  0  0  0  0  0  0  0
  -23.5230  -32.1760   23.7680 O   0  0  0  0  0  0  0  0  0  0  0  0
  -22.7440  -29.4860   22.5620 C   0  0  0  0  0  0  0  0  0  0  0  0
  -21.4140  -29.3230   22.4370 N   0  0  0  0  0  0  0  0  0  0  0  0
  -23.4150  -28.8540   23.3820 O   0  0  0  0  0  0  0  0  0  0  0  0
  -20.9330  -29.8860   21.7490 H   0  0  0  0  0  0  0  0  0  0  0  0
  -18.0250  -28.1610   22.9480 C   0  0  0  0  0  0  0  0  0  0  0  0
  -20.5880  -28.3920   23.2070 C   0  0  0  0  0  3  0  0  0  0  0  0
  -20.6700  -26.9620   22.6250 C   0  0  0  0  0  2  0  0  0  0  0  0
  -19.5610  -26.6580   21.6130 C   0  0  0  0  0  2  0  0  0  0  0  0
  -18.1820  -26.8160   22.2610 C   0  0  0  0  0  2  0  0  0  0  0  0
  -19.1540  -28.9090   23.3780 C   0  0  0  0  0  0  0  0  0  0  0  0
  -18.9510  -30.1680   23.9830 C   0  0  0  0  0  3  0  0  0  0  0  0
  -17.6510  -30.6820   24.1560 C   0  0  0  0  0  3  0  0  0  0  0  0
  -16.5380  -29.9320   23.7400 C   0  0  0  0  0  3  0  0  0  0  0  0
  -16.7250  -28.6720   23.1450 C   0  0  0  0  0  3  0  0  0  0  0  0
  -25.8880  -32.5310   23.8780 C   0  0  0  0  0  3  0  0  0  0  0  0
  -25.5760  -33.9330   24.1960 N   0  0  0  0  0  0  0  0  0  0  0  0
  -25.9160  -34.9820   23.4350 C   0  0  0  0  0  0  0  0  0  0  0  0
  -26.5920  -34.8710   22.4090 O   0  0  0  0  0  0  0  0  0  0  0  0
  -24.9710  -34.0910   24.9880 H   0  0  0  0  0  0  0  0  0  0  0  0
  -24.1950  -36.7800   23.0670 C   0  0  0  0  0  1  0  0  0  0  0  0
  -25.4310  -36.3730   23.8840 C   0  0  0  0  0  3  0  0  0  0  0  0
  -27.5650  -37.2570   24.7210 C   0  0  0  0  0  1  0  0  0  0  0  0
  -26.4660  -37.4240   23.7730 N   0  0  0  0  0  0  0  0  0  0  0  0
  -26.0620  -38.3450   23.9180 H   0  0  0  0  0  0  0  0  0  0  0  0
  -26.3860  -31.7700   25.1690 C   0  0  1  0  0  0  0  0  0  0  0  0
  -25.2800  -31.5470   26.2260 C   0  0  0  0  0  1  0  0  0  0  0  0
  -26.9670  -30.3850   24.7970 C   0  0  0  0  0  1  0  0  0  0  0  0
  -27.5300  -32.5690   25.8370 C   0  0  0  0  0  1  0  0  0  0  0  0
  2  1  2  0
  2  7  1  0
  4  3  1  0
  6  1  1  0
  6  8  1  0
  7 18  1  0
  7  5  1  0
  8  3  1  0
  8  5  1  0
  9  4  1  0
  9 48  1  0
  9  6  1  0
 10 18  1  0
 11 16  1  0
 12 13  1  0
 12 11  1  0
 14 13  1  0
 14 23  1  0
 14 15  1  0
 16 10  1  0
 16 15  1  0
 17 10  2  0
 18 19  1  0
 20 21  2  0
 21 40  1  0
 22 21  1  0
 22 25  1  0
 23 24  1  0
 23 20  1  0
 24 22  2  0
 25 26  1  0
 26 27  2  0
 28 31  1  0
 28 27  1  0
 29 28  2  0
 30 29  1  0
 30 25  2  0
 31 32  1  0
 32 33  1  0
 33 34  2  0
 35 34  1  0
 35 39  1  0
 36 35  2  0
 37 32  2  0
 37 36  1  0
 38 37  1  0
 40 41  1  0
 41 44  1  0
 41 43  1  0
 42 40  2  0
 45 46  1  0
 45 20  1  0
 47 45  1  0
 49 50  1  0
 49 48  1  0
 51 62  2  0
 52 50  1  0
 52 57  1  0
 53 61  1  0
 53 63  1  0
 54 60  1  0
 54 56  1  0
 55 61  1  0
 56 57  2  0
 56 55  1  0
 58 52  2  0
 59 58  1  0
 59 54  2  0
 60 53  1  0
 61 51  1  0
 63 65  2  0
 64 63  1  0
 66 64  1  0
 67 76  2  0
 67 72  1  0
 68 64  1  0
 68 72  1  0
 69 68  1  0
 70 71  1  0
 70 69  1  0
 71 67  1  0
 72 73  2  0
 73 74  1  0
 75 74  2  0
 76 75  1  0
 77 51  1  0
 77 78  1  0
 77 87  1  0
 78 81  1  0
 79 83  1  0
 79 78  1  0
 80 79  2  0
 83 82  1  0
 85 83  1  0
 85 86  1  0
 85 84  1  0
 87 90  1  1
 87 88  1  0
 89 87  1  0
M  ISO  4  10 100  18 100  49 101  50 101
M  END
>  <TORSDO>  (81) 
F 18

>  <SCORE>  (81) 
-14.775

>  <name>  (81) 
80

>  <ligand_id>  (81) 
80

>  <original_smiles>  (81) 
[H]C1=C([H])C2([H])C([H])(C([H])([H])C([H])([H])Oc3c([H])c([H])c4c(c3[H])C([H])([H])N(C(=O)C([H])(N([H])C(=O)C([H])(N([H])C([H])([H])[H])C([H])([H])[H])C(C([H])([H])[H])(C([H])([H])[H])C([H])([H])[H])C([H])(C(=O)N([H])C3([H])c5c([H])c([H])c([H])c([H])c5C([H])([H])C([H])([H])C3([H])[H])C4([H])[H])C([H])([H])C([H])([H])C2([H])C([H])([H])C1([H])N([H])C(=O)N1C([H])([H])C([H])([H])C([H])([H])C([H])(n2nc(-c3c([H])c([H])c(Oc4c([H])c([H])c(F)c([H])c4F)c([H])c3[H])c(C(=O)N([H])[H])c2N([H])[H])C1([H])[H]

>  <smiles>  (81) 
[H]C1=C([H])C2([H])C([H])(C([H])([H])C([H])([H])Oc3c([H])c([H])c4c(c3[H])C([H])([H])N(C(=O)C([H])(N([H])C(=O)C([H])(N([H])C([H])([H])[H])C([H])([H])[H])C(C([H])([H])[H])(C([H])([H])[H])C([H])([H])[H])C([H])(C(=O)N([H])C3([H])c5c([H])c([H])c([H])c([H])c5C([H])([H])C([H])([H])C3([H])[H])C4([H])[H])C([H])([H])C([H])([H])C2([H])C([H])([H])C1([H])N([H])C(=O)N1C([H])([H])C([H])([H])C([H])([H])C([H])(n2nc(-c3c([H])c([H])c(Oc4c([H])c([H])c(F)c([H])c4F)c([H])c3[H])c(C(=O)N([H])[H])c2N([H])[H])C1([H])[H]

$$$$
81:0:0
     RDKit          3D

 90 99  0  0  1  0  0  0  0  0999 V2000
  -29.8970  -18.1250   21.7120 C   0  0  0  0  0  2  0  0  0  0  0  0
  -29.6680  -18.4660   19.2820 C   0  0  0  0  0  2  0  0  0  0  0  0
  -30.2660  -20.7820   21.2410 C   0  0  0  0  0  2  0  0  0  0  0  0
  -29.3540  -19.5540   21.4520 C   0  0  0  0  0  3  0  0  0  0  0  0
  -30.3010  -17.4700   20.3530 C   0  0  0  0  0  3  0  0  0  0  0  0
  -28.9860  -19.7000   19.9980 C   0  0  0  0  0  3  0  0  0  0  0  0
  -29.5810  -21.1040   19.9800 N   0  0  1  0  0  4  0  0  0  0  0  0
  -30.2400  -21.2050   19.2220 H   0  0  0  0  0  0  0  0  0  0  0  0
  -30.7710  -14.8790   19.9550 C   0  0  0  0  0  0  0  0  0  0  0  0
  -30.5350  -12.6150   18.9230 C   0  0  0  0  0  2  0  0  0  0  0  0
  -29.5230  -12.6990   17.7600 C   0  0  0  0  0  2  0  0  0  0  0  0
  -28.0790  -12.5230   18.2700 C   0  0  0  0  0  2  0  0  0  0  0  0
  -27.7760  -13.3900   19.5220 C   0  0  0  0  0  3  0  0  0  0  0  0
  -28.9000  -13.2810   20.5760 C   0  0  0  0  0  2  0  0  0  0  0  0
  -30.1580  -13.6490   19.9120 N   0  0  0  0  0  0  0  0  0  0  0  0
  -31.9290  -15.0130   19.5490 O   0  0  0  0  0  0  0  0  0  0  0  0
  -29.9890  -15.9740   20.2740 N   0  0  0  0  0  0  0  0  0  0  0  0
  -29.0450  -15.7280   20.5290 H   0  0  0  0  0  0  0  0  0  0  0  0
  -25.4420  -13.9670   20.4210 C   0  0  0  0  0  0  0  0  0  0  0  0
  -24.3980  -13.1860   20.8340 C   0  0  0  0  0  0  0  0  0  0  0  0
  -24.8500  -11.8350   20.7270 C   0  0  0  0  0  0  0  0  0  0  0  0
  -26.4640  -13.0910   20.0880 N   0  0  0  0  0  0  0  0  0  0  0  0
  -26.1170  -11.8020   20.3330 N   0  0  0  0  0  0  0  0  0  0  0  0
  -24.1280  -10.5700   20.9210 C   0  0  0  0  0  0  0  0  0  0  0  0
  -24.5640   -9.6070   21.8590 C   0  0  0  0  0  3  0  0  0  0  0  0
  -23.8420   -8.4080   22.0410 C   0  0  0  0  0  3  0  0  0  0  0  0
  -22.6710   -8.1620   21.2850 C   0  0  0  0  0  0  0  0  0  0  0  0
  -22.2550   -9.1130   20.3370 C   0  0  0  0  0  3  0  0  0  0  0  0
  -22.9770  -10.3040   20.1530 C   0  0  0  0  0  3  0  0  0  0  0  0
  -21.9210   -7.0140   21.3760 O   0  0  0  0  0  0  0  0  0  0  0  0
  -21.8020   -6.3230   22.5560 C   0  0  0  0  0  0  0  0  0  0  0  0
  -21.2030   -6.8970   23.6980 C   0  0  0  0  0  3  0  0  0  0  0  0
  -21.0400   -6.1280   24.8680 C   0  0  0  0  0  3  0  0  0  0  0  0
  -21.4640   -4.7860   24.8940 C   0  0  0  0  0  0  0  0  0  0  0  0
  -22.0560   -4.2120   23.7560 C   0  0  0  0  0  3  0  0  0  0  0  0
  -22.2220   -4.9780   22.5890 C   0  0  0  0  0  0  0  0  0  0  0  0
  -22.7730   -4.4140   21.4880 F   0  0  0  0  0  0  0  0  0  0  0  0
  -21.3000   -4.0450   26.0150 F   0  0  0  0  0  0  0  0  0  0  0  0
  -23.0240  -13.6600   21.2110 C   0  0  0  0  0  0  0  0  0  0  0  0
  -22.3500  -12.9400   22.1010 N   0  0  0  0  0  0  0  0  0  0  0  0
  -22.5600  -14.7020   20.7520 O   0  0  0  0  0  0  0  0  0  0  0  0
  -22.7410  -12.0990   22.4970 H   0  0  0  0  0  0  0  0  0  0  0  0
  -21.4290  -13.2370   22.3920 H   0  0  0  0  0  0  0  0  0  0  0  0
  -25.6000  -15.3420   20.2760 N   0  0  0  0  0  0  0  0  0  0  0  0
  -24.8330  -15.9850   20.4480 H   0  0  0  0  0  0  0  0  0  0  0  0
  -26.4060  -15.7910   19.8630 H   0  0  0  0  0  0  0  0  0  0  0  0
  -28.6250  -22.3150   20.0020 C   0  0  0  0  0  2  0  0  0  0  0  0
  -29.1860  -23.8380   20.0850 C   0  0  0  0  0  3  0  0  0  0  0  0
  -28.1290  -25.0430   19.8810 C   0  0  0  0  0  3  0  0  0  0  0  0
  -28.4100  -26.4980   20.1440 O   0  0  0  0  0  0  0  0  0  0  0  0
  -24.6260  -31.8090   23.3530 C   0  0  0  0  0  0  0  0  0  0  0  0
  -27.3160  -27.3990   20.1060 C   0  0  0  0  0  0  0  0  0  0  0  0
  -23.4680  -30.5030   21.6100 C   0  0  0  0  0  3  0  0  0  0  0  0
  -24.9580  -29.0420   20.1310 C   0  0  0  0  0  0  0  0  0  0  0  0
  -26.0160  -30.8250   21.5100 C   0  0  0  0  0  2  0  0  0  0  0  0
  -26.1150  -29.4850   20.7840 C   0  0  0  0  0  0  0  0  0  0  0  0
  -27.2990  -28.6790   20.7600 C   0  0  0  0  0  3  0  0  0  0  0  0
  -26.1330  -27.0340   19.4210 C   0  0  0  0  0  3  0  0  0  0  0  0
  -24.9730  -27.8260   19.4390 C   0  0  0  0  0  3  0  0  0  0  0  0
  -23.7190  -29.9130   20.1980 C   0  0  0  0  0  2  0  0  0  0  0  0
  -24.7210  -31.0610   22.2140 N   0  0  0  0  0  0  0  0  0  0  0  0
  -23.5270  -32.0530   23.8750 O   0  0  0  0  0  0  0  0  0  0  0  0
  -22.7860  -29.4300   22.4950 C   0  0  0  0  0  0  0  0  0  0  0  0
  -21.4660  -29.2500   22.3220 N   0  0  0  0  0  0  0  0  0  0  0  0
  -23.4470  -28.7650   23.2970 O   0  0  0  0  0  0  0  0  0  0  0  0
  -20.9910  -29.8390   21.6510 H   0  0  0  0  0  0  0  0  0  0  0  0
  -18.0780  -28.0360   22.7040 C   0  0  0  0  0  0  0  0  0  0  0  0
  -20.6340  -28.2670   23.0190 C   0  0  0  0  0  3  0  0  0  0  0  0
  -20.7390  -26.8760   22.3520 C   0  0  0  0  0  2  0  0  0  0  0  0
  -19.6470  -26.6250   21.3060 C   0  0  0  0  0  2  0  0  0  0  0  0
  -18.2590  -26.7330   21.9430 C   0  0  0  0  0  2  0  0  0  0  0  0
  -19.1930  -28.7630   23.1960 C   0  0  0  0  0  0  0  0  0  0  0  0
  -18.9720  -29.9850   23.8680 C   0  0  0  0  0  3  0  0  0  0  0  0
  -17.6670  -30.4790   24.0540 C   0  0  0  0  0  3  0  0  0  0  0  0
  -16.5650  -29.7470   23.5770 C   0  0  0  0  0  3  0  0  0  0  0  0
  -16.7720  -28.5270   22.9080 C   0  0  0  0  0  3  0  0  0  0  0  0
  -25.8880  -32.4120   24.0390 C   0  0  0  0  0  3  0  0  0  0  0  0
  -26.3100  -31.6430   25.3520 C   0  0  1  0  0  0  0  0  0  0  0  0
  -25.1490  -31.4370   26.3540 C   0  0  0  0  0  1  0  0  0  0  0  0
  -26.8850  -30.2480   25.0100 C   0  0  0  0  0  1  0  0  0  0  0  0
  -27.4340  -32.4190   26.0760 C   0  0  0  0  0  1  0  0  0  0  0  0
  -25.6010  -33.8220   24.3390 N   0  0  0  0  0  0  0  0  0  0  0  0
  -25.9420  -34.8540   23.5550 C   0  0  0  0  0  0  0  0  0  0  0  0
  -26.6030  -34.7180   22.5210 O   0  0  0  0  0  0  0  0  0  0  0  0
  -25.0140  -34.0030   25.1410 H   0  0  0  0  0  0  0  0  0  0  0  0
  -24.2160  -36.6520   23.2010 C   0  0  0  0  0  1  0  0  0  0  0  0
  -25.4790  -36.2590   23.9850 C   0  0  0  0  0  3  0  0  0  0  0  0
  -27.6310  -37.1690   24.7420 C   0  0  0  0  0  1  0  0  0  0  0  0
  -26.5150  -37.3000   23.8090 N   0  0  0  0  0  0  0  0  0  0  0  0
  -26.1150  -38.2290   23.9210 H   0  0  0  0  0  0  0  0  0  0  0  0
  2  5  1  0
  4  3  1  0
  4  1  1  0
  5 17  1  0
  5  1  1  0
  6  2  1  0
  6  4  1  0
  7  6  1  0
  7 47  1  0
  7  3  1  0
  7  8  1  6
  9 17  1  0
 10 15  1  0
 11 12  1  0
 11 10  1  0
 13 12  1  0
 13 22  1  0
 13 14  1  0
 15  9  1  0
 15 14  1  0
 16  9  2  0
 17 18  1  0
 19 20  2  0
 20 39  1  0
 21 20  1  0
 21 24  1  0
 22 23  1  0
 22 19  1  0
 23 21  2  0
 24 25  1  0
 25 26  2  0
 27 30  1  0
 27 26  1  0
 28 27  2  0
 29 28  1  0
 29 24  2  0
 30 31  1  0
 31 36  2  0
 31 32  1  0
 32 33  2  0
 33 34  1  0
 34 38  1  0
 35 34  2  0
 36 35  1  0
 37 36  1  0
 39 40  1  0
 40 43  1  0
 40 42  1  0
 41 39  2  0
 44 19  1  0
 44 45  1  0
 46 44  1  0
 47 48  1  0
 49 48  2  0
 49 50  1  0
 51 62  2  0
 52 50  1  0
 52 57  1  0
 53 61  1  0
 53 63  1  0
 54 60  1  0
 54 56  1  0
 55 61  1  0
 56 55  1  0
 57 56  2  0
 58 59  1  0
 58 52  2  0
 59 54  2  0
 60 53  1  0
 61 51  1  0
 63 65  2  0
 64 63  1  0
 66 64  1  0
 67 76  2  0
 67 72  1  0
 68 64  1  0
 68 72  1  0
 69 68  1  0
 70 71  1  0
 70 69  1  0
 71 67  1  0
 72 73  2  0
 73 74  1  0
 75 74  2  0
 76 75  1  0
 77 51  1  0
 77 82  1  0
 77 78  1  0
 78 81  1  1
 78 79  1  0
 80 78  1  0
 82 85  1  0
 83 87  1  0
 83 82  1  0
 84 83  2  0
 87 86  1  0
 89 90  1  0
 89 87  1  0
 89 88  1  0
M  ISO  4   9 100  17 100  49 101  50 101
M  END
>  <TORSDO>  (82) 
F 19

>  <SCORE>  (82) 
-13.216

>  <name>  (82) 
81

>  <ligand_id>  (82) 
81

>  <original_smiles>  (82) 
[H]c1c([H])c([H])c2c(c1[H])C([H])([H])C([H])([H])C([H])([H])C2([H])N([H])C(=O)C1([H])N(C(=O)C([H])(N([H])C(=O)C([H])(N([H])C([H])([H])[H])C([H])([H])[H])C(C([H])([H])[H])(C([H])([H])[H])C([H])([H])[H])C([H])([H])c2c([H])c(OC([H])([H])C([H])([H])C([H])([H])[N+]3([H])C([H])([H])C4([H])C([H])([H])C([H])(N([H])C(=O)N5C([H])([H])C([H])([H])C([H])([H])C([H])(n6nc(-c7c([H])c([H])c(Oc8c([H])c([H])c(F)c([H])c8F)c([H])c7[H])c(C(=O)N([H])[H])c6N([H])[H])C5([H])[H])C([H])([H])C43[H])c([H])c([H])c2C1([H])[H]

>  <smiles>  (82) 
[H]c1c([H])c([H])c2c(c1[H])C([H])([H])C([H])([H])C([H])([H])C2([H])N([H])C(=O)C1([H])N(C(=O)C([H])(N([H])C(=O)C([H])(N([H])C([H])([H])[H])C([H])([H])[H])C(C([H])([H])[H])(C([H])([H])[H])C([H])([H])[H])C([H])([H])c2c([H])c(OC([H])([H])C([H])([H])C([H])([H])[N+]3([H])C([H])([H])C4([H])C([H])([H])C([H])(N([H])C(=O)N5C([H])([H])C([H])([H])C([H])([H])C([H])(n6nc(-c7c([H])c([H])c(Oc8c([H])c([H])c(F)c([H])c8F)c([H])c7[H])c(C(=O)N([H])[H])c6N([H])[H])C5([H])[H])C([H])([H])C43[H])c([H])c([H])c2C1([H])[H]

$$$$
82:0:0
     RDKit          3D

 91 96  0  0  1  0  0  0  0  0999 V2000
  -29.5910  -10.6480   18.5700 C   0  0  0  0  0  2  0  0  0  0  0  0
  -29.5980  -11.2170   20.8060 C   0  0  0  0  0  2  0  0  0  0  0  0
  -30.8720  -12.5180   18.3290 C   0  0  0  0  0  2  0  0  0  0  0  0
  -31.0180  -11.0920   18.8630 C   0  0  0  0  0  3  0  0  0  0  0  0
  -31.0980  -11.0610   20.4340 C   0  0  0  0  0  3  0  0  0  0  0  0
  -28.9930  -11.7270   19.4780 C   0  0  0  0  0  3  0  0  0  0  0  0
  -29.6930  -13.0110   19.1190 N   0  0  2  0  0  4  0  0  0  0  0  0
  -30.0780  -13.2620   20.0180 H   0  0  0  0  0  0  0  0  0  0  0  0
  -32.0250  -12.0960   21.1820 C   0  0  0  0  0  2  0  0  0  0  0  0
  -31.4980  -14.5720   21.1860 C   0  0  0  0  0  0  0  0  0  0  0  0
  -30.6100  -16.1140   19.5120 C   0  0  0  0  0  2  0  0  0  0  0  0
  -29.1310  -16.7330   18.3950 C   0  0  0  0  0  2  0  0  0  0  0  0
  -27.3290  -16.1830   19.2180 C   0  0  0  0  0  1  0  0  0  0  0  0
  -27.4300  -15.0530   20.7830 C   0  0  0  0  0  3  0  0  0  0  0  0
  -28.9370  -14.6750   21.5270 C   0  0  0  0  0  2  0  0  0  0  0  0
  -30.3560  -15.2110   20.9170 N   0  0  0  0  0  0  0  0  0  0  0  0
  -32.5450  -14.9190   20.6570 O   0  0  0  0  0  0  0  0  0  0  0  0
  -31.3300  -13.3200   21.6480 N   0  0  0  0  0  0  0  0  0  0  0  0
  -30.5250  -13.1770   22.2440 H   0  0  0  0  0  0  0  0  0  0  0  0
  -25.1390  -14.4060   20.8400 C   0  0  0  0  0  0  0  0  0  0  0  0
  -24.2650  -13.4180   21.0760 C   0  0  0  0  0  0  0  0  0  0  0  0
  -24.9610  -12.1740   20.9920 C   0  0  0  0  0  0  0  0  0  0  0  0
  -26.3780  -13.9130   20.8050 N   0  0  0  0  0  0  0  0  0  0  0  0
  -26.3050  -12.4860   20.8730 N   0  0  0  0  0  0  0  0  0  0  0  0
  -24.2880  -10.8100   21.0130 C   0  0  0  0  0  0  0  0  0  0  0  0
  -24.6130   -9.7610   21.9110 C   0  0  0  0  0  3  0  0  0  0  0  0
  -23.8520   -8.5600   21.9690 C   0  0  0  0  0  3  0  0  0  0  0  0
  -22.7260   -8.3680   21.1300 C   0  0  0  0  0  0  0  0  0  0  0  0
  -22.4020   -9.3960   20.2230 C   0  0  0  0  0  3  0  0  0  0  0  0
  -23.1700  -10.5820   20.1670 C   0  0  0  0  0  3  0  0  0  0  0  0
  -21.9530   -7.2220   21.0910 O   0  0  0  0  0  0  0  0  0  0  0  0
  -21.7820   -6.4020   22.1830 C   0  0  0  0  0  0  0  0  0  0  0  0
  -21.2430   -6.8880   23.3950 C   0  0  0  0  0  3  0  0  0  0  0  0
  -21.0170   -6.0080   24.4750 C   0  0  0  0  0  3  0  0  0  0  0  0
  -21.3190   -4.6380   24.3450 C   0  0  0  0  0  0  0  0  0  0  0  0
  -21.8420   -4.1480   23.1360 C   0  0  0  0  0  3  0  0  0  0  0  0
  -22.0660   -5.0240   22.0580 C   0  0  0  0  0  0  0  0  0  0  0  0
  -22.5430   -4.5320   20.8900 F   0  0  0  0  0  0  0  0  0  0  0  0
  -21.1040   -3.7950   25.3810 F   0  0  0  0  0  0  0  0  0  0  0  0
  -22.8270  -13.7220   21.2970 C   0  0  0  0  0  0  0  0  0  0  0  0
  -22.1480  -12.9440   22.1200 N   0  0  0  0  0  0  0  0  0  0  0  0
  -22.3290  -14.7410   20.8150 O   0  0  0  0  0  0  0  0  0  0  0  0
  -22.5740  -12.1380   22.5500 H   0  0  0  0  0  0  0  0  0  0  0  0
  -21.1800  -13.1540   22.3190 H   0  0  0  0  0  0  0  0  0  0  0  0
  -24.9610  -15.7720   20.6990 N   0  0  0  0  0  0  0  0  0  0  0  0
  -24.0250  -16.1470   20.5870 H   0  0  0  0  0  0  0  0  0  0  0  0
  -25.6960  -16.4260   20.4630 H   0  0  0  0  0  0  0  0  0  0  0  0
  -28.9230  -14.3120   18.7140 C   0  0  0  0  0  1  0  0  0  0  0  0
  -28.6780  -17.6240   19.6410 C   0  0  0  0  0  1  0  0  0  0  0  0
  -28.0790  -20.6050   19.5870 C   0  0  0  0  0 15  0  0  0  0  0  0
  -27.9110  -23.2460   20.0000 O   0  0  0  0  0 15  0  0  0  0  0  0
  -24.8580  -31.7240   23.0220 C   0  0  0  0  0  0  0  0  0  0  0  0
  -27.1860  -25.1920   20.0780 C   0  0  0  0  0  3  0  0  0  0  0  0
  -23.7320  -30.2370   21.4380 C   0  0  0  0  0  3  0  0  0  0  0  0
  -25.1440  -28.2330   20.1110 C   0  0  0  0  0  0  0  0  0  0  0  0
  -26.3280  -29.8840   21.5000 C   0  0  0  0  0  2  0  0  0  0  0  0
  -26.3520  -28.2750   20.8100 C   0  0  0  0  0  0  0  0  0  0  0  0
  -27.2750  -26.8490   20.7320 C   0  0  0  0  0  3  0  0  0  0  0  0
  -25.9860  -25.7850   19.3610 C   0  0  0  0  0  3  0  0  0  0  0  0
  -25.0930  -27.0130   19.3650 C   0  0  0  0  0  3  0  0  0  0  0  0
  -24.0240  -29.3830   20.1300 C   0  0  0  0  0  2  0  0  0  0  0  0
  -25.0290  -30.6940   22.0400 N   0  0  0  0  0  0  0  0  0  0  0  0
  -23.7300  -32.0890   23.4330 O   0  0  0  0  0  0  0  0  0  0  0  0
  -22.8770  -29.4380   22.4710 C   0  0  0  0  0  0  0  0  0  0  0  0
  -21.5330  -29.3560   22.3480 N   0  0  0  0  0  0  0  0  0  0  0  0
  -23.4680  -28.8700   23.3910 O   0  0  0  0  0  0  0  0  0  0  0  0
  -21.0840  -29.8650   21.5990 H   0  0  0  0  0  0  0  0  0  0  0  0
  -18.1210  -28.1490   22.9350 C   0  0  0  0  0  0  0  0  0  0  0  0
  -20.6860  -28.4510   23.1520 C   0  0  0  0  0  3  0  0  0  0  0  0
  -20.7820  -27.0030   22.6140 C   0  0  0  0  0  2  0  0  0  0  0  0
  -19.6800  -26.6630   21.6060 C   0  0  0  0  0  2  0  0  0  0  0  0
  -18.3020  -26.8010   22.2560 C   0  0  0  0  0  2  0  0  0  0  0  0
  -19.2380  -28.9330   23.3370 C   0  0  0  0  0  0  0  0  0  0  0  0
  -19.0040  -30.1830   23.9500 C   0  0  0  0  0  3  0  0  0  0  0  0
  -17.6920  -30.6550   24.1520 C   0  0  0  0  0  3  0  0  0  0  0  0
  -16.5930  -29.8720   23.7560 C   0  0  0  0  0  3  0  0  0  0  0  0
  -16.8080  -28.6200   23.1550 C   0  0  0  0  0  3  0  0  0  0  0  0
  -26.0190  -32.5230   23.7200 C   0  0  0  0  0  3  0  0  0  0  0  0
  -26.5010  -31.8420   25.0620 C   0  0  1  0  0  0  0  0  0  0  0  0
  -25.3730  -31.6080   26.0970 C   0  0  0  0  0  1  0  0  0  0  0  0
  -27.1490  -30.4770   24.7810 C   0  0  0  0  0  1  0  0  0  0  0  0
  -27.5950  -32.7050   25.7360 C   0  0  0  0  0  1  0  0  0  0  0  0
  -25.5930  -33.9220   24.0580 N   0  0  0  0  0  0  0  0  0  0  0  0
  -25.8940  -35.0460   23.3830 C   0  0  0  0  0  0  0  0  0  0  0  0
  -26.5610  -35.0210   22.3490 O   0  0  0  0  0  0  0  0  0  0  0  0
  -24.9830  -34.0080   24.8570 H   0  0  0  0  0  0  0  0  0  0  0  0
  -24.0860  -36.8160   23.2120 C   0  0  0  0  0  1  0  0  0  0  0  0
  -25.3900  -36.4140   23.9240 C   0  0  0  0  0  3  0  0  0  0  0  0
  -27.5280  -37.3950   24.6540 C   0  0  0  0  0  1  0  0  0  0  0  0
  -26.3680  -37.5190   23.7770 N   0  0  0  0  0  0  0  0  0  0  0  0
  -25.9280  -38.4170   23.9590 H   0  0  0  0  0  0  0  0  0  0  0  0
  1  4  1  0
  3  7  1  0
  4  3  1  0
  4  5  1  0
  5  2  1  0
  5  9  1  0
  6  1  1  0
  6  2  1  0
  7  6  1  0
  7  8  1  1
  9 18  1  0
 10 18  1  0
 11 16  1  0
 12 11  1  0
 12 49  1  0
 14 13  1  0
 14 23  1  0
 14 15  1  0
 16 10  1  0
 16 15  1  0
 17 10  2  0
 18 19  1  0
 20 21  2  0
 21 40  1  0
 22 25  1  0
 22 21  1  0
 23 20  1  0
 23 24  1  0
 24 22  2  0
 25 26  1  0
 26 27  2  0
 28 27  1  0
 29 28  2  0
 30 29  1  0
 30 25  2  0
 31 28  1  0
 31 32  1  0
 32 33  1  0
 33 34  2  0
 35 34  1  0
 35 39  1  0
 36 35  2  0
 37 32  2  0
 37 36  1  0
 38 37  1  0
 40 41  1  0
 41 44  1  0
 41 43  1  0
 42 40  2  0
 45 20  1  0
 46 45  1  0
 47 45  1  0
 48  7  1  0
 52 63  2  0
 53 58  1  0
 54 62  1  0
 54 64  1  0
 55 61  1  0
 55 57  1  0
 56 62  1  0
 57 56  1  0
 58 57  2  0
 59 60  1  0
 59 53  2  0
 60 55  2  0
 61 54  1  0
 62 52  1  0
 64 66  2  0
 65 64  1  0
 67 65  1  0
 68 77  2  0
 68 73  1  0
 69 65  1  0
 69 73  1  0
 70 69  1  0
 71 72  1  0
 71 70  1  0
 72 68  1  0
 73 74  2  0
 74 75  1  0
 76 75  2  0
 77 76  1  0
 78 52  1  0
 78 83  1  0
 78 79  1  0
 79 82  1  1
 79 80  1  0
 81 79  1  0
 83 86  1  0
 84 88  1  0
 84 83  1  0
 85 84  2  0
 88 87  1  0
 90 88  1  0
 90 91  1  0
 90 89  1  0
M  ISO  4  10 100  18 100  50 101  51 101
M  END
>  <TORSDO>  (83) 
F 20

>  <SCORE>  (83) 
-14.042

>  <name>  (83) 
82

>  <ligand_id>  (83) 
82

>  <original_smiles>  (83) 
[H]c1c([H])c([H])c2c(c1[H])C([H])([H])C([H])([H])C([H])([H])C2([H])N([H])C(=O)C1([H])N(C(=O)C([H])(N([H])C(=O)C([H])(N([H])C([H])([H])[H])C([H])([H])[H])C(C([H])([H])[H])(C([H])([H])[H])C([H])([H])[H])C([H])([H])c2c([H])c(OC([H])([H])C([H])([H])C([H])([H])[N+]3([H])C([H])([H])C4([H])C([H])([H])C3([H])C([H])([H])C4([H])C([H])([H])N([H])C(=O)N3C([H])([H])C([H])([H])C([H])([H])C([H])(n4nc(-c5c([H])c([H])c(Oc6c([H])c([H])c(F)c([H])c6F)c([H])c5[H])c(C(=O)N([H])[H])c4N([H])[H])C3([H])[H])c([H])c([H])c2C1([H])[H]

>  <smiles>  (83) 
[H]c1c([H])c([H])c2c(c1[H])C([H])([H])C([H])([H])C([H])([H])C2([H])N([H])C(=O)C1([H])N(C(=O)C([H])(N([H])C(=O)C([H])(N([H])C([H])([H])[H])C([H])([H])[H])C(C([H])([H])[H])(C([H])([H])[H])C([H])([H])[H])C([H])([H])c2c([H])c(OC([H])([H])C([H])([H])C([H])([H])[N+]3([H])C([H])([H])C4([H])C([H])([H])C3([H])C([H])([H])C4([H])C([H])([H])N([H])C(=O)N3C([H])([H])C([H])([H])C([H])([H])C([H])(n4nc(-c5c([H])c([H])c(Oc6c([H])c([H])c(F)c([H])c6F)c([H])c5[H])c(C(=O)N([H])[H])c4N([H])[H])C3([H])[H])c([H])c([H])c2C1([H])[H]

$$$$
83:0:0
     RDKit          3D

 88 96  0  0  1  0  0  0  0  0999 V2000
  -29.6480  -20.4110   20.5030 C   0  0  0  0  0  3  0  0  0  0  0  0
  -30.0250  -18.9090   19.8730 C   0  0  0  0  0  0  0  0  0  0  0  0
  -30.4510  -18.8730   18.7150 O   0  0  0  0  0  0  0  0  0  0  0  0
  -30.8330  -15.0100   19.6220 C   0  0  0  0  0  0  0  0  0  0  0  0
  -30.4900  -12.7890   18.4250 C   0  0  0  0  0  2  0  0  0  0  0  0
  -29.3890  -12.9010   17.3410 C   0  0  0  0  0  2  0  0  0  0  0  0
  -27.9990  -12.6500   17.9520 C   0  0  0  0  0  2  0  0  0  0  0  0
  -27.7920  -13.4540   19.2590 C   0  0  0  0  0  3  0  0  0  0  0  0
  -28.9870  -13.3100   20.2220 C   0  0  0  0  0  2  0  0  0  0  0  0
  -30.1970  -13.7670   19.5150 N   0  0  0  0  0  0  0  0  0  0  0  0
  -31.8340  -15.2010   18.9250 O   0  0  0  0  0  0  0  0  0  0  0  0
  -30.2420  -16.5190   22.9390 C   0  0  0  0  0  2  0  0  0  0  0  0
  -30.1210  -17.8270   22.2050 C   0  0  0  0  0  2  0  0  0  0  0  0
  -30.8020  -15.5420   21.9170 C   0  0  0  0  0  2  0  0  0  0  0  0
  -29.8340  -17.4770   20.7360 C   0  0  0  0  0  3  0  0  0  0  0  0
  -30.3940  -15.9780   20.5620 N   0  0  0  0  0  0  0  0  0  0  0  0
  -25.5390  -13.9980   20.3480 C   0  0  0  0  0  0  0  0  0  0  0  0
  -24.5260  -13.2060   20.8160 C   0  0  0  0  0  0  0  0  0  0  0  0
  -24.9650  -11.8570   20.6390 C   0  0  0  0  0  0  0  0  0  0  0  0
  -26.5270  -13.1320   19.9120 N   0  0  0  0  0  0  0  0  0  0  0  0
  -26.2000  -11.8350   20.1500 N   0  0  0  0  0  0  0  0  0  0  0  0
  -24.2560  -10.5880   20.8530 C   0  0  0  0  0  0  0  0  0  0  0  0
  -24.7510   -9.6070   21.7390 C   0  0  0  0  0  3  0  0  0  0  0  0
  -24.0420   -8.4030   21.9430 C   0  0  0  0  0  3  0  0  0  0  0  0
  -22.8240   -8.1720   21.2620 C   0  0  0  0  0  0  0  0  0  0  0  0
  -22.3470   -9.1440   20.3630 C   0  0  0  0  0  3  0  0  0  0  0  0
  -23.0570  -10.3390   20.1580 C   0  0  0  0  0  3  0  0  0  0  0  0
  -22.0800   -7.0230   21.3780 O   0  0  0  0  0  0  0  0  0  0  0  0
  -22.0450   -6.3030   22.5450 C   0  0  0  0  0  0  0  0  0  0  0  0
  -21.6430   -6.8850   23.7670 C   0  0  0  0  0  3  0  0  0  0  0  0
  -21.5530   -6.0910   24.9290 C   0  0  0  0  0  3  0  0  0  0  0  0
  -21.8560   -4.7180   24.8690 C   0  0  0  0  0  0  0  0  0  0  0  0
  -22.2510   -4.1360   23.6510 C   0  0  0  0  0  3  0  0  0  0  0  0
  -22.3430   -4.9260   22.4920 C   0  0  0  0  0  0  0  0  0  0  0  0
  -22.7030   -4.3570   21.3180 F   0  0  0  0  0  0  0  0  0  0  0  0
  -21.7630   -3.9530   25.9830 F   0  0  0  0  0  0  0  0  0  0  0  0
  -23.1850  -13.6690   21.3070 C   0  0  0  0  0  0  0  0  0  0  0  0
  -22.5940  -12.9480   22.2520 N   0  0  0  0  0  0  0  0  0  0  0  0
  -22.6750  -14.7070   20.8850 O   0  0  0  0  0  0  0  0  0  0  0  0
  -23.0220  -12.1090   22.6150 H   0  0  0  0  0  0  0  0  0  0  0  0
  -21.6990  -13.2390   22.6200 H   0  0  0  0  0  0  0  0  0  0  0  0
  -25.6990  -15.3740   20.2330 N   0  0  0  0  0  0  0  0  0  0  0  0
  -24.9700  -16.0340   20.4840 H   0  0  0  0  0  0  0  0  0  0  0  0
  -26.5110  -15.8180   19.8210 H   0  0  0  0  0  0  0  0  0  0  0  0
  -28.9900  -21.7720   19.7480 C   0  0  0  0  0  3  0  0  0  0  0  0
  -29.0230  -23.3590   20.3480 C   0  0  0  0  0  3  0  0  0  0  0  0
  -28.1400  -24.6810   19.7800 C   0  0  0  0  0  3  0  0  0  0  0  0
  -28.3130  -26.1880   20.1370 O   0  0  0  0  0  0  0  0  0  0  0  0
  -24.6720  -31.8680   23.1010 C   0  0  0  0  0  0  0  0  0  0  0  0
  -27.2430  -27.1560   20.0570 C   0  0  0  0  0  0  0  0  0  0  0  0
  -23.4560  -30.4520   21.4910 C   0  0  0  0  0  3  0  0  0  0  0  0
  -24.8960  -28.8800   20.0510 C   0  0  0  0  0  0  0  0  0  0  0  0
  -26.0060  -30.7330   21.2880 C   0  0  0  0  0  2  0  0  0  0  0  0
  -26.0780  -29.3360   20.6460 C   0  0  0  0  0  0  0  0  0  0  0  0
  -27.2490  -28.4900   20.6370 C   0  0  0  0  0  3  0  0  0  0  0  0
  -26.0360  -26.8050   19.4100 C   0  0  0  0  0  3  0  0  0  0  0  0
  -24.8870  -27.6260   19.4200 C   0  0  0  0  0  3  0  0  0  0  0  0
  -23.6630  -29.7690   20.1120 C   0  0  0  0  0  2  0  0  0  0  0  0
  -24.7320  -31.0390   22.0140 N   0  0  0  0  0  0  0  0  0  0  0  0
  -23.5920  -32.1510   23.6430 O   0  0  0  0  0  0  0  0  0  0  0  0
  -22.7990  -29.4470   22.4680 C   0  0  0  0  0  0  0  0  0  0  0  0
  -21.4760  -29.2460   22.3420 N   0  0  0  0  0  0  0  0  0  0  0  0
  -23.4830  -28.8510   23.3040 O   0  0  0  0  0  0  0  0  0  0  0  0
  -20.9800  -29.7790   21.6410 H   0  0  0  0  0  0  0  0  0  0  0  0
  -18.1250  -27.9630   22.8350 C   0  0  0  0  0  0  0  0  0  0  0  0
  -20.6710  -28.3070   23.1290 C   0  0  0  0  0  3  0  0  0  0  0  0
  -20.8230  -26.8640   22.5960 C   0  0  0  0  0  2  0  0  0  0  0  0
  -19.7440  -26.4800   21.5780 C   0  0  0  0  0  2  0  0  0  0  0  0
  -18.3490  -26.6010   22.1990 C   0  0  0  0  0  2  0  0  0  0  0  0
  -19.2140  -28.7700   23.2570 C   0  0  0  0  0  0  0  0  0  0  0  0
  -18.9490  -30.0400   23.8130 C   0  0  0  0  0  3  0  0  0  0  0  0
  -17.6270  -30.5040   23.9530 C   0  0  0  0  0  3  0  0  0  0  0  0
  -16.5530  -29.6950   23.5460 C   0  0  0  0  0  3  0  0  0  0  0  0
  -16.8010  -28.4270   22.9910 C   0  0  0  0  0  3  0  0  0  0  0  0
  -25.9540  -32.5140   23.7060 C   0  0  0  0  0  3  0  0  0  0  0  0
  -26.5280  -31.7170   24.9420 C   0  0  1  0  0  0  0  0  0  0  0  0
  -25.4680  -31.3970   26.0210 C   0  0  0  0  0  1  0  0  0  0  0  0
  -27.1570  -30.3780   24.4880 C   0  0  0  0  0  1  0  0  0  0  0  0
  -27.6620  -32.5290   25.6100 C   0  0  0  0  0  1  0  0  0  0  0  0
  -25.6210  -33.8930   24.0970 N   0  0  0  0  0  0  0  0  0  0  0  0
  -25.8990  -34.9830   23.3690 C   0  0  0  0  0  0  0  0  0  0  0  0
  -26.5320  -34.9340   22.3110 O   0  0  0  0  0  0  0  0  0  0  0  0
  -25.0510  -34.0030   24.9230 H   0  0  0  0  0  0  0  0  0  0  0  0
  -24.1230  -36.7520   23.1400 C   0  0  0  0  0  1  0  0  0  0  0  0
  -25.3960  -36.3410   23.8960 C   0  0  0  0  0  3  0  0  0  0  0  0
  -27.5360  -37.2420   24.6970 C   0  0  0  0  0  1  0  0  0  0  0  0
  -26.4020  -37.4220   23.7940 N   0  0  0  0  0  0  0  0  0  0  0  0
  -25.9810  -38.3250   23.9890 H   0  0  0  0  0  0  0  0  0  0  0  0
  2  1  1  0
  3  2  2  0
  4 16  1  0
  5 10  1  0
  6  7  1  0
  6  5  1  0
  8  7  1  0
  8 20  1  0
  8  9  1  0
 10  4  1  0
 10  9  1  0
 11  4  2  0
 13 12  1  0
 14 12  1  0
 15  2  1  0
 15 13  1  0
 16 15  1  0
 16 14  1  0
 17 18  2  0
 18 37  1  0
 19 18  1  0
 19 22  1  0
 20 21  1  0
 20 17  1  0
 21 19  2  0
 22 23  1  0
 23 24  2  0
 25 28  1  0
 25 24  1  0
 26 25  2  0
 27 26  1  0
 27 22  2  0
 28 29  1  0
 29 30  1  0
 30 31  2  0
 32 31  1  0
 32 36  1  0
 33 32  2  0
 34 29  2  0
 34 33  1  0
 35 34  1  0
 37 38  1  0
 38 40  1  0
 38 41  1  0
 39 37  2  0
 42 17  1  0
 42 43  1  0
 44 42  1  0
 45 46  1  0
 45  1  2  0
 47 48  1  0
 47 46  2  0
 49 60  2  0
 50 48  1  0
 50 55  1  0
 51 59  1  0
 51 61  1  0
 52 58  1  0
 52 54  1  0
 53 59  1  0
 54 53  1  0
 55 54  2  0
 56 57  1  0
 56 50  2  0
 57 52  2  0
 58 51  1  0
 59 49  1  0
 61 63  2  0
 62 61  1  0
 64 62  1  0
 65 74  2  0
 65 70  1  0
 66 62  1  0
 66 70  1  0
 67 66  1  0
 68 69  1  0
 68 67  1  0
 69 65  1  0
 70 71  2  0
 71 72  1  0
 73 72  2  0
 74 73  1  0
 75 49  1  0
 75 80  1  0
 75 76  1  0
 76 79  1  1
 76 77  1  0
 78 76  1  0
 80 83  1  0
 81 85  1  0
 81 80  1  0
 82 81  2  0
 85 84  1  0
 87 85  1  0
 87 88  1  0
 87 86  1  0
M  ISO  4   4 100  16 100  47 101  48 101
M  END
>  <TORSDO>  (84) 
F 20

>  <SCORE>  (84) 
-11.754

>  <name>  (84) 
83

>  <ligand_id>  (84) 
83

>  <original_smiles>  (84) 
[H]c1c([H])c([H])c2c(c1[H])C([H])([H])C([H])([H])C([H])([H])C2([H])N([H])C(=O)C1([H])N(C(=O)C([H])(N([H])C(=O)C([H])(N([H])C([H])([H])[H])C([H])([H])[H])C(C([H])([H])[H])(C([H])([H])[H])C([H])([H])[H])C([H])([H])c2c([H])c(OC([H])([H])C([H])([H])C([H])([H])C([H])([H])C(=O)C3([H])N(C(=O)N4C([H])([H])C([H])([H])C([H])([H])C([H])(n5nc(-c6c([H])c([H])c(Oc7c([H])c([H])c(F)c([H])c7F)c([H])c6[H])c(C(=O)N([H])[H])c5N([H])[H])C4([H])[H])C([H])([H])C([H])([H])C3([H])[H])c([H])c([H])c2C1([H])[H]

>  <smiles>  (84) 
[H]c1c([H])c([H])c2c(c1[H])C([H])([H])C([H])([H])C([H])([H])C2([H])N([H])C(=O)C1([H])N(C(=O)C([H])(N([H])C(=O)C([H])(N([H])C([H])([H])[H])C([H])([H])[H])C(C([H])([H])[H])(C([H])([H])[H])C([H])([H])[H])C([H])([H])c2c([H])c(OC([H])([H])C([H])([H])C([H])([H])C([H])([H])C(=O)C3([H])N(C(=O)N4C([H])([H])C([H])([H])C([H])([H])C([H])(n5nc(-c6c([H])c([H])c(Oc7c([H])c([H])c(F)c([H])c7F)c([H])c6[H])c(C(=O)N([H])[H])c5N([H])[H])C4([H])[H])C([H])([H])C([H])([H])C3([H])[H])c([H])c([H])c2C1([H])[H]

$$$$
84:0:0
     RDKit          3D

 86 95  0  0  1  0  0  0  0  0999 V2000
  -30.3710  -15.5780   20.3340 C   0  0  0  0  0  0  0  0  0  0  0  0
  -30.3810  -13.0650   19.4980 C   0  0  0  0  0  2  0  0  0  0  0  0
  -29.5090  -12.7000   18.2680 C   0  0  0  0  0  2  0  0  0  0  0  0
  -28.0700  -12.3800   18.7000 C   0  0  0  0  0  2  0  0  0  0  0  0
  -27.5610  -13.3780   19.7670 C   0  0  0  0  0  3  0  0  0  0  0  0
  -28.5810  -13.6760   20.8880 C   0  0  0  0  0  2  0  0  0  0  0  0
  -29.7710  -14.2590   20.2320 N   0  0  0  0  0  0  0  0  0  0  0  0
  -31.6040  -15.4440   20.2180 O   0  0  0  0  0  0  0  0  0  0  0  0
  -27.9930  -19.2850   20.0860 C   0  0  0  0  0  2  0  0  0  0  0  0
  -30.2770  -19.6210   19.4630 C   0  0  0  0  0  2  0  0  0  0  0  0
  -29.9920  -19.6520   21.4350 C   0  0  0  0  0  2  0  0  0  0  0  0
  -28.3470  -17.6160   20.3060 C   0  0  0  0  0  2  0  0  0  0  0  0
  -30.5420  -18.4200   20.5090 C   0  0  0  0  0  3  0  0  0  0  0  0
  -29.1450  -20.4030   20.3000 C   0  0  2  0  0  0  0  0  0  0  0  0
  -29.7760  -17.0130   20.3760 N   0  0  0  0  0  0  0  0  0  0  0  0
  -25.1880  -13.8980   20.5040 C   0  0  0  0  0  0  0  0  0  0  0  0
  -24.1290  -13.1120   20.8570 C   0  0  0  0  0  0  0  0  0  0  0  0
  -24.6080  -11.7650   20.8390 C   0  0  0  0  0  0  0  0  0  0  0  0
  -26.2410  -13.0340   20.2770 N   0  0  0  0  0  0  0  0  0  0  0  0
  -25.9060  -11.7430   20.5470 N   0  0  0  0  0  0  0  0  0  0  0  0
  -23.8860  -10.4980   21.0220 C   0  0  0  0  0  0  0  0  0  0  0  0
  -24.3030   -9.5390   21.9720 C   0  0  0  0  0  3  0  0  0  0  0  0
  -23.5760   -8.3410   22.1460 C   0  0  0  0  0  3  0  0  0  0  0  0
  -22.4180   -8.0940   21.3700 C   0  0  0  0  0  0  0  0  0  0  0  0
  -22.0210   -9.0420   20.4100 C   0  0  0  0  0  3  0  0  0  0  0  0
  -22.7490  -10.2300   20.2340 C   0  0  0  0  0  3  0  0  0  0  0  0
  -21.6650   -6.9480   21.4530 O   0  0  0  0  0  0  0  0  0  0  0  0
  -21.5850   -6.2210   22.6140 C   0  0  0  0  0  0  0  0  0  0  0  0
  -21.1300   -6.7930   23.8210 C   0  0  0  0  0  3  0  0  0  0  0  0
  -20.9960   -5.9920   24.9740 C   0  0  0  0  0  3  0  0  0  0  0  0
  -21.3090   -4.6210   24.9190 C   0  0  0  0  0  0  0  0  0  0  0  0
  -21.7590   -4.0490   23.7160 C   0  0  0  0  0  3  0  0  0  0  0  0
  -21.8940   -4.8470   22.5660 C   0  0  0  0  0  0  0  0  0  0  0  0
  -22.3050   -4.2850   21.4040 F   0  0  0  0  0  0  0  0  0  0  0  0
  -21.1750   -3.8500   26.0230 F   0  0  0  0  0  0  0  0  0  0  0  0
  -22.7230  -13.5800   21.0940 C   0  0  0  0  0  0  0  0  0  0  0  0
  -21.9850  -12.8940   21.9600 N   0  0  0  0  0  0  0  0  0  0  0  0
  -22.2890  -14.5930   20.5490 O   0  0  0  0  0  0  0  0  0  0  0  0
  -22.3450  -12.0780   22.4280 H   0  0  0  0  0  0  0  0  0  0  0  0
  -21.0410  -13.1970   22.1610 H   0  0  0  0  0  0  0  0  0  0  0  0
  -25.3370  -15.2700   20.3240 N   0  0  0  0  0  0  0  0  0  0  0  0
  -24.5600  -15.9140   20.4290 H   0  0  0  0  0  0  0  0  0  0  0  0
  -26.1850  -15.7200   20.0060 H   0  0  0  0  0  0  0  0  0  0  0  0
  -29.0190  -22.3180   20.0500 C   0  0  0  0  0  3  0  0  0  0  0  0
  -28.0220  -23.9080   20.3840 C   0  0  0  0  0  3  0  0  0  0  0  0
  -28.1970  -25.6320   20.2330 O   0  0  0  0  0  0  0  0  0  0  0  0
  -24.6730  -31.8650   23.1440 C   0  0  0  0  0  0  0  0  0  0  0  0
  -27.2020  -26.8060   20.2060 C   0  0  0  0  0  0  0  0  0  0  0  0
  -23.4830  -30.4520   21.5220 C   0  0  0  0  0  3  0  0  0  0  0  0
  -24.9280  -28.8000   20.1260 C   0  0  0  0  0  0  0  0  0  0  0  0
  -26.0590  -30.6100   21.3910 C   0  0  0  0  0  2  0  0  0  0  0  0
  -26.1240  -29.1760   20.7520 C   0  0  0  0  0  0  0  0  0  0  0  0
  -27.2500  -28.2070   20.7550 C   0  0  0  0  0  3  0  0  0  0  0  0
  -25.9720  -26.6220   19.5300 C   0  0  0  0  0  3  0  0  0  0  0  0
  -24.8890  -27.5470   19.4910 C   0  0  0  0  0  3  0  0  0  0  0  0
  -23.7210  -29.7460   20.1570 C   0  0  0  0  0  2  0  0  0  0  0  0
  -24.7620  -31.0070   22.0710 N   0  0  0  0  0  0  0  0  0  0  0  0
  -23.5800  -32.1680   23.6540 O   0  0  0  0  0  0  0  0  0  0  0  0
  -22.7730  -29.4780   22.5020 C   0  0  0  0  0  0  0  0  0  0  0  0
  -21.4390  -29.3330   22.3900 N   0  0  0  0  0  0  0  0  0  0  0  0
  -23.4330  -28.8520   23.3340 O   0  0  0  0  0  0  0  0  0  0  0  0
  -20.9560  -29.8880   21.6960 H   0  0  0  0  0  0  0  0  0  0  0  0
  -18.0440  -28.1600   22.9410 C   0  0  0  0  0  0  0  0  0  0  0  0
  -20.6110  -28.4070   23.1730 C   0  0  0  0  0  3  0  0  0  0  0  0
  -20.6920  -26.9710   22.6020 C   0  0  0  0  0  2  0  0  0  0  0  0
  -19.5760  -26.6550   21.6010 C   0  0  0  0  0  2  0  0  0  0  0  0
  -18.2030  -26.8100   22.2610 C   0  0  0  0  0  2  0  0  0  0  0  0
  -19.1750  -28.9150   23.3550 C   0  0  0  0  0  0  0  0  0  0  0  0
  -18.9680  -30.1760   23.9580 C   0  0  0  0  0  3  0  0  0  0  0  0
  -17.6680  -30.6810   24.1470 C   0  0  0  0  0  3  0  0  0  0  0  0
  -16.5540  -29.9230   23.7470 C   0  0  0  0  0  3  0  0  0  0  0  0
  -16.7430  -28.6640   23.1500 C   0  0  0  0  0  3  0  0  0  0  0  0
  -25.9370  -32.5210   23.7770 C   0  0  0  0  0  3  0  0  0  0  0  0
  -25.6030  -33.9130   24.1340 N   0  0  0  0  0  0  0  0  0  0  0  0
  -25.9100  -34.9920   23.4020 C   0  0  0  0  0  0  0  0  0  0  0  0
  -26.5620  -34.9200   22.3570 O   0  0  0  0  0  0  0  0  0  0  0  0
  -25.0170  -34.0390   24.9470 H   0  0  0  0  0  0  0  0  0  0  0  0
  -24.1510  -36.7780   23.1400 C   0  0  0  0  0  1  0  0  0  0  0  0
  -25.4220  -36.3670   23.9030 C   0  0  0  0  0  3  0  0  0  0  0  0
  -27.5690  -37.2690   24.6860 C   0  0  0  0  0  1  0  0  0  0  0  0
  -26.4370  -37.4370   23.7780 N   0  0  0  0  0  0  0  0  0  0  0  0
  -26.0230  -38.3490   23.9520 H   0  0  0  0  0  0  0  0  0  0  0  0
  -26.4570  -31.7520   25.0550 C   0  0  1  0  0  0  0  0  0  0  0  0
  -25.3660  -31.5070   26.1260 C   0  0  0  0  0  1  0  0  0  0  0  0
  -27.0480  -30.3760   24.6720 C   0  0  0  0  0  1  0  0  0  0  0  0
  -27.6050  -32.5500   25.7150 C   0  0  0  0  0  1  0  0  0  0  0  0
  1 15  1  0
  2  7  1  0
  3  4  1  0
  3  2  1  0
  5  4  1  0
  5 19  1  0
  5  6  1  0
  7  1  1  0
  7  6  1  0
  8  1  2  0
  9 14  1  0
  9 12  1  0
 10 14  1  0
 12 15  1  0
 13 10  1  0
 13 11  1  0
 14 44  1  1
 14 11  1  0
 15 13  1  0
 16 17  2  0
 17 36  1  0
 18 17  1  0
 18 21  1  0
 19 16  1  0
 19 20  1  0
 20 18  2  0
 21 22  1  0
 22 23  2  0
 24 27  1  0
 24 23  1  0
 25 24  2  0
 26 25  1  0
 26 21  2  0
 27 28  1  0
 28 29  1  0
 29 30  2  0
 31 30  1  0
 31 35  1  0
 32 31  2  0
 33 28  2  0
 33 32  1  0
 34 33  1  0
 36 37  1  0
 37 40  1  0
 37 39  1  0
 38 36  2  0
 41 42  1  0
 41 16  1  0
 43 41  1  0
 44 45  2  0
 46 45  1  0
 47 58  2  0
 48 46  1  0
 48 53  1  0
 49 57  1  0
 49 59  1  0
 50 56  1  0
 50 52  1  0
 51 57  1  0
 52 53  2  0
 52 51  1  0
 54 48  2  0
 55 54  1  0
 55 50  2  0
 56 49  1  0
 57 47  1  0
 59 61  2  0
 60 59  1  0
 62 60  1  0
 63 72  2  0
 63 68  1  0
 64 60  1  0
 64 68  1  0
 65 64  1  0
 66 67  1  0
 66 65  1  0
 67 63  1  0
 68 69  2  0
 69 70  1  0
 71 70  2  0
 72 71  1  0
 73 47  1  0
 73 74  1  0
 73 83  1  0
 74 77  1  0
 75 79  1  0
 75 74  1  0
 76 75  2  0
 79 78  1  0
 81 79  1  0
 81 82  1  0
 81 80  1  0
 83 86  1  1
 83 84  1  0
 85 83  1  0
M  ISO  4   1 100  15 100  45 101  46 101
M  END
>  <TORSDO>  (85) 
F 17

>  <SCORE>  (85) 
-16.538

>  <name>  (85) 
84

>  <ligand_id>  (85) 
84

>  <original_smiles>  (85) 
[H]c1c([H])c([H])c2c(c1[H])C([H])([H])C([H])([H])C([H])([H])C2([H])N([H])C(=O)C1([H])N(C(=O)C([H])(N([H])C(=O)C([H])(N([H])C([H])([H])[H])C([H])([H])[H])C(C([H])([H])[H])(C([H])([H])[H])C([H])([H])[H])C([H])([H])c2c([H])c(OC([H])([H])C([H])([H])C34C([H])([H])C([H])([H])N(C(=O)N5C([H])([H])C([H])([H])C([H])([H])C([H])(n6nc(-c7c([H])c([H])c(Oc8c([H])c([H])c(F)c([H])c8F)c([H])c7[H])c(C(=O)N([H])[H])c6N([H])[H])C5([H])[H])C([H])(C3([H])[H])C4([H])[H])c([H])c([H])c2C1([H])[H]

>  <smiles>  (85) 
[H]c1c([H])c([H])c2c(c1[H])C([H])([H])C([H])([H])C([H])([H])C2([H])N([H])C(=O)C1([H])N(C(=O)C([H])(N([H])C(=O)C([H])(N([H])C([H])([H])[H])C([H])([H])[H])C(C([H])([H])[H])(C([H])([H])[H])C([H])([H])[H])C([H])([H])c2c([H])c(OC([H])([H])C([H])([H])C34C([H])([H])C([H])([H])N(C(=O)N5C([H])([H])C([H])([H])C([H])([H])C([H])(n6nc(-c7c([H])c([H])c(Oc8c([H])c([H])c(F)c([H])c8F)c([H])c7[H])c(C(=O)N([H])[H])c6N([H])[H])C5([H])[H])C([H])(C3([H])[H])C4([H])[H])c([H])c([H])c2C1([H])[H]

$$$$
85:0:0
     RDKit          3D

 93102  0  0  1  0  0  0  0  0999 V2000
  -31.2330  -17.5350   21.4930 C   0  0  0  0  0  0  0  0  0  0  0  0
  -31.8760  -20.0050   21.4980 C   0  0  0  0  0  2  0  0  0  0  0  0
  -29.0990  -18.0280   20.5180 C   0  0  0  0  0  2  0  0  0  0  0  0
  -31.2390  -20.5570   20.2210 C   0  0  0  0  0  2  0  0  0  0  0  0
  -30.8820  -18.9360   21.9790 C   0  0  0  0  0  3  0  0  0  0  0  0
  -30.2940  -17.0460   20.3910 C   0  0  0  0  0  3  0  0  0  0  0  0
  -29.5400  -19.2980   21.3110 C   0  0  0  0  0  3  0  0  0  0  0  0
  -29.7760  -20.5130   20.4580 N   0  0  1  0  0  4  0  0  0  0  0  0
  -32.1880  -16.9080   21.9560 O   0  0  0  0  0  0  0  0  0  0  0  0
  -29.2960  -20.3860   19.5800 H   0  0  0  0  0  0  0  0  0  0  0  0
  -30.6050  -14.5820   20.1160 C   0  0  0  0  0  0  0  0  0  0  0  0
  -30.2480  -12.4570   18.9430 C   0  0  0  0  0  2  0  0  0  0  0  0
  -29.2390  -12.6900   17.7990 C   0  0  0  0  0  2  0  0  0  0  0  0
  -27.7940  -12.5260   18.3090 C   0  0  0  0  0  2  0  0  0  0  0  0
  -27.5210  -13.3310   19.6070 C   0  0  0  0  0  3  0  0  0  0  0  0
  -28.6370  -13.0950   20.6520 C   0  0  0  0  0  2  0  0  0  0  0  0
  -29.9270  -13.4090   20.0170 N   0  0  0  0  0  0  0  0  0  0  0  0
  -31.7160  -14.7550   19.6140 O   0  0  0  0  0  0  0  0  0  0  0  0
  -29.9000  -15.6310   20.5860 N   0  0  0  0  0  0  0  0  0  0  0  0
  -28.9840  -15.4380   20.9600 H   0  0  0  0  0  0  0  0  0  0  0  0
  -25.1570  -13.9050   20.4450 C   0  0  0  0  0  0  0  0  0  0  0  0
  -24.1140  -13.1190   20.8510 C   0  0  0  0  0  0  0  0  0  0  0  0
  -24.5850  -11.7710   20.7770 C   0  0  0  0  0  0  0  0  0  0  0  0
  -26.1970  -13.0370   20.1490 N   0  0  0  0  0  0  0  0  0  0  0  0
  -25.8590  -11.7480   20.4070 N   0  0  0  0  0  0  0  0  0  0  0  0
  -23.8790  -10.4980   20.9770 C   0  0  0  0  0  0  0  0  0  0  0  0
  -24.3490   -9.5330   21.8950 C   0  0  0  0  0  3  0  0  0  0  0  0
  -23.6470   -8.3240   22.0840 C   0  0  0  0  0  3  0  0  0  0  0  0
  -22.4610   -8.0700   21.3550 C   0  0  0  0  0  0  0  0  0  0  0  0
  -22.0100   -9.0250   20.4260 C   0  0  0  0  0  3  0  0  0  0  0  0
  -22.7120  -10.2250   20.2350 C   0  0  0  0  0  3  0  0  0  0  0  0
  -21.7260   -6.9130   21.4550 O   0  0  0  0  0  0  0  0  0  0  0  0
  -21.7050   -6.1720   22.6090 C   0  0  0  0  0  0  0  0  0  0  0  0
  -21.2690   -6.7170   23.8370 C   0  0  0  0  0  3  0  0  0  0  0  0
  -21.1980   -5.8990   24.9820 C   0  0  0  0  0  3  0  0  0  0  0  0
  -21.5510   -4.5380   24.9020 C   0  0  0  0  0  0  0  0  0  0  0  0
  -21.9810   -3.9940   23.6770 C   0  0  0  0  0  3  0  0  0  0  0  0
  -22.0550   -4.8080   22.5340 C   0  0  0  0  0  0  0  0  0  0  0  0
  -22.4480   -4.2730   21.3520 F   0  0  0  0  0  0  0  0  0  0  0  0
  -21.4760   -3.7510   26.0010 F   0  0  0  0  0  0  0  0  0  0  0  0
  -22.7260  -13.5780   21.1980 C   0  0  0  0  0  0  0  0  0  0  0  0
  -22.0450  -12.8510   22.0770 N   0  0  0  0  0  0  0  0  0  0  0  0
  -22.2550  -14.6140   20.7260 O   0  0  0  0  0  0  0  0  0  0  0  0
  -22.4390  -12.0140   22.4770 H   0  0  0  0  0  0  0  0  0  0  0  0
  -21.1150  -13.1320   22.3490 H   0  0  0  0  0  0  0  0  0  0  0  0
  -25.3100  -15.2790   20.2790 N   0  0  0  0  0  0  0  0  0  0  0  0
  -24.5420  -15.9300   20.4010 H   0  0  0  0  0  0  0  0  0  0  0  0
  -26.1350  -15.7090   19.8820 H   0  0  0  0  0  0  0  0  0  0  0  0
  -29.2610  -21.7950   21.0460 C   0  0  0  0  0  2  0  0  0  0  0  0
  -29.0640  -22.9390   20.0040 C   0  0  0  0  0  2  0  0  0  0  0  0
  -28.7640  -24.3410   20.6110 C   0  0  0  0  0  2  0  0  0  0  0  0
  -28.3920  -25.4190   19.5530 C   0  0  0  0  0  2  0  0  0  0  0  0
  -28.2720  -26.7490   20.1170 O   0  0  0  0  0  0  0  0  0  0  0  0
  -24.4870  -31.9380   23.2320 C   0  0  0  0  0  0  0  0  0  0  0  0
  -27.0840  -27.4680   20.0970 C   0  0  0  0  0  0  0  0  0  0  0  0
  -23.2650  -30.5460   21.5960 C   0  0  0  0  0  3  0  0  0  0  0  0
  -24.7000  -29.0210   20.1420 C   0  0  0  0  0  0  0  0  0  0  0  0
  -25.7950  -30.8880   21.3840 C   0  0  0  0  0  2  0  0  0  0  0  0
  -25.8660  -29.5200   20.7320 C   0  0  0  0  0  0  0  0  0  0  0  0
  -27.0560  -28.7490   20.7090 C   0  0  0  0  0  3  0  0  0  0  0  0
  -25.8890  -27.0010   19.4950 C   0  0  0  0  0  3  0  0  0  0  0  0
  -24.7100  -27.7650   19.5210 C   0  0  0  0  0  3  0  0  0  0  0  0
  -23.4570  -29.8780   20.2100 C   0  0  0  0  0  2  0  0  0  0  0  0
  -24.5350  -31.1420   22.1280 N   0  0  0  0  0  0  0  0  0  0  0  0
  -23.4100  -32.2100   23.7800 O   0  0  0  0  0  0  0  0  0  0  0  0
  -22.6230  -29.5180   22.5560 C   0  0  0  0  0  0  0  0  0  0  0  0
  -21.2980  -29.3310   22.4360 N   0  0  0  0  0  0  0  0  0  0  0  0
  -23.3130  -28.8960   23.3650 O   0  0  0  0  0  0  0  0  0  0  0  0
  -20.8040  -29.8920   21.7590 H   0  0  0  0  0  0  0  0  0  0  0  0
  -17.9300  -28.1210   22.9350 C   0  0  0  0  0  0  0  0  0  0  0  0
  -20.4870  -28.3850   23.2030 C   0  0  0  0  0  3  0  0  0  0  0  0
  -20.5940  -26.9570   22.6200 C   0  0  0  0  0  2  0  0  0  0  0  0
  -19.4900  -26.6320   21.6110 C   0  0  0  0  0  2  0  0  0  0  0  0
  -18.1090  -26.7720   22.2570 C   0  0  0  0  0  2  0  0  0  0  0  0
  -19.0470  -28.8860   23.3630 C   0  0  0  0  0  0  0  0  0  0  0  0
  -18.8240  -30.1490   23.9530 C   0  0  0  0  0  3  0  0  0  0  0  0
  -17.5190  -30.6450   24.1250 C   0  0  0  0  0  3  0  0  0  0  0  0
  -16.4160  -29.8750   23.7150 C   0  0  0  0  0  3  0  0  0  0  0  0
  -16.6230  -28.6170   23.1230 C   0  0  0  0  0  3  0  0  0  0  0  0
  -25.7770  -32.5670   23.8440 C   0  0  0  0  0  3  0  0  0  0  0  0
  -26.2890  -31.8090   25.1310 C   0  0  1  0  0  0  0  0  0  0  0  0
  -25.1910  -31.5830   26.1970 C   0  0  0  0  0  1  0  0  0  0  0  0
  -26.8740  -30.4280   24.7490 C   0  0  0  0  0  1  0  0  0  0  0  0
  -27.4370  -32.6110   25.7870 C   0  0  0  0  0  1  0  0  0  0  0  0
  -25.4790  -33.9720   24.1540 N   0  0  0  0  0  0  0  0  0  0  0  0
  -25.8290  -35.0110   23.3850 C   0  0  0  0  0  0  0  0  0  0  0  0
  -26.5100  -34.8900   22.3630 O   0  0  0  0  0  0  0  0  0  0  0  0
  -24.8830  -34.1450   24.9490 H   0  0  0  0  0  0  0  0  0  0  0  0
  -24.1330  -36.8240   22.9870 C   0  0  0  0  0  1  0  0  0  0  0  0
  -25.3530  -36.4080   23.8240 C   0  0  0  0  0  3  0  0  0  0  0  0
  -27.4810  -37.2740   24.6970 C   0  0  0  0  0  1  0  0  0  0  0  0
  -26.4020  -37.4460   23.7270 N   0  0  0  0  0  0  0  0  0  0  0  0
  -26.0050  -38.3720   23.8550 H   0  0  0  0  0  0  0  0  0  0  0  0
  1  9  2  0
  1  5  1  0
  4  8  1  0
  4  2  1  0
  5  2  1  0
  6  3  1  0
  6 19  1  0
  6  1  1  0
  7  3  1  0
  7  5  1  0
  8 49  1  0
  8  7  1  0
  8 10  1  6
 11 19  1  0
 12 17  1  0
 13 14  1  0
 13 12  1  0
 15 14  1  0
 15 24  1  0
 15 16  1  0
 17 11  1  0
 17 16  1  0
 18 11  2  0
 19 20  1  0
 21 22  2  0
 22 41  1  0
 23 22  1  0
 23 26  1  0
 24 25  1  0
 24 21  1  0
 25 23  2  0
 26 27  1  0
 27 28  2  0
 29 32  1  0
 29 28  1  0
 30 29  2  0
 31 30  1  0
 31 26  2  0
 32 33  1  0
 33 34  1  0
 34 35  2  0
 36 35  1  0
 36 40  1  0
 37 36  2  0
 38 33  2  0
 38 37  1  0
 39 38  1  0
 41 42  1  0
 42 45  1  0
 42 44  1  0
 43 41  2  0
 46 47  1  0
 46 21  1  0
 48 46  1  0
 50 51  1  0
 50 49  1  0
 52 53  1  0
 52 51  1  0
 54 65  2  0
 55 53  1  0
 55 60  1  0
 56 64  1  0
 56 66  1  0
 57 63  1  0
 57 59  1  0
 58 64  1  0
 59 58  1  0
 60 59  2  0
 61 62  1  0
 61 55  2  0
 62 57  2  0
 63 56  1  0
 64 54  1  0
 66 68  2  0
 67 66  1  0
 69 67  1  0
 70 79  2  0
 70 75  1  0
 71 67  1  0
 71 75  1  0
 72 71  1  0
 73 74  1  0
 73 72  1  0
 74 70  1  0
 75 76  2  0
 76 77  1  0
 78 77  2  0
 79 78  1  0
 80 54  1  0
 80 85  1  0
 80 81  1  0
 81 84  1  1
 81 82  1  0
 83 81  1  0
 85 88  1  0
 86 90  1  0
 86 85  1  0
 87 86  2  0
 90 89  1  0
 92 90  1  0
 92 93  1  0
 92 91  1  0
M  ISO  4  11 100  19 100  52 101  53 101
M  END
>  <TORSDO>  (86) 
F 20

>  <SCORE>  (86) 
-13.036

>  <name>  (86) 
85

>  <ligand_id>  (86) 
85

>  <original_smiles>  (86) 
[H]c1c([H])c([H])c2c(c1[H])C([H])([H])C([H])([H])C([H])([H])C2([H])N([H])C(=O)C1([H])N(C(=O)C([H])(N([H])C(=O)C([H])(N([H])C([H])([H])[H])C([H])([H])[H])C(C([H])([H])[H])(C([H])([H])[H])C([H])([H])[H])C([H])([H])c2c([H])c(OC([H])([H])C([H])([H])C([H])([H])C([H])([H])[N+]3([H])C([H])([H])C([H])([H])C4([H])C(=O)C([H])(N([H])C(=O)N5C([H])([H])C([H])([H])C([H])([H])C([H])(n6nc(-c7c([H])c([H])c(Oc8c([H])c([H])c(F)c([H])c8F)c([H])c7[H])c(C(=O)N([H])[H])c6N([H])[H])C5([H])[H])C([H])([H])C43[H])c([H])c([H])c2C1([H])[H]

>  <smiles>  (86) 
[H]c1c([H])c([H])c2c(c1[H])C([H])([H])C([H])([H])C([H])([H])C2([H])N([H])C(=O)C1([H])N(C(=O)C([H])(N([H])C(=O)C([H])(N([H])C([H])([H])[H])C([H])([H])[H])C(C([H])([H])[H])(C([H])([H])[H])C([H])([H])[H])C([H])([H])c2c([H])c(OC([H])([H])C([H])([H])C([H])([H])C([H])([H])[N+]3([H])C([H])([H])C([H])([H])C4([H])C(=O)C([H])(N([H])C(=O)N5C([H])([H])C([H])([H])C([H])([H])C([H])(n6nc(-c7c([H])c([H])c(Oc8c([H])c([H])c(F)c([H])c8F)c([H])c7[H])c(C(=O)N([H])[H])c6N([H])[H])C5([H])[H])C([H])([H])C43[H])c([H])c([H])c2C1([H])[H]

$$$$
86:0:0
     RDKit          3D

 91100  0  0  1  0  0  0  0  0999 V2000
  -30.2580  -19.1140   18.5620 C   0  0  0  0  0  3  0  0  0  0  0  0
  -30.3410  -17.7590   19.0170 C   0  0  0  0  0  3  0  0  0  0  0  0
  -29.2990  -18.4110   21.1060 C   0  0  0  0  0  3  0  0  0  0  0  0
  -29.7090  -20.1280   19.3870 C   0  0  0  0  0  0  0  0  0  0  0  0
  -29.2520  -19.7880   20.6510 C   0  0  0  0  0  0  0  0  0  0  0  0
  -29.8520  -17.3460   20.2920 C   0  0  0  0  0  0  0  0  0  0  0  0
  -29.5040  -21.6040   19.1270 C   0  0  0  0  0  0  0  0  0  0  0  0
  -28.7230  -21.0750   21.3430 C   0  0  0  0  0  2  0  0  0  0  0  0
  -29.1480  -22.3340   20.4540 C   0  0  0  0  0  3  0  0  0  0  0  0
  -29.6290  -22.1880   18.0460 O   0  0  0  0  0  0  0  0  0  0  0  0
  -30.5750  -14.7990   20.3440 C   0  0  0  0  0  0  0  0  0  0  0  0
  -30.4080  -12.5030   19.3670 C   0  0  0  0  0  2  0  0  0  0  0  0
  -29.4840  -12.5680   18.1300 C   0  0  0  0  0  2  0  0  0  0  0  0
  -28.0090  -12.4030   18.5420 C   0  0  0  0  0  2  0  0  0  0  0  0
  -27.6220  -13.2920   19.7540 C   0  0  0  0  0  3  0  0  0  0  0  0
  -28.6690  -13.2020   20.8870 C   0  0  0  0  0  2  0  0  0  0  0  0
  -29.9730  -13.5570   20.3140 N   0  0  0  0  0  0  0  0  0  0  0  0
  -31.7440  -14.9160   19.9620 O   0  0  0  0  0  0  0  0  0  0  0  0
  -29.8040  -15.9040   20.6890 N   0  0  0  0  0  0  0  0  0  0  0  0
  -28.9680  -15.6470   21.1910 H   0  0  0  0  0  0  0  0  0  0  0  0
  -25.2240  -13.8910   20.4410 C   0  0  0  0  0  0  0  0  0  0  0  0
  -24.1530  -13.1220   20.8040 C   0  0  0  0  0  0  0  0  0  0  0  0
  -24.6150  -11.7700   20.7960 C   0  0  0  0  0  0  0  0  0  0  0  0
  -26.2710  -13.0100   20.2280 N   0  0  0  0  0  0  0  0  0  0  0  0
  -25.9100  -11.7290   20.5050 N   0  0  0  0  0  0  0  0  0  0  0  0
  -23.8870  -10.5100   20.9910 C   0  0  0  0  0  0  0  0  0  0  0  0
  -24.3100   -9.5490   21.9350 C   0  0  0  0  0  3  0  0  0  0  0  0
  -23.5800   -8.3560   22.1190 C   0  0  0  0  0  3  0  0  0  0  0  0
  -22.4110   -8.1130   21.3570 C   0  0  0  0  0  0  0  0  0  0  0  0
  -22.0070   -9.0630   20.4020 C   0  0  0  0  0  3  0  0  0  0  0  0
  -22.7390  -10.2480   20.2170 C   0  0  0  0  0  3  0  0  0  0  0  0
  -21.6560   -6.9690   21.4490 O   0  0  0  0  0  0  0  0  0  0  0  0
  -21.6000   -6.2330   22.6040 C   0  0  0  0  0  0  0  0  0  0  0  0
  -21.1760   -6.7970   23.8280 C   0  0  0  0  0  3  0  0  0  0  0  0
  -21.0670   -5.9870   24.9760 C   0  0  0  0  0  3  0  0  0  0  0  0
  -21.3720   -4.6150   24.9030 C   0  0  0  0  0  0  0  0  0  0  0  0
  -21.7900   -4.0500   23.6850 C   0  0  0  0  0  3  0  0  0  0  0  0
  -21.9000   -4.8560   22.5380 C   0  0  0  0  0  0  0  0  0  0  0  0
  -22.2820   -4.3030   21.3620 F   0  0  0  0  0  0  0  0  0  0  0  0
  -21.2600   -3.8350   26.0040 F   0  0  0  0  0  0  0  0  0  0  0  0
  -22.7520  -13.6030   21.0510 C   0  0  0  0  0  0  0  0  0  0  0  0
  -22.0110  -12.9160   21.9120 N   0  0  0  0  0  0  0  0  0  0  0  0
  -22.3220  -14.6230   20.5130 O   0  0  0  0  0  0  0  0  0  0  0  0
  -22.3700  -12.0910   22.3700 H   0  0  0  0  0  0  0  0  0  0  0  0
  -21.0710  -13.2230   22.1200 H   0  0  0  0  0  0  0  0  0  0  0  0
  -25.3920  -15.2600   20.2500 N   0  0  0  0  0  0  0  0  0  0  0  0
  -24.6300  -15.9220   20.3510 H   0  0  0  0  0  0  0  0  0  0  0  0
  -26.2460  -15.6920   19.9200 H   0  0  0  0  0  0  0  0  0  0  0  0
  -28.2450  -23.7060   20.4940 C   0  0  0  0  0  2  0  0  0  0  0  0
  -28.5930  -25.0750   19.6920 C   0  0  0  0  0  2  0  0  0  0  0  0
  -28.4320  -26.4640   20.2520 O   0  0  0  0  0  0  0  0  0  0  0  0
  -24.6250  -31.8660   23.2040 C   0  0  0  0  0  0  0  0  0  0  0  0
  -27.2910  -27.2930   20.1560 C   0  0  0  0  0  0  0  0  0  0  0  0
  -23.4430  -30.4630   21.5480 C   0  0  0  0  0  3  0  0  0  0  0  0
  -24.9150  -28.9160   20.1250 C   0  0  0  0  0  0  0  0  0  0  0  0
  -25.9830  -30.7880   21.3870 C   0  0  0  0  0  2  0  0  0  0  0  0
  -26.0750  -29.4070   20.7360 C   0  0  0  0  0  0  0  0  0  0  0  0
  -27.2590  -28.6060   20.7410 C   0  0  0  0  0  3  0  0  0  0  0  0
  -26.1070  -26.8590   19.5240 C   0  0  0  0  0  3  0  0  0  0  0  0
  -24.9360  -27.6500   19.5110 C   0  0  0  0  0  3  0  0  0  0  0  0
  -23.6720  -29.7860   20.1690 C   0  0  0  0  0  2  0  0  0  0  0  0
  -24.7020  -31.0600   22.1020 N   0  0  0  0  0  0  0  0  0  0  0  0
  -23.5360  -32.1360   23.7310 O   0  0  0  0  0  0  0  0  0  0  0  0
  -22.7770  -29.4460   22.5040 C   0  0  0  0  0  0  0  0  0  0  0  0
  -21.4500  -29.2730   22.3760 N   0  0  0  0  0  0  0  0  0  0  0  0
  -23.4530  -28.8120   23.3190 O   0  0  0  0  0  0  0  0  0  0  0  0
  -20.9630  -29.8350   21.6920 H   0  0  0  0  0  0  0  0  0  0  0  0
  -18.0700  -28.0790   22.8690 C   0  0  0  0  0  0  0  0  0  0  0  0
  -20.6290  -28.3300   23.1390 C   0  0  0  0  0  3  0  0  0  0  0  0
  -20.7280  -26.9040   22.5480 C   0  0  0  0  0  2  0  0  0  0  0  0
  -19.6240  -26.5950   21.5330 C   0  0  0  0  0  2  0  0  0  0  0  0
  -18.2430  -26.7360   22.1810 C   0  0  0  0  0  2  0  0  0  0  0  0
  -19.1910  -28.8350   23.3050 C   0  0  0  0  0  0  0  0  0  0  0  0
  -18.9760  -30.0920   23.9100 C   0  0  0  0  0  3  0  0  0  0  0  0
  -17.6720  -30.5930   24.0860 C   0  0  0  0  0  3  0  0  0  0  0  0
  -16.5660  -29.8340   23.6650 C   0  0  0  0  0  3  0  0  0  0  0  0
  -16.7660  -28.5790   23.0630 C   0  0  0  0  0  3  0  0  0  0  0  0
  -25.8980  -32.5050   23.8390 C   0  0  0  0  0  3  0  0  0  0  0  0
  -25.5760  -33.8990   24.1790 N   0  0  0  0  0  0  0  0  0  0  0  0
  -25.9060  -34.9610   23.4310 C   0  0  0  0  0  0  0  0  0  0  0  0
  -26.5830  -34.8710   22.4040 O   0  0  0  0  0  0  0  0  0  0  0  0
  -24.9750  -34.0430   24.9770 H   0  0  0  0  0  0  0  0  0  0  0  0
  -24.1690  -36.7470   23.0880 C   0  0  0  0  0  1  0  0  0  0  0  0
  -25.4110  -36.3440   23.8980 C   0  0  0  0  0  3  0  0  0  0  0  0
  -27.5340  -37.2400   24.7430 C   0  0  0  0  0  1  0  0  0  0  0  0
  -26.4370  -37.4020   23.7930 N   0  0  0  0  0  0  0  0  0  0  0  0
  -26.0260  -38.3210   23.9360 H   0  0  0  0  0  0  0  0  0  0  0  0
  -26.4100  -31.7310   25.1170 C   0  0  1  0  0  0  0  0  0  0  0  0
  -25.3130  -31.4850   26.1780 C   0  0  0  0  0  1  0  0  0  0  0  0
  -27.0030  -30.3570   24.7250 C   0  0  0  0  0  1  0  0  0  0  0  0
  -27.5540  -32.5280   25.7900 C   0  0  0  0  0  1  0  0  0  0  0  0
  1  2  2  0
  1  4  1  0
  2  6  1  0
  4  5  2  0
  5  3  1  0
  5  8  1  0
  6 19  1  0
  6  3  2  0
  7  4  1  0
  7  9  1  0
  9 49  1  0
  9  8  1  0
 10  7  2  0
 11 19  1  0
 12 17  1  0
 13 14  1  0
 13 12  1  0
 15 14  1  0
 15 24  1  0
 15 16  1  0
 17 11  1  0
 17 16  1  0
 18 11  2  0
 19 20  1  0
 21 22  2  0
 22 41  1  0
 23 22  1  0
 23 26  1  0
 24 21  1  0
 24 25  1  0
 25 23  2  0
 26 27  1  0
 27 28  2  0
 29 32  1  0
 29 28  1  0
 30 29  2  0
 31 30  1  0
 31 26  2  0
 32 33  1  0
 33 34  1  0
 34 35  2  0
 36 35  1  0
 36 40  1  0
 37 36  2  0
 38 33  2  0
 38 37  1  0
 39 38  1  0
 41 42  1  0
 42 45  1  0
 42 44  1  0
 43 41  2  0
 46 47  1  0
 46 21  1  0
 48 46  1  0
 50 51  1  0
 50 49  1  0
 52 63  2  0
 53 51  1  0
 53 58  1  0
 54 62  1  0
 54 64  1  0
 55 61  1  0
 55 57  1  0
 56 62  1  0
 57 58  2  0
 57 56  1  0
 59 53  2  0
 60 59  1  0
 60 55  2  0
 61 54  1  0
 62 52  1  0
 64 66  2  0
 65 64  1  0
 67 65  1  0
 68 77  2  0
 68 73  1  0
 69 65  1  0
 69 73  1  0
 70 69  1  0
 71 72  1  0
 71 70  1  0
 72 68  1  0
 73 74  2  0
 74 75  1  0
 76 75  2  0
 77 76  1  0
 78 52  1  0
 78 79  1  0
 78 88  1  0
 79 82  1  0
 80 84  1  0
 80 79  1  0
 81 80  2  0
 84 83  1  0
 86 84  1  0
 86 87  1  0
 86 85  1  0
 88 91  1  1
 88 89  1  0
 90 88  1  0
M  ISO  4  11 100  19 100  50 101  51 101
M  END
>  <TORSDO>  (87) 
F 18

>  <SCORE>  (87) 
-14.481

>  <name>  (87) 
86

>  <ligand_id>  (87) 
86

>  <original_smiles>  (87) 
[H]c1c([H])c([H])c2c(c1[H])C([H])([H])C([H])([H])C([H])([H])C2([H])N([H])C(=O)C1([H])N(C(=O)C([H])(N([H])C(=O)C([H])(N([H])C([H])([H])[H])C([H])([H])[H])C(C([H])([H])[H])(C([H])([H])[H])C([H])([H])[H])C([H])([H])c2c([H])c(OC([H])([H])C([H])([H])C3([H])C(=O)c4c([H])c([H])c(N([H])C(=O)N5C([H])([H])C([H])([H])C([H])([H])C([H])(n6nc(-c7c([H])c([H])c(Oc8c([H])c([H])c(F)c([H])c8F)c([H])c7[H])c(C(=O)N([H])[H])c6N([H])[H])C5([H])[H])c([H])c4C3([H])[H])c([H])c([H])c2C1([H])[H]

>  <smiles>  (87) 
[H]c1c([H])c([H])c2c(c1[H])C([H])([H])C([H])([H])C([H])([H])C2([H])N([H])C(=O)C1([H])N(C(=O)C([H])(N([H])C(=O)C([H])(N([H])C([H])([H])[H])C([H])([H])[H])C(C([H])([H])[H])(C([H])([H])[H])C([H])([H])[H])C([H])([H])c2c([H])c(OC([H])([H])C([H])([H])C3([H])C(=O)c4c([H])c([H])c(N([H])C(=O)N5C([H])([H])C([H])([H])C([H])([H])C([H])(n6nc(-c7c([H])c([H])c(Oc8c([H])c([H])c(F)c([H])c8F)c([H])c7[H])c(C(=O)N([H])[H])c6N([H])[H])C5([H])[H])c([H])c4C3([H])[H])c([H])c([H])c2C1([H])[H]

$$$$
87:0:0
     RDKit          3D

 94103  0  0  1  0  0  0  0  0999 V2000
  -32.0030  -18.8830   20.9430 C   0  0  0  0  0  3  0  0  0  0  0  0
  -31.7150  -17.4970   20.9430 C   0  0  0  0  0  3  0  0  0  0  0  0
  -29.3220  -17.9620   20.7600 C   0  0  0  0  0  3  0  0  0  0  0  0
  -29.6270  -19.3470   20.7730 C   0  0  0  0  0  0  0  0  0  0  0  0
  -30.9390  -19.8000   20.8480 C   0  0  0  0  0  0  0  0  0  0  0  0
  -30.3790  -17.0100   20.8330 C   0  0  0  0  0  0  0  0  0  0  0  0
  -28.7240  -20.5170   20.7060 C   0  0  0  0  0  0  0  0  0  0  0  0
  -31.0260  -21.3170   20.8190 C   0  0  0  0  0  2  0  0  0  0  0  0
  -29.5550  -21.8050   20.9470 C   0  0  0  0  0  3  0  0  0  0  0  0
  -27.5090  -20.4840   20.4840 O   0  0  0  0  0  0  0  0  0  0  0  0
  -30.7270  -14.5740   20.2520 C   0  0  0  0  0  0  0  0  0  0  0  0
  -30.3650  -12.4330   19.0740 C   0  0  0  0  0  2  0  0  0  0  0  0
  -29.3910  -12.6650   17.9010 C   0  0  0  0  0  2  0  0  0  0  0  0
  -27.9290  -12.5260   18.3730 C   0  0  0  0  0  2  0  0  0  0  0  0
  -27.6370  -13.3410   19.6620 C   0  0  0  0  0  3  0  0  0  0  0  0
  -28.7260  -13.1020   20.7330 C   0  0  0  0  0  2  0  0  0  0  0  0
  -30.0330  -13.4060   20.1290 N   0  0  0  0  0  0  0  0  0  0  0  0
  -31.8430  -14.7190   19.7470 O   0  0  0  0  0  0  0  0  0  0  0  0
  -30.0540  -15.6050   20.8220 N   0  0  0  0  0  0  0  0  0  0  0  0
  -29.1280  -15.3650   21.1370 H   0  0  0  0  0  0  0  0  0  0  0  0
  -25.2600  -13.9460   20.4370 C   0  0  0  0  0  0  0  0  0  0  0  0
  -24.2010  -13.1730   20.8330 C   0  0  0  0  0  0  0  0  0  0  0  0
  -24.6600  -11.8210   20.7850 C   0  0  0  0  0  0  0  0  0  0  0  0
  -26.2980  -13.0640   20.1760 N   0  0  0  0  0  0  0  0  0  0  0  0
  -25.9420  -11.7810   20.4420 N   0  0  0  0  0  0  0  0  0  0  0  0
  -23.9370  -10.5580   20.9890 C   0  0  0  0  0  0  0  0  0  0  0  0
  -24.3930   -9.5870   21.9060 C   0  0  0  0  0  3  0  0  0  0  0  0
  -23.6700   -8.3890   22.0980 C   0  0  0  0  0  3  0  0  0  0  0  0
  -22.4770   -8.1560   21.3740 C   0  0  0  0  0  0  0  0  0  0  0  0
  -22.0400   -9.1170   20.4460 C   0  0  0  0  0  3  0  0  0  0  0  0
  -22.7640  -10.3060   20.2510 C   0  0  0  0  0  3  0  0  0  0  0  0
  -21.7240   -7.0120   21.4770 O   0  0  0  0  0  0  0  0  0  0  0  0
  -21.7070   -6.2620   22.6260 C   0  0  0  0  0  0  0  0  0  0  0  0
  -21.3250   -6.8120   23.8690 C   0  0  0  0  0  3  0  0  0  0  0  0
  -21.2550   -5.9890   25.0110 C   0  0  0  0  0  3  0  0  0  0  0  0
  -21.5560   -4.6180   24.9110 C   0  0  0  0  0  0  0  0  0  0  0  0
  -21.9300   -4.0670   23.6720 C   0  0  0  0  0  3  0  0  0  0  0  0
  -22.0020   -4.8860   22.5330 C   0  0  0  0  0  0  0  0  0  0  0  0
  -22.3430   -4.3470   21.3380 F   0  0  0  0  0  0  0  0  0  0  0  0
  -21.4800   -3.8260   26.0060 F   0  0  0  0  0  0  0  0  0  0  0  0
  -22.8130  -13.6520   21.1450 C   0  0  0  0  0  0  0  0  0  0  0  0
  -22.1090  -12.9560   22.0310 N   0  0  0  0  0  0  0  0  0  0  0  0
  -22.3610  -14.6770   20.6370 O   0  0  0  0  0  0  0  0  0  0  0  0
  -22.4880  -12.1260   22.4620 H   0  0  0  0  0  0  0  0  0  0  0  0
  -21.1780  -13.2580   22.2820 H   0  0  0  0  0  0  0  0  0  0  0  0
  -25.4220  -15.3170   20.2570 N   0  0  0  0  0  0  0  0  0  0  0  0
  -24.6540  -15.9680   20.3770 H   0  0  0  0  0  0  0  0  0  0  0  0
  -26.2530  -15.7500   19.8760 H   0  0  0  0  0  0  0  0  0  0  0  0
  -29.1160  -22.8520   19.9770 N   0  0  0  0  0  4  0  0  0  0  0  0
  -28.1150  -22.7230   19.9340 H   0  0  0  0  0  0  0  0  0  0  0  0
  -29.4680  -22.6260   19.0590 H   0  0  0  0  0  0  0  0  0  0  0  0
  -29.3890  -24.2890   20.3200 C   0  0  0  0  0  2  0  0  0  0  0  0
  -28.3750  -25.2520   19.6350 C   0  0  0  0  0  2  0  0  0  0  0  0
  -28.4970  -26.6680   19.9420 O   0  0  0  0  0  0  0  0  0  0  0  0
  -24.5780  -31.7530   23.0830 C   0  0  0  0  0  0  0  0  0  0  0  0
  -27.3300  -27.4270   19.8940 C   0  0  0  0  0  0  0  0  0  0  0  0
  -23.4160  -30.3780   21.3910 C   0  0  0  0  0  3  0  0  0  0  0  0
  -24.9130  -28.9230   19.9270 C   0  0  0  0  0  0  0  0  0  0  0  0
  -25.9410  -30.7840   21.2320 C   0  0  0  0  0  2  0  0  0  0  0  0
  -26.0580  -29.4350   20.5470 C   0  0  0  0  0  0  0  0  0  0  0  0
  -27.2700  -28.6950   20.5300 C   0  0  0  0  0  3  0  0  0  0  0  0
  -26.1640  -26.9610   19.2400 C   0  0  0  0  0  3  0  0  0  0  0  0
  -24.9620  -27.6870   19.2680 C   0  0  0  0  0  3  0  0  0  0  0  0
  -23.6520  -29.7550   19.9910 C   0  0  0  0  0  2  0  0  0  0  0  0
  -24.6620  -30.9860   21.9610 N   0  0  0  0  0  0  0  0  0  0  0  0
  -23.4850  -31.9870   23.6210 O   0  0  0  0  0  0  0  0  0  0  0  0
  -22.7790  -29.3110   22.3120 C   0  0  0  0  0  0  0  0  0  0  0  0
  -21.4530  -29.1330   22.1960 N   0  0  0  0  0  0  0  0  0  0  0  0
  -23.4750  -28.6500   23.0870 O   0  0  0  0  0  0  0  0  0  0  0  0
  -20.9510  -29.7200   21.5440 H   0  0  0  0  0  0  0  0  0  0  0  0
  -18.0810  -27.9400   22.7200 C   0  0  0  0  0  0  0  0  0  0  0  0
  -20.6470  -28.1610   22.9350 C   0  0  0  0  0  3  0  0  0  0  0  0
  -20.7200  -26.7630   22.2790 C   0  0  0  0  0  2  0  0  0  0  0  0
  -19.5880  -26.5070   21.2790 C   0  0  0  0  0  2  0  0  0  0  0  0
  -18.2250  -26.6280   21.9670 C   0  0  0  0  0  2  0  0  0  0  0  0
  -19.2190  -28.6680   23.1610 C   0  0  0  0  0  0  0  0  0  0  0  0
  -19.0290  -29.8980   23.8250 C   0  0  0  0  0  3  0  0  0  0  0  0
  -17.7350  -30.4020   24.0530 C   0  0  0  0  0  3  0  0  0  0  0  0
  -16.6120  -29.6710   23.6290 C   0  0  0  0  0  3  0  0  0  0  0  0
  -16.7860  -28.4410   22.9680 C   0  0  0  0  0  3  0  0  0  0  0  0
  -25.8430  -32.3940   23.7330 C   0  0  0  0  0  3  0  0  0  0  0  0
  -26.3760  -31.5890   24.9800 C   0  0  1  0  0  0  0  0  0  0  0  0
  -25.2880  -31.2860   26.0370 C   0  0  0  0  0  1  0  0  0  0  0  0
  -26.9930  -30.2400   24.5390 C   0  0  0  0  0  1  0  0  0  0  0  0
  -27.5070  -32.3850   25.6740 C   0  0  0  0  0  1  0  0  0  0  0  0
  -25.4980  -33.7710   24.1120 N   0  0  0  0  0  0  0  0  0  0  0  0
  -25.8040  -34.8570   23.3910 C   0  0  0  0  0  0  0  0  0  0  0  0
  -26.4800  -34.8080   22.3590 O   0  0  0  0  0  0  0  0  0  0  0  0
  -24.8970  -33.8810   24.9150 H   0  0  0  0  0  0  0  0  0  0  0  0
  -24.0300  -36.6130   23.0930 C   0  0  0  0  0  1  0  0  0  0  0  0
  -25.2790  -36.2150   23.8950 C   0  0  0  0  0  3  0  0  0  0  0  0
  -27.3860  -37.1260   24.7650 C   0  0  0  0  0  1  0  0  0  0  0  0
  -26.2840  -37.2980   23.8220 N   0  0  0  0  0  0  0  0  0  0  0  0
  -25.8520  -38.2010   23.9990 H   0  0  0  0  0  0  0  0  0  0  0  0
  2  1  1  0
  3  4  2  0
  3  6  1  0
  4  5  1  0
  5  1  2  0
  6  2  2  0
  7  4  1  0
  7  9  1  0
  8  5  1  0
  8  9  1  0
  9 49  1  0
 10  7  2  0
 11 19  1  0
 12 17  1  0
 13 14  1  0
 13 12  1  0
 15 14  1  0
 15 24  1  0
 15 16  1  0
 17 11  1  0
 17 16  1  0
 18 11  2  0
 19  6  1  0
 19 20  1  0
 21 22  2  0
 22 41  1  0
 23 22  1  0
 23 26  1  0
 24 21  1  0
 24 25  1  0
 25 23  2  0
 26 27  1  0
 27 28  2  0
 29 32  1  0
 29 28  1  0
 30 29  2  0
 31 30  1  0
 31 26  2  0
 32 33  1  0
 33 34  1  0
 34 35  2  0
 36 35  1  0
 36 40  1  0
 37 36  2  0
 38 33  2  0
 38 37  1  0
 39 38  1  0
 41 42  1  0
 42 45  1  0
 42 44  1  0
 43 41  2  0
 46 47  1  0
 46 21  1  0
 48 46  1  0
 49 52  1  0
 50 49  1  0
 51 49  1  0
 53 54  1  0
 53 52  1  0
 55 66  2  0
 56 54  1  0
 56 61  1  0
 57 65  1  0
 57 67  1  0
 58 64  1  0
 58 60  1  0
 59 65  1  0
 60 59  1  0
 61 60  2  0
 62 63  1  0
 62 56  2  0
 63 58  2  0
 64 57  1  0
 65 55  1  0
 67 69  2  0
 68 67  1  0
 70 68  1  0
 71 80  2  0
 71 76  1  0
 72 68  1  0
 72 76  1  0
 73 72  1  0
 74 75  1  0
 74 73  1  0
 75 71  1  0
 76 77  2  0
 77 78  1  0
 79 78  2  0
 80 79  1  0
 81 55  1  0
 81 86  1  0
 81 82  1  0
 82 85  1  1
 82 83  1  0
 84 82  1  0
 86 89  1  0
 87 91  1  0
 87 86  1  0
 88 87  2  0
 91 90  1  0
 93 91  1  0
 93 94  1  0
 93 92  1  0
M  ISO  4  11 100  19 100  53 101  54 101
M  END
>  <TORSDO>  (88) 
F 19

>  <SCORE>  (88) 
-14.219

>  <name>  (88) 
87

>  <ligand_id>  (88) 
87

>  <original_smiles>  (88) 
[H]c1c([H])c([H])c2c(c1[H])C([H])([H])C([H])([H])C([H])([H])C2([H])N([H])C(=O)C1([H])N(C(=O)C([H])(N([H])C(=O)C([H])(N([H])C([H])([H])[H])C([H])([H])[H])C(C([H])([H])[H])(C([H])([H])[H])C([H])([H])[H])C([H])([H])c2c([H])c(OC([H])([H])C([H])([H])[N+]([H])([H])C3([H])C(=O)c4c([H])c(N([H])C(=O)N5C([H])([H])C([H])([H])C([H])([H])C([H])(n6nc(-c7c([H])c([H])c(Oc8c([H])c([H])c(F)c([H])c8F)c([H])c7[H])c(C(=O)N([H])[H])c6N([H])[H])C5([H])[H])c([H])c([H])c4C3([H])[H])c([H])c([H])c2C1([H])[H]

>  <smiles>  (88) 
[H]c1c([H])c([H])c2c(c1[H])C([H])([H])C([H])([H])C([H])([H])C2([H])N([H])C(=O)C1([H])N(C(=O)C([H])(N([H])C(=O)C([H])(N([H])C([H])([H])[H])C([H])([H])[H])C(C([H])([H])[H])(C([H])([H])[H])C([H])([H])[H])C([H])([H])c2c([H])c(OC([H])([H])C([H])([H])[N+]([H])([H])C3([H])C(=O)c4c([H])c(N([H])C(=O)N5C([H])([H])C([H])([H])C([H])([H])C([H])(n6nc(-c7c([H])c([H])c(Oc8c([H])c([H])c(F)c([H])c8F)c([H])c7[H])c(C(=O)N([H])[H])c6N([H])[H])C5([H])[H])c([H])c([H])c4C3([H])[H])c([H])c([H])c2C1([H])[H]

$$$$
88:0:0
     RDKit          3D

 87 96  0  0  1  0  0  0  0  0999 V2000
  -28.9740  -21.9440   19.4220 C   0  0  0  0  0  2  0  0  0  0  0  0
  -30.6040  -14.9860   19.9190 C   0  0  0  0  0  0  0  0  0  0  0  0
  -30.4040  -12.6550   18.9260 C   0  0  0  0  0  2  0  0  0  0  0  0
  -29.3770  -12.6120   17.7670 C   0  0  0  0  0  2  0  0  0  0  0  0
  -27.9410  -12.4090   18.2980 C   0  0  0  0  0  2  0  0  0  0  0  0
  -27.6310  -13.2930   19.5370 C   0  0  0  0  0  3  0  0  0  0  0  0
  -28.7830  -13.2340   20.5720 C   0  0  0  0  0  2  0  0  0  0  0  0
  -29.9780  -13.7260   19.8720 N   0  0  0  0  0  0  0  0  0  0  0  0
  -31.7960  -15.0030   19.5950 O   0  0  0  0  0  0  0  0  0  0  0  0
  -28.3760  -17.8700   21.0560 C   0  0  0  0  0  2  0  0  0  0  0  0
  -28.4120  -19.4690   19.0700 C   0  0  0  0  0  2  0  0  0  0  0  0
  -28.5000  -16.4430   20.4690 C   0  0  0  0  0  2  0  0  0  0  0  0
  -30.3070  -17.7230   19.8170 C   0  0  0  0  0  2  0  0  0  0  0  0
  -28.7980  -20.4710   20.1620 C   0  0  0  0  0  3  0  0  0  0  0  0
  -29.1490  -18.8120   20.1550 C   0  0  2  0  0  0  0  0  0  0  0  0
  -29.8900  -16.2300   20.0490 N   0  0  0  0  0  0  0  0  0  0  0  0
  -25.3030  -13.8750   20.4520 C   0  0  0  0  0  0  0  0  0  0  0  0
  -24.2620  -13.0960   20.8770 C   0  0  0  0  0  0  0  0  0  0  0  0
  -24.7140  -11.7470   20.7770 C   0  0  0  0  0  0  0  0  0  0  0  0
  -26.3300  -12.9990   20.1260 N   0  0  0  0  0  0  0  0  0  0  0  0
  -25.9840  -11.7120   20.3830 N   0  0  0  0  0  0  0  0  0  0  0  0
  -23.9940  -10.4850   20.9710 C   0  0  0  0  0  0  0  0  0  0  0  0
  -24.4510   -9.5120   21.8860 C   0  0  0  0  0  3  0  0  0  0  0  0
  -23.7340   -8.3110   22.0740 C   0  0  0  0  0  3  0  0  0  0  0  0
  -22.5430   -8.0770   21.3460 C   0  0  0  0  0  0  0  0  0  0  0  0
  -22.1050   -9.0380   20.4190 C   0  0  0  0  0  3  0  0  0  0  0  0
  -22.8240  -10.2280   20.2290 C   0  0  0  0  0  3  0  0  0  0  0  0
  -21.7900   -6.9310   21.4460 O   0  0  0  0  0  0  0  0  0  0  0  0
  -21.7250   -6.2120   22.6120 C   0  0  0  0  0  0  0  0  0  0  0  0
  -21.2660   -6.7860   23.8170 C   0  0  0  0  0  3  0  0  0  0  0  0
  -21.1480   -5.9880   24.9750 C   0  0  0  0  0  3  0  0  0  0  0  0
  -21.4800   -4.6210   24.9270 C   0  0  0  0  0  0  0  0  0  0  0  0
  -21.9340   -4.0500   23.7250 C   0  0  0  0  0  3  0  0  0  0  0  0
  -22.0490   -4.8430   22.5700 C   0  0  0  0  0  0  0  0  0  0  0  0
  -22.4650   -4.2810   21.4080 F   0  0  0  0  0  0  0  0  0  0  0  0
  -21.3620   -3.8530   26.0350 F   0  0  0  0  0  0  0  0  0  0  0  0
  -22.8890  -13.5750   21.2490 C   0  0  0  0  0  0  0  0  0  0  0  0
  -22.2050  -12.8630   22.1380 N   0  0  0  0  0  0  0  0  0  0  0  0
  -22.4300  -14.6180   20.7840 O   0  0  0  0  0  0  0  0  0  0  0  0
  -22.5920  -12.0320   22.5590 H   0  0  0  0  0  0  0  0  0  0  0  0
  -21.2840  -13.1710   22.4160 H   0  0  0  0  0  0  0  0  0  0  0  0
  -25.4430  -15.2490   20.2900 N   0  0  0  0  0  0  0  0  0  0  0  0
  -24.6750  -15.8840   20.4800 H   0  0  0  0  0  0  0  0  0  0  0  0
  -26.2520  -15.7110   19.9030 H   0  0  0  0  0  0  0  0  0  0  0  0
  -28.5680  -23.4000   20.1620 C   0  0  0  0  0  3  0  0  0  0  0  0
  -28.3700  -24.8890   19.4240 C   0  0  0  0  0  3  0  0  0  0  0  0
  -28.2970  -26.2660   20.1350 O   0  0  0  0  0  0  0  0  0  0  0  0
  -24.6170  -31.8680   23.1980 C   0  0  0  0  0  0  0  0  0  0  0  0
  -27.2020  -27.1970   20.1030 C   0  0  0  0  0  0  0  0  0  0  0  0
  -23.4160  -30.4750   21.5630 C   0  0  0  0  0  3  0  0  0  0  0  0
  -24.8590  -28.9100   20.1320 C   0  0  0  0  0  0  0  0  0  0  0  0
  -25.9690  -30.7490   21.3950 C   0  0  0  0  0  2  0  0  0  0  0  0
  -26.0420  -29.3660   20.7280 C   0  0  0  0  0  0  0  0  0  0  0  0
  -27.2130  -28.5210   20.7000 C   0  0  0  0  0  3  0  0  0  0  0  0
  -25.9780  -26.8250   19.5070 C   0  0  0  0  0  3  0  0  0  0  0  0
  -24.8370  -27.6520   19.5170 C   0  0  0  0  0  3  0  0  0  0  0  0
  -23.6280  -29.8010   20.1850 C   0  0  0  0  0  2  0  0  0  0  0  0
  -24.6860  -31.0510   22.1080 N   0  0  0  0  0  0  0  0  0  0  0  0
  -23.5290  -32.1520   23.7270 O   0  0  0  0  0  0  0  0  0  0  0  0
  -22.7430  -29.4620   22.5240 C   0  0  0  0  0  0  0  0  0  0  0  0
  -21.4120  -29.2950   22.4040 N   0  0  0  0  0  0  0  0  0  0  0  0
  -23.4170  -28.8280   23.3400 O   0  0  0  0  0  0  0  0  0  0  0  0
  -20.9240  -29.8620   21.7240 H   0  0  0  0  0  0  0  0  0  0  0  0
  -18.0230  -28.1370   22.9330 C   0  0  0  0  0  0  0  0  0  0  0  0
  -20.5870  -28.3620   23.1740 C   0  0  0  0  0  3  0  0  0  0  0  0
  -20.6620  -26.9330   22.5850 C   0  0  0  0  0  2  0  0  0  0  0  0
  -19.5450  -26.6340   21.5800 C   0  0  0  0  0  2  0  0  0  0  0  0
  -18.1740  -26.7930   22.2410 C   0  0  0  0  0  2  0  0  0  0  0  0
  -19.1550  -28.8820   23.3560 C   0  0  0  0  0  0  0  0  0  0  0  0
  -18.9560  -30.1440   23.9580 C   0  0  0  0  0  3  0  0  0  0  0  0
  -17.6600  -30.6540   24.1500 C   0  0  0  0  0  3  0  0  0  0  0  0
  -16.5410  -29.9030   23.7460 C   0  0  0  0  0  3  0  0  0  0  0  0
  -16.7260  -28.6480   23.1400 C   0  0  0  0  0  3  0  0  0  0  0  0
  -25.8950  -32.5070   23.8250 C   0  0  0  0  0  3  0  0  0  0  0  0
  -25.5780  -33.9030   24.1610 N   0  0  0  0  0  0  0  0  0  0  0  0
  -25.8990  -34.9640   23.4070 C   0  0  0  0  0  0  0  0  0  0  0  0
  -26.5640  -34.8710   22.3720 O   0  0  0  0  0  0  0  0  0  0  0  0
  -24.9960  -34.0470   24.9740 H   0  0  0  0  0  0  0  0  0  0  0  0
  -24.1680  -36.7590   23.0680 C   0  0  0  0  0  1  0  0  0  0  0  0
  -25.4090  -36.3490   23.8770 C   0  0  0  0  0  3  0  0  0  0  0  0
  -27.5430  -37.2350   24.7130 C   0  0  0  0  0  1  0  0  0  0  0  0
  -26.4370  -37.4080   23.7740 N   0  0  0  0  0  0  0  0  0  0  0  0
  -26.0250  -38.3240   23.9300 H   0  0  0  0  0  0  0  0  0  0  0  0
  -26.4040  -31.7420   25.1090 C   0  0  1  0  0  0  0  0  0  0  0  0
  -25.3100  -31.5050   26.1780 C   0  0  0  0  0  1  0  0  0  0  0  0
  -26.9990  -30.3670   24.7360 C   0  0  0  0  0  1  0  0  0  0  0  0
  -27.5450  -32.5470   25.7790 C   0  0  0  0  0  1  0  0  0  0  0  0
  1 45  1  0
  2 16  1  0
  3  8  1  0
  4  5  1  0
  4  3  1  0
  6  5  1  0
  6 20  1  0
  6  7  1  0
  8  2  1  0
  8  7  1  0
  9  2  2  0
 11 14  1  0
 12 10  1  0
 13 16  1  0
 15 13  1  6
 14  1  1  0
 15 11  1  0
 15 14  1  0
 15 10  1  0
 16 12  1  0
 17 18  2  0
 18 37  1  0
 19 18  1  0
 19 22  1  0
 20 21  1  0
 20 17  1  0
 21 19  2  0
 22 23  1  0
 23 24  2  0
 25 28  1  0
 25 24  1  0
 26 25  2  0
 27 26  1  0
 27 22  2  0
 28 29  1  0
 29 30  1  0
 30 31  2  0
 32 31  1  0
 32 36  1  0
 33 32  2  0
 34 29  2  0
 34 33  1  0
 35 34  1  0
 37 38  1  0
 38 41  1  0
 38 40  1  0
 39 37  2  0
 42 17  1  0
 42 43  1  0
 44 42  1  0
 46 47  1  0
 46 45  2  0
 48 59  2  0
 49 47  1  0
 49 54  1  0
 50 58  1  0
 50 60  1  0
 51 57  1  0
 51 53  1  0
 52 58  1  0
 53 52  1  0
 54 53  2  0
 55 56  1  0
 55 49  2  0
 56 51  2  0
 57 50  1  0
 58 48  1  0
 60 62  2  0
 61 60  1  0
 63 61  1  0
 64 73  2  0
 64 69  1  0
 65 61  1  0
 65 69  1  0
 66 65  1  0
 67 68  1  0
 67 66  1  0
 68 64  1  0
 69 70  2  0
 70 71  1  0
 72 71  2  0
 73 72  1  0
 74 48  1  0
 74 75  1  0
 74 84  1  0
 75 78  1  0
 76 80  1  0
 76 75  1  0
 77 76  2  0
 80 79  1  0
 82 80  1  0
 82 83  1  0
 82 81  1  0
 84 87  1  1
 84 85  1  0
 86 84  1  0
M  ISO  4   2 100  16 100  46 101  47 101
M  END
>  <TORSDO>  (89) 
F 18

>  <SCORE>  (89) 
-13.926

>  <name>  (89) 
88

>  <ligand_id>  (89) 
88

>  <original_smiles>  (89) 
[H]c1c([H])c([H])c2c(c1[H])C([H])([H])C([H])([H])C([H])([H])C2([H])N([H])C(=O)C1([H])N(C(=O)C([H])(N([H])C(=O)C([H])(N([H])C([H])([H])[H])C([H])([H])[H])C(C([H])([H])[H])(C([H])([H])[H])C([H])([H])[H])C([H])([H])c2c([H])c(OC([H])([H])C([H])([H])C([H])([H])C3([H])C([H])([H])C34C([H])([H])N(C(=O)N3C([H])([H])C([H])([H])C([H])([H])C([H])(n5nc(-c6c([H])c([H])c(Oc7c([H])c([H])c(F)c([H])c7F)c([H])c6[H])c(C(=O)N([H])[H])c5N([H])[H])C3([H])[H])C([H])([H])C4([H])[H])c([H])c([H])c2C1([H])[H]

>  <smiles>  (89) 
[H]c1c([H])c([H])c2c(c1[H])C([H])([H])C([H])([H])C([H])([H])C2([H])N([H])C(=O)C1([H])N(C(=O)C([H])(N([H])C(=O)C([H])(N([H])C([H])([H])[H])C([H])([H])[H])C(C([H])([H])[H])(C([H])([H])[H])C([H])([H])[H])C([H])([H])c2c([H])c(OC([H])([H])C([H])([H])C([H])([H])C3([H])C([H])([H])C34C([H])([H])N(C(=O)N3C([H])([H])C([H])([H])C([H])([H])C([H])(n5nc(-c6c([H])c([H])c(Oc7c([H])c([H])c(F)c([H])c7F)c([H])c6[H])c(C(=O)N([H])[H])c5N([H])[H])C3([H])[H])C([H])([H])C4([H])[H])c([H])c([H])c2C1([H])[H]

$$$$
89:0:0
     RDKit          3D

 93102  0  0  1  0  0  0  0  0999 V2000
  -30.3080  -15.6180   20.1850 C   0  0  0  0  0  0  0  0  0  0  0  0
  -30.4320  -13.1010   19.5090 C   0  0  0  0  0  2  0  0  0  0  0  0
  -29.5620  -12.7040   18.2890 C   0  0  0  0  0  2  0  0  0  0  0  0
  -28.1340  -12.3530   18.7360 C   0  0  0  0  0  2  0  0  0  0  0  0
  -27.5870  -13.3710   19.7660 C   0  0  0  0  0  3  0  0  0  0  0  0
  -28.5990  -13.7260   20.8810 C   0  0  0  0  0  2  0  0  0  0  0  0
  -29.7900  -14.2810   20.2110 N   0  0  0  0  0  0  0  0  0  0  0  0
  -31.5350  -15.6070   19.9940 O   0  0  0  0  0  0  0  0  0  0  0  0
  -27.6180  -18.6450   19.8950 C   0  0  0  0  0  2  0  0  0  0  0  0
  -28.0960  -17.1640   20.3140 C   0  0  0  0  0  2  0  0  0  0  0  0
  -29.9200  -18.4800   19.8380 C   0  0  0  0  0  3  0  0  0  0  0  0
  -28.7300  -19.7130   20.1050 C   0  0  0  0  0  3  0  0  0  0  0  0
  -29.5520  -16.9240   20.1420 N   0  0  0  0  0  0  0  0  0  0  0  0
  -33.5940  -19.6470   21.8520 C   0  0  0  0  0  3  0  0  0  0  0  0
  -33.5120  -19.7060   20.4480 C   0  0  0  0  0  3  0  0  0  0  0  0
  -32.4860  -19.2110   22.6030 C   0  0  0  0  0  3  0  0  0  0  0  0
  -32.3240  -19.3250   19.7910 C   0  0  0  0  0  3  0  0  0  0  0  0
  -31.2990  -18.8310   21.9480 C   0  0  0  0  0  3  0  0  0  0  0  0
  -31.2100  -18.8830   20.5390 C   0  0  0  0  0  0  0  0  0  0  0  0
  -25.2120  -13.8330   20.5700 C   0  0  0  0  0  0  0  0  0  0  0  0
  -24.1790  -13.0140   20.9230 C   0  0  0  0  0  0  0  0  0  0  0  0
  -24.6860  -11.6810   20.8440 C   0  0  0  0  0  0  0  0  0  0  0  0
  -26.2790  -12.9980   20.2870 N   0  0  0  0  0  0  0  0  0  0  0  0
  -25.9750  -11.6940   20.5210 N   0  0  0  0  0  0  0  0  0  0  0  0
  -23.9970  -10.3930   21.0020 C   0  0  0  0  0  0  0  0  0  0  0  0
  -24.4190   -9.4410   21.9560 C   0  0  0  0  0  3  0  0  0  0  0  0
  -23.7250   -8.2210   22.1030 C   0  0  0  0  0  3  0  0  0  0  0  0
  -22.5960   -7.9440   21.2970 C   0  0  0  0  0  0  0  0  0  0  0  0
  -22.1930   -8.8850   20.3320 C   0  0  0  0  0  3  0  0  0  0  0  0
  -22.8890  -10.0970   20.1840 C   0  0  0  0  0  3  0  0  0  0  0  0
  -21.8770   -6.7740   21.3530 O   0  0  0  0  0  0  0  0  0  0  0  0
  -21.7270   -6.0770   22.5240 C   0  0  0  0  0  0  0  0  0  0  0  0
  -21.1420   -6.6600   23.6690 C   0  0  0  0  0  3  0  0  0  0  0  0
  -20.9420   -5.8850   24.8300 C   0  0  0  0  0  3  0  0  0  0  0  0
  -21.3190   -4.5290   24.8460 C   0  0  0  0  0  0  0  0  0  0  0  0
  -21.8970   -3.9460   23.7050 C   0  0  0  0  0  3  0  0  0  0  0  0
  -22.0970   -4.7160   22.5460 C   0  0  0  0  0  0  0  0  0  0  0  0
  -22.6340   -4.1440   21.4430 F   0  0  0  0  0  0  0  0  0  0  0  0
  -21.1220   -3.7830   25.9580 F   0  0  0  0  0  0  0  0  0  0  0  0
  -22.7720  -13.4430   21.2160 C   0  0  0  0  0  0  0  0  0  0  0  0
  -22.0740  -12.7150   22.0790 N   0  0  0  0  0  0  0  0  0  0  0  0
  -22.2990  -14.4640   20.7150 O   0  0  0  0  0  0  0  0  0  0  0  0
  -22.4690  -11.8890   22.5060 H   0  0  0  0  0  0  0  0  0  0  0  0
  -21.1320  -12.9870   22.3190 H   0  0  0  0  0  0  0  0  0  0  0  0
  -25.3240  -15.2120   20.4380 N   0  0  0  0  0  0  0  0  0  0  0  0
  -24.5410  -15.8360   20.6040 H   0  0  0  0  0  0  0  0  0  0  0  0
  -26.1590  -15.6930   20.1340 H   0  0  0  0  0  0  0  0  0  0  0  0
  -28.5440  -21.2340   19.3920 N   0  0  0  0  0  4  0  0  0  0  0  0
  -27.8060  -21.1000   18.7190 H   0  0  0  0  0  0  0  0  0  0  0  0
  -29.3750  -21.3340   18.8310 H   0  0  0  0  0  0  0  0  0  0  0  0
  -28.2960  -22.7850   20.0060 C   0  0  0  0  0  2  0  0  0  0  0  0
  -27.7750  -24.3460   19.2110 C   0  0  0  0  0  2  0  0  0  0  0  0
  -27.9170  -25.9880   19.4970 O   0  0  0  0  0  0  0  0  0  0  0  0
  -24.6300  -31.8200   23.0140 C   0  0  0  0  0  0  0  0  0  0  0  0
  -26.9170  -27.1070   19.5190 C   0  0  0  0  0  0  0  0  0  0  0  0
  -23.3140  -30.5460   21.3680 C   0  0  0  0  0  3  0  0  0  0  0  0
  -24.6470  -29.0270   19.7450 C   0  0  0  0  0  0  0  0  0  0  0  0
  -25.8690  -30.7350   21.0720 C   0  0  0  0  0  2  0  0  0  0  0  0
  -25.8760  -29.3710   20.3180 C   0  0  0  0  0  0  0  0  0  0  0  0
  -26.9990  -28.4330   20.1860 C   0  0  0  0  0  3  0  0  0  0  0  0
  -25.6580  -26.9300   18.8980 C   0  0  0  0  0  3  0  0  0  0  0  0
  -24.5640  -27.8300   19.0130 C   0  0  0  0  0  3  0  0  0  0  0  0
  -23.4450  -29.9520   19.9370 C   0  0  0  0  0  2  0  0  0  0  0  0
  -24.6300  -31.0590   21.8720 N   0  0  0  0  0  0  0  0  0  0  0  0
  -23.5800  -32.0880   23.6220 O   0  0  0  0  0  0  0  0  0  0  0  0
  -22.6690  -29.4980   22.3120 C   0  0  0  0  0  0  0  0  0  0  0  0
  -21.3330  -29.3420   22.2510 N   0  0  0  0  0  0  0  0  0  0  0  0
  -23.3760  -28.8240   23.0660 O   0  0  0  0  0  0  0  0  0  0  0  0
  -20.8150  -29.9370   21.6200 H   0  0  0  0  0  0  0  0  0  0  0  0
  -17.9860  -28.0690   22.8380 C   0  0  0  0  0  0  0  0  0  0  0  0
  -20.5500  -28.3600   23.0110 C   0  0  0  0  0  3  0  0  0  0  0  0
  -20.6460  -26.9570   22.3680 C   0  0  0  0  0  2  0  0  0  0  0  0
  -19.5090  -26.6650   21.3840 C   0  0  0  0  0  2  0  0  0  0  0  0
  -18.1520  -26.7580   22.0880 C   0  0  0  0  0  2  0  0  0  0  0  0
  -19.1100  -28.8300   23.2570 C   0  0  0  0  0  0  0  0  0  0  0  0
  -18.8960  -30.0550   23.9230 C   0  0  0  0  0  3  0  0  0  0  0  0
  -17.5920  -30.5230   24.1720 C   0  0  0  0  0  3  0  0  0  0  0  0
  -16.4840  -29.7600   23.7650 C   0  0  0  0  0  3  0  0  0  0  0  0
  -16.6810  -28.5350   23.1050 C   0  0  0  0  0  3  0  0  0  0  0  0
  -25.9480  -32.4090   23.6050 C   0  0  0  0  0  3  0  0  0  0  0  0
  -26.5580  -31.5230   24.7620 C   0  0  1  0  0  0  0  0  0  0  0  0
  -25.5520  -31.1890   25.8870 C   0  0  0  0  0  1  0  0  0  0  0  0
  -27.1000  -30.1860   24.2090 C   0  0  0  0  0  1  0  0  0  0  0  0
  -27.7650  -32.2540   25.3980 C   0  0  0  0  0  1  0  0  0  0  0  0
  -25.6560  -33.7640   24.1060 N   0  0  0  0  0  0  0  0  0  0  0  0
  -25.9800  -34.9020   23.4800 C   0  0  0  0  0  0  0  0  0  0  0  0
  -26.6180  -34.9210   22.4250 O   0  0  0  0  0  0  0  0  0  0  0  0
  -25.0870  -33.8230   24.9380 H   0  0  0  0  0  0  0  0  0  0  0  0
  -24.2760  -36.7560   23.4020 C   0  0  0  0  0  1  0  0  0  0  0  0
  -25.5270  -36.2290   24.1230 C   0  0  0  0  0  3  0  0  0  0  0  0
  -27.6920  -36.9750   25.0120 C   0  0  0  0  0  1  0  0  0  0  0  0
  -26.5740  -37.2750   24.1220 N   0  0  0  0  0  0  0  0  0  0  0  0
  -26.1850  -38.1740   24.3950 H   0  0  0  0  0  0  0  0  0  0  0  0
  1  7  1  0
  2  7  1  0
  3  4  1  0
  3  2  1  0
  5  4  1  0
  5 23  1  0
  5  6  1  0
  7  6  1  0
  8  1  2  0
  9 12  1  0
  9 10  1  0
 11 12  1  0
 11 13  1  0
 11 19  1  0
 12 48  1  0
 13  1  1  0
 13 10  1  0
 14 16  1  0
 15 14  2  0
 17 15  1  0
 17 19  2  0
 18 16  2  0
 19 18  1  0
 20 21  2  0
 21 40  1  0
 22 21  1  0
 22 25  1  0
 23 24  1  0
 23 20  1  0
 24 22  2  0
 25 26  1  0
 26 27  2  0
 28 31  1  0
 28 27  1  0
 29 28  2  0
 30 29  1  0
 30 25  2  0
 31 32  1  0
 32 37  2  0
 32 33  1  0
 33 34  2  0
 34 35  1  0
 35 39  1  0
 36 35  2  0
 37 36  1  0
 38 37  1  0
 40 41  1  0
 41 44  1  0
 41 43  1  0
 42 40  2  0
 45 20  1  0
 45 46  1  0
 47 45  1  0
 48 51  1  0
 49 48  1  0
 50 48  1  0
 52 53  1  0
 52 51  1  0
 53 55  1  0
 54 65  2  0
 55 60  1  0
 56 64  1  0
 56 66  1  0
 57 63  1  0
 57 59  1  0
 58 64  1  0
 59 58  1  0
 60 59  2  0
 61 62  1  0
 61 55  2  0
 62 57  2  0
 63 56  1  0
 64 54  1  0
 66 68  2  0
 67 66  1  0
 69 67  1  0
 70 79  2  0
 70 75  1  0
 71 67  1  0
 71 75  1  0
 72 71  1  0
 73 74  1  0
 73 72  1  0
 74 70  1  0
 75 76  2  0
 76 77  1  0
 78 77  2  0
 79 78  1  0
 80 54  1  0
 80 85  1  0
 80 81  1  0
 81 84  1  1
 81 82  1  0
 83 81  1  0
 85 88  1  0
 86 85  1  0
 86 90  1  0
 87 86  2  0
 90 89  1  0
 92 90  1  0
 92 93  1  0
 92 91  1  0
M  ISO  4   1 100  13 100  52 101  53 101
M  END
>  <TORSDO>  (90) 
F 19

>  <SCORE>  (90) 
-15.673

>  <name>  (90) 
89

>  <ligand_id>  (90) 
89

>  <original_smiles>  (90) 
[H]c1c([H])c([H])c(C2([H])N(C(=O)N3C([H])([H])C([H])([H])C([H])([H])C([H])(n4nc(-c5c([H])c([H])c(Oc6c([H])c([H])c(F)c([H])c6F)c([H])c5[H])c(C(=O)N([H])[H])c4N([H])[H])C3([H])[H])C([H])([H])C([H])([H])C2([H])[N+]([H])([H])C([H])([H])C([H])([H])Oc2c([H])c([H])c3c(c2[H])C([H])([H])N(C(=O)C([H])(N([H])C(=O)C([H])(N([H])C([H])([H])[H])C([H])([H])[H])C(C([H])([H])[H])(C([H])([H])[H])C([H])([H])[H])C([H])(C(=O)N([H])C2([H])c4c([H])c([H])c([H])c([H])c4C([H])([H])C([H])([H])C2([H])[H])C3([H])[H])c([H])c1[H]

>  <smiles>  (90) 
[H]c1c([H])c([H])c(C2([H])N(C(=O)N3C([H])([H])C([H])([H])C([H])([H])C([H])(n4nc(-c5c([H])c([H])c(Oc6c([H])c([H])c(F)c([H])c6F)c([H])c5[H])c(C(=O)N([H])[H])c4N([H])[H])C3([H])[H])C([H])([H])C([H])([H])C2([H])[N+]([H])([H])C([H])([H])C([H])([H])Oc2c([H])c([H])c3c(c2[H])C([H])([H])N(C(=O)C([H])(N([H])C(=O)C([H])(N([H])C([H])([H])[H])C([H])([H])[H])C(C([H])([H])[H])(C([H])([H])[H])C([H])([H])[H])C([H])(C(=O)N([H])C2([H])c4c([H])c([H])c([H])c([H])c4C([H])([H])C([H])([H])C2([H])[H])C3([H])[H])c([H])c1[H]

$$$$
90:0:0
     RDKit          3D

 93102  0  0  1  0  0  0  0  0999 V2000
  -26.6960  -24.2500   19.9400 C   0  0  0  0  0  3  0  0  0  0  0  0
  -28.0080  -23.9650   19.9500 C   0  0  0  0  0  0  0  0  0  0  0  0
  -25.8450  -22.2310   20.9850 C   0  0  0  0  0  2  0  0  0  0  0  0
  -26.0130  -22.4010   18.5020 C   0  0  0  0  0  2  0  0  0  0  0  0
  -27.3260  -21.7850   21.0960 C   0  0  0  0  0  2  0  0  0  0  0  0
  -27.4550  -21.8440   18.6050 C   0  0  0  0  0  2  0  0  0  0  0  0
  -25.6510  -23.1760   19.7820 C   0  0  2  0  0  0  0  0  0  0  0  0
  -28.2160  -22.2770   19.9060 C   0  0  1  0  0  0  0  0  0  0  0  0
  -23.1000  -22.9060   19.3040 C   0  0  0  0  0  1  0  0  0  0  0  0
  -24.2480  -23.8270   19.7350 C   0  0  0  0  0  2  0  0  0  0  0  0
  -28.8670  -25.2930   20.3700 C   0  0  0  0  0  2  0  0  0  0  0  0
  -28.6050  -26.8030   19.9750 O   0  0  0  0  0  0  0  0  0  0  0  0
  -24.7390  -32.1400   23.3930 C   0  0  0  0  0  0  0  0  0  0  0  0
  -27.4680  -27.6820   20.1120 C   0  0  0  0  0  0  0  0  0  0  0  0
  -23.5820  -30.7910   21.6850 C   0  0  0  0  0  3  0  0  0  0  0  0
  -25.0790  -29.3490   20.1740 C   0  0  0  0  0  0  0  0  0  0  0  0
  -26.1230  -31.1550   21.5300 C   0  0  0  0  0  2  0  0  0  0  0  0
  -26.2410  -29.7970   20.8150 C   0  0  0  0  0  0  0  0  0  0  0  0
  -27.4330  -28.9790   20.7710 C   0  0  0  0  0  3  0  0  0  0  0  0
  -26.2970  -27.3760   19.3870 C   0  0  0  0  0  3  0  0  0  0  0  0
  -25.1210  -28.1530   19.4420 C   0  0  0  0  0  3  0  0  0  0  0  0
  -23.8190  -30.1970   20.2710 C   0  0  0  0  0  2  0  0  0  0  0  0
  -24.8330  -31.3840   22.2560 N   0  0  0  0  0  0  0  0  0  0  0  0
  -23.6470  -32.3530   23.9400 O   0  0  0  0  0  0  0  0  0  0  0  0
  -22.9460  -29.7080   22.5910 C   0  0  0  0  0  0  0  0  0  0  0  0
  -21.6320  -29.4720   22.4380 N   0  0  0  0  0  0  0  0  0  0  0  0
  -23.6420  -29.0840   23.3960 O   0  0  0  0  0  0  0  0  0  0  0  0
  -21.1270  -30.0280   21.7610 H   0  0  0  0  0  0  0  0  0  0  0  0
  -18.3150  -28.0700   22.8310 C   0  0  0  0  0  0  0  0  0  0  0  0
  -20.8520  -28.4610   23.1550 C   0  0  0  0  0  3  0  0  0  0  0  0
  -21.0420  -27.0620   22.5240 C   0  0  0  0  0  2  0  0  0  0  0  0
  -19.9740  -26.7210   21.4770 C   0  0  0  0  0  2  0  0  0  0  0  0
  -18.5770  -26.7630   22.1020 C   0  0  0  0  0  2  0  0  0  0  0  0
  -19.3830  -28.8740   23.3120 C   0  0  0  0  0  0  0  0  0  0  0  0
  -19.0840  -30.0940   23.9550 C   0  0  0  0  0  3  0  0  0  0  0  0
  -17.7510  -30.5140   24.1220 C   0  0  0  0  0  3  0  0  0  0  0  0
  -16.6970  -29.7080   23.6570 C   0  0  0  0  0  3  0  0  0  0  0  0
  -16.9800  -28.4870   23.0180 C   0  0  0  0  0  3  0  0  0  0  0  0
  -25.9980  -32.7850   24.0500 C   0  0  0  0  0  3  0  0  0  0  0  0
  -25.6730  -34.1880   24.3560 N   0  0  0  0  0  0  0  0  0  0  0  0
  -26.0070  -35.2340   23.5900 C   0  0  0  0  0  0  0  0  0  0  0  0
  -26.6860  -35.1230   22.5660 O   0  0  0  0  0  0  0  0  0  0  0  0
  -25.0740  -34.3470   25.1520 H   0  0  0  0  0  0  0  0  0  0  0  0
  -24.2600  -37.0070   23.2140 C   0  0  0  0  0  1  0  0  0  0  0  0
  -25.5080  -36.6260   24.0270 C   0  0  0  0  0  3  0  0  0  0  0  0
  -27.6330  -37.5510   24.8400 C   0  0  0  0  0  1  0  0  0  0  0  0
  -26.5290  -37.6860   23.8930 N   0  0  0  0  0  0  0  0  0  0  0  0
  -26.1140  -38.6060   24.0190 H   0  0  0  0  0  0  0  0  0  0  0  0
  -26.4700  -32.0330   25.3550 C   0  0  1  0  0  0  0  0  0  0  0  0
  -25.3350  -31.7900   26.3770 C   0  0  0  0  0  1  0  0  0  0  0  0
  -27.0900  -30.6600   25.0080 C   0  0  0  0  0  1  0  0  0  0  0  0
  -27.5800  -32.8500   26.0580 C   0  0  0  0  0  1  0  0  0  0  0  0
  -29.5440  -21.2150   19.9480 C   0  0  0  0  0  2  0  0  0  0  0  0
  -29.3580  -19.5070   19.9360 C   0  0  0  0  0  3  0  0  0  0  0  0
  -30.4980  -18.2730   20.0870 C   0  0  0  0  0  3  0  0  0  0  0  0
  -30.9300  -15.5470   20.1310 C   0  0  0  0  0  0  0  0  0  0  0  0
  -30.8270  -13.1500   19.3190 C   0  0  0  0  0  2  0  0  0  0  0  0
  -29.9030  -13.0440   18.0820 C   0  0  0  0  0  2  0  0  0  0  0  0
  -28.4350  -12.8620   18.5120 C   0  0  0  0  0  2  0  0  0  0  0  0
  -28.0190  -13.8390   19.6430 C   0  0  0  0  0  3  0  0  0  0  0  0
  -29.0660  -13.9080   20.7730 C   0  0  0  0  0  2  0  0  0  0  0  0
  -30.3380  -14.2880   20.1490 N   0  0  0  0  0  0  0  0  0  0  0  0
  -32.1350  -15.6050   19.8650 O   0  0  0  0  0  0  0  0  0  0  0  0
  -30.1460  -16.7330   20.2050 N   0  0  0  0  0  0  0  0  0  0  0  0
  -29.1660  -16.5450   20.3570 H   0  0  0  0  0  0  0  0  0  0  0  0
  -25.6660  -14.4460   20.4410 C   0  0  0  0  0  0  0  0  0  0  0  0
  -24.5850  -13.6860   20.7900 C   0  0  0  0  0  0  0  0  0  0  0  0
  -25.0090  -12.3250   20.6880 C   0  0  0  0  0  0  0  0  0  0  0  0
  -26.6800  -13.5540   20.1470 N   0  0  0  0  0  0  0  0  0  0  0  0
  -26.2960  -12.2680   20.3590 N   0  0  0  0  0  0  0  0  0  0  0  0
  -24.2460  -11.0770   20.8250 C   0  0  0  0  0  0  0  0  0  0  0  0
  -24.6210  -10.0790   21.7500 C   0  0  0  0  0  3  0  0  0  0  0  0
  -23.8580   -8.8970   21.8790 C   0  0  0  0  0  3  0  0  0  0  0  0
  -22.7030   -8.7080   21.0820 C   0  0  0  0  0  0  0  0  0  0  0  0
  -22.3460   -9.6960   20.1490 C   0  0  0  0  0  3  0  0  0  0  0  0
  -23.1100  -10.8690   20.0190 C   0  0  0  0  0  3  0  0  0  0  0  0
  -21.9180   -7.5810   21.1210 O   0  0  0  0  0  0  0  0  0  0  0  0
  -21.7570   -6.8560   22.2740 C   0  0  0  0  0  0  0  0  0  0  0  0
  -21.2280   -7.4310   23.4510 C   0  0  0  0  0  3  0  0  0  0  0  0
  -21.0150   -6.6310   24.5910 C   0  0  0  0  0  3  0  0  0  0  0  0
  -21.3200   -5.2570   24.5550 C   0  0  0  0  0  0  0  0  0  0  0  0
  -21.8390   -4.6820   23.3830 C   0  0  0  0  0  3  0  0  0  0  0  0
  -22.0550   -5.4790   22.2450 C   0  0  0  0  0  0  0  0  0  0  0  0
  -22.5370   -4.9150   21.1110 F   0  0  0  0  0  0  0  0  0  0  0  0
  -21.1080   -4.4870   25.6480 F   0  0  0  0  0  0  0  0  0  0  0  0
  -23.2060  -14.1920   21.1000 C   0  0  0  0  0  0  0  0  0  0  0  0
  -22.4680  -13.4850   21.9470 N   0  0  0  0  0  0  0  0  0  0  0  0
  -22.7920  -15.2470   20.6230 O   0  0  0  0  0  0  0  0  0  0  0  0
  -22.8150  -12.6300   22.3540 H   0  0  0  0  0  0  0  0  0  0  0  0
  -21.5430  -13.8070   22.1970 H   0  0  0  0  0  0  0  0  0  0  0  0
  -25.8620  -15.8190   20.3250 N   0  0  0  0  0  0  0  0  0  0  0  0
  -25.1040  -16.4750   20.4710 H   0  0  0  0  0  0  0  0  0  0  0  0
  -26.6980  -16.2560   19.9590 H   0  0  0  0  0  0  0  0  0  0  0  0
  1  2  2  0
  2 11  1  0
  3  5  1  0
  4  6  1  0
  4  7  1  0
  6  8  1  0
  7 10  1  6
  7  1  1  0
  7  3  1  0
  8 53  1  1
  8  2  1  0
  8  5  1  0
  9 10  1  0
 12 14  1  0
 12 11  1  0
 13 24  2  0
 14 19  1  0
 15 23  1  0
 15 25  1  0
 16 22  1  0
 16 18  1  0
 17 23  1  0
 18 17  1  0
 19 18  2  0
 20 21  1  0
 20 14  2  0
 21 16  2  0
 22 15  1  0
 23 13  1  0
 25 27  2  0
 26 25  1  0
 28 26  1  0
 29 38  2  0
 29 34  1  0
 30 26  1  0
 30 34  1  0
 31 30  1  0
 32 33  1  0
 32 31  1  0
 33 29  1  0
 34 35  2  0
 35 36  1  0
 37 36  2  0
 38 37  1  0
 39 13  1  0
 39 40  1  0
 39 49  1  0
 40 43  1  0
 41 45  1  0
 41 40  1  0
 42 41  2  0
 45 44  1  0
 47 48  1  0
 47 45  1  0
 47 46  1  0
 49 52  1  1
 49 50  1  0
 51 49  1  0
 54 53  1  0
 54 55  2  0
 55 64  1  0
 56 62  1  0
 56 64  1  0
 57 62  1  0
 58 59  1  0
 58 57  1  0
 60 59  1  0
 60 69  1  0
 60 61  1  0
 62 61  1  0
 63 56  2  0
 64 65  1  0
 66 67  2  0
 67 86  1  0
 68 67  1  0
 68 71  1  0
 69 70  1  0
 69 66  1  0
 70 68  2  0
 71 72  1  0
 72 73  2  0
 74 77  1  0
 74 73  1  0
 75 74  2  0
 76 75  1  0
 76 71  2  0
 77 78  1  0
 78 79  1  0
 79 80  2  0
 81 80  1  0
 81 85  1  0
 82 81  2  0
 83 78  2  0
 83 82  1  0
 84 83  1  0
 86 87  1  0
 87 90  1  0
 87 89  1  0
 88 86  2  0
 91 66  1  0
 91 92  1  0
 93 91  1  0
M  ISO  4  11 101  12 101  56 100  64 100
M  END
>  <TORSDO>  (91) 
F 21

>  <SCORE>  (91) 
-12.073

>  <name>  (91) 
90

>  <ligand_id>  (91) 
90

>  <original_smiles>  (91) 
[H]C1=C(C([H])([H])Oc2c([H])c([H])c3c(c2[H])C([H])([H])N(C(=O)C([H])(N([H])C(=O)C([H])(N([H])C([H])([H])[H])C([H])([H])[H])C(C([H])([H])[H])(C([H])([H])[H])C([H])([H])[H])C([H])(C(=O)N([H])C2([H])c4c([H])c([H])c([H])c([H])c4C([H])([H])C([H])([H])C2([H])[H])C3([H])[H])C2(C([H])([H])C([H])([H])C([H])([H])N([H])C(=O)N3C([H])([H])C([H])([H])C([H])([H])C([H])(n4nc(-c5c([H])c([H])c(Oc6c([H])c([H])c(F)c([H])c6F)c([H])c5[H])c(C(=O)N([H])[H])c4N([H])[H])C3([H])[H])C([H])([H])C([H])([H])C1(C([H])([H])C([H])([H])[H])C([H])([H])C2([H])[H]

>  <smiles>  (91) 
[H]C1=C(C([H])([H])Oc2c([H])c([H])c3c(c2[H])C([H])([H])N(C(=O)C([H])(N([H])C(=O)C([H])(N([H])C([H])([H])[H])C([H])([H])[H])C(C([H])([H])[H])(C([H])([H])[H])C([H])([H])[H])C([H])(C(=O)N([H])C2([H])c4c([H])c([H])c([H])c([H])c4C([H])([H])C([H])([H])C2([H])[H])C3([H])[H])C2(C([H])([H])C([H])([H])C([H])([H])N([H])C(=O)N3C([H])([H])C([H])([H])C([H])([H])C([H])(n4nc(-c5c([H])c([H])c(Oc6c([H])c([H])c(F)c([H])c6F)c([H])c5[H])c(C(=O)N([H])[H])c4N([H])[H])C3([H])[H])C([H])([H])C([H])([H])C1(C([H])([H])C([H])([H])[H])C([H])([H])C2([H])[H]

$$$$
91:0:0
     RDKit          3D

 92101  0  0  1  0  0  0  0  0999 V2000
  -30.7630  -17.9170   18.8400 C   0  0  0  0  0  0  0  0  0  0  0  0
  -30.5690  -19.3110   18.2040 C   0  0  0  0  0  2  0  0  0  0  0  0
  -28.1970  -19.2440   19.3350 C   0  0  0  0  0  2  0  0  0  0  0  0
  -30.1850  -17.6850   20.2720 C   0  0  0  0  0  3  0  0  0  0  0  0
  -29.3770  -20.0970   18.7990 C   0  0  0  0  0  3  0  0  0  0  0  0
  -29.1270  -18.9740   20.5290 C   0  0  0  0  0  3  0  0  0  0  0  0
  -29.5190  -20.5900   20.2550 C   0  0  0  0  0  3  0  0  0  0  0  0
  -31.3370  -17.0500   18.1790 O   0  0  0  0  0  0  0  0  0  0  0  0
  -30.5350  -14.9550   20.3640 C   0  0  0  0  0  0  0  0  0  0  0  0
  -30.3760  -12.6190   19.4060 C   0  0  0  0  0  2  0  0  0  0  0  0
  -29.4380  -12.5940   18.1780 C   0  0  0  0  0  2  0  0  0  0  0  0
  -27.9770  -12.3880   18.6160 C   0  0  0  0  0  2  0  0  0  0  0  0
  -27.5790  -13.3040   19.8040 C   0  0  0  0  0  3  0  0  0  0  0  0
  -28.6400  -13.3110   20.9230 C   0  0  0  0  0  2  0  0  0  0  0  0
  -29.9100  -13.7120   20.3040 N   0  0  0  0  0  0  0  0  0  0  0  0
  -31.7470  -14.9790   20.1300 O   0  0  0  0  0  0  0  0  0  0  0  0
  -29.7890  -16.1610   20.4840 N   0  0  0  0  0  0  0  0  0  0  0  0
  -28.8060  -16.0110   20.6430 H   0  0  0  0  0  0  0  0  0  0  0  0
  -25.2010  -13.8740   20.5580 C   0  0  0  0  0  0  0  0  0  0  0  0
  -24.1400  -13.0950   20.9280 C   0  0  0  0  0  0  0  0  0  0  0  0
  -24.6060  -11.7460   20.8890 C   0  0  0  0  0  0  0  0  0  0  0  0
  -26.2450  -12.9990   20.3080 N   0  0  0  0  0  0  0  0  0  0  0  0
  -25.8970  -11.7130   20.5750 N   0  0  0  0  0  0  0  0  0  0  0  0
  -23.8820  -10.4810   21.0730 C   0  0  0  0  0  0  0  0  0  0  0  0
  -24.3190   -9.5060   21.9970 C   0  0  0  0  0  3  0  0  0  0  0  0
  -23.5930   -8.3080   22.1690 C   0  0  0  0  0  3  0  0  0  0  0  0
  -22.4150   -8.0770   21.4200 C   0  0  0  0  0  0  0  0  0  0  0  0
  -21.9980   -9.0400   20.4850 C   0  0  0  0  0  3  0  0  0  0  0  0
  -22.7240  -10.2300   20.3100 C   0  0  0  0  0  3  0  0  0  0  0  0
  -21.6610   -6.9310   21.5030 O   0  0  0  0  0  0  0  0  0  0  0  0
  -21.6170   -6.1810   22.6510 C   0  0  0  0  0  0  0  0  0  0  0  0
  -21.1880   -6.7240   23.8810 C   0  0  0  0  0  3  0  0  0  0  0  0
  -21.0910   -5.9000   25.0190 C   0  0  0  0  0  3  0  0  0  0  0  0
  -21.4130   -4.5320   24.9290 C   0  0  0  0  0  0  0  0  0  0  0  0
  -21.8340   -3.9880   23.7030 C   0  0  0  0  0  3  0  0  0  0  0  0
  -21.9320   -4.8090   22.5670 C   0  0  0  0  0  0  0  0  0  0  0  0
  -22.3190   -4.2750   21.3830 F   0  0  0  0  0  0  0  0  0  0  0  0
  -21.3130   -3.7380   26.0210 F   0  0  0  0  0  0  0  0  0  0  0  0
  -22.7430  -13.5690   21.2030 C   0  0  0  0  0  0  0  0  0  0  0  0
  -22.0180  -12.8720   22.0700 N   0  0  0  0  0  0  0  0  0  0  0  0
  -22.3020  -14.5940   20.6830 O   0  0  0  0  0  0  0  0  0  0  0  0
  -22.3880  -12.0430   22.5120 H   0  0  0  0  0  0  0  0  0  0  0  0
  -21.0800  -13.1700   22.2960 H   0  0  0  0  0  0  0  0  0  0  0  0
  -25.3600  -15.2460   20.3860 N   0  0  0  0  0  0  0  0  0  0  0  0
  -24.5850  -15.8920   20.4950 H   0  0  0  0  0  0  0  0  0  0  0  0
  -26.1920  -15.6870   20.0170 H   0  0  0  0  0  0  0  0  0  0  0  0
  -28.6060  -21.8610   20.5670 N   0  0  0  0  0  4  0  0  0  0  0  0
  -28.3900  -21.8170   21.5510 H   0  0  0  0  0  0  0  0  0  0  0  0
  -27.7270  -21.7140   20.0940 H   0  0  0  0  0  0  0  0  0  0  0  0
  -29.0400  -23.3650   20.2920 C   0  0  0  0  0  3  0  0  0  0  0  0
  -27.9620  -24.6580   20.3640 C   0  0  0  0  0  3  0  0  0  0  0  0
  -28.2590  -26.1890   20.2750 O   0  0  0  0  0  0  0  0  0  0  0  0
  -24.6410  -31.8940   23.2460 C   0  0  0  0  0  0  0  0  0  0  0  0
  -27.1990  -27.1680   20.2260 C   0  0  0  0  0  0  0  0  0  0  0  0
  -23.4350  -30.4970   21.6150 C   0  0  0  0  0  3  0  0  0  0  0  0
  -24.8760  -28.9190   20.1930 C   0  0  0  0  0  0  0  0  0  0  0  0
  -25.9890  -30.7580   21.4430 C   0  0  0  0  0  2  0  0  0  0  0  0
  -26.0580  -29.3640   20.7970 C   0  0  0  0  0  0  0  0  0  0  0  0
  -27.2220  -28.5060   20.7950 C   0  0  0  0  0  3  0  0  0  0  0  0
  -25.9890  -26.8300   19.5780 C   0  0  0  0  0  3  0  0  0  0  0  0
  -24.8540  -27.6650   19.5670 C   0  0  0  0  0  3  0  0  0  0  0  0
  -23.6510  -29.8180   20.2370 C   0  0  0  0  0  2  0  0  0  0  0  0
  -24.7090  -31.0710   22.1560 N   0  0  0  0  0  0  0  0  0  0  0  0
  -23.5560  -32.1830   23.7760 O   0  0  0  0  0  0  0  0  0  0  0  0
  -22.7560  -29.4930   22.5790 C   0  0  0  0  0  0  0  0  0  0  0  0
  -21.4280  -29.3230   22.4540 N   0  0  0  0  0  0  0  0  0  0  0  0
  -23.4270  -28.8680   23.4050 O   0  0  0  0  0  0  0  0  0  0  0  0
  -20.9430  -29.8780   21.7620 H   0  0  0  0  0  0  0  0  0  0  0  0
  -18.0440  -28.1320   22.9620 C   0  0  0  0  0  0  0  0  0  0  0  0
  -20.6040  -28.3920   23.2290 C   0  0  0  0  0  3  0  0  0  0  0  0
  -20.7040  -26.9560   22.6620 C   0  0  0  0  0  2  0  0  0  0  0  0
  -19.6010  -26.6300   21.6490 C   0  0  0  0  0  2  0  0  0  0  0  0
  -18.2190  -26.7790   22.2920 C   0  0  0  0  0  2  0  0  0  0  0  0
  -19.1640  -28.8950   23.3870 C   0  0  0  0  0  0  0  0  0  0  0  0
  -18.9450  -30.1590   23.9760 C   0  0  0  0  0  3  0  0  0  0  0  0
  -17.6400  -30.6610   24.1410 C   0  0  0  0  0  3  0  0  0  0  0  0
  -16.5360  -29.8960   23.7300 C   0  0  0  0  0  3  0  0  0  0  0  0
  -16.7390  -28.6320   23.1470 C   0  0  0  0  0  3  0  0  0  0  0  0
  -25.9220  -32.5280   23.8690 C   0  0  0  0  0  3  0  0  0  0  0  0
  -26.4370  -31.7560   25.1460 C   0  0  1  0  0  0  0  0  0  0  0  0
  -25.3440  -31.5210   26.2150 C   0  0  0  0  0  1  0  0  0  0  0  0
  -27.0180  -30.3760   24.7580 C   0  0  0  0  0  1  0  0  0  0  0  0
  -27.5900  -32.5480   25.8070 C   0  0  0  0  0  1  0  0  0  0  0  0
  -25.6110  -33.9260   24.2070 N   0  0  0  0  0  0  0  0  0  0  0  0
  -25.9220  -34.9840   23.4470 C   0  0  0  0  0  0  0  0  0  0  0  0
  -26.5710  -34.8860   22.4010 O   0  0  0  0  0  0  0  0  0  0  0  0
  -25.0310  -34.0750   25.0200 H   0  0  0  0  0  0  0  0  0  0  0  0
  -24.1750  -36.7700   23.1470 C   0  0  0  0  0  1  0  0  0  0  0  0
  -25.4420  -36.3710   23.9200 C   0  0  0  0  0  3  0  0  0  0  0  0
  -27.5950  -37.2700   24.6870 C   0  0  0  0  0  1  0  0  0  0  0  0
  -26.4650  -37.4290   23.7760 N   0  0  0  0  0  0  0  0  0  0  0  0
  -26.0580  -38.3480   23.9320 H   0  0  0  0  0  0  0  0  0  0  0  0
  1  4  1  0
  2  1  1  0
  4 17  1  0
  4  6  1  0
  5  2  1  0
  5  3  1  0
  5  7  1  0
  6  3  1  0
  7  6  1  0
  7 47  1  0
  8  1  2  0
  9 17  1  0
 10 15  1  0
 11 12  1  0
 11 10  1  0
 13 12  1  0
 13 22  1  0
 13 14  1  0
 15  9  1  0
 15 14  1  0
 16  9  2  0
 17 18  1  0
 19 20  2  0
 20 39  1  0
 21 20  1  0
 21 24  1  0
 22 19  1  0
 22 23  1  0
 23 21  2  0
 24 25  1  0
 25 26  2  0
 27 30  1  0
 27 26  1  0
 28 27  2  0
 29 28  1  0
 29 24  2  0
 30 31  1  0
 31 32  1  0
 32 33  2  0
 34 33  1  0
 34 38  1  0
 35 34  2  0
 36 31  2  0
 36 35  1  0
 37 36  1  0
 39 40  1  0
 40 43  1  0
 40 42  1  0
 41 39  2  0
 44 45  1  0
 44 19  1  0
 46 44  1  0
 47 48  1  0
 49 47  1  0
 50 51  2  0
 50 47  1  0
 52 51  1  0
 53 64  2  0
 54 52  1  0
 54 59  1  0
 55 63  1  0
 55 65  1  0
 56 62  1  0
 56 58  1  0
 57 63  1  0
 58 57  1  0
 59 58  2  0
 60 54  2  0
 61 60  1  0
 61 56  2  0
 62 55  1  0
 63 53  1  0
 65 67  2  0
 66 65  1  0
 68 66  1  0
 69 78  2  0
 69 74  1  0
 70 66  1  0
 70 74  1  0
 71 70  1  0
 72 73  1  0
 72 71  1  0
 73 69  1  0
 74 75  2  0
 75 76  1  0
 77 76  2  0
 78 77  1  0
 79 53  1  0
 79 84  1  0
 79 80  1  0
 80 83  1  1
 80 81  1  0
 82 80  1  0
 84 87  1  0
 85 89  1  0
 85 84  1  0
 86 85  2  0
 89 88  1  0
 91 89  1  0
 91 92  1  0
 91 90  1  0
M  ISO  4   9 100  17 100  51 101  52 101
M  END
>  <TORSDO>  (92) 
F 19

>  <SCORE>  (92) 
-14.292

>  <name>  (92) 
91

>  <ligand_id>  (92) 
91

>  <original_smiles>  (92) 
[H]c1c([H])c([H])c2c(c1[H])C([H])([H])C([H])([H])C([H])([H])C2([H])N([H])C(=O)C1([H])N(C(=O)C([H])(N([H])C(=O)C([H])(N([H])C([H])([H])[H])C([H])([H])[H])C(C([H])([H])[H])(C([H])([H])[H])C([H])([H])[H])C([H])([H])c2c([H])c(OC([H])([H])C([H])([H])[N+]([H])([H])C3([H])C4([H])C([H])([H])C(=O)C([H])(N([H])C(=O)N5C([H])([H])C([H])([H])C([H])([H])C([H])(n6nc(-c7c([H])c([H])c(Oc8c([H])c([H])c(F)c([H])c8F)c([H])c7[H])c(C(=O)N([H])[H])c6N([H])[H])C5([H])[H])C3([H])C4([H])[H])c([H])c([H])c2C1([H])[H]

>  <smiles>  (92) 
[H]c1c([H])c([H])c2c(c1[H])C([H])([H])C([H])([H])C([H])([H])C2([H])N([H])C(=O)C1([H])N(C(=O)C([H])(N([H])C(=O)C([H])(N([H])C([H])([H])[H])C([H])([H])[H])C(C([H])([H])[H])(C([H])([H])[H])C([H])([H])[H])C([H])([H])c2c([H])c(OC([H])([H])C([H])([H])[N+]([H])([H])C3([H])C4([H])C([H])([H])C(=O)C([H])(N([H])C(=O)N5C([H])([H])C([H])([H])C([H])([H])C([H])(n6nc(-c7c([H])c([H])c(Oc8c([H])c([H])c(F)c([H])c8F)c([H])c7[H])c(C(=O)N([H])[H])c6N([H])[H])C5([H])[H])C3([H])C4([H])[H])c([H])c([H])c2C1([H])[H]

$$$$
92:0:0
     RDKit          3D

 94103  0  0  1  0  0  0  0  0999 V2000
  -31.6580  -20.1290   23.0740 C   0  0  0  0  0  2  0  0  0  0  0  0
  -30.2860  -20.6410   23.5300 C   0  0  0  0  0  2  0  0  0  0  0  0
  -31.6250  -20.1590   21.5450 C   0  0  0  0  0  2  0  0  0  0  0  0
  -29.2820  -22.1790   21.7480 C   0  0  0  0  0  2  0  0  0  0  0  0
  -29.7500  -20.6900   19.8570 C   0  0  0  0  0  2  0  0  0  0  0  0
  -29.4200  -20.7300   22.2600 C   0  0  0  0  0  3  0  0  0  0  0  0
  -29.1210  -22.0800   20.2270 C   0  0  0  0  0  3  0  0  0  0  0  0
  -30.1470  -19.9220   21.1590 C   0  0  2  0  0  0  0  0  0  0  0  0
  -29.7110  -23.2470   19.4900 N   0  0  0  0  0  4  0  0  0  0  0  0
  -29.8810  -22.8970   18.5600 H   0  0  0  0  0  0  0  0  0  0  0  0
  -30.6200  -23.4790   19.8620 H   0  0  0  0  0  0  0  0  0  0  0  0
  -28.8940  -24.4930   19.2690 C   0  0  0  0  0  2  0  0  0  0  0  0
  -28.8920  -25.5530   20.4180 C   0  0  0  0  0  2  0  0  0  0  0  0
  -28.8580  -26.9420   19.9930 O   0  0  0  0  0  0  0  0  0  0  0  0
  -24.6140  -31.7060   23.2320 C   0  0  0  0  0  0  0  0  0  0  0  0
  -27.6460  -27.6100   20.0020 C   0  0  0  0  0  0  0  0  0  0  0  0
  -23.5700  -30.3620   21.4400 C   0  0  0  0  0  3  0  0  0  0  0  0
  -25.1730  -29.0030   19.9910 C   0  0  0  0  0  0  0  0  0  0  0  0
  -26.0770  -30.8650   21.3920 C   0  0  0  0  0  2  0  0  0  0  0  0
  -26.2730  -29.5450   20.6660 C   0  0  0  0  0  0  0  0  0  0  0  0
  -27.5140  -28.8600   20.6600 C   0  0  0  0  0  3  0  0  0  0  0  0
  -26.5260  -27.0870   19.3230 C   0  0  0  0  0  3  0  0  0  0  0  0
  -25.2950  -27.7770   19.3130 C   0  0  0  0  0  3  0  0  0  0  0  0
  -23.8820  -29.7930   20.0300 C   0  0  0  0  0  2  0  0  0  0  0  0
  -24.7680  -30.9880   22.0830 N   0  0  0  0  0  0  0  0  0  0  0  0
  -23.4950  -31.8810   23.7330 O   0  0  0  0  0  0  0  0  0  0  0  0
  -22.9290  -29.2410   22.2930 C   0  0  0  0  0  0  0  0  0  0  0  0
  -21.6080  -29.0500   22.1400 N   0  0  0  0  0  0  0  0  0  0  0  0
  -23.6190  -28.5540   23.0500 O   0  0  0  0  0  0  0  0  0  0  0  0
  -21.1110  -29.6680   21.5120 H   0  0  0  0  0  0  0  0  0  0  0  0
  -18.2410  -27.7980   22.5430 C   0  0  0  0  0  0  0  0  0  0  0  0
  -20.8020  -28.0290   22.8060 C   0  0  0  0  0  3  0  0  0  0  0  0
  -20.8970  -26.6730   22.0680 C   0  0  0  0  0  2  0  0  0  0  0  0
  -19.7810  -26.4700   21.0390 C   0  0  0  0  0  2  0  0  0  0  0  0
  -18.4090  -26.5370   21.7130 C   0  0  0  0  0  2  0  0  0  0  0  0
  -19.3650  -28.5080   23.0420 C   0  0  0  0  0  0  0  0  0  0  0  0
  -19.1570  -29.6940   23.7770 C   0  0  0  0  0  3  0  0  0  0  0  0
  -17.8560  -30.1730   24.0170 C   0  0  0  0  0  3  0  0  0  0  0  0
  -16.7450  -29.4570   23.5360 C   0  0  0  0  0  3  0  0  0  0  0  0
  -16.9390  -28.2720   22.8040 C   0  0  0  0  0  3  0  0  0  0  0  0
  -25.8310  -32.3590   23.9590 C   0  0  0  0  0  3  0  0  0  0  0  0
  -25.4610  -33.7430   24.2880 N   0  0  0  0  0  0  0  0  0  0  0  0
  -25.8210  -34.8150   23.5700 C   0  0  0  0  0  0  0  0  0  0  0  0
  -26.5680  -34.7460   22.5900 O   0  0  0  0  0  0  0  0  0  0  0  0
  -24.8050  -33.8670   25.0450 H   0  0  0  0  0  0  0  0  0  0  0  0
  -24.0720  -36.5620   23.1180 C   0  0  0  0  0  1  0  0  0  0  0  0
  -25.2640  -36.1810   24.0090 C   0  0  0  0  0  3  0  0  0  0  0  0
  -27.3130  -37.1100   24.9960 C   0  0  0  0  0  1  0  0  0  0  0  0
  -26.2710  -37.2640   23.9840 N   0  0  0  0  0  0  0  0  0  0  0  0
  -25.8300  -38.1690   24.1240 H   0  0  0  0  0  0  0  0  0  0  0  0
  -26.2700  -31.5760   25.2570 C   0  0  1  0  0  0  0  0  0  0  0  0
  -25.1080  -31.2910   26.2360 C   0  0  0  0  0  1  0  0  0  0  0  0
  -26.9150  -30.2220   24.8810 C   0  0  0  0  0  1  0  0  0  0  0  0
  -27.3480  -32.3860   26.0160 C   0  0  0  0  0  1  0  0  0  0  0  0
  -29.7470  -18.3780   21.2020 C   0  0  0  0  0  3  0  0  0  0  0  0
  -30.7810  -17.2880   20.7280 C   0  0  0  0  0  3  0  0  0  0  0  0
  -31.0370  -14.7900   20.3790 C   0  0  0  0  0  0  0  0  0  0  0  0
  -30.7770  -12.5590   19.3280 C   0  0  0  0  0  2  0  0  0  0  0  0
  -29.8490  -12.6770   18.1000 C   0  0  0  0  0  2  0  0  0  0  0  0
  -28.3720  -12.5410   18.5160 C   0  0  0  0  0  2  0  0  0  0  0  0
  -28.0100  -13.4360   19.7310 C   0  0  0  0  0  3  0  0  0  0  0  0
  -29.0520  -13.2980   20.8640 C   0  0  0  0  0  2  0  0  0  0  0  0
  -30.3740  -13.5970   20.2960 N   0  0  0  0  0  0  0  0  0  0  0  0
  -32.1770  -14.9320   19.9330 O   0  0  0  0  0  0  0  0  0  0  0  0
  -30.3280  -15.8670   20.8130 N   0  0  0  0  0  0  0  0  0  0  0  0
  -29.3880  -15.6910   21.1350 H   0  0  0  0  0  0  0  0  0  0  0  0
  -25.6240  -14.0690   20.4500 C   0  0  0  0  0  0  0  0  0  0  0  0
  -24.5460  -13.3090   20.8110 C   0  0  0  0  0  0  0  0  0  0  0  0
  -24.9860  -11.9510   20.7660 C   0  0  0  0  0  0  0  0  0  0  0  0
  -26.6550  -13.1750   20.2090 N   0  0  0  0  0  0  0  0  0  0  0  0
  -26.2760  -11.8950   20.4570 N   0  0  0  0  0  0  0  0  0  0  0  0
  -24.2400  -10.6990   20.9430 C   0  0  0  0  0  0  0  0  0  0  0  0
  -24.6090   -9.7490   21.9210 C   0  0  0  0  0  3  0  0  0  0  0  0
  -23.8630   -8.5610   22.0820 C   0  0  0  0  0  3  0  0  0  0  0  0
  -22.7350   -8.3160   21.2640 C   0  0  0  0  0  0  0  0  0  0  0  0
  -22.3870   -9.2530   20.2760 C   0  0  0  0  0  3  0  0  0  0  0  0
  -23.1340  -10.4330   20.1130 C   0  0  0  0  0  3  0  0  0  0  0  0
  -21.9650   -7.1790   21.3330 O   0  0  0  0  0  0  0  0  0  0  0  0
  -21.7780   -6.5070   22.5150 C   0  0  0  0  0  0  0  0  0  0  0  0
  -21.1900   -7.1260   23.6400 C   0  0  0  0  0  3  0  0  0  0  0  0
  -20.9520   -6.3790   24.8110 C   0  0  0  0  0  3  0  0  0  0  0  0
  -21.2940   -5.0130   24.8560 C   0  0  0  0  0  0  0  0  0  0  0  0
  -21.8750   -4.3940   23.7340 C   0  0  0  0  0  3  0  0  0  0  0  0
  -22.1130   -5.1390   22.5660 C   0  0  0  0  0  0  0  0  0  0  0  0
  -22.6530   -4.5320   21.4820 F   0  0  0  0  0  0  0  0  0  0  0  0
  -21.0590   -4.2920   25.9770 F   0  0  0  0  0  0  0  0  0  0  0  0
  -23.1560  -13.8060   21.0870 C   0  0  0  0  0  0  0  0  0  0  0  0
  -22.4210  -13.1240   21.9580 N   0  0  0  0  0  0  0  0  0  0  0  0
  -22.7290  -14.8360   20.5630 O   0  0  0  0  0  0  0  0  0  0  0  0
  -22.7780  -12.2900   22.4020 H   0  0  0  0  0  0  0  0  0  0  0  0
  -21.4900  -13.4430   22.1870 H   0  0  0  0  0  0  0  0  0  0  0  0
  -25.8090  -15.4390   20.2850 N   0  0  0  0  0  0  0  0  0  0  0  0
  -25.0480  -16.0980   20.3960 H   0  0  0  0  0  0  0  0  0  0  0  0
  -26.6600  -15.8710   19.9490 H   0  0  0  0  0  0  0  0  0  0  0  0
  1  2  1  0
  3  1  1  0
  5  7  1  0
  5  8  1  0
  6  4  1  0
  6  2  1  0
  7  9  1  0
  7  4  1  0
  8 55  1  6
  8  3  1  0
  8  6  1  0
  9 11  1  0
 10  9  1  0
 12  9  1  0
 12 13  1  0
 14 16  1  0
 14 13  1  0
 15 26  2  0
 16 21  1  0
 17 25  1  0
 17 27  1  0
 18 24  1  0
 18 20  1  0
 19 25  1  0
 20 19  1  0
 21 20  2  0
 22 16  2  0
 23 22  1  0
 23 18  2  0
 24 17  1  0
 25 15  1  0
 27 29  2  0
 28 27  1  0
 30 28  1  0
 31 40  2  0
 31 36  1  0
 32 28  1  0
 32 36  1  0
 33 32  1  0
 34 35  1  0
 34 33  1  0
 35 31  1  0
 36 37  2  0
 37 38  1  0
 39 38  2  0
 40 39  1  0
 41 15  1  0
 41 42  1  0
 41 51  1  0
 42 45  1  0
 43 47  1  0
 43 42  1  0
 44 43  2  0
 47 46  1  0
 49 47  1  0
 49 50  1  0
 49 48  1  0
 51 54  1  1
 51 52  1  0
 53 51  1  0
 56 65  1  0
 56 55  2  0
 57 65  1  0
 58 63  1  0
 59 60  1  0
 59 58  1  0
 61 60  1  0
 61 70  1  0
 61 62  1  0
 63 57  1  0
 63 62  1  0
 64 57  2  0
 65 66  1  0
 67 68  2  0
 68 87  1  0
 69 68  1  0
 69 72  1  0
 70 67  1  0
 70 71  1  0
 71 69  2  0
 72 73  1  0
 73 74  2  0
 75 78  1  0
 75 74  1  0
 76 75  2  0
 77 76  1  0
 77 72  2  0
 78 79  1  0
 79 84  2  0
 79 80  1  0
 80 81  2  0
 81 82  1  0
 82 86  1  0
 83 82  2  0
 84 83  1  0
 85 84  1  0
 87 88  1  0
 88 91  1  0
 88 90  1  0
 89 87  2  0
 92 93  1  0
 92 67  1  0
 94 92  1  0
M  ISO  4  13 101  14 101  57 100  65 100
M  END
>  <TORSDO>  (93) 
F 21

>  <SCORE>  (93) 
-12.397

>  <name>  (93) 
92

>  <ligand_id>  (93) 
92

>  <original_smiles>  (93) 
[H]c1c([H])c([H])c2c(c1[H])C([H])([H])C([H])([H])C([H])([H])C2([H])N([H])C(=O)C1([H])N(C(=O)C([H])(N([H])C(=O)C([H])(N([H])C([H])([H])[H])C([H])([H])[H])C(C([H])([H])[H])(C([H])([H])[H])C([H])([H])[H])C([H])([H])c2c([H])c(OC([H])([H])C([H])([H])[N+]([H])([H])C3([H])C([H])([H])C4([H])C([H])([H])C([H])([H])C([H])([H])C4(C([H])([H])C([H])([H])N([H])C(=O)N4C([H])([H])C([H])([H])C([H])([H])C([H])(n5nc(-c6c([H])c([H])c(Oc7c([H])c([H])c(F)c([H])c7F)c([H])c6[H])c(C(=O)N([H])[H])c5N([H])[H])C4([H])[H])C3([H])[H])c([H])c([H])c2C1([H])[H]

>  <smiles>  (93) 
[H]c1c([H])c([H])c2c(c1[H])C([H])([H])C([H])([H])C([H])([H])C2([H])N([H])C(=O)C1([H])N(C(=O)C([H])(N([H])C(=O)C([H])(N([H])C([H])([H])[H])C([H])([H])[H])C(C([H])([H])[H])(C([H])([H])[H])C([H])([H])[H])C([H])([H])c2c([H])c(OC([H])([H])C([H])([H])[N+]([H])([H])C3([H])C([H])([H])C4([H])C([H])([H])C([H])([H])C([H])([H])C4(C([H])([H])C([H])([H])N([H])C(=O)N4C([H])([H])C([H])([H])C([H])([H])C([H])(n5nc(-c6c([H])c([H])c(Oc7c([H])c([H])c(F)c([H])c7F)c([H])c6[H])c(C(=O)N([H])[H])c5N([H])[H])C4([H])[H])C3([H])[H])c([H])c([H])c2C1([H])[H]

$$$$
93:0:0
     RDKit          3D

 90 99  0  0  1  0  0  0  0  0999 V2000
  -30.1150  -19.7210   19.3430 C   0  0  0  0  0  3  0  0  0  0  0  0
  -30.4340  -18.2990   19.3380 C   0  0  0  0  0  3  0  0  0  0  0  0
  -28.1000  -19.2500   20.4710 C   0  0  0  0  0  3  0  0  0  0  0  0
  -28.9220  -20.2810   19.9130 C   0  0  0  0  0  0  0  0  0  0  0  0
  -28.3920  -17.8400   20.4720 C   0  0  0  0  0  0  0  0  0  0  0  0
  -29.5870  -17.2820   19.9050 C   0  0  0  0  0  0  0  0  0  0  0  0
  -27.3420  -16.9380   21.1200 C   0  0  0  0  0  1  0  0  0  0  0  0
  -30.5070  -14.7830   19.2650 C   0  0  0  0  0  0  0  0  0  0  0  0
  -30.2330  -12.5230   18.1670 C   0  0  0  0  0  2  0  0  0  0  0  0
  -29.0640  -12.5770   17.1510 C   0  0  0  0  0  2  0  0  0  0  0  0
  -27.7000  -12.3800   17.8420 C   0  0  0  0  0  2  0  0  0  0  0  0
  -27.5590  -13.2190   19.1380 C   0  0  0  0  0  3  0  0  0  0  0  0
  -28.8050  -13.0530   20.0340 C   0  0  0  0  0  2  0  0  0  0  0  0
  -29.9640  -13.5070   19.2500 N   0  0  0  0  0  0  0  0  0  0  0  0
  -31.5640  -14.9960   18.6580 O   0  0  0  0  0  0  0  0  0  0  0  0
  -29.7560  -15.7780   19.8960 N   0  0  0  0  0  0  0  0  0  0  0  0
  -29.0630  -15.3300   20.4750 H   0  0  0  0  0  0  0  0  0  0  0  0
  -25.3760  -13.7900   20.3640 C   0  0  0  0  0  0  0  0  0  0  0  0
  -24.3710  -13.0050   20.8620 C   0  0  0  0  0  0  0  0  0  0  0  0
  -24.7640  -11.6530   20.6130 C   0  0  0  0  0  0  0  0  0  0  0  0
  -26.3200  -12.9150   19.8510 N   0  0  0  0  0  0  0  0  0  0  0  0
  -25.9680  -11.6200   20.0560 N   0  0  0  0  0  0  0  0  0  0  0  0
  -24.0390  -10.3930   20.8190 C   0  0  0  0  0  0  0  0  0  0  0  0
  -24.5100   -9.4050   21.7110 C   0  0  0  0  0  3  0  0  0  0  0  0
  -23.7850   -8.2100   21.9050 C   0  0  0  0  0  3  0  0  0  0  0  0
  -22.5730   -7.9930   21.2070 C   0  0  0  0  0  0  0  0  0  0  0  0
  -22.1210   -8.9680   20.3010 C   0  0  0  0  0  3  0  0  0  0  0  0
  -22.8470  -10.1570   20.1050 C   0  0  0  0  0  3  0  0  0  0  0  0
  -21.8140   -6.8550   21.3150 O   0  0  0  0  0  0  0  0  0  0  0  0
  -21.6750   -6.1930   22.5100 C   0  0  0  0  0  0  0  0  0  0  0  0
  -21.1240   -6.8200   23.6480 C   0  0  0  0  0  3  0  0  0  0  0  0
  -20.9340   -6.0840   24.8360 C   0  0  0  0  0  3  0  0  0  0  0  0
  -21.2870   -4.7210   24.8840 C   0  0  0  0  0  0  0  0  0  0  0  0
  -21.8290   -4.0950   23.7470 C   0  0  0  0  0  3  0  0  0  0  0  0
  -22.0200   -4.8280   22.5650 C   0  0  0  0  0  0  0  0  0  0  0  0
  -22.5240   -4.2120   21.4670 F   0  0  0  0  0  0  0  0  0  0  0  0
  -21.0980   -4.0120   26.0200 F   0  0  0  0  0  0  0  0  0  0  0  0
  -23.0730  -13.4820   21.4460 C   0  0  0  0  0  0  0  0  0  0  0  0
  -22.5060  -12.7250   22.3780 N   0  0  0  0  0  0  0  0  0  0  0  0
  -22.5740  -14.5530   21.1080 O   0  0  0  0  0  0  0  0  0  0  0  0
  -22.9220  -11.8530   22.6720 H   0  0  0  0  0  0  0  0  0  0  0  0
  -21.6440  -13.0260   22.8120 H   0  0  0  0  0  0  0  0  0  0  0  0
  -25.5600  -15.1690   20.2850 N   0  0  0  0  0  0  0  0  0  0  0  0
  -24.8610  -15.8300   20.6080 H   0  0  0  0  0  0  0  0  0  0  0  0
  -26.3290  -15.6170   19.8020 H   0  0  0  0  0  0  0  0  0  0  0  0
  -27.9380  -22.4260   18.6440 C   0  0  0  0  0  2  0  0  0  0  0  0
  -28.3670  -21.8160   19.9580 C   0  0  0  0  0  3  0  0  0  0  0  0
  -28.7710  -23.3490   19.5130 C   0  0  0  0  0  3  0  0  0  0  0  0
  -28.0730  -24.7410   20.0470 C   0  0  0  0  0  2  0  0  0  0  0  0
  -28.2640  -26.1890   19.5720 O   0  0  0  0  0  0  0  0  0  0  0  0
  -24.5100  -31.5550   22.8770 C   0  0  0  0  0  0  0  0  0  0  0  0
  -27.1740  -27.1090   19.6040 C   0  0  0  0  0  0  0  0  0  0  0  0
  -23.3320  -30.2210   21.1700 C   0  0  0  0  0  3  0  0  0  0  0  0
  -24.8010  -28.7550   19.6640 C   0  0  0  0  0  0  0  0  0  0  0  0
  -25.8720  -30.5700   20.9970 C   0  0  0  0  0  2  0  0  0  0  0  0
  -25.9730  -29.2140   20.2820 C   0  0  0  0  0  0  0  0  0  0  0  0
  -27.1640  -28.4120   20.2350 C   0  0  0  0  0  3  0  0  0  0  0  0
  -25.9810  -26.7350   18.9510 C   0  0  0  0  0  3  0  0  0  0  0  0
  -24.8140  -27.5270   18.9820 C   0  0  0  0  0  3  0  0  0  0  0  0
  -23.5540  -29.6210   19.7570 C   0  0  0  0  0  2  0  0  0  0  0  0
  -24.5900  -30.8040   21.7330 N   0  0  0  0  0  0  0  0  0  0  0  0
  -23.4220  -31.7830   23.4240 O   0  0  0  0  0  0  0  0  0  0  0  0
  -22.6830  -29.1470   22.0810 C   0  0  0  0  0  0  0  0  0  0  0  0
  -21.3510  -28.9830   21.9890 N   0  0  0  0  0  0  0  0  0  0  0  0
  -23.3820  -28.4660   22.8360 O   0  0  0  0  0  0  0  0  0  0  0  0
  -20.8380  -29.5810   21.3550 H   0  0  0  0  0  0  0  0  0  0  0  0
  -17.9800  -27.8170   22.5940 C   0  0  0  0  0  0  0  0  0  0  0  0
  -20.5590  -27.9970   22.7250 C   0  0  0  0  0  3  0  0  0  0  0  0
  -20.5880  -26.6220   22.0170 C   0  0  0  0  0  2  0  0  0  0  0  0
  -19.4180  -26.4180   21.0480 C   0  0  0  0  0  2  0  0  0  0  0  0
  -18.0800  -26.5330   21.7870 C   0  0  0  0  0  2  0  0  0  0  0  0
  -19.1440  -28.5110   23.0220 C   0  0  0  0  0  0  0  0  0  0  0  0
  -18.9910  -29.7190   23.7380 C   0  0  0  0  0  3  0  0  0  0  0  0
  -17.7140  -30.2290   24.0290 C   0  0  0  0  0  3  0  0  0  0  0  0
  -16.5670  -29.5280   23.6170 C   0  0  0  0  0  3  0  0  0  0  0  0
  -16.7010  -28.3240   22.9040 C   0  0  0  0  0  3  0  0  0  0  0  0
  -25.7800  -32.1840   23.5300 C   0  0  0  0  0  3  0  0  0  0  0  0
  -25.4260  -33.5390   23.9830 N   0  0  0  0  0  0  0  0  0  0  0  0
  -25.7040  -34.6620   23.3100 C   0  0  0  0  0  0  0  0  0  0  0  0
  -26.3460  -34.6710   22.2570 O   0  0  0  0  0  0  0  0  0  0  0  0
  -24.8530  -33.6040   24.8110 H   0  0  0  0  0  0  0  0  0  0  0  0
  -23.8930  -36.4030   23.1620 C   0  0  0  0  0  1  0  0  0  0  0  0
  -25.1790  -35.9910   23.8960 C   0  0  0  0  0  3  0  0  0  0  0  0
  -27.3030  -36.8970   24.7320 C   0  0  0  0  0  1  0  0  0  0  0  0
  -26.1650  -37.0910   23.8360 N   0  0  0  0  0  0  0  0  0  0  0  0
  -25.7280  -37.9780   24.0700 H   0  0  0  0  0  0  0  0  0  0  0  0
  -26.3500  -31.3330   24.7300 C   0  0  1  0  0  0  0  0  0  0  0  0
  -25.2860  -30.9780   25.7950 C   0  0  0  0  0  1  0  0  0  0  0  0
  -26.9690  -30.0140   24.2190 C   0  0  0  0  0  1  0  0  0  0  0  0
  -27.4870  -32.1120   25.4310 C   0  0  0  0  0  1  0  0  0  0  0  0
  1  4  1  0
  2  1  2  0
  2  6  1  0
  3  5  1  0
  4  3  2  0
  5  7  1  0
  6  5  2  0
  8 16  1  0
  9 14  1  0
 10 11  1  0
 10  9  1  0
 12 11  1  0
 12 21  1  0
 12 13  1  0
 14  8  1  0
 14 13  1  0
 15  8  2  0
 16  6  1  0
 16 17  1  0
 18 19  2  0
 19 38  1  0
 20 23  1  0
 20 19  1  0
 21 22  1  0
 21 18  1  0
 22 20  2  0
 23 24  1  0
 24 25  2  0
 26 29  1  0
 26 25  1  0
 27 26  2  0
 28 27  1  0
 28 23  2  0
 29 30  1  0
 30 35  2  0
 30 31  1  0
 31 32  2  0
 32 33  1  0
 33 37  1  0
 34 33  2  0
 35 34  1  0
 36 35  1  0
 38 39  1  0
 39 41  1  0
 39 42  1  0
 40 38  2  0
 43 18  1  0
 43 44  1  0
 45 43  1  0
 46 48  1  0
 46 47  1  0
 47  4  1  0
 48 47  1  0
 48 49  1  0
 50 52  1  0
 50 49  1  0
 51 62  2  0
 52 57  1  0
 53 61  1  0
 53 63  1  0
 54 60  1  0
 54 56  1  0
 55 61  1  0
 56 55  1  0
 57 56  2  0
 58 59  1  0
 58 52  2  0
 59 54  2  0
 60 53  1  0
 61 51  1  0
 63 65  2  0
 64 63  1  0
 66 64  1  0
 67 76  2  0
 67 72  1  0
 68 64  1  0
 68 72  1  0
 69 68  1  0
 70 71  1  0
 70 69  1  0
 71 67  1  0
 72 73  2  0
 73 74  1  0
 75 74  2  0
 76 75  1  0
 77 51  1  0
 77 78  1  0
 77 87  1  0
 78 81  1  0
 79 83  1  0
 79 78  1  0
 80 79  2  0
 83 82  1  0
 85 83  1  0
 85 86  1  0
 85 84  1  0
 87 90  1  1
 87 88  1  0
 89 87  1  0
M  ISO  4   8 100  16 100  49 101  50 101
M  END
>  <TORSDO>  (94) 
F 18

>  <SCORE>  (94) 
-11.186

>  <name>  (94) 
93

>  <ligand_id>  (94) 
93

>  <original_smiles>  (94) 
[H]c1c([H])c([H])c2c(c1[H])C([H])([H])C([H])([H])C([H])([H])C2([H])N([H])C(=O)C1([H])N(C(=O)C([H])(N([H])C(=O)C([H])(N([H])C([H])([H])[H])C([H])([H])[H])C(C([H])([H])[H])(C([H])([H])[H])C([H])([H])[H])C([H])([H])c2c([H])c(OC([H])([H])C3([H])C([H])([H])C3([H])c3c([H])c([H])c(N([H])C(=O)N4C([H])([H])C([H])([H])C([H])([H])C([H])(n5nc(-c6c([H])c([H])c(Oc7c([H])c([H])c(F)c([H])c7F)c([H])c6[H])c(C(=O)N([H])[H])c5N([H])[H])C4([H])[H])c(C([H])([H])[H])c3[H])c([H])c([H])c2C1([H])[H]

>  <smiles>  (94) 
[H]c1c([H])c([H])c2c(c1[H])C([H])([H])C([H])([H])C([H])([H])C2([H])N([H])C(=O)C1([H])N(C(=O)C([H])(N([H])C(=O)C([H])(N([H])C([H])([H])[H])C([H])([H])[H])C(C([H])([H])[H])(C([H])([H])[H])C([H])([H])[H])C([H])([H])c2c([H])c(OC([H])([H])C3([H])C([H])([H])C3([H])c3c([H])c([H])c(N([H])C(=O)N4C([H])([H])C([H])([H])C([H])([H])C([H])(n5nc(-c6c([H])c([H])c(Oc7c([H])c([H])c(F)c([H])c7F)c([H])c6[H])c(C(=O)N([H])[H])c5N([H])[H])C4([H])[H])c(C([H])([H])[H])c3[H])c([H])c([H])c2C1([H])[H]

$$$$
94:0:0
     RDKit          3D

 92100  0  0  1  0  0  0  0  0999 V2000
  -27.7160  -21.7870   19.5830 C   0  0  0  0  0  2  0  0  0  0  0  0
  -29.9720  -22.4070   20.5130 C   0  0  0  0  0  2  0  0  0  0  0  0
  -27.8610  -20.3680   20.1810 C   0  0  0  0  0  2  0  0  0  0  0  0
  -30.1290  -20.9750   21.0810 C   0  0  0  0  0  2  0  0  0  0  0  0
  -28.4970  -22.8500   20.3830 C   0  0  0  0  0  3  0  0  0  0  0  0
  -29.3290  -19.9010   20.2990 C   0  0  2  0  0  0  0  0  0  0  0  0
  -29.8490  -19.8090   18.9860 O   0  0  0  0  0  0  0  0  0  0  0  0
  -29.7680  -20.6690   18.5910 H   0  0  0  0  0  0  0  0  0  0  0  0
  -28.3500  -24.2610   19.7470 C   0  0  0  0  0  2  0  0  0  0  0  0
  -28.4020  -25.4280   20.7610 C   0  0  0  0  0  2  0  0  0  0  0  0
  -28.4300  -26.7260   20.1490 O   0  0  0  0  0  0  0  0  0  0  0  0
  -24.6120  -31.8880   23.2380 C   0  0  0  0  0  0  0  0  0  0  0  0
  -27.2520  -27.4400   20.1710 C   0  0  0  0  0  0  0  0  0  0  0  0
  -23.4030  -30.4820   21.6000 C   0  0  0  0  0  3  0  0  0  0  0  0
  -24.8530  -28.9360   20.1830 C   0  0  0  0  0  0  0  0  0  0  0  0
  -25.9260  -30.8410   21.3970 C   0  0  0  0  0  2  0  0  0  0  0  0
  -26.0120  -29.4670   20.7620 C   0  0  0  0  0  0  0  0  0  0  0  0
  -27.2160  -28.7290   20.7470 C   0  0  0  0  0  3  0  0  0  0  0  0
  -26.0770  -26.9160   19.5930 C   0  0  0  0  0  3  0  0  0  0  0  0
  -24.8790  -27.6570   19.5970 C   0  0  0  0  0  3  0  0  0  0  0  0
  -23.6090  -29.7940   20.2250 C   0  0  0  0  0  2  0  0  0  0  0  0
  -24.6650  -31.0850   22.1370 N   0  0  0  0  0  0  0  0  0  0  0  0
  -23.5310  -32.1620   23.7780 O   0  0  0  0  0  0  0  0  0  0  0  0
  -22.7510  -29.4650   22.5650 C   0  0  0  0  0  0  0  0  0  0  0  0
  -21.4250  -29.2890   22.4430 N   0  0  0  0  0  0  0  0  0  0  0  0
  -23.4350  -28.8380   23.3790 O   0  0  0  0  0  0  0  0  0  0  0  0
  -20.9360  -29.8470   21.7580 H   0  0  0  0  0  0  0  0  0  0  0  0
  -18.0480  -28.1140   22.9570 C   0  0  0  0  0  0  0  0  0  0  0  0
  -20.6070  -28.3540   23.2160 C   0  0  0  0  0  3  0  0  0  0  0  0
  -20.6980  -26.9240   22.6370 C   0  0  0  0  0  2  0  0  0  0  0  0
  -19.5890  -26.6100   21.6280 C   0  0  0  0  0  2  0  0  0  0  0  0
  -18.2110  -26.7660   22.2770 C   0  0  0  0  0  2  0  0  0  0  0  0
  -19.1730  -28.8680   23.3820 C   0  0  0  0  0  0  0  0  0  0  0  0
  -18.9670  -30.1340   23.9740 C   0  0  0  0  0  3  0  0  0  0  0  0
  -17.6670  -30.6440   24.1480 C   0  0  0  0  0  3  0  0  0  0  0  0
  -16.5550  -29.8850   23.7410 C   0  0  0  0  0  3  0  0  0  0  0  0
  -16.7460  -28.6240   23.1500 C   0  0  0  0  0  3  0  0  0  0  0  0
  -25.8990  -32.5210   23.8550 C   0  0  0  0  0  3  0  0  0  0  0  0
  -25.5890  -33.9160   24.1890 N   0  0  0  0  0  0  0  0  0  0  0  0
  -25.9150  -34.9710   23.4280 C   0  0  0  0  0  0  0  0  0  0  0  0
  -26.5800  -34.8700   22.3950 O   0  0  0  0  0  0  0  0  0  0  0  0
  -25.0050  -34.0710   24.9970 H   0  0  0  0  0  0  0  0  0  0  0  0
  -24.1820  -36.7580   23.0820 C   0  0  0  0  0  1  0  0  0  0  0  0
  -25.4260  -36.3560   23.8900 C   0  0  0  0  0  3  0  0  0  0  0  0
  -27.5630  -37.2410   24.7130 C   0  0  0  0  0  1  0  0  0  0  0  0
  -26.4560  -37.4120   23.7760 N   0  0  0  0  0  0  0  0  0  0  0  0
  -26.0480  -38.3310   23.9290 H   0  0  0  0  0  0  0  0  0  0  0  0
  -26.4240  -31.7460   25.1260 C   0  0  1  0  0  0  0  0  0  0  0  0
  -25.3380  -31.4980   26.1980 C   0  0  0  0  0  1  0  0  0  0  0  0
  -27.0120  -30.3740   24.7240 C   0  0  0  0  0  1  0  0  0  0  0  0
  -27.5760  -32.5410   25.7840 C   0  0  0  0  0  1  0  0  0  0  0  0
  -29.4100  -18.4790   20.9330 C   0  0  0  0  0  3  0  0  0  0  0  0
  -30.8030  -17.8020   20.8940 C   0  0  0  0  0  3  0  0  0  0  0  0
  -30.9440  -16.5050   21.7280 C   0  0  0  0  0  2  0  0  0  0  0  0
  -30.7990  -14.4330   20.3250 C   0  0  0  0  0  0  0  0  0  0  0  0
  -30.4040  -12.3380   19.0700 C   0  0  0  0  0  2  0  0  0  0  0  0
  -29.4250  -12.5780   17.9030 C   0  0  0  0  0  2  0  0  0  0  0  0
  -27.9650  -12.4510   18.3770 C   0  0  0  0  0  2  0  0  0  0  0  0
  -27.6820  -13.2720   19.6630 C   0  0  0  0  0  3  0  0  0  0  0  0
  -28.7610  -12.9970   20.7330 C   0  0  0  0  0  2  0  0  0  0  0  0
  -30.0760  -13.2950   20.1380 N   0  0  0  0  0  0  0  0  0  0  0  0
  -31.8660  -14.6530   19.7440 O   0  0  0  0  0  0  0  0  0  0  0  0
  -30.2670  -15.3260   21.1770 N   0  0  0  0  0  0  0  0  0  0  0  0
  -29.3730  -15.0820   21.5770 H   0  0  0  0  0  0  0  0  0  0  0  0
  -25.3110  -13.9130   20.4310 C   0  0  0  0  0  0  0  0  0  0  0  0
  -24.2410  -13.1550   20.8260 C   0  0  0  0  0  0  0  0  0  0  0  0
  -24.6830  -11.7970   20.7810 C   0  0  0  0  0  0  0  0  0  0  0  0
  -26.3380  -13.0160   20.1750 N   0  0  0  0  0  0  0  0  0  0  0  0
  -25.9640  -11.7390   20.4400 N   0  0  0  0  0  0  0  0  0  0  0  0
  -23.9440  -10.5440   20.9870 C   0  0  0  0  0  0  0  0  0  0  0  0
  -24.3880   -9.5690   21.9080 C   0  0  0  0  0  3  0  0  0  0  0  0
  -23.6510   -8.3800   22.1010 C   0  0  0  0  0  3  0  0  0  0  0  0
  -22.4570   -8.1600   21.3740 C   0  0  0  0  0  0  0  0  0  0  0  0
  -22.0330   -9.1230   20.4430 C   0  0  0  0  0  3  0  0  0  0  0  0
  -22.7700  -10.3030   20.2470 C   0  0  0  0  0  3  0  0  0  0  0  0
  -21.6890   -7.0250   21.4790 O   0  0  0  0  0  0  0  0  0  0  0  0
  -21.6590   -6.2800   22.6310 C   0  0  0  0  0  0  0  0  0  0  0  0
  -21.2740   -6.8380   23.8690 C   0  0  0  0  0  3  0  0  0  0  0  0
  -21.1900   -6.0210   25.0130 C   0  0  0  0  0  3  0  0  0  0  0  0
  -21.4790   -4.6470   24.9220 C   0  0  0  0  0  0  0  0  0  0  0  0
  -21.8560   -4.0880   23.6870 C   0  0  0  0  0  3  0  0  0  0  0  0
  -21.9430   -4.9020   22.5450 C   0  0  0  0  0  0  0  0  0  0  0  0
  -22.2860   -4.3550   21.3530 F   0  0  0  0  0  0  0  0  0  0  0  0
  -21.3910   -3.8590   26.0190 F   0  0  0  0  0  0  0  0  0  0  0  0
  -22.8590  -13.6500   21.1360 C   0  0  0  0  0  0  0  0  0  0  0  0
  -22.1440  -12.9600   22.0190 N   0  0  0  0  0  0  0  0  0  0  0  0
  -22.4210  -14.6830   20.6300 O   0  0  0  0  0  0  0  0  0  0  0  0
  -22.5110  -12.1240   22.4480 H   0  0  0  0  0  0  0  0  0  0  0  0
  -21.2170  -13.2740   22.2700 H   0  0  0  0  0  0  0  0  0  0  0  0
  -25.4910  -15.2810   20.2500 N   0  0  0  0  0  0  0  0  0  0  0  0
  -24.7380  -15.9490   20.3700 H   0  0  0  0  0  0  0  0  0  0  0  0
  -26.3430  -15.7050   19.9020 H   0  0  0  0  0  0  0  0  0  0  0  0
  1  3  1  0
  1  5  1  0
  2  4  1  0
  3  6  1  0
  5  9  1  0
  5  2  1  0
  6 52  1  0
  6  4  1  0
  6  7  1  6
  8  7  1  0
  9 10  1  0
 11 13  1  0
 11 10  1  0
 12 23  2  0
 13 18  1  0
 14 22  1  0
 14 24  1  0
 15 21  1  0
 15 17  1  0
 16 22  1  0
 17 16  1  0
 18 17  2  0
 19 20  1  0
 19 13  2  0
 20 15  2  0
 21 14  1  0
 22 12  1  0
 24 26  2  0
 25 24  1  0
 27 25  1  0
 28 37  2  0
 28 33  1  0
 29 25  1  0
 29 33  1  0
 30 29  1  0
 31 32  1  0
 31 30  1  0
 32 28  1  0
 33 34  2  0
 34 35  1  0
 36 35  2  0
 37 36  1  0
 38 12  1  0
 38 39  1  0
 38 48  1  0
 39 42  1  0
 40 44  1  0
 40 39  1  0
 41 40  2  0
 44 43  1  0
 46 44  1  0
 46 47  1  0
 46 45  1  0
 48 51  1  1
 48 49  1  0
 50 48  1  0
 53 52  2  0
 53 54  1  0
 55 63  1  0
 56 61  1  0
 57 58  1  0
 57 56  1  0
 59 58  1  0
 59 68  1  0
 59 60  1  0
 61 55  1  0
 61 60  1  0
 62 55  2  0
 63 64  1  0
 63 54  1  0
 65 66  2  0
 66 85  1  0
 67 66  1  0
 67 70  1  0
 68 65  1  0
 68 69  1  0
 69 67  2  0
 70 71  1  0
 71 72  2  0
 73 76  1  0
 73 72  1  0
 74 73  2  0
 75 74  1  0
 75 70  2  0
 76 77  1  0
 77 78  1  0
 78 79  2  0
 80 79  1  0
 80 84  1  0
 81 80  2  0
 82 77  2  0
 82 81  1  0
 83 82  1  0
 85 86  1  0
 86 89  1  0
 86 88  1  0
 87 85  2  0
 90 91  1  0
 90 65  1  0
 92 90  1  0
M  ISO  4  10 101  11 101  55 100  63 100
M  END
>  <TORSDO>  (95) 
F 22

>  <SCORE>  (95) 
-13.356

>  <name>  (95) 
94

>  <ligand_id>  (95) 
94

>  <original_smiles>  (95) 
[H]OC1(C([H])([H])C([H])([H])C([H])([H])N([H])C(=O)N2C([H])([H])C([H])([H])C([H])([H])C([H])(n3nc(-c4c([H])c([H])c(Oc5c([H])c([H])c(F)c([H])c5F)c([H])c4[H])c(C(=O)N([H])[H])c3N([H])[H])C2([H])[H])C([H])([H])C([H])([H])C([H])(C([H])([H])C([H])([H])Oc2c([H])c([H])c3c(c2[H])C([H])([H])N(C(=O)C([H])(N([H])C(=O)C([H])(N([H])C([H])([H])[H])C([H])([H])[H])C(C([H])([H])[H])(C([H])([H])[H])C([H])([H])[H])C([H])(C(=O)N([H])C2([H])c4c([H])c([H])c([H])c([H])c4C([H])([H])C([H])([H])C2([H])[H])C3([H])[H])C([H])([H])C1([H])[H]

>  <smiles>  (95) 
[H]OC1(C([H])([H])C([H])([H])C([H])([H])N([H])C(=O)N2C([H])([H])C([H])([H])C([H])([H])C([H])(n3nc(-c4c([H])c([H])c(Oc5c([H])c([H])c(F)c([H])c5F)c([H])c4[H])c(C(=O)N([H])[H])c3N([H])[H])C2([H])[H])C([H])([H])C([H])([H])C([H])(C([H])([H])C([H])([H])Oc2c([H])c([H])c3c(c2[H])C([H])([H])N(C(=O)C([H])(N([H])C(=O)C([H])(N([H])C([H])([H])[H])C([H])([H])[H])C(C([H])([H])[H])(C([H])([H])[H])C([H])([H])[H])C([H])(C(=O)N([H])C2([H])c4c([H])c([H])c([H])c([H])c4C([H])([H])C([H])([H])C2([H])[H])C3([H])[H])C([H])([H])C1([H])[H]

$$$$
95:0:0
     RDKit          3D

 91100  0  0  1  0  0  0  0  0999 V2000
  -31.1300  -19.9740   19.1290 C   0  0  0  0  0  3  0  0  0  0  0  0
  -31.1330  -18.5490   19.3790 C   0  0  0  0  0  3  0  0  0  0  0  0
  -29.0430  -18.7990   20.4840 C   0  0  0  0  0  3  0  0  0  0  0  0
  -29.0320  -20.2470   20.2340 C   0  0  0  0  0  0  0  0  0  0  0  0
  -30.0890  -20.8750   19.5320 C   0  0  0  0  0  0  0  0  0  0  0  0
  -30.0820  -17.8640   20.0610 C   0  0  0  0  0  0  0  0  0  0  0  0
  -27.9460  -21.1780   20.7290 C   0  0  0  0  0  0  0  0  0  0  0  0
  -30.1050  -22.4510   19.1910 C   0  0  0  0  0  2  0  0  0  0  0  0
  -27.7880  -22.6300   20.1310 C   0  0  0  0  0  2  0  0  0  0  0  0
  -29.0640  -23.5100   19.8660 C   0  0  0  0  0  3  0  0  0  0  0  0
  -27.1240  -20.8140   21.5750 O   0  0  0  0  0  0  0  0  0  0  0  0
  -30.8020  -15.2030   20.0240 C   0  0  0  0  0  0  0  0  0  0  0  0
  -30.6600  -12.8400   19.1230 C   0  0  0  0  0  2  0  0  0  0  0  0
  -29.7050  -12.8000   17.9070 C   0  0  0  0  0  2  0  0  0  0  0  0
  -28.2440  -12.6210   18.3620 C   0  0  0  0  0  2  0  0  0  0  0  0
  -27.8720  -13.5660   19.5330 C   0  0  0  0  0  3  0  0  0  0  0  0
  -28.9410  -13.5560   20.6470 C   0  0  0  0  0  2  0  0  0  0  0  0
  -30.2150  -13.9390   20.0250 N   0  0  0  0  0  0  0  0  0  0  0  0
  -31.9830  -15.2830   19.6670 O   0  0  0  0  0  0  0  0  0  0  0  0
  -30.0020  -16.3470   20.2880 N   0  0  0  0  0  0  0  0  0  0  0  0
  -29.1110  -16.0610   20.6650 H   0  0  0  0  0  0  0  0  0  0  0  0
  -25.5240  -14.2050   20.3320 C   0  0  0  0  0  0  0  0  0  0  0  0
  -24.4430  -13.4560   20.7070 C   0  0  0  0  0  0  0  0  0  0  0  0
  -24.8640  -12.0920   20.6340 C   0  0  0  0  0  0  0  0  0  0  0  0
  -26.5330  -13.3010   20.0490 N   0  0  0  0  0  0  0  0  0  0  0  0
  -26.1460  -12.0220   20.2960 N   0  0  0  0  0  0  0  0  0  0  0  0
  -24.1020  -10.8480   20.8100 C   0  0  0  0  0  0  0  0  0  0  0  0
  -24.5280   -9.8410   21.7020 C   0  0  0  0  0  3  0  0  0  0  0  0
  -23.7660   -8.6630   21.8700 C   0  0  0  0  0  3  0  0  0  0  0  0
  -22.5650   -8.4860   21.1420 C   0  0  0  0  0  0  0  0  0  0  0  0
  -22.1580   -9.4810   20.2380 C   0  0  0  0  0  3  0  0  0  0  0  0
  -22.9190  -10.6500   20.0690 C   0  0  0  0  0  3  0  0  0  0  0  0
  -21.7760   -7.3640   21.2200 O   0  0  0  0  0  0  0  0  0  0  0  0
  -21.7660   -6.5670   22.3360 C   0  0  0  0  0  0  0  0  0  0  0  0
  -21.4150   -7.0710   23.6070 C   0  0  0  0  0  3  0  0  0  0  0  0
  -21.3490   -6.2020   24.7150 C   0  0  0  0  0  3  0  0  0  0  0  0
  -21.6240   -4.8320   24.5530 C   0  0  0  0  0  0  0  0  0  0  0  0
  -21.9680   -4.3270   23.2870 C   0  0  0  0  0  3  0  0  0  0  0  0
  -22.0350   -5.1920   22.1810 C   0  0  0  0  0  0  0  0  0  0  0  0
  -22.3470   -4.6970   20.9590 F   0  0  0  0  0  0  0  0  0  0  0  0
  -21.5530   -3.9950   25.6160 F   0  0  0  0  0  0  0  0  0  0  0  0
  -23.0680  -13.9700   21.0170 C   0  0  0  0  0  0  0  0  0  0  0  0
  -22.3410  -13.2810   21.8900 N   0  0  0  0  0  0  0  0  0  0  0  0
  -22.6490  -15.0160   20.5230 O   0  0  0  0  0  0  0  0  0  0  0  0
  -22.6920  -12.4340   22.3110 H   0  0  0  0  0  0  0  0  0  0  0  0
  -21.4170  -13.6080   22.1430 H   0  0  0  0  0  0  0  0  0  0  0  0
  -25.7280  -15.5740   20.1800 N   0  0  0  0  0  0  0  0  0  0  0  0
  -24.9810  -16.2470   20.3190 H   0  0  0  0  0  0  0  0  0  0  0  0
  -26.5650  -15.9910   19.7950 H   0  0  0  0  0  0  0  0  0  0  0  0
  -28.7490  -24.9900   19.0970 C   0  0  0  0  0  2  0  0  0  0  0  0
  -28.6580  -26.4500   19.6410 O   0  0  0  0  0  0  0  0  0  0  0  0
  -24.5780  -31.6160   22.9240 C   0  0  0  0  0  0  0  0  0  0  0  0
  -27.5160  -27.3340   19.5860 C   0  0  0  0  0  0  0  0  0  0  0  0
  -23.4930  -30.2510   21.1830 C   0  0  0  0  0  3  0  0  0  0  0  0
  -25.0590  -28.8980   19.6590 C   0  0  0  0  0  0  0  0  0  0  0  0
  -26.0200  -30.7180   21.0580 C   0  0  0  0  0  2  0  0  0  0  0  0
  -26.1980  -29.3870   20.3100 C   0  0  0  0  0  0  0  0  0  0  0  0
  -27.4210  -28.6180   20.2610 C   0  0  0  0  0  3  0  0  0  0  0  0
  -26.3410  -26.9500   18.9000 C   0  0  0  0  0  3  0  0  0  0  0  0
  -25.1430  -27.6960   18.9420 C   0  0  0  0  0  3  0  0  0  0  0  0
  -23.7660  -29.6920   19.7610 C   0  0  0  0  0  2  0  0  0  0  0  0
  -24.7150  -30.8810   21.7790 N   0  0  0  0  0  0  0  0  0  0  0  0
  -23.4710  -31.7830   23.4590 O   0  0  0  0  0  0  0  0  0  0  0  0
  -22.8910  -29.1300   22.0680 C   0  0  0  0  0  0  0  0  0  0  0  0
  -21.5720  -28.8950   21.9450 N   0  0  0  0  0  0  0  0  0  0  0  0
  -23.6110  -28.4800   22.8290 O   0  0  0  0  0  0  0  0  0  0  0  0
  -21.0440  -29.4780   21.3100 H   0  0  0  0  0  0  0  0  0  0  0  0
  -18.2620  -27.5040   22.4320 C   0  0  0  0  0  0  0  0  0  0  0  0
  -20.8170  -27.8540   22.6460 C   0  0  0  0  0  3  0  0  0  0  0  0
  -20.9570  -26.4880   21.9340 C   0  0  0  0  0  2  0  0  0  0  0  0
  -19.8350  -26.2140   20.9280 C   0  0  0  0  0  2  0  0  0  0  0  0
  -18.4710  -26.2340   21.6240 C   0  0  0  0  0  2  0  0  0  0  0  0
  -19.3630  -28.2710   22.8990 C   0  0  0  0  0  0  0  0  0  0  0  0
  -19.1110  -29.4590   23.6190 C   0  0  0  0  0  3  0  0  0  0  0  0
  -17.7930  -29.8810   23.8760 C   0  0  0  0  0  3  0  0  0  0  0  0
  -16.7080  -29.1090   23.4250 C   0  0  0  0  0  3  0  0  0  0  0  0
  -16.9440  -27.9220   22.7080 C   0  0  0  0  0  3  0  0  0  0  0  0
  -25.8020  -32.3010   23.6030 C   0  0  0  0  0  3  0  0  0  0  0  0
  -25.3960  -33.6620   23.9910 N   0  0  0  0  0  0  0  0  0  0  0  0
  -25.6930  -34.7740   23.3050 C   0  0  0  0  0  0  0  0  0  0  0  0
  -26.4030  -34.7650   22.2950 O   0  0  0  0  0  0  0  0  0  0  0  0
  -24.7630  -33.7380   24.7730 H   0  0  0  0  0  0  0  0  0  0  0  0
  -23.8710  -36.4830   22.9900 C   0  0  0  0  0  1  0  0  0  0  0  0
  -25.1100  -36.1070   23.8180 C   0  0  0  0  0  3  0  0  0  0  0  0
  -27.1600  -37.0740   24.7630 C   0  0  0  0  0  1  0  0  0  0  0  0
  -26.0810  -37.2230   23.7900 N   0  0  0  0  0  0  0  0  0  0  0  0
  -25.6150  -38.1090   23.9680 H   0  0  0  0  0  0  0  0  0  0  0  0
  -26.3370  -31.5090   24.8600 C   0  0  1  0  0  0  0  0  0  0  0  0
  -25.2380  -31.1680   25.8940 C   0  0  0  0  0  1  0  0  0  0  0  0
  -27.0070  -30.1840   24.4320 C   0  0  0  0  0  1  0  0  0  0  0  0
  -27.4250  -32.3420   25.5780 C   0  0  0  0  0  1  0  0  0  0  0  0
  1  2  2  0
  1  5  1  0
  2  6  1  0
  4  3  1  0
  4  7  1  0
  5  4  2  0
  6 20  1  0
  6  3  2  0
  7 11  2  0
  8  5  1  0
  8 10  1  0
  9  7  1  0
 10 50  1  0
 10  9  1  0
 12 18  1  0
 12 20  1  0
 13 18  1  0
 14 15  1  0
 14 13  1  0
 16 15  1  0
 16 25  1  0
 16 17  1  0
 18 17  1  0
 19 12  2  0
 20 21  1  0
 22 23  2  0
 23 42  1  0
 24 23  1  0
 24 27  1  0
 25 26  1  0
 25 22  1  0
 26 24  2  0
 27 28  1  0
 28 29  2  0
 30 33  1  0
 30 29  1  0
 31 30  2  0
 32 31  1  0
 32 27  2  0
 33 34  1  0
 34 35  1  0
 35 36  2  0
 37 36  1  0
 37 41  1  0
 38 37  2  0
 39 34  2  0
 39 38  1  0
 40 39  1  0
 42 43  1  0
 43 46  1  0
 43 45  1  0
 44 42  2  0
 47 48  1  0
 47 22  1  0
 49 47  1  0
 50 51  1  0
 52 63  2  0
 53 51  1  0
 53 58  1  0
 54 62  1  0
 54 64  1  0
 55 61  1  0
 55 57  1  0
 56 62  1  0
 57 56  1  0
 58 57  2  0
 59 60  1  0
 59 53  2  0
 60 55  2  0
 61 54  1  0
 62 52  1  0
 64 66  2  0
 65 64  1  0
 67 65  1  0
 68 77  2  0
 68 73  1  0
 69 65  1  0
 69 73  1  0
 70 69  1  0
 71 72  1  0
 71 70  1  0
 72 68  1  0
 73 74  2  0
 74 75  1  0
 76 75  2  0
 77 76  1  0
 78 52  1  0
 78 79  1  0
 78 88  1  0
 79 82  1  0
 80 84  1  0
 80 79  1  0
 81 80  2  0
 84 83  1  0
 86 84  1  0
 86 87  1  0
 86 85  1  0
 88 91  1  1
 88 89  1  0
 90 88  1  0
M  ISO  4  12 100  20 100  50 101  51 101
M  END
>  <TORSDO>  (96) 
F 17

>  <SCORE>  (96) 
-13.011

>  <name>  (96) 
95

>  <ligand_id>  (96) 
95

>  <original_smiles>  (96) 
[H]c1c([H])c([H])c2c(c1[H])C([H])([H])C([H])([H])C([H])([H])C2([H])N([H])C(=O)C1([H])N(C(=O)C([H])(N([H])C(=O)C([H])(N([H])C([H])([H])[H])C([H])([H])[H])C(C([H])([H])[H])(C([H])([H])[H])C([H])([H])[H])C([H])([H])c2c([H])c(OC([H])([H])C3([H])C([H])([H])C(=O)c4c([H])c(N([H])C(=O)N5C([H])([H])C([H])([H])C([H])([H])C([H])(n6nc(-c7c([H])c([H])c(Oc8c([H])c([H])c(F)c([H])c8F)c([H])c7[H])c(C(=O)N([H])[H])c6N([H])[H])C5([H])[H])c([H])c([H])c4C3([H])[H])c([H])c([H])c2C1([H])[H]

>  <smiles>  (96) 
[H]c1c([H])c([H])c2c(c1[H])C([H])([H])C([H])([H])C([H])([H])C2([H])N([H])C(=O)C1([H])N(C(=O)C([H])(N([H])C(=O)C([H])(N([H])C([H])([H])[H])C([H])([H])[H])C(C([H])([H])[H])(C([H])([H])[H])C([H])([H])[H])C([H])([H])c2c([H])c(OC([H])([H])C3([H])C([H])([H])C(=O)c4c([H])c(N([H])C(=O)N5C([H])([H])C([H])([H])C([H])([H])C([H])(n6nc(-c7c([H])c([H])c(Oc8c([H])c([H])c(F)c([H])c8F)c([H])c7[H])c(C(=O)N([H])[H])c6N([H])[H])C5([H])[H])c([H])c([H])c4C3([H])[H])c([H])c([H])c2C1([H])[H]

$$$$
96:0:0
     RDKit          3D

 90 98  0  0  1  0  0  0  0  0999 V2000
  -29.2290  -21.0810   21.7400 C   0  0  0  0  0  2  0  0  0  0  0  0
  -28.6800  -20.0410   20.7650 C   0  0  0  0  0  2  0  0  0  0  0  0
  -30.2100  -21.4490   20.6280 C   0  0  0  0  0  3  0  0  0  0  0  0
  -30.1160  -19.8840   20.2050 C   0  0  0  0  0  3  0  0  0  0  0  0
  -29.7150  -22.6630   19.7180 C   0  0  0  0  0  2  0  0  0  0  0  0
  -29.7380  -24.1530   20.3090 C   0  0  0  0  0  3  0  0  0  0  0  0
  -28.7660  -25.2130   19.6270 C   0  0  0  0  0  3  0  0  0  0  0  0
  -28.8640  -26.6600   19.9440 O   0  0  0  0  0  0  0  0  0  0  0  0
  -24.7950  -31.6800   23.1580 C   0  0  0  0  0  0  0  0  0  0  0  0
  -27.6930  -27.4390   19.9050 C   0  0  0  0  0  0  0  0  0  0  0  0
  -23.6780  -30.2670   21.4690 C   0  0  0  0  0  3  0  0  0  0  0  0
  -25.2230  -28.8840   19.9720 C   0  0  0  0  0  0  0  0  0  0  0  0
  -26.1880  -30.7680   21.2870 C   0  0  0  0  0  2  0  0  0  0  0  0
  -26.3580  -29.4240   20.5870 C   0  0  0  0  0  0  0  0  0  0  0  0
  -27.5940  -28.7110   20.5490 C   0  0  0  0  0  3  0  0  0  0  0  0
  -26.5310  -26.9640   19.2490 C   0  0  0  0  0  3  0  0  0  0  0  0
  -25.3100  -27.6600   19.2940 C   0  0  0  0  0  3  0  0  0  0  0  0
  -23.9290  -29.6660   20.0620 C   0  0  0  0  0  2  0  0  0  0  0  0
  -24.9050  -30.9210   22.0290 N   0  0  0  0  0  0  0  0  0  0  0  0
  -23.6990  -31.8600   23.7080 O   0  0  0  0  0  0  0  0  0  0  0  0
  -23.0950  -29.1700   22.3900 C   0  0  0  0  0  0  0  0  0  0  0  0
  -21.7950  -28.8700   22.2240 N   0  0  0  0  0  0  0  0  0  0  0  0
  -23.8110  -28.5910   23.2110 O   0  0  0  0  0  0  0  0  0  0  0  0
  -21.2720  -29.3960   21.5380 H   0  0  0  0  0  0  0  0  0  0  0  0
  -18.5480  -27.3150   22.5740 C   0  0  0  0  0  0  0  0  0  0  0  0
  -21.0500  -27.8410   22.9530 C   0  0  0  0  0  3  0  0  0  0  0  0
  -21.3280  -26.4350   22.3730 C   0  0  0  0  0  2  0  0  0  0  0  0
  -20.3110  -26.0090   21.3120 C   0  0  0  0  0  2  0  0  0  0  0  0
  -18.8950  -25.9990   21.8970 C   0  0  0  0  0  2  0  0  0  0  0  0
  -19.5600  -28.1870   23.0550 C   0  0  0  0  0  0  0  0  0  0  0  0
  -19.1840  -29.4120   23.6450 C   0  0  0  0  0  3  0  0  0  0  0  0
  -17.8270  -29.7700   23.7620 C   0  0  0  0  0  3  0  0  0  0  0  0
  -16.8290  -28.8960   23.2980 C   0  0  0  0  0  3  0  0  0  0  0  0
  -17.1890  -27.6710   22.7090 C   0  0  0  0  0  3  0  0  0  0  0  0
  -26.0350  -32.3750   23.7990 C   0  0  0  0  0  3  0  0  0  0  0  0
  -25.6420  -33.7470   24.1520 N   0  0  0  0  0  0  0  0  0  0  0  0
  -25.9290  -34.8330   23.4240 C   0  0  0  0  0  0  0  0  0  0  0  0
  -26.6220  -34.7910   22.4040 O   0  0  0  0  0  0  0  0  0  0  0  0
  -25.0250  -33.8490   24.9440 H   0  0  0  0  0  0  0  0  0  0  0  0
  -24.1140  -36.5410   23.0760 C   0  0  0  0  0  1  0  0  0  0  0  0
  -25.3590  -36.1820   23.9020 C   0  0  0  0  0  3  0  0  0  0  0  0
  -27.4270  -37.1610   24.7960 C   0  0  0  0  0  1  0  0  0  0  0  0
  -26.3350  -37.2910   23.8350 N   0  0  0  0  0  0  0  0  0  0  0  0
  -25.8770  -38.1850   23.9970 H   0  0  0  0  0  0  0  0  0  0  0  0
  -26.5880  -31.6130   25.0650 C   0  0  1  0  0  0  0  0  0  0  0  0
  -25.4980  -31.2550   26.1020 C   0  0  0  0  0  1  0  0  0  0  0  0
  -27.2910  -30.3000   24.6480 C   0  0  0  0  0  1  0  0  0  0  0  0
  -27.6550  -32.4800   25.7750 C   0  0  0  0  0  1  0  0  0  0  0  0
  -31.0390  -18.6770   20.7840 C   0  0  0  0  0  3  0  0  0  0  0  0
  -29.6290  -16.9380   22.2510 C   0  0  0  0  0  1  0  0  0  0  0  0
  -30.6300  -18.1210   22.1850 C   0  0  0  0  0  2  0  0  0  0  0  0
  -31.4180  -17.4710   19.7910 C   0  0  0  0  0  2  0  0  0  0  0  0
  -31.9870  -14.9150   19.9010 C   0  0  0  0  0  0  0  0  0  0  0  0
  -31.5700  -12.6900   18.8800 C   0  0  0  0  0  2  0  0  0  0  0  0
  -30.6050  -12.8870   17.6880 C   0  0  0  0  0  2  0  0  0  0  0  0
  -29.1380  -12.8450   18.1600 C   0  0  0  0  0  2  0  0  0  0  0  0
  -28.8850  -13.7410   19.4030 C   0  0  0  0  0  3  0  0  0  0  0  0
  -29.9610  -13.5120   20.4910 C   0  0  0  0  0  2  0  0  0  0  0  0
  -31.2780  -13.7430   19.8750 N   0  0  0  0  0  0  0  0  0  0  0  0
  -33.1230  -14.9910   19.4270 O   0  0  0  0  0  0  0  0  0  0  0  0
  -31.2930  -16.0370   20.2640 N   0  0  0  0  0  0  0  0  0  0  0  0
  -30.4150  -15.8340   20.7150 H   0  0  0  0  0  0  0  0  0  0  0  0
  -26.5750  -14.5300   20.2080 C   0  0  0  0  0  0  0  0  0  0  0  0
  -25.4570  -13.8450   20.5990 C   0  0  0  0  0  0  0  0  0  0  0  0
  -25.7980  -12.4590   20.5260 C   0  0  0  0  0  0  0  0  0  0  0  0
  -27.5320  -13.5680   19.9240 N   0  0  0  0  0  0  0  0  0  0  0  0
  -27.0700  -12.3150   20.1740 N   0  0  0  0  0  0  0  0  0  0  0  0
  -24.9690  -11.2610   20.7120 C   0  0  0  0  0  0  0  0  0  0  0  0
  -25.2990  -10.2780   21.6720 C   0  0  0  0  0  3  0  0  0  0  0  0
  -24.4760   -9.1430   21.8470 C   0  0  0  0  0  3  0  0  0  0  0  0
  -23.3090   -8.9860   21.0620 C   0  0  0  0  0  0  0  0  0  0  0  0
  -22.9970   -9.9560   20.0930 C   0  0  0  0  0  3  0  0  0  0  0  0
  -23.8200  -11.0810   19.9170 C   0  0  0  0  0  3  0  0  0  0  0  0
  -22.4640   -7.9050   21.1450 O   0  0  0  0  0  0  0  0  0  0  0  0
  -22.2400   -7.2560   22.3330 C   0  0  0  0  0  0  0  0  0  0  0  0
  -21.7650   -7.9360   23.4760 C   0  0  0  0  0  3  0  0  0  0  0  0
  -21.4840   -7.2180   24.6560 C   0  0  0  0  0  3  0  0  0  0  0  0
  -21.6680   -5.8230   24.6920 C   0  0  0  0  0  0  0  0  0  0  0  0
  -22.1370   -5.1440   23.5530 C   0  0  0  0  0  3  0  0  0  0  0  0
  -22.4190   -5.8590   22.3770 C   0  0  0  0  0  0  0  0  0  0  0  0
  -22.8500   -5.1970   21.2750 F   0  0  0  0  0  0  0  0  0  0  0  0
  -21.3920   -5.1310   25.8220 F   0  0  0  0  0  0  0  0  0  0  0  0
  -24.1170  -14.4350   20.9290 C   0  0  0  0  0  0  0  0  0  0  0  0
  -23.3760  -13.8050   21.8330 N   0  0  0  0  0  0  0  0  0  0  0  0
  -23.7400  -15.4890   20.4180 O   0  0  0  0  0  0  0  0  0  0  0  0
  -23.6950  -12.9500   22.2650 H   0  0  0  0  0  0  0  0  0  0  0  0
  -22.4770  -14.1820   22.0970 H   0  0  0  0  0  0  0  0  0  0  0  0
  -26.8530  -15.8840   20.0450 N   0  0  0  0  0  0  0  0  0  0  0  0
  -26.1500  -16.6000   20.1890 H   0  0  0  0  0  0  0  0  0  0  0  0
  -27.7160  -16.2490   19.6630 H   0  0  0  0  0  0  0  0  0  0  0  0
  2  1  1  0
  3  5  1  0
  3  1  1  0
  4  3  1  0
  4  2  1  0
  4 49  1  0
  5  6  1  0
  7  8  1  0
  7  6  2  0
  9 20  2  0
 10  8  1  0
 10 15  1  0
 11 19  1  0
 11 21  1  0
 12 18  1  0
 12 14  1  0
 13 19  1  0
 14 13  1  0
 15 14  2  0
 16 17  1  0
 16 10  2  0
 17 12  2  0
 18 11  1  0
 19  9  1  0
 21 23  2  0
 22 21  1  0
 24 22  1  0
 25 34  2  0
 25 30  1  0
 26 22  1  0
 26 30  1  0
 27 26  1  0
 28 29  1  0
 28 27  1  0
 29 25  1  0
 30 31  2  0
 31 32  1  0
 33 32  2  0
 34 33  1  0
 35  9  1  0
 35 36  1  0
 35 45  1  0
 36 39  1  0
 37 41  1  0
 37 36  1  0
 38 37  2  0
 41 40  1  0
 43 41  1  0
 43 44  1  0
 43 42  1  0
 45 48  1  1
 45 46  1  0
 47 45  1  0
 49 52  1  0
 49 51  1  0
 51 50  1  0
 52 61  1  0
 53 61  1  0
 54 59  1  0
 55 56  1  0
 55 54  1  0
 57 56  1  0
 57 66  1  0
 57 58  1  0
 59 53  1  0
 59 58  1  0
 60 53  2  0
 61 62  1  0
 63 64  2  0
 64 83  1  0
 65 64  1  0
 65 68  1  0
 66 67  1  0
 66 63  1  0
 67 65  2  0
 68 69  1  0
 69 70  2  0
 71 74  1  0
 71 70  1  0
 72 71  2  0
 73 72  1  0
 73 68  2  0
 74 75  1  0
 75 80  2  0
 75 76  1  0
 76 77  2  0
 77 78  1  0
 78 82  1  0
 79 78  2  0
 80 79  1  0
 81 80  1  0
 83 84  1  0
 84 87  1  0
 84 86  1  0
 85 83  2  0
 88 89  1  0
 88 63  1  0
 90 88  1  0
M  ISO  4   7 101   8 101  53 100  61 100
M  END
>  <TORSDO>  (97) 
F 22

>  <SCORE>  (97) 
-10.003

>  <name>  (97) 
96

>  <ligand_id>  (97) 
96

>  <original_smiles>  (97) 
[H]c1c([H])c([H])c2c(c1[H])C([H])([H])C([H])([H])C([H])([H])C2([H])N([H])C(=O)C1([H])N(C(=O)C([H])(N([H])C(=O)C([H])(N([H])C([H])([H])[H])C([H])([H])[H])C(C([H])([H])[H])(C([H])([H])[H])C([H])([H])[H])C([H])([H])c2c([H])c(OC([H])([H])C([H])([H])C([H])([H])C3([H])C([H])([H])C([H])([H])C3([H])C([H])(C([H])([H])N([H])C(=O)N3C([H])([H])C([H])([H])C([H])([H])C([H])(n4nc(-c5c([H])c([H])c(Oc6c([H])c([H])c(F)c([H])c6F)c([H])c5[H])c(C(=O)N([H])[H])c4N([H])[H])C3([H])[H])C([H])([H])C([H])([H])[H])c([H])c([H])c2C1([H])[H]

>  <smiles>  (97) 
[H]c1c([H])c([H])c2c(c1[H])C([H])([H])C([H])([H])C([H])([H])C2([H])N([H])C(=O)C1([H])N(C(=O)C([H])(N([H])C(=O)C([H])(N([H])C([H])([H])[H])C([H])([H])[H])C(C([H])([H])[H])(C([H])([H])[H])C([H])([H])[H])C([H])([H])c2c([H])c(OC([H])([H])C([H])([H])C([H])([H])C3([H])C([H])([H])C([H])([H])C3([H])C([H])(C([H])([H])N([H])C(=O)N3C([H])([H])C([H])([H])C([H])([H])C([H])(n4nc(-c5c([H])c([H])c(Oc6c([H])c([H])c(F)c([H])c6F)c([H])c5[H])c(C(=O)N([H])[H])c4N([H])[H])C3([H])[H])C([H])([H])C([H])([H])[H])c([H])c([H])c2C1([H])[H]

$$$$
97:0:0
     RDKit          3D

 91 99  0  0  1  0  0  0  0  0999 V2000
  -28.5250  -21.8340   20.2390 N   0  0  0  0  0  4  0  0  0  0  0  0
  -28.2240  -21.7800   19.2790 H   0  0  0  0  0  0  0  0  0  0  0  0
  -27.6950  -21.6720   20.7890 H   0  0  0  0  0  0  0  0  0  0  0  0
  -31.3600  -18.2260   20.6550 C   0  0  0  0  0  0  0  0  0  0  0  0
  -31.8570  -19.5900   20.1310 C   0  0  0  0  0  2  0  0  0  0  0  0
  -30.7660  -20.6150   19.6830 C   0  0  0  0  0  2  0  0  0  0  0  0
  -28.9370  -18.9790   20.4020 C   0  0  0  0  0  2  0  0  0  0  0  0
  -30.0170  -17.7290   20.1100 C   0  0  0  0  0  3  0  0  0  0  0  0
  -29.4630  -20.5750   20.5110 C   0  0  0  0  0  3  0  0  0  0  0  0
  -32.0020  -17.6360   21.5270 O   0  0  0  0  0  0  0  0  0  0  0  0
  -30.4950  -15.0020   20.1400 C   0  0  0  0  0  0  0  0  0  0  0  0
  -30.3240  -12.6760   19.1490 C   0  0  0  0  0  2  0  0  0  0  0  0
  -29.3400  -12.6670   17.9570 C   0  0  0  0  0  2  0  0  0  0  0  0
  -27.8940  -12.4570   18.4440 C   0  0  0  0  0  2  0  0  0  0  0  0
  -27.5440  -13.3470   19.6660 C   0  0  0  0  0  3  0  0  0  0  0  0
  -28.6460  -13.3240   20.7490 C   0  0  0  0  0  2  0  0  0  0  0  0
  -29.8910  -13.7450   20.0960 N   0  0  0  0  0  0  0  0  0  0  0  0
  -31.6710  -15.0660   19.7720 O   0  0  0  0  0  0  0  0  0  0  0  0
  -29.7260  -16.1830   20.3560 N   0  0  0  0  0  0  0  0  0  0  0  0
  -28.7830  -15.9890   20.6540 H   0  0  0  0  0  0  0  0  0  0  0  0
  -25.1960  -13.9050   20.5160 C   0  0  0  0  0  0  0  0  0  0  0  0
  -24.1480  -13.1210   20.9100 C   0  0  0  0  0  0  0  0  0  0  0  0
  -24.6090  -11.7710   20.8240 C   0  0  0  0  0  0  0  0  0  0  0  0
  -26.2280  -13.0330   20.2100 N   0  0  0  0  0  0  0  0  0  0  0  0
  -25.8870  -11.7430   20.4600 N   0  0  0  0  0  0  0  0  0  0  0  0
  -23.8890  -10.5040   21.0120 C   0  0  0  0  0  0  0  0  0  0  0  0
  -24.3350   -9.5270   21.9300 C   0  0  0  0  0  3  0  0  0  0  0  0
  -23.6120   -8.3290   22.1080 C   0  0  0  0  0  3  0  0  0  0  0  0
  -22.4300   -8.0960   21.3670 C   0  0  0  0  0  0  0  0  0  0  0  0
  -22.0030   -9.0610   20.4370 C   0  0  0  0  0  3  0  0  0  0  0  0
  -22.7260  -10.2500   20.2580 C   0  0  0  0  0  3  0  0  0  0  0  0
  -21.6780   -6.9490   21.4530 O   0  0  0  0  0  0  0  0  0  0  0  0
  -21.6180   -6.2140   22.6100 C   0  0  0  0  0  0  0  0  0  0  0  0
  -21.1590   -6.7710   23.8240 C   0  0  0  0  0  3  0  0  0  0  0  0
  -21.0460   -5.9620   24.9720 C   0  0  0  0  0  3  0  0  0  0  0  0
  -21.3840   -4.5960   24.9070 C   0  0  0  0  0  0  0  0  0  0  0  0
  -21.8350   -4.0390   23.6980 C   0  0  0  0  0  3  0  0  0  0  0  0
  -21.9490   -4.8450   22.5520 C   0  0  0  0  0  0  0  0  0  0  0  0
  -22.3640   -4.2990   21.3840 F   0  0  0  0  0  0  0  0  0  0  0  0
  -21.2690   -3.8160   26.0070 F   0  0  0  0  0  0  0  0  0  0  0  0
  -22.7640  -13.5900   21.2470 C   0  0  0  0  0  0  0  0  0  0  0  0
  -22.0710  -12.8740   22.1270 N   0  0  0  0  0  0  0  0  0  0  0  0
  -22.3080  -14.6280   20.7700 O   0  0  0  0  0  0  0  0  0  0  0  0
  -22.4540  -12.0350   22.5340 H   0  0  0  0  0  0  0  0  0  0  0  0
  -21.1460  -13.1740   22.4000 H   0  0  0  0  0  0  0  0  0  0  0  0
  -25.3500  -15.2800   20.3650 N   0  0  0  0  0  0  0  0  0  0  0  0
  -24.5790  -15.9210   20.5240 H   0  0  0  0  0  0  0  0  0  0  0  0
  -26.1600  -15.7320   19.9610 H   0  0  0  0  0  0  0  0  0  0  0  0
  -28.9310  -23.3530   20.5110 C   0  0  0  0  0  3  0  0  0  0  0  0
  -27.9430  -24.6720   20.1210 C   0  0  0  0  0  3  0  0  0  0  0  0
  -28.2140  -26.2000   20.3260 O   0  0  0  0  0  0  0  0  0  0  0  0
  -24.6180  -31.9150   23.2650 C   0  0  0  0  0  0  0  0  0  0  0  0
  -27.1660  -27.1900   20.2380 C   0  0  0  0  0  0  0  0  0  0  0  0
  -23.4090  -30.5280   21.6250 C   0  0  0  0  0  3  0  0  0  0  0  0
  -24.8470  -28.9470   20.1990 C   0  0  0  0  0  0  0  0  0  0  0  0
  -25.9650  -30.7820   21.4570 C   0  0  0  0  0  2  0  0  0  0  0  0
  -26.0300  -29.3900   20.8050 C   0  0  0  0  0  0  0  0  0  0  0  0
  -27.1900  -28.5290   20.8040 C   0  0  0  0  0  3  0  0  0  0  0  0
  -25.9590  -26.8510   19.5870 C   0  0  0  0  0  3  0  0  0  0  0  0
  -24.8250  -27.6910   19.5740 C   0  0  0  0  0  3  0  0  0  0  0  0
  -23.6250  -29.8490   20.2470 C   0  0  0  0  0  2  0  0  0  0  0  0
  -24.6830  -31.0970   22.1690 N   0  0  0  0  0  0  0  0  0  0  0  0
  -23.5350  -32.2010   23.7970 O   0  0  0  0  0  0  0  0  0  0  0  0
  -22.7270  -29.5230   22.5870 C   0  0  0  0  0  0  0  0  0  0  0  0
  -21.3980  -29.3570   22.4590 N   0  0  0  0  0  0  0  0  0  0  0  0
  -23.3960  -28.8940   23.4110 O   0  0  0  0  0  0  0  0  0  0  0  0
  -20.9150  -29.9130   21.7680 H   0  0  0  0  0  0  0  0  0  0  0  0
  -18.0100  -28.1740   22.9610 C   0  0  0  0  0  0  0  0  0  0  0  0
  -20.5710  -28.4230   23.2290 C   0  0  0  0  0  3  0  0  0  0  0  0
  -20.6630  -26.9900   22.6540 C   0  0  0  0  0  2  0  0  0  0  0  0
  -19.5610  -26.6740   21.6380 C   0  0  0  0  0  2  0  0  0  0  0  0
  -18.1800  -26.8240   22.2830 C   0  0  0  0  0  2  0  0  0  0  0  0
  -19.1320  -28.9310   23.3900 C   0  0  0  0  0  0  0  0  0  0  0  0
  -18.9180  -30.1940   23.9850 C   0  0  0  0  0  3  0  0  0  0  0  0
  -17.6160  -30.7010   24.1520 C   0  0  0  0  0  3  0  0  0  0  0  0
  -16.5090  -29.9390   23.7400 C   0  0  0  0  0  3  0  0  0  0  0  0
  -16.7050  -28.6780   23.1520 C   0  0  0  0  0  3  0  0  0  0  0  0
  -25.9020  -32.5440   23.8890 C   0  0  0  0  0  3  0  0  0  0  0  0
  -26.4080  -31.7740   25.1700 C   0  0  1  0  0  0  0  0  0  0  0  0
  -25.3120  -31.5450   26.2360 C   0  0  0  0  0  1  0  0  0  0  0  0
  -26.9850  -30.3900   24.7890 C   0  0  0  0  0  1  0  0  0  0  0  0
  -27.5620  -32.5630   25.8330 C   0  0  0  0  0  1  0  0  0  0  0  0
  -25.5980  -33.9440   24.2230 N   0  0  0  0  0  0  0  0  0  0  0  0
  -25.9150  -34.9980   23.4600 C   0  0  0  0  0  0  0  0  0  0  0  0
  -26.5600  -34.8940   22.4130 O   0  0  0  0  0  0  0  0  0  0  0  0
  -25.0190  -34.0970   25.0360 H   0  0  0  0  0  0  0  0  0  0  0  0
  -24.1690  -36.7870   23.1650 C   0  0  0  0  0  1  0  0  0  0  0  0
  -25.4420  -36.3880   23.9290 C   0  0  0  0  0  3  0  0  0  0  0  0
  -27.6020  -37.2860   24.6780 C   0  0  0  0  0  1  0  0  0  0  0  0
  -26.4680  -37.4440   23.7720 N   0  0  0  0  0  0  0  0  0  0  0  0
  -26.0640  -38.3640   23.9280 H   0  0  0  0  0  0  0  0  0  0  0  0
  1 49  1  0
  1  3  1  0
  2  1  1  0
  4 10  2  0
  5  4  1  0
  6  5  1  0
  6  9  1  0
  7  9  1  0
  8 19  1  0
  8  7  1  0
  8  4  1  0
  9  1  1  0
 11 19  1  0
 12 17  1  0
 13 14  1  0
 13 12  1  0
 15 14  1  0
 15 24  1  0
 15 16  1  0
 17 11  1  0
 17 16  1  0
 18 11  2  0
 19 20  1  0
 21 22  2  0
 22 41  1  0
 23 22  1  0
 23 26  1  0
 24 25  1  0
 24 21  1  0
 25 23  2  0
 26 27  1  0
 27 28  2  0
 29 32  1  0
 29 28  1  0
 30 29  2  0
 31 30  1  0
 31 26  2  0
 32 33  1  0
 33 34  1  0
 34 35  2  0
 36 35  1  0
 36 40  1  0
 37 36  2  0
 38 33  2  0
 38 37  1  0
 39 38  1  0
 41 42  1  0
 42 45  1  0
 42 44  1  0
 43 41  2  0
 46 21  1  0
 46 47  1  0
 48 46  1  0
 50 51  1  0
 50 49  2  0
 52 63  2  0
 53 51  1  0
 53 58  1  0
 54 62  1  0
 54 64  1  0
 55 61  1  0
 55 57  1  0
 56 62  1  0
 57 56  1  0
 58 57  2  0
 59 53  2  0
 60 59  1  0
 60 55  2  0
 61 54  1  0
 62 52  1  0
 64 66  2  0
 65 64  1  0
 67 65  1  0
 68 77  2  0
 68 73  1  0
 69 65  1  0
 69 73  1  0
 70 69  1  0
 71 72  1  0
 71 70  1  0
 72 68  1  0
 73 74  2  0
 74 75  1  0
 76 75  2  0
 77 76  1  0
 78 52  1  0
 78 83  1  0
 78 79  1  0
 79 82  1  1
 79 80  1  0
 81 79  1  0
 83 86  1  0
 84 88  1  0
 84 83  1  0
 85 84  2  0
 88 87  1  0
 90 91  1  0
 90 88  1  0
 90 89  1  0
M  ISO  4  11 100  19 100  50 101  51 101
M  END
>  <TORSDO>  (98) 
F 19

>  <SCORE>  (98) 
-14.228

>  <name>  (98) 
97

>  <ligand_id>  (98) 
97

>  <original_smiles>  (98) 
[H]c1c([H])c([H])c2c(c1[H])C([H])([H])C([H])([H])C([H])([H])C2([H])N([H])C(=O)C1([H])N(C(=O)C([H])(N([H])C(=O)C([H])(N([H])C([H])([H])[H])C([H])([H])[H])C(C([H])([H])[H])(C([H])([H])[H])C([H])([H])[H])C([H])([H])c2c([H])c(OC([H])([H])C([H])([H])[N+]([H])([H])C3([H])C([H])([H])C([H])([H])C(=O)C([H])(N([H])C(=O)N4C([H])([H])C([H])([H])C([H])([H])C([H])(n5nc(-c6c([H])c([H])c(Oc7c([H])c([H])c(F)c([H])c7F)c([H])c6[H])c(C(=O)N([H])[H])c5N([H])[H])C4([H])[H])C3([H])[H])c([H])c([H])c2C1([H])[H]

>  <smiles>  (98) 
[H]c1c([H])c([H])c2c(c1[H])C([H])([H])C([H])([H])C([H])([H])C2([H])N([H])C(=O)C1([H])N(C(=O)C([H])(N([H])C(=O)C([H])(N([H])C([H])([H])[H])C([H])([H])[H])C(C([H])([H])[H])(C([H])([H])[H])C([H])([H])[H])C([H])([H])c2c([H])c(OC([H])([H])C([H])([H])[N+]([H])([H])C3([H])C([H])([H])C([H])([H])C(=O)C([H])(N([H])C(=O)N4C([H])([H])C([H])([H])C([H])([H])C([H])(n5nc(-c6c([H])c([H])c(Oc7c([H])c([H])c(F)c([H])c7F)c([H])c6[H])c(C(=O)N([H])[H])c5N([H])[H])C4([H])[H])C3([H])[H])c([H])c([H])c2C1([H])[H]

$$$$
98:0:0
     RDKit          3D

 90 98  0  0  1  0  0  0  0  0999 V2000
  -29.4520  -19.6960   20.7620 C   0  0  0  0  0  3  0  0  0  0  0  0
  -28.8720  -21.2400   20.0790 C   0  0  0  0  0  3  0  0  0  0  0  0
  -28.8480  -22.9250   20.6570 C   0  0  0  0  0  3  0  0  0  0  0  0
  -28.0590  -24.4050   20.0560 C   0  0  0  0  0  3  0  0  0  0  0  0
  -28.2320  -26.0000   20.3480 O   0  0  0  0  0  0  0  0  0  0  0  0
  -24.6200  -31.9210   23.1950 C   0  0  0  0  0  0  0  0  0  0  0  0
  -27.2080  -27.0640   20.2340 C   0  0  0  0  0  0  0  0  0  0  0  0
  -23.4330  -30.5000   21.5700 C   0  0  0  0  0  3  0  0  0  0  0  0
  -24.8910  -28.8960   20.1630 C   0  0  0  0  0  0  0  0  0  0  0  0
  -25.9950  -30.7390   21.4180 C   0  0  0  0  0  2  0  0  0  0  0  0
  -26.0730  -29.3260   20.7790 C   0  0  0  0  0  0  0  0  0  0  0  0
  -27.2250  -28.4280   20.7920 C   0  0  0  0  0  3  0  0  0  0  0  0
  -26.0000  -26.7760   19.5600 C   0  0  0  0  0  3  0  0  0  0  0  0
  -24.8770  -27.6420   19.5320 C   0  0  0  0  0  3  0  0  0  0  0  0
  -23.6630  -29.8020   20.2010 C   0  0  0  0  0  2  0  0  0  0  0  0
  -24.7040  -31.0800   22.1140 N   0  0  0  0  0  0  0  0  0  0  0  0
  -23.5310  -32.2080   23.7150 O   0  0  0  0  0  0  0  0  0  0  0  0
  -22.7480  -29.5090   22.5470 C   0  0  0  0  0  0  0  0  0  0  0  0
  -21.4180  -29.3380   22.4280 N   0  0  0  0  0  0  0  0  0  0  0  0
  -23.4180  -28.8940   23.3790 O   0  0  0  0  0  0  0  0  0  0  0  0
  -20.9310  -29.8860   21.7320 H   0  0  0  0  0  0  0  0  0  0  0  0
  -18.0400  -28.1330   22.9630 C   0  0  0  0  0  0  0  0  0  0  0  0
  -20.6000  -28.4060   23.2100 C   0  0  0  0  0  3  0  0  0  0  0  0
  -20.7000  -26.9690   22.6460 C   0  0  0  0  0  2  0  0  0  0  0  0
  -19.5930  -26.6360   21.6410 C   0  0  0  0  0  2  0  0  0  0  0  0
  -18.2150  -26.7800   22.2920 C   0  0  0  0  0  2  0  0  0  0  0  0
  -19.1590  -28.9030   23.3790 C   0  0  0  0  0  0  0  0  0  0  0  0
  -18.9380  -30.1660   23.9700 C   0  0  0  0  0  3  0  0  0  0  0  0
  -17.6310  -30.6590   24.1460 C   0  0  0  0  0  3  0  0  0  0  0  0
  -16.5270  -29.8880   23.7440 C   0  0  0  0  0  3  0  0  0  0  0  0
  -16.7320  -28.6260   23.1590 C   0  0  0  0  0  3  0  0  0  0  0  0
  -25.8890  -32.5760   23.8190 C   0  0  0  0  0  3  0  0  0  0  0  0
  -25.5640  -33.9760   24.1470 N   0  0  0  0  0  0  0  0  0  0  0  0
  -25.9000  -35.0370   23.4000 C   0  0  0  0  0  0  0  0  0  0  0  0
  -26.5810  -34.9410   22.3770 O   0  0  0  0  0  0  0  0  0  0  0  0
  -24.9590  -34.1210   24.9410 H   0  0  0  0  0  0  0  0  0  0  0  0
  -24.1820  -36.8400   23.0300 C   0  0  0  0  0  1  0  0  0  0  0  0
  -25.4060  -36.4240   23.8610 C   0  0  0  0  0  3  0  0  0  0  0  0
  -27.5220  -37.3060   24.7430 C   0  0  0  0  0  1  0  0  0  0  0  0
  -26.4410  -37.4780   23.7770 N   0  0  0  0  0  0  0  0  0  0  0  0
  -26.0310  -38.3970   23.9180 H   0  0  0  0  0  0  0  0  0  0  0  0
  -26.4060  -31.8220   25.1070 C   0  0  1  0  0  0  0  0  0  0  0  0
  -25.3110  -31.5900   26.1750 C   0  0  0  0  0  1  0  0  0  0  0  0
  -26.9990  -30.4430   24.7410 C   0  0  0  0  0  1  0  0  0  0  0  0
  -27.5500  -32.6320   25.7630 C   0  0  0  0  0  1  0  0  0  0  0  0
  -29.8420  -18.1490   19.9750 C   0  0  0  0  0  0  0  0  0  0  0  0
  -30.6950  -15.3280   20.3150 C   0  0  0  0  0  0  0  0  0  0  0  0
  -30.6380  -12.9180   19.3980 C   0  0  0  0  0  2  0  0  0  0  0  0
  -29.7260  -12.8030   18.1510 C   0  0  0  0  0  2  0  0  0  0  0  0
  -28.2700  -12.5420   18.5710 C   0  0  0  0  0  2  0  0  0  0  0  0
  -27.8260  -13.4730   19.7270 C   0  0  0  0  0  3  0  0  0  0  0  0
  -28.8650  -13.5530   20.8690 C   0  0  0  0  0  2  0  0  0  0  0  0
  -30.1210  -14.0320   20.2730 N   0  0  0  0  0  0  0  0  0  0  0  0
  -31.8970  -15.3360   20.0190 O   0  0  0  0  0  0  0  0  0  0  0  0
  -29.9270  -16.5710   20.5070 N   0  0  0  0  0  4  0  0  0  0  0  0
  -29.0370  -16.3190   20.9110 H   0  0  0  0  0  0  0  0  0  0  0  0
  -25.4390  -14.0320   20.4340 C   0  0  0  0  0  0  0  0  0  0  0  0
  -24.3750  -13.2560   20.7950 C   0  0  0  0  0  0  0  0  0  0  0  0
  -24.8450  -11.9070   20.7800 C   0  0  0  0  0  0  0  0  0  0  0  0
  -26.4880  -13.1590   20.2130 N   0  0  0  0  0  0  0  0  0  0  0  0
  -26.1410  -11.8740   20.4890 N   0  0  0  0  0  0  0  0  0  0  0  0
  -24.1190  -10.6430   20.9680 C   0  0  0  0  0  0  0  0  0  0  0  0
  -24.5330   -9.6870   21.9220 C   0  0  0  0  0  3  0  0  0  0  0  0
  -23.8060   -8.4910   22.0990 C   0  0  0  0  0  3  0  0  0  0  0  0
  -22.6500   -8.2410   21.3210 C   0  0  0  0  0  0  0  0  0  0  0  0
  -22.2540   -9.1850   20.3570 C   0  0  0  0  0  3  0  0  0  0  0  0
  -22.9820  -10.3730   20.1800 C   0  0  0  0  0  3  0  0  0  0  0  0
  -21.8970   -7.0940   21.4050 O   0  0  0  0  0  0  0  0  0  0  0  0
  -21.8140   -6.3710   22.5680 C   0  0  0  0  0  0  0  0  0  0  0  0
  -21.3380   -6.9420   23.7680 C   0  0  0  0  0  3  0  0  0  0  0  0
  -21.2040   -6.1450   24.9230 C   0  0  0  0  0  3  0  0  0  0  0  0
  -21.5350   -4.7770   24.8770 C   0  0  0  0  0  0  0  0  0  0  0  0
  -22.0030   -4.2050   23.6810 C   0  0  0  0  0  3  0  0  0  0  0  0
  -22.1400   -5.0010   22.5290 C   0  0  0  0  0  0  0  0  0  0  0  0
  -22.5710   -4.4400   21.3730 F   0  0  0  0  0  0  0  0  0  0  0  0
  -21.3990   -4.0090   25.9830 F   0  0  0  0  0  0  0  0  0  0  0  0
  -22.9720  -13.7290   21.0360 C   0  0  0  0  0  0  0  0  0  0  0  0
  -22.2350  -13.0490   21.9060 N   0  0  0  0  0  0  0  0  0  0  0  0
  -22.5370  -14.7410   20.4860 O   0  0  0  0  0  0  0  0  0  0  0  0
  -22.6010  -12.2330   22.3750 H   0  0  0  0  0  0  0  0  0  0  0  0
  -21.2910  -13.3490   22.1080 H   0  0  0  0  0  0  0  0  0  0  0  0
  -25.6010  -15.4030   20.2460 N   0  0  0  0  0  0  0  0  0  0  0  0
  -24.8250  -16.0520   20.3230 H   0  0  0  0  0  0  0  0  0  0  0  0
  -26.4380  -15.8290   19.8670 H   0  0  0  0  0  0  0  0  0  0  0  0
  -32.0970  -16.9940   17.1900 C   0  0  0  0  0  3  0  0  0  0  0  0
  -30.9570  -17.3740   17.7920 C   0  0  0  0  0  3  0  0  0  0  0  0
  -33.4540  -17.5930   17.5170 C   0  0  0  0  0  2  0  0  0  0  0  0
  -33.3310  -18.9070   18.3090 C   0  0  0  0  0  2  0  0  0  0  0  0
  -32.2870  -18.7930   19.4300 C   0  0  0  0  0  2  0  0  0  0  0  0
  -30.8890  -18.4460   18.8710 C   0  0  0  0  0  3  0  0  0  0  0  0
  2  3  1  0
  2  1  2  0
  4  5  1  0
  4  3  2  0
  6 17  2  0
  7  5  1  0
  7 12  1  0
  8 16  1  0
  8 18  1  0
  9 15  1  0
  9 11  1  0
 10 16  1  0
 11 12  2  0
 11 10  1  0
 13  7  2  0
 14 13  1  0
 14  9  2  0
 15  8  1  0
 16  6  1  0
 18 20  2  0
 19 18  1  0
 21 19  1  0
 22 31  2  0
 22 27  1  0
 23 19  1  0
 23 27  1  0
 24 23  1  0
 25 26  1  0
 25 24  1  0
 26 22  1  0
 27 28  2  0
 28 29  1  0
 30 29  2  0
 31 30  1  0
 32  6  1  0
 32 33  1  0
 32 42  1  0
 33 36  1  0
 34 38  1  0
 34 33  1  0
 35 34  2  0
 38 37  1  0
 40 38  1  0
 40 41  1  0
 40 39  1  0
 42 45  1  1
 42 43  1  0
 44 42  1  0
 46 55  2  0
 46  1  1  0
 47 55  1  0
 48 53  1  0
 49 50  1  0
 49 48  1  0
 51 50  1  0
 51 60  1  0
 51 52  1  0
 53 47  1  0
 53 52  1  0
 54 47  2  0
 55 56  1  0
 57 58  2  0
 58 77  1  0
 59 58  1  0
 59 62  1  0
 60 57  1  0
 60 61  1  0
 61 59  2  0
 62 63  1  0
 63 64  2  0
 65 68  1  0
 65 64  1  0
 66 65  2  0
 67 66  1  0
 67 62  2  0
 68 69  1  0
 69 70  1  0
 70 71  2  0
 72 71  1  0
 72 76  1  0
 73 72  2  0
 74 69  2  0
 74 73  1  0
 75 74  1  0
 77 78  1  0
 78 81  1  0
 78 80  1  0
 79 77  2  0
 82 83  1  0
 82 57  1  0
 84 82  1  0
 85 87  1  0
 85 86  2  0
 86 90  1  0
 87 88  1  0
 88 89  1  0
 90 89  1  0
 90 46  1  0
M  ISO  4   4 101   5 101  47 100  55 100
M  END
>  <TORSDO>  (99) 
F 21

>  <SCORE>  (99) 
-15.001

>  <name>  (99) 
98

>  <ligand_id>  (99) 
98

>  <original_smiles>  (99) 
[H]C1=C([H])C([H])(C([H])(N([H])C(=O)N2C([H])([H])C([H])([H])C([H])([H])C([H])(n3nc(-c4c([H])c([H])c(Oc5c([H])c([H])c(F)c([H])c5F)c([H])c4[H])c(C(=O)N([H])[H])c3N([H])[H])C2([H])[H])C([H])([H])C([H])([H])C([H])([H])C([H])([H])Oc2c([H])c([H])c3c(c2[H])C([H])([H])N(C(=O)C([H])(N([H])C(=O)C([H])(N([H])C([H])([H])[H])C([H])([H])[H])C(C([H])([H])[H])(C([H])([H])[H])C([H])([H])[H])C([H])(C(=O)N([H])C2([H])c4c([H])c([H])c([H])c([H])c4C([H])([H])C([H])([H])C2([H])[H])C3([H])[H])C([H])([H])C([H])([H])C1([H])[H]

>  <smiles>  (99) 
[H]C1=C([H])C([H])(C([H])(N([H])C(=O)N2C([H])([H])C([H])([H])C([H])([H])C([H])(n3nc(-c4c([H])c([H])c(Oc5c([H])c([H])c(F)c([H])c5F)c([H])c4[H])c(C(=O)N([H])[H])c3N([H])[H])C2([H])[H])C([H])([H])C([H])([H])C([H])([H])C([H])([H])Oc2c([H])c([H])c3c(c2[H])C([H])([H])N(C(=O)C([H])(N([H])C(=O)C([H])(N([H])C([H])([H])[H])C([H])([H])[H])C(C([H])([H])[H])(C([H])([H])[H])C([H])([H])[H])C([H])(C(=O)N([H])C2([H])c4c([H])c([H])c([H])c([H])c4C([H])([H])C([H])([H])C2([H])[H])C3([H])[H])C([H])([H])C([H])([H])C1([H])[H]

$$$$
