0:0:0
     RDKit          3D

 87 95  0  0  1  0  0  0  0  0999 V2000
  -28.9560  -22.6680   20.3470 C   0  0  0  0  0  3  0  0  0  0  0  0
  -30.3990  -15.4130   20.2310 C   0  0  0  0  0  0  0  0  0  0  0  0
  -30.3920  -12.9490   19.3570 C   0  0  0  0  0  2  0  0  0  0  0  0
  -29.4720  -12.6720   18.1410 C   0  0  0  0  0  2  0  0  0  0  0  0
  -28.0390  -12.3590   18.6010 C   0  0  0  0  0  2  0  0  0  0  0  0
  -27.5660  -13.3310   19.7070 C   0  0  0  0  0  3  0  0  0  0  0  0
  -28.6200  -13.5530   20.8170 C   0  0  0  0  0  2  0  0  0  0  0  0
  -29.8190  -14.1020   20.1560 N   0  0  0  0  0  0  0  0  0  0  0  0
  -31.6300  -15.3600   20.0700 O   0  0  0  0  0  0  0  0  0  0  0  0
  -28.8720  -19.5160   20.2020 C   0  0  0  0  0  0  0  0  0  0  0  0
  -28.5050  -20.9720   20.2050 C   0  0  0  0  0  2  0  0  0  0  0  0
  -27.7690  -18.4690   20.0080 C   0  0  0  0  0  3  0  0  0  0  0  0
  -30.0840  -18.3450   20.3140 C   0  0  0  0  0  3  0  0  0  0  0  0
  -28.2320  -16.9540   20.2160 C   0  0  0  0  0  3  0  0  0  0  0  0
  -29.6910  -16.7510   20.2820 N   0  0  0  0  0  0  0  0  0  0  0  0
  -25.1980  -13.8650   20.4800 C   0  0  0  0  0  0  0  0  0  0  0  0
  -24.1470  -13.0780   20.8550 C   0  0  0  0  0  0  0  0  0  0  0  0
  -24.6310  -11.7340   20.8260 C   0  0  0  0  0  0  0  0  0  0  0  0
  -26.2500  -13.0020   20.2330 N   0  0  0  0  0  0  0  0  0  0  0  0
  -25.9220  -11.7130   20.5100 N   0  0  0  0  0  0  0  0  0  0  0  0
  -23.9200  -10.4650   21.0180 C   0  0  0  0  0  0  0  0  0  0  0  0
  -24.3590   -9.5050   21.9560 C   0  0  0  0  0  3  0  0  0  0  0  0
  -23.6420   -8.3030   22.1380 C   0  0  0  0  0  3  0  0  0  0  0  0
  -22.4740   -8.0510   21.3810 C   0  0  0  0  0  0  0  0  0  0  0  0
  -22.0540   -9.0000   20.4320 C   0  0  0  0  0  3  0  0  0  0  0  0
  -22.7720  -10.1940   20.2480 C   0  0  0  0  0  3  0  0  0  0  0  0
  -21.7290   -6.9000   21.4720 O   0  0  0  0  0  0  0  0  0  0  0  0
  -21.6770   -6.1670   22.6310 C   0  0  0  0  0  0  0  0  0  0  0  0
  -21.2260   -6.7250   23.8460 C   0  0  0  0  0  3  0  0  0  0  0  0
  -21.1230   -5.9180   24.9960 C   0  0  0  0  0  3  0  0  0  0  0  0
  -21.4610   -4.5530   24.9310 C   0  0  0  0  0  0  0  0  0  0  0  0
  -21.9060   -3.9940   23.7200 C   0  0  0  0  0  3  0  0  0  0  0  0
  -22.0110   -4.7990   22.5730 C   0  0  0  0  0  0  0  0  0  0  0  0
  -22.4200   -4.2510   21.4030 F   0  0  0  0  0  0  0  0  0  0  0  0
  -21.3550   -3.7750   26.0340 F   0  0  0  0  0  0  0  0  0  0  0  0
  -22.7460  -13.5410   21.1230 C   0  0  0  0  0  0  0  0  0  0  0  0
  -22.0270  -12.8480   21.9970 N   0  0  0  0  0  0  0  0  0  0  0  0
  -22.2970  -14.5560   20.5910 O   0  0  0  0  0  0  0  0  0  0  0  0
  -22.4050  -12.0290   22.4500 H   0  0  0  0  0  0  0  0  0  0  0  0
  -21.0860  -13.1420   22.2180 H   0  0  0  0  0  0  0  0  0  0  0  0
  -25.3340  -15.2370   20.2990 N   0  0  0  0  0  0  0  0  0  0  0  0
  -24.5530  -15.8730   20.4200 H   0  0  0  0  0  0  0  0  0  0  0  0
  -26.1690  -15.6970   19.9660 H   0  0  0  0  0  0  0  0  0  0  0  0
  -30.9290  -21.9570   21.8740 C   0  0  0  0  0  1  0  0  0  0  0  0
  -29.6990  -22.8560   21.6830 C   0  0  0  0  0  2  0  0  0  0  0  0
  -27.9460  -24.1880   20.1560 C   0  0  0  0  0  2  0  0  0  0  0  0
  -28.1850  -25.8360   20.2870 O   0  0  0  0  0  0  0  0  0  0  0  0
  -24.6590  -31.8820   23.2300 C   0  0  0  0  0  0  0  0  0  0  0  0
  -27.1810  -26.9530   20.2290 C   0  0  0  0  0  0  0  0  0  0  0  0
  -23.4560  -30.4890   21.5960 C   0  0  0  0  0  3  0  0  0  0  0  0
  -24.8950  -28.8650   20.1790 C   0  0  0  0  0  0  0  0  0  0  0  0
  -26.0260  -30.6750   21.4510 C   0  0  0  0  0  2  0  0  0  0  0  0
  -26.0860  -29.2600   20.7970 C   0  0  0  0  0  0  0  0  0  0  0  0
  -27.2230  -28.3260   20.7950 C   0  0  0  0  0  3  0  0  0  0  0  0
  -25.9580  -26.7170   19.5620 C   0  0  0  0  0  3  0  0  0  0  0  0
  -24.8560  -27.6150   19.5390 C   0  0  0  0  0  3  0  0  0  0  0  0
  -23.6820  -29.7970   20.2230 C   0  0  0  0  0  2  0  0  0  0  0  0
  -24.7360  -31.0430   22.1450 N   0  0  0  0  0  0  0  0  0  0  0  0
  -23.5710  -32.1800   23.7500 O   0  0  0  0  0  0  0  0  0  0  0  0
  -22.7530  -29.5020   22.5670 C   0  0  0  0  0  0  0  0  0  0  0  0
  -21.4220  -29.3480   22.4430 N   0  0  0  0  0  0  0  0  0  0  0  0
  -23.4130  -28.8760   23.3990 O   0  0  0  0  0  0  0  0  0  0  0  0
  -20.9410  -29.9040   21.7490 H   0  0  0  0  0  0  0  0  0  0  0  0
  -18.0310  -28.1570   22.9550 C   0  0  0  0  0  0  0  0  0  0  0  0
  -20.5930  -28.4160   23.2180 C   0  0  0  0  0  3  0  0  0  0  0  0
  -20.6880  -26.9810   22.6500 C   0  0  0  0  0  2  0  0  0  0  0  0
  -19.5860  -26.6580   21.6360 C   0  0  0  0  0  2  0  0  0  0  0  0
  -18.2050  -26.8070   22.2800 C   0  0  0  0  0  2  0  0  0  0  0  0
  -19.1510  -28.9190   23.3800 C   0  0  0  0  0  0  0  0  0  0  0  0
  -18.9320  -30.1800   23.9760 C   0  0  0  0  0  3  0  0  0  0  0  0
  -17.6280  -30.6810   24.1480 C   0  0  0  0  0  3  0  0  0  0  0  0
  -16.5230  -29.9160   23.7360 C   0  0  0  0  0  3  0  0  0  0  0  0
  -16.7250  -28.6560   23.1450 C   0  0  0  0  0  3  0  0  0  0  0  0
  -25.9320  -32.5190   23.8640 C   0  0  0  0  0  3  0  0  0  0  0  0
  -25.6220  -33.9200   24.1990 N   0  0  0  0  0  0  0  0  0  0  0  0
  -25.9330  -34.9800   23.4400 C   0  0  0  0  0  0  0  0  0  0  0  0
  -26.5760  -34.8810   22.3920 O   0  0  0  0  0  0  0  0  0  0  0  0
  -25.0450  -34.0700   25.0140 H   0  0  0  0  0  0  0  0  0  0  0  0
  -24.1820  -36.7710   23.1680 C   0  0  0  0  0  1  0  0  0  0  0  0
  -25.4630  -36.3690   23.9190 C   0  0  0  0  0  3  0  0  0  0  0  0
  -27.6270  -37.2730   24.6490 C   0  0  0  0  0  1  0  0  0  0  0  0
  -26.4830  -37.4280   23.7540 N   0  0  0  0  0  0  0  0  0  0  0  0
  -26.0780  -38.3470   23.9150 H   0  0  0  0  0  0  0  0  0  0  0  0
  -26.4330  -31.7540   25.1520 C   0  0  1  0  0  0  0  0  0  0  0  0
  -25.3320  -31.5340   26.2150 C   0  0  0  0  0  1  0  0  0  0  0  0
  -27.0080  -30.3670   24.7830 C   0  0  0  0  0  1  0  0  0  0  0  0
  -27.5870  -32.5440   25.8140 C   0  0  0  0  0  1  0  0  0  0  0  0
  1 46  1  0
  1 45  1  0
  2 15  1  0
  3  8  1  0
  4  5  1  0
  4  3  1  0
  6  5  1  0
  6 19  1  0
  6  7  1  0
  8  2  1  0
  8  7  1  0
  9  2  2  0
 10 11  1  0
 10 13  2  0
 11  1  1  0
 12 10  1  0
 12 14  2  0
 14 15  1  0
 15 13  1  0
 16 17  2  0
 17 36  1  0
 18 17  1  0
 18 21  1  0
 19 16  1  0
 19 20  1  0
 20 18  2  0
 21 22  1  0
 22 23  2  0
 24 27  1  0
 24 23  1  0
 25 24  2  0
 26 25  1  0
 26 21  2  0
 27 28  1  0
 28 29  1  0
 29 30  2  0
 31 30  1  0
 31 35  1  0
 32 31  2  0
 33 28  2  0
 33 32  1  0
 34 33  1  0
 36 37  1  0
 37 40  1  0
 37 39  1  0
 38 36  2  0
 41 42  1  0
 41 16  1  0
 43 41  1  0
 45 44  1  0
 46 47  1  0
 48 59  2  0
 49 47  1  0
 49 54  1  0
 50 58  1  0
 50 60  1  0
 51 57  1  0
 51 53  1  0
 52 58  1  0
 53 52  1  0
 54 53  2  0
 55 49  2  0
 56 55  1  0
 56 51  2  0
 57 50  1  0
 58 48  1  0
 60 62  2  0
 61 60  1  0
 63 61  1  0
 64 73  2  0
 64 69  1  0
 65 61  1  0
 65 69  1  0
 66 65  1  0
 67 68  1  0
 67 66  1  0
 68 64  1  0
 69 70  2  0
 70 71  1  0
 72 71  2  0
 73 72  1  0
 74 48  1  0
 74 75  1  0
 74 84  1  0
 75 78  1  0
 76 80  1  0
 76 75  1  0
 77 76  2  0
 80 79  1  0
 82 83  1  0
 82 80  1  0
 82 81  1  0
 84 87  1  1
 84 85  1  0
 86 84  1  0
M  ISO  4   2 100  15 100  46 101  47 101
M  END
>  <TORSDO>  (1) 
F 18

>  <SCORE>  (1) 
-16.696

>  <name>  (1) 
0

>  <ligand_id>  (1) 
0

>  <original_smiles>  (1) 
[H]C(=C1C([H])([H])N(C(=O)N2C([H])([H])C([H])([H])C([H])([H])C([H])(n3nc(-c4c([H])c([H])c(Oc5c([H])c([H])c(F)c([H])c5F)c([H])c4[H])c(C(=O)N([H])[H])c3N([H])[H])C2([H])[H])C([H])([H])C1([H])[H])C([H])(C([H])([H])Oc1c([H])c([H])c2c(c1[H])C([H])([H])N(C(=O)C([H])(N([H])C(=O)C([H])(N([H])C([H])([H])[H])C([H])([H])[H])C(C([H])([H])[H])(C([H])([H])[H])C([H])([H])[H])C([H])(C(=O)N([H])C1([H])c3c([H])c([H])c([H])c([H])c3C([H])([H])C([H])([H])C1([H])[H])C2([H])[H])C([H])([H])C([H])([H])[H]

>  <smiles>  (1) 
[H]C(=C1C([H])([H])N(C(=O)N2C([H])([H])C([H])([H])C([H])([H])C([H])(n3nc(-c4c([H])c([H])c(Oc5c([H])c([H])c(F)c([H])c5F)c([H])c4[H])c(C(=O)N([H])[H])c3N([H])[H])C2([H])[H])C([H])([H])C1([H])[H])C([H])(C([H])([H])Oc1c([H])c([H])c2c(c1[H])C([H])([H])N(C(=O)C([H])(N([H])C(=O)C([H])(N([H])C([H])([H])[H])C([H])([H])[H])C(C([H])([H])[H])(C([H])([H])[H])C([H])([H])[H])C([H])(C(=O)N([H])C1([H])c3c([H])c([H])c([H])c([H])c3C([H])([H])C([H])([H])C1([H])[H])C2([H])[H])C([H])([H])C([H])([H])[H]

$$$$
1:0:0
     RDKit          3D

 91100  0  0  1  0  0  0  0  0999 V2000
  -29.5370  -22.7630   21.1700 C   0  0  0  0  0  3  0  0  0  0  0  0
  -28.9770  -21.8780   20.2990 C   0  0  0  0  0  0  0  0  0  0  0  0
  -29.3310  -24.3160   21.2260 C   0  0  0  0  0  2  0  0  0  0  0  0
  -28.0470  -22.5410   19.2550 C   0  0  0  0  0  2  0  0  0  0  0  0
  -28.1650  -24.1150   19.0680 C   0  0  0  0  0  2  0  0  0  0  0  0
  -28.1720  -24.9600   20.3810 C   0  0  0  0  0  3  0  0  0  0  0  0
  -30.3980  -19.7110   20.9220 C   0  0  0  0  0  3  0  0  0  0  0  0
  -28.3370  -19.4040   19.7630 C   0  0  0  0  0  3  0  0  0  0  0  0
  -30.5940  -18.2800   20.9680 C   0  0  0  0  0  3  0  0  0  0  0  0
  -28.5200  -17.9830   19.8300 C   0  0  0  0  0  3  0  0  0  0  0  0
  -29.2560  -20.3370   20.3220 C   0  0  0  0  0  0  0  0  0  0  0  0
  -29.6470  -17.3540   20.4350 C   0  0  0  0  0  0  0  0  0  0  0  0
  -30.5350  -14.8280   20.3990 C   0  0  0  0  0  0  0  0  0  0  0  0
  -30.4190  -12.5380   19.3890 C   0  0  0  0  0  2  0  0  0  0  0  0
  -29.4770  -12.6010   18.1640 C   0  0  0  0  0  2  0  0  0  0  0  0
  -28.0050  -12.4130   18.5860 C   0  0  0  0  0  2  0  0  0  0  0  0
  -27.6180  -13.2880   19.8060 C   0  0  0  0  0  3  0  0  0  0  0  0
  -28.6740  -13.1880   20.9300 C   0  0  0  0  0  2  0  0  0  0  0  0
  -29.9710  -13.5710   20.3490 N   0  0  0  0  0  0  0  0  0  0  0  0
  -31.7170  -14.9950   20.0830 O   0  0  0  0  0  0  0  0  0  0  0  0
  -29.6480  -15.8750   20.6130 N   0  0  0  0  0  0  0  0  0  0  0  0
  -28.7240  -15.5030   20.7690 H   0  0  0  0  0  0  0  0  0  0  0  0
  -25.2230  -13.8680   20.5270 C   0  0  0  0  0  0  0  0  0  0  0  0
  -24.1590  -13.0870   20.8890 C   0  0  0  0  0  0  0  0  0  0  0  0
  -24.6290  -11.7390   20.8520 C   0  0  0  0  0  0  0  0  0  0  0  0
  -26.2720  -12.9940   20.2890 N   0  0  0  0  0  0  0  0  0  0  0  0
  -25.9220  -11.7080   20.5480 N   0  0  0  0  0  0  0  0  0  0  0  0
  -23.9080  -10.4720   21.0320 C   0  0  0  0  0  0  0  0  0  0  0  0
  -24.3290   -9.5100   21.9770 C   0  0  0  0  0  3  0  0  0  0  0  0
  -23.6070   -8.3090   22.1450 C   0  0  0  0  0  3  0  0  0  0  0  0
  -22.4530   -8.0600   21.3670 C   0  0  0  0  0  0  0  0  0  0  0  0
  -22.0510   -9.0100   20.4110 C   0  0  0  0  0  3  0  0  0  0  0  0
  -22.7730  -10.2040   20.2410 C   0  0  0  0  0  3  0  0  0  0  0  0
  -21.7050   -6.9090   21.4430 O   0  0  0  0  0  0  0  0  0  0  0  0
  -21.6240   -6.1790   22.6000 C   0  0  0  0  0  0  0  0  0  0  0  0
  -21.0880   -6.7230   23.7890 C   0  0  0  0  0  3  0  0  0  0  0  0
  -20.9580   -5.9180   24.9370 C   0  0  0  0  0  3  0  0  0  0  0  0
  -21.3530   -4.5670   24.8980 C   0  0  0  0  0  0  0  0  0  0  0  0
  -21.8820   -4.0210   23.7150 C   0  0  0  0  0  3  0  0  0  0  0  0
  -22.0130   -4.8250   22.5690 C   0  0  0  0  0  0  0  0  0  0  0  0
  -22.5040   -4.2890   21.4250 F   0  0  0  0  0  0  0  0  0  0  0  0
  -21.2210   -3.7900   25.9980 F   0  0  0  0  0  0  0  0  0  0  0  0
  -22.7580  -13.5560   21.1560 C   0  0  0  0  0  0  0  0  0  0  0  0
  -22.0280  -12.8520   22.0120 N   0  0  0  0  0  0  0  0  0  0  0  0
  -22.3190  -14.5830   20.6390 O   0  0  0  0  0  0  0  0  0  0  0  0
  -22.3960  -12.0220   22.4530 H   0  0  0  0  0  0  0  0  0  0  0  0
  -21.0890  -13.1500   22.2340 H   0  0  0  0  0  0  0  0  0  0  0  0
  -25.3790  -15.2410   20.3570 N   0  0  0  0  0  0  0  0  0  0  0  0
  -24.6020  -15.8840   20.4670 H   0  0  0  0  0  0  0  0  0  0  0  0
  -26.2120  -15.6870   19.9990 H   0  0  0  0  0  0  0  0  0  0  0  0
  -28.3030  -26.4600   20.2600 O   0  0  0  0  0  0  0  0  0  0  0  0
  -24.5850  -31.9470   23.2510 C   0  0  0  0  0  0  0  0  0  0  0  0
  -27.1780  -27.3180   20.2330 C   0  0  0  0  0  0  0  0  0  0  0  0
  -23.3760  -30.5400   21.6220 C   0  0  0  0  0  3  0  0  0  0  0  0
  -24.8200  -28.9650   20.2080 C   0  0  0  0  0  0  0  0  0  0  0  0
  -25.9190  -30.8390   21.4360 C   0  0  0  0  0  2  0  0  0  0  0  0
  -25.9930  -29.4510   20.7980 C   0  0  0  0  0  0  0  0  0  0  0  0
  -27.1760  -28.6430   20.7910 C   0  0  0  0  0  3  0  0  0  0  0  0
  -25.9760  -26.8900   19.6310 C   0  0  0  0  0  3  0  0  0  0  0  0
  -24.8160  -27.6920   19.6140 C   0  0  0  0  0  3  0  0  0  0  0  0
  -23.5880  -29.8500   20.2470 C   0  0  0  0  0  2  0  0  0  0  0  0
  -24.6460  -31.1290   22.1590 N   0  0  0  0  0  0  0  0  0  0  0  0
  -23.5030  -32.2340   23.7840 O   0  0  0  0  0  0  0  0  0  0  0  0
  -22.7080  -29.5360   22.5920 C   0  0  0  0  0  0  0  0  0  0  0  0
  -21.3830  -29.3540   22.4590 N   0  0  0  0  0  0  0  0  0  0  0  0
  -23.3820  -28.9230   23.4240 O   0  0  0  0  0  0  0  0  0  0  0  0
  -20.8980  -29.9010   21.7620 H   0  0  0  0  0  0  0  0  0  0  0  0
  -18.0020  -28.1650   22.9650 C   0  0  0  0  0  0  0  0  0  0  0  0
  -20.5610  -28.4240   23.2350 C   0  0  0  0  0  3  0  0  0  0  0  0
  -20.6610  -26.9880   22.6690 C   0  0  0  0  0  2  0  0  0  0  0  0
  -19.5580  -26.6600   21.6560 C   0  0  0  0  0  2  0  0  0  0  0  0
  -18.1780  -26.8110   22.2980 C   0  0  0  0  0  2  0  0  0  0  0  0
  -19.1230  -28.9290   23.3910 C   0  0  0  0  0  0  0  0  0  0  0  0
  -18.9050  -30.1950   23.9770 C   0  0  0  0  0  3  0  0  0  0  0  0
  -17.6010  -30.6990   24.1390 C   0  0  0  0  0  3  0  0  0  0  0  0
  -16.4960  -29.9330   23.7290 C   0  0  0  0  0  3  0  0  0  0  0  0
  -16.6970  -28.6680   23.1490 C   0  0  0  0  0  3  0  0  0  0  0  0
  -25.8690  -32.5800   23.8710 C   0  0  0  0  0  3  0  0  0  0  0  0
  -25.5650  -33.9830   24.1890 N   0  0  0  0  0  0  0  0  0  0  0  0
  -25.8940  -35.0290   23.4200 C   0  0  0  0  0  0  0  0  0  0  0  0
  -26.5570  -34.9150   22.3850 O   0  0  0  0  0  0  0  0  0  0  0  0
  -24.9750  -34.1460   24.9920 H   0  0  0  0  0  0  0  0  0  0  0  0
  -24.1720  -36.8280   23.0600 C   0  0  0  0  0  1  0  0  0  0  0  0
  -25.4150  -36.4220   23.8700 C   0  0  0  0  0  3  0  0  0  0  0  0
  -27.5530  -37.3070   24.6930 C   0  0  0  0  0  1  0  0  0  0  0  0
  -26.4510  -37.4720   23.7490 N   0  0  0  0  0  0  0  0  0  0  0  0
  -26.0460  -38.3930   23.8910 H   0  0  0  0  0  0  0  0  0  0  0  0
  -26.3800  -31.8190   25.1550 C   0  0  1  0  0  0  0  0  0  0  0  0
  -25.2830  -31.5920   26.2220 C   0  0  0  0  0  1  0  0  0  0  0  0
  -26.9640  -30.4370   24.7790 C   0  0  0  0  0  1  0  0  0  0  0  0
  -27.5290  -32.6180   25.8160 C   0  0  0  0  0  1  0  0  0  0  0  0
  1  3  1  0
  2 11  1  0
  2  1  2  0
  4  2  1  0
  5  4  1  0
  5  6  1  0
  6 51  1  0
  6  3  1  0
  7  9  1  0
  8 10  2  0
  8 11  1  0
 10 12  1  0
 11  7  2  0
 12 21  1  0
 12  9  2  0
 13 21  1  0
 14 19  1  0
 15 16  1  0
 15 14  1  0
 17 16  1  0
 17 26  1  0
 17 18  1  0
 19 13  1  0
 19 18  1  0
 20 13  2  0
 21 22  1  0
 23 24  2  0
 24 43  1  0
 25 24  1  0
 25 28  1  0
 26 23  1  0
 26 27  1  0
 27 25  2  0
 28 29  1  0
 29 30  2  0
 31 34  1  0
 31 30  1  0
 32 31  2  0
 33 32  1  0
 33 28  2  0
 34 35  1  0
 35 36  1  0
 36 37  2  0
 38 37  1  0
 38 42  1  0
 39 38  2  0
 40 35  2  0
 40 39  1  0
 41 40  1  0
 43 44  1  0
 44 47  1  0
 44 46  1  0
 45 43  2  0
 48 49  1  0
 48 23  1  0
 50 48  1  0
 52 63  2  0
 53 51  1  0
 53 58  1  0
 54 62  1  0
 54 64  1  0
 55 61  1  0
 55 57  1  0
 56 62  1  0
 57 56  1  0
 58 57  2  0
 59 53  2  0
 60 59  1  0
 60 55  2  0
 61 54  1  0
 62 52  1  0
 64 66  2  0
 65 64  1  0
 67 65  1  0
 68 77  2  0
 68 73  1  0
 69 65  1  0
 69 73  1  0
 70 69  1  0
 71 72  1  0
 71 70  1  0
 72 68  1  0
 73 74  2  0
 74 75  1  0
 76 75  2  0
 77 76  1  0
 78 52  1  0
 78 79  1  0
 78 88  1  0
 79 82  1  0
 80 84  1  0
 80 79  1  0
 81 80  2  0
 84 83  1  0
 86 84  1  0
 86 87  1  0
 86 85  1  0
 88 91  1  1
 88 89  1  0
 90 88  1  0
M  ISO  4   6 101  13 100  21 100  51 101
M  END
>  <TORSDO>  (2) 
F 17

>  <SCORE>  (2) 
-15.319

>  <name>  (2) 
1

>  <ligand_id>  (2) 
1

>  <original_smiles>  (2) 
[H]C1=C(c2c([H])c([H])c(N([H])C(=O)N3C([H])([H])C([H])([H])C([H])([H])C([H])(n4nc(-c5c([H])c([H])c(Oc6c([H])c([H])c(F)c([H])c6F)c([H])c5[H])c(C(=O)N([H])[H])c4N([H])[H])C3([H])[H])c([H])c2[H])C([H])([H])C([H])([H])C([H])(Oc2c([H])c([H])c3c(c2[H])C([H])([H])N(C(=O)C([H])(N([H])C(=O)C([H])(N([H])C([H])([H])[H])C([H])([H])[H])C(C([H])([H])[H])(C([H])([H])[H])C([H])([H])[H])C([H])(C(=O)N([H])C2([H])c4c([H])c([H])c([H])c([H])c4C([H])([H])C([H])([H])C2([H])[H])C3([H])[H])C1([H])[H]

>  <smiles>  (2) 
[H]C1=C(c2c([H])c([H])c(N([H])C(=O)N3C([H])([H])C([H])([H])C([H])([H])C([H])(n4nc(-c5c([H])c([H])c(Oc6c([H])c([H])c(F)c([H])c6F)c([H])c5[H])c(C(=O)N([H])[H])c4N([H])[H])C3([H])[H])c([H])c2[H])C([H])([H])C([H])([H])C([H])(Oc2c([H])c([H])c3c(c2[H])C([H])([H])N(C(=O)C([H])(N([H])C(=O)C([H])(N([H])C([H])([H])[H])C([H])([H])[H])C(C([H])([H])[H])(C([H])([H])[H])C([H])([H])[H])C([H])(C(=O)N([H])C2([H])c4c([H])c([H])c([H])c([H])c4C([H])([H])C([H])([H])C2([H])[H])C3([H])[H])C1([H])[H]

$$$$
2:0:0
     RDKit          3D

 90100  0  0  1  0  0  0  0  0999 V2000
  -30.5610  -18.6750   20.5600 C   0  0  0  0  0  0  0  0  0  0  0  0
  -28.8320  -18.4060   19.1810 C   0  0  0  0  0  2  0  0  0  0  0  0
  -29.6360  -22.6700   19.2000 C   0  0  0  0  0  2  0  0  0  0  0  0
  -28.3670  -21.9600   20.7180 C   0  0  0  0  0  2  0  0  0  0  0  0
  -30.4910  -20.0860   19.8880 C   0  0  0  0  0  3  0  0  0  0  0  0
  -30.0710  -17.5150   19.6100 C   0  0  0  0  0  3  0  0  0  0  0  0
  -29.3130  -19.9070   18.9360 C   0  0  0  0  0  3  0  0  0  0  0  0
  -28.4410  -23.3770   19.9620 C   0  0  0  0  0  3  0  0  0  0  0  0
  -29.4060  -21.2340   19.7980 C   0  0  2  0  0  0  0  0  0  0  0  0
  -31.0220  -18.5040   21.6940 O   0  0  0  0  0  0  0  0  0  0  0  0
  -30.5720  -14.9080   20.2190 C   0  0  0  0  0  0  0  0  0  0  0  0
  -30.3900  -12.5700   19.3420 C   0  0  0  0  0  2  0  0  0  0  0  0
  -29.4430  -12.5810   18.1240 C   0  0  0  0  0  2  0  0  0  0  0  0
  -27.9780  -12.3970   18.5610 C   0  0  0  0  0  2  0  0  0  0  0  0
  -27.5930  -13.3060   19.7550 C   0  0  0  0  0  3  0  0  0  0  0  0
  -28.6670  -13.3050   20.8640 C   0  0  0  0  0  2  0  0  0  0  0  0
  -29.9530  -13.6680   20.2420 N   0  0  0  0  0  0  0  0  0  0  0  0
  -31.7820  -14.9630   19.9950 O   0  0  0  0  0  0  0  0  0  0  0  0
  -29.7850  -16.0740   20.1540 N   0  0  0  0  0  0  0  0  0  0  0  0
  -28.8050  -15.8740   20.2760 H   0  0  0  0  0  0  0  0  0  0  0  0
  -25.2080  -13.8770   20.5170 C   0  0  0  0  0  0  0  0  0  0  0  0
  -24.1510  -13.0960   20.8910 C   0  0  0  0  0  0  0  0  0  0  0  0
  -24.6180  -11.7460   20.8550 C   0  0  0  0  0  0  0  0  0  0  0  0
  -26.2600  -13.0030   20.2710 N   0  0  0  0  0  0  0  0  0  0  0  0
  -25.9090  -11.7180   20.5390 N   0  0  0  0  0  0  0  0  0  0  0  0
  -23.8960  -10.4830   21.0460 C   0  0  0  0  0  0  0  0  0  0  0  0
  -24.3290   -9.5180   21.9810 C   0  0  0  0  0  3  0  0  0  0  0  0
  -23.6070   -8.3180   22.1590 C   0  0  0  0  0  3  0  0  0  0  0  0
  -22.4380   -8.0750   21.4010 C   0  0  0  0  0  0  0  0  0  0  0  0
  -22.0210   -9.0280   20.4560 C   0  0  0  0  0  3  0  0  0  0  0  0
  -22.7430  -10.2200   20.2760 C   0  0  0  0  0  3  0  0  0  0  0  0
  -21.6840   -6.9300   21.4890 O   0  0  0  0  0  0  0  0  0  0  0  0
  -21.6310   -6.1870   22.6420 C   0  0  0  0  0  0  0  0  0  0  0  0
  -21.1900   -6.7420   23.8630 C   0  0  0  0  0  3  0  0  0  0  0  0
  -21.0860   -5.9260   25.0100 C   0  0  0  0  0  3  0  0  0  0  0  0
  -21.4100   -4.5590   24.9310 C   0  0  0  0  0  0  0  0  0  0  0  0
  -21.8440   -4.0060   23.7150 C   0  0  0  0  0  3  0  0  0  0  0  0
  -21.9500   -4.8160   22.5740 C   0  0  0  0  0  0  0  0  0  0  0  0
  -22.3480   -4.2750   21.3960 F   0  0  0  0  0  0  0  0  0  0  0  0
  -21.3030   -3.7750   26.0300 F   0  0  0  0  0  0  0  0  0  0  0  0
  -22.7520  -13.5650   21.1690 C   0  0  0  0  0  0  0  0  0  0  0  0
  -22.0240  -12.8650   22.0310 N   0  0  0  0  0  0  0  0  0  0  0  0
  -22.3090  -14.5880   20.6490 O   0  0  0  0  0  0  0  0  0  0  0  0
  -22.3980  -12.0370   22.4720 H   0  0  0  0  0  0  0  0  0  0  0  0
  -21.0850  -13.1600   22.2560 H   0  0  0  0  0  0  0  0  0  0  0  0
  -25.3630  -15.2480   20.3380 N   0  0  0  0  0  0  0  0  0  0  0  0
  -24.5780  -15.8810   20.4430 H   0  0  0  0  0  0  0  0  0  0  0  0
  -26.1930  -15.6950   19.9740 H   0  0  0  0  0  0  0  0  0  0  0  0
  -28.3920  -24.8760   20.7150 C   0  0  0  0  0  2  0  0  0  0  0  0
  -28.3700  -26.3210   20.1810 O   0  0  0  0  0  0  0  0  0  0  0  0
  -24.6090  -31.8970   23.2580 C   0  0  0  0  0  0  0  0  0  0  0  0
  -27.2470  -27.2090   20.2630 C   0  0  0  0  0  0  0  0  0  0  0  0
  -23.4220  -30.4870   21.6210 C   0  0  0  0  0  3  0  0  0  0  0  0
  -24.8870  -28.8950   20.2330 C   0  0  0  0  0  0  0  0  0  0  0  0
  -25.9750  -30.7670   21.4660 C   0  0  0  0  0  2  0  0  0  0  0  0
  -26.0600  -29.3730   20.8290 C   0  0  0  0  0  0  0  0  0  0  0  0
  -27.2440  -28.5450   20.8230 C   0  0  0  0  0  3  0  0  0  0  0  0
  -26.0380  -26.8030   19.6630 C   0  0  0  0  0  3  0  0  0  0  0  0
  -24.8830  -27.6220   19.6440 C   0  0  0  0  0  3  0  0  0  0  0  0
  -23.6560  -29.7910   20.2540 C   0  0  0  0  0  2  0  0  0  0  0  0
  -24.6880  -31.0770   22.1690 N   0  0  0  0  0  0  0  0  0  0  0  0
  -23.5210  -32.1870   23.7760 O   0  0  0  0  0  0  0  0  0  0  0  0
  -22.7380  -29.4930   22.5910 C   0  0  0  0  0  0  0  0  0  0  0  0
  -21.4110  -29.3210   22.4550 N   0  0  0  0  0  0  0  0  0  0  0  0
  -23.4090  -28.8710   23.4180 O   0  0  0  0  0  0  0  0  0  0  0  0
  -20.9250  -29.8710   21.7590 H   0  0  0  0  0  0  0  0  0  0  0  0
  -18.0310  -28.1280   22.9480 C   0  0  0  0  0  0  0  0  0  0  0  0
  -20.5890  -28.3880   23.2300 C   0  0  0  0  0  3  0  0  0  0  0  0
  -20.6950  -26.9520   22.6630 C   0  0  0  0  0  2  0  0  0  0  0  0
  -19.5980  -26.6290   21.6450 C   0  0  0  0  0  2  0  0  0  0  0  0
  -18.2100  -26.7770   22.2750 C   0  0  0  0  0  2  0  0  0  0  0  0
  -19.1490  -28.8920   23.3790 C   0  0  0  0  0  0  0  0  0  0  0  0
  -18.9310  -30.1550   23.9670 C   0  0  0  0  0  3  0  0  0  0  0  0
  -17.6230  -30.6570   24.1280 C   0  0  0  0  0  3  0  0  0  0  0  0
  -16.5220  -29.8920   23.7090 C   0  0  0  0  0  3  0  0  0  0  0  0
  -16.7230  -28.6280   23.1280 C   0  0  0  0  0  3  0  0  0  0  0  0
  -25.8800  -32.5410   23.8910 C   0  0  0  0  0  3  0  0  0  0  0  0
  -25.5680  -33.9460   24.1990 N   0  0  0  0  0  0  0  0  0  0  0  0
  -25.9120  -34.9920   23.4360 C   0  0  0  0  0  0  0  0  0  0  0  0
  -26.5880  -34.8750   22.4090 O   0  0  0  0  0  0  0  0  0  0  0  0
  -24.9640  -34.1080   24.9920 H   0  0  0  0  0  0  0  0  0  0  0  0
  -24.1900  -36.7890   23.0470 C   0  0  0  0  0  1  0  0  0  0  0  0
  -25.4220  -36.3870   23.8730 C   0  0  0  0  0  3  0  0  0  0  0  0
  -27.5520  -37.2770   24.7160 C   0  0  0  0  0  1  0  0  0  0  0  0
  -26.4580  -37.4340   23.7620 N   0  0  0  0  0  0  0  0  0  0  0  0
  -26.0550  -38.3560   23.8900 H   0  0  0  0  0  0  0  0  0  0  0  0
  -26.3800  -31.7900   25.1880 C   0  0  1  0  0  0  0  0  0  0  0  0
  -25.2700  -31.5750   26.2430 C   0  0  0  0  0  1  0  0  0  0  0  0
  -26.9640  -30.4000   24.8340 C   0  0  0  0  0  1  0  0  0  0  0  0
  -27.5200  -32.5960   25.8560 C   0  0  0  0  0  1  0  0  0  0  0  0
  1 10  2  0
  2  6  1  0
  3  8  1  0
  5  1  1  0
  6 19  1  0
  6  1  1  0
  7  2  1  0
  7  9  1  0
  7  5  1  0
  8 49  1  0
  8  4  1  0
  9  3  1  6
  9  5  1  0
  9  4  1  0
 11 17  1  0
 12 17  1  0
 13 14  1  0
 13 12  1  0
 15 14  1  0
 15 24  1  0
 15 16  1  0
 17 16  1  0
 18 11  2  0
 19 11  1  0
 19 20  1  0
 21 22  2  0
 22 41  1  0
 23 22  1  0
 23 26  1  0
 24 21  1  0
 24 25  1  0
 25 23  2  0
 26 27  1  0
 27 28  2  0
 29 32  1  0
 29 28  1  0
 30 29  2  0
 31 30  1  0
 31 26  2  0
 32 33  1  0
 33 34  1  0
 34 35  2  0
 36 35  1  0
 36 40  1  0
 37 36  2  0
 38 33  2  0
 38 37  1  0
 39 38  1  0
 41 42  1  0
 42 45  1  0
 42 44  1  0
 43 41  2  0
 46 47  1  0
 46 21  1  0
 48 46  1  0
 50 52  1  0
 50 49  1  0
 51 62  2  0
 52 57  1  0
 53 61  1  0
 53 63  1  0
 54 60  1  0
 54 56  1  0
 55 61  1  0
 56 55  1  0
 57 56  2  0
 58 52  2  0
 59 58  1  0
 59 54  2  0
 60 53  1  0
 61 51  1  0
 63 65  2  0
 64 63  1  0
 66 64  1  0
 67 76  2  0
 67 72  1  0
 68 64  1  0
 68 72  1  0
 69 68  1  0
 70 71  1  0
 70 69  1  0
 71 67  1  0
 72 73  2  0
 73 74  1  0
 75 74  2  0
 76 75  1  0
 77 51  1  0
 77 78  1  0
 77 87  1  0
 78 81  1  0
 79 83  1  0
 79 78  1  0
 80 79  2  0
 83 82  1  0
 85 83  1  0
 85 86  1  0
 85 84  1  0
 87 90  1  1
 87 88  1  0
 89 87  1  0
M  ISO  4  11 100  19 100  49 101  50 101
M  END
>  <TORSDO>  (3) 
F 17

>  <SCORE>  (3) 
-15.158

>  <name>  (3) 
2

>  <ligand_id>  (3) 
2

>  <original_smiles>  (3) 
[H]c1c([H])c([H])c2c(c1[H])C([H])([H])C([H])([H])C([H])([H])C2([H])N([H])C(=O)C1([H])N(C(=O)C([H])(N([H])C(=O)C([H])(N([H])C([H])([H])[H])C([H])([H])[H])C(C([H])([H])[H])(C([H])([H])[H])C([H])([H])[H])C([H])([H])c2c([H])c(OC([H])([H])C3([H])C([H])([H])C4(C3([H])[H])C3([H])C(=O)C([H])(N([H])C(=O)N5C([H])([H])C([H])([H])C([H])([H])C([H])(n6nc(-c7c([H])c([H])c(Oc8c([H])c([H])c(F)c([H])c8F)c([H])c7[H])c(C(=O)N([H])[H])c6N([H])[H])C5([H])[H])C([H])([H])C34[H])c([H])c([H])c2C1([H])[H]

>  <smiles>  (3) 
[H]c1c([H])c([H])c2c(c1[H])C([H])([H])C([H])([H])C([H])([H])C2([H])N([H])C(=O)C1([H])N(C(=O)C([H])(N([H])C(=O)C([H])(N([H])C([H])([H])[H])C([H])([H])[H])C(C([H])([H])[H])(C([H])([H])[H])C([H])([H])[H])C([H])([H])c2c([H])c(OC([H])([H])C3([H])C([H])([H])C4(C3([H])[H])C3([H])C(=O)C([H])(N([H])C(=O)N5C([H])([H])C([H])([H])C([H])([H])C([H])(n6nc(-c7c([H])c([H])c(Oc8c([H])c([H])c(F)c([H])c8F)c([H])c7[H])c(C(=O)N([H])[H])c6N([H])[H])C5([H])[H])C([H])([H])C34[H])c([H])c([H])c2C1([H])[H]

$$$$
3:0:0
     RDKit          3D

 94103  0  0  1  0  0  0  0  0999 V2000
  -31.0380  -21.9390   20.6630 C   0  0  0  0  0  2  0  0  0  0  0  0
  -28.9990  -21.6930   19.2180 C   0  0  0  0  0  2  0  0  0  0  0  0
  -31.2110  -23.3980   20.2030 C   0  0  0  0  0  2  0  0  0  0  0  0
  -29.1310  -23.1490   18.7400 C   0  0  0  0  0  2  0  0  0  0  0  0
  -30.3810  -21.1080   19.5480 C   0  0  0  0  0  3  0  0  0  0  0  0
  -29.8840  -24.0520   19.7490 C   0  0  0  0  0  3  0  0  0  0  0  0
  -29.7090  -19.1510   21.0360 C   0  0  0  0  0  3  0  0  0  0  0  0
  -29.6370  -17.7740   21.3350 C   0  0  0  0  0  3  0  0  0  0  0  0
  -30.7990  -17.2810   19.2600 C   0  0  0  0  0  3  0  0  0  0  0  0
  -30.3310  -19.6090   19.8510 C   0  0  0  0  0  0  0  0  0  0  0  0
  -30.8800  -18.6540   18.9560 C   0  0  0  0  0  0  0  0  0  0  0  0
  -30.1940  -16.8240   20.4550 C   0  0  0  0  0  0  0  0  0  0  0  0
  -31.5590  -19.0580   17.6540 C   0  0  0  0  0  1  0  0  0  0  0  0
  -30.7460  -14.4200   20.2080 C   0  0  0  0  0  0  0  0  0  0  0  0
  -30.3650  -12.3160   19.0090 C   0  0  0  0  0  2  0  0  0  0  0  0
  -29.3890  -12.6050   17.8510 C   0  0  0  0  0  2  0  0  0  0  0  0
  -27.9280  -12.4770   18.3260 C   0  0  0  0  0  2  0  0  0  0  0  0
  -27.6510  -13.2610   19.6370 C   0  0  0  0  0  3  0  0  0  0  0  0
  -28.7410  -12.9720   20.6950 C   0  0  0  0  0  2  0  0  0  0  0  0
  -30.0530  -13.2590   20.0930 N   0  0  0  0  0  0  0  0  0  0  0  0
  -31.8700  -14.5800   19.7260 O   0  0  0  0  0  0  0  0  0  0  0  0
  -30.0670  -15.4370   20.7680 N   0  0  0  0  0  0  0  0  0  0  0  0
  -29.2520  -15.1730   21.2990 H   0  0  0  0  0  0  0  0  0  0  0  0
  -25.2730  -13.8660   20.4160 C   0  0  0  0  0  0  0  0  0  0  0  0
  -24.2150  -13.0910   20.8120 C   0  0  0  0  0  0  0  0  0  0  0  0
  -24.6760  -11.7390   20.7600 C   0  0  0  0  0  0  0  0  0  0  0  0
  -26.3110  -12.9860   20.1510 N   0  0  0  0  0  0  0  0  0  0  0  0
  -25.9570  -11.7020   20.4140 N   0  0  0  0  0  0  0  0  0  0  0  0
  -23.9560  -10.4760   20.9660 C   0  0  0  0  0  0  0  0  0  0  0  0
  -24.4070   -9.5120   21.8950 C   0  0  0  0  0  3  0  0  0  0  0  0
  -23.6880   -8.3130   22.0890 C   0  0  0  0  0  3  0  0  0  0  0  0
  -22.5050   -8.0690   21.3530 C   0  0  0  0  0  0  0  0  0  0  0  0
  -22.0730   -9.0210   20.4140 C   0  0  0  0  0  3  0  0  0  0  0  0
  -22.7910  -10.2110   20.2180 C   0  0  0  0  0  3  0  0  0  0  0  0
  -21.7570   -6.9210   21.4560 O   0  0  0  0  0  0  0  0  0  0  0  0
  -21.7170   -6.1870   22.6150 C   0  0  0  0  0  0  0  0  0  0  0  0
  -21.2870   -6.7480   23.8370 C   0  0  0  0  0  3  0  0  0  0  0  0
  -21.1970   -5.9400   24.9890 C   0  0  0  0  0  3  0  0  0  0  0  0
  -21.5270   -4.5730   24.9190 C   0  0  0  0  0  0  0  0  0  0  0  0
  -21.9510   -4.0120   23.7010 C   0  0  0  0  0  3  0  0  0  0  0  0
  -22.0430   -4.8180   22.5510 C   0  0  0  0  0  0  0  0  0  0  0  0
  -22.4320   -4.2670   21.3770 F   0  0  0  0  0  0  0  0  0  0  0  0
  -21.4340   -3.7950   26.0220 F   0  0  0  0  0  0  0  0  0  0  0  0
  -22.8260  -13.5660   21.1300 C   0  0  0  0  0  0  0  0  0  0  0  0
  -22.1260  -12.8620   22.0120 N   0  0  0  0  0  0  0  0  0  0  0  0
  -22.3730  -14.5940   20.6320 O   0  0  0  0  0  0  0  0  0  0  0  0
  -22.5060  -12.0290   22.4370 H   0  0  0  0  0  0  0  0  0  0  0  0
  -21.1960  -13.1590   22.2670 H   0  0  0  0  0  0  0  0  0  0  0  0
  -25.4340  -15.2370   20.2430 N   0  0  0  0  0  0  0  0  0  0  0  0
  -24.6730  -15.8940   20.3830 H   0  0  0  0  0  0  0  0  0  0  0  0
  -26.2800  -15.6780   19.9040 H   0  0  0  0  0  0  0  0  0  0  0  0
  -30.1700  -25.4510   19.1570 C   0  0  0  0  0  2  0  0  0  0  0  0
  -28.9260  -26.3160   18.9050 C   0  0  0  0  0  2  0  0  0  0  0  0
  -28.4470  -26.7890   20.1570 O   0  0  0  0  0  0  0  0  0  0  0  0
  -24.5730  -31.8770   23.2190 C   0  0  0  0  0  0  0  0  0  0  0  0
  -27.2620  -27.4790   20.1360 C   0  0  0  0  0  0  0  0  0  0  0  0
  -23.3790  -30.4680   21.5700 C   0  0  0  0  0  3  0  0  0  0  0  0
  -24.8470  -28.9390   20.1510 C   0  0  0  0  0  0  0  0  0  0  0  0
  -25.9000  -30.8460   21.3830 C   0  0  0  0  0  2  0  0  0  0  0  0
  -25.9950  -29.4760   20.7490 C   0  0  0  0  0  0  0  0  0  0  0  0
  -27.2010  -28.7450   20.7540 C   0  0  0  0  0  3  0  0  0  0  0  0
  -26.0950  -26.9400   19.5500 C   0  0  0  0  0  3  0  0  0  0  0  0
  -24.8890  -27.6660   19.5550 C   0  0  0  0  0  3  0  0  0  0  0  0
  -23.5960  -29.7880   20.1910 C   0  0  0  0  0  2  0  0  0  0  0  0
  -24.6350  -31.0790   22.1150 N   0  0  0  0  0  0  0  0  0  0  0  0
  -23.4880  -32.1440   23.7550 O   0  0  0  0  0  0  0  0  0  0  0  0
  -22.7320  -29.4430   22.5280 C   0  0  0  0  0  0  0  0  0  0  0  0
  -21.4070  -29.2640   22.4060 N   0  0  0  0  0  0  0  0  0  0  0  0
  -23.4180  -28.8110   23.3360 O   0  0  0  0  0  0  0  0  0  0  0  0
  -20.9150  -29.8270   21.7260 H   0  0  0  0  0  0  0  0  0  0  0  0
  -18.0270  -28.0990   22.9240 C   0  0  0  0  0  0  0  0  0  0  0  0
  -20.5890  -28.3260   23.1740 C   0  0  0  0  0  3  0  0  0  0  0  0
  -20.6720  -26.9010   22.5800 C   0  0  0  0  0  2  0  0  0  0  0  0
  -19.5570  -26.6010   21.5730 C   0  0  0  0  0  2  0  0  0  0  0  0
  -18.1830  -26.7550   22.2320 C   0  0  0  0  0  2  0  0  0  0  0  0
  -19.1580  -28.8440   23.3510 C   0  0  0  0  0  0  0  0  0  0  0  0
  -18.9600  -30.1030   23.9570 C   0  0  0  0  0  3  0  0  0  0  0  0
  -17.6620  -30.6180   24.1400 C   0  0  0  0  0  3  0  0  0  0  0  0
  -16.5450  -29.8690   23.7300 C   0  0  0  0  0  3  0  0  0  0  0  0
  -16.7290  -28.6110   23.1280 C   0  0  0  0  0  3  0  0  0  0  0  0
  -25.8550  -32.5120   23.8430 C   0  0  0  0  0  3  0  0  0  0  0  0
  -26.3750  -31.7390   25.1170 C   0  0  1  0  0  0  0  0  0  0  0  0
  -25.2830  -31.4950   26.1850 C   0  0  0  0  0  1  0  0  0  0  0  0
  -26.9640  -30.3650   24.7190 C   0  0  0  0  0  1  0  0  0  0  0  0
  -27.5230  -32.5370   25.7820 C   0  0  0  0  0  1  0  0  0  0  0  0
  -25.5430  -33.9080   24.1720 N   0  0  0  0  0  0  0  0  0  0  0  0
  -25.8770  -34.9610   23.4140 C   0  0  0  0  0  0  0  0  0  0  0  0
  -26.5550  -34.8590   22.3870 O   0  0  0  0  0  0  0  0  0  0  0  0
  -24.9430  -34.0610   24.9700 H   0  0  0  0  0  0  0  0  0  0  0  0
  -24.1500  -36.7480   23.0370 C   0  0  0  0  0  1  0  0  0  0  0  0
  -25.3800  -36.3480   23.8670 C   0  0  0  0  0  3  0  0  0  0  0  0
  -27.4990  -37.2340   24.7310 C   0  0  0  0  0  1  0  0  0  0  0  0
  -26.4120  -37.4030   23.7700 N   0  0  0  0  0  0  0  0  0  0  0  0
  -26.0030  -38.3220   23.9100 H   0  0  0  0  0  0  0  0  0  0  0  0
  2  5  1  0
  3  1  1  0
  4  2  1  0
  4  6  1  0
  5 10  1  0
  5  1  1  0
  6 52  1  0
  6  3  1  0
  7  8  1  0
  9 12  1  0
 10  7  2  0
 11  9  2  0
 11 10  1  0
 12 22  1  0
 12  8  2  0
 13 11  1  0
 14 22  1  0
 15 20  1  0
 16 17  1  0
 16 15  1  0
 18 17  1  0
 18 27  1  0
 18 19  1  0
 20 14  1  0
 20 19  1  0
 21 14  2  0
 22 23  1  0
 24 25  2  0
 25 44  1  0
 26 25  1  0
 26 29  1  0
 27 28  1  0
 27 24  1  0
 28 26  2  0
 29 30  1  0
 30 31  2  0
 32 35  1  0
 32 31  1  0
 33 32  2  0
 34 33  1  0
 34 29  2  0
 35 36  1  0
 36 37  1  0
 37 38  2  0
 39 38  1  0
 39 43  1  0
 40 39  2  0
 41 36  2  0
 41 40  1  0
 42 41  1  0
 44 45  1  0
 45 48  1  0
 45 47  1  0
 46 44  2  0
 49 50  1  0
 49 24  1  0
 51 49  1  0
 53 52  1  0
 53 54  1  0
 55 66  2  0
 56 54  1  0
 56 61  1  0
 57 65  1  0
 57 67  1  0
 58 64  1  0
 58 60  1  0
 59 65  1  0
 60 61  2  0
 60 59  1  0
 62 63  1  0
 62 56  2  0
 63 58  2  0
 64 57  1  0
 65 55  1  0
 67 69  2  0
 68 67  1  0
 70 68  1  0
 71 80  2  0
 71 76  1  0
 72 68  1  0
 72 76  1  0
 73 72  1  0
 74 75  1  0
 74 73  1  0
 75 71  1  0
 76 77  2  0
 77 78  1  0
 79 78  2  0
 80 79  1  0
 81 55  1  0
 81 86  1  0
 81 82  1  0
 82 85  1  1
 82 83  1  0
 84 82  1  0
 86 89  1  0
 87 91  1  0
 87 86  1  0
 88 87  2  0
 91 90  1  0
 93 91  1  0
 93 94  1  0
 93 92  1  0
M  ISO  4  14 100  22 100  53 101  54 101
M  END
>  <TORSDO>  (4) 
F 19

>  <SCORE>  (4) 
-14.148

>  <name>  (4) 
3

>  <ligand_id>  (4) 
3

>  <original_smiles>  (4) 
[H]c1c([H])c([H])c2c(c1[H])C([H])([H])C([H])([H])C([H])([H])C2([H])N([H])C(=O)C1([H])N(C(=O)C([H])(N([H])C(=O)C([H])(N([H])C([H])([H])[H])C([H])([H])[H])C(C([H])([H])[H])(C([H])([H])[H])C([H])([H])[H])C([H])([H])c2c([H])c(OC([H])([H])C([H])([H])C3([H])C([H])([H])C([H])([H])C([H])(c4c([H])c([H])c(N([H])C(=O)N5C([H])([H])C([H])([H])C([H])([H])C([H])(n6nc(-c7c([H])c([H])c(Oc8c([H])c([H])c(F)c([H])c8F)c([H])c7[H])c(C(=O)N([H])[H])c6N([H])[H])C5([H])[H])c([H])c4C([H])([H])[H])C([H])([H])C3([H])[H])c([H])c([H])c2C1([H])[H]

>  <smiles>  (4) 
[H]c1c([H])c([H])c2c(c1[H])C([H])([H])C([H])([H])C([H])([H])C2([H])N([H])C(=O)C1([H])N(C(=O)C([H])(N([H])C(=O)C([H])(N([H])C([H])([H])[H])C([H])([H])[H])C(C([H])([H])[H])(C([H])([H])[H])C([H])([H])[H])C([H])([H])c2c([H])c(OC([H])([H])C([H])([H])C3([H])C([H])([H])C([H])([H])C([H])(c4c([H])c([H])c(N([H])C(=O)N5C([H])([H])C([H])([H])C([H])([H])C([H])(n6nc(-c7c([H])c([H])c(Oc8c([H])c([H])c(F)c([H])c8F)c([H])c7[H])c(C(=O)N([H])[H])c6N([H])[H])C5([H])[H])c([H])c4C([H])([H])[H])C([H])([H])C3([H])[H])c([H])c([H])c2C1([H])[H]

$$$$
4:0:0
     RDKit          3D

 91101  0  0  1  0  0  0  0  0999 V2000
  -31.4390  -15.6480   20.6840 C   0  0  0  0  0  0  0  0  0  0  0  0
  -31.1500  -13.3640   19.4560 C   0  0  0  0  0  2  0  0  0  0  0  0
  -30.2790  -13.3600   18.1780 C   0  0  0  0  0  2  0  0  0  0  0  0
  -28.7990  -13.1600   18.5350 C   0  0  0  0  0  2  0  0  0  0  0  0
  -28.3730  -14.0190   19.7510 C   0  0  0  0  0  3  0  0  0  0  0  0
  -29.3840  -14.0000   20.9210 C   0  0  0  0  0  2  0  0  0  0  0  0
  -30.6780  -14.4700   20.3860 N   0  0  0  0  0  0  0  0  0  0  0  0
  -32.6510  -15.4310   20.5540 O   0  0  0  0  0  0  0  0  0  0  0  0
  -31.8040  -18.3090   21.5130 C   0  0  0  0  0  2  0  0  0  0  0  0
  -30.0430  -18.1400   20.5130 C   0  0  0  0  0  3  0  0  0  0  0  0
  -30.6090  -19.4360   21.3930 C   0  0  0  0  0  3  0  0  0  0  0  0
  -31.0000  -17.0470   21.0480 N   0  0  0  0  0  0  0  0  0  0  0  0
  -29.5880  -17.8370   16.1930 C   0  0  0  0  0  3  0  0  0  0  0  0
  -28.5030  -18.2220   17.0040 C   0  0  0  0  0  3  0  0  0  0  0  0
  -30.8600  -17.6610   16.7640 C   0  0  0  0  0  3  0  0  0  0  0  0
  -28.6750  -18.3760   18.3920 C   0  0  0  0  0  3  0  0  0  0  0  0
  -31.0400  -17.8310   18.1530 C   0  0  0  0  0  3  0  0  0  0  0  0
  -29.9350  -18.1440   18.9860 C   0  0  0  0  0  0  0  0  0  0  0  0
  -25.9730  -14.6680   20.3080 C   0  0  0  0  0  0  0  0  0  0  0  0
  -24.8600  -13.9350   20.6070 C   0  0  0  0  0  0  0  0  0  0  0  0
  -25.2840  -12.5710   20.6530 C   0  0  0  0  0  0  0  0  0  0  0  0
  -27.0030  -13.7550   20.1700 N   0  0  0  0  0  0  0  0  0  0  0  0
  -26.5950  -12.4910   20.4490 N   0  0  0  0  0  0  0  0  0  0  0  0
  -24.4990  -11.3370   20.8080 C   0  0  0  0  0  0  0  0  0  0  0  0
  -24.8450  -10.3460   21.7510 C   0  0  0  0  0  3  0  0  0  0  0  0
  -24.0520   -9.1870   21.8980 C   0  0  0  0  0  3  0  0  0  0  0  0
  -22.8990   -9.0080   21.0990 C   0  0  0  0  0  0  0  0  0  0  0  0
  -22.5710   -9.9890   20.1440 C   0  0  0  0  0  3  0  0  0  0  0  0
  -23.3650  -11.1390   19.9960 C   0  0  0  0  0  3  0  0  0  0  0  0
  -22.0880   -7.9010   21.1540 O   0  0  0  0  0  0  0  0  0  0  0  0
  -21.9680   -7.1480   22.2960 C   0  0  0  0  0  0  0  0  0  0  0  0
  -21.5990   -7.7220   23.5310 C   0  0  0  0  0  3  0  0  0  0  0  0
  -21.4230   -6.9000   24.6630 C   0  0  0  0  0  3  0  0  0  0  0  0
  -21.6050   -5.5100   24.5590 C   0  0  0  0  0  0  0  0  0  0  0  0
  -21.9670   -4.9360   23.3300 C   0  0  0  0  0  3  0  0  0  0  0  0
  -22.1480   -5.7540   22.1970 C   0  0  0  0  0  0  0  0  0  0  0  0
  -22.4740   -5.1910   21.0110 F   0  0  0  0  0  0  0  0  0  0  0  0
  -21.4290   -4.7210   25.6450 F   0  0  0  0  0  0  0  0  0  0  0  0
  -23.4650  -14.4690   20.7390 C   0  0  0  0  0  0  0  0  0  0  0  0
  -22.6450  -13.8390   21.5720 N   0  0  0  0  0  0  0  0  0  0  0  0
  -23.1060  -15.4820   20.1380 O   0  0  0  0  0  0  0  0  0  0  0  0
  -22.9460  -13.0240   22.0860 H   0  0  0  0  0  0  0  0  0  0  0  0
  -21.7040  -14.1830   21.6920 H   0  0  0  0  0  0  0  0  0  0  0  0
  -26.1930  -16.0270   20.1170 N   0  0  0  0  0  0  0  0  0  0  0  0
  -25.4350  -16.6950   20.1640 H   0  0  0  0  0  0  0  0  0  0  0  0
  -27.0690  -16.4430   19.8320 H   0  0  0  0  0  0  0  0  0  0  0  0
  -30.6180  -21.2400   20.9910 C   0  0  0  0  0  2  0  0  0  0  0  0
  -30.6910  -24.0620   21.1770 C   0  0  0  0  0  2  0  0  0  0  0  0
  -29.9460  -22.8080   21.6300 C   0  0  0  0  0  3  0  0  0  0  0  0
  -29.2270  -24.4000   21.0680 C   0  0  0  0  0  3  0  0  0  0  0  0
  -29.0150  -25.9960   21.5630 O   0  0  0  0  0  0  0  0  0  0  0  0
  -24.8030  -32.0490   23.4150 C   0  0  0  0  0  0  0  0  0  0  0  0
  -27.9600  -27.0270   21.2450 C   0  0  0  0  0  0  0  0  0  0  0  0
  -23.8970  -30.4320   21.7940 C   0  0  0  0  0  3  0  0  0  0  0  0
  -25.5950  -28.7870   20.7230 C   0  0  0  0  0  0  0  0  0  0  0  0
  -26.4540  -30.7710   21.9500 C   0  0  0  0  0  2  0  0  0  0  0  0
  -26.6750  -29.3110   21.4470 C   0  0  0  0  0  0  0  0  0  0  0  0
  -27.8450  -28.4490   21.6770 C   0  0  0  0  0  3  0  0  0  0  0  0
  -26.8540  -26.6610   20.4420 C   0  0  0  0  0  3  0  0  0  0  0  0
  -25.7230  -27.4890   20.1950 C   0  0  0  0  0  3  0  0  0  0  0  0
  -24.3320  -29.6300   20.5370 C   0  0  0  0  0  2  0  0  0  0  0  0
  -25.0650  -31.1200   22.4370 N   0  0  0  0  0  0  0  0  0  0  0  0
  -23.6410  -32.3220   23.7640 O   0  0  0  0  0  0  0  0  0  0  0  0
  -23.1310  -29.4990   22.7670 C   0  0  0  0  0  0  0  0  0  0  0  0
  -21.8500  -29.1990   22.4700 N   0  0  0  0  0  0  0  0  0  0  0  0
  -23.7000  -29.0420   23.7600 O   0  0  0  0  0  0  0  0  0  0  0  0
  -21.4420  -29.6120   21.6420 H   0  0  0  0  0  0  0  0  0  0  0  0
  -18.4600  -27.9420   22.7970 C   0  0  0  0  0  0  0  0  0  0  0  0
  -20.9900  -28.2850   23.2300 C   0  0  0  0  0  3  0  0  0  0  0  0
  -21.1630  -26.8260   22.7470 C   0  0  0  0  0  2  0  0  0  0  0  0
  -20.1440  -26.4140   21.6780 C   0  0  0  0  0  2  0  0  0  0  0  0
  -18.7150  -26.5650   22.2070 C   0  0  0  0  0  2  0  0  0  0  0  0
  -19.5300  -28.7540   23.2640 C   0  0  0  0  0  0  0  0  0  0  0  0
  -19.2360  -30.0330   23.7860 C   0  0  0  0  0  3  0  0  0  0  0  0
  -17.9110  -30.5040   23.8410 C   0  0  0  0  0  3  0  0  0  0  0  0
  -16.8570  -29.6930   23.3820 C   0  0  0  0  0  3  0  0  0  0  0  0
  -17.1330  -28.4120   22.8670 C   0  0  0  0  0  3  0  0  0  0  0  0
  -25.9500  -32.8270   24.1290 C   0  0  0  0  0  3  0  0  0  0  0  0
  -25.4850  -34.2080   24.3630 N   0  0  0  0  0  0  0  0  0  0  0  0
  -25.7890  -35.2630   23.5930 C   0  0  0  0  0  0  0  0  0  0  0  0
  -26.5470  -35.1830   22.6240 O   0  0  0  0  0  0  0  0  0  0  0  0
  -24.8170  -34.3420   25.1080 H   0  0  0  0  0  0  0  0  0  0  0  0
  -23.9510  -36.8920   23.0290 C   0  0  0  0  0  1  0  0  0  0  0  0
  -25.1510  -36.6200   23.9520 C   0  0  0  0  0  3  0  0  0  0  0  0
  -27.1620  -37.6840   24.8740 C   0  0  0  0  0  1  0  0  0  0  0  0
  -26.0950  -37.7570   23.8790 N   0  0  0  0  0  0  0  0  0  0  0  0
  -25.6040  -38.6370   24.0050 H   0  0  0  0  0  0  0  0  0  0  0  0
  -26.3960  -32.1660   25.4940 C   0  0  1  0  0  0  0  0  0  0  0  0
  -25.2230  -31.6010   26.3280 C   0  0  0  0  0  1  0  0  0  0  0  0
  -27.3940  -31.0070   25.2560 C   0  0  0  0  0  1  0  0  0  0  0  0
  -27.1430  -33.2090   26.3590 C   0  0  0  0  0  1  0  0  0  0  0  0
  1 12  1  0
  2  7  1  0
  3  4  1  0
  3  2  1  0
  5  4  1  0
  5 22  1  0
  5  6  1  0
  7  1  1  0
  7  6  1  0
  8  1  2  0
 10 18  1  0
 10 12  1  0
 10 11  1  0
 11 47  1  0
 11  9  1  0
 12  9  1  0
 13 15  2  0
 13 14  1  0
 14 16  2  0
 15 17  1  0
 16 18  1  0
 17 18  2  0
 19 20  2  0
 20 21  1  0
 20 39  1  0
 21 24  1  0
 22 19  1  0
 22 23  1  0
 23 21  2  0
 24 25  1  0
 25 26  2  0
 27 30  1  0
 27 26  1  0
 28 27  2  0
 29 28  1  0
 29 24  2  0
 30 31  1  0
 31 32  1  0
 32 33  2  0
 34 33  1  0
 34 38  1  0
 35 34  2  0
 36 31  2  0
 36 35  1  0
 37 36  1  0
 39 40  1  0
 40 43  1  0
 40 42  1  0
 41 39  2  0
 44 45  1  0
 44 19  1  0
 46 44  1  0
 48 49  1  0
 49 47  1  0
 50 48  1  0
 50 51  1  0
 50 49  1  0
 52 63  2  0
 53 51  1  0
 53 58  1  0
 54 62  1  0
 54 64  1  0
 55 57  1  0
 56 62  1  0
 57 58  2  0
 57 56  1  0
 59 53  2  0
 60 59  1  0
 60 55  2  0
 61 55  1  0
 61 54  1  0
 62 52  1  0
 64 66  2  0
 65 64  1  0
 67 65  1  0
 68 77  2  0
 68 73  1  0
 69 65  1  0
 69 73  1  0
 70 69  1  0
 71 72  1  0
 71 70  1  0
 72 68  1  0
 73 74  2  0
 74 75  1  0
 76 75  2  0
 77 76  1  0
 78 52  1  0
 78 79  1  0
 78 88  1  0
 79 82  1  0
 80 84  1  0
 80 79  1  0
 81 80  2  0
 84 83  1  0
 86 84  1  0
 86 87  1  0
 86 85  1  0
 88 89  1  1
 88 91  1  0
 90 88  1  0
M  ISO  4   1 100  12 100  50 101  51 101
M  END
>  <TORSDO>  (5) 
F 18

>  <SCORE>  (5) 
-13.033

>  <name>  (5) 
4

>  <ligand_id>  (5) 
4

>  <original_smiles>  (5) 
[H]c1c([H])c([H])c(C2([H])N(C(=O)N3C([H])([H])C([H])([H])C([H])([H])C([H])(n4nc(-c5c([H])c([H])c(Oc6c([H])c([H])c(F)c([H])c6F)c([H])c5[H])c(C(=O)N([H])[H])c4N([H])[H])C3([H])[H])C([H])([H])C2([H])C([H])([H])C2([H])C([H])([H])C2([H])Oc2c([H])c([H])c3c(c2[H])C([H])([H])N(C(=O)C([H])(N([H])C(=O)C([H])(N([H])C([H])([H])[H])C([H])([H])[H])C(C([H])([H])[H])(C([H])([H])[H])C([H])([H])[H])C([H])(C(=O)N([H])C2([H])c4c([H])c([H])c([H])c([H])c4C([H])([H])C([H])([H])C2([H])[H])C3([H])[H])c([H])c1[H]

>  <smiles>  (5) 
[H]c1c([H])c([H])c(C2([H])N(C(=O)N3C([H])([H])C([H])([H])C([H])([H])C([H])(n4nc(-c5c([H])c([H])c(Oc6c([H])c([H])c(F)c([H])c6F)c([H])c5[H])c(C(=O)N([H])[H])c4N([H])[H])C3([H])[H])C([H])([H])C2([H])C([H])([H])C2([H])C([H])([H])C2([H])Oc2c([H])c([H])c3c(c2[H])C([H])([H])N(C(=O)C([H])(N([H])C(=O)C([H])(N([H])C([H])([H])[H])C([H])([H])[H])C(C([H])([H])[H])(C([H])([H])[H])C([H])([H])[H])C([H])(C(=O)N([H])C2([H])c4c([H])c([H])c([H])c([H])c4C([H])([H])C([H])([H])C2([H])[H])C3([H])[H])c([H])c1[H]

$$$$
5:0:0
     RDKit          3D

 90 99  0  0  1  0  0  0  0  0999 V2000
  -28.0280  -18.7640   19.8400 C   0  0  0  0  0  2  0  0  0  0  0  0
  -29.8530  -18.4110   21.2700 C   0  0  0  0  0  2  0  0  0  0  0  0
  -29.7970  -19.9430   18.8550 C   0  0  0  0  0  2  0  0  0  0  0  0
  -29.2770  -18.4390   19.0250 C   0  0  0  0  0  3  0  0  0  0  0  0
  -30.1560  -17.5380   19.9880 C   0  0  0  0  0  3  0  0  0  0  0  0
  -28.8170  -19.5620   20.8770 C   0  0  0  0  0  3  0  0  0  0  0  0
  -29.4180  -20.7180   20.0980 N   0  0  2  0  0  4  0  0  0  0  0  0
  -30.2550  -21.0000   20.5880 H   0  0  0  0  0  0  0  0  0  0  0  0
  -30.6530  -14.8700   19.8600 C   0  0  0  0  0  0  0  0  0  0  0  0
  -30.4580  -12.5380   18.9440 C   0  0  0  0  0  2  0  0  0  0  0  0
  -29.4500  -12.5400   17.7720 C   0  0  0  0  0  2  0  0  0  0  0  0
  -28.0100  -12.3530   18.2890 C   0  0  0  0  0  2  0  0  0  0  0  0
  -27.6880  -13.2760   19.4960 C   0  0  0  0  0  3  0  0  0  0  0  0
  -28.8110  -13.2490   20.5550 C   0  0  0  0  0  2  0  0  0  0  0  0
  -30.0570  -13.6220   19.8740 N   0  0  0  0  0  0  0  0  0  0  0  0
  -31.8220  -14.9660   19.4720 O   0  0  0  0  0  0  0  0  0  0  0  0
  -29.8660  -16.0080   20.0840 N   0  0  0  0  0  0  0  0  0  0  0  0
  -28.9200  -15.7810   20.3500 H   0  0  0  0  0  0  0  0  0  0  0  0
  -25.3710  -13.8730   20.4100 C   0  0  0  0  0  0  0  0  0  0  0  0
  -24.3230  -13.1050   20.8380 C   0  0  0  0  0  0  0  0  0  0  0  0
  -24.7610  -11.7490   20.7400 C   0  0  0  0  0  0  0  0  0  0  0  0
  -26.3810  -12.9880   20.0760 N   0  0  0  0  0  0  0  0  0  0  0  0
  -26.0260  -11.7010   20.3370 N   0  0  0  0  0  0  0  0  0  0  0  0
  -24.0310  -10.4920   20.9510 C   0  0  0  0  0  0  0  0  0  0  0  0
  -24.4900   -9.5140   21.8610 C   0  0  0  0  0  3  0  0  0  0  0  0
  -23.7590   -8.3230   22.0590 C   0  0  0  0  0  3  0  0  0  0  0  0
  -22.5560   -8.1010   21.3490 C   0  0  0  0  0  0  0  0  0  0  0  0
  -22.1160   -9.0670   20.4270 C   0  0  0  0  0  3  0  0  0  0  0  0
  -22.8470  -10.2490   20.2260 C   0  0  0  0  0  3  0  0  0  0  0  0
  -21.7940   -6.9630   21.4570 O   0  0  0  0  0  0  0  0  0  0  0  0
  -21.7440   -6.2380   22.6210 C   0  0  0  0  0  0  0  0  0  0  0  0
  -21.2900   -6.8040   23.8320 C   0  0  0  0  0  3  0  0  0  0  0  0
  -21.1890   -6.0050   24.9890 C   0  0  0  0  0  3  0  0  0  0  0  0
  -21.5320   -4.6410   24.9350 C   0  0  0  0  0  0  0  0  0  0  0  0
  -21.9790   -4.0740   23.7280 C   0  0  0  0  0  3  0  0  0  0  0  0
  -22.0810   -4.8710   22.5750 C   0  0  0  0  0  0  0  0  0  0  0  0
  -22.4930   -4.3140   21.4090 F   0  0  0  0  0  0  0  0  0  0  0  0
  -21.4270   -3.8700   26.0430 F   0  0  0  0  0  0  0  0  0  0  0  0
  -22.9560  -13.5950   21.2160 C   0  0  0  0  0  0  0  0  0  0  0  0
  -22.2780  -12.8940   22.1190 N   0  0  0  0  0  0  0  0  0  0  0  0
  -22.4970  -14.6350   20.7460 O   0  0  0  0  0  0  0  0  0  0  0  0
  -22.6620  -12.0530   22.5250 H   0  0  0  0  0  0  0  0  0  0  0  0
  -21.3630  -13.2070   22.4110 H   0  0  0  0  0  0  0  0  0  0  0  0
  -25.5390  -15.2470   20.2530 N   0  0  0  0  0  0  0  0  0  0  0  0
  -24.7770  -15.8970   20.4150 H   0  0  0  0  0  0  0  0  0  0  0  0
  -26.3370  -15.6750   19.8030 H   0  0  0  0  0  0  0  0  0  0  0  0
  -28.5290  -22.0040   19.9300 C   0  0  0  0  0  2  0  0  0  0  0  0
  -29.0790  -23.5530   20.1020 C   0  0  0  0  0  3  0  0  0  0  0  0
  -28.0600  -24.8300   19.8600 C   0  0  0  0  0  3  0  0  0  0  0  0
  -28.3360  -26.3090   20.1310 O   0  0  0  0  0  0  0  0  0  0  0  0
  -24.6630  -31.8130   23.2490 C   0  0  0  0  0  0  0  0  0  0  0  0
  -27.2620  -27.2520   20.0830 C   0  0  0  0  0  0  0  0  0  0  0  0
  -23.4670  -30.4680   21.5650 C   0  0  0  0  0  3  0  0  0  0  0  0
  -24.9200  -28.9480   20.0970 C   0  0  0  0  0  0  0  0  0  0  0  0
  -26.0170  -30.7550   21.4140 C   0  0  0  0  0  2  0  0  0  0  0  0
  -26.0940  -29.3890   20.7230 C   0  0  0  0  0  0  0  0  0  0  0  0
  -27.2660  -28.5550   20.7030 C   0  0  0  0  0  3  0  0  0  0  0  0
  -26.0630  -26.8980   19.4220 C   0  0  0  0  0  3  0  0  0  0  0  0
  -24.9140  -27.7130   19.4340 C   0  0  0  0  0  3  0  0  0  0  0  0
  -23.6900  -29.8350   20.1670 C   0  0  0  0  0  2  0  0  0  0  0  0
  -24.7350  -31.0310   22.1320 N   0  0  0  0  0  0  0  0  0  0  0  0
  -23.5750  -32.0830   23.7820 O   0  0  0  0  0  0  0  0  0  0  0  0
  -22.7890  -29.4300   22.4920 C   0  0  0  0  0  0  0  0  0  0  0  0
  -21.4620  -29.2550   22.3450 N   0  0  0  0  0  0  0  0  0  0  0  0
  -23.4560  -28.7860   23.3060 O   0  0  0  0  0  0  0  0  0  0  0  0
  -20.9830  -29.8280   21.6650 H   0  0  0  0  0  0  0  0  0  0  0  0
  -18.0820  -28.0330   22.7710 C   0  0  0  0  0  0  0  0  0  0  0  0
  -20.6360  -28.2960   23.0820 C   0  0  0  0  0  3  0  0  0  0  0  0
  -20.7520  -26.8800   22.4740 C   0  0  0  0  0  2  0  0  0  0  0  0
  -19.6650  -26.5770   21.4380 C   0  0  0  0  0  2  0  0  0  0  0  0
  -18.2740  -26.7010   22.0660 C   0  0  0  0  0  2  0  0  0  0  0  0
  -19.1920  -28.7890   23.2340 C   0  0  0  0  0  0  0  0  0  0  0  0
  -18.9590  -30.0370   23.8520 C   0  0  0  0  0  3  0  0  0  0  0  0
  -17.6500  -30.5270   24.0140 C   0  0  0  0  0  3  0  0  0  0  0  0
  -16.5550  -29.7670   23.5680 C   0  0  0  0  0  3  0  0  0  0  0  0
  -16.7710  -28.5220   22.9510 C   0  0  0  0  0  3  0  0  0  0  0  0
  -25.9410  -32.4240   23.9010 C   0  0  0  0  0  3  0  0  0  0  0  0
  -26.4180  -31.6420   25.1860 C   0  0  1  0  0  0  0  0  0  0  0  0
  -25.2990  -31.4180   26.2300 C   0  0  0  0  0  1  0  0  0  0  0  0
  -26.9880  -30.2560   24.8040 C   0  0  0  0  0  1  0  0  0  0  0  0
  -27.5660  -32.4160   25.8740 C   0  0  0  0  0  1  0  0  0  0  0  0
  -25.6450  -33.8270   24.2320 N   0  0  0  0  0  0  0  0  0  0  0  0
  -25.9710  -34.8770   23.4670 C   0  0  0  0  0  0  0  0  0  0  0  0
  -26.6220  -34.7670   22.4250 O   0  0  0  0  0  0  0  0  0  0  0  0
  -25.0670  -33.9870   25.0430 H   0  0  0  0  0  0  0  0  0  0  0  0
  -24.2340  -36.6730   23.1660 C   0  0  0  0  0  1  0  0  0  0  0  0
  -25.5050  -36.2710   23.9320 C   0  0  0  0  0  3  0  0  0  0  0  0
  -27.6670  -37.1670   24.6780 C   0  0  0  0  0  1  0  0  0  0  0  0
  -26.5340  -37.3210   23.7700 N   0  0  0  0  0  0  0  0  0  0  0  0
  -26.1320  -38.2440   23.9160 H   0  0  0  0  0  0  0  0  0  0  0  0
  3  7  1  0
  4  3  1  0
  4  1  1  0
  4  5  1  0
  5 17  1  0
  5  2  1  0
  6  1  1  0
  6  2  1  0
  7  8  1  1
  7  6  1  0
  9 15  1  0
  9 17  1  0
 10 15  1  0
 11 12  1  0
 11 10  1  0
 13 12  1  0
 13 22  1  0
 13 14  1  0
 15 14  1  0
 16  9  2  0
 17 18  1  0
 19 20  2  0
 20 39  1  0
 21 20  1  0
 21 24  1  0
 22 23  1  0
 22 19  1  0
 23 21  2  0
 24 25  1  0
 25 26  2  0
 27 30  1  0
 27 26  1  0
 28 27  2  0
 29 28  1  0
 29 24  2  0
 30 31  1  0
 31 32  1  0
 32 33  2  0
 34 33  1  0
 34 38  1  0
 35 34  2  0
 36 31  2  0
 36 35  1  0
 37 36  1  0
 39 40  1  0
 40 43  1  0
 40 42  1  0
 41 39  2  0
 44 19  1  0
 44 45  1  0
 46 44  1  0
 47  7  1  0
 47 48  1  0
 49 48  2  0
 49 50  1  0
 51 62  2  0
 52 50  1  0
 52 57  1  0
 53 61  1  0
 53 63  1  0
 54 60  1  0
 54 56  1  0
 55 61  1  0
 56 55  1  0
 57 56  2  0
 58 59  1  0
 58 52  2  0
 59 54  2  0
 60 53  1  0
 61 51  1  0
 63 65  2  0
 64 63  1  0
 66 64  1  0
 67 76  2  0
 67 72  1  0
 68 64  1  0
 68 72  1  0
 69 68  1  0
 70 71  1  0
 70 69  1  0
 71 67  1  0
 72 73  2  0
 73 74  1  0
 75 74  2  0
 76 75  1  0
 77 51  1  0
 77 82  1  0
 77 78  1  0
 78 81  1  1
 78 79  1  0
 80 78  1  0
 82 85  1  0
 83 87  1  0
 83 82  1  0
 84 83  2  0
 87 86  1  0
 89 90  1  0
 89 87  1  0
 89 88  1  0
M  ISO  4   9 100  17 100  49 101  50 101
M  END
>  <TORSDO>  (6) 
F 19

>  <SCORE>  (6) 
-13.796

>  <name>  (6) 
5

>  <ligand_id>  (6) 
5

>  <original_smiles>  (6) 
[H]c1c([H])c([H])c2c(c1[H])C([H])([H])C([H])([H])C([H])([H])C2([H])N([H])C(=O)C1([H])N(C(=O)C([H])(N([H])C(=O)C([H])(N([H])C([H])([H])[H])C([H])([H])[H])C(C([H])([H])[H])(C([H])([H])[H])C([H])([H])[H])C([H])([H])c2c([H])c(OC([H])([H])C([H])([H])C([H])([H])[N+]3([H])C([H])([H])C4([H])C([H])([H])C3([H])C([H])([H])C4([H])N([H])C(=O)N3C([H])([H])C([H])([H])C([H])([H])C([H])(n4nc(-c5c([H])c([H])c(Oc6c([H])c([H])c(F)c([H])c6F)c([H])c5[H])c(C(=O)N([H])[H])c4N([H])[H])C3([H])[H])c([H])c([H])c2C1([H])[H]

>  <smiles>  (6) 
[H]c1c([H])c([H])c2c(c1[H])C([H])([H])C([H])([H])C([H])([H])C2([H])N([H])C(=O)C1([H])N(C(=O)C([H])(N([H])C(=O)C([H])(N([H])C([H])([H])[H])C([H])([H])[H])C(C([H])([H])[H])(C([H])([H])[H])C([H])([H])[H])C([H])([H])c2c([H])c(OC([H])([H])C([H])([H])C([H])([H])[N+]3([H])C([H])([H])C4([H])C([H])([H])C3([H])C([H])([H])C4([H])N([H])C(=O)N3C([H])([H])C([H])([H])C([H])([H])C([H])(n4nc(-c5c([H])c([H])c(Oc6c([H])c([H])c(F)c([H])c6F)c([H])c5[H])c(C(=O)N([H])[H])c4N([H])[H])C3([H])[H])c([H])c([H])c2C1([H])[H]

$$$$
6:0:0
     RDKit          3D

 91 99  0  0  1  0  0  0  0  0999 V2000
  -28.8030  -18.7850   20.8550 C   0  0  0  0  0  3  0  0  0  0  0  0
  -28.3950  -20.1300   20.6350 C   0  0  0  0  0  3  0  0  0  0  0  0
  -31.0600  -19.4300   20.3350 C   0  0  0  0  0  3  0  0  0  0  0  0
  -30.1570  -18.4070   20.7130 C   0  0  0  0  0  0  0  0  0  0  0  0
  -29.3000  -21.1700   20.2660 C   0  0  0  0  0  0  0  0  0  0  0  0
  -30.6640  -20.7790   20.1090 C   0  0  0  0  0  0  0  0  0  0  0  0
  -31.7080  -22.0150   18.1570 C   0  0  0  0  0  1  0  0  0  0  0  0
  -31.7590  -21.7350   19.6620 C   0  0  0  0  0  2  0  0  0  0  0  0
  -28.6910  -22.5700   19.8930 C   0  0  0  0  0  2  0  0  0  0  0  0
  -29.1840  -23.9760   20.4460 C   0  0  0  0  0  2  0  0  0  0  0  0
  -28.1960  -25.1390   20.0190 C   0  0  0  0  0  2  0  0  0  0  0  0
  -28.4270  -26.5690   20.3060 O   0  0  0  0  0  0  0  0  0  0  0  0
  -24.5350  -31.8480   23.2540 C   0  0  0  0  0  0  0  0  0  0  0  0
  -27.3100  -27.4100   20.1950 C   0  0  0  0  0  0  0  0  0  0  0  0
  -23.4010  -30.4650   21.5480 C   0  0  0  0  0  3  0  0  0  0  0  0
  -24.9180  -28.9750   20.1330 C   0  0  0  0  0  0  0  0  0  0  0  0
  -25.9370  -30.8310   21.4510 C   0  0  0  0  0  2  0  0  0  0  0  0
  -26.0600  -29.4700   20.7800 C   0  0  0  0  0  0  0  0  0  0  0  0
  -27.2570  -28.7010   20.8030 C   0  0  0  0  0  3  0  0  0  0  0  0
  -26.1520  -26.9820   19.4980 C   0  0  0  0  0  3  0  0  0  0  0  0
  -24.9700  -27.7380   19.4770 C   0  0  0  0  0  3  0  0  0  0  0  0
  -23.6650  -29.8210   20.1620 C   0  0  0  0  0  2  0  0  0  0  0  0
  -24.6400  -31.0660   22.1400 N   0  0  0  0  0  0  0  0  0  0  0  0
  -23.4330  -32.1000   23.7610 O   0  0  0  0  0  0  0  0  0  0  0  0
  -22.7250  -29.4210   22.4700 C   0  0  0  0  0  0  0  0  0  0  0  0
  -21.4020  -29.2460   22.3130 N   0  0  0  0  0  0  0  0  0  0  0  0
  -23.3900  -28.7750   23.2840 O   0  0  0  0  0  0  0  0  0  0  0  0
  -20.9310  -29.8210   21.6290 H   0  0  0  0  0  0  0  0  0  0  0  0
  -18.0040  -28.0820   22.7670 C   0  0  0  0  0  0  0  0  0  0  0  0
  -20.5680  -28.2910   23.0430 C   0  0  0  0  0  3  0  0  0  0  0  0
  -20.6460  -26.8840   22.4070 C   0  0  0  0  0  2  0  0  0  0  0  0
  -19.5360  -26.6210   21.3830 C   0  0  0  0  0  2  0  0  0  0  0  0
  -18.1580  -26.7590   22.0350 C   0  0  0  0  0  2  0  0  0  0  0  0
  -19.1360  -28.8070   23.2270 C   0  0  0  0  0  0  0  0  0  0  0  0
  -18.9380  -30.0460   23.8740 C   0  0  0  0  0  3  0  0  0  0  0  0
  -17.6410  -30.5590   24.0640 C   0  0  0  0  0  3  0  0  0  0  0  0
  -16.5240  -29.8310   23.6180 C   0  0  0  0  0  3  0  0  0  0  0  0
  -16.7070  -28.5930   22.9770 C   0  0  0  0  0  3  0  0  0  0  0  0
  -25.7910  -32.4810   23.9280 C   0  0  0  0  0  3  0  0  0  0  0  0
  -25.4730  -33.8860   24.2230 N   0  0  0  0  0  0  0  0  0  0  0  0
  -25.8270  -34.9240   23.4530 C   0  0  0  0  0  0  0  0  0  0  0  0
  -26.5240  -34.8010   22.4420 O   0  0  0  0  0  0  0  0  0  0  0  0
  -24.8540  -34.0560   25.0020 H   0  0  0  0  0  0  0  0  0  0  0  0
  -24.1080  -36.7090   23.0210 C   0  0  0  0  0  1  0  0  0  0  0  0
  -25.3290  -36.3220   23.8700 C   0  0  0  0  0  3  0  0  0  0  0  0
  -27.4370  -37.2290   24.7460 C   0  0  0  0  0  1  0  0  0  0  0  0
  -26.3670  -37.3720   23.7630 N   0  0  0  0  0  0  0  0  0  0  0  0
  -25.9570  -38.2960   23.8710 H   0  0  0  0  0  0  0  0  0  0  0  0
  -26.2430  -31.7260   25.2380 C   0  0  1  0  0  0  0  0  0  0  0  0
  -25.0980  -31.5020   26.2540 C   0  0  0  0  0  1  0  0  0  0  0  0
  -26.8450  -30.3430   24.8950 C   0  0  0  0  0  1  0  0  0  0  0  0
  -27.3610  -32.5300   25.9420 C   0  0  0  0  0  1  0  0  0  0  0  0
  -30.7300  -17.0050   21.0860 C   0  0  0  0  0  2  0  0  0  0  0  0
  -30.6940  -14.6490   20.1710 C   0  0  0  0  0  0  0  0  0  0  0  0
  -30.3350  -12.4760   19.0370 C   0  0  0  0  0  2  0  0  0  0  0  0
  -29.3470  -12.6690   17.8680 C   0  0  0  0  0  2  0  0  0  0  0  0
  -27.8950  -12.5190   18.3630 C   0  0  0  0  0  2  0  0  0  0  0  0
  -27.6100  -13.3550   19.6400 C   0  0  0  0  0  3  0  0  0  0  0  0
  -28.7150  -13.1640   20.7030 C   0  0  0  0  0  2  0  0  0  0  0  0
  -30.0000  -13.4790   20.0660 N   0  0  0  0  0  0  0  0  0  0  0  0
  -31.8230  -14.7670   19.6870 O   0  0  0  0  0  0  0  0  0  0  0  0
  -30.0580  -15.7230   20.7160 N   0  0  0  0  0  0  0  0  0  0  0  0
  -29.1210  -15.5710   21.0590 H   0  0  0  0  0  0  0  0  0  0  0  0
  -25.2630  -13.9600   20.4930 C   0  0  0  0  0  0  0  0  0  0  0  0
  -24.2070  -13.1880   20.8950 C   0  0  0  0  0  0  0  0  0  0  0  0
  -24.6510  -11.8320   20.8080 C   0  0  0  0  0  0  0  0  0  0  0  0
  -26.2830  -13.0740   20.1830 N   0  0  0  0  0  0  0  0  0  0  0  0
  -25.9240  -11.7890   20.4330 N   0  0  0  0  0  0  0  0  0  0  0  0
  -23.9210  -10.5730   20.9990 C   0  0  0  0  0  0  0  0  0  0  0  0
  -24.3660   -9.5900   21.9110 C   0  0  0  0  0  3  0  0  0  0  0  0
  -23.6320   -8.3970   22.0930 C   0  0  0  0  0  3  0  0  0  0  0  0
  -22.4400   -8.1790   21.3620 C   0  0  0  0  0  0  0  0  0  0  0  0
  -22.0130   -9.1500   20.4380 C   0  0  0  0  0  3  0  0  0  0  0  0
  -22.7490  -10.3350   20.2550 C   0  0  0  0  0  3  0  0  0  0  0  0
  -21.6780   -7.0390   21.4520 O   0  0  0  0  0  0  0  0  0  0  0  0
  -21.6250   -6.2990   22.6070 C   0  0  0  0  0  0  0  0  0  0  0  0
  -21.1320   -6.8380   23.8150 C   0  0  0  0  0  3  0  0  0  0  0  0
  -21.0290   -6.0230   24.9590 C   0  0  0  0  0  3  0  0  0  0  0  0
  -21.4100   -4.6700   24.8960 C   0  0  0  0  0  0  0  0  0  0  0  0
  -21.8980   -4.1300   23.6930 C   0  0  0  0  0  3  0  0  0  0  0  0
  -22.0020   -4.9420   22.5510 C   0  0  0  0  0  0  0  0  0  0  0  0
  -22.4510   -4.4120   21.3880 F   0  0  0  0  0  0  0  0  0  0  0  0
  -21.3040   -3.8830   25.9940 F   0  0  0  0  0  0  0  0  0  0  0  0
  -22.8300  -13.6740   21.2440 C   0  0  0  0  0  0  0  0  0  0  0  0
  -22.1340  -12.9660   22.1270 N   0  0  0  0  0  0  0  0  0  0  0  0
  -22.3800  -14.7170   20.7710 O   0  0  0  0  0  0  0  0  0  0  0  0
  -22.5080  -12.1210   22.5310 H   0  0  0  0  0  0  0  0  0  0  0  0
  -21.2140  -13.2770   22.4020 H   0  0  0  0  0  0  0  0  0  0  0  0
  -25.4330  -15.3340   20.3430 N   0  0  0  0  0  0  0  0  0  0  0  0
  -24.6790  -15.9930   20.5070 H   0  0  0  0  0  0  0  0  0  0  0  0
  -26.2630  -15.7700   19.9630 H   0  0  0  0  0  0  0  0  0  0  0  0
  2  1  2  0
  3  4  2  0
  4  1  1  0
  4 53  1  0
  5  2  1  0
  6  5  2  0
  6  3  1  0
  7  8  1  0
  8  6  1  0
  9  5  1  0
  9 10  1  0
 11 12  1  0
 11 10  1  0
 13 24  2  0
 14 12  1  0
 14 19  1  0
 15 23  1  0
 15 25  1  0
 16 22  1  0
 16 18  1  0
 17 23  1  0
 18 19  2  0
 18 17  1  0
 20 14  2  0
 21 20  1  0
 21 16  2  0
 22 15  1  0
 23 13  1  0
 25 27  2  0
 26 25  1  0
 28 26  1  0
 29 38  2  0
 29 34  1  0
 30 26  1  0
 30 34  1  0
 31 30  1  0
 32 33  1  0
 32 31  1  0
 33 29  1  0
 34 35  2  0
 35 36  1  0
 37 36  2  0
 38 37  1  0
 39 13  1  0
 39 40  1  0
 39 49  1  0
 40 43  1  0
 41 45  1  0
 41 40  1  0
 42 41  2  0
 45 44  1  0
 47 45  1  0
 47 48  1  0
 47 46  1  0
 49 52  1  1
 49 50  1  0
 51 49  1  0
 54 62  1  0
 55 60  1  0
 56 57  1  0
 56 55  1  0
 58 57  1  0
 58 67  1  0
 58 59  1  0
 60 54  1  0
 60 59  1  0
 61 54  2  0
 62 63  1  0
 62 53  1  0
 64 65  2  0
 65 84  1  0
 66 65  1  0
 66 69  1  0
 67 68  1  0
 67 64  1  0
 68 66  2  0
 69 70  1  0
 70 71  2  0
 72 75  1  0
 72 71  1  0
 73 72  2  0
 74 73  1  0
 74 69  2  0
 75 76  1  0
 76 77  1  0
 77 78  2  0
 79 78  1  0
 79 83  1  0
 80 79  2  0
 81 76  2  0
 81 80  1  0
 82 81  1  0
 84 85  1  0
 85 88  1  0
 85 87  1  0
 86 84  2  0
 89 64  1  0
 89 90  1  0
 91 89  1  0
M  ISO  4  11 101  12 101  54 100  62 100
M  END
>  <TORSDO>  (7) 
F 21

>  <SCORE>  (7) 
-13.347

>  <name>  (7) 
6

>  <ligand_id>  (7) 
6

>  <original_smiles>  (7) 
[H]c1c([H])c([H])c2c(c1[H])C([H])([H])C([H])([H])C([H])([H])C2([H])N([H])C(=O)C1([H])N(C(=O)C([H])(N([H])C(=O)C([H])(N([H])C([H])([H])[H])C([H])([H])[H])C(C([H])([H])[H])(C([H])([H])[H])C([H])([H])[H])C([H])([H])c2c([H])c(OC([H])([H])C([H])([H])C([H])([H])c3c([H])c([H])c(C([H])([H])N([H])C(=O)N4C([H])([H])C([H])([H])C([H])([H])C([H])(n5nc(-c6c([H])c([H])c(Oc7c([H])c([H])c(F)c([H])c7F)c([H])c6[H])c(C(=O)N([H])[H])c5N([H])[H])C4([H])[H])c([H])c3C([H])([H])C([H])([H])[H])c([H])c([H])c2C1([H])[H]

>  <smiles>  (7) 
[H]c1c([H])c([H])c2c(c1[H])C([H])([H])C([H])([H])C([H])([H])C2([H])N([H])C(=O)C1([H])N(C(=O)C([H])(N([H])C(=O)C([H])(N([H])C([H])([H])[H])C([H])([H])[H])C(C([H])([H])[H])(C([H])([H])[H])C([H])([H])[H])C([H])([H])c2c([H])c(OC([H])([H])C([H])([H])C([H])([H])c3c([H])c([H])c(C([H])([H])N([H])C(=O)N4C([H])([H])C([H])([H])C([H])([H])C([H])(n5nc(-c6c([H])c([H])c(Oc7c([H])c([H])c(F)c([H])c7F)c([H])c6[H])c(C(=O)N([H])[H])c5N([H])[H])C4([H])[H])c([H])c3C([H])([H])C([H])([H])[H])c([H])c([H])c2C1([H])[H]

$$$$
7:0:0
     RDKit          3D

 97107  0  0  1  0  0  0  0  0999 V2000
  -28.4380  -23.3700   20.3470 C   0  0  0  0  0  3  0  0  0  0  0  0
  -29.1980  -22.3760   19.7230 C   0  0  0  0  0  0  0  0  0  0  0  0
  -29.3950  -24.6130   18.5580 C   0  0  0  0  0  2  0  0  0  0  0  0
  -28.2780  -24.7910   19.6010 C   0  0  0  0  0  3  0  0  0  0  0  0
  -29.9070  -23.1200   18.5810 C   0  0  0  0  0  3  0  0  0  0  0  0
  -28.9400  -19.9670   21.0070 C   0  0  0  0  0  3  0  0  0  0  0  0
  -29.1220  -18.5240   21.0890 C   0  0  0  0  0  3  0  0  0  0  0  0
  -30.0740  -19.9430   18.9560 C   0  0  0  0  0  3  0  0  0  0  0  0
  -29.4040  -20.7810   19.9250 C   0  0  0  0  0  0  0  0  0  0  0  0
  -30.2890  -18.4970   19.0290 C   0  0  0  0  0  0  0  0  0  0  0  0
  -29.8030  -17.6920   20.1250 C   0  0  0  0  0  0  0  0  0  0  0  0
  -30.5860  -15.0260   19.9240 C   0  0  0  0  0  0  0  0  0  0  0  0
  -30.4230  -12.6940   18.9490 C   0  0  0  0  0  2  0  0  0  0  0  0
  -29.4100  -12.6950   17.7780 C   0  0  0  0  0  2  0  0  0  0  0  0
  -27.9760  -12.4710   18.2960 C   0  0  0  0  0  2  0  0  0  0  0  0
  -27.6500  -13.3570   19.5260 C   0  0  0  0  0  3  0  0  0  0  0  0
  -28.7770  -13.3280   20.5820 C   0  0  0  0  0  2  0  0  0  0  0  0
  -30.0130  -13.7560   19.9100 N   0  0  0  0  0  0  0  0  0  0  0  0
  -31.7510  -15.1210   19.5240 O   0  0  0  0  0  0  0  0  0  0  0  0
  -29.7940  -16.1560   20.2670 N   0  0  0  0  0  0  0  0  0  0  0  0
  -28.9570  -15.8340   20.7290 H   0  0  0  0  0  0  0  0  0  0  0  0
  -25.3240  -13.9130   20.4410 C   0  0  0  0  0  0  0  0  0  0  0  0
  -24.2840  -13.1260   20.8560 C   0  0  0  0  0  0  0  0  0  0  0  0
  -24.7390  -11.7760   20.7450 C   0  0  0  0  0  0  0  0  0  0  0  0
  -26.3450  -13.0420   20.1000 N   0  0  0  0  0  0  0  0  0  0  0  0
  -26.0060  -11.7490   20.3460 N   0  0  0  0  0  0  0  0  0  0  0  0
  -24.0220  -10.5080   20.9380 C   0  0  0  0  0  0  0  0  0  0  0  0
  -24.4640   -9.5440   21.8690 C   0  0  0  0  0  3  0  0  0  0  0  0
  -23.7480   -8.3420   22.0510 C   0  0  0  0  0  3  0  0  0  0  0  0
  -22.5720   -8.0960   21.3010 C   0  0  0  0  0  0  0  0  0  0  0  0
  -22.1480   -9.0500   20.3590 C   0  0  0  0  0  3  0  0  0  0  0  0
  -22.8660  -10.2430   20.1760 C   0  0  0  0  0  3  0  0  0  0  0  0
  -21.8250   -6.9470   21.3930 O   0  0  0  0  0  0  0  0  0  0  0  0
  -21.7190   -6.2480   22.5690 C   0  0  0  0  0  0  0  0  0  0  0  0
  -21.2040   -6.8390   23.7440 C   0  0  0  0  0  3  0  0  0  0  0  0
  -21.0490   -6.0650   24.9120 C   0  0  0  0  0  3  0  0  0  0  0  0
  -21.3980   -4.7010   24.9040 C   0  0  0  0  0  0  0  0  0  0  0  0
  -21.9050   -4.1090   23.7340 C   0  0  0  0  0  3  0  0  0  0  0  0
  -22.0620   -4.8810   22.5690 C   0  0  0  0  0  0  0  0  0  0  0  0
  -22.5330   -4.3010   21.4380 F   0  0  0  0  0  0  0  0  0  0  0  0
  -21.2410   -3.9550   26.0220 F   0  0  0  0  0  0  0  0  0  0  0  0
  -22.9080  -13.5940   21.2350 C   0  0  0  0  0  0  0  0  0  0  0  0
  -22.2360  -12.8720   22.1230 N   0  0  0  0  0  0  0  0  0  0  0  0
  -22.4420  -14.6370   20.7780 O   0  0  0  0  0  0  0  0  0  0  0  0
  -22.6280  -12.0290   22.5150 H   0  0  0  0  0  0  0  0  0  0  0  0
  -21.3160  -13.1670   22.4160 H   0  0  0  0  0  0  0  0  0  0  0  0
  -25.4800  -15.2890   20.3030 N   0  0  0  0  0  0  0  0  0  0  0  0
  -24.7200  -15.9370   20.4840 H   0  0  0  0  0  0  0  0  0  0  0  0
  -26.2950  -15.7370   19.9060 H   0  0  0  0  0  0  0  0  0  0  0  0
  -32.4940  -17.6860   17.8650 C   0  0  0  0  0  2  0  0  0  0  0  0
  -31.8040  -18.5270   16.8220 C   0  0  0  0  0  2  0  0  0  0  0  0
  -30.9880  -17.8090   17.8830 C   0  0  0  0  0  3  0  0  0  0  0  0
  -31.4370  -23.1040   18.7630 C   0  0  0  0  0  0  0  0  0  0  0  0
  -31.9650  -22.9880   19.8730 O   0  0  0  0  0  0  0  0  0  0  0  0
  -33.7580  -23.5760   17.7690 C   0  0  0  0  0  1  0  0  0  0  0  0
  -32.2760  -23.2730   17.4940 C   0  0  0  0  0  2  0  0  0  0  0  0
  -28.2740  -26.2240   20.2240 O   0  0  0  0  0  0  0  0  0  0  0  0
  -24.6420  -31.8780   23.2550 C   0  0  0  0  0  0  0  0  0  0  0  0
  -27.2040  -27.1970   20.1380 C   0  0  0  0  0  0  0  0  0  0  0  0
  -23.4320  -30.5020   21.6090 C   0  0  0  0  0  3  0  0  0  0  0  0
  -24.8690  -28.9480   20.1530 C   0  0  0  0  0  0  0  0  0  0  0  0
  -25.9850  -30.7660   21.4330 C   0  0  0  0  0  2  0  0  0  0  0  0
  -26.0540  -29.3820   20.7610 C   0  0  0  0  0  0  0  0  0  0  0  0
  -27.2150  -28.5200   20.7430 C   0  0  0  0  0  3  0  0  0  0  0  0
  -25.9890  -26.8730   19.4880 C   0  0  0  0  0  3  0  0  0  0  0  0
  -24.8510  -27.7080   19.5030 C   0  0  0  0  0  3  0  0  0  0  0  0
  -23.6420  -29.8430   20.2210 C   0  0  0  0  0  2  0  0  0  0  0  0
  -24.7070  -31.0710   22.1530 N   0  0  0  0  0  0  0  0  0  0  0  0
  -23.5590  -32.1570   23.7920 O   0  0  0  0  0  0  0  0  0  0  0  0
  -22.7610  -29.4820   22.5630 C   0  0  0  0  0  0  0  0  0  0  0  0
  -21.4330  -29.3030   22.4360 N   0  0  0  0  0  0  0  0  0  0  0  0
  -23.4360  -28.8550   23.3840 O   0  0  0  0  0  0  0  0  0  0  0  0
  -20.9450  -29.8600   21.7490 H   0  0  0  0  0  0  0  0  0  0  0  0
  -18.0610  -28.0730   22.9280 C   0  0  0  0  0  0  0  0  0  0  0  0
  -20.6170  -28.3560   23.2000 C   0  0  0  0  0  3  0  0  0  0  0  0
  -20.7310  -26.9270   22.6210 C   0  0  0  0  0  2  0  0  0  0  0  0
  -19.6340  -26.5980   21.6040 C   0  0  0  0  0  2  0  0  0  0  0  0
  -18.2500  -26.7290   22.2450 C   0  0  0  0  0  2  0  0  0  0  0  0
  -19.1720  -28.8440   23.3620 C   0  0  0  0  0  0  0  0  0  0  0  0
  -18.9390  -30.1000   23.9610 C   0  0  0  0  0  3  0  0  0  0  0  0
  -17.6280  -30.5870   24.1290 C   0  0  0  0  0  3  0  0  0  0  0  0
  -16.5330  -29.8140   23.7090 C   0  0  0  0  0  3  0  0  0  0  0  0
  -16.7490  -28.5580   23.1140 C   0  0  0  0  0  3  0  0  0  0  0  0
  -25.9230  -32.5090   23.8810 C   0  0  0  0  0  3  0  0  0  0  0  0
  -26.4330  -31.7350   25.1600 C   0  0  1  0  0  0  0  0  0  0  0  0
  -25.3350  -31.5020   26.2250 C   0  0  0  0  0  1  0  0  0  0  0  0
  -27.0120  -30.3550   24.7750 C   0  0  0  0  0  1  0  0  0  0  0  0
  -27.5850  -32.5250   25.8250 C   0  0  0  0  0  1  0  0  0  0  0  0
  -25.6160  -33.9070   24.2170 N   0  0  0  0  0  0  0  0  0  0  0  0
  -25.9270  -34.9640   23.4540 C   0  0  0  0  0  0  0  0  0  0  0  0
  -26.5700  -34.8630   22.4050 O   0  0  0  0  0  0  0  0  0  0  0  0
  -25.0420  -34.0590   25.0330 H   0  0  0  0  0  0  0  0  0  0  0  0
  -24.1750  -36.7490   23.1670 C   0  0  0  0  0  1  0  0  0  0  0  0
  -25.4510  -36.3520   23.9280 C   0  0  0  0  0  3  0  0  0  0  0  0
  -27.6100  -37.2560   24.6720 C   0  0  0  0  0  1  0  0  0  0  0  0
  -26.4720  -37.4110   23.7690 N   0  0  0  0  0  0  0  0  0  0  0  0
  -26.0670  -38.3300   23.9240 H   0  0  0  0  0  0  0  0  0  0  0  0
  2  9  1  0
  2  1  2  0
  3  5  1  0
  3  4  1  0
  4 57  1  0
  4  1  1  0
  5 53  1  0
  5  2  1  0
  6  7  1  0
  8 10  2  0
  8  9  1  0
  9  6  2  0
 10 11  1  0
 11 20  1  0
 11  7  2  0
 12 20  1  0
 13 18  1  0
 14 15  1  0
 14 13  1  0
 16 15  1  0
 16 25  1  0
 16 17  1  0
 18 12  1  0
 18 17  1  0
 19 12  2  0
 20 21  1  0
 22 23  2  0
 23 42  1  0
 24 23  1  0
 24 27  1  0
 25 26  1  0
 25 22  1  0
 26 24  2  0
 27 28  1  0
 28 29  2  0
 30 33  1  0
 30 29  1  0
 31 30  2  0
 32 31  1  0
 32 27  2  0
 33 34  1  0
 34 39  2  0
 34 35  1  0
 35 36  2  0
 37 36  1  0
 37 41  1  0
 38 37  2  0
 39 38  1  0
 40 39  1  0
 42 43  1  0
 43 46  1  0
 43 45  1  0
 44 42  2  0
 47 22  1  0
 47 48  1  0
 49 47  1  0
 50 52  1  0
 51 50  1  0
 51 52  1  0
 52 10  1  0
 53 54  2  0
 56 55  1  0
 56 53  1  0
 58 69  2  0
 59 57  1  0
 59 64  1  0
 60 68  1  0
 60 70  1  0
 61 67  1  0
 61 63  1  0
 62 68  1  0
 63 62  1  0
 64 63  2  0
 65 66  1  0
 65 59  2  0
 66 61  2  0
 67 60  1  0
 68 58  1  0
 70 72  2  0
 71 70  1  0
 73 71  1  0
 74 83  2  0
 74 79  1  0
 75 71  1  0
 75 79  1  0
 76 75  1  0
 77 78  1  0
 77 76  1  0
 78 74  1  0
 79 80  2  0
 80 81  1  0
 82 81  2  0
 83 82  1  0
 84 58  1  0
 84 89  1  0
 84 85  1  0
 85 88  1  1
 85 86  1  0
 87 85  1  0
 89 92  1  0
 90 94  1  0
 90 89  1  0
 91 90  2  0
 94 93  1  0
 96 97  1  0
 96 94  1  0
 96 95  1  0
M  ISO  4   4 101  12 100  20 100  57 101
M  END
>  <TORSDO>  (8) 
F 20

>  <SCORE>  (8) 
-13.484

>  <name>  (8) 
7

>  <ligand_id>  (8) 
7

>  <original_smiles>  (8) 
[H]C1=C(c2c([H])c([H])c(N([H])C(=O)N3C([H])([H])C([H])([H])C([H])([H])C([H])(n4nc(-c5c([H])c([H])c(Oc6c([H])c([H])c(F)c([H])c6F)c([H])c5[H])c(C(=O)N([H])[H])c4N([H])[H])C3([H])[H])c(C3([H])C([H])([H])C3([H])[H])c2[H])C([H])(C(=O)C([H])([H])C([H])([H])[H])C([H])([H])C1([H])Oc1c([H])c([H])c2c(c1[H])C([H])([H])N(C(=O)C([H])(N([H])C(=O)C([H])(N([H])C([H])([H])[H])C([H])([H])[H])C(C([H])([H])[H])(C([H])([H])[H])C([H])([H])[H])C([H])(C(=O)N([H])C1([H])c3c([H])c([H])c([H])c([H])c3C([H])([H])C([H])([H])C1([H])[H])C2([H])[H]

>  <smiles>  (8) 
[H]C1=C(c2c([H])c([H])c(N([H])C(=O)N3C([H])([H])C([H])([H])C([H])([H])C([H])(n4nc(-c5c([H])c([H])c(Oc6c([H])c([H])c(F)c([H])c6F)c([H])c5[H])c(C(=O)N([H])[H])c4N([H])[H])C3([H])[H])c(C3([H])C([H])([H])C3([H])[H])c2[H])C([H])(C(=O)C([H])([H])C([H])([H])[H])C([H])([H])C1([H])Oc1c([H])c([H])c2c(c1[H])C([H])([H])N(C(=O)C([H])(N([H])C(=O)C([H])(N([H])C([H])([H])[H])C([H])([H])[H])C(C([H])([H])[H])(C([H])([H])[H])C([H])([H])[H])C([H])(C(=O)N([H])C1([H])c3c([H])c([H])c([H])c([H])c3C([H])([H])C([H])([H])C1([H])[H])C2([H])[H]

$$$$
8:0:0
     RDKit          3D

 88 97  0  0  1  0  0  0  0  0999 V2000
  -29.6920  -21.1390   19.9830 C   0  0  0  0  0  3  0  0  0  0  0  0
  -30.6950  -14.7900   20.0240 C   0  0  0  0  0  0  0  0  0  0  0  0
  -30.3790  -12.5560   18.9300 C   0  0  0  0  0  2  0  0  0  0  0  0
  -29.3610  -12.6660   17.7720 C   0  0  0  0  0  2  0  0  0  0  0  0
  -27.9230  -12.4760   18.2870 C   0  0  0  0  0  2  0  0  0  0  0  0
  -27.6370  -13.3250   19.5510 C   0  0  0  0  0  3  0  0  0  0  0  0
  -28.7700  -13.1750   20.5980 C   0  0  0  0  0  2  0  0  0  0  0  0
  -30.0240  -13.5810   19.9480 N   0  0  0  0  0  0  0  0  0  0  0  0
  -31.8230  -14.8740   19.5260 O   0  0  0  0  0  0  0  0  0  0  0  0
  -28.7370  -18.8960   21.0900 C   0  0  0  0  0  2  0  0  0  0  0  0
  -28.8870  -17.6750   20.5470 C   0  0  0  0  0  3  0  0  0  0  0  0
  -28.7830  -16.2850   21.1040 C   0  0  0  0  0  2  0  0  0  0  0  0
  -30.9160  -18.6200   20.2160 C   0  0  0  0  0  2  0  0  0  0  0  0
  -29.9460  -19.7640   20.7950 C   0  0  0  0  0  3  0  0  0  0  0  0
  -30.0730  -17.3720   19.7280 C   0  0  0  0  0  3  0  0  0  0  0  0
  -30.0370  -15.9760   20.3620 N   0  0  0  0  0  0  0  0  0  0  0  0
  -25.2970  -13.9210   20.4390 C   0  0  0  0  0  0  0  0  0  0  0  0
  -24.2580  -13.1460   20.8720 C   0  0  0  0  0  0  0  0  0  0  0  0
  -24.7100  -11.7940   20.7790 C   0  0  0  0  0  0  0  0  0  0  0  0
  -26.3230  -13.0420   20.1200 N   0  0  0  0  0  0  0  0  0  0  0  0
  -25.9770  -11.7560   20.3830 N   0  0  0  0  0  0  0  0  0  0  0  0
  -23.9890  -10.5330   20.9840 C   0  0  0  0  0  0  0  0  0  0  0  0
  -24.4600   -9.5500   21.8830 C   0  0  0  0  0  3  0  0  0  0  0  0
  -23.7360   -8.3540   22.0770 C   0  0  0  0  0  3  0  0  0  0  0  0
  -22.5280   -8.1320   21.3730 C   0  0  0  0  0  0  0  0  0  0  0  0
  -22.0770   -9.1030   20.4630 C   0  0  0  0  0  3  0  0  0  0  0  0
  -22.8000  -10.2910   20.2660 C   0  0  0  0  0  3  0  0  0  0  0  0
  -21.7710   -6.9900   21.4810 O   0  0  0  0  0  0  0  0  0  0  0  0
  -21.7530   -6.2470   22.6330 C   0  0  0  0  0  0  0  0  0  0  0  0
  -21.3480   -6.7980   23.8700 C   0  0  0  0  0  3  0  0  0  0  0  0
  -21.2760   -5.9790   25.0140 C   0  0  0  0  0  3  0  0  0  0  0  0
  -21.5970   -4.6110   24.9240 C   0  0  0  0  0  0  0  0  0  0  0  0
  -21.9940   -4.0600   23.6930 C   0  0  0  0  0  3  0  0  0  0  0  0
  -22.0680   -4.8760   22.5510 C   0  0  0  0  0  0  0  0  0  0  0  0
  -22.4300   -4.3340   21.3630 F   0  0  0  0  0  0  0  0  0  0  0  0
  -21.5210   -3.8230   26.0220 F   0  0  0  0  0  0  0  0  0  0  0  0
  -22.8870  -13.6260   21.2490 C   0  0  0  0  0  0  0  0  0  0  0  0
  -22.2170  -12.9170   22.1500 N   0  0  0  0  0  0  0  0  0  0  0  0
  -22.4220  -14.6650   20.7820 O   0  0  0  0  0  0  0  0  0  0  0  0
  -22.6060  -12.0760   22.5490 H   0  0  0  0  0  0  0  0  0  0  0  0
  -21.3000  -13.2200   22.4470 H   0  0  0  0  0  0  0  0  0  0  0  0
  -25.4370  -15.2930   20.2640 N   0  0  0  0  0  0  0  0  0  0  0  0
  -24.6680  -15.9320   20.4360 H   0  0  0  0  0  0  0  0  0  0  0  0
  -26.2320  -15.7410   19.8300 H   0  0  0  0  0  0  0  0  0  0  0  0
  -29.0360  -22.4210   20.7110 C   0  0  0  0  0  3  0  0  0  0  0  0
  -29.0690  -23.8800   20.0160 C   0  0  0  0  0  3  0  0  0  0  0  0
  -28.3250  -25.1130   20.7390 C   0  0  0  0  0  3  0  0  0  0  0  0
  -28.4860  -26.5140   20.2530 O   0  0  0  0  0  0  0  0  0  0  0  0
  -24.6400  -31.8910   23.2080 C   0  0  0  0  0  0  0  0  0  0  0  0
  -27.3570  -27.3510   20.2240 C   0  0  0  0  0  0  0  0  0  0  0  0
  -23.4790  -30.4760   21.5500 C   0  0  0  0  0  3  0  0  0  0  0  0
  -24.9710  -28.9350   20.1540 C   0  0  0  0  0  0  0  0  0  0  0  0
  -26.0150  -30.8280   21.4030 C   0  0  0  0  0  2  0  0  0  0  0  0
  -26.1240  -29.4460   20.7660 C   0  0  0  0  0  0  0  0  0  0  0  0
  -27.3220  -28.6680   20.7840 C   0  0  0  0  0  3  0  0  0  0  0  0
  -26.1830  -26.8910   19.5910 C   0  0  0  0  0  3  0  0  0  0  0  0
  -25.0050  -27.6650   19.5530 C   0  0  0  0  0  3  0  0  0  0  0  0
  -23.7220  -29.7940   20.1760 C   0  0  0  0  0  2  0  0  0  0  0  0
  -24.7300  -31.0830   22.1110 N   0  0  0  0  0  0  0  0  0  0  0  0
  -23.5460  -32.1570   23.7270 O   0  0  0  0  0  0  0  0  0  0  0  0
  -22.8090  -29.4580   22.5030 C   0  0  0  0  0  0  0  0  0  0  0  0
  -21.4820  -29.2890   22.3730 N   0  0  0  0  0  0  0  0  0  0  0  0
  -23.4820  -28.8200   23.3160 O   0  0  0  0  0  0  0  0  0  0  0  0
  -20.9990  -29.8580   21.6900 H   0  0  0  0  0  0  0  0  0  0  0  0
  -18.0930  -28.1180   22.8620 C   0  0  0  0  0  0  0  0  0  0  0  0
  -20.6540  -28.3480   23.1300 C   0  0  0  0  0  3  0  0  0  0  0  0
  -20.7400  -26.9240   22.5360 C   0  0  0  0  0  2  0  0  0  0  0  0
  -19.6350  -26.6250   21.5180 C   0  0  0  0  0  2  0  0  0  0  0  0
  -18.2550  -26.7760   22.1650 C   0  0  0  0  0  2  0  0  0  0  0  0
  -19.2200  -28.8630   23.2990 C   0  0  0  0  0  0  0  0  0  0  0  0
  -19.0140  -30.1210   23.9070 C   0  0  0  0  0  3  0  0  0  0  0  0
  -17.7140  -30.6320   24.0840 C   0  0  0  0  0  3  0  0  0  0  0  0
  -16.6020  -29.8820   23.6630 C   0  0  0  0  0  3  0  0  0  0  0  0
  -16.7920  -28.6270   23.0580 C   0  0  0  0  0  3  0  0  0  0  0  0
  -25.9050  -32.5380   23.8540 C   0  0  0  0  0  3  0  0  0  0  0  0
  -26.4020  -31.7760   25.1440 C   0  0  1  0  0  0  0  0  0  0  0  0
  -25.2900  -31.5340   26.1910 C   0  0  0  0  0  1  0  0  0  0  0  0
  -27.0020  -30.4030   24.7680 C   0  0  0  0  0  1  0  0  0  0  0  0
  -27.5330  -32.5820   25.8240 C   0  0  0  0  0  1  0  0  0  0  0  0
  -25.5790  -33.9350   24.1760 N   0  0  0  0  0  0  0  0  0  0  0  0
  -25.9120  -34.9900   23.4200 C   0  0  0  0  0  0  0  0  0  0  0  0
  -26.5960  -34.8900   22.3970 O   0  0  0  0  0  0  0  0  0  0  0  0
  -24.9780  -34.0880   24.9720 H   0  0  0  0  0  0  0  0  0  0  0  0
  -24.1730  -36.7670   23.0390 C   0  0  0  0  0  1  0  0  0  0  0  0
  -25.4060  -36.3750   23.8680 C   0  0  0  0  0  3  0  0  0  0  0  0
  -27.5210  -37.2820   24.7260 C   0  0  0  0  0  1  0  0  0  0  0  0
  -26.4310  -37.4390   23.7670 N   0  0  0  0  0  0  0  0  0  0  0  0
  -26.0150  -38.3550   23.9030 H   0  0  0  0  0  0  0  0  0  0  0  0
  1 45  2  0
  2 16  1  0
  3  8  1  0
  4  5  1  0
  4  3  1  0
  6  5  1  0
  6 20  1  0
  6  7  1  0
  8  2  1  0
  8  7  1  0
  9  2  2  0
 11 10  1  0
 11 12  1  0
 13 14  1  0
 14  1  1  0
 14 10  1  0
 15 13  1  0
 15 16  1  0
 15 11  1  0
 16 12  1  0
 17 18  2  0
 18 37  1  0
 19 18  1  0
 19 22  1  0
 20 21  1  0
 20 17  1  0
 21 19  2  0
 22 23  1  0
 23 24  2  0
 25 28  1  0
 25 24  1  0
 26 25  2  0
 27 26  1  0
 27 22  2  0
 28 29  1  0
 29 30  1  0
 30 31  2  0
 32 31  1  0
 32 36  1  0
 33 32  2  0
 34 29  2  0
 34 33  1  0
 35 34  1  0
 37 38  1  0
 38 41  1  0
 38 40  1  0
 39 37  2  0
 42 43  1  0
 42 17  1  0
 44 42  1  0
 46 45  1  0
 46 47  2  0
 48 47  1  0
 49 60  2  0
 50 48  1  0
 50 55  1  0
 51 59  1  0
 51 61  1  0
 52 58  1  0
 52 54  1  0
 53 59  1  0
 54 55  2  0
 54 53  1  0
 56 50  2  0
 57 56  1  0
 57 52  2  0
 58 51  1  0
 59 49  1  0
 61 63  2  0
 62 61  1  0
 64 62  1  0
 65 74  2  0
 65 70  1  0
 66 62  1  0
 66 70  1  0
 67 66  1  0
 68 69  1  0
 68 67  1  0
 69 65  1  0
 70 71  2  0
 71 72  1  0
 73 72  2  0
 74 73  1  0
 75 49  1  0
 75 80  1  0
 75 76  1  0
 76 79  1  1
 76 77  1  0
 78 76  1  0
 80 83  1  0
 81 85  1  0
 81 80  1  0
 82 81  2  0
 85 84  1  0
 87 85  1  0
 87 88  1  0
 87 86  1  0
M  ISO  4   2 100  16 100  47 101  48 101
M  END
>  <TORSDO>  (9) 
F 19

>  <SCORE>  (9) 
-13.552

>  <name>  (9) 
8

>  <ligand_id>  (9) 
8

>  <original_smiles>  (9) 
[H]C1=C2C([H])([H])N(C(=O)N3C([H])([H])C([H])([H])C([H])([H])C([H])(n4nc(-c5c([H])c([H])c(Oc6c([H])c([H])c(F)c([H])c6F)c([H])c5[H])c(C(=O)N([H])[H])c4N([H])[H])C3([H])[H])C2([H])C([H])([H])C1([H])C([H])([H])C([H])([H])C([H])([H])C([H])([H])Oc1c([H])c([H])c2c(c1[H])C([H])([H])N(C(=O)C([H])(N([H])C(=O)C([H])(N([H])C([H])([H])[H])C([H])([H])[H])C(C([H])([H])[H])(C([H])([H])[H])C([H])([H])[H])C([H])(C(=O)N([H])C1([H])c3c([H])c([H])c([H])c([H])c3C([H])([H])C([H])([H])C1([H])[H])C2([H])[H]

>  <smiles>  (9) 
[H]C1=C2C([H])([H])N(C(=O)N3C([H])([H])C([H])([H])C([H])([H])C([H])(n4nc(-c5c([H])c([H])c(Oc6c([H])c([H])c(F)c([H])c6F)c([H])c5[H])c(C(=O)N([H])[H])c4N([H])[H])C3([H])[H])C2([H])C([H])([H])C1([H])C([H])([H])C([H])([H])C([H])([H])C([H])([H])Oc1c([H])c([H])c2c(c1[H])C([H])([H])N(C(=O)C([H])(N([H])C(=O)C([H])(N([H])C([H])([H])[H])C([H])([H])[H])C(C([H])([H])[H])(C([H])([H])[H])C([H])([H])[H])C([H])(C(=O)N([H])C1([H])c3c([H])c([H])c([H])c([H])c3C([H])([H])C([H])([H])C1([H])[H])C2([H])[H]

$$$$
9:0:0
     RDKit          3D

 92100  0  0  1  0  0  0  0  0999 V2000
  -28.6030  -21.7450   21.1170 C   0  0  0  0  0  2  0  0  0  0  0  0
  -28.3660  -24.2330   20.6980 C   0  0  0  0  0  0  0  0  0  0  0  0
  -28.5590  -22.9620   20.2730 N   0  0  0  0  0  0  0  0  0  0  0  0
  -28.0870  -24.4850   21.8730 O   0  0  0  0  0  0  0  0  0  0  0  0
  -28.7750  -22.8480   19.2910 H   0  0  0  0  0  0  0  0  0  0  0  0
  -28.5630  -25.3770   19.6610 C   0  0  0  0  0  2  0  0  0  0  0  0
  -28.4240  -26.7100   20.2120 O   0  0  0  0  0  0  0  0  0  0  0  0
  -24.5910  -31.8900   23.2350 C   0  0  0  0  0  0  0  0  0  0  0  0
  -27.2280  -27.4150   20.1700 C   0  0  0  0  0  0  0  0  0  0  0  0
  -23.3780  -30.4820   21.6000 C   0  0  0  0  0  3  0  0  0  0  0  0
  -24.8280  -28.9400   20.1700 C   0  0  0  0  0  0  0  0  0  0  0  0
  -25.9020  -30.8430   21.3890 C   0  0  0  0  0  2  0  0  0  0  0  0
  -25.9870  -29.4660   20.7520 C   0  0  0  0  0  0  0  0  0  0  0  0
  -27.1840  -28.7120   20.7450 C   0  0  0  0  0  3  0  0  0  0  0  0
  -26.0440  -26.9070   19.5890 C   0  0  0  0  0  3  0  0  0  0  0  0
  -24.8540  -27.6600   19.5860 C   0  0  0  0  0  3  0  0  0  0  0  0
  -23.5810  -29.7940   20.2200 C   0  0  0  0  0  2  0  0  0  0  0  0
  -24.6430  -31.0860   22.1340 N   0  0  0  0  0  0  0  0  0  0  0  0
  -23.5140  -32.1610   23.7810 O   0  0  0  0  0  0  0  0  0  0  0  0
  -22.7270  -29.4670   22.5680 C   0  0  0  0  0  0  0  0  0  0  0  0
  -21.4020  -29.2860   22.4500 N   0  0  0  0  0  0  0  0  0  0  0  0
  -23.4130  -28.8460   23.3850 O   0  0  0  0  0  0  0  0  0  0  0  0
  -20.9090  -29.8400   21.7640 H   0  0  0  0  0  0  0  0  0  0  0  0
  -18.0330  -28.0860   22.9600 C   0  0  0  0  0  0  0  0  0  0  0  0
  -20.5900  -28.3500   23.2270 C   0  0  0  0  0  3  0  0  0  0  0  0
  -20.6950  -26.9190   22.6530 C   0  0  0  0  0  2  0  0  0  0  0  0
  -19.5910  -26.5890   21.6430 C   0  0  0  0  0  2  0  0  0  0  0  0
  -18.2100  -26.7350   22.2890 C   0  0  0  0  0  2  0  0  0  0  0  0
  -19.1500  -28.8510   23.3850 C   0  0  0  0  0  0  0  0  0  0  0  0
  -18.9310  -30.1160   23.9730 C   0  0  0  0  0  3  0  0  0  0  0  0
  -17.6270  -30.6170   24.1390 C   0  0  0  0  0  3  0  0  0  0  0  0
  -16.5230  -29.8490   23.7320 C   0  0  0  0  0  3  0  0  0  0  0  0
  -16.7270  -28.5850   23.1490 C   0  0  0  0  0  3  0  0  0  0  0  0
  -25.8810  -32.5250   23.8470 C   0  0  0  0  0  3  0  0  0  0  0  0
  -26.4090  -31.7520   25.1180 C   0  0  1  0  0  0  0  0  0  0  0  0
  -25.3270  -31.5160   26.1950 C   0  0  0  0  0  1  0  0  0  0  0  0
  -26.9870  -30.3750   24.7170 C   0  0  0  0  0  1  0  0  0  0  0  0
  -27.5610  -32.5490   25.7760 C   0  0  0  0  0  1  0  0  0  0  0  0
  -25.5710  -33.9200   24.1840 N   0  0  0  0  0  0  0  0  0  0  0  0
  -25.8960  -34.9770   23.4250 C   0  0  0  0  0  0  0  0  0  0  0  0
  -26.5590  -34.8790   22.3900 O   0  0  0  0  0  0  0  0  0  0  0  0
  -24.9870  -34.0700   24.9950 H   0  0  0  0  0  0  0  0  0  0  0  0
  -24.1620  -36.7640   23.0880 C   0  0  0  0  0  1  0  0  0  0  0  0
  -25.4090  -36.3620   23.8910 C   0  0  0  0  0  3  0  0  0  0  0  0
  -27.5470  -37.2450   24.7100 C   0  0  0  0  0  1  0  0  0  0  0  0
  -26.4370  -37.4180   23.7760 N   0  0  0  0  0  0  0  0  0  0  0  0
  -26.0290  -38.3360   23.9360 H   0  0  0  0  0  0  0  0  0  0  0  0
  -28.7530  -20.4240   20.2950 C   0  0  0  0  0  2  0  0  0  0  0  0
  -28.9610  -19.1890   21.1200 N   0  0  0  0  0  4  0  0  0  0  0  0
  -29.8320  -19.2900   21.6180 H   0  0  0  0  0  0  0  0  0  0  0  0
  -28.2300  -19.1380   21.8100 H   0  0  0  0  0  0  0  0  0  0  0  0
  -30.6530  -14.5520   20.3590 C   0  0  0  0  0  0  0  0  0  0  0  0
  -30.3860  -12.3430   19.3180 C   0  0  0  0  0  2  0  0  0  0  0  0
  -29.4490  -12.5180   18.1020 C   0  0  0  0  0  2  0  0  0  0  0  0
  -27.9710  -12.3910   18.5270 C   0  0  0  0  0  2  0  0  0  0  0  0
  -27.6220  -13.2480   19.7730 C   0  0  0  0  0  3  0  0  0  0  0  0
  -28.6790  -13.0790   20.8880 C   0  0  0  0  0  2  0  0  0  0  0  0
  -29.9960  -13.3600   20.3040 N   0  0  0  0  0  0  0  0  0  0  0  0
  -31.8550  -14.6520   20.1020 O   0  0  0  0  0  0  0  0  0  0  0  0
  -29.8570  -17.8430   19.1310 C   0  0  0  0  0  2  0  0  0  0  0  0
  -29.9660  -16.3400   18.8450 C   0  0  0  0  0  2  0  0  0  0  0  0
  -29.4800  -16.6400   21.1500 C   0  0  0  0  0  2  0  0  0  0  0  0
  -28.9760  -17.8890   20.3710 C   0  0  0  0  0  3  0  0  0  0  0  0
  -29.8480  -15.6290   20.1340 N   0  0  0  0  0  0  0  0  0  0  0  0
  -25.2320  -13.8590   20.4970 C   0  0  0  0  0  0  0  0  0  0  0  0
  -24.1650  -13.0890   20.8720 C   0  0  0  0  0  0  0  0  0  0  0  0
  -24.6260  -11.7370   20.8500 C   0  0  0  0  0  0  0  0  0  0  0  0
  -26.2760  -12.9760   20.2630 N   0  0  0  0  0  0  0  0  0  0  0  0
  -25.9160  -11.6960   20.5370 N   0  0  0  0  0  0  0  0  0  0  0  0
  -23.9020  -10.4760   21.0470 C   0  0  0  0  0  0  0  0  0  0  0  0
  -24.3530   -9.5040   21.9670 C   0  0  0  0  0  3  0  0  0  0  0  0
  -23.6300   -8.3070   22.1540 C   0  0  0  0  0  3  0  0  0  0  0  0
  -22.4420   -8.0750   21.4220 C   0  0  0  0  0  0  0  0  0  0  0  0
  -22.0100   -9.0340   20.4890 C   0  0  0  0  0  3  0  0  0  0  0  0
  -22.7330  -10.2240   20.3000 C   0  0  0  0  0  3  0  0  0  0  0  0
  -21.6850   -6.9320   21.5220 O   0  0  0  0  0  0  0  0  0  0  0  0
  -21.6730   -6.1730   22.6620 C   0  0  0  0  0  0  0  0  0  0  0  0
  -21.3030   -6.7130   23.9140 C   0  0  0  0  0  3  0  0  0  0  0  0
  -21.2360   -5.8800   25.0480 C   0  0  0  0  0  3  0  0  0  0  0  0
  -21.5270   -4.5080   24.9340 C   0  0  0  0  0  0  0  0  0  0  0  0
  -21.8900   -3.9670   23.6880 C   0  0  0  0  0  3  0  0  0  0  0  0
  -21.9580   -4.7970   22.5560 C   0  0  0  0  0  0  0  0  0  0  0  0
  -22.2870   -4.2660   21.3530 F   0  0  0  0  0  0  0  0  0  0  0  0
  -21.4580   -3.7050   26.0230 F   0  0  0  0  0  0  0  0  0  0  0  0
  -22.7670  -13.5680   21.1400 C   0  0  0  0  0  0  0  0  0  0  0  0
  -22.0380  -12.8810   22.0130 N   0  0  0  0  0  0  0  0  0  0  0  0
  -22.3270  -14.5870   20.6090 O   0  0  0  0  0  0  0  0  0  0  0  0
  -22.4090  -12.0630   22.4760 H   0  0  0  0  0  0  0  0  0  0  0  0
  -21.0970  -13.1800   22.2260 H   0  0  0  0  0  0  0  0  0  0  0  0
  -25.4010  -15.2280   20.3150 N   0  0  0  0  0  0  0  0  0  0  0  0
  -24.6510  -15.8960   20.4490 H   0  0  0  0  0  0  0  0  0  0  0  0
  -26.2620  -15.6510   19.9950 H   0  0  0  0  0  0  0  0  0  0  0  0
  2  4  2  0
  3  2  1  0
  3  1  1  0
  5  3  1  0
  6  7  1  0
  6  2  1  0
  8 19  2  0
  9  7  1  0
  9 14  1  0
 10 18  1  0
 10 20  1  0
 11 17  1  0
 11 13  1  0
 12 18  1  0
 13 12  1  0
 14 13  2  0
 15  9  2  0
 16 15  1  0
 16 11  2  0
 17 10  1  0
 18  8  1  0
 20 22  2  0
 21 20  1  0
 23 21  1  0
 24 33  2  0
 24 29  1  0
 25 21  1  0
 25 29  1  0
 26 25  1  0
 27 28  1  0
 27 26  1  0
 28 24  1  0
 29 30  2  0
 30 31  1  0
 32 31  2  0
 33 32  1  0
 34  8  1  0
 34 39  1  0
 34 35  1  0
 35 38  1  1
 35 36  1  0
 37 35  1  0
 39 42  1  0
 40 44  1  0
 40 39  1  0
 41 40  2  0
 44 43  1  0
 46 44  1  0
 46 47  1  0
 46 45  1  0
 48  1  1  0
 48 49  1  0
 49 50  1  0
 49 51  1  0
 53 58  1  0
 54 55  1  0
 54 53  1  0
 56 55  1  0
 56 68  1  0
 56 57  1  0
 58 52  1  0
 58 57  1  0
 59 52  2  0
 60 63  1  0
 61 60  1  0
 61 64  1  0
 63 49  1  0
 63 62  1  0
 64 52  1  0
 64 62  1  0
 65 66  2  0
 66 85  1  0
 67 66  1  0
 67 70  1  0
 68 65  1  0
 68 69  1  0
 69 67  2  0
 70 71  1  0
 71 72  2  0
 73 76  1  0
 73 72  1  0
 74 73  2  0
 75 74  1  0
 75 70  2  0
 76 77  1  0
 77 78  1  0
 78 79  2  0
 80 79  1  0
 80 84  1  0
 81 80  2  0
 82 77  2  0
 82 81  1  0
 83 82  1  0
 85 86  1  0
 86 89  1  0
 86 88  1  0
 87 85  2  0
 90 91  1  0
 90 65  1  0
 92 90  1  0
M  ISO  4   6 101   7 101  52 100  64 100
M  END
>  <TORSDO>  (10) 
F 20

>  <SCORE>  (10) 
-13.892

>  <name>  (10) 
9

>  <ligand_id>  (10) 
9

>  <original_smiles>  (10) 
[H]c1c([H])c([H])c2c(c1[H])C([H])([H])C([H])([H])C([H])([H])C2([H])N([H])C(=O)C1([H])N(C(=O)C([H])(N([H])C(=O)C([H])(N([H])C([H])([H])[H])C([H])([H])[H])C(C([H])([H])[H])(C([H])([H])[H])C([H])([H])[H])C([H])([H])c2c([H])c(OC([H])([H])C(=O)N([H])C([H])([H])C([H])([H])[N+]([H])([H])C3([H])C([H])([H])N(C(=O)N4C([H])([H])C([H])([H])C([H])([H])C([H])(n5nc(-c6c([H])c([H])c(Oc7c([H])c([H])c(F)c([H])c7F)c([H])c6[H])c(C(=O)N([H])[H])c5N([H])[H])C4([H])[H])C([H])([H])C3([H])[H])c([H])c([H])c2C1([H])[H]

>  <smiles>  (10) 
[H]c1c([H])c([H])c2c(c1[H])C([H])([H])C([H])([H])C([H])([H])C2([H])N([H])C(=O)C1([H])N(C(=O)C([H])(N([H])C(=O)C([H])(N([H])C([H])([H])[H])C([H])([H])[H])C(C([H])([H])[H])(C([H])([H])[H])C([H])([H])[H])C([H])([H])c2c([H])c(OC([H])([H])C(=O)N([H])C([H])([H])C([H])([H])[N+]([H])([H])C3([H])C([H])([H])N(C(=O)N4C([H])([H])C([H])([H])C([H])([H])C([H])(n5nc(-c6c([H])c([H])c(Oc7c([H])c([H])c(F)c([H])c7F)c([H])c6[H])c(C(=O)N([H])[H])c5N([H])[H])C4([H])[H])C([H])([H])C3([H])[H])c([H])c([H])c2C1([H])[H]

$$$$
10:0:0
     RDKit          3D

 95104  0  0  1  0  0  0  0  0999 V2000
  -30.4900  -18.8530   21.0560 C   0  0  0  0  0  3  0  0  0  0  0  0
  -30.7670  -20.0960   21.6670 C   0  0  0  0  0  3  0  0  0  0  0  0
  -28.8940  -20.0330   19.6710 C   0  0  0  0  0  3  0  0  0  0  0  0
  -29.5570  -18.7300   20.0160 C   0  0  0  0  0  0  0  0  0  0  0  0
  -30.1240  -21.3180   21.3230 C   0  0  0  0  0  0  0  0  0  0  0  0
  -29.1320  -21.3750   20.3050 C   0  0  0  0  0  0  0  0  0  0  0  0
  -28.2530  -22.7930   20.1380 C   0  0  0  0  0  2  0  0  0  0  0  0
  -28.7010  -24.3910   19.7210 C   0  0  0  0  0  2  0  0  0  0  0  0
  -28.4380  -25.8270   20.3050 O   0  0  0  0  0  0  0  0  0  0  0  0
  -24.4700  -31.4050   22.9910 C   0  0  0  0  0  0  0  0  0  0  0  0
  -27.3410  -26.7500   20.1070 C   0  0  0  0  0  0  0  0  0  0  0  0
  -23.3920  -29.9570   21.3110 C   0  0  0  0  0  3  0  0  0  0  0  0
  -24.9560  -28.4200   19.9550 C   0  0  0  0  0  0  0  0  0  0  0  0
  -25.9390  -30.3020   21.2610 C   0  0  0  0  0  2  0  0  0  0  0  0
  -26.0870  -28.9100   20.6180 C   0  0  0  0  0  0  0  0  0  0  0  0
  -27.2720  -28.0860   20.6830 C   0  0  0  0  0  3  0  0  0  0  0  0
  -26.1880  -26.3600   19.3970 C   0  0  0  0  0  3  0  0  0  0  0  0
  -25.0190  -27.1600   19.3310 C   0  0  0  0  0  3  0  0  0  0  0  0
  -23.6950  -29.2750   19.9480 C   0  0  0  0  0  2  0  0  0  0  0  0
  -24.6160  -30.5790   21.9090 N   0  0  0  0  0  0  0  0  0  0  0  0
  -23.3530  -31.6580   23.4690 O   0  0  0  0  0  0  0  0  0  0  0  0
  -22.7050  -28.9360   22.2530 C   0  0  0  0  0  0  0  0  0  0  0  0
  -21.3780  -28.7660   22.1140 N   0  0  0  0  0  0  0  0  0  0  0  0
  -23.3730  -28.2980   23.0710 O   0  0  0  0  0  0  0  0  0  0  0  0
  -20.8970  -29.3280   21.4260 H   0  0  0  0  0  0  0  0  0  0  0  0
  -17.9850  -27.6260   22.6570 C   0  0  0  0  0  0  0  0  0  0  0  0
  -20.5570  -27.8160   22.8680 C   0  0  0  0  0  3  0  0  0  0  0  0
  -20.6080  -26.4090   22.2300 C   0  0  0  0  0  2  0  0  0  0  0  0
  -19.4730  -26.1580   21.2320 C   0  0  0  0  0  2  0  0  0  0  0  0
  -18.1110  -26.3060   21.9160 C   0  0  0  0  0  2  0  0  0  0  0  0
  -19.1330  -28.3430   23.0910 C   0  0  0  0  0  0  0  0  0  0  0  0
  -18.9590  -29.5810   23.7470 C   0  0  0  0  0  3  0  0  0  0  0  0
  -17.6710  -30.1020   23.9710 C   0  0  0  0  0  3  0  0  0  0  0  0
  -16.5380  -29.3820   23.5540 C   0  0  0  0  0  3  0  0  0  0  0  0
  -16.6960  -28.1460   22.9020 C   0  0  0  0  0  3  0  0  0  0  0  0
  -25.6980  -32.0920   23.6660 C   0  0  0  0  0  3  0  0  0  0  0  0
  -25.3320  -33.4900   23.9440 N   0  0  0  0  0  0  0  0  0  0  0  0
  -25.6490  -34.5330   23.1650 C   0  0  0  0  0  0  0  0  0  0  0  0
  -26.3420  -34.4220   22.1510 O   0  0  0  0  0  0  0  0  0  0  0  0
  -24.7170  -33.6470   24.7290 H   0  0  0  0  0  0  0  0  0  0  0  0
  -23.8580  -36.2560   22.7500 C   0  0  0  0  0  1  0  0  0  0  0  0
  -25.1100  -35.9200   23.5750 C   0  0  0  0  0  3  0  0  0  0  0  0
  -27.2020  -36.9180   24.3900 C   0  0  0  0  0  1  0  0  0  0  0  0
  -26.1040  -37.0040   23.4300 N   0  0  0  0  0  0  0  0  0  0  0  0
  -25.6630  -37.9140   23.5370 H   0  0  0  0  0  0  0  0  0  0  0  0
  -26.1600  -31.3720   24.9930 C   0  0  1  0  0  0  0  0  0  0  0  0
  -25.0110  -31.1370   26.0020 C   0  0  0  0  0  1  0  0  0  0  0  0
  -26.8030  -29.9990   24.6880 C   0  0  0  0  0  1  0  0  0  0  0  0
  -27.2450  -32.2200   25.6980 C   0  0  0  0  0  1  0  0  0  0  0  0
  -30.5020  -22.5420   22.1530 C   0  0  0  0  0  2  0  0  0  0  0  0
  -32.0690  -21.8760   23.9890 C   0  0  0  0  0  0  0  0  0  0  0  0
  -32.0140  -21.5060   25.4610 C   0  0  0  0  0  2  0  0  0  0  0  0
  -30.5130  -21.4420   25.7560 C   0  0  0  0  0  2  0  0  0  0  0  0
  -29.8320  -22.1440   24.5710 C   0  0  0  0  0  2  0  0  0  0  0  0
  -30.8520  -22.1970   23.5320 N   0  0  0  0  0  0  0  0  0  0  0  0
  -33.1130  -21.8630   23.3330 O   0  0  0  0  0  0  0  0  0  0  0  0
  -29.4600  -17.2470   19.2590 C   0  0  0  0  0  2  0  0  0  0  0  0
  -30.2640  -14.5780   19.4400 C   0  0  0  0  0  0  0  0  0  0  0  0
  -29.9610  -12.2510   18.4600 C   0  0  0  0  0  2  0  0  0  0  0  0
  -28.8460  -12.2930   17.3880 C   0  0  0  0  0  2  0  0  0  0  0  0
  -27.4600  -12.0960   18.0290 C   0  0  0  0  0  2  0  0  0  0  0  0
  -27.2800  -12.9450   19.3150 C   0  0  0  0  0  3  0  0  0  0  0  0
  -28.5030  -12.8770   20.2540 C   0  0  0  0  0  2  0  0  0  0  0  0
  -29.6690  -13.3110   19.4740 N   0  0  0  0  0  0  0  0  0  0  0  0
  -31.3640  -14.6530   18.8820 O   0  0  0  0  0  0  0  0  0  0  0  0
  -29.5480  -15.7570   19.8320 N   0  0  0  0  0  0  0  0  0  0  0  0
  -28.7400  -15.5250   20.3870 H   0  0  0  0  0  0  0  0  0  0  0  0
  -25.0850  -13.5190   20.4910 C   0  0  0  0  0  0  0  0  0  0  0  0
  -24.0720  -12.7460   20.9840 C   0  0  0  0  0  0  0  0  0  0  0  0
  -24.4700  -11.3900   20.7710 C   0  0  0  0  0  0  0  0  0  0  0  0
  -26.0360  -12.6370   20.0090 N   0  0  0  0  0  0  0  0  0  0  0  0
  -25.6870  -11.3440   20.2400 N   0  0  0  0  0  0  0  0  0  0  0  0
  -23.7340  -10.1380   20.9950 C   0  0  0  0  0  0  0  0  0  0  0  0
  -24.2500   -9.1190   21.8280 C   0  0  0  0  0  3  0  0  0  0  0  0
  -23.5170   -7.9310   22.0440 C   0  0  0  0  0  3  0  0  0  0  0  0
  -22.2540   -7.7560   21.4290 C   0  0  0  0  0  0  0  0  0  0  0  0
  -21.7550   -8.7640   20.5850 C   0  0  0  0  0  3  0  0  0  0  0  0
  -22.4880   -9.9430   20.3670 C   0  0  0  0  0  3  0  0  0  0  0  0
  -21.4830   -6.6270   21.5600 O   0  0  0  0  0  0  0  0  0  0  0  0
  -21.5220   -5.8540   22.6920 C   0  0  0  0  0  0  0  0  0  0  0  0
  -21.1620   -6.3680   23.9580 C   0  0  0  0  0  3  0  0  0  0  0  0
  -21.1510   -5.5200   25.0840 C   0  0  0  0  0  3  0  0  0  0  0  0
  -21.4900   -4.1610   24.9450 C   0  0  0  0  0  0  0  0  0  0  0  0
  -21.8430   -3.6470   23.6850 C   0  0  0  0  0  3  0  0  0  0  0  0
  -21.8560   -4.4910   22.5620 C   0  0  0  0  0  0  0  0  0  0  0  0
  -22.1780   -3.9870   21.3460 F   0  0  0  0  0  0  0  0  0  0  0  0
  -21.4700   -3.3460   26.0260 F   0  0  0  0  0  0  0  0  0  0  0  0
  -22.7620  -13.2380   21.5260 C   0  0  0  0  0  0  0  0  0  0  0  0
  -22.1620  -12.4940   22.4450 N   0  0  0  0  0  0  0  0  0  0  0  0
  -22.2860  -14.3160   21.1690 O   0  0  0  0  0  0  0  0  0  0  0  0
  -22.5650  -11.6210   22.7530 H   0  0  0  0  0  0  0  0  0  0  0  0
  -21.2850  -12.7970   22.8450 H   0  0  0  0  0  0  0  0  0  0  0  0
  -25.2680  -14.8960   20.3850 N   0  0  0  0  0  0  0  0  0  0  0  0
  -24.5370  -15.5500   20.6460 H   0  0  0  0  0  0  0  0  0  0  0  0
  -26.0400  -15.3360   19.9010 H   0  0  0  0  0  0  0  0  0  0  0  0
  1  2  1  0
  3  4  1  0
  3  6  2  0
  4  1  2  0
  5  2  2  0
  5 50  1  0
  6  5  1  0
  7  6  1  0
  8  7  1  0
  8  9  1  0
 10 21  2  0
 11  9  1  0
 11 16  1  0
 12 20  1  0
 12 22  1  0
 13 15  1  0
 14 20  1  0
 15 16  2  0
 15 14  1  0
 17 11  2  0
 18 17  1  0
 18 13  2  0
 19 13  1  0
 19 12  1  0
 20 10  1  0
 22 24  2  0
 23 22  1  0
 25 23  1  0
 26 35  2  0
 26 31  1  0
 27 23  1  0
 27 31  1  0
 28 27  1  0
 29 30  1  0
 29 28  1  0
 30 26  1  0
 31 32  2  0
 32 33  1  0
 34 33  2  0
 35 34  1  0
 36 10  1  0
 36 37  1  0
 36 46  1  0
 37 40  1  0
 38 42  1  0
 38 37  1  0
 39 38  2  0
 42 41  1  0
 44 45  1  0
 44 42  1  0
 44 43  1  0
 46 49  1  1
 46 47  1  0
 48 46  1  0
 50 55  1  0
 51 52  1  0
 52 53  1  0
 54 53  1  0
 55 51  1  0
 55 54  1  0
 56 51  2  0
 57 66  1  0
 57  4  1  0
 58 64  1  0
 58 66  1  0
 59 64  1  0
 60 61  1  0
 60 59  1  0
 62 61  1  0
 62 71  1  0
 62 63  1  0
 64 63  1  0
 65 58  2  0
 66 67  1  0
 68 69  2  0
 69 88  1  0
 70 69  1  0
 70 73  1  0
 71 72  1  0
 71 68  1  0
 72 70  2  0
 73 74  1  0
 74 75  2  0
 76 79  1  0
 76 75  1  0
 77 76  2  0
 78 77  1  0
 78 73  2  0
 79 80  1  0
 80 81  1  0
 81 82  2  0
 83 82  1  0
 83 87  1  0
 84 83  2  0
 85 80  2  0
 85 84  1  0
 86 85  1  0
 88 89  1  0
 89 91  1  0
 89 92  1  0
 90 88  2  0
 93 68  1  0
 93 94  1  0
 95 93  1  0
M  ISO  4   8 101   9 101  58 100  66 100
M  END
>  <TORSDO>  (11) 
F 21

>  <SCORE>  (11) 
-8.706

>  <name>  (11) 
10

>  <ligand_id>  (11) 
10

>  <original_smiles>  (11) 
[H]c1c([H])c([H])c2c(c1[H])C([H])([H])C([H])([H])C([H])([H])C2([H])N([H])C(=O)C1([H])N(C(=O)C([H])(N([H])C(=O)C([H])(N([H])C([H])([H])[H])C([H])([H])[H])C(C([H])([H])[H])(C([H])([H])[H])C([H])([H])[H])C([H])([H])c2c([H])c(OC([H])([H])C([H])([H])c3c([H])c(C([H])([H])N([H])C(=O)N4C([H])([H])C([H])([H])C([H])([H])C([H])(n5nc(-c6c([H])c([H])c(Oc7c([H])c([H])c(F)c([H])c7F)c([H])c6[H])c(C(=O)N([H])[H])c5N([H])[H])C4([H])[H])c([H])c([H])c3C([H])([H])N3C(=O)C([H])([H])C([H])([H])C3([H])[H])c([H])c([H])c2C1([H])[H]

>  <smiles>  (11) 
[H]c1c([H])c([H])c2c(c1[H])C([H])([H])C([H])([H])C([H])([H])C2([H])N([H])C(=O)C1([H])N(C(=O)C([H])(N([H])C(=O)C([H])(N([H])C([H])([H])[H])C([H])([H])[H])C(C([H])([H])[H])(C([H])([H])[H])C([H])([H])[H])C([H])([H])c2c([H])c(OC([H])([H])C([H])([H])c3c([H])c(C([H])([H])N([H])C(=O)N4C([H])([H])C([H])([H])C([H])([H])C([H])(n5nc(-c6c([H])c([H])c(Oc7c([H])c([H])c(F)c([H])c7F)c([H])c6[H])c(C(=O)N([H])[H])c5N([H])[H])C4([H])[H])c([H])c([H])c3C([H])([H])N3C(=O)C([H])([H])C([H])([H])C3([H])[H])c([H])c([H])c2C1([H])[H]

$$$$
11:0:0
     RDKit          3D

 89 97  0  0  1  0  0  0  0  0999 V2000
  -29.1570  -19.7510   20.4750 C   0  0  0  0  0  0  0  0  0  0  0  0
  -29.0850  -21.1530   19.9680 N   0  0  0  0  0  0  0  0  0  0  0  0
  -28.6620  -19.5730   21.5860 O   0  0  0  0  0  0  0  0  0  0  0  0
  -29.4720  -21.2090   19.0340 H   0  0  0  0  0  0  0  0  0  0  0  0
  -31.1330  -18.2090   18.0210 C   0  0  0  0  0  2  0  0  0  0  0  0
  -29.6290  -18.3310   18.2650 C   0  0  0  0  0  2  0  0  0  0  0  0
  -31.3500  -18.5850   19.4900 C   0  0  0  0  0  2  0  0  0  0  0  0
  -29.8640  -18.2810   19.7920 C   0  0  1  0  0  0  0  0  0  0  0  0
  -30.4650  -15.3680   20.0790 C   0  0  0  0  0  0  0  0  0  0  0  0
  -30.4110  -12.9120   19.2250 C   0  0  0  0  0  2  0  0  0  0  0  0
  -29.4840  -12.7300   17.9980 C   0  0  0  0  0  2  0  0  0  0  0  0
  -28.0470  -12.4390   18.4600 C   0  0  0  0  0  2  0  0  0  0  0  0
  -27.6080  -13.3970   19.5950 C   0  0  0  0  0  3  0  0  0  0  0  0
  -28.6660  -13.5680   20.7070 C   0  0  0  0  0  2  0  0  0  0  0  0
  -29.8910  -14.0610   20.0610 N   0  0  0  0  0  0  0  0  0  0  0  0
  -31.6710  -15.3410   19.7900 O   0  0  0  0  0  0  0  0  0  0  0  0
  -29.7230  -16.6550   20.2240 N   0  0  0  0  0  0  0  0  0  0  0  0
  -28.7840  -16.4740   20.5460 H   0  0  0  0  0  0  0  0  0  0  0  0
  -25.2480  -13.9330   20.3890 C   0  0  0  0  0  0  0  0  0  0  0  0
  -24.2010  -13.1470   20.7830 C   0  0  0  0  0  0  0  0  0  0  0  0
  -24.6800  -11.8020   20.7500 C   0  0  0  0  0  0  0  0  0  0  0  0
  -26.2930  -13.0670   20.1290 N   0  0  0  0  0  0  0  0  0  0  0  0
  -25.9670  -11.7790   20.4140 N   0  0  0  0  0  0  0  0  0  0  0  0
  -23.9680  -10.5350   20.9570 C   0  0  0  0  0  0  0  0  0  0  0  0
  -24.4170   -9.5770   21.8930 C   0  0  0  0  0  3  0  0  0  0  0  0
  -23.6990   -8.3760   22.0890 C   0  0  0  0  0  3  0  0  0  0  0  0
  -22.5200   -8.1240   21.3480 C   0  0  0  0  0  0  0  0  0  0  0  0
  -22.0910   -9.0710   20.4000 C   0  0  0  0  0  3  0  0  0  0  0  0
  -22.8080  -10.2620   20.2030 C   0  0  0  0  0  3  0  0  0  0  0  0
  -21.7740   -6.9750   21.4520 O   0  0  0  0  0  0  0  0  0  0  0  0
  -21.7360   -6.2440   22.6120 C   0  0  0  0  0  0  0  0  0  0  0  0
  -21.2940   -6.8020   23.8310 C   0  0  0  0  0  3  0  0  0  0  0  0
  -21.2050   -5.9980   24.9830 C   0  0  0  0  0  3  0  0  0  0  0  0
  -21.5470   -4.6330   24.9180 C   0  0  0  0  0  0  0  0  0  0  0  0
  -21.9810   -4.0730   23.7040 C   0  0  0  0  0  3  0  0  0  0  0  0
  -22.0720   -4.8750   22.5530 C   0  0  0  0  0  0  0  0  0  0  0  0
  -22.4710   -4.3260   21.3800 F   0  0  0  0  0  0  0  0  0  0  0  0
  -21.4560   -3.8570   26.0230 F   0  0  0  0  0  0  0  0  0  0  0  0
  -22.8040  -13.6140   21.0720 C   0  0  0  0  0  0  0  0  0  0  0  0
  -22.0940  -12.9160   21.9510 N   0  0  0  0  0  0  0  0  0  0  0  0
  -22.3520  -14.6330   20.5530 O   0  0  0  0  0  0  0  0  0  0  0  0
  -22.4730  -12.0920   22.3940 H   0  0  0  0  0  0  0  0  0  0  0  0
  -21.1560  -13.2100   22.1850 H   0  0  0  0  0  0  0  0  0  0  0  0
  -25.3910  -15.3030   20.1960 N   0  0  0  0  0  0  0  0  0  0  0  0
  -24.6040  -15.9370   20.2790 H   0  0  0  0  0  0  0  0  0  0  0  0
  -26.2070  -15.7400   19.7900 H   0  0  0  0  0  0  0  0  0  0  0  0
  -28.7630  -22.6970   20.5680 C   0  0  0  0  0  2  0  0  0  0  0  0
  -28.1150  -24.2550   19.8850 C   0  0  0  0  0  2  0  0  0  0  0  0
  -28.1920  -25.8700   20.2920 O   0  0  0  0  0  0  0  0  0  0  0  0
  -24.6210  -31.8620   23.2090 C   0  0  0  0  0  0  0  0  0  0  0  0
  -27.1810  -26.9710   20.1870 C   0  0  0  0  0  0  0  0  0  0  0  0
  -23.4320  -30.4670   21.5690 C   0  0  0  0  0  3  0  0  0  0  0  0
  -24.8820  -28.8630   20.1400 C   0  0  0  0  0  0  0  0  0  0  0  0
  -25.9980  -30.6740   21.4260 C   0  0  0  0  0  2  0  0  0  0  0  0
  -26.0670  -29.2630   20.7670 C   0  0  0  0  0  0  0  0  0  0  0  0
  -27.2080  -28.3380   20.7670 C   0  0  0  0  0  3  0  0  0  0  0  0
  -25.9680  -26.7300   19.5040 C   0  0  0  0  0  3  0  0  0  0  0  0
  -24.8580  -27.6190   19.4880 C   0  0  0  0  0  3  0  0  0  0  0  0
  -23.6620  -29.7850   20.1910 C   0  0  0  0  0  2  0  0  0  0  0  0
  -24.7070  -31.0290   22.1220 N   0  0  0  0  0  0  0  0  0  0  0  0
  -23.5310  -32.1510   23.7290 O   0  0  0  0  0  0  0  0  0  0  0  0
  -22.7360  -29.4700   22.5330 C   0  0  0  0  0  0  0  0  0  0  0  0
  -21.4050  -29.3150   22.4140 N   0  0  0  0  0  0  0  0  0  0  0  0
  -23.4020  -28.8390   23.3580 O   0  0  0  0  0  0  0  0  0  0  0  0
  -20.9210  -29.8740   21.7240 H   0  0  0  0  0  0  0  0  0  0  0  0
  -18.0180  -28.1210   22.9390 C   0  0  0  0  0  0  0  0  0  0  0  0
  -20.5810  -28.3760   23.1840 C   0  0  0  0  0  3  0  0  0  0  0  0
  -20.6720  -26.9480   22.5980 C   0  0  0  0  0  2  0  0  0  0  0  0
  -19.5600  -26.6370   21.5910 C   0  0  0  0  0  2  0  0  0  0  0  0
  -18.1840  -26.7790   22.2460 C   0  0  0  0  0  2  0  0  0  0  0  0
  -19.1420  -28.8780   23.3640 C   0  0  0  0  0  0  0  0  0  0  0  0
  -18.9300  -30.1330   23.9760 C   0  0  0  0  0  3  0  0  0  0  0  0
  -17.6260  -30.6320   24.1630 C   0  0  0  0  0  3  0  0  0  0  0  0
  -16.5170  -29.8740   23.7490 C   0  0  0  0  0  3  0  0  0  0  0  0
  -16.7140  -28.6200   23.1430 C   0  0  0  0  0  3  0  0  0  0  0  0
  -25.8890  -32.5080   23.8460 C   0  0  0  0  0  3  0  0  0  0  0  0
  -26.3790  -31.7560   25.1460 C   0  0  1  0  0  0  0  0  0  0  0  0
  -25.2660  -31.5450   26.2020 C   0  0  0  0  0  1  0  0  0  0  0  0
  -26.9580  -30.3660   24.7950 C   0  0  0  0  0  1  0  0  0  0  0  0
  -27.5240  -32.5540   25.8110 C   0  0  0  0  0  1  0  0  0  0  0  0
  -25.5740  -33.9120   24.1650 N   0  0  0  0  0  0  0  0  0  0  0  0
  -25.9160  -34.9680   23.4140 C   0  0  0  0  0  0  0  0  0  0  0  0
  -26.5940  -34.8610   22.3890 O   0  0  0  0  0  0  0  0  0  0  0  0
  -24.9730  -34.0680   24.9610 H   0  0  0  0  0  0  0  0  0  0  0  0
  -24.2040  -36.7800   23.0510 C   0  0  0  0  0  1  0  0  0  0  0  0
  -25.4360  -36.3610   23.8700 C   0  0  0  0  0  3  0  0  0  0  0  0
  -27.5670  -37.2390   24.7220 C   0  0  0  0  0  1  0  0  0  0  0  0
  -26.4770  -37.4090   23.7650 N   0  0  0  0  0  0  0  0  0  0  0  0
  -26.0740  -38.3320   23.9020 H   0  0  0  0  0  0  0  0  0  0  0  0
  1  3  2  0
  2  1  1  0
  2 47  1  0
  4  2  1  0
  5  6  1  0
  5  7  1  0
  6  8  1  0
  7  8  1  0
  8 17  1  1
  8  1  1  0
  9 17  1  0
 10 15  1  0
 11 12  1  0
 11 10  1  0
 13 12  1  0
 13 22  1  0
 13 14  1  0
 15  9  1  0
 15 14  1  0
 16  9  2  0
 17 18  1  0
 19 20  2  0
 20 39  1  0
 21 20  1  0
 21 24  1  0
 22 19  1  0
 22 23  1  0
 23 21  2  0
 24 25  1  0
 25 26  2  0
 27 30  1  0
 27 26  1  0
 28 27  2  0
 29 28  1  0
 29 24  2  0
 30 31  1  0
 31 32  1  0
 32 33  2  0
 34 33  1  0
 34 38  1  0
 35 34  2  0
 36 31  2  0
 36 35  1  0
 37 36  1  0
 39 40  1  0
 40 43  1  0
 40 42  1  0
 41 39  2  0
 44 45  1  0
 44 19  1  0
 46 44  1  0
 48 49  1  0
 48 47  1  0
 50 61  2  0
 51 49  1  0
 51 56  1  0
 52 60  1  0
 52 62  1  0
 53 59  1  0
 53 55  1  0
 54 60  1  0
 55 54  1  0
 56 55  2  0
 57 51  2  0
 58 57  1  0
 58 53  2  0
 59 52  1  0
 60 50  1  0
 62 64  2  0
 63 62  1  0
 65 63  1  0
 66 75  2  0
 66 71  1  0
 67 63  1  0
 67 71  1  0
 68 67  1  0
 69 70  1  0
 69 68  1  0
 70 66  1  0
 71 72  2  0
 72 73  1  0
 74 73  2  0
 75 74  1  0
 76 50  1  0
 76 81  1  0
 76 77  1  0
 77 80  1  1
 77 78  1  0
 79 77  1  0
 81 84  1  0
 82 86  1  0
 82 81  1  0
 83 82  2  0
 86 85  1  0
 88 86  1  0
 88 89  1  0
 88 87  1  0
M  ISO  4   9 100  17 100  48 101  49 101
M  END
>  <TORSDO>  (12) 
F 19

>  <SCORE>  (12) 
-15.864

>  <name>  (12) 
11

>  <ligand_id>  (12) 
11

>  <original_smiles>  (12) 
[H]c1c([H])c([H])c2c(c1[H])C([H])([H])C([H])([H])C([H])([H])C2([H])N([H])C(=O)C1([H])N(C(=O)C([H])(N([H])C(=O)C([H])(N([H])C([H])([H])[H])C([H])([H])[H])C(C([H])([H])[H])(C([H])([H])[H])C([H])([H])[H])C([H])([H])c2c([H])c(OC([H])([H])C([H])([H])N([H])C(=O)C3(N([H])C(=O)N4C([H])([H])C([H])([H])C([H])([H])C([H])(n5nc(-c6c([H])c([H])c(Oc7c([H])c([H])c(F)c([H])c7F)c([H])c6[H])c(C(=O)N([H])[H])c5N([H])[H])C4([H])[H])C([H])([H])C([H])([H])C3([H])[H])c([H])c([H])c2C1([H])[H]

>  <smiles>  (12) 
[H]c1c([H])c([H])c2c(c1[H])C([H])([H])C([H])([H])C([H])([H])C2([H])N([H])C(=O)C1([H])N(C(=O)C([H])(N([H])C(=O)C([H])(N([H])C([H])([H])[H])C([H])([H])[H])C(C([H])([H])[H])(C([H])([H])[H])C([H])([H])[H])C([H])([H])c2c([H])c(OC([H])([H])C([H])([H])N([H])C(=O)C3(N([H])C(=O)N4C([H])([H])C([H])([H])C([H])([H])C([H])(n5nc(-c6c([H])c([H])c(Oc7c([H])c([H])c(F)c([H])c7F)c([H])c6[H])c(C(=O)N([H])[H])c5N([H])[H])C4([H])[H])C([H])([H])C([H])([H])C3([H])[H])c([H])c([H])c2C1([H])[H]

$$$$
12:0:0
     RDKit          3D

 94103  0  0  1  0  0  0  0  0999 V2000
  -31.7210  -19.5930   20.5170 C   0  0  0  0  0  3  0  0  0  0  0  0
  -31.3580  -18.2290   20.3850 C   0  0  0  0  0  3  0  0  0  0  0  0
  -29.0630  -18.9560   20.2640 C   0  0  0  0  0  3  0  0  0  0  0  0
  -29.4060  -20.4150   20.3410 C   0  0  0  0  0  0  0  0  0  0  0  0
  -30.7860  -20.6590   20.5580 C   0  0  0  0  0  0  0  0  0  0  0  0
  -30.0140  -17.8000   20.3080 C   0  0  0  0  0  0  0  0  0  0  0  0
  -28.4120  -21.7010   20.3890 C   0  0  0  0  0  0  0  0  0  0  0  0
  -31.2610  -22.0320   21.0570 C   0  0  0  0  0  2  0  0  0  0  0  0
  -31.2630  -23.2010   20.0510 C   0  0  0  0  0  2  0  0  0  0  0  0
  -28.7090  -23.2910   19.8500 C   0  0  0  0  0  3  0  0  0  0  0  0
  -30.0500  -23.3290   19.2110 N   0  0  0  0  0  4  0  0  0  0  0  0
  -27.2770  -21.4820   20.8180 O   0  0  0  0  0  0  0  0  0  0  0  0
  -30.0830  -22.5770   18.5400 H   0  0  0  0  0  0  0  0  0  0  0  0
  -30.1310  -24.1800   18.6780 H   0  0  0  0  0  0  0  0  0  0  0  0
  -30.4970  -15.0720   20.2280 C   0  0  0  0  0  0  0  0  0  0  0  0
  -30.3630  -12.7180   19.2830 C   0  0  0  0  0  2  0  0  0  0  0  0
  -29.4200  -12.6810   18.0590 C   0  0  0  0  0  2  0  0  0  0  0  0
  -27.9580  -12.4770   18.5000 C   0  0  0  0  0  2  0  0  0  0  0  0
  -27.5680  -13.3830   19.6970 C   0  0  0  0  0  3  0  0  0  0  0  0
  -28.6380  -13.3880   20.8090 C   0  0  0  0  0  2  0  0  0  0  0  0
  -29.8920  -13.8150   20.1790 N   0  0  0  0  0  0  0  0  0  0  0  0
  -31.7090  -15.0980   19.9840 O   0  0  0  0  0  0  0  0  0  0  0  0
  -29.7140  -16.2760   20.3160 N   0  0  0  0  0  0  0  0  0  0  0  0
  -28.7320  -16.0680   20.3980 H   0  0  0  0  0  0  0  0  0  0  0  0
  -25.1950  -13.9570   20.4550 C   0  0  0  0  0  0  0  0  0  0  0  0
  -24.1370  -13.1810   20.8320 C   0  0  0  0  0  0  0  0  0  0  0  0
  -24.6040  -11.8300   20.8050 C   0  0  0  0  0  0  0  0  0  0  0  0
  -26.2380  -13.0800   20.2100 N   0  0  0  0  0  0  0  0  0  0  0  0
  -25.8930  -11.7960   20.4890 N   0  0  0  0  0  0  0  0  0  0  0  0
  -23.8800  -10.5680   21.0020 C   0  0  0  0  0  0  0  0  0  0  0  0
  -24.3150   -9.6060   21.9400 C   0  0  0  0  0  3  0  0  0  0  0  0
  -23.5910   -8.4080   22.1250 C   0  0  0  0  0  3  0  0  0  0  0  0
  -22.4170   -8.1650   21.3730 C   0  0  0  0  0  0  0  0  0  0  0  0
  -22.0040   -9.1140   20.4220 C   0  0  0  0  0  3  0  0  0  0  0  0
  -22.7270  -10.3030   20.2360 C   0  0  0  0  0  3  0  0  0  0  0  0
  -21.6630   -7.0200   21.4680 O   0  0  0  0  0  0  0  0  0  0  0  0
  -21.6140   -6.2840   22.6250 C   0  0  0  0  0  0  0  0  0  0  0  0
  -21.1850   -6.8430   23.8470 C   0  0  0  0  0  3  0  0  0  0  0  0
  -21.0850   -6.0310   24.9960 C   0  0  0  0  0  3  0  0  0  0  0  0
  -21.4050   -4.6630   24.9220 C   0  0  0  0  0  0  0  0  0  0  0  0
  -21.8290   -4.1030   23.7040 C   0  0  0  0  0  3  0  0  0  0  0  0
  -21.9310   -4.9120   22.5580 C   0  0  0  0  0  0  0  0  0  0  0  0
  -22.3190   -4.3620   21.3820 F   0  0  0  0  0  0  0  0  0  0  0  0
  -21.3020   -3.8830   26.0230 F   0  0  0  0  0  0  0  0  0  0  0  0
  -22.7390  -13.6550   21.1050 C   0  0  0  0  0  0  0  0  0  0  0  0
  -22.0150  -12.9560   21.9710 N   0  0  0  0  0  0  0  0  0  0  0  0
  -22.3010  -14.6820   20.5860 O   0  0  0  0  0  0  0  0  0  0  0  0
  -22.3840  -12.1290   22.4140 H   0  0  0  0  0  0  0  0  0  0  0  0
  -21.0760  -13.2550   22.1960 H   0  0  0  0  0  0  0  0  0  0  0  0
  -25.3510  -15.3280   20.2710 N   0  0  0  0  0  0  0  0  0  0  0  0
  -24.5740  -15.9730   20.3800 H   0  0  0  0  0  0  0  0  0  0  0  0
  -26.1760  -15.7700   19.8900 H   0  0  0  0  0  0  0  0  0  0  0  0
  -28.2220  -24.7240   20.6380 C   0  0  0  0  0  2  0  0  0  0  0  0
  -28.3700  -26.2370   20.2300 O   0  0  0  0  0  0  0  0  0  0  0  0
  -24.6500  -31.9080   23.2550 C   0  0  0  0  0  0  0  0  0  0  0  0
  -27.2880  -27.1970   20.2500 C   0  0  0  0  0  0  0  0  0  0  0  0
  -23.4740  -30.4950   21.6140 C   0  0  0  0  0  3  0  0  0  0  0  0
  -24.9420  -28.9230   20.2080 C   0  0  0  0  0  0  0  0  0  0  0  0
  -26.0280  -30.7810   21.4630 C   0  0  0  0  0  2  0  0  0  0  0  0
  -26.1170  -29.3850   20.8150 C   0  0  0  0  0  0  0  0  0  0  0  0
  -27.2940  -28.5420   20.8090 C   0  0  0  0  0  3  0  0  0  0  0  0
  -26.0810  -26.8320   19.6200 C   0  0  0  0  0  3  0  0  0  0  0  0
  -24.9370  -27.6590   19.5960 C   0  0  0  0  0  3  0  0  0  0  0  0
  -23.7100  -29.8140   20.2410 C   0  0  0  0  0  2  0  0  0  0  0  0
  -24.7370  -31.0840   22.1650 N   0  0  0  0  0  0  0  0  0  0  0  0
  -23.5580  -32.1830   23.7750 O   0  0  0  0  0  0  0  0  0  0  0  0
  -22.7990  -29.4850   22.5760 C   0  0  0  0  0  0  0  0  0  0  0  0
  -21.4730  -29.2980   22.4390 N   0  0  0  0  0  0  0  0  0  0  0  0
  -23.4710  -28.8690   23.4080 O   0  0  0  0  0  0  0  0  0  0  0  0
  -20.9880  -29.8490   21.7450 H   0  0  0  0  0  0  0  0  0  0  0  0
  -18.1030  -28.0560   22.9190 C   0  0  0  0  0  0  0  0  0  0  0  0
  -20.6550  -28.3550   23.2070 C   0  0  0  0  0  3  0  0  0  0  0  0
  -20.7820  -26.9210   22.6400 C   0  0  0  0  0  2  0  0  0  0  0  0
  -19.6930  -26.5780   21.6190 C   0  0  0  0  0  2  0  0  0  0  0  0
  -18.3030  -26.7070   22.2500 C   0  0  0  0  0  2  0  0  0  0  0  0
  -19.2070  -28.8370   23.3540 C   0  0  0  0  0  0  0  0  0  0  0  0
  -18.9650  -30.0980   23.9400 C   0  0  0  0  0  3  0  0  0  0  0  0
  -17.6520  -30.5810   24.0960 C   0  0  0  0  0  3  0  0  0  0  0  0
  -16.5620  -29.7970   23.6770 C   0  0  0  0  0  3  0  0  0  0  0  0
  -16.7880  -28.5370   23.0950 C   0  0  0  0  0  3  0  0  0  0  0  0
  -25.9180  -32.5590   23.8880 C   0  0  0  0  0  3  0  0  0  0  0  0
  -25.5930  -33.9600   24.2040 N   0  0  0  0  0  0  0  0  0  0  0  0
  -25.9200  -35.0120   23.4430 C   0  0  0  0  0  0  0  0  0  0  0  0
  -26.5930  -34.9080   22.4140 O   0  0  0  0  0  0  0  0  0  0  0  0
  -25.0000  -34.1140   25.0050 H   0  0  0  0  0  0  0  0  0  0  0  0
  -24.1790  -36.7930   23.0800 C   0  0  0  0  0  1  0  0  0  0  0  0
  -25.4240  -36.4010   23.8920 C   0  0  0  0  0  3  0  0  0  0  0  0
  -27.5510  -37.3080   24.7210 C   0  0  0  0  0  1  0  0  0  0  0  0
  -26.4490  -37.4610   23.7740 N   0  0  0  0  0  0  0  0  0  0  0  0
  -26.0360  -38.3790   23.9170 H   0  0  0  0  0  0  0  0  0  0  0  0
  -26.4180  -31.8100   25.1850 C   0  0  1  0  0  0  0  0  0  0  0  0
  -25.3090  -31.5870   26.2400 C   0  0  0  0  0  1  0  0  0  0  0  0
  -27.0130  -30.4280   24.8280 C   0  0  0  0  0  1  0  0  0  0  0  0
  -27.5550  -32.6210   25.8530 C   0  0  0  0  0  1  0  0  0  0  0  0
  1  5  1  0
  2  1  2  0
  3  6  2  0
  3  4  1  0
  4  7  1  0
  4  5  2  0
  5  8  1  0
  6 23  1  0
  6  2  1  0
  7 12  2  0
  9  8  1  0
 10  7  1  0
 10 53  1  0
 11 10  1  0
 11  9  1  0
 13 11  1  0
 14 11  1  0
 15 23  1  0
 16 21  1  0
 17 18  1  0
 17 16  1  0
 19 18  1  0
 19 28  1  0
 19 20  1  0
 21 15  1  0
 21 20  1  0
 22 15  2  0
 23 24  1  0
 25 26  2  0
 26 45  1  0
 27 26  1  0
 27 30  1  0
 28 25  1  0
 28 29  1  0
 29 27  2  0
 30 31  1  0
 31 32  2  0
 33 36  1  0
 33 32  1  0
 34 33  2  0
 35 34  1  0
 35 30  2  0
 36 37  1  0
 37 38  1  0
 38 39  2  0
 40 39  1  0
 40 44  1  0
 41 40  2  0
 42 37  2  0
 42 41  1  0
 43 42  1  0
 45 46  1  0
 46 49  1  0
 46 48  1  0
 47 45  2  0
 50 51  1  0
 50 25  1  0
 52 50  1  0
 54 56  1  0
 54 53  1  0
 55 66  2  0
 56 61  1  0
 57 65  1  0
 57 67  1  0
 58 64  1  0
 58 60  1  0
 59 65  1  0
 60 59  1  0
 61 60  2  0
 62 56  2  0
 63 62  1  0
 63 58  2  0
 64 57  1  0
 65 55  1  0
 67 69  2  0
 68 67  1  0
 70 68  1  0
 71 80  2  0
 71 76  1  0
 72 68  1  0
 72 76  1  0
 73 72  1  0
 74 75  1  0
 74 73  1  0
 75 71  1  0
 76 77  2  0
 77 78  1  0
 79 78  2  0
 80 79  1  0
 81 55  1  0
 81 82  1  0
 81 91  1  0
 82 85  1  0
 83 87  1  0
 83 82  1  0
 84 83  2  0
 87 86  1  0
 89 87  1  0
 89 90  1  0
 89 88  1  0
 91 94  1  1
 91 92  1  0
 93 91  1  0
M  ISO  4  15 100  23 100  53 101  54 101
M  END
>  <TORSDO>  (13) 
F 17

>  <SCORE>  (13) 
-15.832

>  <name>  (13) 
12

>  <ligand_id>  (13) 
12

>  <original_smiles>  (13) 
[H]c1c([H])c([H])c2c(c1[H])C([H])([H])C([H])([H])C([H])([H])C2([H])N([H])C(=O)C1([H])N(C(=O)C([H])(N([H])C(=O)C([H])(N([H])C([H])([H])[H])C([H])([H])[H])C(C([H])([H])[H])(C([H])([H])[H])C([H])([H])[H])C([H])([H])c2c([H])c(OC([H])([H])C3([H])C(=O)c4c([H])c(N([H])C(=O)N5C([H])([H])C([H])([H])C([H])([H])C([H])(n6nc(-c7c([H])c([H])c(Oc8c([H])c([H])c(F)c([H])c8F)c([H])c7[H])c(C(=O)N([H])[H])c6N([H])[H])C5([H])[H])c([H])c([H])c4C([H])([H])C([H])([H])[N+]3([H])[H])c([H])c([H])c2C1([H])[H]

>  <smiles>  (13) 
[H]c1c([H])c([H])c2c(c1[H])C([H])([H])C([H])([H])C([H])([H])C2([H])N([H])C(=O)C1([H])N(C(=O)C([H])(N([H])C(=O)C([H])(N([H])C([H])([H])[H])C([H])([H])[H])C(C([H])([H])[H])(C([H])([H])[H])C([H])([H])[H])C([H])([H])c2c([H])c(OC([H])([H])C3([H])C(=O)c4c([H])c(N([H])C(=O)N5C([H])([H])C([H])([H])C([H])([H])C([H])(n6nc(-c7c([H])c([H])c(Oc8c([H])c([H])c(F)c([H])c8F)c([H])c7[H])c(C(=O)N([H])[H])c6N([H])[H])C5([H])[H])c([H])c([H])c4C([H])([H])C([H])([H])[N+]3([H])[H])c([H])c([H])c2C1([H])[H]

$$$$
13:0:0
     RDKit          3D

 86 94  0  0  1  0  0  0  0  0999 V2000
  -27.7340  -21.8990   20.9340 C   0  0  0  0  0  2  0  0  0  0  0  0
  -28.5600  -22.7360   20.2520 C   0  0  0  0  0  0  0  0  0  0  0  0
  -28.0160  -20.3370   20.9670 C   0  0  0  0  0  2  0  0  0  0  0  0
  -29.5770  -21.5500   19.6790 C   0  0  0  0  0  3  0  0  0  0  0  0
  -29.4360  -19.9790   20.3890 C   0  0  0  0  0  3  0  0  0  0  0  0
  -28.1130  -24.3570   19.7100 C   0  0  0  0  0  2  0  0  0  0  0  0
  -28.2110  -25.9100   20.2800 O   0  0  0  0  0  0  0  0  0  0  0  0
  -24.6580  -31.9070   23.2160 C   0  0  0  0  0  0  0  0  0  0  0  0
  -27.2160  -27.0290   20.1670 C   0  0  0  0  0  0  0  0  0  0  0  0
  -23.4590  -30.5050   21.5860 C   0  0  0  0  0  3  0  0  0  0  0  0
  -24.9070  -28.9130   20.1430 C   0  0  0  0  0  0  0  0  0  0  0  0
  -26.0240  -30.7240   21.4230 C   0  0  0  0  0  2  0  0  0  0  0  0
  -26.0960  -29.3150   20.7630 C   0  0  0  0  0  0  0  0  0  0  0  0
  -27.2390  -28.3910   20.7590 C   0  0  0  0  0  3  0  0  0  0  0  0
  -26.0010  -26.7990   19.4780 C   0  0  0  0  0  3  0  0  0  0  0  0
  -24.8860  -27.6770   19.4800 C   0  0  0  0  0  3  0  0  0  0  0  0
  -23.6810  -29.8260   20.2070 C   0  0  0  0  0  2  0  0  0  0  0  0
  -24.7360  -31.0730   22.1280 N   0  0  0  0  0  0  0  0  0  0  0  0
  -23.5720  -32.1910   23.7460 O   0  0  0  0  0  0  0  0  0  0  0  0
  -22.7800  -29.5040   22.5590 C   0  0  0  0  0  0  0  0  0  0  0  0
  -21.4510  -29.3240   22.4390 N   0  0  0  0  0  0  0  0  0  0  0  0
  -23.4560  -28.8900   23.3890 O   0  0  0  0  0  0  0  0  0  0  0  0
  -20.9580  -29.8700   21.7470 H   0  0  0  0  0  0  0  0  0  0  0  0
  -18.0880  -28.0570   22.9500 C   0  0  0  0  0  0  0  0  0  0  0  0
  -20.6420  -28.3780   23.2180 C   0  0  0  0  0  3  0  0  0  0  0  0
  -20.7740  -26.9420   22.6590 C   0  0  0  0  0  2  0  0  0  0  0  0
  -19.6810  -26.5870   21.6440 C   0  0  0  0  0  2  0  0  0  0  0  0
  -18.2960  -26.7070   22.2840 C   0  0  0  0  0  2  0  0  0  0  0  0
  -19.1900  -28.8480   23.3750 C   0  0  0  0  0  0  0  0  0  0  0  0
  -18.9410  -30.1070   23.9610 C   0  0  0  0  0  3  0  0  0  0  0  0
  -17.6240  -30.5780   24.1260 C   0  0  0  0  0  3  0  0  0  0  0  0
  -16.5380  -29.7850   23.7160 C   0  0  0  0  0  3  0  0  0  0  0  0
  -16.7710  -28.5270   23.1350 C   0  0  0  0  0  3  0  0  0  0  0  0
  -25.9310  -32.5600   23.8370 C   0  0  0  0  0  3  0  0  0  0  0  0
  -25.6100  -33.9600   24.1620 N   0  0  0  0  0  0  0  0  0  0  0  0
  -25.9380  -35.0190   23.4100 C   0  0  0  0  0  0  0  0  0  0  0  0
  -26.6060  -34.9200   22.3780 O   0  0  0  0  0  0  0  0  0  0  0  0
  -25.0150  -34.1110   24.9650 H   0  0  0  0  0  0  0  0  0  0  0  0
  -24.2110  -36.8210   23.0700 C   0  0  0  0  0  1  0  0  0  0  0  0
  -25.4540  -36.4090   23.8760 C   0  0  0  0  0  3  0  0  0  0  0  0
  -27.5870  -37.2960   24.7100 C   0  0  0  0  0  1  0  0  0  0  0  0
  -26.4870  -37.4630   23.7640 N   0  0  0  0  0  0  0  0  0  0  0  0
  -26.0810  -38.3830   23.9080 H   0  0  0  0  0  0  0  0  0  0  0  0
  -26.4430  -31.8070   25.1270 C   0  0  1  0  0  0  0  0  0  0  0  0
  -25.3470  -31.5830   26.1960 C   0  0  0  0  0  1  0  0  0  0  0  0
  -27.0320  -30.4240   24.7670 C   0  0  0  0  0  1  0  0  0  0  0  0
  -27.5910  -32.6130   25.7820 C   0  0  0  0  0  1  0  0  0  0  0  0
  -29.9410  -18.3370   19.7690 C   0  0  0  0  0  2  0  0  0  0  0  0
  -30.5420  -15.4420   20.0180 C   0  0  0  0  0  0  0  0  0  0  0  0
  -30.4720  -13.0000   19.1220 C   0  0  0  0  0  2  0  0  0  0  0  0
  -29.5110  -12.8200   17.9190 C   0  0  0  0  0  2  0  0  0  0  0  0
  -28.0780  -12.5450   18.4060 C   0  0  0  0  0  2  0  0  0  0  0  0
  -27.6730  -13.4880   19.5670 C   0  0  0  0  0  3  0  0  0  0  0  0
  -28.7620  -13.6180   20.6570 C   0  0  0  0  0  2  0  0  0  0  0  0
  -29.9720  -14.1320   19.9940 N   0  0  0  0  0  0  0  0  0  0  0  0
  -31.7330  -15.4400   19.6730 O   0  0  0  0  0  0  0  0  0  0  0  0
  -29.8060  -16.7230   20.2240 N   0  0  0  0  0  0  0  0  0  0  0  0
  -28.8800  -16.5260   20.5760 H   0  0  0  0  0  0  0  0  0  0  0  0
  -25.3320  -14.0350   20.4100 C   0  0  0  0  0  0  0  0  0  0  0  0
  -24.2840  -13.2540   20.8090 C   0  0  0  0  0  0  0  0  0  0  0  0
  -24.7490  -11.9040   20.7450 C   0  0  0  0  0  0  0  0  0  0  0  0
  -26.3650  -13.1630   20.1190 N   0  0  0  0  0  0  0  0  0  0  0  0
  -26.0290  -11.8740   20.3870 N   0  0  0  0  0  0  0  0  0  0  0  0
  -24.0270  -10.6390   20.9450 C   0  0  0  0  0  0  0  0  0  0  0  0
  -24.4690   -9.6750   21.8760 C   0  0  0  0  0  3  0  0  0  0  0  0
  -23.7440   -8.4790   22.0660 C   0  0  0  0  0  3  0  0  0  0  0  0
  -22.5630   -8.2380   21.3260 C   0  0  0  0  0  0  0  0  0  0  0  0
  -22.1400   -9.1920   20.3830 C   0  0  0  0  0  3  0  0  0  0  0  0
  -22.8660  -10.3790   20.1900 C   0  0  0  0  0  3  0  0  0  0  0  0
  -21.8090   -7.0930   21.4240 O   0  0  0  0  0  0  0  0  0  0  0  0
  -21.7480   -6.3710   22.5890 C   0  0  0  0  0  0  0  0  0  0  0  0
  -21.2920   -6.9410   23.7970 C   0  0  0  0  0  3  0  0  0  0  0  0
  -21.1790   -6.1440   24.9540 C   0  0  0  0  0  3  0  0  0  0  0  0
  -21.5110   -4.7780   24.9040 C   0  0  0  0  0  0  0  0  0  0  0  0
  -21.9600   -4.2060   23.7000 C   0  0  0  0  0  3  0  0  0  0  0  0
  -22.0750   -5.0010   22.5450 C   0  0  0  0  0  0  0  0  0  0  0  0
  -22.4870   -4.4400   21.3830 F   0  0  0  0  0  0  0  0  0  0  0  0
  -21.3960   -4.0100   26.0120 F   0  0  0  0  0  0  0  0  0  0  0  0
  -22.8980  -13.7290   21.1290 C   0  0  0  0  0  0  0  0  0  0  0  0
  -22.2000  -13.0280   22.0160 N   0  0  0  0  0  0  0  0  0  0  0  0
  -22.4440  -14.7580   20.6300 O   0  0  0  0  0  0  0  0  0  0  0  0
  -22.5810  -12.1960   22.4410 H   0  0  0  0  0  0  0  0  0  0  0  0
  -21.2710  -13.3280   22.2730 H   0  0  0  0  0  0  0  0  0  0  0  0
  -25.4870  -15.4080   20.2410 N   0  0  0  0  0  0  0  0  0  0  0  0
  -24.7200  -16.0570   20.3840 H   0  0  0  0  0  0  0  0  0  0  0  0
  -26.3100  -15.8490   19.8520 H   0  0  0  0  0  0  0  0  0  0  0  0
  1  3  1  0
  2  1  1  0
  4  2  2  0
  4  5  1  0
  5 48  1  0
  5  3  1  0
  6  2  1  0
  6  7  1  0
  8 19  2  0
  9  7  1  0
  9 14  1  0
 10 18  1  0
 10 20  1  0
 11 17  1  0
 11 13  1  0
 12 18  1  0
 13 12  1  0
 14 13  2  0
 15 16  1  0
 15  9  2  0
 16 11  2  0
 17 10  1  0
 18  8  1  0
 20 22  2  0
 21 20  1  0
 23 21  1  0
 24 33  2  0
 24 29  1  0
 25 21  1  0
 25 29  1  0
 26 25  1  0
 27 28  1  0
 27 26  1  0
 28 24  1  0
 29 30  2  0
 30 31  1  0
 32 31  2  0
 33 32  1  0
 34  8  1  0
 34 35  1  0
 34 44  1  0
 35 38  1  0
 36 40  1  0
 36 35  1  0
 37 36  2  0
 40 39  1  0
 42 40  1  0
 42 43  1  0
 42 41  1  0
 44 47  1  1
 44 45  1  0
 46 44  1  0
 48 57  1  0
 49 57  1  0
 50 55  1  0
 51 52  1  0
 51 50  1  0
 53 52  1  0
 53 62  1  0
 53 54  1  0
 55 49  1  0
 55 54  1  0
 56 49  2  0
 57 58  1  0
 59 60  2  0
 60 79  1  0
 61 60  1  0
 61 64  1  0
 62 63  1  0
 62 59  1  0
 63 61  2  0
 64 65  1  0
 65 66  2  0
 67 70  1  0
 67 66  1  0
 68 67  2  0
 69 68  1  0
 69 64  2  0
 70 71  1  0
 71 72  1  0
 72 73  2  0
 74 73  1  0
 74 78  1  0
 75 74  2  0
 76 71  2  0
 76 75  1  0
 77 76  1  0
 79 80  1  0
 80 83  1  0
 80 82  1  0
 81 79  2  0
 84 85  1  0
 84 59  1  0
 86 84  1  0
M  ISO  4   6 101   7 101  49 100  57 100
M  END
>  <TORSDO>  (14) 
F 18

>  <SCORE>  (14) 
-16.000

>  <name>  (14) 
13

>  <ligand_id>  (14) 
13

>  <original_smiles>  (14) 
[H]C1=C(C([H])([H])Oc2c([H])c([H])c3c(c2[H])C([H])([H])N(C(=O)C([H])(N([H])C(=O)C([H])(N([H])C([H])([H])[H])C([H])([H])[H])C(C([H])([H])[H])(C([H])([H])[H])C([H])([H])[H])C([H])(C(=O)N([H])C2([H])c4c([H])c([H])c([H])c([H])c4C([H])([H])C([H])([H])C2([H])[H])C3([H])[H])C([H])([H])C([H])(C([H])([H])N([H])C(=O)N2C([H])([H])C([H])([H])C([H])([H])C([H])(n3nc(-c4c([H])c([H])c(Oc5c([H])c([H])c(F)c([H])c5F)c([H])c4[H])c(C(=O)N([H])[H])c3N([H])[H])C2([H])[H])C1([H])[H]

>  <smiles>  (14) 
[H]C1=C(C([H])([H])Oc2c([H])c([H])c3c(c2[H])C([H])([H])N(C(=O)C([H])(N([H])C(=O)C([H])(N([H])C([H])([H])[H])C([H])([H])[H])C(C([H])([H])[H])(C([H])([H])[H])C([H])([H])[H])C([H])(C(=O)N([H])C2([H])c4c([H])c([H])c([H])c([H])c4C([H])([H])C([H])([H])C2([H])[H])C3([H])[H])C([H])([H])C([H])(C([H])([H])N([H])C(=O)N2C([H])([H])C([H])([H])C([H])([H])C([H])(n3nc(-c4c([H])c([H])c(Oc5c([H])c([H])c(F)c([H])c5F)c([H])c4[H])c(C(=O)N([H])[H])c3N([H])[H])C2([H])[H])C1([H])[H]

$$$$
14:0:0
     RDKit          3D

 87 95  0  0  1  0  0  0  0  0999 V2000
  -28.6410  -22.5720   20.4730 C   0  0  0  0  0  0  0  0  0  0  0  0
  -28.9260  -21.2290   19.8520 N   0  0  0  0  0  0  0  0  0  0  0  0
  -28.7170  -22.5860   21.7030 O   0  0  0  0  0  0  0  0  0  0  0  0
  -28.9270  -21.3700   18.8490 H   0  0  0  0  0  0  0  0  0  0  0  0
  -30.4240  -15.3820   19.8470 C   0  0  0  0  0  0  0  0  0  0  0  0
  -30.3300  -12.9290   18.9340 C   0  0  0  0  0  2  0  0  0  0  0  0
  -29.3310  -12.7070   17.7700 C   0  0  0  0  0  2  0  0  0  0  0  0
  -27.9190  -12.4260   18.3090 C   0  0  0  0  0  2  0  0  0  0  0  0
  -27.5520  -13.3650   19.4850 C   0  0  0  0  0  3  0  0  0  0  0  0
  -28.6790  -13.5210   20.5290 C   0  0  0  0  0  2  0  0  0  0  0  0
  -29.8420  -14.0690   19.8120 N   0  0  0  0  0  0  0  0  0  0  0  0
  -31.5940  -15.3480   19.4330 O   0  0  0  0  0  0  0  0  0  0  0  0
  -29.2300  -18.8560   21.5150 C   0  0  0  0  0  2  0  0  0  0  0  0
  -29.2000  -17.2380   21.3550 C   0  0  0  0  0  2  0  0  0  0  0  0
  -29.7920  -18.2000   19.3730 C   0  0  0  0  0  2  0  0  0  0  0  0
  -28.9900  -19.5390   20.1400 C   0  0  0  0  0  3  0  0  0  0  0  0
  -29.7260  -16.7140   20.0460 N   0  0  0  0  0  0  0  0  0  0  0  0
  -25.2650  -13.9000   20.4650 C   0  0  0  0  0  0  0  0  0  0  0  0
  -24.2290  -13.1140   20.8860 C   0  0  0  0  0  0  0  0  0  0  0  0
  -24.6760  -11.7630   20.7550 C   0  0  0  0  0  0  0  0  0  0  0  0
  -26.2720  -13.0280   20.0920 N   0  0  0  0  0  0  0  0  0  0  0  0
  -25.9370  -11.7340   20.3340 N   0  0  0  0  0  0  0  0  0  0  0  0
  -23.9520  -10.4990   20.9520 C   0  0  0  0  0  0  0  0  0  0  0  0
  -24.4220   -9.5070   21.8380 C   0  0  0  0  0  3  0  0  0  0  0  0
  -23.6940   -8.3120   22.0260 C   0  0  0  0  0  3  0  0  0  0  0  0
  -22.4800   -8.1020   21.3290 C   0  0  0  0  0  0  0  0  0  0  0  0
  -22.0280   -9.0840   20.4300 C   0  0  0  0  0  3  0  0  0  0  0  0
  -22.7570  -10.2700   20.2410 C   0  0  0  0  0  3  0  0  0  0  0  0
  -21.7200   -6.9610   21.4290 O   0  0  0  0  0  0  0  0  0  0  0  0
  -21.6880   -6.2150   22.5810 C   0  0  0  0  0  0  0  0  0  0  0  0
  -21.3030   -6.7740   23.8190 C   0  0  0  0  0  3  0  0  0  0  0  0
  -21.2150   -5.9550   24.9630 C   0  0  0  0  0  3  0  0  0  0  0  0
  -21.5050   -4.5810   24.8700 C   0  0  0  0  0  0  0  0  0  0  0  0
  -21.8850   -4.0230   23.6360 C   0  0  0  0  0  3  0  0  0  0  0  0
  -21.9730   -4.8380   22.4950 C   0  0  0  0  0  0  0  0  0  0  0  0
  -22.3180   -4.2910   21.3040 F   0  0  0  0  0  0  0  0  0  0  0  0
  -21.4160   -3.7930   25.9670 F   0  0  0  0  0  0  0  0  0  0  0  0
  -22.8660  -13.5920   21.2900 C   0  0  0  0  0  0  0  0  0  0  0  0
  -22.2110  -12.8790   22.1990 N   0  0  0  0  0  0  0  0  0  0  0  0
  -22.3950  -14.6350   20.8380 O   0  0  0  0  0  0  0  0  0  0  0  0
  -22.6120  -12.0370   22.5890 H   0  0  0  0  0  0  0  0  0  0  0  0
  -21.3000  -13.1800   22.5140 H   0  0  0  0  0  0  0  0  0  0  0  0
  -25.4300  -15.2750   20.3370 N   0  0  0  0  0  0  0  0  0  0  0  0
  -24.6890  -15.9340   20.5480 H   0  0  0  0  0  0  0  0  0  0  0  0
  -26.2620  -15.7200   19.9680 H   0  0  0  0  0  0  0  0  0  0  0  0
  -28.1130  -24.1380   19.7760 C   0  0  0  0  0  2  0  0  0  0  0  0
  -28.1830  -25.7270   20.3320 O   0  0  0  0  0  0  0  0  0  0  0  0
  -24.6470  -31.8200   23.1940 C   0  0  0  0  0  0  0  0  0  0  0  0
  -27.2030  -26.8710   20.2070 C   0  0  0  0  0  0  0  0  0  0  0  0
  -23.4600  -30.4140   21.5630 C   0  0  0  0  0  3  0  0  0  0  0  0
  -24.9130  -28.7960   20.1430 C   0  0  0  0  0  0  0  0  0  0  0  0
  -26.0300  -30.6050   21.4300 C   0  0  0  0  0  2  0  0  0  0  0  0
  -26.0980  -29.1870   20.7750 C   0  0  0  0  0  0  0  0  0  0  0  0
  -27.2320  -28.2460   20.7850 C   0  0  0  0  0  3  0  0  0  0  0  0
  -25.9920  -26.6560   19.5080 C   0  0  0  0  0  3  0  0  0  0  0  0
  -24.8900  -27.5530   19.4880 C   0  0  0  0  0  3  0  0  0  0  0  0
  -23.6940  -29.7220   20.1890 C   0  0  0  0  0  2  0  0  0  0  0  0
  -24.7340  -30.9760   22.1140 N   0  0  0  0  0  0  0  0  0  0  0  0
  -23.5560  -32.1130   23.7100 O   0  0  0  0  0  0  0  0  0  0  0  0
  -22.7620  -29.4260   22.5340 C   0  0  0  0  0  0  0  0  0  0  0  0
  -21.4300  -29.2580   22.4090 N   0  0  0  0  0  0  0  0  0  0  0  0
  -23.4250  -28.8090   23.3720 O   0  0  0  0  0  0  0  0  0  0  0  0
  -20.9470  -29.8050   21.7100 H   0  0  0  0  0  0  0  0  0  0  0  0
  -18.0530  -28.0330   22.9170 C   0  0  0  0  0  0  0  0  0  0  0  0
  -20.6090  -28.3220   23.1860 C   0  0  0  0  0  3  0  0  0  0  0  0
  -20.7230  -26.8850   22.6270 C   0  0  0  0  0  2  0  0  0  0  0  0
  -19.6280  -26.5440   21.6110 C   0  0  0  0  0  2  0  0  0  0  0  0
  -18.2430  -26.6820   22.2480 C   0  0  0  0  0  2  0  0  0  0  0  0
  -19.1630  -28.8100   23.3420 C   0  0  0  0  0  0  0  0  0  0  0  0
  -18.9270  -30.0710   23.9310 C   0  0  0  0  0  3  0  0  0  0  0  0
  -17.6160  -30.5560   24.0980 C   0  0  0  0  0  3  0  0  0  0  0  0
  -16.5210  -29.7770   23.6850 C   0  0  0  0  0  3  0  0  0  0  0  0
  -16.7400  -28.5180   23.1010 C   0  0  0  0  0  3  0  0  0  0  0  0
  -25.9140  -32.4720   23.8260 C   0  0  0  0  0  3  0  0  0  0  0  0
  -25.5940  -33.8760   24.1410 N   0  0  0  0  0  0  0  0  0  0  0  0
  -25.9180  -34.9300   23.3790 C   0  0  0  0  0  0  0  0  0  0  0  0
  -26.5780  -34.8210   22.3420 O   0  0  0  0  0  0  0  0  0  0  0  0
  -25.0000  -34.0310   24.9430 H   0  0  0  0  0  0  0  0  0  0  0  0
  -24.1770  -36.7220   23.0560 C   0  0  0  0  0  1  0  0  0  0  0  0
  -25.4400  -36.3230   23.8370 C   0  0  0  0  0  3  0  0  0  0  0  0
  -27.5910  -37.2300   24.6060 C   0  0  0  0  0  1  0  0  0  0  0  0
  -26.4650  -37.3800   23.6860 N   0  0  0  0  0  0  0  0  0  0  0  0
  -26.0590  -38.3010   23.8270 H   0  0  0  0  0  0  0  0  0  0  0  0
  -26.4080  -31.7270   25.1280 C   0  0  1  0  0  0  0  0  0  0  0  0
  -25.3000  -31.5220   26.1890 C   0  0  0  0  0  1  0  0  0  0  0  0
  -26.9870  -30.3350   24.7900 C   0  0  0  0  0  1  0  0  0  0  0  0
  -27.5540  -32.5310   25.7860 C   0  0  0  0  0  1  0  0  0  0  0  0
  1  3  2  0
  2  1  1  0
  4  2  1  0
  5 17  1  0
  6 11  1  0
  7  8  1  0
  7  6  1  0
  9  8  1  0
  9 21  1  0
  9 10  1  0
 11  5  1  0
 11 10  1  0
 12  5  2  0
 14 13  1  0
 15 17  1  0
 15 16  1  0
 16  2  1  0
 16 13  1  0
 17 14  1  0
 18 19  2  0
 19 38  1  0
 20 19  1  0
 20 23  1  0
 21 22  1  0
 21 18  1  0
 22 20  2  0
 23 24  1  0
 24 25  2  0
 26 29  1  0
 26 25  1  0
 27 26  2  0
 28 27  1  0
 28 23  2  0
 29 30  1  0
 30 31  1  0
 31 32  2  0
 33 32  1  0
 33 37  1  0
 34 33  2  0
 35 30  2  0
 35 34  1  0
 36 35  1  0
 38 39  1  0
 39 42  1  0
 39 41  1  0
 40 38  2  0
 43 18  1  0
 43 44  1  0
 45 43  1  0
 46 47  1  0
 46  1  1  0
 48 59  2  0
 49 47  1  0
 49 54  1  0
 50 58  1  0
 50 60  1  0
 51 57  1  0
 51 53  1  0
 52 58  1  0
 53 54  2  0
 53 52  1  0
 55 49  2  0
 56 55  1  0
 56 51  2  0
 57 50  1  0
 58 48  1  0
 60 62  2  0
 61 60  1  0
 63 61  1  0
 64 73  2  0
 64 69  1  0
 65 61  1  0
 65 69  1  0
 66 65  1  0
 67 68  1  0
 67 66  1  0
 68 64  1  0
 69 70  2  0
 70 71  1  0
 72 71  2  0
 73 72  1  0
 74 48  1  0
 74 75  1  0
 74 84  1  0
 75 78  1  0
 76 80  1  0
 76 75  1  0
 77 76  2  0
 80 79  1  0
 82 83  1  0
 82 80  1  0
 82 81  1  0
 84 87  1  1
 84 85  1  0
 86 84  1  0
M  ISO  4   5 100  17 100  46 101  47 101
M  END
>  <TORSDO>  (15) 
F 17

>  <SCORE>  (15) 
-15.400

>  <name>  (15) 
14

>  <ligand_id>  (15) 
14

>  <original_smiles>  (15) 
[H]c1c([H])c([H])c2c(c1[H])C([H])([H])C([H])([H])C([H])([H])C2([H])N([H])C(=O)C1([H])N(C(=O)C([H])(N([H])C(=O)C([H])(N([H])C([H])([H])[H])C([H])([H])[H])C(C([H])([H])[H])(C([H])([H])[H])C([H])([H])[H])C([H])([H])c2c([H])c(OC([H])([H])C(=O)N([H])C3([H])C([H])([H])N(C(=O)N4C([H])([H])C([H])([H])C([H])([H])C([H])(n5nc(-c6c([H])c([H])c(Oc7c([H])c([H])c(F)c([H])c7F)c([H])c6[H])c(C(=O)N([H])[H])c5N([H])[H])C4([H])[H])C([H])([H])C3([H])[H])c([H])c([H])c2C1([H])[H]

>  <smiles>  (15) 
[H]c1c([H])c([H])c2c(c1[H])C([H])([H])C([H])([H])C([H])([H])C2([H])N([H])C(=O)C1([H])N(C(=O)C([H])(N([H])C(=O)C([H])(N([H])C([H])([H])[H])C([H])([H])[H])C(C([H])([H])[H])(C([H])([H])[H])C([H])([H])[H])C([H])([H])c2c([H])c(OC([H])([H])C(=O)N([H])C3([H])C([H])([H])N(C(=O)N4C([H])([H])C([H])([H])C([H])([H])C([H])(n5nc(-c6c([H])c([H])c(Oc7c([H])c([H])c(F)c([H])c7F)c([H])c6[H])c(C(=O)N([H])[H])c5N([H])[H])C4([H])[H])C([H])([H])C3([H])[H])c([H])c([H])c2C1([H])[H]

$$$$
15:0:0
     RDKit          3D

 93101  0  0  1  0  0  0  0  0999 V2000
  -29.4760  -23.6640   21.8600 C   0  0  0  0  0  0  0  0  0  0  0  0
  -29.2530  -22.8110   23.1010 C   0  0  0  0  0  2  0  0  0  0  0  0
  -30.3610  -20.8930   21.7990 C   0  0  0  0  0  2  0  0  0  0  0  0
  -28.5030  -23.3810   20.7170 C   0  0  0  0  0  3  0  0  0  0  0  0
  -29.0910  -20.6280   20.9220 C   0  0  0  0  0  3  0  0  0  0  0  0
  -28.7740  -21.9210   20.0910 N   0  0  0  0  0  0  0  0  0  0  0  0
  -30.1400  -21.6230   23.0800 N   0  0  0  0  0  4  0  0  0  0  0  0
  -30.4560  -24.4100   21.7750 O   0  0  0  0  0  0  0  0  0  0  0  0
  -29.4590  -21.9910   19.3420 H   0  0  0  0  0  0  0  0  0  0  0  0
  -29.7930  -20.9850   23.7750 H   0  0  0  0  0  0  0  0  0  0  0  0
  -31.0440  -21.9340   23.3960 H   0  0  0  0  0  0  0  0  0  0  0  0
  -28.3330  -24.7680   19.7810 C   0  0  0  0  0  2  0  0  0  0  0  0
  -28.2950  -26.2480   20.2640 O   0  0  0  0  0  0  0  0  0  0  0  0
  -24.6170  -31.8790   23.1870 C   0  0  0  0  0  0  0  0  0  0  0  0
  -27.2110  -27.1880   20.1570 C   0  0  0  0  0  0  0  0  0  0  0  0
  -23.4220  -30.4800   21.5450 C   0  0  0  0  0  3  0  0  0  0  0  0
  -24.8750  -28.9170   20.1190 C   0  0  0  0  0  0  0  0  0  0  0  0
  -25.9720  -30.7610   21.3800 C   0  0  0  0  0  2  0  0  0  0  0  0
  -26.0490  -29.3710   20.7300 C   0  0  0  0  0  0  0  0  0  0  0  0
  -27.2130  -28.5200   20.7370 C   0  0  0  0  0  3  0  0  0  0  0  0
  -26.0100  -26.8320   19.5040 C   0  0  0  0  0  3  0  0  0  0  0  0
  -24.8680  -27.6610   19.4940 C   0  0  0  0  0  3  0  0  0  0  0  0
  -23.6460  -29.8060   20.1660 C   0  0  0  0  0  2  0  0  0  0  0  0
  -24.6890  -31.0640   22.0910 N   0  0  0  0  0  0  0  0  0  0  0  0
  -23.5300  -32.1570   23.7160 O   0  0  0  0  0  0  0  0  0  0  0  0
  -22.7520  -29.4680   22.5070 C   0  0  0  0  0  0  0  0  0  0  0  0
  -21.4240  -29.2920   22.3860 N   0  0  0  0  0  0  0  0  0  0  0  0
  -23.4290  -28.8410   23.3260 O   0  0  0  0  0  0  0  0  0  0  0  0
  -20.9330  -29.8540   21.7030 H   0  0  0  0  0  0  0  0  0  0  0  0
  -18.0470  -28.0930   22.9060 C   0  0  0  0  0  0  0  0  0  0  0  0
  -20.6070  -28.3520   23.1590 C   0  0  0  0  0  3  0  0  0  0  0  0
  -20.7040  -26.9210   22.5810 C   0  0  0  0  0  2  0  0  0  0  0  0
  -19.5960  -26.6030   21.5730 C   0  0  0  0  0  2  0  0  0  0  0  0
  -18.2180  -26.7470   22.2240 C   0  0  0  0  0  2  0  0  0  0  0  0
  -19.1670  -28.8540   23.3320 C   0  0  0  0  0  0  0  0  0  0  0  0
  -18.9530  -30.1140   23.9300 C   0  0  0  0  0  3  0  0  0  0  0  0
  -17.6480  -30.6110   24.1110 C   0  0  0  0  0  3  0  0  0  0  0  0
  -16.5420  -29.8480   23.7020 C   0  0  0  0  0  3  0  0  0  0  0  0
  -16.7410  -28.5920   23.1030 C   0  0  0  0  0  3  0  0  0  0  0  0
  -25.8920  -32.5220   23.8140 C   0  0  0  0  0  3  0  0  0  0  0  0
  -26.4130  -31.7500   25.0900 C   0  0  1  0  0  0  0  0  0  0  0  0
  -25.3240  -31.4980   26.1590 C   0  0  0  0  0  1  0  0  0  0  0  0
  -27.0080  -30.3770   24.6980 C   0  0  0  0  0  1  0  0  0  0  0  0
  -27.5580  -32.5510   25.7530 C   0  0  0  0  0  1  0  0  0  0  0  0
  -25.5720  -33.9170   24.1560 N   0  0  0  0  0  0  0  0  0  0  0  0
  -25.8950  -34.9800   23.4070 C   0  0  0  0  0  0  0  0  0  0  0  0
  -26.5640  -34.8900   22.3740 O   0  0  0  0  0  0  0  0  0  0  0  0
  -24.9800  -34.0590   24.9620 H   0  0  0  0  0  0  0  0  0  0  0  0
  -24.1600  -36.7730   23.0720 C   0  0  0  0  0  1  0  0  0  0  0  0
  -25.4000  -36.3630   23.8800 C   0  0  0  0  0  3  0  0  0  0  0  0
  -27.5260  -37.2530   24.7260 C   0  0  0  0  0  1  0  0  0  0  0  0
  -26.4270  -37.4230   23.7800 N   0  0  0  0  0  0  0  0  0  0  0  0
  -26.0140  -38.3380   23.9360 H   0  0  0  0  0  0  0  0  0  0  0  0
  -29.1550  -19.0370   20.2910 C   0  0  0  0  0  2  0  0  0  0  0  0
  -30.1630  -17.6630   20.3810 C   0  0  0  0  0  2  0  0  0  0  0  0
  -30.5380  -14.9650   20.3180 C   0  0  0  0  0  0  0  0  0  0  0  0
  -30.4310  -12.6190   19.3750 C   0  0  0  0  0  2  0  0  0  0  0  0
  -29.4920  -12.5620   18.1480 C   0  0  0  0  0  2  0  0  0  0  0  0
  -28.0280  -12.3690   18.5860 C   0  0  0  0  0  2  0  0  0  0  0  0
  -27.6290  -13.3030   19.7570 C   0  0  0  0  0  3  0  0  0  0  0  0
  -28.6820  -13.2970   20.8820 C   0  0  0  0  0  2  0  0  0  0  0  0
  -29.9490  -13.7070   20.2700 N   0  0  0  0  0  0  0  0  0  0  0  0
  -31.7440  -15.0380   20.0550 O   0  0  0  0  0  0  0  0  0  0  0  0
  -29.7510  -16.1420   20.4450 N   0  0  0  0  0  0  0  0  0  0  0  0
  -28.7650  -15.9640   20.5690 H   0  0  0  0  0  0  0  0  0  0  0  0
  -25.2580  -13.8980   20.5140 C   0  0  0  0  0  0  0  0  0  0  0  0
  -24.1920  -13.1280   20.8860 C   0  0  0  0  0  0  0  0  0  0  0  0
  -24.6480  -11.7740   20.8460 C   0  0  0  0  0  0  0  0  0  0  0  0
  -26.2920  -13.0130   20.2610 N   0  0  0  0  0  0  0  0  0  0  0  0
  -25.9360  -11.7310   20.5280 N   0  0  0  0  0  0  0  0  0  0  0  0
  -23.9160  -10.5150   21.0310 C   0  0  0  0  0  0  0  0  0  0  0  0
  -24.3350   -9.5490   21.9720 C   0  0  0  0  0  3  0  0  0  0  0  0
  -23.6040   -8.3540   22.1450 C   0  0  0  0  0  3  0  0  0  0  0  0
  -22.4400   -8.1180   21.3760 C   0  0  0  0  0  0  0  0  0  0  0  0
  -22.0400   -9.0720   20.4240 C   0  0  0  0  0  3  0  0  0  0  0  0
  -22.7720  -10.2580   20.2490 C   0  0  0  0  0  3  0  0  0  0  0  0
  -21.6800   -6.9760   21.4580 O   0  0  0  0  0  0  0  0  0  0  0  0
  -21.6010   -6.2470   22.6170 C   0  0  0  0  0  0  0  0  0  0  0  0
  -21.1330   -6.8130   23.8230 C   0  0  0  0  0  3  0  0  0  0  0  0
  -21.0000   -6.0090   24.9720 C   0  0  0  0  0  3  0  0  0  0  0  0
  -21.3270   -4.6410   24.9180 C   0  0  0  0  0  0  0  0  0  0  0  0
  -21.7870   -4.0750   23.7160 C   0  0  0  0  0  3  0  0  0  0  0  0
  -21.9210   -4.8750   22.5680 C   0  0  0  0  0  0  0  0  0  0  0  0
  -22.3450   -4.3190   21.4080 F   0  0  0  0  0  0  0  0  0  0  0  0
  -21.1930   -3.8660   26.0200 F   0  0  0  0  0  0  0  0  0  0  0  0
  -22.7980  -13.6110   21.1640 C   0  0  0  0  0  0  0  0  0  0  0  0
  -22.0650  -12.9110   22.0200 N   0  0  0  0  0  0  0  0  0  0  0  0
  -22.3690  -14.6460   20.6530 O   0  0  0  0  0  0  0  0  0  0  0  0
  -22.4250  -12.0740   22.4520 H   0  0  0  0  0  0  0  0  0  0  0  0
  -21.1280  -13.2140   22.2440 H   0  0  0  0  0  0  0  0  0  0  0  0
  -25.4300  -15.2680   20.3410 N   0  0  0  0  0  0  0  0  0  0  0  0
  -24.6660  -15.9270   20.4620 H   0  0  0  0  0  0  0  0  0  0  0  0
  -26.2530  -15.6930   19.9360 H   0  0  0  0  0  0  0  0  0  0  0  0
  1  2  1  0
  3  7  1  0
  4 12  1  0
  4  1  1  0
  5 54  1  0
  5  3  1  0
  6  4  1  0
  6  5  1  0
  7  2  1  0
  7 11  1  0
  7 10  1  0
  8  1  2  0
  9  6  1  0
 12 13  1  0
 14 25  2  0
 15 13  1  0
 15 20  1  0
 16 24  1  0
 16 26  1  0
 17 23  1  0
 17 19  1  0
 18 24  1  0
 19 20  2  0
 19 18  1  0
 21 15  2  0
 22 21  1  0
 22 17  2  0
 23 16  1  0
 24 14  1  0
 26 28  2  0
 27 26  1  0
 29 27  1  0
 30 39  2  0
 30 35  1  0
 31 27  1  0
 31 35  1  0
 32 31  1  0
 33 34  1  0
 33 32  1  0
 34 30  1  0
 35 36  2  0
 36 37  1  0
 38 37  2  0
 39 38  1  0
 40 14  1  0
 40 45  1  0
 40 41  1  0
 41 44  1  1
 41 42  1  0
 43 41  1  0
 45 48  1  0
 46 50  1  0
 46 45  1  0
 47 46  2  0
 50 49  1  0
 52 50  1  0
 52 53  1  0
 52 51  1  0
 54 55  1  0
 55 64  1  0
 56 64  1  0
 57 62  1  0
 58 59  1  0
 58 57  1  0
 60 59  1  0
 60 69  1  0
 60 61  1  0
 62 56  1  0
 62 61  1  0
 63 56  2  0
 64 65  1  0
 66 67  2  0
 67 86  1  0
 68 67  1  0
 68 71  1  0
 69 66  1  0
 69 70  1  0
 70 68  2  0
 71 72  1  0
 72 73  2  0
 74 77  1  0
 74 73  1  0
 75 74  2  0
 76 75  1  0
 76 71  2  0
 77 78  1  0
 78 79  1  0
 79 80  2  0
 81 80  1  0
 81 85  1  0
 82 81  2  0
 83 78  2  0
 83 82  1  0
 84 83  1  0
 86 87  1  0
 87 90  1  0
 87 89  1  0
 88 86  2  0
 91 92  1  0
 91 66  1  0
 93 91  1  0
M  ISO  4  12 101  13 101  56 100  64 100
M  END
>  <TORSDO>  (16) 
F 19

>  <SCORE>  (16) 
-15.400

>  <name>  (16) 
15

>  <ligand_id>  (16) 
15

>  <original_smiles>  (16) 
[H]c1c([H])c([H])c2c(c1[H])C([H])([H])C([H])([H])C([H])([H])C2([H])N([H])C(=O)C1([H])N(C(=O)C([H])(N([H])C(=O)C([H])(N([H])C([H])([H])[H])C([H])([H])[H])C(C([H])([H])[H])(C([H])([H])[H])C([H])([H])[H])C([H])([H])c2c([H])c(OC([H])([H])C3([H])C(=O)C([H])([H])[N+]([H])([H])C([H])([H])C([H])(C([H])([H])C([H])([H])N([H])C(=O)N4C([H])([H])C([H])([H])C([H])([H])C([H])(n5nc(-c6c([H])c([H])c(Oc7c([H])c([H])c(F)c([H])c7F)c([H])c6[H])c(C(=O)N([H])[H])c5N([H])[H])C4([H])[H])N3[H])c([H])c([H])c2C1([H])[H]

>  <smiles>  (16) 
[H]c1c([H])c([H])c2c(c1[H])C([H])([H])C([H])([H])C([H])([H])C2([H])N([H])C(=O)C1([H])N(C(=O)C([H])(N([H])C(=O)C([H])(N([H])C([H])([H])[H])C([H])([H])[H])C(C([H])([H])[H])(C([H])([H])[H])C([H])([H])[H])C([H])([H])c2c([H])c(OC([H])([H])C3([H])C(=O)C([H])([H])[N+]([H])([H])C([H])([H])C([H])(C([H])([H])C([H])([H])N([H])C(=O)N4C([H])([H])C([H])([H])C([H])([H])C([H])(n5nc(-c6c([H])c([H])c(Oc7c([H])c([H])c(F)c([H])c7F)c([H])c6[H])c(C(=O)N([H])[H])c5N([H])[H])C4([H])[H])N3[H])c([H])c([H])c2C1([H])[H]

$$$$
16:0:0
     RDKit          3D

 91100  0  0  1  0  0  0  0  0999 V2000
  -29.8460  -17.7350   20.4160 C   0  0  0  0  0  3  0  0  0  0  0  0
  -29.9040  -18.8400   19.2460 C   0  0  0  0  0  0  0  0  0  0  0  0
  -29.3140  -18.7260   21.5150 C   0  0  0  0  0  2  0  0  0  0  0  0
  -28.9820  -21.7020   19.0510 C   0  0  0  0  0  2  0  0  0  0  0  0
  -28.8140  -21.4430   21.8230 C   0  0  0  0  0  2  0  0  0  0  0  0
  -29.8330  -20.4070   19.7140 C   0  0  0  0  0  3  0  0  0  0  0  0
  -29.6790  -20.2620   21.2200 C   0  0  0  0  0  3  0  0  0  0  0  0
  -28.5600  -23.0910   19.9090 C   0  0  0  0  0  3  0  0  0  0  0  0
  -30.0110  -16.3890   20.7040 N   0  0  0  0  0  2  0  0  0  0  0  0
  -29.1140  -22.8350   21.2780 N   0  0  0  0  0  4  0  0  0  0  0  0
  -30.0130  -18.5460   18.0530 O   0  0  0  0  0  0  0  0  0  0  0  0
  -30.1100  -22.9930   21.2880 H   0  0  0  0  0  0  0  0  0  0  0  0
  -28.7090  -23.5070   21.9120 H   0  0  0  0  0  0  0  0  0  0  0  0
  -30.7220  -15.2230   20.1010 C   0  0  0  0  0  0  0  0  0  0  0  0
  -30.5910  -12.8300   19.1790 C   0  0  0  0  0  2  0  0  0  0  0  0
  -29.6350  -12.7580   17.9630 C   0  0  0  0  0  2  0  0  0  0  0  0
  -28.1810  -12.5510   18.4250 C   0  0  0  0  0  2  0  0  0  0  0  0
  -27.8040  -13.4930   19.5950 C   0  0  0  0  0  3  0  0  0  0  0  0
  -28.8790  -13.5180   20.7050 C   0  0  0  0  0  2  0  0  0  0  0  0
  -30.1420  -13.9420   20.0790 N   0  0  0  0  0  0  0  0  0  0  0  0
  -31.8500  -15.2850   19.6050 O   0  0  0  0  0  0  0  0  0  0  0  0
  -25.4550  -14.1140   20.3870 C   0  0  0  0  0  0  0  0  0  0  0  0
  -24.3820  -13.3600   20.7760 C   0  0  0  0  0  0  0  0  0  0  0  0
  -24.8170  -12.0000   20.7320 C   0  0  0  0  0  0  0  0  0  0  0  0
  -26.4730  -13.2160   20.1200 N   0  0  0  0  0  0  0  0  0  0  0  0
  -26.1000  -11.9370   20.3930 N   0  0  0  0  0  0  0  0  0  0  0  0
  -24.0670  -10.7530   20.9360 C   0  0  0  0  0  0  0  0  0  0  0  0
  -24.5020   -9.7680   21.8490 C   0  0  0  0  0  3  0  0  0  0  0  0
  -23.7530   -8.5880   22.0430 C   0  0  0  0  0  3  0  0  0  0  0  0
  -22.5520   -8.3840   21.3220 C   0  0  0  0  0  0  0  0  0  0  0  0
  -22.1340   -9.3570   20.3970 C   0  0  0  0  0  3  0  0  0  0  0  0
  -22.8840  -10.5280   20.2020 C   0  0  0  0  0  3  0  0  0  0  0  0
  -21.7730   -7.2560   21.4250 O   0  0  0  0  0  0  0  0  0  0  0  0
  -21.7540   -6.4960   22.5660 C   0  0  0  0  0  0  0  0  0  0  0  0
  -21.3680   -7.0340   23.8140 C   0  0  0  0  0  3  0  0  0  0  0  0
  -21.2960   -6.2000   24.9480 C   0  0  0  0  0  3  0  0  0  0  0  0
  -21.6000   -4.8300   24.8360 C   0  0  0  0  0  0  0  0  0  0  0  0
  -21.9790   -4.2920   23.5930 C   0  0  0  0  0  3  0  0  0  0  0  0
  -22.0530   -5.1230   22.4620 C   0  0  0  0  0  0  0  0  0  0  0  0
  -22.3980   -4.5950   21.2620 F   0  0  0  0  0  0  0  0  0  0  0  0
  -21.5240   -4.0280   25.9220 F   0  0  0  0  0  0  0  0  0  0  0  0
  -23.0020  -13.8670   21.0790 C   0  0  0  0  0  0  0  0  0  0  0  0
  -22.2880  -13.1990   21.9770 N   0  0  0  0  0  0  0  0  0  0  0  0
  -22.5680  -14.8910   20.5540 O   0  0  0  0  0  0  0  0  0  0  0  0
  -22.6530  -12.3710   22.4220 H   0  0  0  0  0  0  0  0  0  0  0  0
  -21.3620  -13.5210   22.2240 H   0  0  0  0  0  0  0  0  0  0  0  0
  -25.6470  -15.4820   20.2140 N   0  0  0  0  0  0  0  0  0  0  0  0
  -24.9060  -16.1600   20.3560 H   0  0  0  0  0  0  0  0  0  0  0  0
  -26.5180  -15.8990   19.9110 H   0  0  0  0  0  0  0  0  0  0  0  0
  -28.5610  -24.7140   19.2640 C   0  0  0  0  0  2  0  0  0  0  0  0
  -28.3870  -26.2010   19.8080 O   0  0  0  0  0  0  0  0  0  0  0  0
  -24.5470  -31.6740   22.9610 C   0  0  0  0  0  0  0  0  0  0  0  0
  -27.2880  -27.1540   19.7080 C   0  0  0  0  0  0  0  0  0  0  0  0
  -23.3880  -30.2960   21.2770 C   0  0  0  0  0  3  0  0  0  0  0  0
  -24.8840  -28.8360   19.7630 C   0  0  0  0  0  0  0  0  0  0  0  0
  -25.9270  -30.6630   21.0980 C   0  0  0  0  0  2  0  0  0  0  0  0
  -26.0500  -29.2970   20.3850 C   0  0  0  0  0  0  0  0  0  0  0  0
  -27.2410  -28.4720   20.3440 C   0  0  0  0  0  3  0  0  0  0  0  0
  -26.0920  -26.8090   19.0410 C   0  0  0  0  0  3  0  0  0  0  0  0
  -24.9220  -27.6100   19.0730 C   0  0  0  0  0  3  0  0  0  0  0  0
  -23.6200  -29.6810   19.8680 C   0  0  0  0  0  2  0  0  0  0  0  0
  -24.6410  -30.9000   21.8340 N   0  0  0  0  0  0  0  0  0  0  0  0
  -23.4580  -31.8900   23.5140 O   0  0  0  0  0  0  0  0  0  0  0  0
  -22.7610  -29.2270   22.2090 C   0  0  0  0  0  0  0  0  0  0  0  0
  -21.4370  -29.0200   22.1080 N   0  0  0  0  0  0  0  0  0  0  0  0
  -23.4710  -28.5860   22.9880 O   0  0  0  0  0  0  0  0  0  0  0  0
  -20.9170  -29.5920   21.4570 H   0  0  0  0  0  0  0  0  0  0  0  0
  -18.1050  -27.6970   22.6500 C   0  0  0  0  0  0  0  0  0  0  0  0
  -20.6640  -28.0200   22.8500 C   0  0  0  0  0  3  0  0  0  0  0  0
  -20.7850  -26.6240   22.1960 C   0  0  0  0  0  2  0  0  0  0  0  0
  -19.6600  -26.3250   21.1990 C   0  0  0  0  0  2  0  0  0  0  0  0
  -18.2970  -26.3930   21.8930 C   0  0  0  0  0  2  0  0  0  0  0  0
  -19.2170  -28.4680   23.0860 C   0  0  0  0  0  0  0  0  0  0  0  0
  -18.9810  -29.6870   23.7590 C   0  0  0  0  0  3  0  0  0  0  0  0
  -17.6690  -30.1360   23.9980 C   0  0  0  0  0  3  0  0  0  0  0  0
  -16.5730  -29.3620   23.5760 C   0  0  0  0  0  3  0  0  0  0  0  0
  -16.7930  -28.1440   22.9080 C   0  0  0  0  0  3  0  0  0  0  0  0
  -25.8040  -32.3400   23.6010 C   0  0  0  0  0  3  0  0  0  0  0  0
  -25.4350  -33.7090   24.0000 N   0  0  0  0  0  0  0  0  0  0  0  0
  -25.7250  -34.8150   23.3020 C   0  0  0  0  0  0  0  0  0  0  0  0
  -26.3950  -34.7920   22.2660 O   0  0  0  0  0  0  0  0  0  0  0  0
  -24.8380  -33.7960   24.8090 H   0  0  0  0  0  0  0  0  0  0  0  0
  -23.9270  -36.5600   23.0540 C   0  0  0  0  0  1  0  0  0  0  0  0
  -25.1880  -36.1590   23.8350 C   0  0  0  0  0  3  0  0  0  0  0  0
  -27.2850  -37.0910   24.7080 C   0  0  0  0  0  1  0  0  0  0  0  0
  -26.1790  -37.2570   23.7710 N   0  0  0  0  0  0  0  0  0  0  0  0
  -25.7370  -38.1520   23.9590 H   0  0  0  0  0  0  0  0  0  0  0  0
  -26.3650  -31.5430   24.8440 C   0  0  1  0  0  0  0  0  0  0  0  0
  -25.2950  -31.2250   25.9160 C   0  0  0  0  0  1  0  0  0  0  0  0
  -26.9940  -30.2030   24.3990 C   0  0  0  0  0  1  0  0  0  0  0  0
  -27.4950  -32.3550   25.5220 C   0  0  0  0  0  1  0  0  0  0  0  0
  1  9  1  0
  1  3  1  0
  2  6  1  0
  2  1  1  0
  4  8  1  0
  6  4  1  0
  6  7  1  0
  7  3  1  0
  7  5  1  0
  8 50  1  0
  8 10  1  0
 10 12  1  0
 10  5  1  0
 10 13  1  0
 11  2  2  0
 14  9  1  0
 15 20  1  0
 16 17  1  0
 16 15  1  0
 18 17  1  0
 18 25  1  0
 18 19  1  0
 20 14  1  0
 20 19  1  0
 21 14  2  0
 22 23  2  0
 23 42  1  0
 24 23  1  0
 24 27  1  0
 25 22  1  0
 25 26  1  0
 26 24  2  0
 27 28  1  0
 28 29  2  0
 30 33  1  0
 30 29  1  0
 31 30  2  0
 32 31  1  0
 32 27  2  0
 33 34  1  0
 34 35  1  0
 35 36  2  0
 37 36  1  0
 37 41  1  0
 38 37  2  0
 39 34  2  0
 39 38  1  0
 40 39  1  0
 42 43  1  0
 43 46  1  0
 43 45  1  0
 44 42  2  0
 47 48  1  0
 47 22  1  0
 49 47  1  0
 50 51  1  0
 52 63  2  0
 53 51  1  0
 53 58  1  0
 54 62  1  0
 54 64  1  0
 55 61  1  0
 55 57  1  0
 56 62  1  0
 57 56  1  0
 58 57  2  0
 59 60  1  0
 59 53  2  0
 60 55  2  0
 61 54  1  0
 62 52  1  0
 64 66  2  0
 65 64  1  0
 67 65  1  0
 68 77  2  0
 68 73  1  0
 69 65  1  0
 69 73  1  0
 70 69  1  0
 71 72  1  0
 71 70  1  0
 72 68  1  0
 73 74  2  0
 74 75  1  0
 76 75  2  0
 77 76  1  0
 78 52  1  0
 78 79  1  0
 78 88  1  0
 79 82  1  0
 80 84  1  0
 80 79  1  0
 81 80  2  0
 84 83  1  0
 86 84  1  0
 86 87  1  0
 86 85  1  0
 88 91  1  1
 88 89  1  0
 90 88  1  0
M  ISO  4   9 100  14 100  50 101  51 101
M  END
>  <TORSDO>  (17) 
F 17

>  <SCORE>  (17) 
-14.435

>  <name>  (17) 
16

>  <ligand_id>  (17) 
16

>  <original_smiles>  (17) 
[H]c1c([H])c([H])c2c(c1[H])C([H])([H])C([H])([H])C([H])([H])C2([H])N([H])C(=O)C1([H])N(C(=O)C([H])(N([H])C(=O)C([H])(N([H])C([H])([H])[H])C([H])([H])[H])C(C([H])([H])[H])(C([H])([H])[H])C([H])([H])[H])C([H])([H])c2c([H])c(OC([H])([H])C3([H])C([H])([H])C4([H])C(=O)C(=NC(=O)N5C([H])([H])C([H])([H])C([H])([H])C([H])(n6nc(-c7c([H])c([H])c(Oc8c([H])c([H])c(F)c([H])c8F)c([H])c7[H])c(C(=O)N([H])[H])c6N([H])[H])C5([H])[H])C([H])([H])C4([H])C([H])([H])[N+]3([H])[H])c([H])c([H])c2C1([H])[H]

>  <smiles>  (17) 
[H]c1c([H])c([H])c2c(c1[H])C([H])([H])C([H])([H])C([H])([H])C2([H])N([H])C(=O)C1([H])N(C(=O)C([H])(N([H])C(=O)C([H])(N([H])C([H])([H])[H])C([H])([H])[H])C(C([H])([H])[H])(C([H])([H])[H])C([H])([H])[H])C([H])([H])c2c([H])c(OC([H])([H])C3([H])C([H])([H])C4([H])C(=O)C(=NC(=O)N5C([H])([H])C([H])([H])C([H])([H])C([H])(n6nc(-c7c([H])c([H])c(Oc8c([H])c([H])c(F)c([H])c8F)c([H])c7[H])c(C(=O)N([H])[H])c6N([H])[H])C5([H])[H])C([H])([H])C4([H])C([H])([H])[N+]3([H])[H])c([H])c([H])c2C1([H])[H]

$$$$
17:0:0
     RDKit          3D

 91100  0  0  1  0  0  0  0  0999 V2000
  -29.0300  -19.6380   19.3960 C   0  0  0  0  0  3  0  0  0  0  0  0
  -28.7650  -21.0650   19.3580 C   0  0  0  0  0  3  0  0  0  0  0  0
  -30.2580  -19.9420   21.3900 C   0  0  0  0  0  3  0  0  0  0  0  0
  -30.0060  -21.3710   21.3620 C   0  0  0  0  0  0  0  0  0  0  0  0
  -29.8280  -19.0020   20.3980 C   0  0  0  0  0  0  0  0  0  0  0  0
  -29.2660  -22.0160   20.3120 C   0  0  0  0  0  0  0  0  0  0  0  0
  -30.6370  -21.8070   23.8840 C   0  0  0  0  0  2  0  0  0  0  0  0
  -29.8060  -22.9790   23.4230 C   0  0  0  0  0  2  0  0  0  0  0  0
  -30.6470  -22.2140   22.4280 C   0  0  0  0  0  3  0  0  0  0  0  0
  -29.2810  -23.6380   20.0520 C   0  0  0  0  0  3  0  0  0  0  0  0
  -28.1800  -24.7870   20.4930 C   0  0  0  0  0  3  0  0  0  0  0  0
  -28.3910  -26.2950   20.2540 O   0  0  0  0  0  0  0  0  0  0  0  0
  -24.6750  -31.8840   23.2260 C   0  0  0  0  0  0  0  0  0  0  0  0
  -27.2980  -27.2190   20.2200 C   0  0  0  0  0  0  0  0  0  0  0  0
  -23.4860  -30.4730   21.5900 C   0  0  0  0  0  3  0  0  0  0  0  0
  -24.9470  -28.9080   20.1760 C   0  0  0  0  0  0  0  0  0  0  0  0
  -26.0340  -30.7690   21.4240 C   0  0  0  0  0  2  0  0  0  0  0  0
  -26.1190  -29.3780   20.7820 C   0  0  0  0  0  0  0  0  0  0  0  0
  -27.2970  -28.5490   20.7860 C   0  0  0  0  0  3  0  0  0  0  0  0
  -26.1010  -26.8380   19.5740 C   0  0  0  0  0  3  0  0  0  0  0  0
  -24.9480  -27.6490   19.5580 C   0  0  0  0  0  3  0  0  0  0  0  0
  -23.7120  -29.7920   20.2150 C   0  0  0  0  0  2  0  0  0  0  0  0
  -24.7510  -31.0630   22.1350 N   0  0  0  0  0  0  0  0  0  0  0  0
  -23.5870  -32.1620   23.7520 O   0  0  0  0  0  0  0  0  0  0  0  0
  -22.8160  -29.4630   22.5540 C   0  0  0  0  0  0  0  0  0  0  0  0
  -21.4900  -29.2820   22.4250 N   0  0  0  0  0  0  0  0  0  0  0  0
  -23.4910  -28.8450   23.3810 O   0  0  0  0  0  0  0  0  0  0  0  0
  -21.0020  -29.8320   21.7310 H   0  0  0  0  0  0  0  0  0  0  0  0
  -18.1140  -28.0740   22.9290 C   0  0  0  0  0  0  0  0  0  0  0  0
  -20.6720  -28.3450   23.1980 C   0  0  0  0  0  3  0  0  0  0  0  0
  -20.7800  -26.9110   22.6280 C   0  0  0  0  0  2  0  0  0  0  0  0
  -19.6800  -26.5810   21.6150 C   0  0  0  0  0  2  0  0  0  0  0  0
  -18.2960  -26.7230   22.2560 C   0  0  0  0  0  2  0  0  0  0  0  0
  -19.2290  -28.8410   23.3570 C   0  0  0  0  0  0  0  0  0  0  0  0
  -19.0040  -30.1050   23.9450 C   0  0  0  0  0  3  0  0  0  0  0  0
  -17.6960  -30.5990   24.1120 C   0  0  0  0  0  3  0  0  0  0  0  0
  -16.5960  -29.8280   23.7000 C   0  0  0  0  0  3  0  0  0  0  0  0
  -16.8050  -28.5680   23.1130 C   0  0  0  0  0  3  0  0  0  0  0  0
  -25.9490  -32.5290   23.8510 C   0  0  0  0  0  3  0  0  0  0  0  0
  -26.4750  -31.7550   25.1220 C   0  0  1  0  0  0  0  0  0  0  0  0
  -25.3860  -31.5000   26.1900 C   0  0  0  0  0  1  0  0  0  0  0  0
  -27.0730  -30.3860   24.7240 C   0  0  0  0  0  1  0  0  0  0  0  0
  -27.6180  -32.5580   25.7870 C   0  0  0  0  0  1  0  0  0  0  0  0
  -25.6220  -33.9210   24.1950 N   0  0  0  0  0  0  0  0  0  0  0  0
  -25.9170  -34.9860   23.4380 C   0  0  0  0  0  0  0  0  0  0  0  0
  -26.5610  -34.9010   22.3890 O   0  0  0  0  0  0  0  0  0  0  0  0
  -25.0470  -34.0590   25.0140 H   0  0  0  0  0  0  0  0  0  0  0  0
  -24.1430  -36.7490   23.1550 C   0  0  0  0  0  1  0  0  0  0  0  0
  -25.4210  -36.3640   23.9190 C   0  0  0  0  0  3  0  0  0  0  0  0
  -27.5640  -37.2900   24.6790 C   0  0  0  0  0  1  0  0  0  0  0  0
  -26.4270  -37.4380   23.7730 N   0  0  0  0  0  0  0  0  0  0  0  0
  -26.0080  -38.3480   23.9370 H   0  0  0  0  0  0  0  0  0  0  0  0
  -30.5050  -17.5160   20.2740 C   0  0  0  0  0  2  0  0  0  0  0  0
  -30.5960  -14.8790   20.1960 C   0  0  0  0  0  0  0  0  0  0  0  0
  -30.3490  -12.5860   19.1890 C   0  0  0  0  0  2  0  0  0  0  0  0
  -29.3880  -12.6320   17.9810 C   0  0  0  0  0  2  0  0  0  0  0  0
  -27.9310  -12.4540   18.4440 C   0  0  0  0  0  2  0  0  0  0  0  0
  -27.5810  -13.3390   19.6690 C   0  0  0  0  0  3  0  0  0  0  0  0
  -28.6680  -13.2860   20.7640 C   0  0  0  0  0  2  0  0  0  0  0  0
  -29.9370  -13.6600   20.1300 N   0  0  0  0  0  0  0  0  0  0  0  0
  -31.7850  -14.9080   19.8700 O   0  0  0  0  0  0  0  0  0  0  0  0
  -29.9070  -16.0880   20.4070 N   0  0  0  0  0  0  0  0  0  0  0  0
  -28.9240  -16.0220   20.6260 H   0  0  0  0  0  0  0  0  0  0  0  0
  -25.2190  -13.9200   20.4660 C   0  0  0  0  0  0  0  0  0  0  0  0
  -24.1610  -13.1450   20.8550 C   0  0  0  0  0  0  0  0  0  0  0  0
  -24.6200  -11.7930   20.8040 C   0  0  0  0  0  0  0  0  0  0  0  0
  -26.2530  -13.0410   20.1970 N   0  0  0  0  0  0  0  0  0  0  0  0
  -25.9050  -11.7560   20.4650 N   0  0  0  0  0  0  0  0  0  0  0  0
  -23.8950  -10.5310   21.0000 C   0  0  0  0  0  0  0  0  0  0  0  0
  -24.3350   -9.5620   21.9280 C   0  0  0  0  0  3  0  0  0  0  0  0
  -23.6070   -8.3660   22.1140 C   0  0  0  0  0  3  0  0  0  0  0  0
  -22.4240   -8.1310   21.3710 C   0  0  0  0  0  0  0  0  0  0  0  0
  -22.0050   -9.0890   20.4330 C   0  0  0  0  0  3  0  0  0  0  0  0
  -22.7320  -10.2760   20.2450 C   0  0  0  0  0  3  0  0  0  0  0  0
  -21.6680   -6.9870   21.4670 O   0  0  0  0  0  0  0  0  0  0  0  0
  -21.6180   -6.2520   22.6230 C   0  0  0  0  0  0  0  0  0  0  0  0
  -21.1790   -6.8100   23.8440 C   0  0  0  0  0  3  0  0  0  0  0  0
  -21.0780   -6.0000   24.9920 C   0  0  0  0  0  3  0  0  0  0  0  0
  -21.4050   -4.6330   24.9210 C   0  0  0  0  0  0  0  0  0  0  0  0
  -21.8370   -4.0740   23.7060 C   0  0  0  0  0  3  0  0  0  0  0  0
  -21.9410   -4.8810   22.5600 C   0  0  0  0  0  0  0  0  0  0  0  0
  -22.3370   -4.3330   21.3850 F   0  0  0  0  0  0  0  0  0  0  0  0
  -21.2990   -3.8510   26.0220 F   0  0  0  0  0  0  0  0  0  0  0  0
  -22.7710  -13.6240   21.1580 C   0  0  0  0  0  0  0  0  0  0  0  0
  -22.0620  -12.9280   22.0390 N   0  0  0  0  0  0  0  0  0  0  0  0
  -22.3250  -14.6500   20.6480 O   0  0  0  0  0  0  0  0  0  0  0  0
  -22.4370  -12.0970   22.4730 H   0  0  0  0  0  0  0  0  0  0  0  0
  -21.1300  -13.2300   22.2840 H   0  0  0  0  0  0  0  0  0  0  0  0
  -25.3800  -15.2920   20.2930 N   0  0  0  0  0  0  0  0  0  0  0  0
  -24.6130  -15.9440   20.4220 H   0  0  0  0  0  0  0  0  0  0  0  0
  -26.2130  -15.7300   19.9240 H   0  0  0  0  0  0  0  0  0  0  0  0
  1  5  1  0
  2  1  2  0
  2  6  1  0
  4  3  1  0
  4  9  1  0
  5  3  2  0
  6  4  2  0
  8  7  1  0
  9  8  1  0
  9  7  1  0
 10  6  1  0
 10 11  2  0
 12 11  1  0
 13 24  2  0
 14 12  1  0
 14 19  1  0
 15 23  1  0
 15 25  1  0
 16 22  1  0
 16 18  1  0
 17 23  1  0
 18 19  2  0
 18 17  1  0
 20 14  2  0
 21 20  1  0
 21 16  2  0
 22 15  1  0
 23 13  1  0
 25 27  2  0
 26 25  1  0
 28 26  1  0
 29 38  2  0
 29 34  1  0
 30 26  1  0
 30 34  1  0
 31 30  1  0
 32 33  1  0
 32 31  1  0
 33 29  1  0
 34 35  2  0
 35 36  1  0
 37 36  2  0
 38 37  1  0
 39 13  1  0
 39 44  1  0
 39 40  1  0
 40 43  1  1
 40 41  1  0
 42 40  1  0
 44 47  1  0
 45 49  1  0
 45 44  1  0
 46 45  2  0
 49 48  1  0
 51 49  1  0
 51 52  1  0
 51 50  1  0
 53  5  1  0
 53 62  1  0
 54 62  1  0
 55 60  1  0
 56 57  1  0
 56 55  1  0
 58 57  1  0
 58 67  1  0
 58 59  1  0
 60 54  1  0
 60 59  1  0
 61 54  2  0
 62 63  1  0
 64 65  2  0
 65 84  1  0
 66 65  1  0
 66 69  1  0
 67 68  1  0
 67 64  1  0
 68 66  2  0
 69 70  1  0
 70 71  2  0
 72 75  1  0
 72 71  1  0
 73 72  2  0
 74 73  1  0
 74 69  2  0
 75 76  1  0
 76 77  1  0
 77 78  2  0
 79 78  1  0
 79 83  1  0
 80 79  2  0
 81 76  2  0
 81 80  1  0
 82 81  1  0
 84 85  1  0
 85 88  1  0
 85 87  1  0
 86 84  2  0
 89 90  1  0
 89 64  1  0
 91 89  1  0
M  ISO  4  11 101  12 101  54 100  62 100
M  END
>  <TORSDO>  (18) 
F 20

>  <SCORE>  (18) 
-14.209

>  <name>  (18) 
17

>  <ligand_id>  (18) 
17

>  <original_smiles>  (18) 
[H]c1c([H])c([H])c2c(c1[H])C([H])([H])C([H])([H])C([H])([H])C2([H])N([H])C(=O)C1([H])N(C(=O)C([H])(N([H])C(=O)C([H])(N([H])C([H])([H])[H])C([H])([H])[H])C(C([H])([H])[H])(C([H])([H])[H])C([H])([H])[H])C([H])([H])c2c([H])c(OC([H])([H])C([H])([H])c3c([H])c([H])c(C([H])([H])N([H])C(=O)N4C([H])([H])C([H])([H])C([H])([H])C([H])(n5nc(-c6c([H])c([H])c(Oc7c([H])c([H])c(F)c([H])c7F)c([H])c6[H])c(C(=O)N([H])[H])c5N([H])[H])C4([H])[H])c([H])c3C3([H])C([H])([H])C3([H])[H])c([H])c([H])c2C1([H])[H]

>  <smiles>  (18) 
[H]c1c([H])c([H])c2c(c1[H])C([H])([H])C([H])([H])C([H])([H])C2([H])N([H])C(=O)C1([H])N(C(=O)C([H])(N([H])C(=O)C([H])(N([H])C([H])([H])[H])C([H])([H])[H])C(C([H])([H])[H])(C([H])([H])[H])C([H])([H])[H])C([H])([H])c2c([H])c(OC([H])([H])C([H])([H])c3c([H])c([H])c(C([H])([H])N([H])C(=O)N4C([H])([H])C([H])([H])C([H])([H])C([H])(n5nc(-c6c([H])c([H])c(Oc7c([H])c([H])c(F)c([H])c7F)c([H])c6[H])c(C(=O)N([H])[H])c5N([H])[H])C4([H])[H])c([H])c3C3([H])C([H])([H])C3([H])[H])c([H])c([H])c2C1([H])[H]

$$$$
18:0:0
     RDKit          3D

 95104  0  0  1  0  0  0  0  0999 V2000
  -30.2800  -16.0680   19.5300 C   0  0  0  0  0  0  0  0  0  0  0  0
  -30.6250  -13.4450   19.2160 C   0  0  0  0  0  2  0  0  0  0  0  0
  -29.7890  -12.7210   18.1180 C   0  0  0  0  0  2  0  0  0  0  0  0
  -28.4080  -12.3150   18.6490 C   0  0  0  0  0  2  0  0  0  0  0  0
  -27.7830  -13.4510   19.4880 C   0  0  0  0  0  3  0  0  0  0  0  0
  -28.7620  -14.0900   20.5110 C   0  0  0  0  0  2  0  0  0  0  0  0
  -29.8860  -14.6790   19.7450 N   0  0  0  0  0  0  0  0  0  0  0  0
  -31.4950  -16.0960   19.2320 O   0  0  0  0  0  0  0  0  0  0  0  0
  -28.6660  -19.2820   21.1980 C   0  0  0  0  0  2  0  0  0  0  0  0
  -29.3820  -17.9060   20.9080 C   0  0  0  0  0  2  0  0  0  0  0  0
  -29.2150  -18.8280   18.5780 C   0  0  0  0  0  2  0  0  0  0  0  0
  -28.9250  -20.5940   20.3570 C   0  0  0  0  0  3  0  0  0  0  0  0
  -28.3720  -20.4850   18.9130 C   0  0  0  0  0  3  0  0  0  0  0  0
  -29.4480  -17.3820   19.5200 N   0  0  0  0  0  0  0  0  0  0  0  0
  -25.4550  -13.9100   20.3980 C   0  0  0  0  0  0  0  0  0  0  0  0
  -24.4380  -13.0940   20.8050 C   0  0  0  0  0  0  0  0  0  0  0  0
  -24.9400  -11.7590   20.7220 C   0  0  0  0  0  0  0  0  0  0  0  0
  -26.5090  -13.0730   20.0810 N   0  0  0  0  0  0  0  0  0  0  0  0
  -26.2140  -11.7720   20.3420 N   0  0  0  0  0  0  0  0  0  0  0  0
  -24.2590  -10.4710   20.9240 C   0  0  0  0  0  0  0  0  0  0  0  0
  -24.6930   -9.5470   21.8990 C   0  0  0  0  0  3  0  0  0  0  0  0
  -24.0040   -8.3290   22.0880 C   0  0  0  0  0  3  0  0  0  0  0  0
  -22.8690   -8.0260   21.3010 C   0  0  0  0  0  0  0  0  0  0  0  0
  -22.4540   -8.9390   20.3150 C   0  0  0  0  0  3  0  0  0  0  0  0
  -23.1430  -10.1490   20.1250 C   0  0  0  0  0  3  0  0  0  0  0  0
  -22.1520   -6.8570   21.3970 O   0  0  0  0  0  0  0  0  0  0  0  0
  -21.9520   -6.2310   22.6020 C   0  0  0  0  0  0  0  0  0  0  0  0
  -21.2820   -6.8680   23.6690 C   0  0  0  0  0  3  0  0  0  0  0  0
  -21.0360   -6.1660   24.8640 C   0  0  0  0  0  3  0  0  0  0  0  0
  -21.4540   -4.8260   24.9930 C   0  0  0  0  0  0  0  0  0  0  0  0
  -22.1170   -4.1890   23.9300 C   0  0  0  0  0  3  0  0  0  0  0  0
  -22.3610   -4.8890   22.7360 C   0  0  0  0  0  0  0  0  0  0  0  0
  -22.9820   -4.2660   21.7060 F   0  0  0  0  0  0  0  0  0  0  0  0
  -21.2120   -4.1470   26.1390 F   0  0  0  0  0  0  0  0  0  0  0  0
  -23.0440  -13.5290   21.1560 C   0  0  0  0  0  0  0  0  0  0  0  0
  -22.3880  -12.8160   22.0640 N   0  0  0  0  0  0  0  0  0  0  0  0
  -22.5460  -14.5360   20.6570 O   0  0  0  0  0  0  0  0  0  0  0  0
  -22.8000  -11.9950   22.4820 H   0  0  0  0  0  0  0  0  0  0  0  0
  -21.4630  -13.1020   22.3510 H   0  0  0  0  0  0  0  0  0  0  0  0
  -25.5680  -15.2870   20.2400 N   0  0  0  0  0  0  0  0  0  0  0  0
  -24.7910  -15.9180   20.4080 H   0  0  0  0  0  0  0  0  0  0  0  0
  -26.3960  -15.7620   19.9030 H   0  0  0  0  0  0  0  0  0  0  0  0
  -30.3840  -21.1570   20.3280 C   0  0  0  0  0  2  0  0  0  0  0  0
  -31.5350  -20.2200   20.6370 C   0  0  0  0  0  0  0  0  0  0  0  0
  -32.5560  -19.7660   19.9160 C   0  0  0  0  0  0  0  0  0  0  0  0
  -32.1010  -19.7370   21.9680 C   0  0  0  0  0  2  0  0  0  0  0  0
  -33.3230  -19.2430   21.1220 C   0  0  0  0  0  2  0  0  0  0  0  0
  -32.9950  -19.9370   18.4660 C   0  0  0  0  0  2  0  0  0  0  0  0
  -33.0740  -18.6370   17.7770 N   0  0  0  0  0  4  0  0  0  0  0  0
  -33.5910  -17.9850   18.3350 H   0  0  0  0  0  0  0  0  0  0  0  0
  -33.5430  -18.7390   16.8900 H   0  0  0  0  0  0  0  0  0  0  0  0
  -32.1610  -18.2410   17.6000 H   0  0  0  0  0  0  0  0  0  0  0  0
  -28.2080  -22.2630   18.1410 C   0  0  0  0  0  2  0  0  0  0  0  0
  -27.2710  -23.9490   18.3150 C   0  0  0  0  0  2  0  0  0  0  0  0
  -27.4970  -25.6900   18.2050 O   0  0  0  0  0  0  0  0  0  0  0  0
  -25.1790  -31.2570   23.0890 C   0  0  0  0  0  0  0  0  0  0  0  0
  -26.6580  -26.9270   18.6200 C   0  0  0  0  0  0  0  0  0  0  0  0
  -23.6220  -30.4230   21.3810 C   0  0  0  0  0  3  0  0  0  0  0  0
  -24.6600  -29.0840   19.4020 C   0  0  0  0  0  0  0  0  0  0  0  0
  -26.1600  -30.3820   20.8850 C   0  0  0  0  0  2  0  0  0  0  0  0
  -25.9650  -29.1670   19.9030 C   0  0  0  0  0  0  0  0  0  0  0  0
  -26.9510  -28.1290   19.4890 C   0  0  0  0  0  3  0  0  0  0  0  0
  -25.3350  -27.0520   18.1230 C   0  0  0  0  0  3  0  0  0  0  0  0
  -24.3830  -28.0510   18.4870 C   0  0  0  0  0  3  0  0  0  0  0  0
  -23.5880  -30.0850   19.8630 C   0  0  0  0  0  2  0  0  0  0  0  0
  -25.0200  -30.7000   21.8380 N   0  0  0  0  0  0  0  0  0  0  0  0
  -24.2120  -31.5070   23.8280 O   0  0  0  0  0  0  0  0  0  0  0  0
  -22.9310  -29.2910   22.1870 C   0  0  0  0  0  0  0  0  0  0  0  0
  -21.5870  -29.2220   22.1510 N   0  0  0  0  0  0  0  0  0  0  0  0
  -23.6160  -28.4780   22.8110 O   0  0  0  0  0  0  0  0  0  0  0  0
  -21.0900  -29.9310   21.6310 H   0  0  0  0  0  0  0  0  0  0  0  0
  -18.1990  -27.9740   22.5400 C   0  0  0  0  0  0  0  0  0  0  0  0
  -20.7660  -28.1800   22.7820 C   0  0  0  0  0  3  0  0  0  0  0  0
  -20.8410  -26.8570   21.9830 C   0  0  0  0  0  2  0  0  0  0  0  0
  -19.7160  -26.7090   20.9560 C   0  0  0  0  0  2  0  0  0  0  0  0
  -18.3500  -26.7510   21.6480 C   0  0  0  0  0  2  0  0  0  0  0  0
  -19.3330  -28.6530   23.0570 C   0  0  0  0  0  0  0  0  0  0  0  0
  -19.1440  -29.8000   23.8570 C   0  0  0  0  0  3  0  0  0  0  0  0
  -17.8500  -30.2700   24.1470 C   0  0  0  0  0  3  0  0  0  0  0  0
  -16.7280  -29.5810   23.6540 C   0  0  0  0  0  3  0  0  0  0  0  0
  -16.9020  -28.4370   22.8530 C   0  0  0  0  0  3  0  0  0  0  0  0
  -26.5860  -31.6160   23.6540 C   0  0  0  0  0  3  0  0  0  0  0  0
  -26.4720  -32.8710   24.4220 N   0  0  0  0  0  0  0  0  0  0  0  0
  -26.9030  -34.0730   24.0150 C   0  0  0  0  0  0  0  0  0  0  0  0
  -27.5020  -34.2360   22.9500 O   0  0  0  0  0  0  0  0  0  0  0  0
  -25.9570  -32.8210   25.2890 H   0  0  0  0  0  0  0  0  0  0  0  0
  -25.4710  -36.1170   24.3640 C   0  0  0  0  0  1  0  0  0  0  0  0
  -26.6320  -35.2860   24.9340 C   0  0  0  0  0  3  0  0  0  0  0  0
  -28.8710  -35.5360   25.9160 C   0  0  0  0  0  1  0  0  0  0  0  0
  -27.8120  -36.1590   25.1240 N   0  0  0  0  0  0  0  0  0  0  0  0
  -27.5470  -37.0260   25.5900 H   0  0  0  0  0  0  0  0  0  0  0  0
  -27.1910  -30.4820   24.5720 C   0  0  1  0  0  0  0  0  0  0  0  0
  -26.2360  -30.0210   25.6980 C   0  0  0  0  0  1  0  0  0  0  0  0
  -27.5710  -29.2360   23.7410 C   0  0  0  0  0  1  0  0  0  0  0  0
  -28.4980  -30.9860   25.2290 C   0  0  0  0  0  1  0  0  0  0  0  0
  1  7  1  0
  2  7  1  0
  3  4  1  0
  3  2  1  0
  5  4  1  0
  5 18  1  0
  5  6  1  0
  7  6  1  0
  8  1  2  0
 10  9  1  0
 11 13  1  0
 11 14  1  0
 12 43  1  0
 12  9  1  0
 13 53  1  0
 13 12  1  0
 14  1  1  0
 14 10  1  0
 15 16  2  0
 16 35  1  0
 17 16  1  0
 17 20  1  0
 18 19  1  0
 18 15  1  0
 19 17  2  0
 20 21  1  0
 21 22  2  0
 23 26  1  0
 23 22  1  0
 24 23  2  0
 25 24  1  0
 25 20  2  0
 26 27  1  0
 27 32  2  0
 27 28  1  0
 28 29  2  0
 29 30  1  0
 30 34  1  0
 31 30  2  0
 32 31  1  0
 33 32  1  0
 35 36  1  0
 36 39  1  0
 36 38  1  0
 37 35  2  0
 40 15  1  0
 40 41  1  0
 42 40  1  0
 43 44  1  0
 44 46  1  0
 45 44  2  0
 45 47  1  0
 47 46  1  0
 48 45  1  0
 49 50  1  0
 49 48  1  0
 51 49  1  0
 52 49  1  0
 53 54  1  0
 55 54  1  0
 55 57  1  0
 56 67  2  0
 57 62  1  0
 58 66  1  0
 58 68  1  0
 59 65  1  0
 59 61  1  0
 60 66  1  0
 61 60  1  0
 62 61  2  0
 63 64  1  0
 63 57  2  0
 64 59  2  0
 65 58  1  0
 66 56  1  0
 68 70  2  0
 69 68  1  0
 71 69  1  0
 72 81  2  0
 72 77  1  0
 73 69  1  0
 73 77  1  0
 74 73  1  0
 75 76  1  0
 75 74  1  0
 76 72  1  0
 77 78  2  0
 78 79  1  0
 80 79  2  0
 81 80  1  0
 82 56  1  0
 82 83  1  0
 82 92  1  0
 83 86  1  0
 84 83  1  0
 84 88  1  0
 85 84  2  0
 88 87  1  0
 88 90  1  0
 90 91  1  0
 90 89  1  0
 92 95  1  1
 92 93  1  0
 94 92  1  0
M  ISO  4   1 100  14 100  54 101  55 101
M  END
>  <TORSDO>  (19) 
F 21

>  <SCORE>  (19) 
-12.743

>  <name>  (19) 
18

>  <ligand_id>  (19) 
18

>  <original_smiles>  (19) 
[H]c1c([H])c([H])c2c(c1[H])C([H])([H])C([H])([H])C([H])([H])C2([H])N([H])C(=O)C1([H])N(C(=O)C([H])(N([H])C(=O)C([H])(N([H])C([H])([H])[H])C([H])([H])[H])C(C([H])([H])[H])(C([H])([H])[H])C([H])([H])[H])C([H])([H])c2c([H])c(OC([H])([H])C([H])([H])C3([H])C([H])([H])N(C(=O)N4C([H])([H])C([H])([H])C([H])([H])C([H])(n5nc(-c6c([H])c([H])c(Oc7c([H])c([H])c(F)c([H])c7F)c([H])c6[H])c(C(=O)N([H])[H])c5N([H])[H])C4([H])[H])C([H])([H])C([H])([H])C3([H])C([H])([H])C3=C(C([H])([H])[N+]([H])([H])[H])C([H])([H])C3([H])[H])c([H])c([H])c2C1([H])[H]

>  <smiles>  (19) 
[H]c1c([H])c([H])c2c(c1[H])C([H])([H])C([H])([H])C([H])([H])C2([H])N([H])C(=O)C1([H])N(C(=O)C([H])(N([H])C(=O)C([H])(N([H])C([H])([H])[H])C([H])([H])[H])C(C([H])([H])[H])(C([H])([H])[H])C([H])([H])[H])C([H])([H])c2c([H])c(OC([H])([H])C([H])([H])C3([H])C([H])([H])N(C(=O)N4C([H])([H])C([H])([H])C([H])([H])C([H])(n5nc(-c6c([H])c([H])c(Oc7c([H])c([H])c(F)c([H])c7F)c([H])c6[H])c(C(=O)N([H])[H])c5N([H])[H])C4([H])[H])C([H])([H])C([H])([H])C3([H])C([H])([H])C3=C(C([H])([H])[N+]([H])([H])[H])C([H])([H])C3([H])[H])c([H])c([H])c2C1([H])[H]

$$$$
19:0:0
     RDKit          3D

 87 97  0  0  1  0  0  0  0  0999 V2000
  -28.8180  -22.8580   20.3140 C   0  0  0  0  0  0  0  0  0  0  0  0
  -30.0130  -23.0990   20.5120 O   0  0  0  0  0  0  0  0  0  0  0  0
  -28.4170  -21.1510   20.2580 C   0  0  0  0  0  2  0  0  0  0  0  0
  -30.4920  -15.3060   20.2740 C   0  0  0  0  0  0  0  0  0  0  0  0
  -30.3510  -12.8840   19.3650 C   0  0  0  0  0  2  0  0  0  0  0  0
  -29.4380  -12.6430   18.1420 C   0  0  0  0  0  2  0  0  0  0  0  0
  -27.9950  -12.3780   18.5940 C   0  0  0  0  0  2  0  0  0  0  0  0
  -27.5460  -13.3480   19.7190 C   0  0  0  0  0  3  0  0  0  0  0  0
  -28.6030  -13.5580   20.8250 C   0  0  0  0  0  2  0  0  0  0  0  0
  -29.8080  -14.0620   20.1480 N   0  0  0  0  0  0  0  0  0  0  0  0
  -31.7130  -15.1400   20.1240 O   0  0  0  0  0  0  0  0  0  0  0  0
  -28.4360  -18.2660   19.0210 C   0  0  0  0  0  2  0  0  0  0  0  0
  -30.8350  -17.6610   19.3160 C   0  0  0  0  0  2  0  0  0  0  0  0
  -29.8620  -18.8580   19.0670 C   0  0  1  0  0  0  0  0  0  0  0  0
  -29.3530  -19.5950   20.3430 C   0  0  0  0  0  3  0  0  0  0  0  0
  -28.9260  -17.8810   20.4210 C   0  0  1  0  0  0  0  0  0  0  0  0
  -30.0070  -16.7170   20.0920 N   0  0  0  0  0  0  0  0  0  0  0  0
  -25.1850  -13.8800   20.5060 C   0  0  0  0  0  0  0  0  0  0  0  0
  -24.1300  -13.0930   20.8730 C   0  0  0  0  0  0  0  0  0  0  0  0
  -24.6050  -11.7460   20.8310 C   0  0  0  0  0  0  0  0  0  0  0  0
  -26.2300  -13.0140   20.2470 N   0  0  0  0  0  0  0  0  0  0  0  0
  -25.8970  -11.7240   20.5140 N   0  0  0  0  0  0  0  0  0  0  0  0
  -23.8860  -10.4780   21.0140 C   0  0  0  0  0  0  0  0  0  0  0  0
  -24.3100   -9.5160   21.9580 C   0  0  0  0  0  3  0  0  0  0  0  0
  -23.5870   -8.3160   22.1330 C   0  0  0  0  0  3  0  0  0  0  0  0
  -22.4260   -8.0680   21.3620 C   0  0  0  0  0  0  0  0  0  0  0  0
  -22.0230   -9.0180   20.4070 C   0  0  0  0  0  3  0  0  0  0  0  0
  -22.7450  -10.2090   20.2310 C   0  0  0  0  0  3  0  0  0  0  0  0
  -21.6760   -6.9200   21.4440 O   0  0  0  0  0  0  0  0  0  0  0  0
  -21.5930   -6.1950   22.6070 C   0  0  0  0  0  0  0  0  0  0  0  0
  -21.1100   -6.7640   23.8060 C   0  0  0  0  0  3  0  0  0  0  0  0
  -20.9770   -5.9650   24.9590 C   0  0  0  0  0  3  0  0  0  0  0  0
  -21.3140   -4.5990   24.9150 C   0  0  0  0  0  0  0  0  0  0  0  0
  -21.7880   -4.0300   23.7200 C   0  0  0  0  0  3  0  0  0  0  0  0
  -21.9250   -4.8250   22.5690 C   0  0  0  0  0  0  0  0  0  0  0  0
  -22.3620   -4.2670   21.4140 F   0  0  0  0  0  0  0  0  0  0  0  0
  -21.1790   -3.8300   26.0210 F   0  0  0  0  0  0  0  0  0  0  0  0
  -22.7310  -13.5610   21.1470 C   0  0  0  0  0  0  0  0  0  0  0  0
  -22.0100  -12.8600   22.0150 N   0  0  0  0  0  0  0  0  0  0  0  0
  -22.2860  -14.5830   20.6270 O   0  0  0  0  0  0  0  0  0  0  0  0
  -22.3860  -12.0350   22.4590 H   0  0  0  0  0  0  0  0  0  0  0  0
  -21.0700  -13.1530   22.2390 H   0  0  0  0  0  0  0  0  0  0  0  0
  -25.3400  -15.2540   20.3370 N   0  0  0  0  0  0  0  0  0  0  0  0
  -24.5750  -15.9070   20.4640 H   0  0  0  0  0  0  0  0  0  0  0  0
  -26.1890  -15.6990   20.0140 H   0  0  0  0  0  0  0  0  0  0  0  0
  -27.7930  -24.2660   20.1280 C   0  0  0  0  0  2  0  0  0  0  0  0
  -28.1450  -25.8690   20.2920 O   0  0  0  0  0  0  0  0  0  0  0  0
  -24.6490  -31.8770   23.2470 C   0  0  0  0  0  0  0  0  0  0  0  0
  -27.1600  -26.9850   20.2270 C   0  0  0  0  0  0  0  0  0  0  0  0
  -23.4440  -30.4930   21.6080 C   0  0  0  0  0  3  0  0  0  0  0  0
  -24.8790  -28.8810   20.1810 C   0  0  0  0  0  0  0  0  0  0  0  0
  -26.0120  -30.6840   21.4630 C   0  0  0  0  0  2  0  0  0  0  0  0
  -26.0700  -29.2760   20.8040 C   0  0  0  0  0  0  0  0  0  0  0  0
  -27.2050  -28.3480   20.8040 C   0  0  0  0  0  3  0  0  0  0  0  0
  -25.9430  -26.7460   19.5520 C   0  0  0  0  0  3  0  0  0  0  0  0
  -24.8390  -27.6350   19.5360 C   0  0  0  0  0  3  0  0  0  0  0  0
  -23.6670  -29.8110   20.2300 C   0  0  0  0  0  2  0  0  0  0  0  0
  -24.7240  -31.0450   22.1590 N   0  0  0  0  0  0  0  0  0  0  0  0
  -23.5610  -32.1740   23.7680 O   0  0  0  0  0  0  0  0  0  0  0  0
  -22.7430  -29.5000   22.5700 C   0  0  0  0  0  0  0  0  0  0  0  0
  -21.4130  -29.3430   22.4420 N   0  0  0  0  0  0  0  0  0  0  0  0
  -23.4040  -28.8710   23.4010 O   0  0  0  0  0  0  0  0  0  0  0  0
  -20.9330  -29.9010   21.7500 H   0  0  0  0  0  0  0  0  0  0  0  0
  -18.0230  -28.1520   22.9470 C   0  0  0  0  0  0  0  0  0  0  0  0
  -20.5840  -28.4090   23.2120 C   0  0  0  0  0  3  0  0  0  0  0  0
  -20.6800  -26.9770   22.6390 C   0  0  0  0  0  2  0  0  0  0  0  0
  -19.5770  -26.6570   21.6230 C   0  0  0  0  0  2  0  0  0  0  0  0
  -18.1970  -26.8050   22.2660 C   0  0  0  0  0  2  0  0  0  0  0  0
  -19.1440  -28.9120   23.3760 C   0  0  0  0  0  0  0  0  0  0  0  0
  -18.9270  -30.1720   23.9760 C   0  0  0  0  0  3  0  0  0  0  0  0
  -17.6220  -30.6730   24.1470 C   0  0  0  0  0  3  0  0  0  0  0  0
  -16.5160  -29.9110   23.7310 C   0  0  0  0  0  3  0  0  0  0  0  0
  -16.7180  -28.6520   23.1380 C   0  0  0  0  0  3  0  0  0  0  0  0
  -25.9230  -32.5090   23.8830 C   0  0  0  0  0  3  0  0  0  0  0  0
  -25.6160  -33.9110   24.2190 N   0  0  0  0  0  0  0  0  0  0  0  0
  -25.9290  -34.9690   23.4580 C   0  0  0  0  0  0  0  0  0  0  0  0
  -26.5700  -34.8690   22.4100 O   0  0  0  0  0  0  0  0  0  0  0  0
  -25.0430  -34.0620   25.0360 H   0  0  0  0  0  0  0  0  0  0  0  0
  -24.1780  -36.7590   23.1800 C   0  0  0  0  0  1  0  0  0  0  0  0
  -25.4580  -36.3600   23.9340 C   0  0  0  0  0  3  0  0  0  0  0  0
  -27.6240  -37.2600   24.6640 C   0  0  0  0  0  1  0  0  0  0  0  0
  -26.4810  -37.4160   23.7690 N   0  0  0  0  0  0  0  0  0  0  0  0
  -26.0780  -38.3370   23.9230 H   0  0  0  0  0  0  0  0  0  0  0  0
  -26.4200  -31.7410   25.1700 C   0  0  1  0  0  0  0  0  0  0  0  0
  -25.3150  -31.5210   26.2300 C   0  0  0  0  0  1  0  0  0  0  0  0
  -26.9960  -30.3560   24.8010 C   0  0  0  0  0  1  0  0  0  0  0  0
  -27.5750  -32.5280   25.8370 C   0  0  0  0  0  1  0  0  0  0  0  0
  1  2  2  0
  3  1  1  0
  5 10  1  0
  6  7  1  0
  6  5  1  0
  8  7  1  0
  8 21  1  0
  8  9  1  0
 10  4  1  0
 10  9  1  0
 11  4  2  0
 13 17  1  0
 14 12  1  1
 14 13  1  0
 14 15  1  0
 14 16  1  0
 15  3  1  0
 15 16  1  0
 16 12  1  6
 17  4  1  0
 17 16  1  0
 18 19  2  0
 19 38  1  0
 20 19  1  0
 20 23  1  0
 21 18  1  0
 21 22  1  0
 22 20  2  0
 23 24  1  0
 24 25  2  0
 26 29  1  0
 26 25  1  0
 27 26  2  0
 28 27  1  0
 28 23  2  0
 29 30  1  0
 30 31  1  0
 31 32  2  0
 33 32  1  0
 33 37  1  0
 34 33  2  0
 35 30  2  0
 35 34  1  0
 36 35  1  0
 38 39  1  0
 39 42  1  0
 39 41  1  0
 40 38  2  0
 43 44  1  0
 43 18  1  0
 45 43  1  0
 46 47  1  0
 46  1  1  0
 48 59  2  0
 49 47  1  0
 49 54  1  0
 50 58  1  0
 50 60  1  0
 51 57  1  0
 51 53  1  0
 52 58  1  0
 53 54  2  0
 53 52  1  0
 55 49  2  0
 56 55  1  0
 56 51  2  0
 57 50  1  0
 58 48  1  0
 60 62  2  0
 61 60  1  0
 63 61  1  0
 64 73  2  0
 64 69  1  0
 65 61  1  0
 65 69  1  0
 66 65  1  0
 67 68  1  0
 67 66  1  0
 68 64  1  0
 69 70  2  0
 70 71  1  0
 72 71  2  0
 73 72  1  0
 74 48  1  0
 74 75  1  0
 74 84  1  0
 75 78  1  0
 76 80  1  0
 76 75  1  0
 77 76  2  0
 80 79  1  0
 82 83  1  0
 82 80  1  0
 82 81  1  0
 84 87  1  1
 84 85  1  0
 86 84  1  0
M  ISO  4   4 100  17 100  46 101  47 101
M  END
>  <TORSDO>  (20) 
F 18

>  <SCORE>  (20) 
-16.271

>  <name>  (20) 
19

>  <ligand_id>  (20) 
19

>  <original_smiles>  (20) 
[H]c1c([H])c([H])c2c(c1[H])C([H])([H])C([H])([H])C([H])([H])C2([H])N([H])C(=O)C1([H])N(C(=O)C([H])(N([H])C(=O)C([H])(N([H])C([H])([H])[H])C([H])([H])[H])C(C([H])([H])[H])(C([H])([H])[H])C([H])([H])[H])C([H])([H])c2c([H])c(OC([H])([H])C(=O)C([H])([H])C3([H])C4([H])N(C(=O)N5C([H])([H])C([H])([H])C([H])([H])C([H])(n6nc(-c7c([H])c([H])c(Oc8c([H])c([H])c(F)c([H])c8F)c([H])c7[H])c(C(=O)N([H])[H])c6N([H])[H])C5([H])[H])C([H])([H])C3([H])C4([H])[H])c([H])c([H])c2C1([H])[H]

>  <smiles>  (20) 
[H]c1c([H])c([H])c2c(c1[H])C([H])([H])C([H])([H])C([H])([H])C2([H])N([H])C(=O)C1([H])N(C(=O)C([H])(N([H])C(=O)C([H])(N([H])C([H])([H])[H])C([H])([H])[H])C(C([H])([H])[H])(C([H])([H])[H])C([H])([H])[H])C([H])([H])c2c([H])c(OC([H])([H])C(=O)C([H])([H])C3([H])C4([H])N(C(=O)N5C([H])([H])C([H])([H])C([H])([H])C([H])(n6nc(-c7c([H])c([H])c(Oc8c([H])c([H])c(F)c([H])c8F)c([H])c7[H])c(C(=O)N([H])[H])c6N([H])[H])C5([H])[H])C([H])([H])C3([H])C4([H])[H])c([H])c([H])c2C1([H])[H]

$$$$
20:0:0
     RDKit          3D

 90 99  0  0  1  0  0  0  0  0999 V2000
  -29.4830  -21.1660   20.7160 N   0  0  0  0  0  4  0  0  0  0  0  0
  -29.2710  -21.1460   21.7010 H   0  0  0  0  0  0  0  0  0  0  0  0
  -28.6280  -20.9890   20.2200 H   0  0  0  0  0  0  0  0  0  0  0  0
  -30.7100  -14.7910   20.3660 C   0  0  0  0  0  0  0  0  0  0  0  0
  -30.3930  -12.5410   19.3470 C   0  0  0  0  0  2  0  0  0  0  0  0
  -29.4330  -12.5550   18.1380 C   0  0  0  0  0  2  0  0  0  0  0  0
  -27.9820  -12.3560   18.6060 C   0  0  0  0  0  2  0  0  0  0  0  0
  -27.6010  -13.3060   19.7720 C   0  0  0  0  0  3  0  0  0  0  0  0
  -28.6800  -13.3120   20.8870 C   0  0  0  0  0  2  0  0  0  0  0  0
  -29.9720  -13.6300   20.2620 N   0  0  0  0  0  0  0  0  0  0  0  0
  -31.9340  -14.7320   20.2400 O   0  0  0  0  0  0  0  0  0  0  0  0
  -30.5480  -19.3420   19.0440 C   0  0  0  0  0  2  0  0  0  0  0  0
  -30.1860  -18.6390   21.4140 C   0  0  0  0  0  2  0  0  0  0  0  0
  -30.4160  -16.5350   18.7740 C   0  0  0  0  0  2  0  0  0  0  0  0
  -30.0390  -17.9090   19.2650 C   0  0  0  0  0  3  0  0  0  0  0  0
  -30.6980  -17.4360   20.5310 C   0  0  0  0  0  3  0  0  0  0  0  0
  -30.4420  -19.9690   20.5050 C   0  0  0  0  0  3  0  0  0  0  0  0
  -30.1210  -16.0410   20.1740 N   0  0  0  0  0  0  0  0  0  0  0  0
  -25.2080  -13.9000   20.4970 C   0  0  0  0  0  0  0  0  0  0  0  0
  -24.1400  -13.1220   20.8650 C   0  0  0  0  0  0  0  0  0  0  0  0
  -24.6100  -11.7730   20.8440 C   0  0  0  0  0  0  0  0  0  0  0  0
  -26.2610  -13.0230   20.2830 N   0  0  0  0  0  0  0  0  0  0  0  0
  -25.9030  -11.7420   20.5510 N   0  0  0  0  0  0  0  0  0  0  0  0
  -23.8800  -10.5090   21.0340 C   0  0  0  0  0  0  0  0  0  0  0  0
  -24.3050   -9.5460   21.9720 C   0  0  0  0  0  3  0  0  0  0  0  0
  -23.5720   -8.3510   22.1460 C   0  0  0  0  0  3  0  0  0  0  0  0
  -22.4040   -8.1120   21.3830 C   0  0  0  0  0  0  0  0  0  0  0  0
  -22.0020   -9.0660   20.4320 C   0  0  0  0  0  3  0  0  0  0  0  0
  -22.7360  -10.2500   20.2550 C   0  0  0  0  0  3  0  0  0  0  0  0
  -21.6420   -6.9730   21.4730 O   0  0  0  0  0  0  0  0  0  0  0  0
  -21.5780   -6.2370   22.6300 C   0  0  0  0  0  0  0  0  0  0  0  0
  -21.1260   -6.7990   23.8430 C   0  0  0  0  0  3  0  0  0  0  0  0
  -21.0110   -5.9900   24.9910 C   0  0  0  0  0  3  0  0  0  0  0  0
  -21.3310   -4.6210   24.9270 C   0  0  0  0  0  0  0  0  0  0  0  0
  -21.7760   -4.0600   23.7160 C   0  0  0  0  0  3  0  0  0  0  0  0
  -21.8930   -4.8650   22.5680 C   0  0  0  0  0  0  0  0  0  0  0  0
  -22.2980   -4.3160   21.3990 F   0  0  0  0  0  0  0  0  0  0  0  0
  -21.2130   -3.8400   26.0260 F   0  0  0  0  0  0  0  0  0  0  0  0
  -22.7410  -13.5980   21.1280 C   0  0  0  0  0  0  0  0  0  0  0  0
  -22.0030  -12.8980   21.9850 N   0  0  0  0  0  0  0  0  0  0  0  0
  -22.3090  -14.6230   20.6030 O   0  0  0  0  0  0  0  0  0  0  0  0
  -22.3800  -12.0900   22.4580 H   0  0  0  0  0  0  0  0  0  0  0  0
  -21.0560  -13.1840   22.1920 H   0  0  0  0  0  0  0  0  0  0  0  0
  -25.3570  -15.2690   20.2980 N   0  0  0  0  0  0  0  0  0  0  0  0
  -24.5770  -15.9150   20.3820 H   0  0  0  0  0  0  0  0  0  0  0  0
  -26.2210  -15.7330   20.0460 H   0  0  0  0  0  0  0  0  0  0  0  0
  -29.8900  -22.6240   20.4380 C   0  0  0  0  0  2  0  0  0  0  0  0
  -28.7680  -23.8000   20.6850 C   0  0  0  0  0  2  0  0  0  0  0  0
  -28.7890  -25.1960   19.8440 C   0  0  0  0  0  2  0  0  0  0  0  0
  -28.4930  -26.5540   20.3950 O   0  0  0  0  0  0  0  0  0  0  0  0
  -24.6070  -31.8890   23.2240 C   0  0  0  0  0  0  0  0  0  0  0  0
  -27.3160  -27.3280   20.2400 C   0  0  0  0  0  0  0  0  0  0  0  0
  -23.4230  -30.4570   21.5850 C   0  0  0  0  0  3  0  0  0  0  0  0
  -24.9110  -28.9070   20.1730 C   0  0  0  0  0  0  0  0  0  0  0  0
  -25.9540  -30.8120   21.4080 C   0  0  0  0  0  2  0  0  0  0  0  0
  -26.0590  -29.4270   20.7760 C   0  0  0  0  0  0  0  0  0  0  0  0
  -27.2580  -28.6460   20.7960 C   0  0  0  0  0  3  0  0  0  0  0  0
  -26.1410  -26.8550   19.6150 C   0  0  0  0  0  3  0  0  0  0  0  0
  -24.9560  -27.6350   19.5760 C   0  0  0  0  0  3  0  0  0  0  0  0
  -23.6460  -29.7520   20.2150 C   0  0  0  0  0  2  0  0  0  0  0  0
  -24.6780  -31.0730   22.1320 N   0  0  0  0  0  0  0  0  0  0  0  0
  -23.5210  -32.1680   23.7570 O   0  0  0  0  0  0  0  0  0  0  0  0
  -22.7640  -29.4570   22.5590 C   0  0  0  0  0  0  0  0  0  0  0  0
  -21.4410  -29.2790   22.4330 N   0  0  0  0  0  0  0  0  0  0  0  0
  -23.4460  -28.8440   23.3900 O   0  0  0  0  0  0  0  0  0  0  0  0
  -20.9460  -29.8370   21.7530 H   0  0  0  0  0  0  0  0  0  0  0  0
  -18.0600  -28.0890   22.9050 C   0  0  0  0  0  0  0  0  0  0  0  0
  -20.6140  -28.3430   23.1940 C   0  0  0  0  0  3  0  0  0  0  0  0
  -20.7240  -26.9160   22.6200 C   0  0  0  0  0  2  0  0  0  0  0  0
  -19.6310  -26.5940   21.5990 C   0  0  0  0  0  2  0  0  0  0  0  0
  -18.2490  -26.7360   22.2370 C   0  0  0  0  0  2  0  0  0  0  0  0
  -19.1730  -28.8520   23.3450 C   0  0  0  0  0  0  0  0  0  0  0  0
  -18.9490  -30.1070   23.9500 C   0  0  0  0  0  3  0  0  0  0  0  0
  -17.6430  -30.6020   24.1300 C   0  0  0  0  0  3  0  0  0  0  0  0
  -16.5400  -29.8400   23.6990 C   0  0  0  0  0  3  0  0  0  0  0  0
  -16.7520  -28.5860   23.0910 C   0  0  0  0  0  3  0  0  0  0  0  0
  -25.8850  -32.5290   23.8560 C   0  0  0  0  0  3  0  0  0  0  0  0
  -26.3910  -31.7690   25.1450 C   0  0  1  0  0  0  0  0  0  0  0  0
  -25.2850  -31.5380   26.2030 C   0  0  0  0  0  1  0  0  0  0  0  0
  -26.9770  -30.3880   24.7720 C   0  0  0  0  0  1  0  0  0  0  0  0
  -27.5380  -32.5710   25.8030 C   0  0  0  0  0  1  0  0  0  0  0  0
  -25.5740  -33.9290   24.1730 N   0  0  0  0  0  0  0  0  0  0  0  0
  -25.9210  -34.9760   23.4120 C   0  0  0  0  0  0  0  0  0  0  0  0
  -26.6000  -34.8620   22.3880 O   0  0  0  0  0  0  0  0  0  0  0  0
  -24.9510  -34.0920   24.9510 H   0  0  0  0  0  0  0  0  0  0  0  0
  -24.1970  -36.7690   23.0340 C   0  0  0  0  0  1  0  0  0  0  0  0
  -25.4340  -36.3690   23.8540 C   0  0  0  0  0  3  0  0  0  0  0  0
  -27.5630  -37.2600   24.6960 C   0  0  0  0  0  1  0  0  0  0  0  0
  -26.4700  -37.4190   23.7390 N   0  0  0  0  0  0  0  0  0  0  0  0
  -26.0690  -38.3450   23.8680 H   0  0  0  0  0  0  0  0  0  0  0  0
  1  2  1  0
  3  1  1  0
  5 10  1  0
  6  7  1  0
  6  5  1  0
  8  7  1  0
  8 22  1  0
  8  9  1  0
 10  4  1  0
 10  9  1  0
 11  4  2  0
 12 15  1  0
 12 17  1  0
 14 18  1  0
 15 14  1  0
 15 16  1  0
 16 13  1  0
 17  1  1  0
 17 13  1  0
 18  4  1  0
 18 16  1  0
 19 20  2  0
 20 39  1  0
 21 20  1  0
 21 24  1  0
 22 19  1  0
 22 23  1  0
 23 21  2  0
 24 25  1  0
 25 26  2  0
 27 30  1  0
 27 26  1  0
 28 27  2  0
 29 28  1  0
 29 24  2  0
 30 31  1  0
 31 32  1  0
 32 33  2  0
 34 33  1  0
 34 38  1  0
 35 34  2  0
 36 31  2  0
 36 35  1  0
 37 36  1  0
 39 40  1  0
 40 43  1  0
 40 42  1  0
 41 39  2  0
 44 45  1  0
 44 19  1  0
 46 44  1  0
 47 48  1  0
 47  1  1  0
 49 50  1  0
 49 48  1  0
 51 62  2  0
 52 50  1  0
 52 57  1  0
 53 61  1  0
 53 63  1  0
 54 60  1  0
 54 56  1  0
 55 61  1  0
 56 57  2  0
 56 55  1  0
 58 52  2  0
 59 58  1  0
 59 54  2  0
 60 53  1  0
 61 51  1  0
 63 65  2  0
 64 63  1  0
 66 64  1  0
 67 76  2  0
 67 72  1  0
 68 64  1  0
 68 72  1  0
 69 68  1  0
 70 71  1  0
 70 69  1  0
 71 67  1  0
 72 73  2  0
 73 74  1  0
 75 74  2  0
 76 75  1  0
 77 51  1  0
 77 82  1  0
 77 78  1  0
 78 81  1  1
 78 79  1  0
 80 78  1  0
 82 85  1  0
 83 87  1  0
 83 82  1  0
 84 83  2  0
 87 86  1  0
 89 87  1  0
 89 90  1  0
 89 88  1  0
M  ISO  4   4 100  18 100  49 101  50 101
M  END
>  <TORSDO>  (21) 
F 19

>  <SCORE>  (21) 
-13.954

>  <name>  (21) 
20

>  <ligand_id>  (21) 
20

>  <original_smiles>  (21) 
[H]c1c([H])c([H])c2c(c1[H])C([H])([H])C([H])([H])C([H])([H])C2([H])N([H])C(=O)C1([H])N(C(=O)C([H])(N([H])C(=O)C([H])(N([H])C([H])([H])[H])C([H])([H])[H])C(C([H])([H])[H])(C([H])([H])[H])C([H])([H])[H])C([H])([H])c2c([H])c(OC([H])([H])C([H])([H])C([H])([H])[N+]([H])([H])C3([H])C([H])([H])C4([H])N(C(=O)N5C([H])([H])C([H])([H])C([H])([H])C([H])(n6nc(-c7c([H])c([H])c(Oc8c([H])c([H])c(F)c([H])c8F)c([H])c7[H])c(C(=O)N([H])[H])c6N([H])[H])C5([H])[H])C([H])([H])C4([H])C3([H])[H])c([H])c([H])c2C1([H])[H]

>  <smiles>  (21) 
[H]c1c([H])c([H])c2c(c1[H])C([H])([H])C([H])([H])C([H])([H])C2([H])N([H])C(=O)C1([H])N(C(=O)C([H])(N([H])C(=O)C([H])(N([H])C([H])([H])[H])C([H])([H])[H])C(C([H])([H])[H])(C([H])([H])[H])C([H])([H])[H])C([H])([H])c2c([H])c(OC([H])([H])C([H])([H])C([H])([H])[N+]([H])([H])C3([H])C([H])([H])C4([H])N(C(=O)N5C([H])([H])C([H])([H])C([H])([H])C([H])(n6nc(-c7c([H])c([H])c(Oc8c([H])c([H])c(F)c([H])c8F)c([H])c7[H])c(C(=O)N([H])[H])c6N([H])[H])C5([H])[H])C([H])([H])C4([H])C3([H])[H])c([H])c([H])c2C1([H])[H]

$$$$
21:0:0
     RDKit          3D

 88 96  0  0  1  0  0  0  0  0999 V2000
  -28.7600  -21.8060   20.2870 N   0  0  0  0  0  4  0  0  0  0  0  0
  -28.1050  -21.6330   19.5400 H   0  0  0  0  0  0  0  0  0  0  0  0
  -28.2520  -21.6720   21.1470 H   0  0  0  0  0  0  0  0  0  0  0  0
  -29.8230  -20.6200   20.2060 C   0  0  0  0  0  2  0  0  0  0  0  0
  -30.5830  -15.0710   20.1810 C   0  0  0  0  0  0  0  0  0  0  0  0
  -30.3990  -12.7270   19.2120 C   0  0  0  0  0  2  0  0  0  0  0  0
  -29.4360  -12.6470   18.0050 C   0  0  0  0  0  2  0  0  0  0  0  0
  -27.9970  -12.3900   18.4840 C   0  0  0  0  0  2  0  0  0  0  0  0
  -27.5990  -13.3140   19.6610 C   0  0  0  0  0  3  0  0  0  0  0  0
  -28.6870  -13.3740   20.7560 C   0  0  0  0  0  2  0  0  0  0  0  0
  -29.9230  -13.8340   20.1000 N   0  0  0  0  0  0  0  0  0  0  0  0
  -31.7930  -15.0380   19.9210 O   0  0  0  0  0  0  0  0  0  0  0  0
  -28.4100  -18.3110   20.5610 C   0  0  0  0  0  3  0  0  0  0  0  0
  -29.5410  -18.9780   20.3000 C   0  0  0  0  0  0  0  0  0  0  0  0
  -28.5360  -16.7590   20.5350 C   0  0  0  0  0  3  0  0  0  0  0  0
  -30.5930  -17.7830   20.1180 C   0  0  0  0  0  3  0  0  0  0  0  0
  -29.9510  -16.3710   20.2810 N   0  0  0  0  0  0  0  0  0  0  0  0
  -25.2320  -13.8670   20.4520 C   0  0  0  0  0  0  0  0  0  0  0  0
  -24.1820  -13.0790   20.8370 C   0  0  0  0  0  0  0  0  0  0  0  0
  -24.6610  -11.7320   20.7930 C   0  0  0  0  0  0  0  0  0  0  0  0
  -26.2800  -12.9990   20.1940 N   0  0  0  0  0  0  0  0  0  0  0  0
  -25.9470  -11.7120   20.4650 N   0  0  0  0  0  0  0  0  0  0  0  0
  -23.9490  -10.4610   20.9810 C   0  0  0  0  0  0  0  0  0  0  0  0
  -24.3840   -9.5010   21.9210 C   0  0  0  0  0  3  0  0  0  0  0  0
  -23.6680   -8.2980   22.0980 C   0  0  0  0  0  3  0  0  0  0  0  0
  -22.5050   -8.0450   21.3340 C   0  0  0  0  0  0  0  0  0  0  0  0
  -22.0890   -8.9920   20.3810 C   0  0  0  0  0  3  0  0  0  0  0  0
  -22.8050  -10.1880   20.2030 C   0  0  0  0  0  3  0  0  0  0  0  0
  -21.7640   -6.8910   21.4220 O   0  0  0  0  0  0  0  0  0  0  0  0
  -21.6830   -6.1750   22.5880 C   0  0  0  0  0  0  0  0  0  0  0  0
  -21.1980   -6.7490   23.7830 C   0  0  0  0  0  3  0  0  0  0  0  0
  -21.0680   -5.9580   24.9430 C   0  0  0  0  0  3  0  0  0  0  0  0
  -21.4150   -4.5950   24.9090 C   0  0  0  0  0  0  0  0  0  0  0  0
  -21.8970   -4.0210   23.7180 C   0  0  0  0  0  3  0  0  0  0  0  0
  -22.0270   -4.8080   22.5610 C   0  0  0  0  0  0  0  0  0  0  0  0
  -22.4710   -4.2450   21.4100 F   0  0  0  0  0  0  0  0  0  0  0  0
  -21.2850   -3.8320   26.0190 F   0  0  0  0  0  0  0  0  0  0  0  0
  -22.7880  -13.5420   21.1310 C   0  0  0  0  0  0  0  0  0  0  0  0
  -22.0840  -12.8410   22.0130 N   0  0  0  0  0  0  0  0  0  0  0  0
  -22.3310  -14.5620   20.6130 O   0  0  0  0  0  0  0  0  0  0  0  0
  -22.4660  -12.0150   22.4450 H   0  0  0  0  0  0  0  0  0  0  0  0
  -21.1500  -13.1390   22.2610 H   0  0  0  0  0  0  0  0  0  0  0  0
  -25.3770  -15.2390   20.2690 N   0  0  0  0  0  0  0  0  0  0  0  0
  -24.6010  -15.8870   20.3530 H   0  0  0  0  0  0  0  0  0  0  0  0
  -26.2080  -15.6680   19.8840 H   0  0  0  0  0  0  0  0  0  0  0  0
  -29.1450  -23.3600   20.2210 C   0  0  0  0  0  3  0  0  0  0  0  0
  -28.0190  -24.6370   20.1820 C   0  0  0  0  0  3  0  0  0  0  0  0
  -28.2710  -26.1900   20.2340 O   0  0  0  0  0  0  0  0  0  0  0  0
  -24.6420  -31.8990   23.2600 C   0  0  0  0  0  0  0  0  0  0  0  0
  -27.2060  -27.1730   20.1950 C   0  0  0  0  0  0  0  0  0  0  0  0
  -23.4300  -30.5110   21.6200 C   0  0  0  0  0  3  0  0  0  0  0  0
  -24.8740  -28.9300   20.1890 C   0  0  0  0  0  0  0  0  0  0  0  0
  -25.9850  -30.7680   21.4480 C   0  0  0  0  0  2  0  0  0  0  0  0
  -26.0570  -29.3720   20.7910 C   0  0  0  0  0  0  0  0  0  0  0  0
  -27.2230  -28.5120   20.7720 C   0  0  0  0  0  3  0  0  0  0  0  0
  -25.9890  -26.8390   19.5590 C   0  0  0  0  0  3  0  0  0  0  0  0
  -24.8530  -27.6790   19.5580 C   0  0  0  0  0  3  0  0  0  0  0  0
  -23.6470  -29.8310   20.2440 C   0  0  0  0  0  2  0  0  0  0  0  0
  -24.7060  -31.0810   22.1650 N   0  0  0  0  0  0  0  0  0  0  0  0
  -23.5590  -32.1880   23.7940 O   0  0  0  0  0  0  0  0  0  0  0  0
  -22.7470  -29.5080   22.5830 C   0  0  0  0  0  0  0  0  0  0  0  0
  -21.4180  -29.3380   22.4540 N   0  0  0  0  0  0  0  0  0  0  0  0
  -23.4150  -28.8810   23.4090 O   0  0  0  0  0  0  0  0  0  0  0  0
  -20.9330  -29.8920   21.7590 H   0  0  0  0  0  0  0  0  0  0  0  0
  -18.0370  -28.1320   22.9470 C   0  0  0  0  0  0  0  0  0  0  0  0
  -20.5950  -28.3990   23.2240 C   0  0  0  0  0  3  0  0  0  0  0  0
  -20.7010  -26.9650   22.6510 C   0  0  0  0  0  2  0  0  0  0  0  0
  -19.6050  -26.6410   21.6300 C   0  0  0  0  0  2  0  0  0  0  0  0
  -18.2210  -26.7820   22.2710 C   0  0  0  0  0  2  0  0  0  0  0  0
  -19.1530  -28.8980   23.3810 C   0  0  0  0  0  0  0  0  0  0  0  0
  -18.9280  -30.1580   23.9740 C   0  0  0  0  0  3  0  0  0  0  0  0
  -17.6220  -30.6550   24.1370 C   0  0  0  0  0  3  0  0  0  0  0  0
  -16.5220  -29.8860   23.7200 C   0  0  0  0  0  3  0  0  0  0  0  0
  -16.7300  -28.6260   23.1310 C   0  0  0  0  0  3  0  0  0  0  0  0
  -25.9270  -32.5270   23.8840 C   0  0  0  0  0  3  0  0  0  0  0  0
  -26.4380  -31.7480   25.1570 C   0  0  1  0  0  0  0  0  0  0  0  0
  -25.3440  -31.5160   26.2250 C   0  0  0  0  0  1  0  0  0  0  0  0
  -27.0120  -30.3670   24.7660 C   0  0  0  0  0  1  0  0  0  0  0  0
  -27.5930  -32.5300   25.8270 C   0  0  0  0  0  1  0  0  0  0  0  0
  -25.6230  -33.9250   24.2280 N   0  0  0  0  0  0  0  0  0  0  0  0
  -25.9240  -34.9820   23.4640 C   0  0  0  0  0  0  0  0  0  0  0  0
  -26.5570  -34.8840   22.4090 O   0  0  0  0  0  0  0  0  0  0  0  0
  -25.0590  -34.0740   25.0520 H   0  0  0  0  0  0  0  0  0  0  0  0
  -24.1680  -36.7640   23.1920 C   0  0  0  0  0  1  0  0  0  0  0  0
  -25.4500  -36.3680   23.9430 C   0  0  0  0  0  3  0  0  0  0  0  0
  -27.6120  -37.2740   24.6720 C   0  0  0  0  0  1  0  0  0  0  0  0
  -26.4680  -37.4290   23.7800 N   0  0  0  0  0  0  0  0  0  0  0  0
  -26.0620  -38.3450   23.9460 H   0  0  0  0  0  0  0  0  0  0  0  0
  1  3  1  0
  2  1  1  0
  4  1  1  0
  4 14  1  0
  5 17  1  0
  6 11  1  0
  7  8  1  0
  7  6  1  0
  9  8  1  0
  9 21  1  0
  9 10  1  0
 11  5  1  0
 11 10  1  0
 12  5  2  0
 14 13  1  0
 15 13  2  0
 16 17  1  0
 16 14  2  0
 17 15  1  0
 18 19  2  0
 19 38  1  0
 20 19  1  0
 20 23  1  0
 21 18  1  0
 21 22  1  0
 22 20  2  0
 23 24  1  0
 24 25  2  0
 26 29  1  0
 26 25  1  0
 27 26  2  0
 28 27  1  0
 28 23  2  0
 29 30  1  0
 30 31  1  0
 31 32  2  0
 33 32  1  0
 33 37  1  0
 34 33  2  0
 35 30  2  0
 35 34  1  0
 36 35  1  0
 38 39  1  0
 39 42  1  0
 39 41  1  0
 40 38  2  0
 43 44  1  0
 43 18  1  0
 45 43  1  0
 46  1  1  0
 47 46  2  0
 47 48  1  0
 49 60  2  0
 50 48  1  0
 50 55  1  0
 51 59  1  0
 51 61  1  0
 52 58  1  0
 52 54  1  0
 53 59  1  0
 54 53  1  0
 55 54  2  0
 56 50  2  0
 57 56  1  0
 57 52  2  0
 58 51  1  0
 59 49  1  0
 61 63  2  0
 62 61  1  0
 64 62  1  0
 65 74  2  0
 65 70  1  0
 66 62  1  0
 66 70  1  0
 67 66  1  0
 68 69  1  0
 68 67  1  0
 69 65  1  0
 70 71  2  0
 71 72  1  0
 73 72  2  0
 74 73  1  0
 75 49  1  0
 75 80  1  0
 75 76  1  0
 76 79  1  1
 76 77  1  0
 78 76  1  0
 80 83  1  0
 81 85  1  0
 81 80  1  0
 82 81  2  0
 85 84  1  0
 87 85  1  0
 87 88  1  0
 87 86  1  0
M  ISO  4   5 100  17 100  47 101  48 101
M  END
>  <TORSDO>  (22) 
F 19

>  <SCORE>  (22) 
-14.845

>  <name>  (22) 
21

>  <ligand_id>  (22) 
21

>  <original_smiles>  (22) 
[H]C1=C(C([H])([H])[N+]([H])([H])C([H])([H])C([H])([H])Oc2c([H])c([H])c3c(c2[H])C([H])([H])N(C(=O)C([H])(N([H])C(=O)C([H])(N([H])C([H])([H])[H])C([H])([H])[H])C(C([H])([H])[H])(C([H])([H])[H])C([H])([H])[H])C([H])(C(=O)N([H])C2([H])c4c([H])c([H])c([H])c([H])c4C([H])([H])C([H])([H])C2([H])[H])C3([H])[H])C([H])([H])N(C(=O)N2C([H])([H])C([H])([H])C([H])([H])C([H])(n3nc(-c4c([H])c([H])c(Oc5c([H])c([H])c(F)c([H])c5F)c([H])c4[H])c(C(=O)N([H])[H])c3N([H])[H])C2([H])[H])C1([H])[H]

>  <smiles>  (22) 
[H]C1=C(C([H])([H])[N+]([H])([H])C([H])([H])C([H])([H])Oc2c([H])c([H])c3c(c2[H])C([H])([H])N(C(=O)C([H])(N([H])C(=O)C([H])(N([H])C([H])([H])[H])C([H])([H])[H])C(C([H])([H])[H])(C([H])([H])[H])C([H])([H])[H])C([H])(C(=O)N([H])C2([H])c4c([H])c([H])c([H])c([H])c4C([H])([H])C([H])([H])C2([H])[H])C3([H])[H])C([H])([H])N(C(=O)N2C([H])([H])C([H])([H])C([H])([H])C([H])(n3nc(-c4c([H])c([H])c(Oc5c([H])c([H])c(F)c([H])c5F)c([H])c4[H])c(C(=O)N([H])[H])c3N([H])[H])C2([H])[H])C1([H])[H]

$$$$
22:0:0
     RDKit          3D

 93101  0  0  1  0  0  0  0  0999 V2000
  -30.2200  -24.1300   20.5390 C   0  0  0  0  0  3  0  0  0  0  0  0
  -29.0030  -24.0470   19.9610 C   0  0  0  0  0  0  0  0  0  0  0  0
  -31.0310  -22.9130   20.8190 C   0  0  0  0  0  0  0  0  0  0  0  0
  -28.3950  -22.7060   19.5490 C   0  0  0  0  0  2  0  0  0  0  0  0
  -29.4230  -21.5720   19.4160 C   0  0  0  0  0  2  0  0  0  0  0  0
  -30.3860  -21.5100   20.6120 C   0  0  0  0  0  3  0  0  0  0  0  0
  -32.1850  -23.0030   21.2470 O   0  0  0  0  0  0  0  0  0  0  0  0
  -28.0400  -25.2030   19.6700 C   0  0  0  0  0  2  0  0  0  0  0  0
  -28.2920  -26.5540   20.1390 O   0  0  0  0  0  0  0  0  0  0  0  0
  -24.6020  -31.8810   23.2440 C   0  0  0  0  0  0  0  0  0  0  0  0
  -27.1610  -27.3790   20.1140 C   0  0  0  0  0  0  0  0  0  0  0  0
  -23.3720  -30.4990   21.6110 C   0  0  0  0  0  3  0  0  0  0  0  0
  -24.7950  -28.9680   20.1630 C   0  0  0  0  0  0  0  0  0  0  0  0
  -25.9090  -30.8150   21.4040 C   0  0  0  0  0  2  0  0  0  0  0  0
  -25.9720  -29.4480   20.7500 C   0  0  0  0  0  0  0  0  0  0  0  0
  -27.1570  -28.6610   20.7280 C   0  0  0  0  0  3  0  0  0  0  0  0
  -25.9520  -26.9570   19.4940 C   0  0  0  0  0  3  0  0  0  0  0  0
  -24.7820  -27.7210   19.5330 C   0  0  0  0  0  3  0  0  0  0  0  0
  -23.5640  -29.8410   20.2240 C   0  0  0  0  0  2  0  0  0  0  0  0
  -24.6460  -31.0800   22.1430 N   0  0  0  0  0  0  0  0  0  0  0  0
  -23.5260  -32.1620   23.7910 O   0  0  0  0  0  0  0  0  0  0  0  0
  -22.7190  -29.4730   22.5680 C   0  0  0  0  0  0  0  0  0  0  0  0
  -21.3930  -29.2960   22.4480 N   0  0  0  0  0  0  0  0  0  0  0  0
  -23.4030  -28.8420   23.3780 O   0  0  0  0  0  0  0  0  0  0  0  0
  -20.9020  -29.8580   21.7660 H   0  0  0  0  0  0  0  0  0  0  0  0
  -18.0140  -28.1140   22.9610 C   0  0  0  0  0  0  0  0  0  0  0  0
  -20.5740  -28.3630   23.2220 C   0  0  0  0  0  3  0  0  0  0  0  0
  -20.6690  -26.9300   22.6510 C   0  0  0  0  0  2  0  0  0  0  0  0
  -19.5630  -26.6090   21.6420 C   0  0  0  0  0  2  0  0  0  0  0  0
  -18.1830  -26.7620   22.2900 C   0  0  0  0  0  2  0  0  0  0  0  0
  -19.1370  -28.8730   23.3850 C   0  0  0  0  0  0  0  0  0  0  0  0
  -18.9250  -30.1400   23.9720 C   0  0  0  0  0  3  0  0  0  0  0  0
  -17.6220  -30.6460   24.1400 C   0  0  0  0  0  3  0  0  0  0  0  0
  -16.5140  -29.8830   23.7320 C   0  0  0  0  0  3  0  0  0  0  0  0
  -16.7110  -28.6200   23.1490 C   0  0  0  0  0  3  0  0  0  0  0  0
  -25.8980  -32.5010   23.8510 C   0  0  0  0  0  3  0  0  0  0  0  0
  -25.5990  -33.8970   24.1940 N   0  0  0  0  0  0  0  0  0  0  0  0
  -25.9160  -34.9520   23.4330 C   0  0  0  0  0  0  0  0  0  0  0  0
  -26.5650  -34.8520   22.3870 O   0  0  0  0  0  0  0  0  0  0  0  0
  -25.0250  -34.0500   25.0100 H   0  0  0  0  0  0  0  0  0  0  0  0
  -24.1800  -36.7430   23.1240 C   0  0  0  0  0  1  0  0  0  0  0  0
  -25.4400  -36.3370   23.9070 C   0  0  0  0  0  3  0  0  0  0  0  0
  -27.5930  -37.2150   24.6910 C   0  0  0  0  0  1  0  0  0  0  0  0
  -26.4700  -37.3910   23.7750 N   0  0  0  0  0  0  0  0  0  0  0  0
  -26.0670  -38.3090   23.9400 H   0  0  0  0  0  0  0  0  0  0  0  0
  -26.4290  -31.7160   25.1130 C   0  0  1  0  0  0  0  0  0  0  0  0
  -25.3500  -31.4730   26.1940 C   0  0  0  0  0  1  0  0  0  0  0  0
  -27.0010  -30.3400   24.7020 C   0  0  0  0  0  1  0  0  0  0  0  0
  -27.5910  -32.5010   25.7660 C   0  0  0  0  0  1  0  0  0  0  0  0
  -31.3870  -20.3090   20.4650 C   0  0  0  0  0  2  0  0  0  0  0  0
  -31.1240  -19.1480   21.3670 N   0  0  0  0  0  4  0  0  0  0  0  0
  -30.5700  -19.4410   22.1540 H   0  0  0  0  0  0  0  0  0  0  0  0
  -32.0240  -18.8830   21.7330 H   0  0  0  0  0  0  0  0  0  0  0  0
  -30.5410  -17.9150   20.7600 C   0  0  0  0  0  2  0  0  0  0  0  0
  -30.7020  -16.6800   21.6970 C   0  0  0  0  0  2  0  0  0  0  0  0
  -30.6930  -14.4690   20.4750 C   0  0  0  0  0  0  0  0  0  0  0  0
  -30.3590  -12.3410   19.2580 C   0  0  0  0  0  2  0  0  0  0  0  0
  -29.4050  -12.5380   18.0640 C   0  0  0  0  0  2  0  0  0  0  0  0
  -27.9350  -12.3960   18.5060 C   0  0  0  0  0  2  0  0  0  0  0  0
  -27.6060  -13.2270   19.7760 C   0  0  0  0  0  3  0  0  0  0  0  0
  -28.6710  -13.0020   20.8730 C   0  0  0  0  0  2  0  0  0  0  0  0
  -29.9910  -13.3160   20.2980 N   0  0  0  0  0  0  0  0  0  0  0  0
  -31.7870  -14.6790   19.9460 O   0  0  0  0  0  0  0  0  0  0  0  0
  -30.0980  -15.4190   21.2200 N   0  0  0  0  0  0  0  0  0  0  0  0
  -29.1830  -15.1870   21.5780 H   0  0  0  0  0  0  0  0  0  0  0  0
  -25.2070  -13.8270   20.4890 C   0  0  0  0  0  0  0  0  0  0  0  0
  -24.1420  -13.0520   20.8650 C   0  0  0  0  0  0  0  0  0  0  0  0
  -24.6090  -11.7020   20.8400 C   0  0  0  0  0  0  0  0  0  0  0  0
  -26.2550  -12.9490   20.2610 N   0  0  0  0  0  0  0  0  0  0  0  0
  -25.8990  -11.6660   20.5290 N   0  0  0  0  0  0  0  0  0  0  0  0
  -23.8880  -10.4380   21.0380 C   0  0  0  0  0  0  0  0  0  0  0  0
  -24.3340   -9.4700   21.9650 C   0  0  0  0  0  3  0  0  0  0  0  0
  -23.6120   -8.2710   22.1520 C   0  0  0  0  0  3  0  0  0  0  0  0
  -22.4310   -8.0300   21.4100 C   0  0  0  0  0  0  0  0  0  0  0  0
  -22.0040   -8.9880   20.4740 C   0  0  0  0  0  3  0  0  0  0  0  0
  -22.7250  -10.1780   20.2850 C   0  0  0  0  0  3  0  0  0  0  0  0
  -21.6820   -6.8830   21.5060 O   0  0  0  0  0  0  0  0  0  0  0  0
  -21.6600   -6.1300   22.6520 C   0  0  0  0  0  0  0  0  0  0  0  0
  -21.2660   -6.6760   23.8940 C   0  0  0  0  0  3  0  0  0  0  0  0
  -21.1910   -5.8490   25.0330 C   0  0  0  0  0  3  0  0  0  0  0  0
  -21.5010   -4.4810   24.9330 C   0  0  0  0  0  0  0  0  0  0  0  0
  -21.8880   -3.9340   23.6960 C   0  0  0  0  0  3  0  0  0  0  0  0
  -21.9660   -4.7570   22.5590 C   0  0  0  0  0  0  0  0  0  0  0  0
  -22.3180   -4.2220   21.3660 F   0  0  0  0  0  0  0  0  0  0  0  0
  -21.4220   -3.6850   26.0260 F   0  0  0  0  0  0  0  0  0  0  0  0
  -22.7450  -13.5260   21.1400 C   0  0  0  0  0  0  0  0  0  0  0  0
  -22.0210  -12.8300   22.0110 N   0  0  0  0  0  0  0  0  0  0  0  0
  -22.3000  -14.5470   20.6180 O   0  0  0  0  0  0  0  0  0  0  0  0
  -22.3920  -12.0040   22.4550 H   0  0  0  0  0  0  0  0  0  0  0  0
  -21.0830  -13.1290   22.2350 H   0  0  0  0  0  0  0  0  0  0  0  0
  -25.3670  -15.1970   20.3040 N   0  0  0  0  0  0  0  0  0  0  0  0
  -24.5990  -15.8510   20.4080 H   0  0  0  0  0  0  0  0  0  0  0  0
  -26.2160  -15.6330   19.9660 H   0  0  0  0  0  0  0  0  0  0  0  0
  1  3  1  0
  2  1  2  0
  3  7  2  0
  4  2  1  0
  5  4  1  0
  5  6  1  0
  6 50  1  0
  6  3  1  0
  8  2  1  0
  8  9  1  0
 10 21  2  0
 11  9  1  0
 11 16  1  0
 12 20  1  0
 12 22  1  0
 13 19  1  0
 13 15  1  0
 14 20  1  0
 15 14  1  0
 16 15  2  0
 17 18  1  0
 17 11  2  0
 18 13  2  0
 19 12  1  0
 20 10  1  0
 22 24  2  0
 23 22  1  0
 25 23  1  0
 26 35  2  0
 26 31  1  0
 27 23  1  0
 27 31  1  0
 28 27  1  0
 29 30  1  0
 29 28  1  0
 30 26  1  0
 31 32  2  0
 32 33  1  0
 34 33  2  0
 35 34  1  0
 36 10  1  0
 36 37  1  0
 36 46  1  0
 37 40  1  0
 38 42  1  0
 38 37  1  0
 39 38  2  0
 42 41  1  0
 44 42  1  0
 44 45  1  0
 44 43  1  0
 46 49  1  1
 46 47  1  0
 48 46  1  0
 50 51  1  0
 51 53  1  0
 51 52  1  0
 54 51  1  0
 54 55  1  0
 56 64  1  0
 57 62  1  0
 58 59  1  0
 58 57  1  0
 60 59  1  0
 60 69  1  0
 60 61  1  0
 62 56  1  0
 62 61  1  0
 63 56  2  0
 64 65  1  0
 64 55  1  0
 66 67  2  0
 67 86  1  0
 68 67  1  0
 68 71  1  0
 69 66  1  0
 69 70  1  0
 70 68  2  0
 71 72  1  0
 72 73  2  0
 74 77  1  0
 74 73  1  0
 75 74  2  0
 76 75  1  0
 76 71  2  0
 77 78  1  0
 78 79  1  0
 79 80  2  0
 81 80  1  0
 81 85  1  0
 82 81  2  0
 83 78  2  0
 83 82  1  0
 84 83  1  0
 86 87  1  0
 87 90  1  0
 87 89  1  0
 88 86  2  0
 91 92  1  0
 91 66  1  0
 93 91  1  0
M  ISO  4   8 101   9 101  56 100  64 100
M  END
>  <TORSDO>  (23) 
F 21

>  <SCORE>  (23) 
-13.241

>  <name>  (23) 
22

>  <ligand_id>  (23) 
22

>  <original_smiles>  (23) 
[H]C1=C(C([H])([H])Oc2c([H])c([H])c3c(c2[H])C([H])([H])N(C(=O)C([H])(N([H])C(=O)C([H])(N([H])C([H])([H])[H])C([H])([H])[H])C(C([H])([H])[H])(C([H])([H])[H])C([H])([H])[H])C([H])(C(=O)N([H])C2([H])c4c([H])c([H])c([H])c([H])c4C([H])([H])C([H])([H])C2([H])[H])C3([H])[H])C([H])([H])C([H])([H])C([H])(C([H])([H])[N+]([H])([H])C([H])([H])C([H])([H])N([H])C(=O)N2C([H])([H])C([H])([H])C([H])([H])C([H])(n3nc(-c4c([H])c([H])c(Oc5c([H])c([H])c(F)c([H])c5F)c([H])c4[H])c(C(=O)N([H])[H])c3N([H])[H])C2([H])[H])C1=O

>  <smiles>  (23) 
[H]C1=C(C([H])([H])Oc2c([H])c([H])c3c(c2[H])C([H])([H])N(C(=O)C([H])(N([H])C(=O)C([H])(N([H])C([H])([H])[H])C([H])([H])[H])C(C([H])([H])[H])(C([H])([H])[H])C([H])([H])[H])C([H])(C(=O)N([H])C2([H])c4c([H])c([H])c([H])c([H])c4C([H])([H])C([H])([H])C2([H])[H])C3([H])[H])C([H])([H])C([H])([H])C([H])(C([H])([H])[N+]([H])([H])C([H])([H])C([H])([H])N([H])C(=O)N2C([H])([H])C([H])([H])C([H])([H])C([H])(n3nc(-c4c([H])c([H])c(Oc5c([H])c([H])c(F)c([H])c5F)c([H])c4[H])c(C(=O)N([H])[H])c3N([H])[H])C2([H])[H])C1=O

$$$$
23:0:0
     RDKit          3D

 92101  0  0  1  0  0  0  0  0999 V2000
  -30.0380  -21.7990   20.8540 C   0  0  0  0  0  2  0  0  0  0  0  0
  -30.4670  -17.9470   19.5300 C   0  0  0  0  0  0  0  0  0  0  0  0
  -30.1490  -17.8440   21.8300 C   0  0  0  0  0  2  0  0  0  0  0  0
  -30.7490  -19.3610   19.9850 C   0  0  0  0  0  3  0  0  0  0  0  0
  -30.7330  -16.9770   20.6920 C   0  0  0  0  0  3  0  0  0  0  0  0
  -30.5510  -19.2850   21.4780 C   0  0  0  0  0  3  0  0  0  0  0  0
  -29.7310  -20.2850   20.6550 C   0  0  0  0  0  3  0  0  0  0  0  0
  -30.0910  -17.6430   18.3950 O   0  0  0  0  0  0  0  0  0  0  0  0
  -30.7550  -14.5600   20.0210 C   0  0  0  0  0  0  0  0  0  0  0  0
  -30.3760  -12.3800   18.9180 C   0  0  0  0  0  2  0  0  0  0  0  0
  -29.3650  -12.5550   17.7660 C   0  0  0  0  0  2  0  0  0  0  0  0
  -27.9220  -12.4150   18.2880 C   0  0  0  0  0  2  0  0  0  0  0  0
  -27.6560  -13.2730   19.5540 C   0  0  0  0  0  3  0  0  0  0  0  0
  -28.7770  -13.0920   20.6000 C   0  0  0  0  0  2  0  0  0  0  0  0
  -30.0580  -13.3900   19.9430 N   0  0  0  0  0  0  0  0  0  0  0  0
  -31.8700  -14.6900   19.5100 O   0  0  0  0  0  0  0  0  0  0  0  0
  -30.1240  -15.6260   20.5650 N   0  0  0  0  0  0  0  0  0  0  0  0
  -29.1850  -15.4930   20.9090 H   0  0  0  0  0  0  0  0  0  0  0  0
  -25.3260  -13.8900   20.4500 C   0  0  0  0  0  0  0  0  0  0  0  0
  -24.2710  -13.1220   20.8630 C   0  0  0  0  0  0  0  0  0  0  0  0
  -24.7020  -11.7640   20.7540 C   0  0  0  0  0  0  0  0  0  0  0  0
  -26.3360  -13.0010   20.1160 N   0  0  0  0  0  0  0  0  0  0  0  0
  -25.9680  -11.7160   20.3580 N   0  0  0  0  0  0  0  0  0  0  0  0
  -23.9650  -10.5090   20.9460 C   0  0  0  0  0  0  0  0  0  0  0  0
  -24.3940   -9.5360   21.8750 C   0  0  0  0  0  3  0  0  0  0  0  0
  -23.6590   -8.3450   22.0540 C   0  0  0  0  0  3  0  0  0  0  0  0
  -22.4790   -8.1180   21.3050 C   0  0  0  0  0  0  0  0  0  0  0  0
  -22.0700   -9.0800   20.3650 C   0  0  0  0  0  3  0  0  0  0  0  0
  -22.8070  -10.2620   20.1840 C   0  0  0  0  0  3  0  0  0  0  0  0
  -21.7150   -6.9800   21.3960 O   0  0  0  0  0  0  0  0  0  0  0  0
  -21.6030   -6.2800   22.5700 C   0  0  0  0  0  0  0  0  0  0  0  0
  -21.0600   -6.8620   23.7360 C   0  0  0  0  0  3  0  0  0  0  0  0
  -20.8990   -6.0850   24.9020 C   0  0  0  0  0  3  0  0  0  0  0  0
  -21.2710   -4.7270   24.9000 C   0  0  0  0  0  0  0  0  0  0  0  0
  -21.8060   -4.1450   23.7380 C   0  0  0  0  0  3  0  0  0  0  0  0
  -21.9690   -4.9180   22.5750 C   0  0  0  0  0  0  0  0  0  0  0  0
  -22.4660   -4.3470   21.4520 F   0  0  0  0  0  0  0  0  0  0  0  0
  -21.1080   -3.9790   26.0160 F   0  0  0  0  0  0  0  0  0  0  0  0
  -22.9040  -13.6130   21.2450 C   0  0  0  0  0  0  0  0  0  0  0  0
  -22.2250  -12.9000   22.1370 N   0  0  0  0  0  0  0  0  0  0  0  0
  -22.4500  -14.6610   20.7880 O   0  0  0  0  0  0  0  0  0  0  0  0
  -22.6040  -12.0520   22.5280 H   0  0  0  0  0  0  0  0  0  0  0  0
  -21.3100  -13.2100   22.4360 H   0  0  0  0  0  0  0  0  0  0  0  0
  -25.5050  -15.2630   20.3090 N   0  0  0  0  0  0  0  0  0  0  0  0
  -24.7560  -15.9250   20.4810 H   0  0  0  0  0  0  0  0  0  0  0  0
  -26.3310  -15.6940   19.9120 H   0  0  0  0  0  0  0  0  0  0  0  0
  -29.0760  -22.7770   20.2540 N   0  0  0  0  0  4  0  0  0  0  0  0
  -29.0780  -22.6470   19.2540 H   0  0  0  0  0  0  0  0  0  0  0  0
  -28.1550  -22.5380   20.5870 H   0  0  0  0  0  0  0  0  0  0  0  0
  -29.3450  -24.2310   20.5610 C   0  0  0  0  0  2  0  0  0  0  0  0
  -28.2500  -25.2090   20.0210 C   0  0  0  0  0  2  0  0  0  0  0  0
  -28.4110  -26.6250   20.3430 O   0  0  0  0  0  0  0  0  0  0  0  0
  -24.6380  -31.9330   23.3290 C   0  0  0  0  0  0  0  0  0  0  0  0
  -27.2700  -27.4240   20.2780 C   0  0  0  0  0  0  0  0  0  0  0  0
  -23.4420  -30.5380   21.6780 C   0  0  0  0  0  3  0  0  0  0  0  0
  -24.8980  -28.9970   20.2610 C   0  0  0  0  0  0  0  0  0  0  0  0
  -25.9780  -30.8670   21.5110 C   0  0  0  0  0  2  0  0  0  0  0  0
  -26.0590  -29.4950   20.8640 C   0  0  0  0  0  0  0  0  0  0  0  0
  -27.2470  -28.7170   20.8690 C   0  0  0  0  0  3  0  0  0  0  0  0
  -26.0860  -26.9700   19.6470 C   0  0  0  0  0  3  0  0  0  0  0  0
  -24.9090  -27.7380   19.6470 C   0  0  0  0  0  3  0  0  0  0  0  0
  -23.6600  -29.8660   20.2990 C   0  0  0  0  0  2  0  0  0  0  0  0
  -24.7040  -31.1280   22.2300 N   0  0  0  0  0  0  0  0  0  0  0  0
  -23.5520  -32.2110   23.8580 O   0  0  0  0  0  0  0  0  0  0  0  0
  -22.7740  -29.5190   22.6300 C   0  0  0  0  0  0  0  0  0  0  0  0
  -21.4520  -29.3310   22.4810 N   0  0  0  0  0  0  0  0  0  0  0  0
  -23.4440  -28.9010   23.4620 O   0  0  0  0  0  0  0  0  0  0  0  0
  -20.9730  -29.8830   21.7830 H   0  0  0  0  0  0  0  0  0  0  0  0
  -18.0680  -28.1460   22.9430 C   0  0  0  0  0  0  0  0  0  0  0  0
  -20.6240  -28.3950   23.2420 C   0  0  0  0  0  3  0  0  0  0  0  0
  -20.7280  -26.9630   22.6660 C   0  0  0  0  0  2  0  0  0  0  0  0
  -19.6360  -26.6460   21.6400 C   0  0  0  0  0  2  0  0  0  0  0  0
  -18.2470  -26.7950   22.2700 C   0  0  0  0  0  2  0  0  0  0  0  0
  -19.1850  -28.9030   23.3850 C   0  0  0  0  0  0  0  0  0  0  0  0
  -18.9640  -30.1670   23.9740 C   0  0  0  0  0  3  0  0  0  0  0  0
  -17.6590  -30.6720   24.1270 C   0  0  0  0  0  3  0  0  0  0  0  0
  -16.5570  -29.9110   23.7020 C   0  0  0  0  0  3  0  0  0  0  0  0
  -16.7620  -28.6510   23.1140 C   0  0  0  0  0  3  0  0  0  0  0  0
  -25.9190  -32.5590   23.9600 C   0  0  0  0  0  3  0  0  0  0  0  0
  -26.4200  -31.7900   25.2440 C   0  0  1  0  0  0  0  0  0  0  0  0
  -25.3130  -31.5510   26.2960 C   0  0  0  0  0  1  0  0  0  0  0  0
  -27.0110  -30.4140   24.8600 C   0  0  0  0  0  1  0  0  0  0  0  0
  -27.5590  -32.5880   25.9200 C   0  0  0  0  0  1  0  0  0  0  0  0
  -25.6150  -33.9610   24.2810 N   0  0  0  0  0  0  0  0  0  0  0  0
  -25.9240  -35.0040   23.4990 C   0  0  0  0  0  0  0  0  0  0  0  0
  -26.5660  -34.8890   22.4510 O   0  0  0  0  0  0  0  0  0  0  0  0
  -25.0430  -34.1240   25.0960 H   0  0  0  0  0  0  0  0  0  0  0  0
  -24.1670  -36.7760   23.1850 C   0  0  0  0  0  1  0  0  0  0  0  0
  -25.4440  -36.3960   23.9520 C   0  0  0  0  0  3  0  0  0  0  0  0
  -27.5950  -37.3210   24.6890 C   0  0  0  0  0  1  0  0  0  0  0  0
  -26.4620  -37.4550   23.7780 N   0  0  0  0  0  0  0  0  0  0  0  0
  -26.0520  -38.3750   23.9150 H   0  0  0  0  0  0  0  0  0  0  0  0
  2  5  1  0
  4  2  1  0
  4  7  1  0
  4  6  1  0
  5 17  1  0
  5  3  1  0
  6  3  1  0
  7  1  1  0
  7  6  1  0
  8  2  2  0
  9 17  1  0
 10 15  1  0
 11 12  1  0
 11 10  1  0
 13 12  1  0
 13 22  1  0
 13 14  1  0
 15  9  1  0
 15 14  1  0
 16  9  2  0
 17 18  1  0
 19 20  2  0
 20 39  1  0
 21 20  1  0
 21 24  1  0
 22 23  1  0
 22 19  1  0
 23 21  2  0
 24 25  1  0
 25 26  2  0
 27 30  1  0
 27 26  1  0
 28 27  2  0
 29 28  1  0
 29 24  2  0
 30 31  1  0
 31 36  2  0
 31 32  1  0
 32 33  2  0
 34 33  1  0
 34 38  1  0
 35 34  2  0
 36 35  1  0
 37 36  1  0
 39 40  1  0
 40 43  1  0
 40 42  1  0
 41 39  2  0
 44 19  1  0
 44 45  1  0
 46 44  1  0
 47 50  1  0
 47 49  1  0
 47  1  1  0
 48 47  1  0
 51 52  1  0
 51 50  1  0
 53 64  2  0
 54 52  1  0
 54 59  1  0
 55 63  1  0
 55 65  1  0
 56 62  1  0
 56 58  1  0
 57 63  1  0
 58 59  2  0
 58 57  1  0
 60 61  1  0
 60 54  2  0
 61 56  2  0
 62 55  1  0
 63 53  1  0
 65 67  2  0
 66 65  1  0
 68 66  1  0
 69 78  2  0
 69 74  1  0
 70 66  1  0
 70 74  1  0
 71 70  1  0
 72 73  1  0
 72 71  1  0
 73 69  1  0
 74 75  2  0
 75 76  1  0
 77 76  2  0
 78 77  1  0
 79 53  1  0
 79 84  1  0
 79 80  1  0
 80 83  1  1
 80 81  1  0
 82 80  1  0
 84 87  1  0
 85 89  1  0
 85 84  1  0
 86 85  2  0
 89 88  1  0
 91 92  1  0
 91 89  1  0
 91 90  1  0
M  ISO  4   9 100  17 100  51 101  52 101
M  END
>  <TORSDO>  (24) 
F 20

>  <SCORE>  (24) 
-13.563

>  <name>  (24) 
23

>  <ligand_id>  (24) 
23

>  <original_smiles>  (24) 
[H]c1c([H])c([H])c2c(c1[H])C([H])([H])C([H])([H])C([H])([H])C2([H])N([H])C(=O)C1([H])N(C(=O)C([H])(N([H])C(=O)C([H])(N([H])C([H])([H])[H])C([H])([H])[H])C(C([H])([H])[H])(C([H])([H])[H])C([H])([H])[H])C([H])([H])c2c([H])c(OC([H])([H])C([H])([H])[N+]([H])([H])C([H])([H])C3([H])C4([H])C(=O)C([H])(N([H])C(=O)N5C([H])([H])C([H])([H])C([H])([H])C([H])(n6nc(-c7c([H])c([H])c(Oc8c([H])c([H])c(F)c([H])c8F)c([H])c7[H])c(C(=O)N([H])[H])c6N([H])[H])C5([H])[H])C([H])([H])C43[H])c([H])c([H])c2C1([H])[H]

>  <smiles>  (24) 
[H]c1c([H])c([H])c2c(c1[H])C([H])([H])C([H])([H])C([H])([H])C2([H])N([H])C(=O)C1([H])N(C(=O)C([H])(N([H])C(=O)C([H])(N([H])C([H])([H])[H])C([H])([H])[H])C(C([H])([H])[H])(C([H])([H])[H])C([H])([H])[H])C([H])([H])c2c([H])c(OC([H])([H])C([H])([H])[N+]([H])([H])C([H])([H])C3([H])C4([H])C(=O)C([H])(N([H])C(=O)N5C([H])([H])C([H])([H])C([H])([H])C([H])(n6nc(-c7c([H])c([H])c(Oc8c([H])c([H])c(F)c([H])c8F)c([H])c7[H])c(C(=O)N([H])[H])c6N([H])[H])C5([H])[H])C([H])([H])C43[H])c([H])c([H])c2C1([H])[H]

$$$$
24:0:0
     RDKit          3D

 86 95  0  0  1  0  0  0  0  0999 V2000
  -29.9740  -21.8710   19.2870 C   0  0  0  0  0  2  0  0  0  0  0  0
  -30.0980  -19.1420   18.8740 C   0  0  0  0  0  2  0  0  0  0  0  0
  -29.3310  -20.5050   18.9000 C   0  0  0  0  0  3  0  0  0  0  0  0
  -28.7370  -20.3150   20.2940 C   0  0  0  0  0  3  0  0  0  0  0  0
  -28.9140  -22.2080   20.3580 C   0  0  0  0  0  3  0  0  0  0  0  0
  -29.7460  -18.7140   20.3120 C   0  0  0  0  0  3  0  0  0  0  0  0
  -30.2490  -15.6130   20.2780 C   0  0  0  0  0  0  0  0  0  0  0  0
  -30.3280  -13.0880   19.4510 C   0  0  0  0  0  2  0  0  0  0  0  0
  -29.4390  -12.7200   18.2320 C   0  0  0  0  0  2  0  0  0  0  0  0
  -28.0070  -12.3850   18.6730 C   0  0  0  0  0  2  0  0  0  0  0  0
  -27.4970  -13.3770   19.7460 C   0  0  0  0  0  3  0  0  0  0  0  0
  -28.5260  -13.6570   20.8650 C   0  0  0  0  0  2  0  0  0  0  0  0
  -29.7110  -14.2610   20.2150 N   0  0  0  0  0  0  0  0  0  0  0  0
  -31.4790  -15.5550   20.0940 O   0  0  0  0  0  0  0  0  0  0  0  0
  -29.5020  -16.9660   20.3560 N   0  0  0  0  0  0  0  0  0  0  0  0
  -28.5200  -16.7670   20.4770 H   0  0  0  0  0  0  0  0  0  0  0  0
  -25.1250  -13.9010   20.4950 C   0  0  0  0  0  0  0  0  0  0  0  0
  -24.0700  -13.1160   20.8630 C   0  0  0  0  0  0  0  0  0  0  0  0
  -24.5500  -11.7700   20.8370 C   0  0  0  0  0  0  0  0  0  0  0  0
  -26.1770  -13.0360   20.2580 N   0  0  0  0  0  0  0  0  0  0  0  0
  -25.8450  -11.7470   20.5330 N   0  0  0  0  0  0  0  0  0  0  0  0
  -23.8280  -10.5030   21.0260 C   0  0  0  0  0  0  0  0  0  0  0  0
  -24.2550   -9.5390   21.9650 C   0  0  0  0  0  3  0  0  0  0  0  0
  -23.5280   -8.3420   22.1440 C   0  0  0  0  0  3  0  0  0  0  0  0
  -22.3600   -8.0990   21.3830 C   0  0  0  0  0  0  0  0  0  0  0  0
  -21.9540   -9.0510   20.4310 C   0  0  0  0  0  3  0  0  0  0  0  0
  -22.6800  -10.2390   20.2510 C   0  0  0  0  0  3  0  0  0  0  0  0
  -21.6090   -6.9510   21.4700 O   0  0  0  0  0  0  0  0  0  0  0  0
  -21.5520   -6.2140   22.6250 C   0  0  0  0  0  0  0  0  0  0  0  0
  -21.0970   -6.7660   23.8420 C   0  0  0  0  0  3  0  0  0  0  0  0
  -20.9900   -5.9540   24.9880 C   0  0  0  0  0  3  0  0  0  0  0  0
  -21.3260   -4.5890   24.9170 C   0  0  0  0  0  0  0  0  0  0  0  0
  -21.7750   -4.0350   23.7050 C   0  0  0  0  0  3  0  0  0  0  0  0
  -21.8840   -4.8440   22.5620 C   0  0  0  0  0  0  0  0  0  0  0  0
  -22.2950   -4.3010   21.3910 F   0  0  0  0  0  0  0  0  0  0  0  0
  -21.2160   -3.8060   26.0160 F   0  0  0  0  0  0  0  0  0  0  0  0
  -22.6670  -13.5850   21.1150 C   0  0  0  0  0  0  0  0  0  0  0  0
  -21.9360  -12.8980   21.9840 N   0  0  0  0  0  0  0  0  0  0  0  0
  -22.2270  -14.6000   20.5740 O   0  0  0  0  0  0  0  0  0  0  0  0
  -22.3040  -12.0820   22.4500 H   0  0  0  0  0  0  0  0  0  0  0  0
  -20.9910  -13.1930   22.1890 H   0  0  0  0  0  0  0  0  0  0  0  0
  -25.2730  -15.2730   20.3070 N   0  0  0  0  0  0  0  0  0  0  0  0
  -24.4850  -15.9070   20.3890 H   0  0  0  0  0  0  0  0  0  0  0  0
  -26.0940  -15.7090   19.9090 H   0  0  0  0  0  0  0  0  0  0  0  0
  -27.9590  -23.8750   20.1490 C   0  0  0  0  0  2  0  0  0  0  0  0
  -28.1520  -25.6050   20.3000 O   0  0  0  0  0  0  0  0  0  0  0  0
  -24.6530  -31.8530   23.2200 C   0  0  0  0  0  0  0  0  0  0  0  0
  -27.1760  -26.8010   20.2340 C   0  0  0  0  0  0  0  0  0  0  0  0
  -23.4660  -30.4660   21.5710 C   0  0  0  0  0  3  0  0  0  0  0  0
  -24.9140  -28.8210   20.1600 C   0  0  0  0  0  0  0  0  0  0  0  0
  -26.0440  -30.6090   21.4610 C   0  0  0  0  0  2  0  0  0  0  0  0
  -26.1050  -29.1800   20.8010 C   0  0  0  0  0  0  0  0  0  0  0  0
  -27.2220  -28.1970   20.8060 C   0  0  0  0  0  3  0  0  0  0  0  0
  -25.9500  -26.6420   19.5400 C   0  0  0  0  0  3  0  0  0  0  0  0
  -24.8730  -27.5760   19.5060 C   0  0  0  0  0  3  0  0  0  0  0  0
  -23.7100  -29.7740   20.1980 C   0  0  0  0  0  2  0  0  0  0  0  0
  -24.7440  -31.0080   22.1370 N   0  0  0  0  0  0  0  0  0  0  0  0
  -23.5580  -32.1590   23.7230 O   0  0  0  0  0  0  0  0  0  0  0  0
  -22.7400  -29.4900   22.5350 C   0  0  0  0  0  0  0  0  0  0  0  0
  -21.4050  -29.3540   22.4090 N   0  0  0  0  0  0  0  0  0  0  0  0
  -23.3880  -28.8530   23.3680 O   0  0  0  0  0  0  0  0  0  0  0  0
  -20.9330  -29.9200   21.7180 H   0  0  0  0  0  0  0  0  0  0  0  0
  -18.0020  -28.1910   22.9180 C   0  0  0  0  0  0  0  0  0  0  0  0
  -20.5660  -28.4230   23.1740 C   0  0  0  0  0  3  0  0  0  0  0  0
  -20.6460  -26.9930   22.5890 C   0  0  0  0  0  2  0  0  0  0  0  0
  -19.5380  -26.6950   21.5740 C   0  0  0  0  0  2  0  0  0  0  0  0
  -18.1600  -26.8480   22.2240 C   0  0  0  0  0  2  0  0  0  0  0  0
  -19.1310  -28.9370   23.3490 C   0  0  0  0  0  0  0  0  0  0  0  0
  -18.9260  -30.1920   23.9640 C   0  0  0  0  0  3  0  0  0  0  0  0
  -17.6250  -30.7000   24.1480 C   0  0  0  0  0  3  0  0  0  0  0  0
  -16.5110  -29.9520   23.7280 C   0  0  0  0  0  3  0  0  0  0  0  0
  -16.7010  -28.6970   23.1190 C   0  0  0  0  0  3  0  0  0  0  0  0
  -25.9170  -32.4930   23.8700 C   0  0  0  0  0  3  0  0  0  0  0  0
  -25.6010  -33.8940   24.2100 N   0  0  0  0  0  0  0  0  0  0  0  0
  -25.9310  -34.9620   23.4700 C   0  0  0  0  0  0  0  0  0  0  0  0
  -26.5920  -34.8700   22.4320 O   0  0  0  0  0  0  0  0  0  0  0  0
  -25.0110  -34.0380   25.0160 H   0  0  0  0  0  0  0  0  0  0  0  0
  -24.1990  -36.7700   23.1770 C   0  0  0  0  0  1  0  0  0  0  0  0
  -25.4590  -36.3510   23.9530 C   0  0  0  0  0  3  0  0  0  0  0  0
  -27.6110  -37.2320   24.7430 C   0  0  0  0  0  1  0  0  0  0  0  0
  -26.4900  -37.4040   23.8250 N   0  0  0  0  0  0  0  0  0  0  0  0
  -26.0850  -38.3240   23.9840 H   0  0  0  0  0  0  0  0  0  0  0  0
  -26.3990  -31.7250   25.1640 C   0  0  1  0  0  0  0  0  0  0  0  0
  -25.2840  -31.5070   26.2150 C   0  0  0  0  0  1  0  0  0  0  0  0
  -26.9750  -30.3370   24.8020 C   0  0  0  0  0  1  0  0  0  0  0  0
  -27.5440  -32.5130   25.8430 C   0  0  0  0  0  1  0  0  0  0  0  0
  1  5  1  0
  2  6  1  0
  3  2  1  0
  3  1  1  0
  3  4  1  0
  4  6  1  0
  4  5  1  0
  6 15  1  0
  7 15  1  0
  8 13  1  0
  9 10  1  0
  9  8  1  0
 10 11  1  0
 11 20  1  0
 11 12  1  0
 13  7  1  0
 13 12  1  0
 14  7  2  0
 15 16  1  0
 17 18  2  0
 18 37  1  0
 19 18  1  0
 19 22  1  0
 20 17  1  0
 20 21  1  0
 21 19  2  0
 22 23  1  0
 23 24  2  0
 25 28  1  0
 25 24  1  0
 26 25  2  0
 27 26  1  0
 27 22  2  0
 28 29  1  0
 29 30  1  0
 30 31  2  0
 32 31  1  0
 32 36  1  0
 33 32  2  0
 34 29  2  0
 34 33  1  0
 35 34  1  0
 37 38  1  0
 38 41  1  0
 38 40  1  0
 39 37  2  0
 42 43  1  0
 42 17  1  0
 44 42  1  0
 45 46  1  0
 45  5  1  0
 47 58  2  0
 47 73  1  0
 48 46  1  0
 48 53  1  0
 49 57  1  0
 49 59  1  0
 50 56  1  0
 50 52  1  0
 51 57  1  0
 52 53  2  0
 52 51  1  0
 54 48  2  0
 55 54  1  0
 55 50  2  0
 56 49  1  0
 57 47  1  0
 59 61  2  0
 60 59  1  0
 60 64  1  0
 62 60  1  0
 63 72  2  0
 63 68  1  0
 64 68  1  0
 65 64  1  0
 66 67  1  0
 66 65  1  0
 67 63  1  0
 68 69  2  0
 69 70  1  0
 71 70  2  0
 72 71  1  0
 73 74  1  0
 73 83  1  0
 74 77  1  0
 75 79  1  0
 75 74  1  0
 76 75  2  0
 78 79  1  0
 81 79  1  0
 81 82  1  0
 81 80  1  0
 83 86  1  1
 83 84  1  0
 85 83  1  0
M  ISO  4   7 100  15 100  45 101  46 101
M  END
>  <TORSDO>  (25) 
F 17

>  <SCORE>  (25) 
-16.428

>  <name>  (25) 
24

>  <ligand_id>  (25) 
24

>  <original_smiles>  (25) 
[H]c1c([H])c([H])c2c(c1[H])C([H])([H])C([H])([H])C([H])([H])C2([H])N([H])C(=O)C1([H])N(C(=O)C([H])(N([H])C(=O)C([H])(N([H])C([H])([H])[H])C([H])([H])[H])C(C([H])([H])[H])(C([H])([H])[H])C([H])([H])[H])C([H])([H])c2c([H])c(OC([H])([H])C3([H])C([H])([H])C4([H])C([H])([H])C([H])(N([H])C(=O)N5C([H])([H])C([H])([H])C([H])([H])C([H])(n6nc(-c7c([H])c([H])c(Oc8c([H])c([H])c(F)c([H])c8F)c([H])c7[H])c(C(=O)N([H])[H])c6N([H])[H])C5([H])[H])C34[H])c([H])c([H])c2C1([H])[H]

>  <smiles>  (25) 
[H]c1c([H])c([H])c2c(c1[H])C([H])([H])C([H])([H])C([H])([H])C2([H])N([H])C(=O)C1([H])N(C(=O)C([H])(N([H])C(=O)C([H])(N([H])C([H])([H])[H])C([H])([H])[H])C(C([H])([H])[H])(C([H])([H])[H])C([H])([H])[H])C([H])([H])c2c([H])c(OC([H])([H])C3([H])C([H])([H])C4([H])C([H])([H])C([H])(N([H])C(=O)N5C([H])([H])C([H])([H])C([H])([H])C([H])(n6nc(-c7c([H])c([H])c(Oc8c([H])c([H])c(F)c([H])c8F)c([H])c7[H])c(C(=O)N([H])[H])c6N([H])[H])C5([H])[H])C34[H])c([H])c([H])c2C1([H])[H]

$$$$
25:0:0
     RDKit          3D

 86 94  0  0  1  0  0  0  0  0999 V2000
  -29.2280  -18.3900   19.8480 C   0  0  0  0  0  3  0  0  0  0  0  0
  -27.7360  -18.5980   19.7980 C   0  0  0  0  0  0  0  0  0  0  0  0
  -27.3520  -19.7110   18.8220 C   0  0  0  0  0  2  0  0  0  0  0  0
  -28.6700  -20.3220   18.3260 C   0  0  0  0  0  2  0  0  0  0  0  0
  -29.5750  -20.2560   19.5550 C   0  0  0  0  0  3  0  0  0  0  0  0
  -29.5100  -16.9160   19.9420 N   0  0  0  0  0  2  0  0  0  0  0  0
  -26.8890  -17.9160   20.3850 O   0  0  0  0  0  0  0  0  0  0  0  0
  -30.4450  -15.5900   19.9230 C   0  0  0  0  0  0  0  0  0  0  0  0
  -30.6710  -12.9330   19.6530 C   0  0  0  0  0  2  0  0  0  0  0  0
  -29.8560  -12.3130   18.4790 C   0  0  0  0  0  2  0  0  0  0  0  0
  -28.4080  -12.0170   18.9030 C   0  0  0  0  0  2  0  0  0  0  0  0
  -27.8250  -13.1840   19.7310 C   0  0  0  0  0  3  0  0  0  0  0  0
  -28.7810  -13.7080   20.8270 C   0  0  0  0  0  2  0  0  0  0  0  0
  -30.0020  -14.2160   20.1600 N   0  0  0  0  0  0  0  0  0  0  0  0
  -31.6610  -15.5480   19.6690 O   0  0  0  0  0  0  0  0  0  0  0  0
  -25.4800  -13.8330   20.4600 C   0  0  0  0  0  0  0  0  0  0  0  0
  -24.3810  -13.1070   20.8220 C   0  0  0  0  0  0  0  0  0  0  0  0
  -24.7890  -11.7370   20.8130 C   0  0  0  0  0  0  0  0  0  0  0  0
  -26.4860  -12.9120   20.2350 N   0  0  0  0  0  0  0  0  0  0  0  0
  -26.0830  -11.6440   20.5160 N   0  0  0  0  0  0  0  0  0  0  0  0
  -24.0010  -10.5120   21.0100 C   0  0  0  0  0  0  0  0  0  0  0  0
  -24.3940   -9.5170   21.9330 C   0  0  0  0  0  3  0  0  0  0  0  0
  -23.6060   -8.3610   22.1200 C   0  0  0  0  0  3  0  0  0  0  0  0
  -22.4090   -8.1900   21.3840 C   0  0  0  0  0  0  0  0  0  0  0  0
  -22.0340   -9.1720   20.4500 C   0  0  0  0  0  3  0  0  0  0  0  0
  -22.8220  -10.3190   20.2610 C   0  0  0  0  0  3  0  0  0  0  0  0
  -21.5950   -7.0880   21.4800 O   0  0  0  0  0  0  0  0  0  0  0  0
  -21.5490   -6.3230   22.6190 C   0  0  0  0  0  0  0  0  0  0  0  0
  -21.1750   -6.8680   23.8670 C   0  0  0  0  0  3  0  0  0  0  0  0
  -21.0730   -6.0330   24.9970 C   0  0  0  0  0  3  0  0  0  0  0  0
  -21.3350   -4.6550   24.8810 C   0  0  0  0  0  0  0  0  0  0  0  0
  -21.7020   -4.1100   23.6380 C   0  0  0  0  0  3  0  0  0  0  0  0
  -21.8050   -4.9420   22.5100 C   0  0  0  0  0  0  0  0  0  0  0  0
  -22.1380   -4.4070   21.3100 F   0  0  0  0  0  0  0  0  0  0  0  0
  -21.2300   -3.8510   25.9650 F   0  0  0  0  0  0  0  0  0  0  0  0
  -23.0040  -13.6500   21.0660 C   0  0  0  0  0  0  0  0  0  0  0  0
  -22.2420  -13.0160   21.9500 N   0  0  0  0  0  0  0  0  0  0  0  0
  -22.6150  -14.6750   20.5070 O   0  0  0  0  0  0  0  0  0  0  0  0
  -22.5720  -12.1890   22.4250 H   0  0  0  0  0  0  0  0  0  0  0  0
  -21.3170  -13.3650   22.1570 H   0  0  0  0  0  0  0  0  0  0  0  0
  -25.7080  -15.1920   20.2720 N   0  0  0  0  0  0  0  0  0  0  0  0
  -24.9880  -15.8920   20.4160 H   0  0  0  0  0  0  0  0  0  0  0  0
  -26.6100  -15.5860   20.0400 H   0  0  0  0  0  0  0  0  0  0  0  0
  -29.1100  -22.0180   20.2500 C   0  0  0  0  0  2  0  0  0  0  0  0
  -28.5560  -23.7940   19.6560 C   0  0  0  0  0  2  0  0  0  0  0  0
  -28.4930  -25.4950   20.1220 O   0  0  0  0  0  0  0  0  0  0  0  0
  -24.5890  -31.5500   22.9890 C   0  0  0  0  0  0  0  0  0  0  0  0
  -27.4760  -26.6660   20.0010 C   0  0  0  0  0  0  0  0  0  0  0  0
  -23.5420  -30.1470   21.2610 C   0  0  0  0  0  3  0  0  0  0  0  0
  -25.1250  -28.5990   19.8800 C   0  0  0  0  0  0  0  0  0  0  0  0
  -26.1140  -30.4010   21.2710 C   0  0  0  0  0  2  0  0  0  0  0  0
  -26.2700  -28.9900   20.5830 C   0  0  0  0  0  0  0  0  0  0  0  0
  -27.4270  -28.0500   20.6150 C   0  0  0  0  0  3  0  0  0  0  0  0
  -26.2940  -26.4870   19.2380 C   0  0  0  0  0  3  0  0  0  0  0  0
  -25.1760  -27.3770   19.1860 C   0  0  0  0  0  3  0  0  0  0  0  0
  -23.8770  -29.4960   19.8880 C   0  0  0  0  0  2  0  0  0  0  0  0
  -24.7680  -30.7330   21.8950 N   0  0  0  0  0  0  0  0  0  0  0  0
  -23.4620  -31.7920   23.4530 O   0  0  0  0  0  0  0  0  0  0  0  0
  -22.8220  -29.1170   22.1740 C   0  0  0  0  0  0  0  0  0  0  0  0
  -21.4880  -28.9780   22.0430 N   0  0  0  0  0  0  0  0  0  0  0  0
  -23.4760  -28.4420   22.9730 O   0  0  0  0  0  0  0  0  0  0  0  0
  -21.0100  -29.5730   21.3800 H   0  0  0  0  0  0  0  0  0  0  0  0
  -18.0810  -27.8410   22.5880 C   0  0  0  0  0  0  0  0  0  0  0  0
  -20.6580  -28.0020   22.7590 C   0  0  0  0  0  3  0  0  0  0  0  0
  -20.6820  -26.6270   22.0510 C   0  0  0  0  0  2  0  0  0  0  0  0
  -19.5300  -26.4380   21.0600 C   0  0  0  0  0  2  0  0  0  0  0  0
  -18.1820  -26.5610   21.7750 C   0  0  0  0  0  2  0  0  0  0  0  0
  -19.2420  -28.5250   23.0360 C   0  0  0  0  0  0  0  0  0  0  0  0
  -19.0890  -29.7250   23.7650 C   0  0  0  0  0  3  0  0  0  0  0  0
  -17.8090  -30.2400   24.0430 C   0  0  0  0  0  3  0  0  0  0  0  0
  -16.6630  -29.5540   23.6060 C   0  0  0  0  0  3  0  0  0  0  0  0
  -16.8000  -28.3540   22.8850 C   0  0  0  0  0  3  0  0  0  0  0  0
  -25.7930  -32.2360   23.7060 C   0  0  0  0  0  3  0  0  0  0  0  0
  -25.4060  -33.6220   24.0320 N   0  0  0  0  0  0  0  0  0  0  0  0
  -25.7610  -34.7090   23.3330 C   0  0  0  0  0  0  0  0  0  0  0  0
  -26.5050  -34.6510   22.3500 O   0  0  0  0  0  0  0  0  0  0  0  0
  -24.7500  -33.7380   24.7900 H   0  0  0  0  0  0  0  0  0  0  0  0
  -24.0060  -36.4700   22.9160 C   0  0  0  0  0  1  0  0  0  0  0  0
  -25.2070  -36.0760   23.7910 C   0  0  0  0  0  3  0  0  0  0  0  0
  -27.2530  -37.0140   24.7760 C   0  0  0  0  0  1  0  0  0  0  0  0
  -26.2130  -37.1610   23.7630 N   0  0  0  0  0  0  0  0  0  0  0  0
  -25.7690  -38.0670   23.8940 H   0  0  0  0  0  0  0  0  0  0  0  0
  -26.2380  -31.4820   25.0220 C   0  0  1  0  0  0  0  0  0  0  0  0
  -25.0800  -31.2200   26.0140 C   0  0  0  0  0  1  0  0  0  0  0  0
  -26.8830  -30.1180   24.6900 C   0  0  0  0  0  1  0  0  0  0  0  0
  -27.3200  -32.3080   25.7570 C   0  0  0  0  0  1  0  0  0  0  0  0
  1  6  1  0
  2  1  1  0
  2  7  2  0
  3  2  1  0
  4  3  1  0
  4  5  1  0
  5  1  1  0
  5 44  1  0
  8  6  1  0
  8 14  1  0
  9 14  1  0
 10 11  1  0
 10  9  1  0
 12 11  1  0
 12 19  1  0
 12 13  1  0
 14 13  1  0
 15  8  2  0
 16 17  2  0
 17 36  1  0
 18 17  1  0
 18 21  1  0
 19 16  1  0
 19 20  1  0
 20 18  2  0
 21 22  1  0
 22 23  2  0
 24 27  1  0
 24 23  1  0
 25 24  2  0
 26 25  1  0
 26 21  2  0
 27 28  1  0
 28 29  1  0
 29 30  2  0
 31 30  1  0
 31 35  1  0
 32 31  2  0
 33 28  2  0
 33 32  1  0
 34 33  1  0
 36 37  1  0
 37 40  1  0
 37 39  1  0
 38 36  2  0
 41 42  1  0
 41 16  1  0
 43 41  1  0
 45 46  1  0
 45 44  1  0
 47 58  2  0
 48 46  1  0
 48 53  1  0
 49 57  1  0
 49 59  1  0
 50 56  1  0
 50 52  1  0
 51 57  1  0
 52 53  2  0
 52 51  1  0
 54 48  2  0
 55 54  1  0
 55 50  2  0
 56 49  1  0
 57 47  1  0
 59 61  2  0
 60 59  1  0
 62 60  1  0
 63 72  2  0
 63 68  1  0
 64 60  1  0
 64 68  1  0
 65 64  1  0
 66 67  1  0
 66 65  1  0
 67 63  1  0
 68 69  2  0
 69 70  1  0
 71 70  2  0
 72 71  1  0
 73 47  1  0
 73 74  1  0
 73 83  1  0
 74 77  1  0
 75 79  1  0
 75 74  1  0
 76 75  2  0
 79 78  1  0
 81 79  1  0
 81 82  1  0
 81 80  1  0
 83 86  1  1
 83 84  1  0
 85 83  1  0
M  ISO  4   6 100   8 100  45 101  46 101
M  END
>  <TORSDO>  (26) 
F 18

>  <SCORE>  (26) 
-15.570

>  <name>  (26) 
25

>  <ligand_id>  (26) 
25

>  <original_smiles>  (26) 
[H]c1c([H])c([H])c2c(c1[H])C([H])([H])C([H])([H])C([H])([H])C2([H])N([H])C(=O)C1([H])N(C(=O)C([H])(N([H])C(=O)C([H])(N([H])C([H])([H])[H])C([H])([H])[H])C(C([H])([H])[H])(C([H])([H])[H])C([H])([H])[H])C([H])([H])c2c([H])c(OC([H])([H])C([H])([H])C3([H])C(=NC(=O)N4C([H])([H])C([H])([H])C([H])([H])C([H])(n5nc(-c6c([H])c([H])c(Oc7c([H])c([H])c(F)c([H])c7F)c([H])c6[H])c(C(=O)N([H])[H])c5N([H])[H])C4([H])[H])C(=O)C([H])([H])C3([H])[H])c([H])c([H])c2C1([H])[H]

>  <smiles>  (26) 
[H]c1c([H])c([H])c2c(c1[H])C([H])([H])C([H])([H])C([H])([H])C2([H])N([H])C(=O)C1([H])N(C(=O)C([H])(N([H])C(=O)C([H])(N([H])C([H])([H])[H])C([H])([H])[H])C(C([H])([H])[H])(C([H])([H])[H])C([H])([H])[H])C([H])([H])c2c([H])c(OC([H])([H])C([H])([H])C3([H])C(=NC(=O)N4C([H])([H])C([H])([H])C([H])([H])C([H])(n5nc(-c6c([H])c([H])c(Oc7c([H])c([H])c(F)c([H])c7F)c([H])c6[H])c(C(=O)N([H])[H])c5N([H])[H])C4([H])[H])C(=O)C([H])([H])C3([H])[H])c([H])c([H])c2C1([H])[H]

$$$$
26:0:0
     RDKit          3D

 90 99  0  0  1  0  0  0  0  0999 V2000
  -30.1840  -21.8100   20.7200 C   0  0  0  0  0  3  0  0  0  0  0  0
  -28.1580  -21.2730   19.5830 C   0  0  0  0  0  3  0  0  0  0  0  0
  -29.9000  -23.2140   20.5930 C   0  0  0  0  0  3  0  0  0  0  0  0
  -27.8720  -22.6780   19.4600 C   0  0  0  0  0  3  0  0  0  0  0  0
  -29.3500  -20.7780   20.1860 C   0  0  0  0  0  0  0  0  0  0  0  0
  -28.7440  -23.7110   19.9250 C   0  0  0  0  0  0  0  0  0  0  0  0
  -30.7420  -14.8140   20.0410 C   0  0  0  0  0  0  0  0  0  0  0  0
  -30.4540  -12.5510   19.0250 C   0  0  0  0  0  2  0  0  0  0  0  0
  -29.4630  -12.6320   17.8460 C   0  0  0  0  0  2  0  0  0  0  0  0
  -28.0200  -12.4480   18.3490 C   0  0  0  0  0  2  0  0  0  0  0  0
  -27.7010  -13.3280   19.5900 C   0  0  0  0  0  3  0  0  0  0  0  0
  -28.8140  -13.2640   20.6560 C   0  0  0  0  0  2  0  0  0  0  0  0
  -30.0710  -13.6120   19.9860 N   0  0  0  0  0  0  0  0  0  0  0  0
  -31.9260  -14.8500   19.6910 O   0  0  0  0  0  0  0  0  0  0  0  0
  -29.5540  -18.3270   21.4100 C   0  0  0  0  0  2  0  0  0  0  0  0
  -29.3370  -18.3260   19.0090 C   0  0  0  0  0  2  0  0  0  0  0  0
  -30.2310  -16.8810   21.3580 C   0  0  0  0  0  2  0  0  0  0  0  0
  -30.0510  -16.9120   18.9410 C   0  0  0  0  0  2  0  0  0  0  0  0
  -29.8180  -19.2370   20.1730 C   0  0  0  0  0  3  0  0  0  0  0  0
  -30.0310  -16.0200   20.1480 N   0  0  0  0  0  0  0  0  0  0  0  0
  -25.3600  -13.8900   20.4660 C   0  0  0  0  0  0  0  0  0  0  0  0
  -24.3150  -13.1040   20.8680 C   0  0  0  0  0  0  0  0  0  0  0  0
  -24.7750  -11.7560   20.7760 C   0  0  0  0  0  0  0  0  0  0  0  0
  -26.3880  -13.0190   20.1470 N   0  0  0  0  0  0  0  0  0  0  0  0
  -26.0490  -11.7290   20.3990 N   0  0  0  0  0  0  0  0  0  0  0  0
  -24.0580  -10.4870   20.9680 C   0  0  0  0  0  0  0  0  0  0  0  0
  -24.5040   -9.5190   21.8950 C   0  0  0  0  0  3  0  0  0  0  0  0
  -23.7850   -8.3170   22.0760 C   0  0  0  0  0  3  0  0  0  0  0  0
  -22.6070   -8.0760   21.3320 C   0  0  0  0  0  0  0  0  0  0  0  0
  -22.1800   -9.0320   20.3940 C   0  0  0  0  0  3  0  0  0  0  0  0
  -22.8990  -10.2250   20.2100 C   0  0  0  0  0  3  0  0  0  0  0  0
  -21.8590   -6.9260   21.4220 O   0  0  0  0  0  0  0  0  0  0  0  0
  -21.7770   -6.2110   22.5900 C   0  0  0  0  0  0  0  0  0  0  0  0
  -21.2660   -6.7800   23.7770 C   0  0  0  0  0  3  0  0  0  0  0  0
  -21.1320   -5.9900   24.9360 C   0  0  0  0  0  3  0  0  0  0  0  0
  -21.5020   -4.6320   24.9100 C   0  0  0  0  0  0  0  0  0  0  0  0
  -22.0070   -4.0620   23.7270 C   0  0  0  0  0  3  0  0  0  0  0  0
  -22.1410   -4.8490   22.5710 C   0  0  0  0  0  0  0  0  0  0  0  0
  -22.6080   -4.2910   21.4280 F   0  0  0  0  0  0  0  0  0  0  0  0
  -21.3670   -3.8710   26.0200 F   0  0  0  0  0  0  0  0  0  0  0  0
  -22.9340  -13.5730   21.2250 C   0  0  0  0  0  0  0  0  0  0  0  0
  -22.2470  -12.8470   22.1000 N   0  0  0  0  0  0  0  0  0  0  0  0
  -22.4730  -14.6160   20.7630 O   0  0  0  0  0  0  0  0  0  0  0  0
  -22.6330  -12.0030   22.4970 H   0  0  0  0  0  0  0  0  0  0  0  0
  -21.3210  -13.1400   22.3790 H   0  0  0  0  0  0  0  0  0  0  0  0
  -25.5170  -15.2660   20.3210 N   0  0  0  0  0  0  0  0  0  0  0  0
  -24.7630  -15.9210   20.5020 H   0  0  0  0  0  0  0  0  0  0  0  0
  -26.3630  -15.7140   19.9930 H   0  0  0  0  0  0  0  0  0  0  0  0
  -28.5730  -25.2300   19.4350 C   0  0  0  0  0  2  0  0  0  0  0  0
  -28.3860  -26.4310   20.3140 O   0  0  0  0  0  0  0  0  0  0  0  0
  -24.6430  -31.9260   23.2190 C   0  0  0  0  0  0  0  0  0  0  0  0
  -27.2730  -27.3050   20.2080 C   0  0  0  0  0  0  0  0  0  0  0  0
  -23.4490  -30.5080   21.5910 C   0  0  0  0  0  3  0  0  0  0  0  0
  -24.9080  -28.9480   20.1770 C   0  0  0  0  0  0  0  0  0  0  0  0
  -25.9920  -30.8230   21.4120 C   0  0  0  0  0  2  0  0  0  0  0  0
  -26.0770  -29.4350   20.7740 C   0  0  0  0  0  0  0  0  0  0  0  0
  -27.2580  -28.6240   20.7820 C   0  0  0  0  0  3  0  0  0  0  0  0
  -26.0700  -26.8810   19.5990 C   0  0  0  0  0  3  0  0  0  0  0  0
  -24.9100  -27.6790   19.5820 C   0  0  0  0  0  3  0  0  0  0  0  0
  -23.6710  -29.8240   20.2170 C   0  0  0  0  0  2  0  0  0  0  0  0
  -24.7150  -31.1040   22.1300 N   0  0  0  0  0  0  0  0  0  0  0  0
  -23.5570  -32.2040   23.7480 O   0  0  0  0  0  0  0  0  0  0  0  0
  -22.7890  -29.4970   22.5600 C   0  0  0  0  0  0  0  0  0  0  0  0
  -21.4610  -29.3180   22.4390 N   0  0  0  0  0  0  0  0  0  0  0  0
  -23.4680  -28.8770   23.3820 O   0  0  0  0  0  0  0  0  0  0  0  0
  -20.9700  -29.8690   21.7490 H   0  0  0  0  0  0  0  0  0  0  0  0
  -18.0850  -28.1290   22.9670 C   0  0  0  0  0  0  0  0  0  0  0  0
  -20.6450  -28.3850   23.2200 C   0  0  0  0  0  3  0  0  0  0  0  0
  -20.7400  -26.9510   22.6510 C   0  0  0  0  0  2  0  0  0  0  0  0
  -19.6310  -26.6260   21.6440 C   0  0  0  0  0  2  0  0  0  0  0  0
  -18.2540  -26.7770   22.2960 C   0  0  0  0  0  2  0  0  0  0  0  0
  -19.2080  -28.8910   23.3870 C   0  0  0  0  0  0  0  0  0  0  0  0
  -18.9940  -30.1560   23.9780 C   0  0  0  0  0  3  0  0  0  0  0  0
  -17.6920  -30.6590   24.1500 C   0  0  0  0  0  3  0  0  0  0  0  0
  -16.5830  -29.8950   23.7460 C   0  0  0  0  0  3  0  0  0  0  0  0
  -16.7800  -28.6310   23.1610 C   0  0  0  0  0  3  0  0  0  0  0  0
  -25.9200  -32.5720   23.8380 C   0  0  0  0  0  3  0  0  0  0  0  0
  -25.5970  -33.9690   24.1700 N   0  0  0  0  0  0  0  0  0  0  0  0
  -25.9180  -35.0260   23.4120 C   0  0  0  0  0  0  0  0  0  0  0  0
  -26.5870  -34.9300   22.3800 O   0  0  0  0  0  0  0  0  0  0  0  0
  -25.0020  -34.1170   24.9720 H   0  0  0  0  0  0  0  0  0  0  0  0
  -24.1840  -36.8120   23.0530 C   0  0  0  0  0  1  0  0  0  0  0  0
  -25.4200  -36.4100   23.8730 C   0  0  0  0  0  3  0  0  0  0  0  0
  -27.5390  -37.3060   24.7320 C   0  0  0  0  0  1  0  0  0  0  0  0
  -26.4470  -37.4690   23.7750 N   0  0  0  0  0  0  0  0  0  0  0  0
  -26.0340  -38.3860   23.9190 H   0  0  0  0  0  0  0  0  0  0  0  0
  -26.4450  -31.8090   25.1150 C   0  0  1  0  0  0  0  0  0  0  0  0
  -25.3560  -31.5600   26.1840 C   0  0  0  0  0  1  0  0  0  0  0  0
  -27.0440  -30.4380   24.7250 C   0  0  0  0  0  1  0  0  0  0  0  0
  -27.5870  -32.6170   25.7770 C   0  0  0  0  0  1  0  0  0  0  0  0
  2  5  1  0
  3  1  1  0
  4  2  2  0
  4  6  1  0
  5  1  2  0
  6  3  2  0
  7 20  1  0
  8 13  1  0
  9 10  1  0
  9  8  1  0
 11 10  1  0
 11 24  1  0
 11 12  1  0
 13  7  1  0
 13 12  1  0
 14  7  2  0
 16 19  1  0
 17 15  1  0
 18 16  1  0
 18 20  1  0
 19  5  1  0
 19 15  1  0
 20 17  1  0
 21 22  2  0
 22 41  1  0
 23 22  1  0
 23 26  1  0
 24 25  1  0
 24 21  1  0
 25 23  2  0
 26 27  1  0
 27 28  2  0
 29 32  1  0
 29 28  1  0
 30 29  2  0
 31 30  1  0
 31 26  2  0
 32 33  1  0
 33 34  1  0
 34 35  2  0
 36 35  1  0
 36 40  1  0
 37 36  2  0
 38 33  2  0
 38 37  1  0
 39 38  1  0
 41 42  1  0
 42 45  1  0
 42 44  1  0
 43 41  2  0
 46 21  1  0
 46 47  1  0
 48 46  1  0
 49  6  1  0
 49 50  1  0
 51 62  2  0
 52 50  1  0
 52 57  1  0
 53 61  1  0
 53 63  1  0
 54 60  1  0
 54 56  1  0
 55 61  1  0
 56 57  2  0
 56 55  1  0
 58 52  2  0
 59 58  1  0
 59 54  2  0
 60 53  1  0
 61 51  1  0
 63 65  2  0
 64 63  1  0
 66 64  1  0
 67 76  2  0
 67 72  1  0
 68 64  1  0
 68 72  1  0
 69 68  1  0
 70 71  1  0
 70 69  1  0
 71 67  1  0
 72 73  2  0
 73 74  1  0
 75 74  2  0
 76 75  1  0
 77 51  1  0
 77 78  1  0
 77 87  1  0
 78 81  1  0
 79 83  1  0
 79 78  1  0
 80 79  2  0
 83 82  1  0
 85 83  1  0
 85 86  1  0
 85 84  1  0
 87 90  1  1
 87 88  1  0
 89 87  1  0
M  ISO  4   7 100  20 100  49 101  50 101
M  END
>  <TORSDO>  (27) 
F 17

>  <SCORE>  (27) 
-14.780

>  <name>  (27) 
26

>  <ligand_id>  (27) 
26

>  <original_smiles>  (27) 
[H]c1c([H])c([H])c2c(c1[H])C([H])([H])C([H])([H])C([H])([H])C2([H])N([H])C(=O)C1([H])N(C(=O)C([H])(N([H])C(=O)C([H])(N([H])C([H])([H])[H])C([H])([H])[H])C(C([H])([H])[H])(C([H])([H])[H])C([H])([H])[H])C([H])([H])c2c([H])c(OC([H])([H])c3c([H])c([H])c(C4([H])C([H])([H])C([H])([H])N(C(=O)N5C([H])([H])C([H])([H])C([H])([H])C([H])(n6nc(-c7c([H])c([H])c(Oc8c([H])c([H])c(F)c([H])c8F)c([H])c7[H])c(C(=O)N([H])[H])c6N([H])[H])C5([H])[H])C([H])([H])C4([H])[H])c([H])c3[H])c([H])c([H])c2C1([H])[H]

>  <smiles>  (27) 
[H]c1c([H])c([H])c2c(c1[H])C([H])([H])C([H])([H])C([H])([H])C2([H])N([H])C(=O)C1([H])N(C(=O)C([H])(N([H])C(=O)C([H])(N([H])C([H])([H])[H])C([H])([H])[H])C(C([H])([H])[H])(C([H])([H])[H])C([H])([H])[H])C([H])([H])c2c([H])c(OC([H])([H])c3c([H])c([H])c(C4([H])C([H])([H])C([H])([H])N(C(=O)N5C([H])([H])C([H])([H])C([H])([H])C([H])(n6nc(-c7c([H])c([H])c(Oc8c([H])c([H])c(F)c([H])c8F)c([H])c7[H])c(C(=O)N([H])[H])c6N([H])[H])C5([H])[H])C([H])([H])C4([H])[H])c([H])c3[H])c([H])c([H])c2C1([H])[H]

$$$$
27:0:0
     RDKit          3D

 90 93  0  0  1  0  0  0  0  0999 V2000
  -29.6690  -16.1890   19.9930 C   0  0  0  0  0  0  0  0  0  0  0  0
  -30.2470  -13.5260   19.3700 C   0  0  0  0  0  2  0  0  0  0  0  0
  -29.4610  -12.7790   18.2500 C   0  0  0  0  0  2  0  0  0  0  0  0
  -28.0910  -12.3080   18.7590 C   0  0  0  0  0  2  0  0  0  0  0  0
  -27.4770  -13.3560   19.7090 C   0  0  0  0  0  3  0  0  0  0  0  0
  -28.4500  -13.8790   20.7760 C   0  0  0  0  0  2  0  0  0  0  0  0
  -29.4100  -14.6950   19.9970 N   0  0  0  0  0  0  0  0  0  0  0  0
  -30.9400  -16.1410   19.9950 O   0  0  0  0  0  0  0  0  0  0  0  0
  -27.6750  -19.8270   18.2150 C   0  0  0  0  0  2  0  0  0  0  0  0
  -28.1360  -22.3610   19.2320 C   0  0  0  0  0  2  0  0  0  0  0  0
  -28.6870  -18.4490   18.4250 C   0  0  0  0  0  2  0  0  0  0  0  0
  -28.0340  -19.2100   20.2690 C   0  0  0  0  0  1  0  0  0  0  0  0
  -27.3200  -23.7700   18.6430 C   0  0  0  0  0  2  0  0  0  0  0  0
  -25.9020  -22.3190   19.4470 C   0  0  0  0  0  1  0  0  0  0  0  0
  -27.3640  -20.9110   19.4040 C   0  0  0  0  0  2  0  0  0  0  0  0
  -28.7270  -17.6010   19.7190 N   0  0  0  0  0  0  0  0  0  0  0  0
  -25.9400  -24.1300   19.2810 N   0  0  0  0  0  0  0  0  0  0  0  0
  -26.1710  -24.3600   20.2350 H   0  0  0  0  0  0  0  0  0  0  0  0
  -25.1620  -13.8930   20.5140 C   0  0  0  0  0  0  0  0  0  0  0  0
  -24.1040  -13.1150   20.8780 C   0  0  0  0  0  0  0  0  0  0  0  0
  -24.5720  -11.7650   20.8510 C   0  0  0  0  0  0  0  0  0  0  0  0
  -26.1920  -13.0110   20.2590 N   0  0  0  0  0  0  0  0  0  0  0  0
  -25.8630  -11.7270   20.5390 N   0  0  0  0  0  0  0  0  0  0  0  0
  -23.8440  -10.5060   21.0390 C   0  0  0  0  0  0  0  0  0  0  0  0
  -24.2700   -9.5390   21.9760 C   0  0  0  0  0  3  0  0  0  0  0  0
  -23.5360   -8.3470   22.1530 C   0  0  0  0  0  3  0  0  0  0  0  0
  -22.3640   -8.1150   21.3950 C   0  0  0  0  0  0  0  0  0  0  0  0
  -21.9550   -9.0740   20.4520 C   0  0  0  0  0  3  0  0  0  0  0  0
  -22.6890  -10.2570   20.2720 C   0  0  0  0  0  3  0  0  0  0  0  0
  -21.6060   -6.9750   21.4820 O   0  0  0  0  0  0  0  0  0  0  0  0
  -21.5560   -6.2280   22.6310 C   0  0  0  0  0  0  0  0  0  0  0  0
  -21.1630   -6.7890   23.8660 C   0  0  0  0  0  3  0  0  0  0  0  0
  -21.0650   -5.9720   25.0100 C   0  0  0  0  0  3  0  0  0  0  0  0
  -21.3440   -4.5950   24.9180 C   0  0  0  0  0  0  0  0  0  0  0  0
  -21.7290   -4.0340   23.6880 C   0  0  0  0  0  3  0  0  0  0  0  0
  -21.8310   -4.8480   22.5480 C   0  0  0  0  0  0  0  0  0  0  0  0
  -22.1840   -4.2990   21.3600 F   0  0  0  0  0  0  0  0  0  0  0  0
  -21.2370   -3.8090   26.0150 F   0  0  0  0  0  0  0  0  0  0  0  0
  -22.7080  -13.6030   21.1170 C   0  0  0  0  0  0  0  0  0  0  0  0
  -21.9640  -12.9270   21.9820 N   0  0  0  0  0  0  0  0  0  0  0  0
  -22.2860  -14.6240   20.5740 O   0  0  0  0  0  0  0  0  0  0  0  0
  -22.3170  -12.1060   22.4510 H   0  0  0  0  0  0  0  0  0  0  0  0
  -21.0250  -13.2430   22.1810 H   0  0  0  0  0  0  0  0  0  0  0  0
  -25.3220  -15.2640   20.3350 N   0  0  0  0  0  0  0  0  0  0  0  0
  -24.5440  -15.9000   20.4650 H   0  0  0  0  0  0  0  0  0  0  0  0
  -26.1590  -15.7200   19.9940 H   0  0  0  0  0  0  0  0  0  0  0  0
  -24.8310  -25.7770   18.9290 C   0  0  0  0  0 15  0  0  0  0  0  0
  -24.3860  -28.0050   19.4720 C   0  0  0  0  0 15  0  0  0  0  0  0
  -25.7160  -28.6560   22.5670 C   0  0  0  0  0  1  0  0  0  0  0  0
  -27.2310  -27.8950   22.5400 O   0  0  0  0  0  0  0  0  0  0  0  0
  -24.4200  -31.5070   22.9390 C   0  0  0  0  0  0  0  0  0  0  0  0
  -27.8640  -27.4270   21.3650 C   0  0  0  0  0  3  0  0  0  0  0  0
  -23.3370  -29.3480   21.7540 C   0  0  0  0  0  3  0  0  0  0  0  0
  -25.5190  -26.9470   21.2400 C   0  0  0  0  0  2  0  0  0  0  0  0
  -25.5090  -30.0790   20.6490 C   0  0  0  0  0  2  0  0  0  0  0  0
  -26.2080  -28.3950   20.4130 C   0  0  0  0  0  3  0  0  0  0  0  0
  -27.5620  -28.3990   20.4740 C   0  0  0  0  0  2  0  0  0  0  0  0
  -27.4000  -26.1340   21.0000 C   0  0  0  0  0  2  0  0  0  0  0  0
  -26.1470  -25.8850   21.4670 C   0  0  0  0  0  2  0  0  0  0  0  0
  -23.7560  -27.5780   21.9230 C   0  0  0  0  0  1  0  0  0  0  0  0
  -24.4030  -30.5440   21.8040 N   0  0  0  0  0  0  0  0  0  0  0  0
  -23.3520  -31.8920   23.4640 O   0  0  0  0  0  0  0  0  0  0  0  0
  -22.3910  -29.3050   22.9090 C   0  0  0  0  0  0  0  0  0  0  0  0
  -21.1050  -29.2180   22.6050 N   0  0  0  0  0  0  0  0  0  0  0  0
  -22.8650  -29.0420   24.0120 O   0  0  0  0  0  0  0  0  0  0  0  0
  -20.8210  -29.4510   21.6650 H   0  0  0  0  0  0  0  0  0  0  0  0
  -17.6910  -28.2450   22.9270 C   0  0  0  0  0  0  0  0  0  0  0  0
  -20.2000  -28.3990   23.3990 C   0  0  0  0  0  3  0  0  0  0  0  0
  -20.2670  -26.9190   22.9600 C   0  0  0  0  0  2  0  0  0  0  0  0
  -19.2770  -26.5960   21.8400 C   0  0  0  0  0  2  0  0  0  0  0  0
  -17.8470  -26.8510   22.3290 C   0  0  0  0  0  2  0  0  0  0  0  0
  -18.8090  -28.9790   23.3970 C   0  0  0  0  0  0  0  0  0  0  0  0
  -18.6410  -30.2850   23.8970 C   0  0  0  0  0  3  0  0  0  0  0  0
  -17.3670  -30.8670   23.9440 C   0  0  0  0  0  3  0  0  0  0  0  0
  -16.2510  -30.1390   23.5020 C   0  0  0  0  0  3  0  0  0  0  0  0
  -16.4100  -28.8320   23.0050 C   0  0  0  0  0  3  0  0  0  0  0  0
  -25.6480  -32.2420   23.7360 C   0  0  0  0  0  3  0  0  0  0  0  0
  -25.2890  -33.6850   24.0100 N   0  0  0  0  0  0  0  0  0  0  0  0
  -25.7760  -34.7760   23.4020 C   0  0  0  0  0  0  0  0  0  0  0  0
  -26.5750  -34.6870   22.4740 O   0  0  0  0  0  0  0  0  0  0  0  0
  -24.5930  -33.8150   24.7290 H   0  0  0  0  0  0  0  0  0  0  0  0
  -24.0690  -36.6140   23.0010 C   0  0  0  0  0  1  0  0  0  0  0  0
  -25.2830  -36.1860   23.8460 C   0  0  0  0  0  3  0  0  0  0  0  0
  -27.3810  -37.1440   24.7320 C   0  0  0  0  0  1  0  0  0  0  0  0
  -26.3110  -37.2530   23.7470 N   0  0  0  0  0  0  0  0  0  0  0  0
  -25.8780  -38.1690   23.8560 H   0  0  0  0  0  0  0  0  0  0  0  0
  -26.0890  -31.6850   25.2080 C   0  0  1  0  0  0  0  0  0  0  0  0
  -24.9430  -31.5640   26.2470 C   0  0  0  0  0  1  0  0  0  0  0  0
  -26.7750  -30.3110   25.1420 C   0  0  0  0  0  1  0  0  0  0  0  0
  -27.1460  -32.6120   25.8850 C   0  0  0  0  0  1  0  0  0  0  0  0
  1  8  2  0
  1  7  1  0
  2  7  1  0
  3  4  1  0
  3  2  1  0
  5  4  1  0
  5 22  1  0
  5  6  1  0
  7  6  1  0
  9 11  1  0
  9 15  1  0
 10 15  1  0
 11 16  1  0
 13 10  1  0
 13 17  1  0
 16  1  1  0
 16 12  1  0
 17 14  1  0
 17 18  1  0
 19 20  2  0
 20 39  1  0
 21 20  1  0
 21 24  1  0
 22 19  1  0
 22 23  1  0
 23 21  2  0
 24 25  1  0
 25 26  2  0
 27 30  1  0
 27 26  1  0
 28 27  2  0
 29 28  1  0
 29 24  2  0
 30 31  1  0
 31 32  1  0
 32 33  2  0
 34 33  1  0
 34 38  1  0
 35 34  2  0
 36 31  2  0
 36 35  1  0
 37 36  1  0
 39 40  1  0
 40 43  1  0
 40 42  1  0
 41 39  2  0
 44 45  1  0
 44 19  1  0
 46 44  1  0
 50 49  1  0
 51 62  2  0
 52 50  1  0
 53 61  1  0
 53 60  1  0
 53 63  1  0
 54 59  1  0
 55 61  1  0
 56 57  1  0
 56 55  1  0
 56 54  1  0
 57 52  1  0
 58 52  1  0
 58 59  1  0
 61 51  1  0
 63 65  2  0
 64 63  1  0
 66 64  1  0
 67 76  2  0
 67 72  1  0
 68 64  1  0
 69 68  1  0
 70 71  1  0
 70 69  1  0
 71 67  1  0
 72 68  1  0
 72 73  2  0
 73 74  1  0
 75 74  2  0
 76 75  1  0
 77 51  1  0
 77 78  1  0
 77 87  1  0
 78 81  1  0
 79 83  1  0
 79 78  1  0
 80 79  2  0
 83 82  1  0
 85 83  1  0
 85 86  1  0
 85 84  1  0
 87 90  1  1
 87 88  1  0
 89 87  1  0
M  ISO  4   1 100  16 100  49 101  50 101
M  END
>  <TORSDO>  (28) 
F 18

>  <SCORE>  (28) 
-16.025

>  <name>  (28) 
27

>  <ligand_id>  (28) 
27

>  <original_smiles>  (28) 
[H]c1c([H])c([H])c2c(c1[H])C([H])([H])C([H])([H])C([H])([H])C2([H])N([H])C(=O)C1([H])N(C(=O)C([H])(N([H])C(=O)C([H])(N([H])C([H])([H])[H])C([H])([H])[H])C(C([H])([H])[H])(C([H])([H])[H])C([H])([H])[H])C([H])([H])c2c([H])c(OC([H])([H])C([H])([H])C([H])([H])[N+]3([H])C([H])([H])C([H])([H])C4(C([H])([H])N(C(=O)N5C([H])([H])C([H])([H])C([H])([H])C([H])(n6nc(-c7c([H])c([H])c(Oc8c([H])c([H])c(F)c([H])c8F)c([H])c7[H])c(C(=O)N([H])[H])c6N([H])[H])C5([H])[H])C([H])([H])C4([H])[H])C3([H])[H])c([H])c([H])c2C1([H])[H]

>  <smiles>  (28) 
[H]c1c([H])c([H])c2c(c1[H])C([H])([H])C([H])([H])C([H])([H])C2([H])N([H])C(=O)C1([H])N(C(=O)C([H])(N([H])C(=O)C([H])(N([H])C([H])([H])[H])C([H])([H])[H])C(C([H])([H])[H])(C([H])([H])[H])C([H])([H])[H])C([H])([H])c2c([H])c(OC([H])([H])C([H])([H])C([H])([H])[N+]3([H])C([H])([H])C([H])([H])C4(C([H])([H])N(C(=O)N5C([H])([H])C([H])([H])C([H])([H])C([H])(n6nc(-c7c([H])c([H])c(Oc8c([H])c([H])c(F)c([H])c8F)c([H])c7[H])c(C(=O)N([H])[H])c6N([H])[H])C5([H])[H])C([H])([H])C4([H])[H])C3([H])[H])c([H])c([H])c2C1([H])[H]

$$$$
28:0:0
     RDKit          3D

 89 97  0  0  1  0  0  0  0  0999 V2000
  -27.4630  -20.9590   20.3680 C   0  0  0  0  0  2  0  0  0  0  0  0
  -27.7060  -19.5060   19.9450 C   0  0  0  0  0  3  0  0  0  0  0  0
  -29.2130  -19.7350   19.9030 C   0  0  0  0  0  3  0  0  0  0  0  0
  -28.8850  -21.2530   20.5730 N   0  0  1  0  0  4  0  0  0  0  0  0
  -29.0660  -21.1920   21.5640 H   0  0  0  0  0  0  0  0  0  0  0  0
  -25.4780  -18.8780   18.8550 C   0  0  0  0  0  1  0  0  0  0  0  0
  -27.0030  -18.9320   18.7130 C   0  0  0  0  0  2  0  0  0  0  0  0
  -30.1170  -18.2920   20.4770 C   0  0  0  0  0  2  0  0  0  0  0  0
  -30.6600  -15.3940   20.1070 C   0  0  0  0  0  0  0  0  0  0  0  0
  -30.6060  -12.9700   19.1790 C   0  0  0  0  0  2  0  0  0  0  0  0
  -29.6450  -12.7770   17.9800 C   0  0  0  0  0  2  0  0  0  0  0  0
  -28.2110  -12.4960   18.4670 C   0  0  0  0  0  2  0  0  0  0  0  0
  -27.7940  -13.4480   19.6150 C   0  0  0  0  0  3  0  0  0  0  0  0
  -28.8770  -13.5840   20.7060 C   0  0  0  0  0  2  0  0  0  0  0  0
  -30.0840  -14.0940   20.0350 N   0  0  0  0  0  0  0  0  0  0  0  0
  -31.8800  -15.3950   19.8960 O   0  0  0  0  0  0  0  0  0  0  0  0
  -29.8890  -16.6540   20.2190 N   0  0  0  0  0  0  0  0  0  0  0  0
  -28.9060  -16.4320   20.2600 H   0  0  0  0  0  0  0  0  0  0  0  0
  -25.4500  -13.9960   20.4510 C   0  0  0  0  0  0  0  0  0  0  0  0
  -24.3990  -13.2160   20.8420 C   0  0  0  0  0  0  0  0  0  0  0  0
  -24.8650  -11.8660   20.7810 C   0  0  0  0  0  0  0  0  0  0  0  0
  -26.4840  -13.1250   20.1640 N   0  0  0  0  0  0  0  0  0  0  0  0
  -26.1470  -11.8360   20.4320 N   0  0  0  0  0  0  0  0  0  0  0  0
  -24.1440  -10.6020   20.9770 C   0  0  0  0  0  0  0  0  0  0  0  0
  -24.5770   -9.6390   21.9150 C   0  0  0  0  0  3  0  0  0  0  0  0
  -23.8530   -8.4410   22.0990 C   0  0  0  0  0  3  0  0  0  0  0  0
  -22.6810   -8.1960   21.3440 C   0  0  0  0  0  0  0  0  0  0  0  0
  -22.2660   -9.1480   20.3960 C   0  0  0  0  0  3  0  0  0  0  0  0
  -22.9900  -10.3370   20.2100 C   0  0  0  0  0  3  0  0  0  0  0  0
  -21.9280   -7.0510   21.4360 O   0  0  0  0  0  0  0  0  0  0  0  0
  -21.8470   -6.3360   22.6050 C   0  0  0  0  0  0  0  0  0  0  0  0
  -21.3300   -6.9040   23.7900 C   0  0  0  0  0  3  0  0  0  0  0  0
  -21.2000   -6.1140   24.9490 C   0  0  0  0  0  3  0  0  0  0  0  0
  -21.5730   -4.7560   24.9230 C   0  0  0  0  0  0  0  0  0  0  0  0
  -22.0820   -4.1890   23.7430 C   0  0  0  0  0  3  0  0  0  0  0  0
  -22.2160   -4.9770   22.5850 C   0  0  0  0  0  0  0  0  0  0  0  0
  -22.6870   -4.4190   21.4440 F   0  0  0  0  0  0  0  0  0  0  0  0
  -21.4410   -3.9940   26.0350 F   0  0  0  0  0  0  0  0  0  0  0  0
  -23.0090  -13.6910   21.1520 C   0  0  0  0  0  0  0  0  0  0  0  0
  -22.3070  -12.9910   22.0340 N   0  0  0  0  0  0  0  0  0  0  0  0
  -22.5580  -14.7180   20.6460 O   0  0  0  0  0  0  0  0  0  0  0  0
  -22.6870  -12.1620   22.4660 H   0  0  0  0  0  0  0  0  0  0  0  0
  -21.3750  -13.2910   22.2840 H   0  0  0  0  0  0  0  0  0  0  0  0
  -25.6040  -15.3690   20.2820 N   0  0  0  0  0  0  0  0  0  0  0  0
  -24.8270  -16.0080   20.4060 H   0  0  0  0  0  0  0  0  0  0  0  0
  -26.4150  -15.8070   19.8710 H   0  0  0  0  0  0  0  0  0  0  0  0
  -29.1320  -22.8400   20.1110 C   0  0  0  0  0  3  0  0  0  0  0  0
  -28.1730  -24.3230   20.5000 C   0  0  0  0  0  3  0  0  0  0  0  0
  -28.3890  -25.9630   20.3910 O   0  0  0  0  0  0  0  0  0  0  0  0
  -24.6120  -31.8810   23.2290 C   0  0  0  0  0  0  0  0  0  0  0  0
  -27.3480  -27.0320   20.3330 C   0  0  0  0  0  0  0  0  0  0  0  0
  -23.4990  -30.4590   21.5540 C   0  0  0  0  0  3  0  0  0  0  0  0
  -25.0220  -28.8720   20.1950 C   0  0  0  0  0  0  0  0  0  0  0  0
  -26.0650  -30.7130   21.4960 C   0  0  0  0  0  2  0  0  0  0  0  0
  -26.1820  -29.3000   20.8530 C   0  0  0  0  0  0  0  0  0  0  0  0
  -27.3420  -28.4030   20.8930 C   0  0  0  0  0  3  0  0  0  0  0  0
  -26.1560  -26.7530   19.6250 C   0  0  0  0  0  3  0  0  0  0  0  0
  -25.0340  -27.6190   19.5620 C   0  0  0  0  0  3  0  0  0  0  0  0
  -23.7890  -29.7740   20.1910 C   0  0  0  0  0  2  0  0  0  0  0  0
  -24.7440  -31.0440   22.1490 N   0  0  0  0  0  0  0  0  0  0  0  0
  -23.5000  -32.1530   23.7110 O   0  0  0  0  0  0  0  0  0  0  0  0
  -22.7890  -29.4540   22.4990 C   0  0  0  0  0  0  0  0  0  0  0  0
  -21.4600  -29.2910   22.3510 N   0  0  0  0  0  0  0  0  0  0  0  0
  -23.4410  -28.8200   23.3320 O   0  0  0  0  0  0  0  0  0  0  0  0
  -20.9880  -29.8560   21.6580 H   0  0  0  0  0  0  0  0  0  0  0  0
  -18.0620  -28.1180   22.8330 C   0  0  0  0  0  0  0  0  0  0  0  0
  -20.6240  -28.3480   23.1020 C   0  0  0  0  0  3  0  0  0  0  0  0
  -20.7070  -26.9270   22.4980 C   0  0  0  0  0  2  0  0  0  0  0  0
  -19.6020  -26.6420   21.4760 C   0  0  0  0  0  2  0  0  0  0  0  0
  -18.2220  -26.7850   22.1230 C   0  0  0  0  0  2  0  0  0  0  0  0
  -19.1890  -28.8600   23.2780 C   0  0  0  0  0  0  0  0  0  0  0  0
  -18.9810  -30.1080   23.9050 C   0  0  0  0  0  3  0  0  0  0  0  0
  -17.6820  -30.6150   24.0890 C   0  0  0  0  0  3  0  0  0  0  0  0
  -16.5700  -29.8720   23.6570 C   0  0  0  0  0  3  0  0  0  0  0  0
  -16.7600  -28.6240   23.0360 C   0  0  0  0  0  3  0  0  0  0  0  0
  -25.8500  -32.5470   23.9020 C   0  0  0  0  0  3  0  0  0  0  0  0
  -26.2930  -31.8220   25.2330 C   0  0  1  0  0  0  0  0  0  0  0  0
  -25.1430  -31.6140   26.2460 C   0  0  0  0  0  1  0  0  0  0  0  0
  -26.9060  -30.4360   24.9310 C   0  0  0  0  0  1  0  0  0  0  0  0
  -27.3990  -32.6470   25.9360 C   0  0  0  0  0  1  0  0  0  0  0  0
  -25.5120  -33.9540   24.1820 N   0  0  0  0  0  0  0  0  0  0  0  0
  -25.8810  -34.9960   23.4260 C   0  0  0  0  0  0  0  0  0  0  0  0
  -26.6060  -34.8750   22.4350 O   0  0  0  0  0  0  0  0  0  0  0  0
  -24.8750  -34.1200   24.9480 H   0  0  0  0  0  0  0  0  0  0  0  0
  -24.1870  -36.7940   22.9330 C   0  0  0  0  0  1  0  0  0  0  0  0
  -25.3690  -36.3940   23.8300 C   0  0  0  0  0  3  0  0  0  0  0  0
  -27.4400  -37.2940   24.7990 C   0  0  0  0  0  1  0  0  0  0  0  0
  -26.4100  -37.4450   23.7740 N   0  0  0  0  0  0  0  0  0  0  0  0
  -25.9960  -38.3670   23.8750 H   0  0  0  0  0  0  0  0  0  0  0  0
  1  4  1  0
  2  7  1  0
  2  1  1  0
  3  2  1  0
  3  8  1  0
  3  4  1  0
  4  5  1  1
  7  6  1  0
  9 17  1  0
 10 15  1  0
 11 12  1  0
 11 10  1  0
 13 12  1  0
 13 22  1  0
 13 14  1  0
 15  9  1  0
 15 14  1  0
 16  9  2  0
 17 18  1  0
 17  8  1  0
 19 20  2  0
 20 39  1  0
 21 20  1  0
 21 24  1  0
 22 23  1  0
 22 19  1  0
 23 21  2  0
 24 25  1  0
 25 26  2  0
 27 30  1  0
 27 26  1  0
 28 27  2  0
 29 28  1  0
 29 24  2  0
 30 31  1  0
 31 32  1  0
 32 33  2  0
 34 33  1  0
 34 38  1  0
 35 34  2  0
 36 31  2  0
 36 35  1  0
 37 36  1  0
 39 40  1  0
 40 43  1  0
 40 42  1  0
 41 39  2  0
 44 45  1  0
 44 19  1  0
 46 44  1  0
 47 48  2  0
 47  4  1  0
 49 48  1  0
 50 61  2  0
 51 49  1  0
 51 56  1  0
 52 60  1  0
 52 62  1  0
 53 55  1  0
 54 60  1  0
 55 56  2  0
 55 54  1  0
 57 51  2  0
 58 57  1  0
 58 53  2  0
 59 53  1  0
 59 52  1  0
 60 50  1  0
 62 64  2  0
 63 62  1  0
 65 63  1  0
 66 75  2  0
 66 71  1  0
 67 63  1  0
 67 71  1  0
 68 67  1  0
 69 70  1  0
 69 68  1  0
 70 66  1  0
 71 72  2  0
 72 73  1  0
 74 73  2  0
 75 74  1  0
 76 50  1  0
 76 81  1  0
 76 77  1  0
 77 80  1  1
 77 78  1  0
 79 77  1  0
 81 84  1  0
 82 86  1  0
 82 81  1  0
 83 82  2  0
 86 85  1  0
 88 86  1  0
 88 89  1  0
 88 87  1  0
M  ISO  4   9 100  17 100  48 101  49 101
M  END
>  <TORSDO>  (29) 
F 20

>  <SCORE>  (29) 
-14.557

>  <name>  (29) 
28

>  <ligand_id>  (29) 
28

>  <original_smiles>  (29) 
[H]c1c([H])c([H])c2c(c1[H])C([H])([H])C([H])([H])C([H])([H])C2([H])N([H])C(=O)C1([H])N(C(=O)C([H])(N([H])C(=O)C([H])(N([H])C([H])([H])[H])C([H])([H])[H])C(C([H])([H])[H])(C([H])([H])[H])C([H])([H])[H])C([H])([H])c2c([H])c(OC([H])([H])C([H])([H])[N+]3([H])C([H])([H])C([H])(C([H])([H])C([H])([H])[H])C3([H])C([H])([H])N([H])C(=O)N3C([H])([H])C([H])([H])C([H])([H])C([H])(n4nc(-c5c([H])c([H])c(Oc6c([H])c([H])c(F)c([H])c6F)c([H])c5[H])c(C(=O)N([H])[H])c4N([H])[H])C3([H])[H])c([H])c([H])c2C1([H])[H]

>  <smiles>  (29) 
[H]c1c([H])c([H])c2c(c1[H])C([H])([H])C([H])([H])C([H])([H])C2([H])N([H])C(=O)C1([H])N(C(=O)C([H])(N([H])C(=O)C([H])(N([H])C([H])([H])[H])C([H])([H])[H])C(C([H])([H])[H])(C([H])([H])[H])C([H])([H])[H])C([H])([H])c2c([H])c(OC([H])([H])C([H])([H])[N+]3([H])C([H])([H])C([H])(C([H])([H])C([H])([H])[H])C3([H])C([H])([H])N([H])C(=O)N3C([H])([H])C([H])([H])C([H])([H])C([H])(n4nc(-c5c([H])c([H])c(Oc6c([H])c([H])c(F)c([H])c6F)c([H])c5[H])c(C(=O)N([H])[H])c4N([H])[H])C3([H])[H])c([H])c([H])c2C1([H])[H]

$$$$
29:0:0
     RDKit          3D

 85 89  0  0  1  0  0  0  0  0999 V2000
  -31.0970  -20.8610   19.2510 C   0  0  0  0  0  2  0  0  0  0  0  0
  -30.0500  -21.8420   19.3300 C   0  0  0  0  0  3  0  0  0  0  0  0
  -30.8380  -19.7200   19.8960 C   0  0  0  0  0  2  0  0  0  0  0  0
  -28.9690  -21.4790   20.0350 C   0  0  0  0  0  2  0  0  0  0  0  0
  -29.4490  -19.5460   20.4740 C   0  0  0  0  0  1  0  0  0  0  0  0
  -30.0560  -16.1420   20.1540 C   0  0  0  0  0  0  0  0  0  0  0  0
  -30.2650  -13.5100   19.3050 C   0  0  0  0  0  2  0  0  0  0  0  0
  -29.4040  -12.8900   18.1530 C   0  0  0  0  0  2  0  0  0  0  0  0
  -28.0320  -12.4270   18.6570 C   0  0  0  0  0  2  0  0  0  0  0  0
  -27.4730  -13.4420   19.6720 C   0  0  0  0  0  3  0  0  0  0  0  0
  -28.4960  -13.9340   20.7360 C   0  0  0  0  0  2  0  0  0  0  0  0
  -29.5660  -14.7110   20.0230 N   0  0  0  0  0  0  0  0  0  0  0  0
  -31.3010  -15.9880   20.0720 O   0  0  0  0  0  0  0  0  0  0  0  0
  -29.3300  -17.6410   20.1910 N   0  0  0  0  0  2  0  0  0  0  0  0
  -28.3440  -17.4350   20.0950 H   0  0  0  0  0  0  0  0  0  0  0  0
  -25.1260  -13.9060   20.4940 C   0  0  0  0  0  0  0  0  0  0  0  0
  -24.0870  -13.1070   20.8710 C   0  0  0  0  0  0  0  0  0  0  0  0
  -24.5800  -11.7650   20.8250 C   0  0  0  0  0  0  0  0  0  0  0  0
  -26.1830  -13.0560   20.2300 N   0  0  0  0  0  0  0  0  0  0  0  0
  -25.8700  -11.7580   20.4920 N   0  0  0  0  0  0  0  0  0  0  0  0
  -23.8690  -10.4920   21.0200 C   0  0  0  0  0  0  0  0  0  0  0  0
  -24.3220   -9.5240   21.9450 C   0  0  0  0  0  3  0  0  0  0  0  0
  -23.6050   -8.3220   22.1330 C   0  0  0  0  0  3  0  0  0  0  0  0
  -22.4210   -8.0780   21.3970 C   0  0  0  0  0  0  0  0  0  0  0  0
  -21.9860   -9.0330   20.4620 C   0  0  0  0  0  3  0  0  0  0  0  0
  -22.7040  -10.2270   20.2730 C   0  0  0  0  0  3  0  0  0  0  0  0
  -21.6750   -6.9270   21.4950 O   0  0  0  0  0  0  0  0  0  0  0  0
  -21.6530   -6.1780   22.6440 C   0  0  0  0  0  0  0  0  0  0  0  0
  -21.2320   -6.7200   23.8780 C   0  0  0  0  0  3  0  0  0  0  0  0
  -21.1580   -5.8970   25.0200 C   0  0  0  0  0  3  0  0  0  0  0  0
  -21.4960   -4.5330   24.9290 C   0  0  0  0  0  0  0  0  0  0  0  0
  -21.9100   -3.9900   23.6990 C   0  0  0  0  0  3  0  0  0  0  0  0
  -21.9860   -4.8100   22.5600 C   0  0  0  0  0  0  0  0  0  0  0  0
  -22.3640   -4.2780   21.3740 F   0  0  0  0  0  0  0  0  0  0  0  0
  -21.4190   -3.7400   26.0230 F   0  0  0  0  0  0  0  0  0  0  0  0
  -22.6860  -13.5620   21.1540 C   0  0  0  0  0  0  0  0  0  0  0  0
  -21.9800  -12.8630   22.0340 N   0  0  0  0  0  0  0  0  0  0  0  0
  -22.2290  -14.5780   20.6300 O   0  0  0  0  0  0  0  0  0  0  0  0
  -22.3660  -12.0430   22.4790 H   0  0  0  0  0  0  0  0  0  0  0  0
  -21.0410  -13.1520   22.2670 H   0  0  0  0  0  0  0  0  0  0  0  0
  -25.2590  -15.2800   20.3150 N   0  0  0  0  0  0  0  0  0  0  0  0
  -24.4800  -15.9180   20.4370 H   0  0  0  0  0  0  0  0  0  0  0  0
  -26.0920  -15.7320   19.9640 H   0  0  0  0  0  0  0  0  0  0  0  0
  -28.0260  -23.2130   20.4440 C   0  0  0  0  0 15  0  0  0  0  0  0
  -28.1310  -25.1220   20.2720 O   0  0  0  0  0  1  0  0  0  0  0  0
  -24.6600  -31.8390   23.1380 C   0  0  0  0  0  0  0  0  0  0  0  0
  -27.1810  -26.4640   20.2660 C   0  0  0  0  0  0  0  0  0  0  0  0
  -23.4860  -30.4060   21.5290 C   0  0  0  0  0  3  0  0  0  0  0  0
  -24.9370  -28.6790   20.1660 C   0  0  0  0  0  0  0  0  0  0  0  0
  -26.0780  -30.4680   21.4380 C   0  0  0  0  0  2  0  0  0  0  0  0
  -26.1420  -28.9920   20.8080 C   0  0  0  0  0  0  0  0  0  0  0  0
  -27.2340  -27.9240   20.8110 C   0  0  0  0  0  3  0  0  0  0  0  0
  -25.9360  -26.4380   19.5640 C   0  0  0  0  0  3  0  0  0  0  0  0
  -24.8910  -27.4310   19.5170 C   0  0  0  0  0  3  0  0  0  0  0  0
  -23.7420  -29.6640   20.1810 C   0  0  0  0  0  2  0  0  0  0  0  0
  -24.7690  -30.9450   22.0870 N   0  0  0  0  0  0  0  0  0  0  0  0
  -23.5610  -32.1560   23.6280 O   0  0  0  0  0  0  0  0  0  0  0  0
  -22.7440  -29.4680   22.5230 C   0  0  0  0  0  0  0  0  0  0  0  0
  -21.4080  -29.3300   22.4060 N   0  0  0  0  0  0  0  0  0  0  0  0
  -23.3890  -28.8580   23.3780 O   0  0  0  0  0  0  0  0  0  0  0  0
  -20.9320  -29.8720   21.6980 H   0  0  0  0  0  0  0  0  0  0  0  0
  -18.0120  -28.1390   22.9630 C   0  0  0  0  0  0  0  0  0  0  0  0
  -20.5770  -28.4090   23.1960 C   0  0  0  0  0  3  0  0  0  0  0  0
  -20.6670  -26.9680   22.6410 C   0  0  0  0  0  2  0  0  0  0  0  0
  -19.5570  -26.6370   21.6380 C   0  0  0  0  0  2  0  0  0  0  0  0
  -18.1810  -26.7870   22.2910 C   0  0  0  0  0  2  0  0  0  0  0  0
  -19.1350  -28.9080   23.3720 C   0  0  0  0  0  0  0  0  0  0  0  0
  -18.9170  -30.1690   23.9680 C   0  0  0  0  0  3  0  0  0  0  0  0
  -17.6120  -30.6630   24.1530 C   0  0  0  0  0  3  0  0  0  0  0  0
  -16.5050  -29.8940   23.7550 C   0  0  0  0  0  3  0  0  0  0  0  0
  -16.7060  -28.6330   23.1660 C   0  0  0  0  0  3  0  0  0  0  0  0
  -25.9080  -32.5170   23.7810 C   0  0  0  0  0  3  0  0  0  0  0  0
  -25.5600  -33.9120   24.1300 N   0  0  0  0  0  0  0  0  0  0  0  0
  -25.8620  -34.9960   23.4020 C   0  0  0  0  0  0  0  0  0  0  0  0
  -26.5120  -34.9290   22.3560 O   0  0  0  0  0  0  0  0  0  0  0  0
  -24.9740  -34.0350   24.9430 H   0  0  0  0  0  0  0  0  0  0  0  0
  -24.0960  -36.7820   23.1500 C   0  0  0  0  0  1  0  0  0  0  0  0
  -25.3700  -36.3720   23.9060 C   0  0  0  0  0  3  0  0  0  0  0  0
  -27.5140  -37.2900   24.6850 C   0  0  0  0  0  1  0  0  0  0  0  0
  -26.3810  -37.4470   23.7780 N   0  0  0  0  0  0  0  0  0  0  0  0
  -25.9620  -38.3570   23.9490 H   0  0  0  0  0  0  0  0  0  0  0  0
  -26.4190  -31.7670   25.0740 C   0  0  1  0  0  0  0  0  0  0  0  0
  -25.3210  -31.5320   26.1370 C   0  0  0  0  0  1  0  0  0  0  0  0
  -27.0190  -30.3890   24.7190 C   0  0  0  0  0  1  0  0  0  0  0  0
  -27.5580  -32.5790   25.7350 C   0  0  0  0  0  1  0  0  0  0  0  0
  1  2  1  0
  1  3  1  0
  2  4  2  0
  3  5  1  0
  6 14  1  0
  7 12  1  0
  8  9  1  0
  8  7  1  0
 10  9  1  0
 10 19  1  0
 10 11  1  0
 12  6  1  0
 12 11  1  0
 13  6  2  0
 15 14  1  0
 16 17  2  0
 17 36  1  0
 18 17  1  0
 18 21  1  0
 19 20  1  0
 19 16  1  0
 20 18  2  0
 21 22  1  0
 22 23  2  0
 24 27  1  0
 24 23  1  0
 25 24  2  0
 26 25  1  0
 26 21  2  0
 27 28  1  0
 28 29  1  0
 29 30  2  0
 31 30  1  0
 31 35  1  0
 32 31  2  0
 33 28  2  0
 33 32  1  0
 34 33  1  0
 36 37  1  0
 37 40  1  0
 37 39  1  0
 38 36  2  0
 41 42  1  0
 41 16  1  0
 43 41  1  0
 46 57  2  0
 47 45  1  0
 47 52  1  0
 48 56  1  0
 48 58  1  0
 49 55  1  0
 49 51  1  0
 50 56  1  0
 51 52  2  0
 51 50  1  0
 53 47  2  0
 54 53  1  0
 54 49  2  0
 55 48  1  0
 56 46  1  0
 58 60  2  0
 59 58  1  0
 61 59  1  0
 62 71  2  0
 62 67  1  0
 63 59  1  0
 63 67  1  0
 64 63  1  0
 65 66  1  0
 65 64  1  0
 66 62  1  0
 67 68  2  0
 68 69  1  0
 70 69  2  0
 71 70  1  0
 72 46  1  0
 72 73  1  0
 72 82  1  0
 73 76  1  0
 74 78  1  0
 74 73  1  0
 75 74  2  0
 78 77  1  0
 80 78  1  0
 80 81  1  0
 80 79  1  0
 82 85  1  1
 82 83  1  0
 84 82  1  0
M  ISO  4   6 100  14 100  44 101  45 101
M  END
>  <TORSDO>  (30) 
F 17

>  <SCORE>  (30) 
-16.317

>  <name>  (30) 
29

>  <ligand_id>  (30) 
29

>  <original_smiles>  (30) 
[H]C1=C([H])C([H])(N([H])C(=O)N2C([H])([H])C([H])([H])C([H])([H])C([H])(n3nc(-c4c([H])c([H])c(Oc5c([H])c([H])c(F)c([H])c5F)c([H])c4[H])c(C(=O)N([H])[H])c3N([H])[H])C2([H])[H])C(C([H])([H])Oc2c([H])c([H])c3c(c2[H])C([H])([H])N(C(=O)C([H])(N([H])C(=O)C([H])(N([H])C([H])([H])[H])C([H])([H])[H])C(C([H])([H])[H])(C([H])([H])[H])C([H])([H])[H])C([H])(C(=O)N([H])C2([H])c4c([H])c([H])c([H])c([H])c4C([H])([H])C([H])([H])C2([H])[H])C3([H])[H])=C1[H]

>  <smiles>  (30) 
[H]C1=C([H])C([H])(N([H])C(=O)N2C([H])([H])C([H])([H])C([H])([H])C([H])(n3nc(-c4c([H])c([H])c(Oc5c([H])c([H])c(F)c([H])c5F)c([H])c4[H])c(C(=O)N([H])[H])c3N([H])[H])C2([H])[H])C(C([H])([H])Oc2c([H])c([H])c3c(c2[H])C([H])([H])N(C(=O)C([H])(N([H])C(=O)C([H])(N([H])C([H])([H])[H])C([H])([H])[H])C(C([H])([H])[H])(C([H])([H])[H])C([H])([H])[H])C([H])(C(=O)N([H])C2([H])c4c([H])c([H])c([H])c([H])c4C([H])([H])C([H])([H])C2([H])[H])C3([H])[H])=C1[H]

$$$$
30:0:0
     RDKit          3D

 87 95  0  0  1  0  0  0  0  0999 V2000
  -29.1890  -21.3900   19.8960 C   0  0  0  0  0  3  0  0  0  0  0  0
  -28.4580  -22.6350   20.2500 C   0  0  0  0  0  3  0  0  0  0  0  0
  -29.0330  -19.7200   20.2350 C   0  0  0  0  0  0  0  0  0  0  0  0
  -27.9130  -19.4160   20.6520 O   0  0  0  0  0  0  0  0  0  0  0  0
  -30.5680  -15.3450   19.8900 C   0  0  0  0  0  0  0  0  0  0  0  0
  -30.4900  -12.9110   18.9430 C   0  0  0  0  0  2  0  0  0  0  0  0
  -29.4890  -12.7230   17.7730 C   0  0  0  0  0  2  0  0  0  0  0  0
  -28.0800  -12.4170   18.3070 C   0  0  0  0  0  2  0  0  0  0  0  0
  -27.7050  -13.3430   19.4890 C   0  0  0  0  0  3  0  0  0  0  0  0
  -28.8270  -13.4720   20.5410 C   0  0  0  0  0  2  0  0  0  0  0  0
  -30.0060  -14.0270   19.8490 N   0  0  0  0  0  0  0  0  0  0  0  0
  -31.7110  -15.3660   19.4050 O   0  0  0  0  0  0  0  0  0  0  0  0
  -30.6270  -17.6070   22.3460 C   0  0  0  0  0  2  0  0  0  0  0  0
  -30.9110  -18.5200   21.4200 C   0  0  0  0  0  2  0  0  0  0  0  0
  -29.7450  -16.5020   21.8220 C   0  0  0  0  0  2  0  0  0  0  0  0
  -30.1560  -18.2810   20.1390 C   0  0  0  0  0  3  0  0  0  0  0  0
  -29.9080  -16.6120   20.3570 N   0  0  0  0  0  0  0  0  0  0  0  0
  -25.4000  -13.8560   20.4470 C   0  0  0  0  0  0  0  0  0  0  0  0
  -24.3710  -13.0590   20.8630 C   0  0  0  0  0  0  0  0  0  0  0  0
  -24.8370  -11.7140   20.7390 C   0  0  0  0  0  0  0  0  0  0  0  0
  -26.4210  -12.9980   20.0840 N   0  0  0  0  0  0  0  0  0  0  0  0
  -26.1000  -11.6990   20.3270 N   0  0  0  0  0  0  0  0  0  0  0  0
  -24.1270  -10.4420   20.9330 C   0  0  0  0  0  0  0  0  0  0  0  0
  -24.5760   -9.4780   21.8640 C   0  0  0  0  0  3  0  0  0  0  0  0
  -23.8630   -8.2730   22.0460 C   0  0  0  0  0  3  0  0  0  0  0  0
  -22.6890   -8.0220   21.2980 C   0  0  0  0  0  0  0  0  0  0  0  0
  -22.2600   -8.9740   20.3560 C   0  0  0  0  0  3  0  0  0  0  0  0
  -22.9730  -10.1700   20.1720 C   0  0  0  0  0  3  0  0  0  0  0  0
  -21.9470   -6.8690   21.3900 O   0  0  0  0  0  0  0  0  0  0  0  0
  -21.8400   -6.1740   22.5680 C   0  0  0  0  0  0  0  0  0  0  0  0
  -21.3210   -6.7670   23.7390 C   0  0  0  0  0  3  0  0  0  0  0  0
  -21.1640   -5.9960   24.9080 C   0  0  0  0  0  3  0  0  0  0  0  0
  -21.5160   -4.6340   24.9080 C   0  0  0  0  0  0  0  0  0  0  0  0
  -22.0290   -4.0400   23.7390 C   0  0  0  0  0  3  0  0  0  0  0  0
  -22.1860   -4.8080   22.5730 C   0  0  0  0  0  0  0  0  0  0  0  0
  -22.6600   -4.2250   21.4450 F   0  0  0  0  0  0  0  0  0  0  0  0
  -21.3600   -3.8900   26.0280 F   0  0  0  0  0  0  0  0  0  0  0  0
  -22.9990  -13.5190   21.2580 C   0  0  0  0  0  0  0  0  0  0  0  0
  -22.3460  -12.7960   22.1600 N   0  0  0  0  0  0  0  0  0  0  0  0
  -22.5160  -14.5550   20.8000 O   0  0  0  0  0  0  0  0  0  0  0  0
  -22.7520  -11.9580   22.5500 H   0  0  0  0  0  0  0  0  0  0  0  0
  -21.4280  -13.0850   22.4670 H   0  0  0  0  0  0  0  0  0  0  0  0
  -25.5480  -15.2350   20.3190 N   0  0  0  0  0  0  0  0  0  0  0  0
  -24.7990  -15.8830   20.5320 H   0  0  0  0  0  0  0  0  0  0  0  0
  -26.3830  -15.6940   19.9760 H   0  0  0  0  0  0  0  0  0  0  0  0
  -28.3540  -24.2990   19.6770 C   0  0  0  0  0  2  0  0  0  0  0  0
  -28.2220  -25.8080   20.3580 O   0  0  0  0  0  0  0  0  0  0  0  0
  -24.6500  -31.8590   23.1210 C   0  0  0  0  0  0  0  0  0  0  0  0
  -27.2280  -26.9190   20.1890 C   0  0  0  0  0  0  0  0  0  0  0  0
  -23.4690  -30.4400   21.4930 C   0  0  0  0  0  3  0  0  0  0  0  0
  -24.9300  -28.8150   20.0970 C   0  0  0  0  0  0  0  0  0  0  0  0
  -26.0370  -30.6400   21.3690 C   0  0  0  0  0  2  0  0  0  0  0  0
  -26.1100  -29.2200   20.7300 C   0  0  0  0  0  0  0  0  0  0  0  0
  -27.2460  -28.2900   20.7590 C   0  0  0  0  0  3  0  0  0  0  0  0
  -26.0220  -26.6760   19.4900 C   0  0  0  0  0  3  0  0  0  0  0  0
  -24.9140  -27.5640   19.4570 C   0  0  0  0  0  3  0  0  0  0  0  0
  -23.7100  -29.7370   20.1270 C   0  0  0  0  0  2  0  0  0  0  0  0
  -24.7400  -31.0090   22.0470 N   0  0  0  0  0  0  0  0  0  0  0  0
  -23.5580  -32.1580   23.6290 O   0  0  0  0  0  0  0  0  0  0  0  0
  -22.7660  -29.4610   22.4680 C   0  0  0  0  0  0  0  0  0  0  0  0
  -21.4310  -29.3190   22.3570 N   0  0  0  0  0  0  0  0  0  0  0  0
  -23.4270  -28.8270   23.2950 O   0  0  0  0  0  0  0  0  0  0  0  0
  -20.9510  -29.8800   21.6670 H   0  0  0  0  0  0  0  0  0  0  0  0
  -18.0310  -28.1810   22.9160 C   0  0  0  0  0  0  0  0  0  0  0  0
  -20.6010  -28.3980   23.1390 C   0  0  0  0  0  3  0  0  0  0  0  0
  -20.6640  -26.9640   22.5610 C   0  0  0  0  0  2  0  0  0  0  0  0
  -19.5400  -26.6660   21.5630 C   0  0  0  0  0  2  0  0  0  0  0  0
  -18.1710  -26.8330   22.2300 C   0  0  0  0  0  2  0  0  0  0  0  0
  -19.1720  -28.9220   23.3290 C   0  0  0  0  0  0  0  0  0  0  0  0
  -18.9830  -30.1830   23.9360 C   0  0  0  0  0  3  0  0  0  0  0  0
  -17.6890  -30.7030   24.1310 C   0  0  0  0  0  3  0  0  0  0  0  0
  -16.5650  -29.9600   23.7310 C   0  0  0  0  0  3  0  0  0  0  0  0
  -16.7370  -28.7000   23.1300 C   0  0  0  0  0  3  0  0  0  0  0  0
  -25.9170  -32.5120   23.7550 C   0  0  0  0  0  3  0  0  0  0  0  0
  -25.5860  -33.9090   24.0940 N   0  0  0  0  0  0  0  0  0  0  0  0
  -25.9110  -34.9770   23.3540 C   0  0  0  0  0  0  0  0  0  0  0  0
  -26.5810  -34.8910   22.3220 O   0  0  0  0  0  0  0  0  0  0  0  0
  -24.9890  -34.0470   24.8960 H   0  0  0  0  0  0  0  0  0  0  0  0
  -24.1750  -36.7720   23.0270 C   0  0  0  0  0  1  0  0  0  0  0  0
  -25.4180  -36.3590   23.8320 C   0  0  0  0  0  3  0  0  0  0  0  0
  -27.5450  -37.2500   24.6800 C   0  0  0  0  0  1  0  0  0  0  0  0
  -26.4450  -37.4200   23.7330 N   0  0  0  0  0  0  0  0  0  0  0  0
  -26.0320  -38.3350   23.8880 H   0  0  0  0  0  0  0  0  0  0  0  0
  -26.4280  -31.7500   25.0410 C   0  0  1  0  0  0  0  0  0  0  0  0
  -25.3290  -31.5100   26.1030 C   0  0  0  0  0  1  0  0  0  0  0  0
  -27.0250  -30.3740   24.6680 C   0  0  0  0  0  1  0  0  0  0  0  0
  -27.5680  -32.5550   25.7080 C   0  0  0  0  0  1  0  0  0  0  0  0
  1  3  1  0
  1  2  2  0
  3  4  2  0
  5 17  1  0
  6 11  1  0
  7  8  1  0
  7  6  1  0
  9  8  1  0
  9 21  1  0
  9 10  1  0
 11  5  1  0
 11 10  1  0
 12  5  2  0
 14 13  1  0
 15 13  1  0
 16  3  1  0
 16 17  1  0
 16 14  1  0
 17 15  1  0
 18 19  2  0
 19 38  1  0
 20 19  1  0
 20 23  1  0
 21 22  1  0
 21 18  1  0
 22 20  2  0
 23 24  1  0
 24 25  2  0
 26 29  1  0
 26 25  1  0
 27 26  2  0
 28 27  1  0
 28 23  2  0
 29 30  1  0
 30 35  2  0
 30 31  1  0
 31 32  2  0
 32 33  1  0
 33 37  1  0
 34 33  2  0
 35 34  1  0
 36 35  1  0
 38 39  1  0
 39 42  1  0
 39 41  1  0
 40 38  2  0
 43 18  1  0
 43 44  1  0
 45 43  1  0
 46  2  1  0
 46 47  1  0
 48 59  2  0
 49 47  1  0
 49 54  1  0
 50 58  1  0
 50 60  1  0
 51 57  1  0
 51 53  1  0
 52 58  1  0
 53 54  2  0
 53 52  1  0
 55 49  2  0
 56 55  1  0
 56 51  2  0
 57 50  1  0
 58 48  1  0
 60 62  2  0
 61 60  1  0
 63 61  1  0
 64 73  2  0
 64 69  1  0
 65 61  1  0
 65 69  1  0
 66 65  1  0
 67 68  1  0
 67 66  1  0
 68 64  1  0
 69 70  2  0
 70 71  1  0
 72 71  2  0
 73 72  1  0
 74 48  1  0
 74 75  1  0
 74 84  1  0
 75 78  1  0
 76 80  1  0
 76 75  1  0
 77 76  2  0
 80 79  1  0
 82 80  1  0
 82 83  1  0
 82 81  1  0
 84 87  1  1
 84 85  1  0
 86 84  1  0
M  ISO  4   5 100  17 100  46 101  47 101
M  END
>  <TORSDO>  (31) 
F 18

>  <SCORE>  (31) 
-16.152

>  <name>  (31) 
30

>  <ligand_id>  (31) 
30

>  <original_smiles>  (31) 
[H]C(C(=O)C1([H])C([H])=C([H])C([H])([H])N1C(=O)N1C([H])([H])C([H])([H])C([H])([H])C([H])(n2nc(-c3c([H])c([H])c(Oc4c([H])c([H])c(F)c([H])c4F)c([H])c3[H])c(C(=O)N([H])[H])c2N([H])[H])C1([H])[H])=C([H])C([H])([H])Oc1c([H])c([H])c2c(c1[H])C([H])([H])N(C(=O)C([H])(N([H])C(=O)C([H])(N([H])C([H])([H])[H])C([H])([H])[H])C(C([H])([H])[H])(C([H])([H])[H])C([H])([H])[H])C([H])(C(=O)N([H])C1([H])c3c([H])c([H])c([H])c([H])c3C([H])([H])C([H])([H])C1([H])[H])C2([H])[H]

>  <smiles>  (31) 
[H]C(C(=O)C1([H])C([H])=C([H])C([H])([H])N1C(=O)N1C([H])([H])C([H])([H])C([H])([H])C([H])(n2nc(-c3c([H])c([H])c(Oc4c([H])c([H])c(F)c([H])c4F)c([H])c3[H])c(C(=O)N([H])[H])c2N([H])[H])C1([H])[H])=C([H])C([H])([H])Oc1c([H])c([H])c2c(c1[H])C([H])([H])N(C(=O)C([H])(N([H])C(=O)C([H])(N([H])C([H])([H])[H])C([H])([H])[H])C(C([H])([H])[H])(C([H])([H])[H])C([H])([H])[H])C([H])(C(=O)N([H])C1([H])c3c([H])c([H])c([H])c([H])c3C([H])([H])C([H])([H])C1([H])[H])C2([H])[H]

$$$$
31:0:0
     RDKit          3D

 90 99  0  0  1  0  0  0  0  0999 V2000
  -30.1930  -20.1080   22.0560 C   0  0  0  0  0  0  0  0  0  0  0  0
  -30.2480  -18.5410   21.7860 C   0  0  0  0  0  2  0  0  0  0  0  0
  -28.3610  -21.8800   19.4240 C   0  0  0  0  0  2  0  0  0  0  0  0
  -28.9880  -19.0070   19.6770 C   0  0  0  0  0  2  0  0  0  0  0  0
  -29.3830  -22.4930   21.4310 C   0  0  0  0  0  2  0  0  0  0  0  0
  -28.8680  -23.2510   20.1290 C   0  0  0  0  0  3  0  0  0  0  0  0
  -29.3090  -20.6270   19.8240 C   0  0  0  0  0  3  0  0  0  0  0  0
  -30.0400  -17.9340   20.3450 C   0  0  0  0  0  3  0  0  0  0  0  0
  -29.6640  -21.0120   21.1750 N   0  0  0  0  0  0  0  0  0  0  0  0
  -30.6020  -20.4960   23.1540 O   0  0  0  0  0  0  0  0  0  0  0  0
  -30.5870  -15.1650   20.1970 C   0  0  0  0  0  0  0  0  0  0  0  0
  -30.4960  -12.7940   19.2700 C   0  0  0  0  0  2  0  0  0  0  0  0
  -29.5330  -12.7040   18.0640 C   0  0  0  0  0  2  0  0  0  0  0  0
  -28.0870  -12.4650   18.5380 C   0  0  0  0  0  2  0  0  0  0  0  0
  -27.6890  -13.3940   19.7130 C   0  0  0  0  0  3  0  0  0  0  0  0
  -28.7720  -13.4470   20.8120 C   0  0  0  0  0  2  0  0  0  0  0  0
  -30.0130  -13.8900   20.1630 N   0  0  0  0  0  0  0  0  0  0  0  0
  -31.7870  -15.2370   19.9090 O   0  0  0  0  0  0  0  0  0  0  0  0
  -29.7890  -16.3460   20.3510 N   0  0  0  0  0  0  0  0  0  0  0  0
  -28.8210  -16.1080   20.5110 H   0  0  0  0  0  0  0  0  0  0  0  0
  -25.3330  -13.9400   20.5480 C   0  0  0  0  0  0  0  0  0  0  0  0
  -24.2840  -13.1510   20.9280 C   0  0  0  0  0  0  0  0  0  0  0  0
  -24.7520  -11.8030   20.8440 C   0  0  0  0  0  0  0  0  0  0  0  0
  -26.3710  -13.0730   20.2480 N   0  0  0  0  0  0  0  0  0  0  0  0
  -26.0330  -11.7810   20.4930 N   0  0  0  0  0  0  0  0  0  0  0  0
  -24.0340  -10.5330   21.0190 C   0  0  0  0  0  0  0  0  0  0  0  0
  -24.4540   -9.5710   21.9630 C   0  0  0  0  0  3  0  0  0  0  0  0
  -23.7340   -8.3670   22.1270 C   0  0  0  0  0  3  0  0  0  0  0  0
  -22.5810   -8.1180   21.3450 C   0  0  0  0  0  0  0  0  0  0  0  0
  -22.1810   -9.0690   20.3900 C   0  0  0  0  0  3  0  0  0  0  0  0
  -22.9010  -10.2640   20.2250 C   0  0  0  0  0  3  0  0  0  0  0  0
  -21.8340   -6.9660   21.4170 O   0  0  0  0  0  0  0  0  0  0  0  0
  -21.7050   -6.2650   22.5890 C   0  0  0  0  0  0  0  0  0  0  0  0
  -21.1230   -6.8380   23.7400 C   0  0  0  0  0  3  0  0  0  0  0  0
  -20.9460   -6.0590   24.9030 C   0  0  0  0  0  3  0  0  0  0  0  0
  -21.3410   -4.7090   24.9120 C   0  0  0  0  0  0  0  0  0  0  0  0
  -21.9170   -4.1350   23.7650 C   0  0  0  0  0  3  0  0  0  0  0  0
  -22.0950   -4.9110   22.6050 C   0  0  0  0  0  0  0  0  0  0  0  0
  -22.6300   -4.3470   21.4960 F   0  0  0  0  0  0  0  0  0  0  0  0
  -21.1660   -3.9580   26.0250 F   0  0  0  0  0  0  0  0  0  0  0  0
  -22.8940  -13.6160   21.2530 C   0  0  0  0  0  0  0  0  0  0  0  0
  -22.1960  -12.8960   22.1230 N   0  0  0  0  0  0  0  0  0  0  0  0
  -22.4390  -14.6520   20.7700 O   0  0  0  0  0  0  0  0  0  0  0  0
  -22.5780  -12.0580   22.5340 H   0  0  0  0  0  0  0  0  0  0  0  0
  -21.2640  -13.1880   22.3820 H   0  0  0  0  0  0  0  0  0  0  0  0
  -25.4860  -15.3160   20.4020 N   0  0  0  0  0  0  0  0  0  0  0  0
  -24.7130  -15.9570   20.5470 H   0  0  0  0  0  0  0  0  0  0  0  0
  -26.3040  -15.7680   20.0160 H   0  0  0  0  0  0  0  0  0  0  0  0
  -27.9050  -24.6760   20.1690 C   0  0  0  0  0  2  0  0  0  0  0  0
  -28.2190  -26.2160   20.3150 O   0  0  0  0  0  0  0  0  0  0  0  0
  -24.6450  -31.9740   23.3360 C   0  0  0  0  0  0  0  0  0  0  0  0
  -27.1790  -27.2330   20.2630 C   0  0  0  0  0  0  0  0  0  0  0  0
  -23.4300  -30.5920   21.6990 C   0  0  0  0  0  3  0  0  0  0  0  0
  -24.8620  -29.0170   20.2550 C   0  0  0  0  0  0  0  0  0  0  0  0
  -25.9870  -30.8380   21.5210 C   0  0  0  0  0  2  0  0  0  0  0  0
  -26.0510  -29.4460   20.8590 C   0  0  0  0  0  0  0  0  0  0  0  0
  -27.2090  -28.5730   20.8430 C   0  0  0  0  0  3  0  0  0  0  0  0
  -25.9600  -26.9180   19.6220 C   0  0  0  0  0  3  0  0  0  0  0  0
  -24.8320  -27.7680   19.6200 C   0  0  0  0  0  3  0  0  0  0  0  0
  -23.6410  -29.9220   20.3150 C   0  0  0  0  0  2  0  0  0  0  0  0
  -24.7090  -31.1560   22.2390 N   0  0  0  0  0  0  0  0  0  0  0  0
  -23.5630  -32.2610   23.8710 O   0  0  0  0  0  0  0  0  0  0  0  0
  -22.7510  -29.5840   22.6600 C   0  0  0  0  0  0  0  0  0  0  0  0
  -21.4290  -29.3850   22.5120 N   0  0  0  0  0  0  0  0  0  0  0  0
  -23.4190  -28.9810   23.5050 O   0  0  0  0  0  0  0  0  0  0  0  0
  -20.9460  -29.9230   21.8060 H   0  0  0  0  0  0  0  0  0  0  0  0
  -18.0650  -28.1130   22.9610 C   0  0  0  0  0  0  0  0  0  0  0  0
  -20.6120  -28.4410   23.2790 C   0  0  0  0  0  3  0  0  0  0  0  0
  -20.7590  -27.0030   22.7310 C   0  0  0  0  0  2  0  0  0  0  0  0
  -19.6870  -26.6380   21.6980 C   0  0  0  0  0  2  0  0  0  0  0  0
  -18.2890  -26.7580   22.3100 C   0  0  0  0  0  2  0  0  0  0  0  0
  -19.1560  -28.9090   23.4020 C   0  0  0  0  0  0  0  0  0  0  0  0
  -18.8920  -30.1740   23.9730 C   0  0  0  0  0  3  0  0  0  0  0  0
  -17.5720  -30.6430   24.1060 C   0  0  0  0  0  3  0  0  0  0  0  0
  -16.4960  -29.8450   23.6800 C   0  0  0  0  0  3  0  0  0  0  0  0
  -16.7430  -28.5810   23.1140 C   0  0  0  0  0  3  0  0  0  0  0  0
  -25.9280  -32.6030   23.9580 C   0  0  0  0  0  3  0  0  0  0  0  0
  -25.6290  -34.0090   24.2780 N   0  0  0  0  0  0  0  0  0  0  0  0
  -25.9290  -35.0530   23.4930 C   0  0  0  0  0  0  0  0  0  0  0  0
  -26.5530  -34.9330   22.4350 O   0  0  0  0  0  0  0  0  0  0  0  0
  -25.0680  -34.1750   25.1000 H   0  0  0  0  0  0  0  0  0  0  0  0
  -24.1710  -36.8340   23.2190 C   0  0  0  0  0  1  0  0  0  0  0  0
  -25.4670  -36.4500   23.9530 C   0  0  0  0  0  3  0  0  0  0  0  0
  -27.6390  -37.3740   24.6310 C   0  0  0  0  0  1  0  0  0  0  0  0
  -26.4820  -37.5040   23.7480 N   0  0  0  0  0  0  0  0  0  0  0  0
  -26.0790  -38.4270   23.8890 H   0  0  0  0  0  0  0  0  0  0  0  0
  -26.4270  -31.8430   25.2490 C   0  0  1  0  0  0  0  0  0  0  0  0
  -25.3220  -31.6190   26.3070 C   0  0  0  0  0  1  0  0  0  0  0  0
  -27.0110  -30.4600   24.8820 C   0  0  0  0  0  1  0  0  0  0  0  0
  -27.5730  -32.6410   25.9150 C   0  0  0  0  0  1  0  0  0  0  0  0
  1 10  2  0
  2  1  1  0
  3  6  1  0
  4  7  1  0
  4  8  1  0
  6 49  1  0
  6  5  1  0
  7  3  1  0
  7  9  1  0
  8 19  1  0
  8  2  1  0
  9  5  1  0
  9  1  1  0
 11 19  1  0
 12 17  1  0
 13 14  1  0
 13 12  1  0
 15 14  1  0
 15 24  1  0
 15 16  1  0
 17 11  1  0
 17 16  1  0
 18 11  2  0
 19 20  1  0
 21 22  2  0
 22 41  1  0
 23 22  1  0
 23 26  1  0
 24 25  1  0
 24 21  1  0
 25 23  2  0
 26 27  1  0
 27 28  2  0
 29 32  1  0
 29 28  1  0
 30 29  2  0
 31 30  1  0
 31 26  2  0
 32 33  1  0
 33 38  2  0
 33 34  1  0
 34 35  2  0
 35 36  1  0
 36 40  1  0
 37 36  2  0
 38 37  1  0
 39 38  1  0
 41 42  1  0
 42 45  1  0
 42 44  1  0
 43 41  2  0
 46 47  1  0
 46 21  1  0
 48 46  1  0
 49 50  1  0
 51 62  2  0
 52 50  1  0
 52 57  1  0
 53 61  1  0
 53 63  1  0
 54 60  1  0
 54 56  1  0
 55 61  1  0
 56 55  1  0
 57 56  2  0
 58 52  2  0
 59 58  1  0
 59 54  2  0
 60 53  1  0
 61 51  1  0
 63 65  2  0
 64 63  1  0
 66 64  1  0
 67 76  2  0
 67 72  1  0
 68 64  1  0
 68 72  1  0
 69 68  1  0
 70 71  1  0
 70 69  1  0
 71 67  1  0
 72 73  2  0
 73 74  1  0
 75 74  2  0
 76 75  1  0
 77 51  1  0
 77 78  1  0
 77 87  1  0
 78 81  1  0
 79 83  1  0
 79 78  1  0
 80 79  2  0
 83 82  1  0
 85 86  1  0
 85 83  1  0
 85 84  1  0
 87 90  1  1
 87 88  1  0
 89 87  1  0
M  ISO  4  11 100  19 100  49 101  50 101
M  END
>  <TORSDO>  (32) 
F 17

>  <SCORE>  (32) 
-15.240

>  <name>  (32) 
31

>  <ligand_id>  (32) 
31

>  <original_smiles>  (32) 
[H]c1c([H])c([H])c2c(c1[H])C([H])([H])C([H])([H])C([H])([H])C2([H])N([H])C(=O)C1([H])N(C(=O)C([H])(N([H])C(=O)C([H])(N([H])C([H])([H])[H])C([H])([H])[H])C(C([H])([H])[H])(C([H])([H])[H])C([H])([H])[H])C([H])([H])c2c([H])c(OC([H])([H])C3([H])C([H])([H])N4C(=O)C([H])([H])C([H])(N([H])C(=O)N5C([H])([H])C([H])([H])C([H])([H])C([H])(n6nc(-c7c([H])c([H])c(Oc8c([H])c([H])c(F)c([H])c8F)c([H])c7[H])c(C(=O)N([H])[H])c6N([H])[H])C5([H])[H])C([H])([H])C4([H])C3([H])[H])c([H])c([H])c2C1([H])[H]

>  <smiles>  (32) 
[H]c1c([H])c([H])c2c(c1[H])C([H])([H])C([H])([H])C([H])([H])C2([H])N([H])C(=O)C1([H])N(C(=O)C([H])(N([H])C(=O)C([H])(N([H])C([H])([H])[H])C([H])([H])[H])C(C([H])([H])[H])(C([H])([H])[H])C([H])([H])[H])C([H])([H])c2c([H])c(OC([H])([H])C3([H])C([H])([H])N4C(=O)C([H])([H])C([H])(N([H])C(=O)N5C([H])([H])C([H])([H])C([H])([H])C([H])(n6nc(-c7c([H])c([H])c(Oc8c([H])c([H])c(F)c([H])c8F)c([H])c7[H])c(C(=O)N([H])[H])c6N([H])[H])C5([H])[H])C([H])([H])C4([H])C3([H])[H])c([H])c([H])c2C1([H])[H]

$$$$
32:0:0
     RDKit          3D

 94103  0  0  1  0  0  0  0  0999 V2000
  -31.9640  -18.8800   20.5990 C   0  0  0  0  0  3  0  0  0  0  0  0
  -31.6390  -17.5200   20.7710 C   0  0  0  0  0  3  0  0  0  0  0  0
  -29.2880  -18.0840   20.5950 C   0  0  0  0  0  3  0  0  0  0  0  0
  -30.9660  -19.8630   20.4230 C   0  0  0  0  0  0  0  0  0  0  0  0
  -29.6010  -19.4760   20.4330 C   0  0  0  0  0  0  0  0  0  0  0  0
  -30.2950  -17.0780   20.7310 C   0  0  0  0  0  0  0  0  0  0  0  0
  -31.4090  -21.2540   20.1240 C   0  0  0  0  0  0  0  0  0  0  0  0
  -28.4740  -20.4960   20.1190 C   0  0  0  0  0  2  0  0  0  0  0  0
  -30.8420  -22.3790   20.9900 C   0  0  0  0  0  2  0  0  0  0  0  0
  -28.4500  -21.9100   20.8150 C   0  0  0  0  0  2  0  0  0  0  0  0
  -29.5470  -22.8640   20.4400 N   0  0  1  0  0  4  0  0  0  0  0  0
  -32.2440  -21.5160   19.2540 O   0  0  0  0  0  0  0  0  0  0  0  0
  -29.6520  -22.8430   19.4360 H   0  0  0  0  0  0  0  0  0  0  0  0
  -30.6580  -14.5780   20.4100 C   0  0  0  0  0  0  0  0  0  0  0  0
  -30.3530  -12.3910   19.2970 C   0  0  0  0  0  2  0  0  0  0  0  0
  -29.4070  -12.5770   18.0930 C   0  0  0  0  0  2  0  0  0  0  0  0
  -27.9390  -12.4270   18.5320 C   0  0  0  0  0  2  0  0  0  0  0  0
  -27.6010  -13.2680   19.7930 C   0  0  0  0  0  3  0  0  0  0  0  0
  -28.6680  -13.0870   20.8980 C   0  0  0  0  0  2  0  0  0  0  0  0
  -29.9790  -13.3970   20.3110 N   0  0  0  0  0  0  0  0  0  0  0  0
  -31.8100  -14.6800   19.9840 O   0  0  0  0  0  0  0  0  0  0  0  0
  -29.9430  -15.6680   20.8180 N   0  0  0  0  0  0  0  0  0  0  0  0
  -28.9880  -15.4650   21.0710 H   0  0  0  0  0  0  0  0  0  0  0  0
  -25.2100  -13.8590   20.5260 C   0  0  0  0  0  0  0  0  0  0  0  0
  -24.1470  -13.0820   20.8990 C   0  0  0  0  0  0  0  0  0  0  0  0
  -24.6120  -11.7320   20.8600 C   0  0  0  0  0  0  0  0  0  0  0  0
  -26.2560  -12.9830   20.2840 N   0  0  0  0  0  0  0  0  0  0  0  0
  -25.9010  -11.6980   20.5440 N   0  0  0  0  0  0  0  0  0  0  0  0
  -23.8900  -10.4670   21.0490 C   0  0  0  0  0  0  0  0  0  0  0  0
  -24.3280   -9.4970   21.9780 C   0  0  0  0  0  3  0  0  0  0  0  0
  -23.6060   -8.2980   22.1550 C   0  0  0  0  0  3  0  0  0  0  0  0
  -22.4310   -8.0580   21.4010 C   0  0  0  0  0  0  0  0  0  0  0  0
  -22.0130   -9.0170   20.4610 C   0  0  0  0  0  3  0  0  0  0  0  0
  -22.7360  -10.2080   20.2830 C   0  0  0  0  0  3  0  0  0  0  0  0
  -21.6810   -6.9110   21.4880 O   0  0  0  0  0  0  0  0  0  0  0  0
  -21.6310   -6.1690   22.6400 C   0  0  0  0  0  0  0  0  0  0  0  0
  -21.1790   -6.7160   23.8600 C   0  0  0  0  0  3  0  0  0  0  0  0
  -21.0790   -5.8980   25.0040 C   0  0  0  0  0  3  0  0  0  0  0  0
  -21.4190   -4.5350   24.9270 C   0  0  0  0  0  0  0  0  0  0  0  0
  -21.8640   -3.9870   23.7110 C   0  0  0  0  0  3  0  0  0  0  0  0
  -21.9660   -4.8020   22.5700 C   0  0  0  0  0  0  0  0  0  0  0  0
  -22.3750   -4.2630   21.3960 F   0  0  0  0  0  0  0  0  0  0  0  0
  -21.3160   -3.7470   26.0240 F   0  0  0  0  0  0  0  0  0  0  0  0
  -22.7500  -13.5550   21.1810 C   0  0  0  0  0  0  0  0  0  0  0  0
  -22.0270  -12.8490   22.0430 N   0  0  0  0  0  0  0  0  0  0  0  0
  -22.3100  -14.5850   20.6730 O   0  0  0  0  0  0  0  0  0  0  0  0
  -22.3960  -12.0160   22.4760 H   0  0  0  0  0  0  0  0  0  0  0  0
  -21.0900  -13.1490   22.2740 H   0  0  0  0  0  0  0  0  0  0  0  0
  -25.3700  -15.2310   20.3510 N   0  0  0  0  0  0  0  0  0  0  0  0
  -24.5970  -15.8800   20.4580 H   0  0  0  0  0  0  0  0  0  0  0  0
  -26.2060  -15.6700   19.9850 H   0  0  0  0  0  0  0  0  0  0  0  0
  -29.3290  -24.3170   20.8360 C   0  0  0  0  0  2  0  0  0  0  0  0
  -28.2520  -25.1530   20.0630 C   0  0  0  0  0  2  0  0  0  0  0  0
  -28.3640  -26.5960   20.2950 O   0  0  0  0  0  0  0  0  0  0  0  0
  -24.5770  -31.9050   23.2490 C   0  0  0  0  0  0  0  0  0  0  0  0
  -27.2200  -27.3860   20.2190 C   0  0  0  0  0  0  0  0  0  0  0  0
  -23.3850  -30.5070   21.5960 C   0  0  0  0  0  3  0  0  0  0  0  0
  -24.8460  -28.9600   20.1850 C   0  0  0  0  0  0  0  0  0  0  0  0
  -25.9210  -30.8360   21.4330 C   0  0  0  0  0  2  0  0  0  0  0  0
  -26.0050  -29.4610   20.7910 C   0  0  0  0  0  0  0  0  0  0  0  0
  -27.1930  -28.6830   20.8020 C   0  0  0  0  0  3  0  0  0  0  0  0
  -26.0420  -26.9280   19.5800 C   0  0  0  0  0  3  0  0  0  0  0  0
  -24.8640  -27.6960   19.5720 C   0  0  0  0  0  3  0  0  0  0  0  0
  -23.6080  -29.8300   20.2180 C   0  0  0  0  0  2  0  0  0  0  0  0
  -24.6460  -31.0980   22.1500 N   0  0  0  0  0  0  0  0  0  0  0  0
  -23.4900  -32.1830   23.7740 O   0  0  0  0  0  0  0  0  0  0  0  0
  -22.7150  -29.4900   22.5490 C   0  0  0  0  0  0  0  0  0  0  0  0
  -21.3890  -29.3230   22.4140 N   0  0  0  0  0  0  0  0  0  0  0  0
  -23.3860  -28.8560   23.3670 O   0  0  0  0  0  0  0  0  0  0  0  0
  -20.9090  -29.8870   21.7280 H   0  0  0  0  0  0  0  0  0  0  0  0
  -17.9940  -28.1880   22.9190 C   0  0  0  0  0  0  0  0  0  0  0  0
  -20.5580  -28.3900   23.1770 C   0  0  0  0  0  3  0  0  0  0  0  0
  -20.6280  -26.9660   22.5810 C   0  0  0  0  0  2  0  0  0  0  0  0
  -19.5140  -26.6790   21.5700 C   0  0  0  0  0  2  0  0  0  0  0  0
  -18.1400  -26.8430   22.2250 C   0  0  0  0  0  2  0  0  0  0  0  0
  -19.1310  -28.9210   23.3520 C   0  0  0  0  0  0  0  0  0  0  0  0
  -18.9420  -30.1810   23.9610 C   0  0  0  0  0  3  0  0  0  0  0  0
  -17.6480  -30.7060   24.1410 C   0  0  0  0  0  3  0  0  0  0  0  0
  -16.5260  -29.9690   23.7250 C   0  0  0  0  0  3  0  0  0  0  0  0
  -16.7000  -28.7120   23.1200 C   0  0  0  0  0  3  0  0  0  0  0  0
  -25.8580  -32.5320   23.8820 C   0  0  0  0  0  3  0  0  0  0  0  0
  -25.5530  -33.9340   24.2000 N   0  0  0  0  0  0  0  0  0  0  0  0
  -25.8950  -34.9790   23.4370 C   0  0  0  0  0  0  0  0  0  0  0  0
  -26.5720  -34.8650   22.4100 O   0  0  0  0  0  0  0  0  0  0  0  0
  -24.9540  -34.0960   24.9960 H   0  0  0  0  0  0  0  0  0  0  0  0
  -24.1800  -36.7780   23.0530 C   0  0  0  0  0  1  0  0  0  0  0  0
  -25.4110  -36.3730   23.8800 C   0  0  0  0  0  3  0  0  0  0  0  0
  -27.5380  -37.2550   24.7320 C   0  0  0  0  0  1  0  0  0  0  0  0
  -26.4500  -37.4200   23.7710 N   0  0  0  0  0  0  0  0  0  0  0  0
  -26.0470  -38.3430   23.9050 H   0  0  0  0  0  0  0  0  0  0  0  0
  -26.3540  -31.7640   25.1680 C   0  0  1  0  0  0  0  0  0  0  0  0
  -25.2460  -31.5350   26.2220 C   0  0  0  0  0  1  0  0  0  0  0  0
  -26.9370  -30.3840   24.7890 C   0  0  0  0  0  1  0  0  0  0  0  0
  -27.4980  -32.5580   25.8430 C   0  0  0  0  0  1  0  0  0  0  0  0
  1  2  1  0
  3  6  1  0
  4  5  1  0
  4  1  2  0
  5  3  2  0
  6  2  2  0
  6 22  1  0
  7  4  1  0
  7  9  1  0
  8  5  1  0
  8 10  1  0
 11 10  1  0
 11 52  1  0
 11  9  1  0
 12  7  2  0
 11 13  1  6
 14 22  1  0
 15 20  1  0
 16 17  1  0
 16 15  1  0
 18 17  1  0
 18 27  1  0
 18 19  1  0
 20 14  1  0
 20 19  1  0
 21 14  2  0
 22 23  1  0
 24 25  2  0
 25 44  1  0
 26 25  1  0
 26 29  1  0
 27 24  1  0
 27 28  1  0
 28 26  2  0
 29 30  1  0
 30 31  2  0
 32 35  1  0
 32 31  1  0
 33 32  2  0
 34 33  1  0
 34 29  2  0
 35 36  1  0
 36 37  1  0
 37 38  2  0
 39 38  1  0
 39 43  1  0
 40 39  2  0
 41 36  2  0
 41 40  1  0
 42 41  1  0
 44 45  1  0
 45 48  1  0
 45 47  1  0
 46 44  2  0
 49 50  1  0
 49 24  1  0
 51 49  1  0
 53 54  1  0
 53 52  1  0
 55 66  2  0
 56 54  1  0
 56 61  1  0
 57 65  1  0
 57 67  1  0
 58 64  1  0
 58 60  1  0
 59 65  1  0
 60 61  2  0
 60 59  1  0
 62 56  2  0
 63 62  1  0
 63 58  2  0
 64 57  1  0
 65 55  1  0
 67 69  2  0
 68 67  1  0
 70 68  1  0
 71 80  2  0
 71 76  1  0
 72 68  1  0
 72 76  1  0
 73 72  1  0
 74 75  1  0
 74 73  1  0
 75 71  1  0
 76 77  2  0
 77 78  1  0
 79 78  2  0
 80 79  1  0
 81 55  1  0
 81 82  1  0
 81 91  1  0
 82 85  1  0
 83 87  1  0
 83 82  1  0
 84 83  2  0
 87 86  1  0
 89 87  1  0
 89 90  1  0
 89 88  1  0
 91 94  1  1
 91 92  1  0
 93 91  1  0
M  ISO  4  14 100  22 100  53 101  54 101
M  END
>  <TORSDO>  (33) 
F 18

>  <SCORE>  (33) 
-15.135

>  <name>  (33) 
32

>  <ligand_id>  (33) 
32

>  <original_smiles>  (33) 
[H]c1c([H])c([H])c2c(c1[H])C([H])([H])C([H])([H])C([H])([H])C2([H])N([H])C(=O)C1([H])N(C(=O)C([H])(N([H])C(=O)C([H])(N([H])C([H])([H])[H])C([H])([H])[H])C(C([H])([H])[H])(C([H])([H])[H])C([H])([H])[H])C([H])([H])c2c([H])c(OC([H])([H])C([H])([H])[N+]3([H])C([H])([H])C(=O)c4c([H])c([H])c(N([H])C(=O)N5C([H])([H])C([H])([H])C([H])([H])C([H])(n6nc(-c7c([H])c([H])c(Oc8c([H])c([H])c(F)c([H])c8F)c([H])c7[H])c(C(=O)N([H])[H])c6N([H])[H])C5([H])[H])c([H])c4C([H])([H])C3([H])[H])c([H])c([H])c2C1([H])[H]

>  <smiles>  (33) 
[H]c1c([H])c([H])c2c(c1[H])C([H])([H])C([H])([H])C([H])([H])C2([H])N([H])C(=O)C1([H])N(C(=O)C([H])(N([H])C(=O)C([H])(N([H])C([H])([H])[H])C([H])([H])[H])C(C([H])([H])[H])(C([H])([H])[H])C([H])([H])[H])C([H])([H])c2c([H])c(OC([H])([H])C([H])([H])[N+]3([H])C([H])([H])C(=O)c4c([H])c([H])c(N([H])C(=O)N5C([H])([H])C([H])([H])C([H])([H])C([H])(n6nc(-c7c([H])c([H])c(Oc8c([H])c([H])c(F)c([H])c8F)c([H])c7[H])c(C(=O)N([H])[H])c6N([H])[H])C5([H])[H])c([H])c4C([H])([H])C3([H])[H])c([H])c([H])c2C1([H])[H]

$$$$
33:0:0
     RDKit          3D

 95104  0  0  1  0  0  0  0  0999 V2000
  -31.3060  -18.5500   22.8340 C   0  0  0  0  0  3  0  0  0  0  0  0
  -31.2940  -17.2010   22.4080 C   0  0  0  0  0  3  0  0  0  0  0  0
  -29.3810  -17.6520   20.9290 C   0  0  0  0  0  3  0  0  0  0  0  0
  -29.4180  -18.9950   21.3600 C   0  0  0  0  0  0  0  0  0  0  0  0
  -30.3540  -19.4290   22.2930 C   0  0  0  0  0  0  0  0  0  0  0  0
  -30.3370  -16.7450   21.4660 C   0  0  0  0  0  0  0  0  0  0  0  0
  -28.5550  -20.1260   20.9780 C   0  0  0  0  0  0  0  0  0  0  0  0
  -30.1900  -20.8910   22.6350 C   0  0  0  0  0  2  0  0  0  0  0  0
  -28.9090  -21.3270   21.8800 C   0  0  0  0  0  3  0  0  0  0  0  0
  -27.7070  -20.1330   20.0800 O   0  0  0  0  0  0  0  0  0  0  0  0
  -30.8260  -14.5890   20.2900 C   0  0  0  0  0  0  0  0  0  0  0  0
  -30.5160  -12.5350   18.9340 C   0  0  0  0  0  2  0  0  0  0  0  0
  -29.5000  -12.7990   17.8000 C   0  0  0  0  0  2  0  0  0  0  0  0
  -28.0460  -12.6300   18.2870 C   0  0  0  0  0  2  0  0  0  0  0  0
  -27.7770  -13.3910   19.6110 C   0  0  0  0  0  3  0  0  0  0  0  0
  -28.8700  -13.0420   20.6450 C   0  0  0  0  0  2  0  0  0  0  0  0
  -30.1780  -13.4130   20.0650 N   0  0  0  0  0  0  0  0  0  0  0  0
  -31.8600  -14.9180   19.6980 O   0  0  0  0  0  0  0  0  0  0  0  0
  -30.2020  -15.3590   21.2030 N   0  0  0  0  0  0  0  0  0  0  0  0
  -29.3840  -14.9260   21.6010 H   0  0  0  0  0  0  0  0  0  0  0  0
  -25.4140  -14.0100   20.4220 C   0  0  0  0  0  0  0  0  0  0  0  0
  -24.3540  -13.2420   20.8200 C   0  0  0  0  0  0  0  0  0  0  0  0
  -24.7980  -11.8850   20.7320 C   0  0  0  0  0  0  0  0  0  0  0  0
  -26.4380  -13.1220   20.1280 N   0  0  0  0  0  0  0  0  0  0  0  0
  -26.0710  -11.8370   20.3630 N   0  0  0  0  0  0  0  0  0  0  0  0
  -24.0680  -10.6260   20.9180 C   0  0  0  0  0  0  0  0  0  0  0  0
  -24.5350   -9.6180   21.7920 C   0  0  0  0  0  3  0  0  0  0  0  0
  -23.8050   -8.4230   21.9590 C   0  0  0  0  0  3  0  0  0  0  0  0
  -22.5930   -8.2260   21.2570 C   0  0  0  0  0  0  0  0  0  0  0  0
  -22.1440   -9.2210   20.3710 C   0  0  0  0  0  3  0  0  0  0  0  0
  -22.8750  -10.4090   20.2010 C   0  0  0  0  0  3  0  0  0  0  0  0
  -21.8300   -7.0870   21.3420 O   0  0  0  0  0  0  0  0  0  0  0  0
  -21.8340   -6.3030   22.4670 C   0  0  0  0  0  0  0  0  0  0  0  0
  -21.5060   -6.8230   23.7400 C   0  0  0  0  0  3  0  0  0  0  0  0
  -21.4530   -5.9660   24.8580 C   0  0  0  0  0  3  0  0  0  0  0  0
  -21.7200   -4.5930   24.7060 C   0  0  0  0  0  0  0  0  0  0  0  0
  -22.0390   -4.0710   23.4400 C   0  0  0  0  0  3  0  0  0  0  0  0
  -22.0950   -4.9260   22.3250 C   0  0  0  0  0  0  0  0  0  0  0  0
  -22.3860   -4.4160   21.1040 F   0  0  0  0  0  0  0  0  0  0  0  0
  -21.6620   -3.7680   25.7790 F   0  0  0  0  0  0  0  0  0  0  0  0
  -22.9760  -13.7280   21.1700 C   0  0  0  0  0  0  0  0  0  0  0  0
  -22.2850  -13.0250   22.0610 N   0  0  0  0  0  0  0  0  0  0  0  0
  -22.5220  -14.7680   20.6930 O   0  0  0  0  0  0  0  0  0  0  0  0
  -22.6620  -12.1790   22.4640 H   0  0  0  0  0  0  0  0  0  0  0  0
  -21.3660  -13.3360   22.3450 H   0  0  0  0  0  0  0  0  0  0  0  0
  -25.6000  -15.3830   20.2660 N   0  0  0  0  0  0  0  0  0  0  0  0
  -24.8570  -16.0600   20.3920 H   0  0  0  0  0  0  0  0  0  0  0  0
  -26.4370  -15.7860   19.8640 H   0  0  0  0  0  0  0  0  0  0  0  0
  -29.0970  -22.5060   21.0140 N   0  0  0  0  0  4  0  0  0  0  0  0
  -30.0610  -22.5570   20.7180 H   0  0  0  0  0  0  0  0  0  0  0  0
  -28.5360  -22.3270   20.1980 H   0  0  0  0  0  0  0  0  0  0  0  0
  -28.6610  -23.7960   21.6100 C   0  0  0  0  0  2  0  0  0  0  0  0
  -28.3140  -24.8400   20.5350 C   0  0  0  0  0  2  0  0  0  0  0  0
  -28.9330  -26.2260   20.7710 C   0  0  0  0  0  2  0  0  0  0  0  0
  -28.7030  -27.0200   19.6110 O   0  0  0  0  0  0  0  0  0  0  0  0
  -24.6230  -31.6700   23.0120 C   0  0  0  0  0  0  0  0  0  0  0  0
  -27.4940  -27.6570   19.6410 C   0  0  0  0  0  0  0  0  0  0  0  0
  -23.4700  -30.2830   21.3090 C   0  0  0  0  0  3  0  0  0  0  0  0
  -24.9960  -28.9380   19.7690 C   0  0  0  0  0  0  0  0  0  0  0  0
  -25.9500  -30.8500   21.0730 C   0  0  0  0  0  2  0  0  0  0  0  0
  -26.1180  -29.5250   20.3670 C   0  0  0  0  0  0  0  0  0  0  0  0
  -27.3710  -28.8880   20.3060 C   0  0  0  0  0  3  0  0  0  0  0  0
  -26.3700  -27.0760   19.0180 C   0  0  0  0  0  3  0  0  0  0  0  0
  -25.1140  -27.7100   19.0890 C   0  0  0  0  0  3  0  0  0  0  0  0
  -23.6900  -29.6920   19.8890 C   0  0  0  0  0  2  0  0  0  0  0  0
  -24.6990  -30.9440   21.8590 N   0  0  0  0  0  0  0  0  0  0  0  0
  -23.5430  -31.8310   23.5920 O   0  0  0  0  0  0  0  0  0  0  0  0
  -22.9190  -29.1670   22.2260 C   0  0  0  0  0  0  0  0  0  0  0  0
  -21.6040  -28.9150   22.1330 N   0  0  0  0  0  0  0  0  0  0  0  0
  -23.6690  -28.5370   22.9740 O   0  0  0  0  0  0  0  0  0  0  0  0
  -21.0590  -29.4830   21.5010 H   0  0  0  0  0  0  0  0  0  0  0  0
  -18.3300  -27.4820   22.6430 C   0  0  0  0  0  0  0  0  0  0  0  0
  -20.8750  -27.8780   22.8620 C   0  0  0  0  0  3  0  0  0  0  0  0
  -21.0450  -26.4970   22.1890 C   0  0  0  0  0  2  0  0  0  0  0  0
  -19.9350  -26.1760   21.1840 C   0  0  0  0  0  2  0  0  0  0  0  0
  -18.5650  -26.1950   21.8690 C   0  0  0  0  0  2  0  0  0  0  0  0
  -19.4140  -28.2820   23.0940 C   0  0  0  0  0  0  0  0  0  0  0  0
  -19.1420  -29.4920   23.7700 C   0  0  0  0  0  3  0  0  0  0  0  0
  -17.8150  -29.9050   23.9930 C   0  0  0  0  0  3  0  0  0  0  0  0
  -16.7440  -29.1010   23.5590 C   0  0  0  0  0  3  0  0  0  0  0  0
  -17.0040  -27.8880   22.8940 C   0  0  0  0  0  3  0  0  0  0  0  0
  -25.8850  -32.3480   23.6360 C   0  0  0  0  0  3  0  0  0  0  0  0
  -26.4800  -31.5500   24.8620 C   0  0  1  0  0  0  0  0  0  0  0  0
  -25.4340  -31.2030   25.9450 C   0  0  0  0  0  1  0  0  0  0  0  0
  -27.1280  -30.2270   24.3880 C   0  0  0  0  0  1  0  0  0  0  0  0
  -27.5990  -32.3760   25.5360 C   0  0  0  0  0  1  0  0  0  0  0  0
  -25.5010  -33.7070   24.0360 N   0  0  0  0  0  0  0  0  0  0  0  0
  -25.7570  -34.8090   23.3170 C   0  0  0  0  0  0  0  0  0  0  0  0
  -26.4150  -34.7930   22.2750 O   0  0  0  0  0  0  0  0  0  0  0  0
  -24.9230  -33.7880   24.8590 H   0  0  0  0  0  0  0  0  0  0  0  0
  -23.9130  -36.5010   23.0730 C   0  0  0  0  0  1  0  0  0  0  0  0
  -25.1910  -36.1410   23.8470 C   0  0  0  0  0  3  0  0  0  0  0  0
  -27.2820  -37.1250   24.6750 C   0  0  0  0  0  1  0  0  0  0  0  0
  -26.1510  -37.2610   23.7620 N   0  0  0  0  0  0  0  0  0  0  0  0
  -25.6910  -38.1470   23.9550 H   0  0  0  0  0  0  0  0  0  0  0  0
  2  1  1  0
  3  4  2  0
  3  6  1  0
  4  5  1  0
  5  8  1  0
  5  1  2  0
  6  2  2  0
  7  4  1  0
  7  9  1  0
  9 49  1  0
  9  8  1  0
 10  7  2  0
 11 19  1  0
 12 17  1  0
 13 14  1  0
 13 12  1  0
 15 14  1  0
 15 24  1  0
 15 16  1  0
 17 11  1  0
 17 16  1  0
 18 11  2  0
 19  6  1  0
 19 20  1  0
 21 22  2  0
 22 41  1  0
 23 22  1  0
 23 26  1  0
 24 25  1  0
 24 21  1  0
 25 23  2  0
 26 27  1  0
 27 28  2  0
 29 32  1  0
 29 28  1  0
 30 29  2  0
 31 30  1  0
 31 26  2  0
 32 33  1  0
 33 34  1  0
 34 35  2  0
 36 35  1  0
 36 40  1  0
 37 36  2  0
 38 33  2  0
 38 37  1  0
 39 38  1  0
 41 42  1  0
 42 45  1  0
 42 44  1  0
 43 41  2  0
 46 47  1  0
 46 21  1  0
 48 46  1  0
 49 52  1  0
 50 49  1  0
 51 49  1  0
 53 54  1  0
 53 52  1  0
 55 57  1  0
 55 54  1  0
 56 67  2  0
 57 62  1  0
 58 66  1  0
 58 68  1  0
 59 65  1  0
 59 61  1  0
 60 66  1  0
 61 60  1  0
 62 61  2  0
 63 64  1  0
 63 57  2  0
 64 59  2  0
 65 58  1  0
 66 56  1  0
 68 70  2  0
 69 68  1  0
 71 69  1  0
 72 81  2  0
 72 77  1  0
 73 69  1  0
 73 77  1  0
 74 73  1  0
 75 76  1  0
 75 74  1  0
 76 72  1  0
 77 78  2  0
 78 79  1  0
 80 79  2  0
 81 80  1  0
 82 56  1  0
 82 87  1  0
 82 83  1  0
 83 86  1  1
 83 84  1  0
 85 83  1  0
 87 90  1  0
 88 92  1  0
 88 87  1  0
 89 88  2  0
 92 91  1  0
 94 92  1  0
 94 95  1  0
 94 93  1  0
M  ISO  4  11 100  19 100  54 101  55 101
M  END
>  <TORSDO>  (34) 
F 20

>  <SCORE>  (34) 
-11.406

>  <name>  (34) 
33

>  <ligand_id>  (34) 
33

>  <original_smiles>  (34) 
[H]c1c([H])c([H])c2c(c1[H])C([H])([H])C([H])([H])C([H])([H])C2([H])N([H])C(=O)C1([H])N(C(=O)C([H])(N([H])C(=O)C([H])(N([H])C([H])([H])[H])C([H])([H])[H])C(C([H])([H])[H])(C([H])([H])[H])C([H])([H])[H])C([H])([H])c2c([H])c(OC([H])([H])C([H])([H])C([H])([H])[N+]([H])([H])C3([H])C(=O)c4c([H])c(N([H])C(=O)N5C([H])([H])C([H])([H])C([H])([H])C([H])(n6nc(-c7c([H])c([H])c(Oc8c([H])c([H])c(F)c([H])c8F)c([H])c7[H])c(C(=O)N([H])[H])c6N([H])[H])C5([H])[H])c([H])c([H])c4C3([H])[H])c([H])c([H])c2C1([H])[H]

>  <smiles>  (34) 
[H]c1c([H])c([H])c2c(c1[H])C([H])([H])C([H])([H])C([H])([H])C2([H])N([H])C(=O)C1([H])N(C(=O)C([H])(N([H])C(=O)C([H])(N([H])C([H])([H])[H])C([H])([H])[H])C(C([H])([H])[H])(C([H])([H])[H])C([H])([H])[H])C([H])([H])c2c([H])c(OC([H])([H])C([H])([H])C([H])([H])[N+]([H])([H])C3([H])C(=O)c4c([H])c(N([H])C(=O)N5C([H])([H])C([H])([H])C([H])([H])C([H])(n6nc(-c7c([H])c([H])c(Oc8c([H])c([H])c(F)c([H])c8F)c([H])c7[H])c(C(=O)N([H])[H])c6N([H])[H])C5([H])[H])c([H])c([H])c4C3([H])[H])c([H])c([H])c2C1([H])[H]

$$$$
34:0:0
     RDKit          3D

 92101  0  0  1  0  0  0  0  0999 V2000
  -30.9240  -23.2140   18.3210 C   0  0  0  0  0  2  0  0  0  0  0  0
  -29.7740  -22.2110   18.3160 C   0  0  0  0  0  2  0  0  0  0  0  0
  -30.8320  -23.1640   19.8430 C   0  0  0  0  0  2  0  0  0  0  0  0
  -29.3560  -22.7050   19.7260 C   0  0  2  0  0  0  0  0  0  0  0  0
  -28.9580  -21.5510   20.7470 C   0  0  0  0  0  2  0  0  0  0  0  0
  -28.2090  -19.0920   20.3730 C   0  0  0  0  0  3  0  0  0  0  0  0
  -30.5770  -19.4420   20.5440 C   0  0  0  0  0  3  0  0  0  0  0  0
  -28.4250  -17.6860   20.3580 C   0  0  0  0  0  3  0  0  0  0  0  0
  -30.7980  -18.0220   20.5050 C   0  0  0  0  0  3  0  0  0  0  0  0
  -29.2730  -20.0200   20.4950 C   0  0  0  0  0  0  0  0  0  0  0  0
  -29.7140  -17.1020   20.4380 C   0  0  0  0  0  0  0  0  0  0  0  0
  -30.6280  -14.6570   20.0870 C   0  0  0  0  0  0  0  0  0  0  0  0
  -30.4190  -12.4430   18.9640 C   0  0  0  0  0  2  0  0  0  0  0  0
  -29.4060  -12.5980   17.8070 C   0  0  0  0  0  2  0  0  0  0  0  0
  -27.9550  -12.4190   18.3040 C   0  0  0  0  0  2  0  0  0  0  0  0
  -27.6600  -13.2390   19.5860 C   0  0  0  0  0  3  0  0  0  0  0  0
  -28.7730  -13.0330   20.6380 C   0  0  0  0  0  2  0  0  0  0  0  0
  -30.0510  -13.4160   20.0120 N   0  0  0  0  0  0  0  0  0  0  0  0
  -31.7630  -14.8730   19.6490 O   0  0  0  0  0  0  0  0  0  0  0  0
  -29.7790  -15.6410   20.5250 N   0  0  0  0  0  0  0  0  0  0  0  0
  -28.9130  -15.2290   20.8380 H   0  0  0  0  0  0  0  0  0  0  0  0
  -25.2940  -13.8200   20.4090 C   0  0  0  0  0  0  0  0  0  0  0  0
  -24.2510  -13.0380   20.8270 C   0  0  0  0  0  0  0  0  0  0  0  0
  -24.7220  -11.6910   20.7690 C   0  0  0  0  0  0  0  0  0  0  0  0
  -26.3340  -12.9490   20.1260 N   0  0  0  0  0  0  0  0  0  0  0  0
  -25.9980  -11.6630   20.4010 N   0  0  0  0  0  0  0  0  0  0  0  0
  -24.0150  -10.4230   20.9840 C   0  0  0  0  0  0  0  0  0  0  0  0
  -24.4660   -9.4780   21.9320 C   0  0  0  0  0  3  0  0  0  0  0  0
  -23.7570   -8.2740   22.1350 C   0  0  0  0  0  3  0  0  0  0  0  0
  -22.5850   -8.0070   21.3890 C   0  0  0  0  0  0  0  0  0  0  0  0
  -22.1550   -8.9390   20.4290 C   0  0  0  0  0  3  0  0  0  0  0  0
  -22.8630  -10.1350   20.2250 C   0  0  0  0  0  3  0  0  0  0  0  0
  -21.8470   -6.8530   21.4990 O   0  0  0  0  0  0  0  0  0  0  0  0
  -21.7830   -6.1500   22.6760 C   0  0  0  0  0  0  0  0  0  0  0  0
  -21.2800   -6.7270   23.8630 C   0  0  0  0  0  3  0  0  0  0  0  0
  -21.1670   -5.9480   25.0310 C   0  0  0  0  0  3  0  0  0  0  0  0
  -21.5500   -4.5930   25.0140 C   0  0  0  0  0  0  0  0  0  0  0  0
  -22.0460   -4.0160   23.8330 C   0  0  0  0  0  3  0  0  0  0  0  0
  -22.1610   -4.7920   22.6660 C   0  0  0  0  0  0  0  0  0  0  0  0
  -22.6210   -4.2260   21.5250 F   0  0  0  0  0  0  0  0  0  0  0  0
  -21.4340   -3.8420   26.1350 F   0  0  0  0  0  0  0  0  0  0  0  0
  -22.8640  -13.5040   21.1620 C   0  0  0  0  0  0  0  0  0  0  0  0
  -22.1810  -12.8000   22.0580 N   0  0  0  0  0  0  0  0  0  0  0  0
  -22.3950  -14.5270   20.6650 O   0  0  0  0  0  0  0  0  0  0  0  0
  -22.5740  -11.9710   22.4810 H   0  0  0  0  0  0  0  0  0  0  0  0
  -21.2520  -13.0930   22.3250 H   0  0  0  0  0  0  0  0  0  0  0  0
  -25.4330  -15.1910   20.2190 N   0  0  0  0  0  0  0  0  0  0  0  0
  -24.6430  -15.8180   20.3240 H   0  0  0  0  0  0  0  0  0  0  0  0
  -26.2080  -15.6120   19.7240 H   0  0  0  0  0  0  0  0  0  0  0  0
  -28.2970  -23.9160   19.6620 C   0  0  0  0  0  2  0  0  0  0  0  0
  -28.3440  -25.1440   20.6750 C   0  0  0  0  0  2  0  0  0  0  0  0
  -28.4140  -26.5300   20.1670 O   0  0  0  0  0  0  0  0  0  0  0  0
  -24.6000  -31.8120   23.2680 C   0  0  0  0  0  0  0  0  0  0  0  0
  -27.2690  -27.3300   20.1790 C   0  0  0  0  0  0  0  0  0  0  0  0
  -23.4210  -30.4480   21.5770 C   0  0  0  0  0  3  0  0  0  0  0  0
  -24.8960  -28.9160   20.1540 C   0  0  0  0  0  0  0  0  0  0  0  0
  -25.9600  -30.7750   21.4400 C   0  0  0  0  0  2  0  0  0  0  0  0
  -26.0530  -29.4080   20.7740 C   0  0  0  0  0  0  0  0  0  0  0  0
  -27.2450  -28.6280   20.7700 C   0  0  0  0  0  3  0  0  0  0  0  0
  -26.0920  -26.8720   19.5530 C   0  0  0  0  0  3  0  0  0  0  0  0
  -24.9170  -27.6530   19.5350 C   0  0  0  0  0  3  0  0  0  0  0  0
  -23.6580  -29.7910   20.1920 C   0  0  0  0  0  2  0  0  0  0  0  0
  -24.6780  -31.0270   22.1540 N   0  0  0  0  0  0  0  0  0  0  0  0
  -23.5080  -32.0820   23.7900 O   0  0  0  0  0  0  0  0  0  0  0  0
  -22.7400  -29.4160   22.5080 C   0  0  0  0  0  0  0  0  0  0  0  0
  -21.4140  -29.2580   22.3630 N   0  0  0  0  0  0  0  0  0  0  0  0
  -23.4040  -28.7630   23.3160 O   0  0  0  0  0  0  0  0  0  0  0  0
  -20.9390  -29.8350   21.6830 H   0  0  0  0  0  0  0  0  0  0  0  0
  -18.0140  -28.1140   22.8240 C   0  0  0  0  0  0  0  0  0  0  0  0
  -20.5770  -28.3110   23.1010 C   0  0  0  0  0  3  0  0  0  0  0  0
  -20.6490  -26.8990   22.4750 C   0  0  0  0  0  2  0  0  0  0  0  0
  -19.5410  -26.6350   21.4520 C   0  0  0  0  0  2  0  0  0  0  0  0
  -18.1610  -26.7860   22.1000 C   0  0  0  0  0  2  0  0  0  0  0  0
  -19.1480  -28.8380   23.2790 C   0  0  0  0  0  0  0  0  0  0  0  0
  -18.9560  -30.0840   23.9140 C   0  0  0  0  0  3  0  0  0  0  0  0
  -17.6620  -30.6060   24.0990 C   0  0  0  0  0  3  0  0  0  0  0  0
  -16.5420  -29.8790   23.6600 C   0  0  0  0  0  3  0  0  0  0  0  0
  -16.7190  -28.6340   23.0290 C   0  0  0  0  0  3  0  0  0  0  0  0
  -25.8730  -32.4270   23.9260 C   0  0  0  0  0  3  0  0  0  0  0  0
  -26.3580  -31.6360   25.2030 C   0  0  1  0  0  0  0  0  0  0  0  0
  -25.2390  -31.3880   26.2430 C   0  0  0  0  0  1  0  0  0  0  0  0
  -26.9430  -30.2610   24.8060 C   0  0  0  0  0  1  0  0  0  0  0  0
  -27.4980  -32.4150   25.9010 C   0  0  0  0  0  1  0  0  0  0  0  0
  -25.5660  -33.8230   24.2690 N   0  0  0  0  0  0  0  0  0  0  0  0
  -25.9200  -34.8850   23.5310 C   0  0  0  0  0  0  0  0  0  0  0  0
  -26.6090  -34.7900   22.5110 O   0  0  0  0  0  0  0  0  0  0  0  0
  -24.9570  -33.9710   25.0600 H   0  0  0  0  0  0  0  0  0  0  0  0
  -24.2180  -36.7000   23.1580 C   0  0  0  0  0  1  0  0  0  0  0  0
  -25.4320  -36.2700   23.9970 C   0  0  0  0  0  3  0  0  0  0  0  0
  -27.5460  -37.1280   24.9080 C   0  0  0  0  0  1  0  0  0  0  0  0
  -26.4770  -37.3150   23.9290 N   0  0  0  0  0  0  0  0  0  0  0  0
  -26.0740  -38.2370   24.0720 H   0  0  0  0  0  0  0  0  0  0  0  0
  1  3  1  0
  2  1  1  0
  2  4  1  0
  4  3  1  0
  4  5  1  1
  6 10  1  0
  8  6  2  0
  8 11  1  0
  9  7  1  0
 10  7  2  0
 10  5  1  0
 11  9  2  0
 11 20  1  0
 12 20  1  0
 13 18  1  0
 14 15  1  0
 14 13  1  0
 16 15  1  0
 16 25  1  0
 16 17  1  0
 18 12  1  0
 18 17  1  0
 19 12  2  0
 20 21  1  0
 22 23  2  0
 23 42  1  0
 24 23  1  0
 24 27  1  0
 25 26  1  0
 25 22  1  0
 26 24  2  0
 27 28  1  0
 28 29  2  0
 30 33  1  0
 30 29  1  0
 31 30  2  0
 32 31  1  0
 32 27  2  0
 33 34  1  0
 34 35  1  0
 35 36  2  0
 37 36  1  0
 37 41  1  0
 38 37  2  0
 39 34  2  0
 39 38  1  0
 40 39  1  0
 42 43  1  0
 43 46  1  0
 43 45  1  0
 44 42  2  0
 47 48  1  0
 47 22  1  0
 49 47  1  0
 50  4  1  0
 50 51  1  0
 52 54  1  0
 52 51  1  0
 53 64  2  0
 54 59  1  0
 55 63  1  0
 55 65  1  0
 56 62  1  0
 56 58  1  0
 57 63  1  0
 58 57  1  0
 59 58  2  0
 60 54  2  0
 61 60  1  0
 61 56  2  0
 62 55  1  0
 63 53  1  0
 65 67  2  0
 66 65  1  0
 68 66  1  0
 69 78  2  0
 69 74  1  0
 70 66  1  0
 70 74  1  0
 71 70  1  0
 72 73  1  0
 72 71  1  0
 73 69  1  0
 74 75  2  0
 75 76  1  0
 77 76  2  0
 78 77  1  0
 79 53  1  0
 79 84  1  0
 79 80  1  0
 80 83  1  1
 80 81  1  0
 82 80  1  0
 84 87  1  0
 85 89  1  0
 85 84  1  0
 86 85  2  0
 89 88  1  0
 91 89  1  0
 91 92  1  0
 91 90  1  0
M  ISO  4  12 100  20 100  51 101  52 101
M  END
>  <TORSDO>  (35) 
F 20

>  <SCORE>  (35) 
-13.946

>  <name>  (35) 
34

>  <ligand_id>  (35) 
34

>  <original_smiles>  (35) 
[H]c1c([H])c([H])c2c(c1[H])C([H])([H])C([H])([H])C([H])([H])C2([H])N([H])C(=O)C1([H])N(C(=O)C([H])(N([H])C(=O)C([H])(N([H])C([H])([H])[H])C([H])([H])[H])C(C([H])([H])[H])(C([H])([H])[H])C([H])([H])[H])C([H])([H])c2c([H])c(OC([H])([H])C([H])([H])C3(C([H])([H])c4c([H])c([H])c(N([H])C(=O)N5C([H])([H])C([H])([H])C([H])([H])C([H])(n6nc(-c7c([H])c([H])c(Oc8c([H])c([H])c(F)c([H])c8F)c([H])c7[H])c(C(=O)N([H])[H])c6N([H])[H])C5([H])[H])c([H])c4[H])C([H])([H])C([H])([H])C3([H])[H])c([H])c([H])c2C1([H])[H]

>  <smiles>  (35) 
[H]c1c([H])c([H])c2c(c1[H])C([H])([H])C([H])([H])C([H])([H])C2([H])N([H])C(=O)C1([H])N(C(=O)C([H])(N([H])C(=O)C([H])(N([H])C([H])([H])[H])C([H])([H])[H])C(C([H])([H])[H])(C([H])([H])[H])C([H])([H])[H])C([H])([H])c2c([H])c(OC([H])([H])C([H])([H])C3(C([H])([H])c4c([H])c([H])c(N([H])C(=O)N5C([H])([H])C([H])([H])C([H])([H])C([H])(n6nc(-c7c([H])c([H])c(Oc8c([H])c([H])c(F)c([H])c8F)c([H])c7[H])c(C(=O)N([H])[H])c6N([H])[H])C5([H])[H])c([H])c4[H])C([H])([H])C([H])([H])C3([H])[H])c([H])c([H])c2C1([H])[H]

$$$$
35:0:0
     RDKit          3D

 94104  0  0  1  0  0  0  0  0999 V2000
  -29.3610  -21.6980   22.5060 C   0  0  0  0  0  2  0  0  0  0  0  0
  -28.1240  -22.0060   20.3360 C   0  0  0  0  0  2  0  0  0  0  0  0
  -30.1810  -22.9620   22.1670 C   0  0  0  0  0  2  0  0  0  0  0  0
  -28.9470  -23.2970   20.0840 C   0  0  0  0  0  2  0  0  0  0  0  0
  -28.8130  -20.9710   21.2600 C   0  0  0  0  0  3  0  0  0  0  0  0
  -29.4030  -23.9350   21.3500 N   0  0  2  0  0  4  0  0  0  0  0  0
  -28.5760  -24.1560   21.8840 H   0  0  0  0  0  0  0  0  0  0  0  0
  -30.7340  -14.7680   20.1700 C   0  0  0  0  0  0  0  0  0  0  0  0
  -30.4690  -12.5740   19.0860 C   0  0  0  0  0  2  0  0  0  0  0  0
  -29.4920  -12.7540   17.9060 C   0  0  0  0  0  2  0  0  0  0  0  0
  -28.0300  -12.5920   18.3750 C   0  0  0  0  0  2  0  0  0  0  0  0
  -27.7110  -13.4260   19.6430 C   0  0  0  0  0  3  0  0  0  0  0  0
  -28.8030  -13.2270   20.7200 C   0  0  0  0  0  2  0  0  0  0  0  0
  -30.0950  -13.5650   20.1080 N   0  0  0  0  0  0  0  0  0  0  0  0
  -31.9060  -14.8930   19.8010 O   0  0  0  0  0  0  0  0  0  0  0  0
  -29.7940  -18.8040   20.2300 C   0  0  0  0  0  0  0  0  0  0  0  0
  -29.8680  -20.1190   20.5470 C   0  0  0  0  0  3  0  0  0  0  0  0
  -30.7770  -18.0580   19.3500 C   0  0  0  0  0  2  0  0  0  0  0  0
  -28.5170  -17.3560   18.9580 C   0  0  0  0  0  2  0  0  0  0  0  0
  -29.0920  -16.5210   21.0910 C   0  0  0  0  0  2  0  0  0  0  0  0
  -28.6300  -17.8380   20.3970 C   0  0  0  0  0  3  0  0  0  0  0  0
  -29.9470  -16.8090   18.9460 C   0  0  0  0  0  3  0  0  0  0  0  0
  -29.9050  -15.8470   20.0600 N   0  0  0  0  0  0  0  0  0  0  0  0
  -25.3320  -14.0230   20.4140 C   0  0  0  0  0  0  0  0  0  0  0  0
  -24.2770  -13.2410   20.8030 C   0  0  0  0  0  0  0  0  0  0  0  0
  -24.7480  -11.8930   20.7540 C   0  0  0  0  0  0  0  0  0  0  0  0
  -26.3760  -13.1470   20.1560 N   0  0  0  0  0  0  0  0  0  0  0  0
  -26.0290  -11.8630   20.4190 N   0  0  0  0  0  0  0  0  0  0  0  0
  -24.0350  -10.6250   20.9550 C   0  0  0  0  0  0  0  0  0  0  0  0
  -24.4760   -9.6770   21.9040 C   0  0  0  0  0  3  0  0  0  0  0  0
  -23.7670   -8.4720   22.0930 C   0  0  0  0  0  3  0  0  0  0  0  0
  -22.6030   -8.2080   21.3320 C   0  0  0  0  0  0  0  0  0  0  0  0
  -22.1840   -9.1460   20.3710 C   0  0  0  0  0  3  0  0  0  0  0  0
  -22.8930  -10.3420   20.1810 C   0  0  0  0  0  3  0  0  0  0  0  0
  -21.8640   -7.0550   21.4300 O   0  0  0  0  0  0  0  0  0  0  0  0
  -21.7830   -6.3480   22.6030 C   0  0  0  0  0  0  0  0  0  0  0  0
  -21.2850   -6.9290   23.7910 C   0  0  0  0  0  3  0  0  0  0  0  0
  -21.1560   -6.1470   24.9560 C   0  0  0  0  0  3  0  0  0  0  0  0
  -21.5140   -4.7860   24.9340 C   0  0  0  0  0  0  0  0  0  0  0  0
  -22.0040   -4.2050   23.7510 C   0  0  0  0  0  3  0  0  0  0  0  0
  -22.1370   -4.9850   22.5900 C   0  0  0  0  0  0  0  0  0  0  0  0
  -22.5910   -4.4150   21.4450 F   0  0  0  0  0  0  0  0  0  0  0  0
  -21.3830   -4.0320   26.0510 F   0  0  0  0  0  0  0  0  0  0  0  0
  -22.8830  -13.7070   21.1100 C   0  0  0  0  0  0  0  0  0  0  0  0
  -22.1820  -13.0000   21.9890 N   0  0  0  0  0  0  0  0  0  0  0  0
  -22.4260  -14.7320   20.6060 O   0  0  0  0  0  0  0  0  0  0  0  0
  -22.5650  -12.1730   22.4230 H   0  0  0  0  0  0  0  0  0  0  0  0
  -21.2450  -13.2920   22.2330 H   0  0  0  0  0  0  0  0  0  0  0  0
  -25.4800  -15.3960   20.2410 N   0  0  0  0  0  0  0  0  0  0  0  0
  -24.7100  -16.0390   20.3850 H   0  0  0  0  0  0  0  0  0  0  0  0
  -26.3310  -15.8490   19.9370 H   0  0  0  0  0  0  0  0  0  0  0  0
  -30.1330  -25.2300   21.1400 C   0  0  0  0  0  2  0  0  0  0  0  0
  -29.2750  -26.5100   21.3440 C   0  0  0  0  0  2  0  0  0  0  0  0
  -28.6410  -26.8690   20.1200 O   0  0  0  0  0  0  0  0  0  0  0  0
  -24.6350  -31.9630   23.2330 C   0  0  0  0  0  0  0  0  0  0  0  0
  -27.4840  -27.6140   20.1960 C   0  0  0  0  0  0  0  0  0  0  0  0
  -23.5090  -30.5290   21.5600 C   0  0  0  0  0  3  0  0  0  0  0  0
  -25.0440  -29.0400   20.1680 C   0  0  0  0  0  0  0  0  0  0  0  0
  -26.0280  -30.9640   21.4230 C   0  0  0  0  0  2  0  0  0  0  0  0
  -26.1710  -29.5940   20.7910 C   0  0  0  0  0  0  0  0  0  0  0  0
  -27.3960  -28.8840   20.8140 C   0  0  0  0  0  3  0  0  0  0  0  0
  -26.3440  -27.0780   19.5650 C   0  0  0  0  0  3  0  0  0  0  0  0
  -25.1240  -27.7780   19.5560 C   0  0  0  0  0  3  0  0  0  0  0  0
  -23.7740  -29.8590   20.1840 C   0  0  0  0  0  2  0  0  0  0  0  0
  -24.7410  -31.1670   22.1310 N   0  0  0  0  0  0  0  0  0  0  0  0
  -23.5360  -32.2000   23.7510 O   0  0  0  0  0  0  0  0  0  0  0  0
  -22.8690  -29.4870   22.5030 C   0  0  0  0  0  0  0  0  0  0  0  0
  -21.5480  -29.2850   22.3640 N   0  0  0  0  0  0  0  0  0  0  0  0
  -23.5580  -28.8610   23.3140 O   0  0  0  0  0  0  0  0  0  0  0  0
  -21.0520  -29.8410   21.6820 H   0  0  0  0  0  0  0  0  0  0  0  0
  -18.1840  -28.0630   22.8600 C   0  0  0  0  0  0  0  0  0  0  0  0
  -20.7420  -28.3230   23.1180 C   0  0  0  0  0  3  0  0  0  0  0  0
  -20.8460  -26.9080   22.5050 C   0  0  0  0  0  2  0  0  0  0  0  0
  -19.7380  -26.6060   21.4930 C   0  0  0  0  0  2  0  0  0  0  0  0
  -18.3600  -26.7300   22.1490 C   0  0  0  0  0  2  0  0  0  0  0  0
  -19.3030  -28.8180   23.3000 C   0  0  0  0  0  0  0  0  0  0  0  0
  -19.0850  -30.0650   23.9250 C   0  0  0  0  0  3  0  0  0  0  0  0
  -17.7800  -30.5590   24.1130 C   0  0  0  0  0  3  0  0  0  0  0  0
  -16.6740  -29.8000   23.6890 C   0  0  0  0  0  3  0  0  0  0  0  0
  -16.8760  -28.5540   23.0680 C   0  0  0  0  0  3  0  0  0  0  0  0
  -25.8890  -32.6320   23.8790 C   0  0  0  0  0  3  0  0  0  0  0  0
  -25.5350  -34.0210   24.1960 N   0  0  0  0  0  0  0  0  0  0  0  0
  -25.8520  -35.0790   23.4370 C   0  0  0  0  0  0  0  0  0  0  0  0
  -26.5440  -34.9870   22.4200 O   0  0  0  0  0  0  0  0  0  0  0  0
  -24.9230  -34.1650   24.9870 H   0  0  0  0  0  0  0  0  0  0  0  0
  -24.0860  -36.8200   23.0320 C   0  0  0  0  0  1  0  0  0  0  0  0
  -25.3170  -36.4550   23.8760 C   0  0  0  0  0  3  0  0  0  0  0  0
  -27.4030  -37.4030   24.7590 C   0  0  0  0  0  1  0  0  0  0  0  0
  -26.3230  -37.5340   23.7840 N   0  0  0  0  0  0  0  0  0  0  0  0
  -25.8890  -38.4440   23.9140 H   0  0  0  0  0  0  0  0  0  0  0  0
  -26.4010  -31.8760   25.1670 C   0  0  1  0  0  0  0  0  0  0  0  0
  -25.2920  -31.6000   26.2060 C   0  0  0  0  0  1  0  0  0  0  0  0
  -27.0420  -30.5200   24.7860 C   0  0  0  0  0  1  0  0  0  0  0  0
  -27.5060  -32.7100   25.8580 C   0  0  0  0  0  1  0  0  0  0  0  0
  2  5  1  0
  3  1  1  0
  4  2  1  0
  4  6  1  0
  5 17  1  0
  5  1  1  0
  6  7  1  1
  6  3  1  0
  9 14  1  0
 10 11  1  0
 10  9  1  0
 12 11  1  0
 12 27  1  0
 12 13  1  0
 14  8  1  0
 14 13  1  0
 15  8  2  0
 16 21  1  0
 16 17  2  0
 18 16  1  0
 21 19  1  0
 21 20  1  0
 22 19  1  0
 22 18  1  0
 22 23  1  0
 23  8  1  0
 23 20  1  0
 24 25  2  0
 25 44  1  0
 26 25  1  0
 26 29  1  0
 27 24  1  0
 27 28  1  0
 28 26  2  0
 29 30  1  0
 30 31  2  0
 32 35  1  0
 32 31  1  0
 33 32  2  0
 34 33  1  0
 34 29  2  0
 35 36  1  0
 36 37  1  0
 37 38  2  0
 39 38  1  0
 39 43  1  0
 40 39  2  0
 41 36  2  0
 41 40  1  0
 42 41  1  0
 44 45  1  0
 45 48  1  0
 45 47  1  0
 46 44  2  0
 49 50  1  0
 49 24  1  0
 51 49  1  0
 52 53  1  0
 52  6  1  0
 54 56  1  0
 54 53  1  0
 55 66  2  0
 56 61  1  0
 57 65  1  0
 57 67  1  0
 58 64  1  0
 58 60  1  0
 59 65  1  0
 60 61  2  0
 60 59  1  0
 62 56  2  0
 63 62  1  0
 63 58  2  0
 64 57  1  0
 65 55  1  0
 67 69  2  0
 68 67  1  0
 70 68  1  0
 71 80  2  0
 71 76  1  0
 72 68  1  0
 72 76  1  0
 73 72  1  0
 74 75  1  0
 74 73  1  0
 75 71  1  0
 76 77  2  0
 77 78  1  0
 79 78  2  0
 80 79  1  0
 81 55  1  0
 81 82  1  0
 81 91  1  0
 82 85  1  0
 83 87  1  0
 83 82  1  0
 84 83  2  0
 87 86  1  0
 89 87  1  0
 89 90  1  0
 89 88  1  0
 91 94  1  1
 91 92  1  0
 93 91  1  0
M  ISO  4   8 100  23 100  53 101  54 101
M  END
>  <TORSDO>  (36) 
F 18

>  <SCORE>  (36) 
-15.244

>  <name>  (36) 
35

>  <ligand_id>  (36) 
35

>  <original_smiles>  (36) 
[H]C(=C1C([H])([H])C2([H])N(C(=O)N3C([H])([H])C([H])([H])C([H])([H])C([H])(n4nc(-c5c([H])c([H])c(Oc6c([H])c([H])c(F)c([H])c6F)c([H])c5[H])c(C(=O)N([H])[H])c4N([H])[H])C3([H])[H])C([H])([H])C1([H])C2([H])[H])C1([H])C([H])([H])C([H])([H])[N+]([H])(C([H])([H])C([H])([H])Oc2c([H])c([H])c3c(c2[H])C([H])([H])N(C(=O)C([H])(N([H])C(=O)C([H])(N([H])C([H])([H])[H])C([H])([H])[H])C(C([H])([H])[H])(C([H])([H])[H])C([H])([H])[H])C([H])(C(=O)N([H])C2([H])c4c([H])c([H])c([H])c([H])c4C([H])([H])C([H])([H])C2([H])[H])C3([H])[H])C([H])([H])C1([H])[H]

>  <smiles>  (36) 
[H]C(=C1C([H])([H])C2([H])N(C(=O)N3C([H])([H])C([H])([H])C([H])([H])C([H])(n4nc(-c5c([H])c([H])c(Oc6c([H])c([H])c(F)c([H])c6F)c([H])c5[H])c(C(=O)N([H])[H])c4N([H])[H])C3([H])[H])C([H])([H])C1([H])C2([H])[H])C1([H])C([H])([H])C([H])([H])[N+]([H])(C([H])([H])C([H])([H])Oc2c([H])c([H])c3c(c2[H])C([H])([H])N(C(=O)C([H])(N([H])C(=O)C([H])(N([H])C([H])([H])[H])C([H])([H])[H])C(C([H])([H])[H])(C([H])([H])[H])C([H])([H])[H])C([H])(C(=O)N([H])C2([H])c4c([H])c([H])c([H])c([H])c4C([H])([H])C([H])([H])C2([H])[H])C3([H])[H])C([H])([H])C1([H])[H]

$$$$
36:0:0
     RDKit          3D

 90 98  0  0  1  0  0  0  0  0999 V2000
  -27.6770  -21.8480   21.9230 C   0  0  0  0  0  3  0  0  0  0  0  0
  -28.3920  -20.7350   21.4440 C   0  0  0  0  0  3  0  0  0  0  0  0
  -28.0610  -23.1490   21.5510 C   0  0  0  0  0  3  0  0  0  0  0  0
  -29.8790  -22.2270   20.2180 C   0  0  0  0  0  3  0  0  0  0  0  0
  -29.5190  -20.9100   20.6080 C   0  0  0  0  0  0  0  0  0  0  0  0
  -29.1510  -23.3550   20.6760 C   0  0  0  0  0  0  0  0  0  0  0  0
  -30.2960  -19.7430   20.1340 C   0  0  0  0  0  3  0  0  0  0  0  0
  -29.8970  -18.4490   20.1310 C   0  0  0  0  0  3  0  0  0  0  0  0
  -30.7670  -17.2910   19.6600 C   0  0  0  0  0  2  0  0  0  0  0  0
  -31.1260  -14.8660   19.9710 C   0  0  0  0  0  0  0  0  0  0  0  0
  -30.8100  -12.6480   18.9790 C   0  0  0  0  0  2  0  0  0  0  0  0
  -29.8580  -12.8050   17.7770 C   0  0  0  0  0  2  0  0  0  0  0  0
  -28.3920  -12.6670   18.2320 C   0  0  0  0  0  2  0  0  0  0  0  0
  -28.0580  -13.5610   19.4570 C   0  0  0  0  0  3  0  0  0  0  0  0
  -29.1350  -13.4280   20.5600 C   0  0  0  0  0  2  0  0  0  0  0  0
  -30.4470  -13.6890   19.9510 N   0  0  0  0  0  0  0  0  0  0  0  0
  -32.2800  -14.9780   19.5480 O   0  0  0  0  0  0  0  0  0  0  0  0
  -30.3910  -15.9700   20.2020 N   0  0  0  0  0  0  0  0  0  0  0  0
  -29.4420  -15.8360   20.5190 H   0  0  0  0  0  0  0  0  0  0  0  0
  -25.6810  -14.1710   20.2390 C   0  0  0  0  0  0  0  0  0  0  0  0
  -24.6210  -13.4010   20.6350 C   0  0  0  0  0  0  0  0  0  0  0  0
  -25.0770  -12.0480   20.5870 C   0  0  0  0  0  0  0  0  0  0  0  0
  -26.7170  -13.2870   19.9740 N   0  0  0  0  0  0  0  0  0  0  0  0
  -26.3580  -12.0050   20.2450 N   0  0  0  0  0  0  0  0  0  0  0  0
  -24.3500  -10.7860   20.7910 C   0  0  0  0  0  0  0  0  0  0  0  0
  -24.7350   -9.8650   21.7900 C   0  0  0  0  0  3  0  0  0  0  0  0
  -24.0110   -8.6680   21.9770 C   0  0  0  0  0  3  0  0  0  0  0  0
  -22.8870   -8.3850   21.1670 C   0  0  0  0  0  0  0  0  0  0  0  0
  -22.5190   -9.2960   20.1600 C   0  0  0  0  0  3  0  0  0  0  0  0
  -23.2440  -10.4830   19.9700 C   0  0  0  0  0  3  0  0  0  0  0  0
  -22.1350   -7.2370   21.2630 O   0  0  0  0  0  0  0  0  0  0  0  0
  -21.9390   -6.6040   22.4640 C   0  0  0  0  0  0  0  0  0  0  0  0
  -21.3180   -7.2500   23.5550 C   0  0  0  0  0  3  0  0  0  0  0  0
  -21.0700   -6.5410   24.7470 C   0  0  0  0  0  3  0  0  0  0  0  0
  -21.4360   -5.1860   24.8480 C   0  0  0  0  0  0  0  0  0  0  0  0
  -22.0510   -4.5390   23.7620 C   0  0  0  0  0  3  0  0  0  0  0  0
  -22.2990   -5.2460   22.5730 C   0  0  0  0  0  0  0  0  0  0  0  0
  -22.8700   -4.6110   21.5200 F   0  0  0  0  0  0  0  0  0  0  0  0
  -21.1930   -4.5000   25.9890 F   0  0  0  0  0  0  0  0  0  0  0  0
  -23.2310  -13.8830   20.9400 C   0  0  0  0  0  0  0  0  0  0  0  0
  -22.5190  -13.1980   21.8280 N   0  0  0  0  0  0  0  0  0  0  0  0
  -22.7830  -14.9070   20.4250 O   0  0  0  0  0  0  0  0  0  0  0  0
  -22.8930  -12.3780   22.2810 H   0  0  0  0  0  0  0  0  0  0  0  0
  -21.5840  -13.5040   22.0600 H   0  0  0  0  0  0  0  0  0  0  0  0
  -25.8430  -15.5400   20.0570 N   0  0  0  0  0  0  0  0  0  0  0  0
  -25.0770  -16.1960   20.1720 H   0  0  0  0  0  0  0  0  0  0  0  0
  -26.6780  -15.9720   19.6850 H   0  0  0  0  0  0  0  0  0  0  0  0
  -29.5360  -24.7870   20.2730 C   0  0  0  0  0  2  0  0  0  0  0  0
  -28.3820  -25.5700   19.6060 C   0  0  0  0  0  2  0  0  0  0  0  0
  -28.5620  -27.0030   19.5780 O   0  0  0  0  0  0  0  0  0  0  0  0
  -24.7000  -31.8090   23.1440 C   0  0  0  0  0  0  0  0  0  0  0  0
  -27.3890  -27.7340   19.6180 C   0  0  0  0  0  0  0  0  0  0  0  0
  -23.4870  -30.4850   21.4450 C   0  0  0  0  0  3  0  0  0  0  0  0
  -24.9420  -29.1460   19.8340 C   0  0  0  0  0  0  0  0  0  0  0  0
  -25.9860  -30.9720   21.1800 C   0  0  0  0  0  2  0  0  0  0  0  0
  -26.1030  -29.6620   20.4250 C   0  0  0  0  0  0  0  0  0  0  0  0
  -27.3290  -28.9630   20.3170 C   0  0  0  0  0  3  0  0  0  0  0  0
  -26.2100  -27.2550   18.9930 C   0  0  0  0  0  3  0  0  0  0  0  0
  -24.9930  -27.9440   19.1130 C   0  0  0  0  0  3  0  0  0  0  0  0
  -23.6640  -29.9350   20.0060 C   0  0  0  0  0  2  0  0  0  0  0  0
  -24.7440  -31.0980   21.9820 N   0  0  0  0  0  0  0  0  0  0  0  0
  -23.6320  -31.9860   23.7480 O   0  0  0  0  0  0  0  0  0  0  0  0
  -22.9260  -29.3570   22.3420 C   0  0  0  0  0  0  0  0  0  0  0  0
  -21.6160  -29.0880   22.2180 N   0  0  0  0  0  0  0  0  0  0  0  0
  -23.6650  -28.7320   23.1080 O   0  0  0  0  0  0  0  0  0  0  0  0
  -21.0760  -29.6480   21.5740 H   0  0  0  0  0  0  0  0  0  0  0  0
  -18.3480  -27.6110   22.6500 C   0  0  0  0  0  0  0  0  0  0  0  0
  -20.8790  -28.0490   22.9360 C   0  0  0  0  0  3  0  0  0  0  0  0
  -21.0890  -26.6630   22.2800 C   0  0  0  0  0  2  0  0  0  0  0  0
  -20.0110  -26.3140   21.2500 C   0  0  0  0  0  2  0  0  0  0  0  0
  -18.6250  -26.3170   21.9020 C   0  0  0  0  0  2  0  0  0  0  0  0
  -19.4070  -28.4320   23.1210 C   0  0  0  0  0  0  0  0  0  0  0  0
  -19.0930  -29.6420   23.7770 C   0  0  0  0  0  3  0  0  0  0  0  0
  -17.7550  -30.0350   23.9660 C   0  0  0  0  0  3  0  0  0  0  0  0
  -16.7110  -29.2080   23.5140 C   0  0  0  0  0  3  0  0  0  0  0  0
  -17.0080  -27.9980   22.8620 C   0  0  0  0  0  3  0  0  0  0  0  0
  -25.9820  -32.4520   23.7590 C   0  0  0  0  0  3  0  0  0  0  0  0
  -26.5410  -31.6570   25.0020 C   0  0  1  0  0  0  0  0  0  0  0  0
  -25.4760  -31.3600   26.0840 C   0  0  0  0  0  1  0  0  0  0  0  0
  -27.1460  -30.3050   24.5550 C   0  0  0  0  0  1  0  0  0  0  0  0
  -27.6860  -32.4590   25.6640 C   0  0  0  0  0  1  0  0  0  0  0  0
  -25.6540  -33.8360   24.1260 N   0  0  0  0  0  0  0  0  0  0  0  0
  -25.9550  -34.9090   23.3840 C   0  0  0  0  0  0  0  0  0  0  0  0
  -26.6090  -34.8410   22.3410 O   0  0  0  0  0  0  0  0  0  0  0  0
  -25.0760  -33.9640   24.9440 H   0  0  0  0  0  0  0  0  0  0  0  0
  -24.1860  -36.6710   23.0980 C   0  0  0  0  0  1  0  0  0  0  0  0
  -25.4490  -36.2780   23.8790 C   0  0  0  0  0  3  0  0  0  0  0  0
  -27.5760  -37.1920   24.6970 C   0  0  0  0  0  1  0  0  0  0  0  0
  -26.4590  -37.3530   23.7700 N   0  0  0  0  0  0  0  0  0  0  0  0
  -26.0370  -38.2620   23.9370 H   0  0  0  0  0  0  0  0  0  0  0  0
  2  1  2  0
  3  1  1  0
  4  5  2  0
  4  6  1  0
  5  2  1  0
  6  3  2  0
  7  5  1  0
  8  7  2  0
  9  8  1  0
  9 18  1  0
 10 18  1  0
 11 16  1  0
 12 13  1  0
 12 11  1  0
 14 13  1  0
 14 23  1  0
 14 15  1  0
 16 10  1  0
 16 15  1  0
 17 10  2  0
 18 19  1  0
 20 21  2  0
 21 40  1  0
 22 21  1  0
 22 25  1  0
 23 20  1  0
 23 24  1  0
 24 22  2  0
 25 26  1  0
 26 27  2  0
 28 31  1  0
 28 27  1  0
 29 28  2  0
 30 29  1  0
 30 25  2  0
 31 32  1  0
 32 37  2  0
 32 33  1  0
 33 34  2  0
 34 35  1  0
 35 39  1  0
 36 35  2  0
 37 36  1  0
 38 37  1  0
 40 41  1  0
 41 44  1  0
 41 43  1  0
 42 40  2  0
 45 46  1  0
 45 20  1  0
 47 45  1  0
 48  6  1  0
 49 48  1  0
 50 49  1  0
 50 52  1  0
 51 62  2  0
 52 57  1  0
 53 61  1  0
 53 63  1  0
 54 60  1  0
 54 56  1  0
 55 61  1  0
 56 55  1  0
 57 56  2  0
 58 59  1  0
 58 52  2  0
 59 54  2  0
 60 53  1  0
 61 51  1  0
 63 65  2  0
 64 63  1  0
 66 64  1  0
 67 76  2  0
 67 72  1  0
 68 64  1  0
 68 72  1  0
 69 68  1  0
 70 71  1  0
 70 69  1  0
 71 67  1  0
 72 73  2  0
 73 74  1  0
 75 74  2  0
 76 75  1  0
 77 51  1  0
 77 82  1  0
 77 78  1  0
 78 81  1  1
 78 79  1  0
 80 78  1  0
 82 85  1  0
 83 87  1  0
 83 82  1  0
 84 83  2  0
 87 86  1  0
 89 87  1  0
 89 90  1  0
 89 88  1  0
M  ISO  4  10 100  18 100  49 101  50 101
M  END
>  <TORSDO>  (37) 
F 20

>  <SCORE>  (37) 
-11.842

>  <name>  (37) 
36

>  <ligand_id>  (37) 
36

>  <original_smiles>  (37) 
[H]C(=C([H])C([H])([H])N([H])C(=O)N1C([H])([H])C([H])([H])C([H])([H])C([H])(n2nc(-c3c([H])c([H])c(Oc4c([H])c([H])c(F)c([H])c4F)c([H])c3[H])c(C(=O)N([H])[H])c2N([H])[H])C1([H])[H])c1c([H])c([H])c([H])c(C([H])([H])C([H])([H])Oc2c([H])c([H])c3c(c2[H])C([H])([H])N(C(=O)C([H])(N([H])C(=O)C([H])(N([H])C([H])([H])[H])C([H])([H])[H])C(C([H])([H])[H])(C([H])([H])[H])C([H])([H])[H])C([H])(C(=O)N([H])C2([H])c4c([H])c([H])c([H])c([H])c4C([H])([H])C([H])([H])C2([H])[H])C3([H])[H])c1[H]

>  <smiles>  (37) 
[H]C(=C([H])C([H])([H])N([H])C(=O)N1C([H])([H])C([H])([H])C([H])([H])C([H])(n2nc(-c3c([H])c([H])c(Oc4c([H])c([H])c(F)c([H])c4F)c([H])c3[H])c(C(=O)N([H])[H])c2N([H])[H])C1([H])[H])c1c([H])c([H])c([H])c(C([H])([H])C([H])([H])Oc2c([H])c([H])c3c(c2[H])C([H])([H])N(C(=O)C([H])(N([H])C(=O)C([H])(N([H])C([H])([H])[H])C([H])([H])[H])C(C([H])([H])[H])(C([H])([H])[H])C([H])([H])[H])C([H])(C(=O)N([H])C2([H])c4c([H])c([H])c([H])c([H])c4C([H])([H])C([H])([H])C2([H])[H])C3([H])[H])c1[H]

$$$$
37:0:0
     RDKit          3D

 88 96  0  0  1  0  0  0  0  0999 V2000
  -28.1380  -21.0550   20.3230 C   0  0  0  0  0  2  0  0  0  0  0  0
  -30.4590  -21.5270   19.7750 C   0  0  0  0  0  2  0  0  0  0  0  0
  -28.5520  -19.5660   20.7780 C   0  0  0  0  0  2  0  0  0  0  0  0
  -30.8660  -20.0720   20.2520 C   0  0  0  0  0  2  0  0  0  0  0  0
  -29.2180  -22.2030   20.4590 C   0  0  0  0  0  3  0  0  0  0  0  0
  -29.8190  -18.9110   20.0950 C   0  0  0  0  0  3  0  0  0  0  0  0
  -28.9260  -23.7290   19.8820 C   0  0  0  0  0  2  0  0  0  0  0  0
  -28.1900  -24.9570   20.6760 C   0  0  0  0  0  2  0  0  0  0  0  0
  -28.3730  -26.4210   20.2980 O   0  0  0  0  0  0  0  0  0  0  0  0
  -24.6150  -31.9390   23.2490 C   0  0  0  0  0  0  0  0  0  0  0  0
  -27.2690  -27.3100   20.2710 C   0  0  0  0  0  0  0  0  0  0  0  0
  -23.4360  -30.5200   21.6110 C   0  0  0  0  0  3  0  0  0  0  0  0
  -24.9090  -28.9580   20.2090 C   0  0  0  0  0  0  0  0  0  0  0  0
  -25.9800  -30.8380   21.4500 C   0  0  0  0  0  2  0  0  0  0  0  0
  -26.0740  -29.4490   20.8140 C   0  0  0  0  0  0  0  0  0  0  0  0
  -27.2600  -28.6390   20.8240 C   0  0  0  0  0  3  0  0  0  0  0  0
  -26.0810  -26.8910   19.6370 C   0  0  0  0  0  3  0  0  0  0  0  0
  -24.9190  -27.6910   19.6070 C   0  0  0  0  0  3  0  0  0  0  0  0
  -23.6680  -29.8340   20.2390 C   0  0  0  0  0  2  0  0  0  0  0  0
  -24.6960  -31.1200   22.1580 N   0  0  0  0  0  0  0  0  0  0  0  0
  -23.5250  -32.2130   23.7720 O   0  0  0  0  0  0  0  0  0  0  0  0
  -22.7670  -29.5110   22.5750 C   0  0  0  0  0  0  0  0  0  0  0  0
  -21.4410  -29.3320   22.4440 N   0  0  0  0  0  0  0  0  0  0  0  0
  -23.4430  -28.8920   23.4010 O   0  0  0  0  0  0  0  0  0  0  0  0
  -20.9560  -29.8830   21.7510 H   0  0  0  0  0  0  0  0  0  0  0  0
  -18.0610  -28.1390   22.9510 C   0  0  0  0  0  0  0  0  0  0  0  0
  -20.6210  -28.3950   23.2160 C   0  0  0  0  0  3  0  0  0  0  0  0
  -20.7200  -26.9640   22.6400 C   0  0  0  0  0  2  0  0  0  0  0  0
  -19.6170  -26.6430   21.6270 C   0  0  0  0  0  2  0  0  0  0  0  0
  -18.2360  -26.7900   22.2720 C   0  0  0  0  0  2  0  0  0  0  0  0
  -19.1820  -28.8990   23.3800 C   0  0  0  0  0  0  0  0  0  0  0  0
  -18.9650  -30.1610   23.9750 C   0  0  0  0  0  3  0  0  0  0  0  0
  -17.6610  -30.6630   24.1440 C   0  0  0  0  0  3  0  0  0  0  0  0
  -16.5550  -29.8990   23.7320 C   0  0  0  0  0  3  0  0  0  0  0  0
  -16.7560  -28.6390   23.1410 C   0  0  0  0  0  3  0  0  0  0  0  0
  -25.8860  -32.5880   23.8790 C   0  0  0  0  0  3  0  0  0  0  0  0
  -26.3890  -31.8370   25.1740 C   0  0  1  0  0  0  0  0  0  0  0  0
  -25.2810  -31.6070   26.2290 C   0  0  0  0  0  1  0  0  0  0  0  0
  -26.9860  -30.4580   24.8100 C   0  0  0  0  0  1  0  0  0  0  0  0
  -27.5240  -32.6480   25.8420 C   0  0  0  0  0  1  0  0  0  0  0  0
  -25.5650  -33.9890   24.1920 N   0  0  0  0  0  0  0  0  0  0  0  0
  -25.9030  -35.0370   23.4290 C   0  0  0  0  0  0  0  0  0  0  0  0
  -26.5860  -34.9280   22.4080 O   0  0  0  0  0  0  0  0  0  0  0  0
  -24.9620  -34.1480   24.9850 H   0  0  0  0  0  0  0  0  0  0  0  0
  -24.1840  -36.8300   23.0280 C   0  0  0  0  0  1  0  0  0  0  0  0
  -25.4050  -36.4280   23.8720 C   0  0  0  0  0  3  0  0  0  0  0  0
  -27.5150  -37.3190   24.7550 C   0  0  0  0  0  1  0  0  0  0  0  0
  -26.4400  -37.4810   23.7810 N   0  0  0  0  0  0  0  0  0  0  0  0
  -26.0290  -38.4020   23.9110 H   0  0  0  0  0  0  0  0  0  0  0  0
  -30.4440  -17.4780   20.6350 C   0  0  0  0  0  2  0  0  0  0  0  0
  -30.6360  -14.8920   20.0770 C   0  0  0  0  0  0  0  0  0  0  0  0
  -30.3810  -12.6280   19.0200 C   0  0  0  0  0  2  0  0  0  0  0  0
  -29.3770  -12.6970   17.8470 C   0  0  0  0  0  2  0  0  0  0  0  0
  -27.9350  -12.5070   18.3550 C   0  0  0  0  0  2  0  0  0  0  0  0
  -27.6210  -13.3770   19.6010 C   0  0  0  0  0  3  0  0  0  0  0  0
  -28.7390  -13.2920   20.6620 C   0  0  0  0  0  2  0  0  0  0  0  0
  -29.9910  -13.6740   19.9970 N   0  0  0  0  0  0  0  0  0  0  0  0
  -31.8170  -14.9640   19.7260 O   0  0  0  0  0  0  0  0  0  0  0  0
  -29.9120  -16.0550   20.3670 N   0  0  0  0  0  0  0  0  0  0  0  0
  -28.9300  -15.9110   20.5530 H   0  0  0  0  0  0  0  0  0  0  0  0
  -25.2800  -13.9460   20.4730 C   0  0  0  0  0  0  0  0  0  0  0  0
  -24.2340  -13.1620   20.8780 C   0  0  0  0  0  0  0  0  0  0  0  0
  -24.6960  -11.8120   20.7930 C   0  0  0  0  0  0  0  0  0  0  0  0
  -26.3090  -13.0740   20.1600 N   0  0  0  0  0  0  0  0  0  0  0  0
  -25.9690  -11.7840   20.4190 N   0  0  0  0  0  0  0  0  0  0  0  0
  -23.9790  -10.5450   20.9910 C   0  0  0  0  0  0  0  0  0  0  0  0
  -24.4360   -9.5730   21.9070 C   0  0  0  0  0  3  0  0  0  0  0  0
  -23.7190   -8.3720   22.0950 C   0  0  0  0  0  3  0  0  0  0  0  0
  -22.5300   -8.1350   21.3640 C   0  0  0  0  0  0  0  0  0  0  0  0
  -22.0920   -9.0950   20.4370 C   0  0  0  0  0  3  0  0  0  0  0  0
  -22.8100  -10.2890   20.2480 C   0  0  0  0  0  3  0  0  0  0  0  0
  -21.7810   -6.9870   21.4620 O   0  0  0  0  0  0  0  0  0  0  0  0
  -21.7370   -6.2530   22.6200 C   0  0  0  0  0  0  0  0  0  0  0  0
  -21.2660   -6.8030   23.8330 C   0  0  0  0  0  3  0  0  0  0  0  0
  -21.1720   -5.9940   24.9830 C   0  0  0  0  0  3  0  0  0  0  0  0
  -21.5360   -4.6360   24.9210 C   0  0  0  0  0  0  0  0  0  0  0  0
  -21.9980   -4.0850   23.7130 C   0  0  0  0  0  3  0  0  0  0  0  0
  -22.0950   -4.8920   22.5650 C   0  0  0  0  0  0  0  0  0  0  0  0
  -22.5210   -4.3500   21.3990 F   0  0  0  0  0  0  0  0  0  0  0  0
  -21.4380   -3.8550   26.0230 F   0  0  0  0  0  0  0  0  0  0  0  0
  -22.8520  -13.6320   21.2290 C   0  0  0  0  0  0  0  0  0  0  0  0
  -22.1660  -12.9120   22.1090 N   0  0  0  0  0  0  0  0  0  0  0  0
  -22.3930  -14.6720   20.7590 O   0  0  0  0  0  0  0  0  0  0  0  0
  -22.5520  -12.0690   22.5090 H   0  0  0  0  0  0  0  0  0  0  0  0
  -21.2410  -13.2080   22.3880 H   0  0  0  0  0  0  0  0  0  0  0  0
  -25.4340  -15.3210   20.3170 N   0  0  0  0  0  0  0  0  0  0  0  0
  -24.6750  -15.9710   20.4850 H   0  0  0  0  0  0  0  0  0  0  0  0
  -26.2600  -15.7670   19.9380 H   0  0  0  0  0  0  0  0  0  0  0  0
  1  5  1  0
  1  3  1  0
  2  4  1  0
  2  5  1  0
  5  7  1  0
  6  4  1  0
  6 50  1  0
  6  3  1  0
  7  8  1  0
  9  8  1  0
 10 21  2  0
 11  9  1  0
 11 16  1  0
 12 20  1  0
 12 22  1  0
 13 19  1  0
 13 15  1  0
 14 20  1  0
 15 16  2  0
 15 14  1  0
 17 11  2  0
 18 17  1  0
 18 13  2  0
 19 12  1  0
 20 10  1  0
 22 24  2  0
 23 22  1  0
 25 23  1  0
 26 35  2  0
 26 31  1  0
 27 23  1  0
 27 31  1  0
 28 27  1  0
 29 30  1  0
 29 28  1  0
 30 26  1  0
 31 32  2  0
 32 33  1  0
 34 33  2  0
 35 34  1  0
 36 10  1  0
 36 41  1  0
 36 37  1  0
 37 40  1  1
 37 38  1  0
 39 37  1  0
 41 44  1  0
 42 46  1  0
 42 41  1  0
 43 42  2  0
 46 45  1  0
 48 46  1  0
 48 49  1  0
 48 47  1  0
 51 59  1  0
 52 57  1  0
 53 54  1  0
 53 52  1  0
 55 54  1  0
 55 64  1  0
 55 56  1  0
 57 51  1  0
 57 56  1  0
 58 51  2  0
 59 60  1  0
 59 50  1  0
 61 62  2  0
 62 81  1  0
 63 62  1  0
 63 66  1  0
 64 65  1  0
 64 61  1  0
 65 63  2  0
 66 67  1  0
 67 68  2  0
 69 72  1  0
 69 68  1  0
 70 69  2  0
 71 70  1  0
 71 66  2  0
 72 73  1  0
 73 74  1  0
 74 75  2  0
 76 75  1  0
 76 80  1  0
 77 76  2  0
 78 73  2  0
 78 77  1  0
 79 78  1  0
 81 82  1  0
 82 85  1  0
 82 84  1  0
 83 81  2  0
 86 61  1  0
 86 87  1  0
 88 86  1  0
M  ISO  4   8 101   9 101  51 100  59 100
M  END
>  <TORSDO>  (38) 
F 19

>  <SCORE>  (38) 
-13.940

>  <name>  (38) 
37

>  <ligand_id>  (38) 
37

>  <original_smiles>  (38) 
[H]c1c([H])c([H])c2c(c1[H])C([H])([H])C([H])([H])C([H])([H])C2([H])N([H])C(=O)C1([H])N(C(=O)C([H])(N([H])C(=O)C([H])(N([H])C([H])([H])[H])C([H])([H])[H])C(C([H])([H])[H])(C([H])([H])[H])C([H])([H])[H])C([H])([H])c2c([H])c(OC([H])([H])C([H])([H])C3([H])C([H])([H])C([H])([H])C([H])(C([H])([H])N([H])C(=O)N4C([H])([H])C([H])([H])C([H])([H])C([H])(n5nc(-c6c([H])c([H])c(Oc7c([H])c([H])c(F)c([H])c7F)c([H])c6[H])c(C(=O)N([H])[H])c5N([H])[H])C4([H])[H])C([H])([H])C3([H])[H])c([H])c([H])c2C1([H])[H]

>  <smiles>  (38) 
[H]c1c([H])c([H])c2c(c1[H])C([H])([H])C([H])([H])C([H])([H])C2([H])N([H])C(=O)C1([H])N(C(=O)C([H])(N([H])C(=O)C([H])(N([H])C([H])([H])[H])C([H])([H])[H])C(C([H])([H])[H])(C([H])([H])[H])C([H])([H])[H])C([H])([H])c2c([H])c(OC([H])([H])C([H])([H])C3([H])C([H])([H])C([H])([H])C([H])(C([H])([H])N([H])C(=O)N4C([H])([H])C([H])([H])C([H])([H])C([H])(n5nc(-c6c([H])c([H])c(Oc7c([H])c([H])c(F)c([H])c7F)c([H])c6[H])c(C(=O)N([H])[H])c5N([H])[H])C4([H])[H])C([H])([H])C3([H])[H])c([H])c([H])c2C1([H])[H]

$$$$
38:0:0
     RDKit          3D

 89 98  0  0  1  0  0  0  0  0999 V2000
  -27.5430  -20.1170   21.1430 C   0  0  0  0  0  3  0  0  0  0  0  0
  -27.7990  -21.4580   20.7570 C   0  0  0  0  0  3  0  0  0  0  0  0
  -28.3630  -19.0320   20.7570 C   0  0  0  0  0  3  0  0  0  0  0  0
  -29.7400  -20.6470   19.5790 C   0  0  0  0  0  3  0  0  0  0  0  0
  -28.9010  -21.8260   19.9510 C   0  0  0  0  0  0  0  0  0  0  0  0
  -29.5110  -19.2210   19.9620 C   0  0  0  0  0  0  0  0  0  0  0  0
  -28.3190  -24.0600   18.4510 C   0  0  0  0  0  2  0  0  0  0  0  0
  -29.0880  -23.4420   19.6030 C   0  0  0  0  0  3  0  0  0  0  0  0
  -28.1010  -24.7910   19.7560 C   0  0  0  0  0  3  0  0  0  0  0  0
  -28.3800  -26.3260   19.6190 O   0  0  0  0  0  0  0  0  0  0  0  0
  -24.7290  -31.7340   23.0640 C   0  0  0  0  0  0  0  0  0  0  0  0
  -27.3130  -27.3010   19.6460 C   0  0  0  0  0  0  0  0  0  0  0  0
  -23.5180  -30.4480   21.3460 C   0  0  0  0  0  3  0  0  0  0  0  0
  -24.9630  -29.0090   19.7750 C   0  0  0  0  0  0  0  0  0  0  0  0
  -26.0630  -30.7680   21.1520 C   0  0  0  0  0  2  0  0  0  0  0  0
  -26.1450  -29.4300   20.3950 C   0  0  0  0  0  0  0  0  0  0  0  0
  -27.3230  -28.5940   20.3110 C   0  0  0  0  0  3  0  0  0  0  0  0
  -26.1050  -26.9840   18.9920 C   0  0  0  0  0  3  0  0  0  0  0  0
  -24.9550  -27.8040   19.0550 C   0  0  0  0  0  3  0  0  0  0  0  0
  -23.7210  -29.8810   19.9150 C   0  0  0  0  0  2  0  0  0  0  0  0
  -24.7920  -31.0000   21.9110 N   0  0  0  0  0  0  0  0  0  0  0  0
  -23.6490  -31.9600   23.6320 O   0  0  0  0  0  0  0  0  0  0  0  0
  -22.8740  -29.3590   22.2400 C   0  0  0  0  0  0  0  0  0  0  0  0
  -21.5490  -29.1690   22.1150 N   0  0  0  0  0  0  0  0  0  0  0  0
  -23.5690  -28.6900   23.0090 O   0  0  0  0  0  0  0  0  0  0  0  0
  -21.0430  -29.7620   21.4710 H   0  0  0  0  0  0  0  0  0  0  0  0
  -18.1930  -27.8950   22.6050 C   0  0  0  0  0  0  0  0  0  0  0  0
  -20.7570  -28.1610   22.8260 C   0  0  0  0  0  3  0  0  0  0  0  0
  -20.8550  -26.7850   22.1270 C   0  0  0  0  0  2  0  0  0  0  0  0
  -19.7260  -26.5360   21.1220 C   0  0  0  0  0  2  0  0  0  0  0  0
  -18.3630  -26.6080   21.8160 C   0  0  0  0  0  2  0  0  0  0  0  0
  -19.3170  -28.6320   23.0660 C   0  0  0  0  0  0  0  0  0  0  0  0
  -19.1010  -29.8360   23.7710 C   0  0  0  0  0  3  0  0  0  0  0  0
  -17.7960  -30.3040   24.0160 C   0  0  0  0  0  3  0  0  0  0  0  0
  -16.6890  -29.5650   23.5690 C   0  0  0  0  0  3  0  0  0  0  0  0
  -16.8880  -28.3620   22.8680 C   0  0  0  0  0  3  0  0  0  0  0  0
  -26.0100  -32.3410   23.7140 C   0  0  0  0  0  3  0  0  0  0  0  0
  -25.6890  -33.7110   24.1430 N   0  0  0  0  0  0  0  0  0  0  0  0
  -25.9650  -34.8170   23.4390 C   0  0  0  0  0  0  0  0  0  0  0  0
  -26.5840  -34.7910   22.3720 O   0  0  0  0  0  0  0  0  0  0  0  0
  -25.1300  -33.8020   24.9790 H   0  0  0  0  0  0  0  0  0  0  0  0
  -24.1770  -36.5840   23.3030 C   0  0  0  0  0  1  0  0  0  0  0  0
  -25.4780  -36.1650   24.0070 C   0  0  0  0  0  3  0  0  0  0  0  0
  -27.6370  -37.0640   24.7580 C   0  0  0  0  0  1  0  0  0  0  0  0
  -26.4770  -37.2490   23.8890 N   0  0  0  0  0  0  0  0  0  0  0  0
  -26.0590  -38.1490   24.1050 H   0  0  0  0  0  0  0  0  0  0  0  0
  -26.5440  -31.4940   24.9340 C   0  0  1  0  0  0  0  0  0  0  0  0
  -25.4620  -31.1820   25.9960 C   0  0  0  0  0  1  0  0  0  0  0  0
  -27.1320  -30.1480   24.4530 C   0  0  0  0  0  1  0  0  0  0  0  0
  -27.6940  -32.2540   25.6340 C   0  0  0  0  0  1  0  0  0  0  0  0
  -30.4450  -17.9010   19.6150 C   0  0  0  0  0  2  0  0  0  0  0  0
  -30.9330  -15.2030   19.7700 C   0  0  0  0  0  0  0  0  0  0  0  0
  -30.8200  -12.8160   18.9300 C   0  0  0  0  0  2  0  0  0  0  0  0
  -29.8030  -12.6960   17.7700 C   0  0  0  0  0  2  0  0  0  0  0  0
  -28.3810  -12.4620   18.3110 C   0  0  0  0  0  2  0  0  0  0  0  0
  -28.0300  -13.4110   19.4890 C   0  0  0  0  0  3  0  0  0  0  0  0
  -29.1650  -13.4910   20.5330 C   0  0  0  0  0  2  0  0  0  0  0  0
  -30.3710  -13.9260   19.8180 N   0  0  0  0  0  0  0  0  0  0  0  0
  -32.1030  -15.2860   19.3860 O   0  0  0  0  0  0  0  0  0  0  0  0
  -30.1430  -16.3770   19.9390 N   0  0  0  0  0  0  0  0  0  0  0  0
  -29.1950  -16.1970   20.2290 H   0  0  0  0  0  0  0  0  0  0  0  0
  -25.7390  -13.9490   20.4950 C   0  0  0  0  0  0  0  0  0  0  0  0
  -24.7080  -13.1560   20.9140 C   0  0  0  0  0  0  0  0  0  0  0  0
  -25.1510  -11.8080   20.7480 C   0  0  0  0  0  0  0  0  0  0  0  0
  -26.7430  -13.0850   20.0940 N   0  0  0  0  0  0  0  0  0  0  0  0
  -26.4060  -11.7870   20.3110 N   0  0  0  0  0  0  0  0  0  0  0  0
  -24.4300  -10.5400   20.9240 C   0  0  0  0  0  0  0  0  0  0  0  0
  -24.8440   -9.5820   21.8770 C   0  0  0  0  0  3  0  0  0  0  0  0
  -24.1230   -8.3790   22.0410 C   0  0  0  0  0  3  0  0  0  0  0  0
  -22.9750   -8.1250   21.2530 C   0  0  0  0  0  0  0  0  0  0  0  0
  -22.5810   -9.0730   20.2910 C   0  0  0  0  0  3  0  0  0  0  0  0
  -23.3020  -10.2670   20.1260 C   0  0  0  0  0  3  0  0  0  0  0  0
  -22.2280   -6.9740   21.3250 O   0  0  0  0  0  0  0  0  0  0  0  0
  -22.0040   -6.3350   22.5190 C   0  0  0  0  0  0  0  0  0  0  0  0
  -21.3540   -6.9760   23.5960 C   0  0  0  0  0  3  0  0  0  0  0  0
  -21.0810   -6.2610   24.7780 C   0  0  0  0  0  3  0  0  0  0  0  0
  -21.4500   -4.9060   24.8840 C   0  0  0  0  0  0  0  0  0  0  0  0
  -22.0920   -4.2640   23.8110 C   0  0  0  0  0  3  0  0  0  0  0  0
  -22.3670   -4.9780   22.6310 C   0  0  0  0  0  0  0  0  0  0  0  0
  -22.9670   -4.3500   21.5900 F   0  0  0  0  0  0  0  0  0  0  0  0
  -21.1810   -4.2150   26.0170 F   0  0  0  0  0  0  0  0  0  0  0  0
  -23.3490  -13.6220   21.3480 C   0  0  0  0  0  0  0  0  0  0  0  0
  -22.6990  -12.8800   22.2370 N   0  0  0  0  0  0  0  0  0  0  0  0
  -22.8740  -14.6790   20.9330 O   0  0  0  0  0  0  0  0  0  0  0  0
  -23.0990  -12.0260   22.5990 H   0  0  0  0  0  0  0  0  0  0  0  0
  -21.7900  -13.1720   22.5640 H   0  0  0  0  0  0  0  0  0  0  0  0
  -25.9000  -15.3280   20.3920 N   0  0  0  0  0  0  0  0  0  0  0  0
  -25.1470  -15.9710   20.6120 H   0  0  0  0  0  0  0  0  0  0  0  0
  -26.6890  -15.7830   19.9530 H   0  0  0  0  0  0  0  0  0  0  0  0
  2  1  2  0
  3  1  1  0
  4  5  2  0
  4  6  1  0
  5  2  1  0
  6  3  2  0
  7  8  1  0
  7  9  1  0
  8  9  1  0
  8  5  1  0
  9 10  1  0
 10 12  1  0
 11 22  2  0
 12 17  1  0
 13 21  1  0
 13 23  1  0
 14 20  1  0
 14 16  1  0
 15 21  1  0
 16 15  1  0
 17 16  2  0
 18 19  1  0
 18 12  2  0
 19 14  2  0
 20 13  1  0
 21 11  1  0
 23 25  2  0
 24 23  1  0
 26 24  1  0
 27 36  2  0
 27 32  1  0
 28 24  1  0
 28 32  1  0
 29 28  1  0
 30 31  1  0
 30 29  1  0
 31 27  1  0
 32 33  2  0
 33 34  1  0
 35 34  2  0
 36 35  1  0
 37 11  1  0
 37 38  1  0
 37 47  1  0
 38 41  1  0
 39 43  1  0
 39 38  1  0
 40 39  2  0
 43 42  1  0
 45 43  1  0
 45 46  1  0
 45 44  1  0
 47 50  1  1
 47 48  1  0
 49 47  1  0
 51 60  1  0
 51  6  1  0
 52 58  1  0
 52 60  1  0
 53 58  1  0
 54 55  1  0
 54 53  1  0
 56 55  1  0
 56 65  1  0
 56 57  1  0
 58 57  1  0
 59 52  2  0
 60 61  1  0
 62 63  2  0
 63 82  1  0
 64 63  1  0
 64 67  1  0
 65 66  1  0
 65 62  1  0
 66 64  2  0
 67 68  1  0
 68 69  2  0
 70 73  1  0
 70 69  1  0
 71 70  2  0
 72 71  1  0
 72 67  2  0
 73 74  1  0
 74 79  2  0
 74 75  1  0
 75 76  2  0
 76 77  1  0
 77 81  1  0
 78 77  2  0
 79 78  1  0
 80 79  1  0
 82 83  1  0
 83 86  1  0
 83 85  1  0
 84 82  2  0
 87 62  1  0
 87 88  1  0
 89 87  1  0
M  ISO  4   9 101  10 101  52 100  60 100
M  END
>  <TORSDO>  (39) 
F 18

>  <SCORE>  (39) 
-11.794

>  <name>  (39) 
38

>  <ligand_id>  (39) 
38

>  <original_smiles>  (39) 
[H]c1c([H])c([H])c2c(c1[H])C([H])([H])C([H])([H])C([H])([H])C2([H])N([H])C(=O)C1([H])N(C(=O)C([H])(N([H])C(=O)C([H])(N([H])C([H])([H])[H])C([H])([H])[H])C(C([H])([H])[H])(C([H])([H])[H])C([H])([H])[H])C([H])([H])c2c([H])c(OC3([H])C([H])([H])C3([H])c3c([H])c([H])c([H])c(C([H])([H])N([H])C(=O)N4C([H])([H])C([H])([H])C([H])([H])C([H])(n5nc(-c6c([H])c([H])c(Oc7c([H])c([H])c(F)c([H])c7F)c([H])c6[H])c(C(=O)N([H])[H])c5N([H])[H])C4([H])[H])c3[H])c([H])c([H])c2C1([H])[H]

>  <smiles>  (39) 
[H]c1c([H])c([H])c2c(c1[H])C([H])([H])C([H])([H])C([H])([H])C2([H])N([H])C(=O)C1([H])N(C(=O)C([H])(N([H])C(=O)C([H])(N([H])C([H])([H])[H])C([H])([H])[H])C(C([H])([H])[H])(C([H])([H])[H])C([H])([H])[H])C([H])([H])c2c([H])c(OC3([H])C([H])([H])C3([H])c3c([H])c([H])c([H])c(C([H])([H])N([H])C(=O)N4C([H])([H])C([H])([H])C([H])([H])C([H])(n5nc(-c6c([H])c([H])c(Oc7c([H])c([H])c(F)c([H])c7F)c([H])c6[H])c(C(=O)N([H])[H])c5N([H])[H])C4([H])[H])c3[H])c([H])c([H])c2C1([H])[H]

$$$$
39:0:0
     RDKit          3D

 91100  0  0  1  0  0  0  0  0999 V2000
  -29.9270  -21.5350   20.5000 N   0  0  0  0  0  4  0  0  0  0  0  0
  -30.1260  -21.3740   19.5250 H   0  0  0  0  0  0  0  0  0  0  0  0
  -30.7690  -21.9000   20.9140 H   0  0  0  0  0  0  0  0  0  0  0  0
  -30.7920  -14.6330   20.0740 C   0  0  0  0  0  0  0  0  0  0  0  0
  -30.3840  -12.4610   18.9410 C   0  0  0  0  0  2  0  0  0  0  0  0
  -29.3810  -12.6300   17.7840 C   0  0  0  0  0  2  0  0  0  0  0  0
  -27.9420  -12.4510   18.3030 C   0  0  0  0  0  2  0  0  0  0  0  0
  -27.6610  -13.3000   19.5690 C   0  0  0  0  0  3  0  0  0  0  0  0
  -28.7860  -13.1570   20.6230 C   0  0  0  0  0  2  0  0  0  0  0  0
  -30.0630  -13.4770   19.9680 N   0  0  0  0  0  0  0  0  0  0  0  0
  -31.9170  -14.7040   19.5700 O   0  0  0  0  0  0  0  0  0  0  0  0
  -30.8530  -19.3140   21.4140 C   0  0  0  0  0  2  0  0  0  0  0  0
  -30.4780  -18.0250   21.3860 C   0  0  0  0  0  3  0  0  0  0  0  0
  -31.2030  -16.6990   21.3910 C   0  0  0  0  0  2  0  0  0  0  0  0
  -28.6580  -19.2240   20.5000 C   0  0  0  0  0  2  0  0  0  0  0  0
  -29.0660  -16.4830   20.3180 C   0  0  0  0  0  2  0  0  0  0  0  0
  -29.6470  -20.2270   21.1980 C   0  0  0  0  0  3  0  0  0  0  0  0
  -29.0550  -17.8290   21.0930 C   0  0  0  0  0  3  0  0  0  0  0  0
  -30.2850  -15.7250   20.7360 N   0  0  0  0  0  0  0  0  0  0  0  0
  -25.3180  -13.8850   20.4420 C   0  0  0  0  0  0  0  0  0  0  0  0
  -24.2760  -13.1030   20.8630 C   0  0  0  0  0  0  0  0  0  0  0  0
  -24.7390  -11.7530   20.7830 C   0  0  0  0  0  0  0  0  0  0  0  0
  -26.3470  -13.0100   20.1320 N   0  0  0  0  0  0  0  0  0  0  0  0
  -26.0090  -11.7230   20.4000 N   0  0  0  0  0  0  0  0  0  0  0  0
  -24.0270  -10.4870   20.9910 C   0  0  0  0  0  0  0  0  0  0  0  0
  -24.4820   -9.5290   21.9240 C   0  0  0  0  0  3  0  0  0  0  0  0
  -23.7700   -8.3270   22.1220 C   0  0  0  0  0  3  0  0  0  0  0  0
  -22.5900   -8.0730   21.3850 C   0  0  0  0  0  0  0  0  0  0  0  0
  -22.1540   -9.0190   20.4400 C   0  0  0  0  0  3  0  0  0  0  0  0
  -22.8650  -10.2130   20.2410 C   0  0  0  0  0  3  0  0  0  0  0  0
  -21.8480   -6.9220   21.4910 O   0  0  0  0  0  0  0  0  0  0  0  0
  -21.7840   -6.2120   22.6630 C   0  0  0  0  0  0  0  0  0  0  0  0
  -21.3080   -6.7900   23.8610 C   0  0  0  0  0  3  0  0  0  0  0  0
  -21.1950   -6.0050   25.0250 C   0  0  0  0  0  3  0  0  0  0  0  0
  -21.5480   -4.6420   24.9930 C   0  0  0  0  0  0  0  0  0  0  0  0
  -22.0180   -4.0640   23.8020 C   0  0  0  0  0  3  0  0  0  0  0  0
  -22.1330   -4.8470   22.6390 C   0  0  0  0  0  0  0  0  0  0  0  0
  -22.5660   -4.2800   21.4870 F   0  0  0  0  0  0  0  0  0  0  0  0
  -21.4330   -3.8850   26.1100 F   0  0  0  0  0  0  0  0  0  0  0  0
  -22.8970  -13.5710   21.2220 C   0  0  0  0  0  0  0  0  0  0  0  0
  -22.2190  -12.8550   22.1130 N   0  0  0  0  0  0  0  0  0  0  0  0
  -22.4290  -14.6070   20.7490 O   0  0  0  0  0  0  0  0  0  0  0  0
  -22.6110  -12.0170   22.5150 H   0  0  0  0  0  0  0  0  0  0  0  0
  -21.2960  -13.1510   22.3980 H   0  0  0  0  0  0  0  0  0  0  0  0
  -25.4630  -15.2580   20.2730 N   0  0  0  0  0  0  0  0  0  0  0  0
  -24.6990  -15.9060   20.4350 H   0  0  0  0  0  0  0  0  0  0  0  0
  -26.2830  -15.7040   19.8830 H   0  0  0  0  0  0  0  0  0  0  0  0
  -28.8820  -22.6120   20.6420 C   0  0  0  0  0  2  0  0  0  0  0  0
  -29.3440  -24.1030   20.3810 C   0  0  0  0  0  2  0  0  0  0  0  0
  -28.1710  -25.1440   20.4740 C   0  0  0  0  0  2  0  0  0  0  0  0
  -28.4310  -26.5710   20.2380 O   0  0  0  0  0  0  0  0  0  0  0  0
  -24.6330  -31.8840   23.2460 C   0  0  0  0  0  0  0  0  0  0  0  0
  -27.3010  -27.3900   20.1890 C   0  0  0  0  0  0  0  0  0  0  0  0
  -23.4470  -30.4800   21.5960 C   0  0  0  0  0  3  0  0  0  0  0  0
  -24.9160  -28.9550   20.1750 C   0  0  0  0  0  0  0  0  0  0  0  0
  -25.9820  -30.8300   21.4260 C   0  0  0  0  0  2  0  0  0  0  0  0
  -26.0770  -29.4570   20.7780 C   0  0  0  0  0  0  0  0  0  0  0  0
  -27.2720  -28.6850   20.7780 C   0  0  0  0  0  3  0  0  0  0  0  0
  -26.1190  -26.9400   19.5520 C   0  0  0  0  0  3  0  0  0  0  0  0
  -24.9370  -27.6990   19.5560 C   0  0  0  0  0  3  0  0  0  0  0  0
  -23.6730  -29.8150   20.2160 C   0  0  0  0  0  2  0  0  0  0  0  0
  -24.7050  -31.0820   22.1460 N   0  0  0  0  0  0  0  0  0  0  0  0
  -23.5450  -32.1500   23.7760 O   0  0  0  0  0  0  0  0  0  0  0  0
  -22.7920  -29.4520   22.5490 C   0  0  0  0  0  0  0  0  0  0  0  0
  -21.4650  -29.2750   22.4220 N   0  0  0  0  0  0  0  0  0  0  0  0
  -23.4730  -28.8190   23.3590 O   0  0  0  0  0  0  0  0  0  0  0  0
  -20.9770  -29.8390   21.7410 H   0  0  0  0  0  0  0  0  0  0  0  0
  -18.0850  -28.0860   22.9270 C   0  0  0  0  0  0  0  0  0  0  0  0
  -20.6460  -28.3320   23.1870 C   0  0  0  0  0  3  0  0  0  0  0  0
  -20.7390  -26.9060   22.5970 C   0  0  0  0  0  2  0  0  0  0  0  0
  -19.6310  -26.5970   21.5860 C   0  0  0  0  0  2  0  0  0  0  0  0
  -18.2530  -26.7410   22.2390 C   0  0  0  0  0  2  0  0  0  0  0  0
  -19.2090  -28.8400   23.3570 C   0  0  0  0  0  0  0  0  0  0  0  0
  -19.0010  -30.0980   23.9610 C   0  0  0  0  0  3  0  0  0  0  0  0
  -17.6980  -30.6020   24.1410 C   0  0  0  0  0  3  0  0  0  0  0  0
  -16.5880  -29.8460   23.7260 C   0  0  0  0  0  3  0  0  0  0  0  0
  -16.7830  -28.5900   23.1240 C   0  0  0  0  0  3  0  0  0  0  0  0
  -25.9090  -32.5240   23.8760 C   0  0  0  0  0  3  0  0  0  0  0  0
  -26.4160  -31.7610   25.1620 C   0  0  1  0  0  0  0  0  0  0  0  0
  -25.3130  -31.5260   26.2200 C   0  0  0  0  0  1  0  0  0  0  0  0
  -27.0120  -30.3840   24.7850 C   0  0  0  0  0  1  0  0  0  0  0  0
  -27.5540  -32.5680   25.8310 C   0  0  0  0  0  1  0  0  0  0  0  0
  -25.5940  -33.9230   24.1930 N   0  0  0  0  0  0  0  0  0  0  0  0
  -25.9330  -34.9710   23.4300 C   0  0  0  0  0  0  0  0  0  0  0  0
  -26.6170  -34.8600   22.4080 O   0  0  0  0  0  0  0  0  0  0  0  0
  -24.9950  -34.0820   24.9890 H   0  0  0  0  0  0  0  0  0  0  0  0
  -24.2170  -36.7640   23.0270 C   0  0  0  0  0  1  0  0  0  0  0  0
  -25.4370  -36.3610   23.8710 C   0  0  0  0  0  3  0  0  0  0  0  0
  -27.5520  -37.2480   24.7490 C   0  0  0  0  0  1  0  0  0  0  0  0
  -26.4750  -37.4120   23.7780 N   0  0  0  0  0  0  0  0  0  0  0  0
  -26.0660  -38.3340   23.9090 H   0  0  0  0  0  0  0  0  0  0  0  0
  1 48  1  0
  1  3  1  0
  2  1  1  0
  4 19  1  0
  5 10  1  0
  6  7  1  0
  6  5  1  0
  8  7  1  0
  8 23  1  0
  8  9  1  0
 10  4  1  0
 10  9  1  0
 11  4  2  0
 13 14  1  0
 13 12  1  0
 15 18  1  0
 15 17  1  0
 16 19  1  0
 17  1  1  0
 17 12  1  0
 18 16  1  0
 18 13  1  0
 19 14  1  0
 20 21  2  0
 21 40  1  0
 22 21  1  0
 22 25  1  0
 23 24  1  0
 23 20  1  0
 24 22  2  0
 25 26  1  0
 26 27  2  0
 28 31  1  0
 28 27  1  0
 29 28  2  0
 30 29  1  0
 30 25  2  0
 31 32  1  0
 32 33  1  0
 33 34  2  0
 35 34  1  0
 35 39  1  0
 36 35  2  0
 37 32  2  0
 37 36  1  0
 38 37  1  0
 40 41  1  0
 41 44  1  0
 41 43  1  0
 42 40  2  0
 45 46  1  0
 45 20  1  0
 47 45  1  0
 49 50  1  0
 49 48  1  0
 51 50  1  0
 52 63  2  0
 53 51  1  0
 53 58  1  0
 54 62  1  0
 54 64  1  0
 55 61  1  0
 55 57  1  0
 56 62  1  0
 57 56  1  0
 58 57  2  0
 59 60  1  0
 59 53  2  0
 60 55  2  0
 61 54  1  0
 62 52  1  0
 64 66  2  0
 65 64  1  0
 67 65  1  0
 68 77  2  0
 68 73  1  0
 69 65  1  0
 69 73  1  0
 70 69  1  0
 71 72  1  0
 71 70  1  0
 72 68  1  0
 73 74  2  0
 74 75  1  0
 76 75  2  0
 77 76  1  0
 78 52  1  0
 78 83  1  0
 78 79  1  0
 79 82  1  1
 79 80  1  0
 81 79  1  0
 83 86  1  0
 84 88  1  0
 84 83  1  0
 85 84  2  0
 88 87  1  0
 90 88  1  0
 90 91  1  0
 90 89  1  0
M  ISO  4   4 100  19 100  50 101  51 101
M  END
>  <TORSDO>  (40) 
F 19

>  <SCORE>  (40) 
-14.078

>  <name>  (40) 
39

>  <ligand_id>  (40) 
39

>  <original_smiles>  (40) 
[H]C1=C2C([H])([H])N(C(=O)N3C([H])([H])C([H])([H])C([H])([H])C([H])(n4nc(-c5c([H])c([H])c(Oc6c([H])c([H])c(F)c([H])c6F)c([H])c5[H])c(C(=O)N([H])[H])c4N([H])[H])C3([H])[H])C([H])([H])C2([H])C([H])([H])C1([H])[N+]([H])([H])C([H])([H])C([H])([H])C([H])([H])Oc1c([H])c([H])c2c(c1[H])C([H])([H])N(C(=O)C([H])(N([H])C(=O)C([H])(N([H])C([H])([H])[H])C([H])([H])[H])C(C([H])([H])[H])(C([H])([H])[H])C([H])([H])[H])C([H])(C(=O)N([H])C1([H])c3c([H])c([H])c([H])c([H])c3C([H])([H])C([H])([H])C1([H])[H])C2([H])[H]

>  <smiles>  (40) 
[H]C1=C2C([H])([H])N(C(=O)N3C([H])([H])C([H])([H])C([H])([H])C([H])(n4nc(-c5c([H])c([H])c(Oc6c([H])c([H])c(F)c([H])c6F)c([H])c5[H])c(C(=O)N([H])[H])c4N([H])[H])C3([H])[H])C([H])([H])C2([H])C([H])([H])C1([H])[N+]([H])([H])C([H])([H])C([H])([H])C([H])([H])Oc1c([H])c([H])c2c(c1[H])C([H])([H])N(C(=O)C([H])(N([H])C(=O)C([H])(N([H])C([H])([H])[H])C([H])([H])[H])C(C([H])([H])[H])(C([H])([H])[H])C([H])([H])[H])C([H])(C(=O)N([H])C1([H])c3c([H])c([H])c([H])c([H])c3C([H])([H])C([H])([H])C1([H])[H])C2([H])[H]

$$$$
40:0:0
     RDKit          3D

 86 95  0  0  1  0  0  0  0  0999 V2000
  -30.3070  -15.8350   20.3290 C   0  0  0  0  0  0  0  0  0  0  0  0
  -30.3660  -13.2710   19.5010 C   0  0  0  0  0  2  0  0  0  0  0  0
  -29.5150  -12.7400   18.3120 C   0  0  0  0  0  2  0  0  0  0  0  0
  -28.1120  -12.3440   18.7780 C   0  0  0  0  0  2  0  0  0  0  0  0
  -27.5570  -13.3750   19.7820 C   0  0  0  0  0  3  0  0  0  0  0  0
  -28.5610  -13.8190   20.8800 C   0  0  0  0  0  2  0  0  0  0  0  0
  -29.6980  -14.4890   20.1880 N   0  0  0  0  0  0  0  0  0  0  0  0
  -31.5350  -15.5980   20.2900 O   0  0  0  0  0  0  0  0  0  0  0  0
  -29.1760  -20.4320   20.2960 C   0  0  0  0  0  0  0  0  0  0  0  0
  -28.9850  -21.9950   20.3330 C   0  0  0  0  0  0  0  0  0  0  0  0
  -28.7390  -18.6950   20.1650 C   0  0  0  0  0  2  0  0  0  0  0  0
  -30.4120  -22.4410   20.6520 C   0  0  0  0  0  2  0  0  0  0  0  0
  -31.2620  -21.1910   21.0650 C   0  0  0  0  0  2  0  0  0  0  0  0
  -30.8610  -18.4360   20.8460 C   0  0  0  0  0  2  0  0  0  0  0  0
  -30.6150  -19.9870   20.3730 C   0  0  0  0  0  3  0  0  0  0  0  0
  -29.8470  -17.3810   20.4120 N   0  0  0  0  0  0  0  0  0  0  0  0
  -25.1870  -13.8680   20.5240 C   0  0  0  0  0  0  0  0  0  0  0  0
  -24.1330  -13.0750   20.8750 C   0  0  0  0  0  0  0  0  0  0  0  0
  -24.6230  -11.7320   20.8600 C   0  0  0  0  0  0  0  0  0  0  0  0
  -26.2470  -13.0130   20.3030 N   0  0  0  0  0  0  0  0  0  0  0  0
  -25.9220  -11.7190   20.5720 N   0  0  0  0  0  0  0  0  0  0  0  0
  -23.9080  -10.4600   21.0440 C   0  0  0  0  0  0  0  0  0  0  0  0
  -24.3350   -9.5000   21.9880 C   0  0  0  0  0  3  0  0  0  0  0  0
  -23.6140   -8.2980   22.1640 C   0  0  0  0  0  3  0  0  0  0  0  0
  -22.4530   -8.0470   21.3970 C   0  0  0  0  0  0  0  0  0  0  0  0
  -22.0430   -8.9960   20.4430 C   0  0  0  0  0  3  0  0  0  0  0  0
  -22.7640  -10.1890   20.2660 C   0  0  0  0  0  3  0  0  0  0  0  0
  -21.7050   -6.8970   21.4810 O   0  0  0  0  0  0  0  0  0  0  0  0
  -21.6490   -6.1570   22.6350 C   0  0  0  0  0  0  0  0  0  0  0  0
  -21.2080   -6.7140   23.8560 C   0  0  0  0  0  3  0  0  0  0  0  0
  -21.1010   -5.9010   25.0020 C   0  0  0  0  0  3  0  0  0  0  0  0
  -21.4230   -4.5320   24.9290 C   0  0  0  0  0  0  0  0  0  0  0  0
  -21.8560   -3.9750   23.7130 C   0  0  0  0  0  3  0  0  0  0  0  0
  -21.9650   -4.7850   22.5690 C   0  0  0  0  0  0  0  0  0  0  0  0
  -22.3620   -4.2380   21.3940 F   0  0  0  0  0  0  0  0  0  0  0  0
  -21.3130   -3.7500   26.0270 F   0  0  0  0  0  0  0  0  0  0  0  0
  -22.7250  -13.5340   21.1100 C   0  0  0  0  0  0  0  0  0  0  0  0
  -21.9920  -12.8420   21.9750 N   0  0  0  0  0  0  0  0  0  0  0  0
  -22.2850  -14.5450   20.5630 O   0  0  0  0  0  0  0  0  0  0  0  0
  -22.3600  -12.0250   22.4370 H   0  0  0  0  0  0  0  0  0  0  0  0
  -21.0460  -13.1360   22.1780 H   0  0  0  0  0  0  0  0  0  0  0  0
  -25.3330  -15.2400   20.3390 N   0  0  0  0  0  0  0  0  0  0  0  0
  -24.5590  -15.8890   20.4390 H   0  0  0  0  0  0  0  0  0  0  0  0
  -26.1890  -15.6880   20.0390 H   0  0  0  0  0  0  0  0  0  0  0  0
  -27.9280  -23.5780   20.2110 C   0  0  0  0  0  2  0  0  0  0  0  0
  -28.1310  -25.3760   20.3150 O   0  0  0  0  0  0  0  0  0  0  0  0
  -24.6560  -31.8320   23.1790 C   0  0  0  0  0  0  0  0  0  0  0  0
  -27.1770  -26.6400   20.2530 C   0  0  0  0  0  0  0  0  0  0  0  0
  -23.4770  -30.4230   21.5470 C   0  0  0  0  0  3  0  0  0  0  0  0
  -24.9270  -28.7420   20.1610 C   0  0  0  0  0  0  0  0  0  0  0  0
  -26.0600  -30.5280   21.4500 C   0  0  0  0  0  2  0  0  0  0  0  0
  -26.1230  -29.0810   20.8060 C   0  0  0  0  0  0  0  0  0  0  0  0
  -27.2260  -28.0590   20.8170 C   0  0  0  0  0  3  0  0  0  0  0  0
  -25.9460  -26.5350   19.5500 C   0  0  0  0  0  3  0  0  0  0  0  0
  -24.8840  -27.4970   19.5090 C   0  0  0  0  0  3  0  0  0  0  0  0
  -23.7270  -29.7080   20.1860 C   0  0  0  0  0  2  0  0  0  0  0  0
  -24.7560  -30.9640   22.1100 N   0  0  0  0  0  0  0  0  0  0  0  0
  -23.5580  -32.1460   23.6740 O   0  0  0  0  0  0  0  0  0  0  0  0
  -22.7410  -29.4660   22.5230 C   0  0  0  0  0  0  0  0  0  0  0  0
  -21.4070  -29.3320   22.4000 N   0  0  0  0  0  0  0  0  0  0  0  0
  -23.3850  -28.8360   23.3650 O   0  0  0  0  0  0  0  0  0  0  0  0
  -20.9340  -29.8890   21.7010 H   0  0  0  0  0  0  0  0  0  0  0  0
  -18.0020  -28.1650   22.9310 C   0  0  0  0  0  0  0  0  0  0  0  0
  -20.5680  -28.4080   23.1770 C   0  0  0  0  0  3  0  0  0  0  0  0
  -20.6490  -26.9730   22.6060 C   0  0  0  0  0  2  0  0  0  0  0  0
  -19.5390  -26.6620   21.5950 C   0  0  0  0  0  2  0  0  0  0  0  0
  -18.1620  -26.8170   22.2470 C   0  0  0  0  0  2  0  0  0  0  0  0
  -19.1310  -28.9190   23.3530 C   0  0  0  0  0  0  0  0  0  0  0  0
  -18.9240  -30.1770   23.9590 C   0  0  0  0  0  3  0  0  0  0  0  0
  -17.6220  -30.6830   24.1440 C   0  0  0  0  0  3  0  0  0  0  0  0
  -16.5110  -29.9280   23.7330 C   0  0  0  0  0  3  0  0  0  0  0  0
  -16.7020  -28.6710   23.1330 C   0  0  0  0  0  3  0  0  0  0  0  0
  -25.9130  -32.4880   23.8290 C   0  0  0  0  0  3  0  0  0  0  0  0
  -25.5870  -33.8890   24.1650 N   0  0  0  0  0  0  0  0  0  0  0  0
  -25.9170  -34.9580   23.4290 C   0  0  0  0  0  0  0  0  0  0  0  0
  -26.5850  -34.8690   22.3950 O   0  0  0  0  0  0  0  0  0  0  0  0
  -24.9990  -34.0300   24.9730 H   0  0  0  0  0  0  0  0  0  0  0  0
  -24.1850  -36.7630   23.1240 C   0  0  0  0  0  1  0  0  0  0  0  0
  -25.4370  -36.3440   23.9100 C   0  0  0  0  0  3  0  0  0  0  0  0
  -27.5730  -37.2360   24.7320 C   0  0  0  0  0  1  0  0  0  0  0  0
  -26.4690  -37.3980   23.7900 N   0  0  0  0  0  0  0  0  0  0  0  0
  -26.0640  -38.3200   23.9270 H   0  0  0  0  0  0  0  0  0  0  0  0
  -26.4020  -31.7310   25.1270 C   0  0  1  0  0  0  0  0  0  0  0  0
  -25.2900  -31.5150   26.1800 C   0  0  0  0  0  1  0  0  0  0  0  0
  -26.9840  -30.3450   24.7750 C   0  0  0  0  0  1  0  0  0  0  0  0
  -27.5490  -32.5270   25.7950 C   0  0  0  0  0  1  0  0  0  0  0  0
  1 16  1  0
  2  7  1  0
  3  4  1  0
  3  2  1  0
  5  4  1  0
  5 20  1  0
  5  6  1  0
  7  1  1  0
  7  6  1  0
  8  1  2  0
  9 10  2  0
  9 15  1  0
 10 12  1  0
 11  9  1  0
 11 16  1  0
 12 13  1  0
 15 14  1  0
 15 13  1  0
 16 14  1  0
 17 18  2  0
 18 37  1  0
 19 18  1  0
 19 22  1  0
 20 17  1  0
 20 21  1  0
 21 19  2  0
 22 23  1  0
 23 24  2  0
 25 28  1  0
 25 24  1  0
 26 25  2  0
 27 26  1  0
 27 22  2  0
 28 29  1  0
 29 30  1  0
 30 31  2  0
 32 31  1  0
 32 36  1  0
 33 32  2  0
 34 29  2  0
 34 33  1  0
 35 34  1  0
 37 38  1  0
 38 41  1  0
 38 40  1  0
 39 37  2  0
 42 43  1  0
 42 17  1  0
 44 42  1  0
 45 46  1  0
 45 10  1  0
 47 58  2  0
 48 46  1  0
 48 53  1  0
 49 57  1  0
 49 59  1  0
 50 56  1  0
 50 52  1  0
 51 57  1  0
 52 53  2  0
 52 51  1  0
 54 48  2  0
 55 54  1  0
 55 50  2  0
 56 49  1  0
 57 47  1  0
 59 61  2  0
 60 59  1  0
 62 60  1  0
 63 72  2  0
 63 68  1  0
 64 60  1  0
 64 68  1  0
 65 64  1  0
 66 67  1  0
 66 65  1  0
 67 63  1  0
 68 69  2  0
 69 70  1  0
 71 70  2  0
 72 71  1  0
 73 47  1  0
 73 74  1  0
 73 83  1  0
 74 77  1  0
 75 79  1  0
 75 74  1  0
 76 75  2  0
 79 78  1  0
 81 79  1  0
 81 82  1  0
 81 80  1  0
 83 86  1  1
 83 84  1  0
 85 83  1  0
M  ISO  4   1 100  16 100  45 101  46 101
M  END
>  <TORSDO>  (41) 
F 16

>  <SCORE>  (41) 
-16.580

>  <name>  (41) 
40

>  <ligand_id>  (41) 
40

>  <original_smiles>  (41) 
[H]c1c([H])c([H])c2c(c1[H])C([H])([H])C([H])([H])C([H])([H])C2([H])N([H])C(=O)C1([H])N(C(=O)C([H])(N([H])C(=O)C([H])(N([H])C([H])([H])[H])C([H])([H])[H])C(C([H])([H])[H])(C([H])([H])[H])C([H])([H])[H])C([H])([H])c2c([H])c(OC([H])([H])C3=C4C([H])([H])N(C(=O)N5C([H])([H])C([H])([H])C([H])([H])C([H])(n6nc(-c7c([H])c([H])c(Oc8c([H])c([H])c(F)c([H])c8F)c([H])c7[H])c(C(=O)N([H])[H])c6N([H])[H])C5([H])[H])C([H])([H])C4([H])C([H])([H])C3([H])[H])c([H])c([H])c2C1([H])[H]

>  <smiles>  (41) 
[H]c1c([H])c([H])c2c(c1[H])C([H])([H])C([H])([H])C([H])([H])C2([H])N([H])C(=O)C1([H])N(C(=O)C([H])(N([H])C(=O)C([H])(N([H])C([H])([H])[H])C([H])([H])[H])C(C([H])([H])[H])(C([H])([H])[H])C([H])([H])[H])C([H])([H])c2c([H])c(OC([H])([H])C3=C4C([H])([H])N(C(=O)N5C([H])([H])C([H])([H])C([H])([H])C([H])(n6nc(-c7c([H])c([H])c(Oc8c([H])c([H])c(F)c([H])c8F)c([H])c7[H])c(C(=O)N([H])[H])c6N([H])[H])C5([H])[H])C([H])([H])C4([H])C([H])([H])C3([H])[H])c([H])c([H])c2C1([H])[H]

$$$$
41:0:0
     RDKit          3D

 93102  0  0  1  0  0  0  0  0999 V2000
  -30.6870  -22.4920   20.8530 C   0  0  0  0  0  2  0  0  0  0  0  0
  -32.3380  -19.0050   20.3400 C   0  0  0  0  0  2  0  0  0  0  0  0
  -31.4870  -19.5600   22.0790 C   0  0  0  0  0  2  0  0  0  0  0  0
  -30.0880  -20.0480   20.0790 C   0  0  0  0  0  2  0  0  0  0  0  0
  -32.1620  -20.3950   20.9700 C   0  0  0  0  0  3  0  0  0  0  0  0
  -31.1300  -21.1780   20.1680 C   0  0  0  0  0  3  0  0  0  0  0  0
  -30.8660  -18.9470   20.8070 C   0  0  1  0  0  0  0  0  0  0  0  0
  -30.1340  -17.5990   20.8320 C   0  0  0  0  0  2  0  0  0  0  0  0
  -30.7740  -16.5420   21.7580 C   0  0  0  0  0  2  0  0  0  0  0  0
  -30.7290  -14.3860   20.5360 C   0  0  0  0  0  0  0  0  0  0  0  0
  -30.3490  -12.3270   19.2400 C   0  0  0  0  0  2  0  0  0  0  0  0
  -29.4020  -12.6050   18.0590 C   0  0  0  0  0  2  0  0  0  0  0  0
  -27.9290  -12.4750   18.4960 C   0  0  0  0  0  2  0  0  0  0  0  0
  -27.6190  -13.2610   19.7980 C   0  0  0  0  0  3  0  0  0  0  0  0
  -28.6750  -12.9660   20.8840 C   0  0  0  0  0  2  0  0  0  0  0  0
  -30.0110  -13.2540   20.3290 N   0  0  0  0  0  0  0  0  0  0  0  0
  -31.7490  -14.6680   19.9000 O   0  0  0  0  0  0  0  0  0  0  0  0
  -30.2480  -15.2080   21.4780 N   0  0  0  0  0  0  0  0  0  0  0  0
  -29.4330  -14.9010   21.9880 H   0  0  0  0  0  0  0  0  0  0  0  0
  -25.2140  -13.8670   20.4990 C   0  0  0  0  0  0  0  0  0  0  0  0
  -24.1490  -13.0930   20.8720 C   0  0  0  0  0  0  0  0  0  0  0  0
  -24.6140  -11.7430   20.8450 C   0  0  0  0  0  0  0  0  0  0  0  0
  -26.2630  -12.9880   20.2730 N   0  0  0  0  0  0  0  0  0  0  0  0
  -25.9020  -11.7050   20.5340 N   0  0  0  0  0  0  0  0  0  0  0  0
  -23.8920  -10.4780   21.0420 C   0  0  0  0  0  0  0  0  0  0  0  0
  -24.3340   -9.5110   21.9720 C   0  0  0  0  0  3  0  0  0  0  0  0
  -23.6110   -8.3120   22.1560 C   0  0  0  0  0  3  0  0  0  0  0  0
  -22.4340   -8.0710   21.4090 C   0  0  0  0  0  0  0  0  0  0  0  0
  -22.0120   -9.0260   20.4680 C   0  0  0  0  0  3  0  0  0  0  0  0
  -22.7340  -10.2170   20.2820 C   0  0  0  0  0  3  0  0  0  0  0  0
  -21.6840   -6.9230   21.5010 O   0  0  0  0  0  0  0  0  0  0  0  0
  -21.6560   -6.1720   22.6490 C   0  0  0  0  0  0  0  0  0  0  0  0
  -21.2530   -6.7180   23.8880 C   0  0  0  0  0  3  0  0  0  0  0  0
  -21.1710   -5.8940   25.0270 C   0  0  0  0  0  3  0  0  0  0  0  0
  -21.4830   -4.5230   24.9300 C   0  0  0  0  0  0  0  0  0  0  0  0
  -21.8800   -3.9770   23.6970 C   0  0  0  0  0  3  0  0  0  0  0  0
  -21.9640   -4.7990   22.5590 C   0  0  0  0  0  0  0  0  0  0  0  0
  -22.3250   -4.2640   21.3690 F   0  0  0  0  0  0  0  0  0  0  0  0
  -21.3990   -3.7300   26.0220 F   0  0  0  0  0  0  0  0  0  0  0  0
  -22.7500  -13.5660   21.1480 C   0  0  0  0  0  0  0  0  0  0  0  0
  -22.0270  -12.8720   22.0190 N   0  0  0  0  0  0  0  0  0  0  0  0
  -22.3080  -14.5890   20.6260 O   0  0  0  0  0  0  0  0  0  0  0  0
  -22.3970  -12.0450   22.4650 H   0  0  0  0  0  0  0  0  0  0  0  0
  -21.0890  -13.1710   22.2440 H   0  0  0  0  0  0  0  0  0  0  0  0
  -25.3740  -15.2370   20.3150 N   0  0  0  0  0  0  0  0  0  0  0  0
  -24.6050  -15.8890   20.4200 H   0  0  0  0  0  0  0  0  0  0  0  0
  -26.2250  -15.6770   19.9900 H   0  0  0  0  0  0  0  0  0  0  0  0
  -29.6890  -23.2540   20.0650 N   0  0  0  0  0  4  0  0  0  0  0  0
  -28.7770  -22.8910   20.2960 H   0  0  0  0  0  0  0  0  0  0  0  0
  -29.8400  -23.0800   19.0820 H   0  0  0  0  0  0  0  0  0  0  0  0
  -29.7090  -24.7230   20.3030 C   0  0  0  0  0  2  0  0  0  0  0  0
  -28.4660  -25.4250   19.7260 C   0  0  0  0  0  2  0  0  0  0  0  0
  -28.4300  -26.7900   20.1510 O   0  0  0  0  0  0  0  0  0  0  0  0
  -24.5650  -31.8830   23.2400 C   0  0  0  0  0  0  0  0  0  0  0  0
  -27.2250  -27.4650   20.1340 C   0  0  0  0  0  0  0  0  0  0  0  0
  -23.3600  -30.4880   21.5910 C   0  0  0  0  0  3  0  0  0  0  0  0
  -24.8140  -28.9540   20.1610 C   0  0  0  0  0  0  0  0  0  0  0  0
  -25.8870  -30.8410   21.4030 C   0  0  0  0  0  2  0  0  0  0  0  0
  -25.9690  -29.4790   20.7540 C   0  0  0  0  0  0  0  0  0  0  0  0
  -27.1710  -28.7400   20.7400 C   0  0  0  0  0  3  0  0  0  0  0  0
  -26.0470  -26.9500   19.5360 C   0  0  0  0  0  3  0  0  0  0  0  0
  -24.8470  -27.6870   19.5530 C   0  0  0  0  0  3  0  0  0  0  0  0
  -23.5700  -29.8110   20.2100 C   0  0  0  0  0  2  0  0  0  0  0  0
  -24.6220  -31.0850   22.1360 N   0  0  0  0  0  0  0  0  0  0  0  0
  -23.4830  -32.1560   23.7760 O   0  0  0  0  0  0  0  0  0  0  0  0
  -22.7040  -29.4660   22.5460 C   0  0  0  0  0  0  0  0  0  0  0  0
  -21.3820  -29.2810   22.4060 N   0  0  0  0  0  0  0  0  0  0  0  0
  -23.3830  -28.8420   23.3640 O   0  0  0  0  0  0  0  0  0  0  0  0
  -20.8970  -29.8360   21.7170 H   0  0  0  0  0  0  0  0  0  0  0  0
  -18.0060  -28.0800   22.8740 C   0  0  0  0  0  0  0  0  0  0  0  0
  -20.5610  -28.3410   23.1700 C   0  0  0  0  0  3  0  0  0  0  0  0
  -20.6710  -26.9110   22.5940 C   0  0  0  0  0  2  0  0  0  0  0  0
  -19.5790  -26.5870   21.5700 C   0  0  0  0  0  2  0  0  0  0  0  0
  -18.1910  -26.7310   22.2020 C   0  0  0  0  0  2  0  0  0  0  0  0
  -19.1200  -28.8440   23.3140 C   0  0  0  0  0  0  0  0  0  0  0  0
  -18.8940  -30.1080   23.9020 C   0  0  0  0  0  3  0  0  0  0  0  0
  -17.5870  -30.6080   24.0560 C   0  0  0  0  0  3  0  0  0  0  0  0
  -16.4880  -29.8410   23.6320 C   0  0  0  0  0  3  0  0  0  0  0  0
  -16.6980  -28.5800   23.0460 C   0  0  0  0  0  3  0  0  0  0  0  0
  -25.8520  -32.5070   23.8660 C   0  0  0  0  0  3  0  0  0  0  0  0
  -25.5480  -33.9060   24.1920 N   0  0  0  0  0  0  0  0  0  0  0  0
  -25.8890  -34.9560   23.4310 C   0  0  0  0  0  0  0  0  0  0  0  0
  -26.5630  -34.8460   22.4030 O   0  0  0  0  0  0  0  0  0  0  0  0
  -24.9500  -34.0660   24.9900 H   0  0  0  0  0  0  0  0  0  0  0  0
  -24.1700  -36.7550   23.0630 C   0  0  0  0  0  1  0  0  0  0  0  0
  -25.4060  -36.3470   23.8810 C   0  0  0  0  0  3  0  0  0  0  0  0
  -27.5420  -37.2210   24.7180 C   0  0  0  0  0  1  0  0  0  0  0  0
  -26.4430  -37.3950   23.7710 N   0  0  0  0  0  0  0  0  0  0  0  0
  -26.0420  -38.3170   23.9140 H   0  0  0  0  0  0  0  0  0  0  0  0
  -26.3640  -31.7340   25.1440 C   0  0  1  0  0  0  0  0  0  0  0  0
  -25.2670  -31.4960   26.2080 C   0  0  0  0  0  1  0  0  0  0  0  0
  -26.9510  -30.3570   24.7540 C   0  0  0  0  0  1  0  0  0  0  0  0
  -27.5110  -32.5280   25.8100 C   0  0  0  0  0  1  0  0  0  0  0  0
  2  7  1  0
  4  6  1  0
  4  7  1  0
  5  2  1  0
  5  3  1  0
  6  1  1  0
  6  5  1  0
  7  8  1  1
  7  3  1  0
  8  9  1  0
 10 18  1  0
 11 16  1  0
 12 13  1  0
 12 11  1  0
 14 13  1  0
 14 23  1  0
 14 15  1  0
 16 10  1  0
 16 15  1  0
 17 10  2  0
 18  9  1  0
 18 19  1  0
 20 21  2  0
 21 40  1  0
 22 21  1  0
 22 25  1  0
 23 20  1  0
 23 24  1  0
 24 22  2  0
 25 26  1  0
 26 27  2  0
 28 31  1  0
 28 27  1  0
 29 28  2  0
 30 29  1  0
 30 25  2  0
 31 32  1  0
 32 33  1  0
 33 34  2  0
 35 34  1  0
 35 39  1  0
 36 35  2  0
 37 32  2  0
 37 36  1  0
 38 37  1  0
 40 41  1  0
 41 44  1  0
 41 43  1  0
 42 40  2  0
 45 46  1  0
 45 20  1  0
 47 45  1  0
 48 49  1  0
 48 51  1  0
 48  1  1  0
 50 48  1  0
 52 53  1  0
 52 51  1  0
 54 65  2  0
 55 53  1  0
 55 60  1  0
 56 64  1  0
 56 66  1  0
 57 63  1  0
 57 59  1  0
 58 64  1  0
 59 58  1  0
 60 59  2  0
 61 62  1  0
 61 55  2  0
 62 57  2  0
 63 56  1  0
 64 54  1  0
 66 68  2  0
 67 66  1  0
 69 67  1  0
 70 79  2  0
 70 75  1  0
 71 67  1  0
 71 75  1  0
 72 71  1  0
 73 74  1  0
 73 72  1  0
 74 70  1  0
 75 76  2  0
 76 77  1  0
 78 77  2  0
 79 78  1  0
 80 54  1  0
 80 81  1  0
 80 90  1  0
 81 84  1  0
 82 86  1  0
 82 81  1  0
 83 82  2  0
 86 85  1  0
 88 86  1  0
 88 89  1  0
 88 87  1  0
 90 93  1  1
 90 91  1  0
 92 90  1  0
M  ISO  4  10 100  18 100  52 101  53 101
M  END
>  <TORSDO>  (42) 
F 22

>  <SCORE>  (42) 
-13.407

>  <name>  (42) 
41

>  <ligand_id>  (42) 
41

>  <original_smiles>  (42) 
[H]c1c([H])c([H])c2c(c1[H])C([H])([H])C([H])([H])C([H])([H])C2([H])N([H])C(=O)C1([H])N(C(=O)C([H])(N([H])C(=O)C([H])(N([H])C([H])([H])[H])C([H])([H])[H])C(C([H])([H])[H])(C([H])([H])[H])C([H])([H])[H])C([H])([H])c2c([H])c(OC([H])([H])C([H])([H])[N+]([H])([H])C([H])([H])C3([H])C([H])([H])C4(C([H])([H])C([H])([H])N([H])C(=O)N5C([H])([H])C([H])([H])C([H])([H])C([H])(n6nc(-c7c([H])c([H])c(Oc8c([H])c([H])c(F)c([H])c8F)c([H])c7[H])c(C(=O)N([H])[H])c6N([H])[H])C5([H])[H])C([H])([H])C3([H])C4([H])[H])c([H])c([H])c2C1([H])[H]

>  <smiles>  (42) 
[H]c1c([H])c([H])c2c(c1[H])C([H])([H])C([H])([H])C([H])([H])C2([H])N([H])C(=O)C1([H])N(C(=O)C([H])(N([H])C(=O)C([H])(N([H])C([H])([H])[H])C([H])([H])[H])C(C([H])([H])[H])(C([H])([H])[H])C([H])([H])[H])C([H])([H])c2c([H])c(OC([H])([H])C([H])([H])[N+]([H])([H])C([H])([H])C3([H])C([H])([H])C4(C([H])([H])C([H])([H])N([H])C(=O)N5C([H])([H])C([H])([H])C([H])([H])C([H])(n6nc(-c7c([H])c([H])c(Oc8c([H])c([H])c(F)c([H])c8F)c([H])c7[H])c(C(=O)N([H])[H])c6N([H])[H])C5([H])[H])C([H])([H])C3([H])C4([H])[H])c([H])c([H])c2C1([H])[H]

$$$$
42:0:0
     RDKit          3D

 87 96  0  0  1  0  0  0  0  0999 V2000
  -30.3850  -15.4410   20.3240 C   0  0  0  0  0  0  0  0  0  0  0  0
  -30.4080  -12.9560   19.5080 C   0  0  0  0  0  2  0  0  0  0  0  0
  -29.5290  -12.6540   18.2680 C   0  0  0  0  0  2  0  0  0  0  0  0
  -28.0830  -12.3500   18.6890 C   0  0  0  0  0  2  0  0  0  0  0  0
  -27.5780  -13.3410   19.7640 C   0  0  0  0  0  3  0  0  0  0  0  0
  -28.5930  -13.5900   20.9000 C   0  0  0  0  0  2  0  0  0  0  0  0
  -29.8120  -14.1270   20.2680 N   0  0  0  0  0  0  0  0  0  0  0  0
  -31.6190  -15.3860   20.1910 O   0  0  0  0  0  0  0  0  0  0  0  0
  -28.3990  -17.2180   19.7380 C   0  0  0  0  0  2  0  0  0  0  0  0
  -28.4650  -20.0680   19.0550 C   0  0  0  0  0  2  0  0  0  0  0  0
  -29.5460  -19.7870   21.1050 C   0  0  0  0  0  2  0  0  0  0  0  0
  -29.0570  -18.5360   19.1410 C   0  0  0  0  0  3  0  0  0  0  0  0
  -30.0420  -18.3970   20.2470 C   0  0  0  0  0  3  0  0  0  0  0  0
  -29.6850  -16.7860   20.3790 N   0  0  0  0  0  0  0  0  0  0  0  0
  -28.7260  -20.9200   20.3020 N   0  0  1  0  0  4  0  0  0  0  0  0
  -27.8410  -20.8820   20.7880 H   0  0  0  0  0  0  0  0  0  0  0  0
  -25.1920  -13.8750   20.4710 C   0  0  0  0  0  0  0  0  0  0  0  0
  -24.1310  -13.0900   20.8210 C   0  0  0  0  0  0  0  0  0  0  0  0
  -24.6140  -11.7440   20.8130 C   0  0  0  0  0  0  0  0  0  0  0  0
  -26.2480  -13.0100   20.2560 N   0  0  0  0  0  0  0  0  0  0  0  0
  -25.9130  -11.7220   20.5320 N   0  0  0  0  0  0  0  0  0  0  0  0
  -23.8950  -10.4770   20.9960 C   0  0  0  0  0  0  0  0  0  0  0  0
  -24.3060   -9.5240   21.9550 C   0  0  0  0  0  3  0  0  0  0  0  0
  -23.5840   -8.3240   22.1270 C   0  0  0  0  0  3  0  0  0  0  0  0
  -22.4360   -8.0670   21.3390 C   0  0  0  0  0  0  0  0  0  0  0  0
  -22.0450   -9.0060   20.3700 C   0  0  0  0  0  3  0  0  0  0  0  0
  -22.7680  -10.1990   20.1960 C   0  0  0  0  0  3  0  0  0  0  0  0
  -21.6870   -6.9170   21.4190 O   0  0  0  0  0  0  0  0  0  0  0  0
  -21.5950   -6.1980   22.5840 C   0  0  0  0  0  0  0  0  0  0  0  0
  -21.1050   -6.7720   23.7770 C   0  0  0  0  0  3  0  0  0  0  0  0
  -20.9610   -5.9780   24.9330 C   0  0  0  0  0  3  0  0  0  0  0  0
  -21.2980   -4.6120   24.8960 C   0  0  0  0  0  0  0  0  0  0  0  0
  -21.7810   -4.0380   23.7080 C   0  0  0  0  0  3  0  0  0  0  0  0
  -21.9260   -4.8280   22.5540 C   0  0  0  0  0  0  0  0  0  0  0  0
  -22.3710   -4.2650   21.4050 F   0  0  0  0  0  0  0  0  0  0  0  0
  -21.1530   -3.8480   26.0040 F   0  0  0  0  0  0  0  0  0  0  0  0
  -22.7230  -13.5550   21.0480 C   0  0  0  0  0  0  0  0  0  0  0  0
  -21.9830  -12.8670   21.9090 N   0  0  0  0  0  0  0  0  0  0  0  0
  -22.2890  -14.5660   20.4970 O   0  0  0  0  0  0  0  0  0  0  0  0
  -22.3480  -12.0510   22.3770 H   0  0  0  0  0  0  0  0  0  0  0  0
  -21.0370  -13.1620   22.1040 H   0  0  0  0  0  0  0  0  0  0  0  0
  -25.3430  -15.2450   20.2860 N   0  0  0  0  0  0  0  0  0  0  0  0
  -24.5670  -15.8910   20.3800 H   0  0  0  0  0  0  0  0  0  0  0  0
  -26.1980  -15.6900   19.9830 H   0  0  0  0  0  0  0  0  0  0  0  0
  -28.9950  -22.6090   20.2710 C   0  0  0  0  0  3  0  0  0  0  0  0
  -27.9360  -24.1140   20.1330 C   0  0  0  0  0  3  0  0  0  0  0  0
  -28.1560  -25.7870   20.2250 O   0  0  0  0  0  0  0  0  0  0  0  0
  -24.6420  -31.8600   23.2020 C   0  0  0  0  0  0  0  0  0  0  0  0
  -27.1520  -26.9160   20.1770 C   0  0  0  0  0  0  0  0  0  0  0  0
  -23.4340  -30.4670   21.5730 C   0  0  0  0  0  3  0  0  0  0  0  0
  -24.8660  -28.8460   20.1430 C   0  0  0  0  0  0  0  0  0  0  0  0
  -26.0030  -30.6520   21.4140 C   0  0  0  0  0  2  0  0  0  0  0  0
  -26.0630  -29.2350   20.7570 C   0  0  0  0  0  0  0  0  0  0  0  0
  -27.1980  -28.2940   20.7450 C   0  0  0  0  0  3  0  0  0  0  0  0
  -25.9230  -26.6950   19.5130 C   0  0  0  0  0  3  0  0  0  0  0  0
  -24.8260  -27.5980   19.4990 C   0  0  0  0  0  3  0  0  0  0  0  0
  -23.6540  -29.7790   20.1980 C   0  0  0  0  0  2  0  0  0  0  0  0
  -24.7160  -31.0210   22.1160 N   0  0  0  0  0  0  0  0  0  0  0  0
  -23.5570  -32.1550   23.7300 O   0  0  0  0  0  0  0  0  0  0  0  0
  -22.7380  -29.4770   22.5460 C   0  0  0  0  0  0  0  0  0  0  0  0
  -21.4070  -29.3170   22.4280 N   0  0  0  0  0  0  0  0  0  0  0  0
  -23.4040  -28.8540   23.3760 O   0  0  0  0  0  0  0  0  0  0  0  0
  -20.9210  -29.8700   21.7360 H   0  0  0  0  0  0  0  0  0  0  0  0
  -18.0260  -28.1030   22.9540 C   0  0  0  0  0  0  0  0  0  0  0  0
  -20.5870  -28.3800   23.2060 C   0  0  0  0  0  3  0  0  0  0  0  0
  -20.6890  -26.9460   22.6370 C   0  0  0  0  0  2  0  0  0  0  0  0
  -19.5860  -26.6160   21.6280 C   0  0  0  0  0  2  0  0  0  0  0  0
  -18.2060  -26.7540   22.2770 C   0  0  0  0  0  2  0  0  0  0  0  0
  -19.1430  -28.8740   23.3750 C   0  0  0  0  0  0  0  0  0  0  0  0
  -18.9180  -30.1330   23.9720 C   0  0  0  0  0  3  0  0  0  0  0  0
  -17.6100  -30.6240   24.1490 C   0  0  0  0  0  3  0  0  0  0  0  0
  -16.5080  -29.8520   23.7400 C   0  0  0  0  0  3  0  0  0  0  0  0
  -16.7170  -28.5940   23.1490 C   0  0  0  0  0  3  0  0  0  0  0  0
  -25.9170  -32.5010   23.8280 C   0  0  0  0  0  3  0  0  0  0  0  0
  -25.6020  -33.9000   24.1700 N   0  0  0  0  0  0  0  0  0  0  0  0
  -25.9180  -34.9660   23.4220 C   0  0  0  0  0  0  0  0  0  0  0  0
  -26.5660  -34.8740   22.3760 O   0  0  0  0  0  0  0  0  0  0  0  0
  -25.0210  -34.0450   24.9840 H   0  0  0  0  0  0  0  0  0  0  0  0
  -24.1750  -36.7630   23.1420 C   0  0  0  0  0  1  0  0  0  0  0  0
  -25.4430  -36.3510   23.9070 C   0  0  0  0  0  3  0  0  0  0  0  0
  -27.6000  -37.2420   24.6760 C   0  0  0  0  0  1  0  0  0  0  0  0
  -26.4690  -37.4100   23.7680 N   0  0  0  0  0  0  0  0  0  0  0  0
  -26.0640  -38.3270   23.9310 H   0  0  0  0  0  0  0  0  0  0  0  0
  -26.4290  -31.7340   25.1110 C   0  0  1  0  0  0  0  0  0  0  0  0
  -25.3360  -31.5100   26.1830 C   0  0  0  0  0  1  0  0  0  0  0  0
  -27.0050  -30.3500   24.7370 C   0  0  0  0  0  1  0  0  0  0  0  0
  -27.5850  -32.5260   25.7680 C   0  0  0  0  0  1  0  0  0  0  0  0
  1 14  1  0
  2  7  1  0
  3  4  1  0
  3  2  1  0
  5  4  1  0
  5 20  1  0
  5  6  1  0
  7  1  1  0
  7  6  1  0
  8  1  2  0
  9 14  1  0
 10 15  1  0
 12 10  1  0
 12  9  1  0
 12 13  1  0
 13 14  1  0
 13 11  1  0
 15 16  1  1
 15 11  1  0
 17 18  2  0
 18 37  1  0
 19 18  1  0
 19 22  1  0
 20 17  1  0
 20 21  1  0
 21 19  2  0
 22 23  1  0
 23 24  2  0
 25 28  1  0
 25 24  1  0
 26 25  2  0
 27 26  1  0
 27 22  2  0
 28 29  1  0
 29 30  1  0
 30 31  2  0
 32 31  1  0
 32 36  1  0
 33 32  2  0
 34 29  2  0
 34 33  1  0
 35 34  1  0
 37 38  1  0
 38 41  1  0
 38 40  1  0
 39 37  2  0
 42 43  1  0
 42 17  1  0
 44 42  1  0
 45 15  1  0
 46 47  1  0
 46 45  2  0
 48 59  2  0
 49 47  1  0
 49 54  1  0
 50 58  1  0
 50 60  1  0
 51 57  1  0
 51 53  1  0
 52 58  1  0
 53 52  1  0
 54 53  2  0
 55 49  2  0
 56 55  1  0
 56 51  2  0
 57 50  1  0
 58 48  1  0
 60 62  2  0
 61 60  1  0
 63 61  1  0
 64 73  2  0
 64 69  1  0
 65 61  1  0
 65 69  1  0
 66 65  1  0
 67 68  1  0
 67 66  1  0
 68 64  1  0
 69 70  2  0
 70 71  1  0
 72 71  2  0
 73 72  1  0
 74 48  1  0
 74 75  1  0
 74 84  1  0
 75 78  1  0
 76 80  1  0
 76 75  1  0
 77 76  2  0
 80 79  1  0
 82 80  1  0
 82 83  1  0
 82 81  1  0
 84 87  1  1
 84 85  1  0
 86 84  1  0
M  ISO  4   1 100  14 100  46 101  47 101
M  END
>  <TORSDO>  (43) 
F 17

>  <SCORE>  (43) 
-16.424

>  <name>  (43) 
42

>  <ligand_id>  (43) 
42

>  <original_smiles>  (43) 
[H]c1c([H])c([H])c2c(c1[H])C([H])([H])C([H])([H])C([H])([H])C2([H])N([H])C(=O)C1([H])N(C(=O)C([H])(N([H])C(=O)C([H])(N([H])C([H])([H])[H])C([H])([H])[H])C(C([H])([H])[H])(C([H])([H])[H])C([H])([H])[H])C([H])([H])c2c([H])c(OC([H])([H])C([H])([H])[N+]3([H])C([H])([H])C4([H])N(C(=O)N5C([H])([H])C([H])([H])C([H])([H])C([H])(n6nc(-c7c([H])c([H])c(Oc8c([H])c([H])c(F)c([H])c8F)c([H])c7[H])c(C(=O)N([H])[H])c6N([H])[H])C5([H])[H])C([H])([H])C4([H])C3([H])[H])c([H])c([H])c2C1([H])[H]

>  <smiles>  (43) 
[H]c1c([H])c([H])c2c(c1[H])C([H])([H])C([H])([H])C([H])([H])C2([H])N([H])C(=O)C1([H])N(C(=O)C([H])(N([H])C(=O)C([H])(N([H])C([H])([H])[H])C([H])([H])[H])C(C([H])([H])[H])(C([H])([H])[H])C([H])([H])[H])C([H])([H])c2c([H])c(OC([H])([H])C([H])([H])[N+]3([H])C([H])([H])C4([H])N(C(=O)N5C([H])([H])C([H])([H])C([H])([H])C([H])(n6nc(-c7c([H])c([H])c(Oc8c([H])c([H])c(F)c([H])c8F)c([H])c7[H])c(C(=O)N([H])[H])c6N([H])[H])C5([H])[H])C([H])([H])C4([H])C3([H])[H])c([H])c([H])c2C1([H])[H]

$$$$
43:0:0
     RDKit          3D

 96105  0  0  1  0  0  0  0  0999 V2000
  -27.9480  -21.0670   21.2960 C   0  0  0  0  0  3  0  0  0  0  0  0
  -28.5540  -19.7880   20.9700 C   0  0  0  0  0  3  0  0  0  0  0  0
  -29.8760  -20.9200   19.3330 C   0  0  0  0  0  3  0  0  0  0  0  0
  -28.2710  -22.2950   20.6300 C   0  0  0  0  0  0  0  0  0  0  0  0
  -29.2400  -22.2290   19.6460 C   0  0  0  0  0  0  0  0  0  0  0  0
  -29.5580  -19.6090   19.9650 C   0  0  0  0  0  0  0  0  0  0  0  0
  -27.7660  -23.7550   20.8130 C   0  0  0  0  0  0  0  0  0  0  0  0
  -29.4260  -23.7310   19.1140 C   0  0  0  0  0  2  0  0  0  0  0  0
  -28.2310  -24.7290   19.6450 C   0  0  0  0  0  3  0  0  0  0  0  0
  -27.0540  -24.1420   21.7470 O   0  0  0  0  0  0  0  0  0  0  0  0
  -28.3430  -26.3120   19.8920 O   0  0  0  0  0  0  0  0  0  0  0  0
  -24.7150  -31.9150   23.1600 C   0  0  0  0  0  0  0  0  0  0  0  0
  -27.2700  -27.3060   19.8810 C   0  0  0  0  0  0  0  0  0  0  0  0
  -23.4960  -30.5740   21.4900 C   0  0  0  0  0  3  0  0  0  0  0  0
  -24.9290  -29.0710   19.9650 C   0  0  0  0  0  0  0  0  0  0  0  0
  -26.0460  -30.8660   21.2790 C   0  0  0  0  0  2  0  0  0  0  0  0
  -26.1190  -29.4940   20.5680 C   0  0  0  0  0  0  0  0  0  0  0  0
  -27.2860  -28.6300   20.5070 C   0  0  0  0  0  3  0  0  0  0  0  0
  -26.0510  -27.0060   19.2370 C   0  0  0  0  0  3  0  0  0  0  0  0
  -24.9120  -27.8440   19.2810 C   0  0  0  0  0  3  0  0  0  0  0  0
  -23.6950  -29.9570   20.0780 C   0  0  0  0  0  2  0  0  0  0  0  0
  -24.7740  -31.1420   22.0310 N   0  0  0  0  0  0  0  0  0  0  0  0
  -23.6380  -32.1580   23.7260 O   0  0  0  0  0  0  0  0  0  0  0  0
  -22.8500  -29.5210   22.4270 C   0  0  0  0  0  0  0  0  0  0  0  0
  -21.5260  -29.3140   22.3040 N   0  0  0  0  0  0  0  0  0  0  0  0
  -23.5450  -28.8920   23.2290 O   0  0  0  0  0  0  0  0  0  0  0  0
  -21.0180  -29.8760   21.6360 H   0  0  0  0  0  0  0  0  0  0  0  0
  -18.1900  -27.9780   22.7860 C   0  0  0  0  0  0  0  0  0  0  0  0
  -20.7400  -28.3270   23.0520 C   0  0  0  0  0  3  0  0  0  0  0  0
  -20.8910  -26.9150   22.4390 C   0  0  0  0  0  2  0  0  0  0  0  0
  -19.7970  -26.5810   21.4200 C   0  0  0  0  0  2  0  0  0  0  0  0
  -18.4130  -26.6580   22.0690 C   0  0  0  0  0  2  0  0  0  0  0  0
  -19.2830  -28.7700   23.2340 C   0  0  0  0  0  0  0  0  0  0  0  0
  -19.0180  -30.0040   23.8650 C   0  0  0  0  0  3  0  0  0  0  0  0
  -17.6960  -30.4490   24.0530 C   0  0  0  0  0  3  0  0  0  0  0  0
  -16.6190  -29.6550   23.6190 C   0  0  0  0  0  3  0  0  0  0  0  0
  -16.8670  -28.4220   22.9930 C   0  0  0  0  0  3  0  0  0  0  0  0
  -25.9960  -32.5460   23.7860 C   0  0  0  0  0  3  0  0  0  0  0  0
  -26.5280  -31.7520   25.0430 C   0  0  1  0  0  0  0  0  0  0  0  0
  -25.4460  -31.4890   26.1160 C   0  0  0  0  0  1  0  0  0  0  0  0
  -27.1170  -30.3880   24.6210 C   0  0  0  0  0  1  0  0  0  0  0  0
  -27.6800  -32.5390   25.7110 C   0  0  0  0  0  1  0  0  0  0  0  0
  -25.6810  -33.9340   24.1600 N   0  0  0  0  0  0  0  0  0  0  0  0
  -25.9640  -35.0110   23.4170 C   0  0  0  0  0  0  0  0  0  0  0  0
  -26.5840  -34.9420   22.3520 O   0  0  0  0  0  0  0  0  0  0  0  0
  -25.1300  -34.0620   24.9960 H   0  0  0  0  0  0  0  0  0  0  0  0
  -24.1930  -36.7870   23.2030 C   0  0  0  0  0  1  0  0  0  0  0  0
  -25.4840  -36.3840   23.9330 C   0  0  0  0  0  3  0  0  0  0  0  0
  -27.6420  -37.2910   24.6740 C   0  0  0  0  0  1  0  0  0  0  0  0
  -26.4930  -37.4550   23.7880 N   0  0  0  0  0  0  0  0  0  0  0  0
  -26.0780  -38.3650   23.9730 H   0  0  0  0  0  0  0  0  0  0  0  0
  -30.3080  -18.1230   19.5980 C   0  0  0  0  0  0  0  0  0  0  0  0
  -30.7380  -15.3670   19.9060 C   0  0  0  0  0  0  0  0  0  0  0  0
  -30.6280  -12.9710   19.0270 C   0  0  0  0  0  2  0  0  0  0  0  0
  -29.6420  -12.8490   17.8400 C   0  0  0  0  0  2  0  0  0  0  0  0
  -28.2090  -12.6090   18.3480 C   0  0  0  0  0  2  0  0  0  0  0  0
  -27.8360  -13.5460   19.5260 C   0  0  0  0  0  3  0  0  0  0  0  0
  -28.9450  -13.6310   20.5960 C   0  0  0  0  0  2  0  0  0  0  0  0
  -30.1590  -14.0870   19.9110 N   0  0  0  0  0  0  0  0  0  0  0  0
  -31.9230  -15.4070   19.5550 O   0  0  0  0  0  0  0  0  0  0  0  0
  -29.9850  -16.5980   20.0330 N   0  0  0  0  0  4  0  0  0  0  0  0
  -29.0280  -16.4530   20.3230 H   0  0  0  0  0  0  0  0  0  0  0  0
  -25.5150  -14.0860   20.4450 C   0  0  0  0  0  0  0  0  0  0  0  0
  -24.4760  -13.2960   20.8500 C   0  0  0  0  0  0  0  0  0  0  0  0
  -24.9350  -11.9480   20.7360 C   0  0  0  0  0  0  0  0  0  0  0  0
  -26.5370  -13.2190   20.1000 N   0  0  0  0  0  0  0  0  0  0  0  0
  -26.2040  -11.9250   20.3420 N   0  0  0  0  0  0  0  0  0  0  0  0
  -24.2190  -10.6780   20.9200 C   0  0  0  0  0  0  0  0  0  0  0  0
  -24.6380   -9.7230   21.8730 C   0  0  0  0  0  3  0  0  0  0  0  0
  -23.9180   -8.5220   22.0460 C   0  0  0  0  0  3  0  0  0  0  0  0
  -22.7640   -8.2660   21.2670 C   0  0  0  0  0  0  0  0  0  0  0  0
  -22.3650   -9.2110   20.3040 C   0  0  0  0  0  3  0  0  0  0  0  0
  -23.0860  -10.4030   20.1290 C   0  0  0  0  0  3  0  0  0  0  0  0
  -22.0170   -7.1160   21.3480 O   0  0  0  0  0  0  0  0  0  0  0  0
  -21.8480   -6.4500   22.5350 C   0  0  0  0  0  0  0  0  0  0  0  0
  -21.2290   -7.0580   23.6500 C   0  0  0  0  0  3  0  0  0  0  0  0
  -21.0150   -6.3140   24.8280 C   0  0  0  0  0  3  0  0  0  0  0  0
  -21.4070   -4.9640   24.8910 C   0  0  0  0  0  0  0  0  0  0  0  0
  -22.0210   -4.3570   23.7800 C   0  0  0  0  0  3  0  0  0  0  0  0
  -22.2370   -5.0970   22.6060 C   0  0  0  0  0  0  0  0  0  0  0  0
  -22.8070   -4.5000   21.5310 F   0  0  0  0  0  0  0  0  0  0  0  0
  -21.1960   -4.2460   26.0190 F   0  0  0  0  0  0  0  0  0  0  0  0
  -23.1000  -13.7620   21.2260 C   0  0  0  0  0  0  0  0  0  0  0  0
  -22.4310  -13.0400   22.1180 N   0  0  0  0  0  0  0  0  0  0  0  0
  -22.6290  -14.8000   20.7620 O   0  0  0  0  0  0  0  0  0  0  0  0
  -22.8280  -12.2000   22.5120 H   0  0  0  0  0  0  0  0  0  0  0  0
  -21.5100  -13.3320   22.4140 H   0  0  0  0  0  0  0  0  0  0  0  0
  -25.6700  -15.4630   20.3090 N   0  0  0  0  0  0  0  0  0  0  0  0
  -24.9130  -16.1120   20.4960 H   0  0  0  0  0  0  0  0  0  0  0  0
  -26.4830  -15.9110   19.9070 H   0  0  0  0  0  0  0  0  0  0  0  0
  -30.5610  -18.0940   18.0600 C   0  0  0  0  0  2  0  0  0  0  0  0
  -32.0090  -18.4210   17.6170 C   0  0  0  0  0  2  0  0  0  0  0  0
  -32.8630  -17.2270   17.4710 N   0  0  0  0  0  4  0  0  0  0  0  0
  -32.7910  -16.6210   18.2870 H   0  0  0  0  0  0  0  0  0  0  0  0
  -33.8240  -17.4940   17.3610 H   0  0  0  0  0  0  0  0  0  0  0  0
  -32.5960  -16.6940   16.6620 H   0  0  0  0  0  0  0  0  0  0  0  0
  2  1  1  0
  3  5  2  0
  3  6  1  0
  4  7  1  0
  4  1  2  0
  5  4  1  0
  6  2  2  0
  7 10  2  0
  8  9  1  0
  8  5  1  0
  9 11  1  0
  9  7  1  0
 12 23  2  0
 13 11  1  0
 13 18  1  0
 14 22  1  0
 14 24  1  0
 15 21  1  0
 15 17  1  0
 16 22  1  0
 17 16  1  0
 18 17  2  0
 19 20  1  0
 19 13  2  0
 20 15  2  0
 21 14  1  0
 22 12  1  0
 24 26  2  0
 25 24  1  0
 27 25  1  0
 28 37  2  0
 28 33  1  0
 29 25  1  0
 29 33  1  0
 30 29  1  0
 31 32  1  0
 31 30  1  0
 32 28  1  0
 33 34  2  0
 34 35  1  0
 36 35  2  0
 37 36  1  0
 38 12  1  0
 38 43  1  0
 38 39  1  0
 39 42  1  1
 39 40  1  0
 41 39  1  0
 43 46  1  0
 44 48  1  0
 44 43  1  0
 45 44  2  0
 48 47  1  0
 50 48  1  0
 50 51  1  0
 50 49  1  0
 52  6  1  0
 52 61  2  0
 53 59  1  0
 53 61  1  0
 54 59  1  0
 55 56  1  0
 55 54  1  0
 57 56  1  0
 57 66  1  0
 57 58  1  0
 59 58  1  0
 60 53  2  0
 61 62  1  0
 63 64  2  0
 64 83  1  0
 65 64  1  0
 65 68  1  0
 66 67  1  0
 66 63  1  0
 67 65  2  0
 68 69  1  0
 69 70  2  0
 71 74  1  0
 71 70  1  0
 72 71  2  0
 73 72  1  0
 73 68  2  0
 74 75  1  0
 75 80  2  0
 75 76  1  0
 76 77  2  0
 77 78  1  0
 78 82  1  0
 79 78  2  0
 80 79  1  0
 81 80  1  0
 83 84  1  0
 84 87  1  0
 84 86  1  0
 85 83  2  0
 88 63  1  0
 88 89  1  0
 90 88  1  0
 91 52  1  0
 92 91  1  0
 93 92  1  0
 93 94  1  0
 95 93  1  0
 96 93  1  0
M  ISO  4   9 101  11 101  53 100  61 100
M  END
>  <TORSDO>  (44) 
F 20

>  <SCORE>  (44) 
-13.582

>  <name>  (44) 
43

>  <ligand_id>  (44) 
43

>  <original_smiles>  (44) 
[H]c1c([H])c([H])c2c(c1[H])C([H])([H])C([H])([H])C([H])([H])C2([H])N([H])C(=O)C1([H])N(C(=O)C([H])(N([H])C(=O)C([H])(N([H])C([H])([H])[H])C([H])([H])[H])C(C([H])([H])[H])(C([H])([H])[H])C([H])([H])[H])C([H])([H])c2c([H])c(OC3([H])C(=O)c4c([H])c([H])c(C([H])(N([H])C(=O)N5C([H])([H])C([H])([H])C([H])([H])C([H])(n6nc(-c7c([H])c([H])c(Oc8c([H])c([H])c(F)c([H])c8F)c([H])c7[H])c(C(=O)N([H])[H])c6N([H])[H])C5([H])[H])C([H])([H])C([H])([H])[N+]([H])([H])[H])c([H])c4C3([H])[H])c([H])c([H])c2C1([H])[H]

>  <smiles>  (44) 
[H]c1c([H])c([H])c2c(c1[H])C([H])([H])C([H])([H])C([H])([H])C2([H])N([H])C(=O)C1([H])N(C(=O)C([H])(N([H])C(=O)C([H])(N([H])C([H])([H])[H])C([H])([H])[H])C(C([H])([H])[H])(C([H])([H])[H])C([H])([H])[H])C([H])([H])c2c([H])c(OC3([H])C(=O)c4c([H])c([H])c(C([H])(N([H])C(=O)N5C([H])([H])C([H])([H])C([H])([H])C([H])(n6nc(-c7c([H])c([H])c(Oc8c([H])c([H])c(F)c([H])c8F)c([H])c7[H])c(C(=O)N([H])[H])c6N([H])[H])C5([H])[H])C([H])([H])C([H])([H])[N+]([H])([H])[H])c([H])c4C3([H])[H])c([H])c([H])c2C1([H])[H]

$$$$
44:0:0
     RDKit          3D

 92101  0  0  1  0  0  0  0  0999 V2000
  -29.5090  -21.4580   20.0160 C   0  0  0  0  0  2  0  0  0  0  0  0
  -28.8640  -16.2610   20.7830 C   0  0  0  0  0  2  0  0  0  0  0  0
  -28.5310  -17.6660   21.2920 C   0  0  0  0  0  2  0  0  0  0  0  0
  -28.3650  -19.2300   19.2200 C   0  0  0  0  0  2  0  0  0  0  0  0
  -30.4890  -17.9230   20.0060 C   0  0  0  0  0  2  0  0  0  0  0  0
  -28.7670  -20.1450   20.3650 C   0  0  0  0  0  3  0  0  0  0  0  0
  -30.1080  -16.4080   19.8900 C   0  0  0  0  0  3  0  0  0  0  0  0
  -29.1820  -18.6490   20.3410 C   0  0  2  0  0  0  0  0  0  0  0  0
  -31.5370  -14.3640   19.6050 C   0  0  0  0  0  0  0  0  0  0  0  0
  -31.0930  -12.0610   18.8230 C   0  0  0  0  0  2  0  0  0  0  0  0
  -30.1070  -12.0630   17.6400 C   0  0  0  0  0  2  0  0  0  0  0  0
  -28.6580  -12.0090   18.1550 C   0  0  0  0  0  2  0  0  0  0  0  0
  -28.3780  -13.0610   19.2600 C   0  0  0  0  0  3  0  0  0  0  0  0
  -29.4840  -13.0580   20.3410 C   0  0  0  0  0  2  0  0  0  0  0  0
  -30.7850  -13.2260   19.6740 N   0  0  0  0  0  0  0  0  0  0  0  0
  -32.6020  -14.4120   18.9910 O   0  0  0  0  0  0  0  0  0  0  0  0
  -31.1550  -15.4520   20.2990 N   0  0  0  0  0  0  0  0  0  0  0  0
  -31.9750  -15.9530   20.6120 H   0  0  0  0  0  0  0  0  0  0  0  0
  -26.1050  -13.8440   20.1740 C   0  0  0  0  0  0  0  0  0  0  0  0
  -25.0040  -13.1550   20.6070 C   0  0  0  0  0  0  0  0  0  0  0  0
  -25.3390  -11.7700   20.5000 C   0  0  0  0  0  0  0  0  0  0  0  0
  -27.0480  -12.8850   19.8400 N   0  0  0  0  0  0  0  0  0  0  0  0
  -26.5940  -11.6300   20.0890 N   0  0  0  0  0  0  0  0  0  0  0  0
  -24.5170  -10.5700   20.7070 C   0  0  0  0  0  0  0  0  0  0  0  0
  -24.8470   -9.6080   21.6860 C   0  0  0  0  0  3  0  0  0  0  0  0
  -24.0280   -8.4740   21.8790 C   0  0  0  0  0  3  0  0  0  0  0  0
  -22.8650   -8.2960   21.0920 C   0  0  0  0  0  0  0  0  0  0  0  0
  -22.5540   -9.2450   20.1030 C   0  0  0  0  0  3  0  0  0  0  0  0
  -23.3720  -10.3700   19.9090 C   0  0  0  0  0  3  0  0  0  0  0  0
  -22.0270   -7.2140   21.1920 O   0  0  0  0  0  0  0  0  0  0  0  0
  -21.7760   -6.6050   22.3960 C   0  0  0  0  0  0  0  0  0  0  0  0
  -21.2240   -7.3120   23.4870 C   0  0  0  0  0  3  0  0  0  0  0  0
  -20.9170   -6.6330   24.6830 C   0  0  0  0  0  3  0  0  0  0  0  0
  -21.1540   -5.2490   24.7880 C   0  0  0  0  0  0  0  0  0  0  0  0
  -21.7000   -4.5430   23.7020 C   0  0  0  0  0  3  0  0  0  0  0  0
  -22.0070   -5.2180   22.5090 C   0  0  0  0  0  0  0  0  0  0  0  0
  -22.5120   -4.5290   21.4570 F   0  0  0  0  0  0  0  0  0  0  0  0
  -20.8530   -4.5960   25.9350 F   0  0  0  0  0  0  0  0  0  0  0  0
  -23.6810  -13.7430   21.0040 C   0  0  0  0  0  0  0  0  0  0  0  0
  -22.9710  -13.0940   21.9190 N   0  0  0  0  0  0  0  0  0  0  0  0
  -23.2910  -14.8120   20.5370 O   0  0  0  0  0  0  0  0  0  0  0  0
  -23.3020  -12.2290   22.3210 H   0  0  0  0  0  0  0  0  0  0  0  0
  -22.0830  -13.4650   22.2230 H   0  0  0  0  0  0  0  0  0  0  0  0
  -26.3710  -15.2000   20.0150 N   0  0  0  0  0  0  0  0  0  0  0  0
  -25.6780  -15.9110   20.2230 H   0  0  0  0  0  0  0  0  0  0  0  0
  -27.2340  -15.5790   19.6510 H   0  0  0  0  0  0  0  0  0  0  0  0
  -28.7070  -22.6420   20.4650 N   0  0  0  0  0  4  0  0  0  0  0  0
  -28.6920  -22.6220   21.4730 H   0  0  0  0  0  0  0  0  0  0  0  0
  -27.7600  -22.4850   20.1570 H   0  0  0  0  0  0  0  0  0  0  0  0
  -29.1000  -24.0250   20.0270 C   0  0  0  0  0  2  0  0  0  0  0  0
  -28.2110  -25.1240   20.7060 C   0  0  0  0  0  2  0  0  0  0  0  0
  -28.4600  -26.5120   20.3390 O   0  0  0  0  0  0  0  0  0  0  0  0
  -24.6420  -31.8030   23.2900 C   0  0  0  0  0  0  0  0  0  0  0  0
  -27.3280  -27.3100   20.2920 C   0  0  0  0  0  0  0  0  0  0  0  0
  -23.4660  -30.3940   21.6350 C   0  0  0  0  0  3  0  0  0  0  0  0
  -24.9460  -28.8470   20.2410 C   0  0  0  0  0  0  0  0  0  0  0  0
  -25.9990  -30.7430   21.4840 C   0  0  0  0  0  2  0  0  0  0  0  0
  -26.0970  -29.3660   20.8480 C   0  0  0  0  0  0  0  0  0  0  0  0
  -27.2950  -28.6070   20.8670 C   0  0  0  0  0  3  0  0  0  0  0  0
  -26.1640  -26.8230   19.6630 C   0  0  0  0  0  3  0  0  0  0  0  0
  -24.9770  -27.5780   19.6420 C   0  0  0  0  0  3  0  0  0  0  0  0
  -23.7010  -29.7110   20.2610 C   0  0  0  0  0  2  0  0  0  0  0  0
  -24.7190  -30.9960   22.1950 N   0  0  0  0  0  0  0  0  0  0  0  0
  -23.5510  -32.0800   23.8080 O   0  0  0  0  0  0  0  0  0  0  0  0
  -22.7920  -29.3780   22.5870 C   0  0  0  0  0  0  0  0  0  0  0  0
  -21.4670  -29.2120   22.4490 N   0  0  0  0  0  0  0  0  0  0  0  0
  -23.4600  -28.7410   23.4050 O   0  0  0  0  0  0  0  0  0  0  0  0
  -20.9900  -29.7760   21.7590 H   0  0  0  0  0  0  0  0  0  0  0  0
  -18.0730  -28.0670   22.9280 C   0  0  0  0  0  0  0  0  0  0  0  0
  -20.6330  -28.2820   23.2110 C   0  0  0  0  0  3  0  0  0  0  0  0
  -20.7150  -26.8540   22.6260 C   0  0  0  0  0  2  0  0  0  0  0  0
  -19.6120  -26.5560   21.6050 C   0  0  0  0  0  2  0  0  0  0  0  0
  -18.2310  -26.7200   22.2450 C   0  0  0  0  0  2  0  0  0  0  0  0
  -19.2010  -28.8080   23.3660 C   0  0  0  0  0  0  0  0  0  0  0  0
  -19.0020  -30.0720   23.9640 C   0  0  0  0  0  3  0  0  0  0  0  0
  -17.7040  -30.5940   24.1270 C   0  0  0  0  0  3  0  0  0  0  0  0
  -16.5890  -29.8490   23.7050 C   0  0  0  0  0  3  0  0  0  0  0  0
  -16.7740  -28.5880   23.1110 C   0  0  0  0  0  3  0  0  0  0  0  0
  -25.9160  -32.4370   23.9310 C   0  0  0  0  0  3  0  0  0  0  0  0
  -26.4040  -31.6780   25.2250 C   0  0  1  0  0  0  0  0  0  0  0  0
  -25.2820  -31.4350   26.2610 C   0  0  0  0  0  1  0  0  0  0  0  0
  -27.0110  -30.3050   24.8580 C   0  0  0  0  0  1  0  0  0  0  0  0
  -27.5250  -32.4880   25.9180 C   0  0  0  0  0  1  0  0  0  0  0  0
  -25.6070  -33.8390   24.2370 N   0  0  0  0  0  0  0  0  0  0  0  0
  -25.9390  -34.8780   23.4590 C   0  0  0  0  0  0  0  0  0  0  0  0
  -26.6080  -34.7560   22.4290 O   0  0  0  0  0  0  0  0  0  0  0  0
  -25.0150  -34.0060   25.0370 H   0  0  0  0  0  0  0  0  0  0  0  0
  -24.1980  -36.6540   23.0850 C   0  0  0  0  0  1  0  0  0  0  0  0
  -25.4500  -36.2740   23.8910 C   0  0  0  0  0  3  0  0  0  0  0  0
  -27.5890  -37.1860   24.6780 C   0  0  0  0  0  1  0  0  0  0  0  0
  -26.4750  -37.3280   23.7430 N   0  0  0  0  0  0  0  0  0  0  0  0
  -26.0670  -38.2480   23.8800 H   0  0  0  0  0  0  0  0  0  0  0  0
  1 47  1  0
  2  3  1  0
  4  6  1  0
  8  5  1  6
  6  1  1  0
  7  5  1  0
  7 17  1  0
  7  2  1  0
  8  4  1  0
  8  6  1  0
  8  3  1  0
  9 15  1  0
  9 17  1  0
 10 15  1  0
 11 12  1  0
 11 10  1  0
 13 12  1  0
 13 22  1  0
 13 14  1  0
 15 14  1  0
 16  9  2  0
 17 18  1  0
 19 20  2  0
 20 39  1  0
 21 20  1  0
 21 24  1  0
 22 23  1  0
 22 19  1  0
 23 21  2  0
 24 25  1  0
 25 26  2  0
 27 30  1  0
 27 26  1  0
 28 27  2  0
 29 28  1  0
 29 24  2  0
 30 31  1  0
 31 36  2  0
 31 32  1  0
 32 33  2  0
 33 34  1  0
 34 38  1  0
 35 34  2  0
 36 35  1  0
 37 36  1  0
 39 40  1  0
 40 43  1  0
 40 42  1  0
 41 39  2  0
 44 19  1  0
 44 45  1  0
 46 44  1  0
 47 48  1  0
 49 47  1  0
 50 47  1  0
 50 51  1  0
 52 51  1  0
 53 64  2  0
 54 52  1  0
 54 59  1  0
 55 63  1  0
 55 65  1  0
 56 62  1  0
 56 58  1  0
 57 63  1  0
 58 59  2  0
 58 57  1  0
 60 54  2  0
 61 60  1  0
 61 56  2  0
 62 55  1  0
 63 53  1  0
 65 67  2  0
 66 65  1  0
 68 66  1  0
 69 78  2  0
 69 74  1  0
 70 66  1  0
 70 74  1  0
 71 70  1  0
 72 73  1  0
 72 71  1  0
 73 69  1  0
 74 75  2  0
 75 76  1  0
 77 76  2  0
 78 77  1  0
 79 53  1  0
 79 84  1  0
 79 80  1  0
 80 83  1  1
 80 81  1  0
 82 80  1  0
 84 87  1  0
 85 89  1  0
 85 84  1  0
 86 85  2  0
 89 88  1  0
 91 92  1  0
 91 89  1  0
 91 90  1  0
M  ISO  4   9 100  17 100  51 101  52 101
M  END
>  <TORSDO>  (45) 
F 20

>  <SCORE>  (45) 
-12.158

>  <name>  (45) 
44

>  <ligand_id>  (45) 
44

>  <original_smiles>  (45) 
[H]c1c([H])c([H])c2c(c1[H])C([H])([H])C([H])([H])C([H])([H])C2([H])N([H])C(=O)C1([H])N(C(=O)C([H])(N([H])C(=O)C([H])(N([H])C([H])([H])[H])C([H])([H])[H])C(C([H])([H])[H])(C([H])([H])[H])C([H])([H])[H])C([H])([H])c2c([H])c(OC([H])([H])C([H])([H])[N+]([H])([H])C([H])([H])C3([H])C([H])([H])C34C([H])([H])C([H])([H])C([H])(N([H])C(=O)N3C([H])([H])C([H])([H])C([H])([H])C([H])(n5nc(-c6c([H])c([H])c(Oc7c([H])c([H])c(F)c([H])c7F)c([H])c6[H])c(C(=O)N([H])[H])c5N([H])[H])C3([H])[H])C4([H])[H])c([H])c([H])c2C1([H])[H]

>  <smiles>  (45) 
[H]c1c([H])c([H])c2c(c1[H])C([H])([H])C([H])([H])C([H])([H])C2([H])N([H])C(=O)C1([H])N(C(=O)C([H])(N([H])C(=O)C([H])(N([H])C([H])([H])[H])C([H])([H])[H])C(C([H])([H])[H])(C([H])([H])[H])C([H])([H])[H])C([H])([H])c2c([H])c(OC([H])([H])C([H])([H])[N+]([H])([H])C([H])([H])C3([H])C([H])([H])C34C([H])([H])C([H])([H])C([H])(N([H])C(=O)N3C([H])([H])C([H])([H])C([H])([H])C([H])(n5nc(-c6c([H])c([H])c(Oc7c([H])c([H])c(F)c([H])c7F)c([H])c6[H])c(C(=O)N([H])[H])c5N([H])[H])C3([H])[H])C4([H])[H])c([H])c([H])c2C1([H])[H]

$$$$
45:0:0
     RDKit          3D

 96105  0  0  1  0  0  0  0  0999 V2000
  -28.8620  -22.3620   19.3460 C   0  0  0  0  0  3  0  0  0  0  0  0
  -26.8210  -21.9000   20.6030 C   0  0  0  0  0  3  0  0  0  0  0  0
  -28.8930  -23.6660   19.8700 C   0  0  0  0  0  3  0  0  0  0  0  0
  -26.8640  -23.2020   21.1400 C   0  0  0  0  0  3  0  0  0  0  0  0
  -27.8430  -21.4640   19.7330 C   0  0  0  0  0  0  0  0  0  0  0  0
  -27.9130  -24.0770   20.7940 C   0  0  0  0  0  0  0  0  0  0  0  0
  -26.8350  -19.0810   19.3960 C   0  0  0  0  0  3  0  0  0  0  0  0
  -27.3320  -17.8570   19.1820 C   0  0  0  0  0  3  0  0  0  0  0  0
  -29.0260  -19.3860   19.0140 C   0  0  0  0  0  3  0  0  0  0  0  0
  -27.9030  -20.0480   19.3300 C   0  0  0  0  0  0  0  0  0  0  0  0
  -28.8260  -17.8910   18.9460 C   0  0  0  0  0  3  0  0  0  0  0  0
  -29.5800  -17.2740   20.1060 C   0  0  0  0  0  3  0  0  0  0  0  0
  -30.8240  -16.7820   20.0110 C   0  0  0  0  0  3  0  0  0  0  0  0
  -31.6180  -16.2080   21.1660 C   0  0  0  0  0  2  0  0  0  0  0  0
  -31.8210  -13.9100   20.2410 C   0  0  0  0  0  0  0  0  0  0  0  0
  -31.2270  -11.7860   19.1370 C   0  0  0  0  0  2  0  0  0  0  0  0
  -30.2500  -12.0410   17.9740 C   0  0  0  0  0  2  0  0  0  0  0  0
  -28.7910  -12.0900   18.4710 C   0  0  0  0  0  2  0  0  0  0  0  0
  -28.6130  -13.0300   19.6920 C   0  0  0  0  0  3  0  0  0  0  0  0
  -29.6740  -12.7110   20.7660 C   0  0  0  0  0  2  0  0  0  0  0  0
  -31.0160  -12.8220   20.1530 N   0  0  0  0  0  0  0  0  0  0  0  0
  -32.7990  -14.1140   19.5140 O   0  0  0  0  0  0  0  0  0  0  0  0
  -31.4340  -14.7720   21.1860 N   0  0  0  0  0  0  0  0  0  0  0  0
  -30.7090  -14.4290   21.7990 H   0  0  0  0  0  0  0  0  0  0  0  0
  -26.4000  -13.9640   20.6350 C   0  0  0  0  0  0  0  0  0  0  0  0
  -25.2330  -13.3510   21.0040 C   0  0  0  0  0  0  0  0  0  0  0  0
  -25.4420  -11.9520   20.7980 C   0  0  0  0  0  0  0  0  0  0  0  0
  -27.2570  -12.9480   20.2360 N   0  0  0  0  0  0  0  0  0  0  0  0
  -26.6820  -11.7270   20.3870 N   0  0  0  0  0  0  0  0  0  0  0  0
  -24.5150  -10.8190   20.9140 C   0  0  0  0  0  0  0  0  0  0  0  0
  -24.8150   -9.7020   21.7270 C   0  0  0  0  0  3  0  0  0  0  0  0
  -23.9000   -8.6330   21.8390 C   0  0  0  0  0  3  0  0  0  0  0  0
  -22.6730   -8.6750   21.1400 C   0  0  0  0  0  0  0  0  0  0  0  0
  -22.3890   -9.7760   20.3160 C   0  0  0  0  0  3  0  0  0  0  0  0
  -23.3010  -10.8380   20.2010 C   0  0  0  0  0  3  0  0  0  0  0  0
  -21.7360   -7.6700   21.1680 O   0  0  0  0  0  0  0  0  0  0  0  0
  -21.5950   -6.8470   22.2550 C   0  0  0  0  0  0  0  0  0  0  0  0
  -21.3010   -7.3530   23.5400 C   0  0  0  0  0  3  0  0  0  0  0  0
  -21.0950   -6.4660   24.6170 C   0  0  0  0  0  3  0  0  0  0  0  0
  -21.1730   -5.0750   24.4090 C   0  0  0  0  0  0  0  0  0  0  0  0
  -21.4610   -4.5710   23.1280 C   0  0  0  0  0  3  0  0  0  0  0  0
  -21.6680   -5.4540   22.0540 C   0  0  0  0  0  0  0  0  0  0  0  0
  -21.9240   -4.9620   20.8200 F   0  0  0  0  0  0  0  0  0  0  0  0
  -20.9700   -4.2210   25.4380 F   0  0  0  0  0  0  0  0  0  0  0  0
  -23.9630  -14.0250   21.4390 C   0  0  0  0  0  0  0  0  0  0  0  0
  -23.1920  -13.3780   22.3060 N   0  0  0  0  0  0  0  0  0  0  0  0
  -23.6730  -15.1560   21.0500 O   0  0  0  0  0  0  0  0  0  0  0  0
  -23.4410  -12.4600   22.6400 H   0  0  0  0  0  0  0  0  0  0  0  0
  -22.3390  -13.8050   22.6400 H   0  0  0  0  0  0  0  0  0  0  0  0
  -26.7970  -15.2970   20.5910 N   0  0  0  0  0  0  0  0  0  0  0  0
  -26.1680  -16.0520   20.8390 H   0  0  0  0  0  0  0  0  0  0  0  0
  -27.7200  -15.6180   20.3260 H   0  0  0  0  0  0  0  0  0  0  0  0
  -27.9660  -25.4300   21.3600 C   0  0  0  0  0  0  0  0  0  0  0  0
  -28.0470  -25.7230   22.5880 N   0  0  0  0  0  0  0  0  0  0  0  0
  -28.0500  -26.7260   22.7330 H   0  0  0  0  0  0  0  0  0  0  0  0
  -27.8870  -26.3760   20.3780 O   0  0  0  0  0  0  0  0  0  0  0  0
  -24.4800  -31.8720   23.2980 C   0  0  0  0  0  0  0  0  0  0  0  0
  -26.7630  -27.1570   20.3900 C   0  0  0  0  0  0  0  0  0  0  0  0
  -23.1440  -30.4840   21.7410 C   0  0  0  0  0  3  0  0  0  0  0  0
  -24.4610  -28.7770   20.3770 C   0  0  0  0  0  0  0  0  0  0  0  0
  -25.6800  -30.6630   21.4860 C   0  0  0  0  0  2  0  0  0  0  0  0
  -25.6580  -29.2640   20.9160 C   0  0  0  0  0  0  0  0  0  0  0  0
  -26.8130  -28.4610   20.9220 C   0  0  0  0  0  3  0  0  0  0  0  0
  -25.5530  -26.6660   19.8520 C   0  0  0  0  0  3  0  0  0  0  0  0
  -24.4000  -27.4740   19.8460 C   0  0  0  0  0  3  0  0  0  0  0  0
  -23.2790  -29.7180   20.3960 C   0  0  0  0  0  2  0  0  0  0  0  0
  -24.4540  -31.0210   22.2330 N   0  0  0  0  0  0  0  0  0  0  0  0
  -23.4320  -32.2480   23.8380 O   0  0  0  0  0  0  0  0  0  0  0  0
  -22.4390  -29.5620   22.7600 C   0  0  0  0  0  0  0  0  0  0  0  0
  -21.1150  -29.4000   22.5990 N   0  0  0  0  0  0  0  0  0  0  0  0
  -23.0790  -28.9900   23.6450 O   0  0  0  0  0  0  0  0  0  0  0  0
  -20.6640  -29.9130   21.8540 H   0  0  0  0  0  0  0  0  0  0  0  0
  -17.7070  -28.2850   23.0200 C   0  0  0  0  0  0  0  0  0  0  0  0
  -20.2470  -28.5470   23.4110 C   0  0  0  0  0  3  0  0  0  0  0  0
  -20.3630  -27.0650   22.9830 C   0  0  0  0  0  2  0  0  0  0  0  0
  -19.3140  -26.6510   21.9470 C   0  0  0  0  0  2  0  0  0  0  0  0
  -17.9010  -26.8730   22.4940 C   0  0  0  0  0  2  0  0  0  0  0  0
  -18.8090  -29.0760   23.4360 C   0  0  0  0  0  0  0  0  0  0  0  0
  -18.5750  -30.3970   23.8800 C   0  0  0  0  0  3  0  0  0  0  0  0
  -17.2690  -30.9210   23.9210 C   0  0  0  0  0  3  0  0  0  0  0  0
  -16.1800  -30.1260   23.5250 C   0  0  0  0  0  3  0  0  0  0  0  0
  -16.4000  -28.8110   23.0780 C   0  0  0  0  0  3  0  0  0  0  0  0
  -25.8220  -32.4290   23.8700 C   0  0  0  0  0  3  0  0  0  0  0  0
  -26.3500  -31.6240   25.1200 C   0  0  1  0  0  0  0  0  0  0  0  0
  -25.2770  -31.3940   26.2100 C   0  0  0  0  0  1  0  0  0  0  0  0
  -26.8910  -30.2410   24.6870 C   0  0  0  0  0  1  0  0  0  0  0  0
  -27.5360  -32.3790   25.7660 C   0  0  0  0  0  1  0  0  0  0  0  0
  -25.6030  -33.8390   24.2130 N   0  0  0  0  0  0  0  0  0  0  0  0
  -25.9650  -34.8740   23.4430 C   0  0  0  0  0  0  0  0  0  0  0  0
  -26.5910  -34.7370   22.3880 O   0  0  0  0  0  0  0  0  0  0  0  0
  -25.0530  -34.0230   25.0400 H   0  0  0  0  0  0  0  0  0  0  0  0
  -24.3260  -36.7540   23.1430 C   0  0  0  0  0  1  0  0  0  0  0  0
  -25.5690  -36.2850   23.9160 C   0  0  0  0  0  3  0  0  0  0  0  0
  -27.7780  -37.0460   24.6730 C   0  0  0  0  0  1  0  0  0  0  0  0
  -26.6530  -37.2800   23.7710 N   0  0  0  0  0  0  0  0  0  0  0  0
  -26.3040  -38.2190   23.9350 H   0  0  0  0  0  0  0  0  0  0  0  0
  1  5  2  0
  1  3  1  0
  2  4  2  0
  3  6  2  0
  5  2  1  0
  6  4  1  0
  6 53  1  0
  8  7  2  0
  9 10  2  0
 10  7  1  0
 10  5  1  0
 11  9  1  0
 11  8  1  0
 11 12  1  0
 13 12  2  0
 13 14  1  0
 14 23  1  0
 15 23  1  0
 16 21  1  0
 17 18  1  0
 17 16  1  0
 19 18  1  0
 19 28  1  0
 19 20  1  0
 21 15  1  0
 21 20  1  0
 22 15  2  0
 23 24  1  0
 25 26  2  0
 26 45  1  0
 27 30  1  0
 27 26  1  0
 28 29  1  0
 28 25  1  0
 29 27  2  0
 30 31  1  0
 31 32  2  0
 33 36  1  0
 33 32  1  0
 34 33  2  0
 35 34  1  0
 35 30  2  0
 36 37  1  0
 37 38  1  0
 38 39  2  0
 40 39  1  0
 40 44  1  0
 41 40  2  0
 42 37  2  0
 42 41  1  0
 43 42  1  0
 45 46  1  0
 46 49  1  0
 46 48  1  0
 47 45  2  0
 50 25  1  0
 50 51  1  0
 52 50  1  0
 53 54  2  0
 54 55  1  0
 56 58  1  0
 56 53  1  0
 57 68  2  0
 58 63  1  0
 59 67  1  0
 59 69  1  0
 60 66  1  0
 60 62  1  0
 61 67  1  0
 62 63  2  0
 62 61  1  0
 64 58  2  0
 65 64  1  0
 65 60  2  0
 66 59  1  0
 67 57  1  0
 69 71  2  0
 70 69  1  0
 72 70  1  0
 73 82  2  0
 73 78  1  0
 74 70  1  0
 74 78  1  0
 75 74  1  0
 76 77  1  0
 76 75  1  0
 77 73  1  0
 78 79  2  0
 79 80  1  0
 81 80  2  0
 82 81  1  0
 83 57  1  0
 83 88  1  0
 83 84  1  0
 84 87  1  1
 84 85  1  0
 86 84  1  0
 88 91  1  0
 89 93  1  0
 89 88  1  0
 90 89  2  0
 93 92  1  0
 95 93  1  0
 95 96  1  0
 95 94  1  0
M  ISO  4  15 100  23 100  53 101  56 101
M  END
>  <TORSDO>  (46) 
F 20

>  <SCORE>  (46) 
-12.175

>  <name>  (46) 
45

>  <ligand_id>  (46) 
45

>  <original_smiles>  (46) 
[H]N=C(Oc1c([H])c([H])c2c(c1[H])C([H])([H])N(C(=O)C([H])(N([H])C(=O)C([H])(N([H])C([H])([H])[H])C([H])([H])[H])C(C([H])([H])[H])(C([H])([H])[H])C([H])([H])[H])C([H])(C(=O)N([H])C1([H])c3c([H])c([H])c([H])c([H])c3C([H])([H])C([H])([H])C1([H])[H])C2([H])[H])c1c([H])c([H])c(C2=C([H])C([H])(C([H])=C([H])C([H])([H])N([H])C(=O)N3C([H])([H])C([H])([H])C([H])([H])C([H])(n4nc(-c5c([H])c([H])c(Oc6c([H])c([H])c(F)c([H])c6F)c([H])c5[H])c(C(=O)N([H])[H])c4N([H])[H])C3([H])[H])C([H])=C2[H])c([H])c1[H]

>  <smiles>  (46) 
[H]N=C(Oc1c([H])c([H])c2c(c1[H])C([H])([H])N(C(=O)C([H])(N([H])C(=O)C([H])(N([H])C([H])([H])[H])C([H])([H])[H])C(C([H])([H])[H])(C([H])([H])[H])C([H])([H])[H])C([H])(C(=O)N([H])C1([H])c3c([H])c([H])c([H])c([H])c3C([H])([H])C([H])([H])C1([H])[H])C2([H])[H])c1c([H])c([H])c(C2=C([H])C([H])(C([H])=C([H])C([H])([H])N([H])C(=O)N3C([H])([H])C([H])([H])C([H])([H])C([H])(n4nc(-c5c([H])c([H])c(Oc6c([H])c([H])c(F)c([H])c6F)c([H])c5[H])c(C(=O)N([H])[H])c4N([H])[H])C3([H])[H])C([H])=C2[H])c([H])c1[H]

$$$$
46:0:0
     RDKit          3D

 92101  0  0  1  0  0  0  0  0999 V2000
  -29.1360  -19.7490   20.3820 C   0  0  0  0  0  0  0  0  0  0  0  0
  -28.9690  -21.1170   19.7820 N   0  0  0  0  0  0  0  0  0  0  0  0
  -28.8700  -19.7130   21.5850 O   0  0  0  0  0  0  0  0  0  0  0  0
  -29.1150  -21.0880   18.7800 H   0  0  0  0  0  0  0  0  0  0  0  0
  -30.6720  -15.5440   20.0090 C   0  0  0  0  0  0  0  0  0  0  0  0
  -30.4990  -13.0730   19.1750 C   0  0  0  0  0  2  0  0  0  0  0  0
  -29.5830  -12.8500   17.9540 C   0  0  0  0  0  2  0  0  0  0  0  0
  -28.1410  -12.5910   18.4100 C   0  0  0  0  0  2  0  0  0  0  0  0
  -27.7200  -13.5310   19.5700 C   0  0  0  0  0  3  0  0  0  0  0  0
  -28.8000  -13.7390   20.6620 C   0  0  0  0  0  2  0  0  0  0  0  0
  -29.9900  -14.2760   19.9750 N   0  0  0  0  0  0  0  0  0  0  0  0
  -31.8590  -15.2720   19.7550 O   0  0  0  0  0  0  0  0  0  0  0  0
  -30.2520  -18.6750   18.5200 C   0  0  0  0  0  2  0  0  0  0  0  0
  -29.6880  -18.3490   19.7010 C   0  0  0  0  0  3  0  0  0  0  0  0
  -32.6930  -17.7100   16.3350 C   0  0  0  0  0  2  0  0  0  0  0  0
  -31.5720  -17.0170   17.1010 C   0  0  0  0  0  2  0  0  0  0  0  0
  -32.2620  -19.0010   17.0300 C   0  0  0  0  0  2  0  0  0  0  0  0
  -32.4450  -17.9940   19.4810 C   0  0  0  0  0  2  0  0  0  0  0  0
  -31.5930  -17.5960   20.7540 C   0  0  0  0  0  2  0  0  0  0  0  0
  -31.6270  -18.1500   18.1540 C   0  0  1  0  0  0  0  0  0  0  0  0
  -30.2840  -17.0010   20.3510 N   0  0  0  0  0  0  0  0  0  0  0  0
  -25.3670  -14.0400   20.3830 C   0  0  0  0  0  0  0  0  0  0  0  0
  -24.3260  -13.2470   20.7720 C   0  0  0  0  0  0  0  0  0  0  0  0
  -24.8120  -11.9040   20.7320 C   0  0  0  0  0  0  0  0  0  0  0  0
  -26.4190  -13.1830   20.1190 N   0  0  0  0  0  0  0  0  0  0  0  0
  -26.0990  -11.8900   20.3960 N   0  0  0  0  0  0  0  0  0  0  0  0
  -24.1040  -10.6300   20.9330 C   0  0  0  0  0  0  0  0  0  0  0  0
  -24.5310   -9.6860   21.8900 C   0  0  0  0  0  3  0  0  0  0  0  0
  -23.8150   -8.4850   22.0840 C   0  0  0  0  0  3  0  0  0  0  0  0
  -22.6560   -8.2190   21.3160 C   0  0  0  0  0  0  0  0  0  0  0  0
  -22.2470   -9.1500   20.3470 C   0  0  0  0  0  3  0  0  0  0  0  0
  -22.9670  -10.3420   20.1530 C   0  0  0  0  0  3  0  0  0  0  0  0
  -21.9110   -7.0680   21.4170 O   0  0  0  0  0  0  0  0  0  0  0  0
  -21.8110   -6.3740   22.5970 C   0  0  0  0  0  0  0  0  0  0  0  0
  -21.2300   -6.9450   23.7500 C   0  0  0  0  0  3  0  0  0  0  0  0
  -21.0850   -6.1750   24.9200 C   0  0  0  0  0  3  0  0  0  0  0  0
  -21.5090   -4.8330   24.9390 C   0  0  0  0  0  0  0  0  0  0  0  0
  -22.0810   -4.2600   23.7900 C   0  0  0  0  0  3  0  0  0  0  0  0
  -22.2280   -5.0280   22.6220 C   0  0  0  0  0  0  0  0  0  0  0  0
  -22.7600   -4.4630   21.5100 F   0  0  0  0  0  0  0  0  0  0  0  0
  -21.3630   -4.0900   26.0620 F   0  0  0  0  0  0  0  0  0  0  0  0
  -22.9290  -13.7070   21.0620 C   0  0  0  0  0  0  0  0  0  0  0  0
  -22.2190  -12.9980   21.9320 N   0  0  0  0  0  0  0  0  0  0  0  0
  -22.4770  -14.7320   20.5520 O   0  0  0  0  0  0  0  0  0  0  0  0
  -22.6040  -12.1740   22.3690 H   0  0  0  0  0  0  0  0  0  0  0  0
  -21.2790  -13.2820   22.1630 H   0  0  0  0  0  0  0  0  0  0  0  0
  -25.5080  -15.4140   20.2040 N   0  0  0  0  0  0  0  0  0  0  0  0
  -24.7320  -16.0580   20.3110 H   0  0  0  0  0  0  0  0  0  0  0  0
  -26.3540  -15.8660   19.8750 H   0  0  0  0  0  0  0  0  0  0  0  0
  -28.8470  -22.7260   20.3200 C   0  0  0  0  0  3  0  0  0  0  0  0
  -28.0700  -24.2900   19.7450 C   0  0  0  0  0  3  0  0  0  0  0  0
  -28.2100  -25.9250   20.1030 O   0  0  0  0  0  0  0  0  0  0  0  0
  -24.5880  -31.8700   23.1540 C   0  0  0  0  0  0  0  0  0  0  0  0
  -27.2040  -27.0450   20.0390 C   0  0  0  0  0  0  0  0  0  0  0  0
  -23.4160  -30.4800   21.4960 C   0  0  0  0  0  3  0  0  0  0  0  0
  -24.8870  -28.9190   20.0420 C   0  0  0  0  0  0  0  0  0  0  0  0
  -25.9820  -30.7250   21.3500 C   0  0  0  0  0  2  0  0  0  0  0  0
  -26.0710  -29.3240   20.6690 C   0  0  0  0  0  0  0  0  0  0  0  0
  -27.2240  -28.4060   20.6450 C   0  0  0  0  0  3  0  0  0  0  0  0
  -25.9910  -26.8140   19.3570 C   0  0  0  0  0  3  0  0  0  0  0  0
  -24.8730  -27.6880   19.3690 C   0  0  0  0  0  3  0  0  0  0  0  0
  -23.6560  -29.8230   20.1100 C   0  0  0  0  0  2  0  0  0  0  0  0
  -24.6840  -31.0540   22.0550 N   0  0  0  0  0  0  0  0  0  0  0  0
  -23.4940  -32.1320   23.6830 O   0  0  0  0  0  0  0  0  0  0  0  0
  -22.7360  -29.4610   22.4500 C   0  0  0  0  0  0  0  0  0  0  0  0
  -21.4140  -29.2510   22.3070 N   0  0  0  0  0  0  0  0  0  0  0  0
  -23.4100  -28.8590   23.2890 O   0  0  0  0  0  0  0  0  0  0  0  0
  -20.9200  -29.7920   21.6110 H   0  0  0  0  0  0  0  0  0  0  0  0
  -18.0740  -27.9000   22.7480 C   0  0  0  0  0  0  0  0  0  0  0  0
  -20.6140  -28.2810   23.0630 C   0  0  0  0  0  3  0  0  0  0  0  0
  -20.7890  -26.8510   22.4970 C   0  0  0  0  0  2  0  0  0  0  0  0
  -19.7270  -26.4780   21.4610 C   0  0  0  0  0  2  0  0  0  0  0  0
  -18.3270  -26.5600   22.0770 C   0  0  0  0  0  2  0  0  0  0  0  0
  -19.1490  -28.7140   23.1990 C   0  0  0  0  0  0  0  0  0  0  0  0
  -18.8610  -29.9620   23.7940 C   0  0  0  0  0  3  0  0  0  0  0  0
  -17.5320  -30.3980   23.9430 C   0  0  0  0  0  3  0  0  0  0  0  0
  -16.4720  -29.5840   23.5100 C   0  0  0  0  0  3  0  0  0  0  0  0
  -16.7430  -28.3370   22.9180 C   0  0  0  0  0  3  0  0  0  0  0  0
  -25.8450  -32.5300   23.7970 C   0  0  0  0  0  3  0  0  0  0  0  0
  -25.5170  -33.9340   24.1070 N   0  0  0  0  0  0  0  0  0  0  0  0
  -25.8740  -34.9910   23.3640 C   0  0  0  0  0  0  0  0  0  0  0  0
  -26.5700  -34.8860   22.3520 O   0  0  0  0  0  0  0  0  0  0  0  0
  -24.8960  -34.0890   24.8880 H   0  0  0  0  0  0  0  0  0  0  0  0
  -24.1810  -36.8120   22.9460 C   0  0  0  0  0  1  0  0  0  0  0  0
  -25.3780  -36.3820   23.8100 C   0  0  0  0  0  3  0  0  0  0  0  0
  -27.4650  -37.2610   24.7630 C   0  0  0  0  0  1  0  0  0  0  0  0
  -26.4230  -37.4270   23.7540 N   0  0  0  0  0  0  0  0  0  0  0  0
  -26.0130  -38.3500   23.8750 H   0  0  0  0  0  0  0  0  0  0  0  0
  -26.3350  -31.7880   25.1020 C   0  0  1  0  0  0  0  0  0  0  0  0
  -25.2200  -31.5650   26.1520 C   0  0  0  0  0  1  0  0  0  0  0  0
  -26.9350  -30.4050   24.7660 C   0  0  0  0  0  1  0  0  0  0  0  0
  -27.4670  -32.6030   25.7720 C   0  0  0  0  0  1  0  0  0  0  0  0
  1  3  2  0
  2 50  1  0
  2  1  1  0
  4  2  1  0
  5 21  1  0
  6 11  1  0
  7  8  1  0
  7  6  1  0
  9  8  1  0
  9 25  1  0
  9 10  1  0
 11  5  1  0
 11 10  1  0
 12  5  2  0
 13 14  1  0
 14 21  1  0
 14  1  1  0
 15 17  1  0
 15 16  1  0
 20 16  1  6
 17 20  1  0
 18 19  1  0
 20 13  1  0
 20 18  1  0
 21 19  1  0
 22 23  2  0
 23 42  1  0
 24 23  1  0
 24 27  1  0
 25 22  1  0
 25 26  1  0
 26 24  2  0
 27 28  1  0
 28 29  2  0
 30 33  1  0
 30 29  1  0
 31 30  2  0
 32 31  1  0
 32 27  2  0
 33 34  1  0
 34 39  2  0
 34 35  1  0
 35 36  2  0
 36 37  1  0
 37 41  1  0
 38 37  2  0
 39 38  1  0
 40 39  1  0
 42 43  1  0
 43 46  1  0
 43 45  1  0
 44 42  2  0
 47 48  1  0
 47 22  1  0
 49 47  1  0
 51 52  1  0
 51 50  2  0
 53 64  2  0
 54 52  1  0
 54 59  1  0
 55 63  1  0
 55 65  1  0
 56 62  1  0
 56 58  1  0
 57 63  1  0
 58 57  1  0
 59 58  2  0
 60 61  1  0
 60 54  2  0
 61 56  2  0
 62 55  1  0
 63 53  1  0
 65 67  2  0
 66 65  1  0
 68 66  1  0
 69 78  2  0
 69 74  1  0
 70 66  1  0
 70 74  1  0
 71 70  1  0
 72 73  1  0
 72 71  1  0
 73 69  1  0
 74 75  2  0
 75 76  1  0
 77 76  2  0
 78 77  1  0
 79 53  1  0
 79 80  1  0
 79 89  1  0
 80 83  1  0
 81 85  1  0
 81 80  1  0
 82 81  2  0
 85 84  1  0
 87 85  1  0
 87 88  1  0
 87 86  1  0
 89 92  1  1
 89 90  1  0
 91 89  1  0
M  ISO  4   5 100  21 100  51 101  52 101
M  END
>  <TORSDO>  (47) 
F 18

>  <SCORE>  (47) 
-15.614

>  <name>  (47) 
46

>  <ligand_id>  (47) 
46

>  <original_smiles>  (47) 
[H]C1=C(C(=O)N([H])C([H])([H])C([H])([H])Oc2c([H])c([H])c3c(c2[H])C([H])([H])N(C(=O)C([H])(N([H])C(=O)C([H])(N([H])C([H])([H])[H])C([H])([H])[H])C(C([H])([H])[H])(C([H])([H])[H])C([H])([H])[H])C([H])(C(=O)N([H])C2([H])c4c([H])c([H])c([H])c([H])c4C([H])([H])C([H])([H])C2([H])[H])C3([H])[H])N(C(=O)N2C([H])([H])C([H])([H])C([H])([H])C([H])(n3nc(-c4c([H])c([H])c(Oc5c([H])c([H])c(F)c([H])c5F)c([H])c4[H])c(C(=O)N([H])[H])c3N([H])[H])C2([H])[H])C([H])([H])C([H])([H])C12C([H])([H])C([H])([H])C2([H])[H]

>  <smiles>  (47) 
[H]C1=C(C(=O)N([H])C([H])([H])C([H])([H])Oc2c([H])c([H])c3c(c2[H])C([H])([H])N(C(=O)C([H])(N([H])C(=O)C([H])(N([H])C([H])([H])[H])C([H])([H])[H])C(C([H])([H])[H])(C([H])([H])[H])C([H])([H])[H])C([H])(C(=O)N([H])C2([H])c4c([H])c([H])c([H])c([H])c4C([H])([H])C([H])([H])C2([H])[H])C3([H])[H])N(C(=O)N2C([H])([H])C([H])([H])C([H])([H])C([H])(n3nc(-c4c([H])c([H])c(Oc5c([H])c([H])c(F)c([H])c5F)c([H])c4[H])c(C(=O)N([H])[H])c3N([H])[H])C2([H])[H])C([H])([H])C([H])([H])C12C([H])([H])C([H])([H])C2([H])[H]

$$$$
47:0:0
     RDKit          3D

 89 98  0  0  1  0  0  0  0  0999 V2000
  -27.1100  -20.8280   21.0140 C   0  0  0  0  0  3  0  0  0  0  0  0
  -27.3220  -19.8290   19.9760 C   0  0  0  0  0  3  0  0  0  0  0  0
  -28.1170  -21.6640   21.3570 C   0  0  0  0  0  3  0  0  0  0  0  0
  -28.5730  -19.3940   19.7410 C   0  0  0  0  0  0  0  0  0  0  0  0
  -29.2590  -18.5810   18.6450 C   0  0  0  0  0  2  0  0  0  0  0  0
  -29.4900  -21.6290   20.6600 C   0  0  0  0  0  3  0  0  0  0  0  0
  -29.7900  -19.8410   20.4920 C   0  0  0  0  0  3  0  0  0  0  0  0
  -30.4350  -18.4120   19.6510 C   0  0  0  0  0  3  0  0  0  0  0  0
  -31.1600  -15.5510   19.8400 C   0  0  0  0  0  0  0  0  0  0  0  0
  -31.0480  -13.1110   18.9720 C   0  0  0  0  0  2  0  0  0  0  0  0
  -30.0790  -12.9990   17.7680 C   0  0  0  0  0  2  0  0  0  0  0  0
  -28.6520  -12.7330   18.2810 C   0  0  0  0  0  2  0  0  0  0  0  0
  -28.2710  -13.6700   19.4530 C   0  0  0  0  0  3  0  0  0  0  0  0
  -29.3720  -13.7690   20.5320 C   0  0  0  0  0  2  0  0  0  0  0  0
  -30.5870  -14.2510   19.8510 N   0  0  0  0  0  0  0  0  0  0  0  0
  -32.3310  -15.5660   19.4390 O   0  0  0  0  0  0  0  0  0  0  0  0
  -30.4170  -16.8020   20.0980 N   0  0  0  0  0  0  0  0  0  0  0  0
  -29.5390  -16.5710   20.5320 H   0  0  0  0  0  0  0  0  0  0  0  0
  -25.9730  -14.2340   20.4010 C   0  0  0  0  0  0  0  0  0  0  0  0
  -24.9190  -13.4600   20.8020 C   0  0  0  0  0  0  0  0  0  0  0  0
  -25.3450  -12.1050   20.6540 C   0  0  0  0  0  0  0  0  0  0  0  0
  -26.9680  -13.3540   20.0280 N   0  0  0  0  0  0  0  0  0  0  0  0
  -26.6090  -12.0610   20.2450 N   0  0  0  0  0  0  0  0  0  0  0  0
  -24.5990  -10.8490   20.8310 C   0  0  0  0  0  0  0  0  0  0  0  0
  -24.9790   -9.8930   21.7980 C   0  0  0  0  0  3  0  0  0  0  0  0
  -24.2350   -8.7040   21.9570 C   0  0  0  0  0  3  0  0  0  0  0  0
  -23.0960   -8.4650   21.1520 C   0  0  0  0  0  0  0  0  0  0  0  0
  -22.7350   -9.4100   20.1780 C   0  0  0  0  0  3  0  0  0  0  0  0
  -23.4790  -10.5930   20.0160 C   0  0  0  0  0  3  0  0  0  0  0  0
  -22.3280   -7.3300   21.2200 O   0  0  0  0  0  0  0  0  0  0  0  0
  -22.0740   -6.7010   22.4140 C   0  0  0  0  0  0  0  0  0  0  0  0
  -21.4030   -7.3550   23.4690 C   0  0  0  0  0  3  0  0  0  0  0  0
  -21.1000   -6.6530   24.6520 C   0  0  0  0  0  3  0  0  0  0  0  0
  -21.4580   -5.2960   24.7800 C   0  0  0  0  0  0  0  0  0  0  0  0
  -22.1210   -4.6420   23.7250 C   0  0  0  0  0  3  0  0  0  0  0  0
  -22.4240   -5.3430   22.5450 C   0  0  0  0  0  0  0  0  0  0  0  0
  -23.0450   -4.7030   21.5240 F   0  0  0  0  0  0  0  0  0  0  0  0
  -21.1620   -4.6180   25.9120 F   0  0  0  0  0  0  0  0  0  0  0  0
  -23.5610  -13.9550   21.2040 C   0  0  0  0  0  0  0  0  0  0  0  0
  -22.8910  -13.2370   22.1000 N   0  0  0  0  0  0  0  0  0  0  0  0
  -23.1060  -15.0080   20.7630 O   0  0  0  0  0  0  0  0  0  0  0  0
  -23.2750  -12.3820   22.4780 H   0  0  0  0  0  0  0  0  0  0  0  0
  -21.9800  -13.5440   22.4150 H   0  0  0  0  0  0  0  0  0  0  0  0
  -26.1520  -15.6070   20.2900 N   0  0  0  0  0  0  0  0  0  0  0  0
  -25.4100  -16.2660   20.4980 H   0  0  0  0  0  0  0  0  0  0  0  0
  -26.9770  -16.0490   19.8990 H   0  0  0  0  0  0  0  0  0  0  0  0
  -29.4860  -23.1500   19.7470 C   0  0  0  0  0  3  0  0  0  0  0  0
  -28.5790  -24.6560   20.0920 C   0  0  0  0  0  3  0  0  0  0  0  0
  -28.6370  -26.2240   19.6700 O   0  0  0  0  0  0  0  0  0  0  0  0
  -24.6730  -31.7140   22.9310 C   0  0  0  0  0  0  0  0  0  0  0  0
  -27.5260  -27.1980   19.7040 C   0  0  0  0  0  0  0  0  0  0  0  0
  -23.5630  -30.3380   21.2150 C   0  0  0  0  0  3  0  0  0  0  0  0
  -25.1050  -28.8940   19.7290 C   0  0  0  0  0  0  0  0  0  0  0  0
  -26.1130  -30.7130   21.0950 C   0  0  0  0  0  2  0  0  0  0  0  0
  -26.2630  -29.3520   20.3720 C   0  0  0  0  0  0  0  0  0  0  0  0
  -27.4720  -28.5320   20.3260 C   0  0  0  0  0  3  0  0  0  0  0  0
  -26.3290  -26.8650   19.0290 C   0  0  0  0  0  3  0  0  0  0  0  0
  -25.1630  -27.6740   19.0350 C   0  0  0  0  0  3  0  0  0  0  0  0
  -23.8310  -29.7330   19.8070 C   0  0  0  0  0  2  0  0  0  0  0  0
  -24.8040  -30.9430   21.8030 N   0  0  0  0  0  0  0  0  0  0  0  0
  -23.5680  -31.9100   23.4660 O   0  0  0  0  0  0  0  0  0  0  0  0
  -22.9270  -29.2600   22.1340 C   0  0  0  0  0  0  0  0  0  0  0  0
  -21.5970  -29.0830   22.0400 N   0  0  0  0  0  0  0  0  0  0  0  0
  -23.6340  -28.5930   22.8930 O   0  0  0  0  0  0  0  0  0  0  0  0
  -21.0740  -29.6960   21.4320 H   0  0  0  0  0  0  0  0  0  0  0  0
  -18.2470  -27.7930   22.6030 C   0  0  0  0  0  0  0  0  0  0  0  0
  -20.8170  -28.0600   22.7480 C   0  0  0  0  0  3  0  0  0  0  0  0
  -20.8830  -26.6940   22.0230 C   0  0  0  0  0  2  0  0  0  0  0  0
  -19.7240  -26.4560   21.0530 C   0  0  0  0  0  2  0  0  0  0  0  0
  -18.3810  -26.5230   21.7850 C   0  0  0  0  0  2  0  0  0  0  0  0
  -19.3860  -28.5230   23.0370 C   0  0  0  0  0  0  0  0  0  0  0  0
  -19.1980  -29.7150   23.7670 C   0  0  0  0  0  3  0  0  0  0  0  0
  -17.9050  -30.1790   24.0590 C   0  0  0  0  0  3  0  0  0  0  0  0
  -16.7760  -29.4500   23.6460 C   0  0  0  0  0  3  0  0  0  0  0  0
  -16.9500  -28.2540   22.9270 C   0  0  0  0  0  3  0  0  0  0  0  0
  -25.9080  -32.3910   23.5980 C   0  0  0  0  0  3  0  0  0  0  0  0
  -25.5170  -33.7560   23.9910 N   0  0  0  0  0  0  0  0  0  0  0  0
  -25.8070  -34.8650   23.2980 C   0  0  0  0  0  0  0  0  0  0  0  0
  -26.4980  -34.8460   22.2750 O   0  0  0  0  0  0  0  0  0  0  0  0
  -24.9010  -33.8390   24.7870 H   0  0  0  0  0  0  0  0  0  0  0  0
  -23.9980  -36.5930   23.0170 C   0  0  0  0  0  1  0  0  0  0  0  0
  -25.2500  -36.2050   23.8200 C   0  0  0  0  0  3  0  0  0  0  0  0
  -27.3210  -37.1620   24.7270 C   0  0  0  0  0  1  0  0  0  0  0  0
  -26.2270  -37.3120   23.7700 N   0  0  0  0  0  0  0  0  0  0  0  0
  -25.7740  -38.2050   23.9430 H   0  0  0  0  0  0  0  0  0  0  0  0
  -26.4420  -31.5990   24.8590 C   0  0  1  0  0  0  0  0  0  0  0  0
  -25.3460  -31.2740   25.9040 C   0  0  0  0  0  1  0  0  0  0  0  0
  -27.0970  -30.2630   24.4430 C   0  0  0  0  0  1  0  0  0  0  0  0
  -27.5480  -32.4220   25.5660 C   0  0  0  0  0  1  0  0  0  0  0  0
  1  3  2  0
  2  1  1  0
  4  2  2  0
  5  8  1  0
  5  4  1  0
  6 47  1  0
  6  3  1  0
  7  4  1  0
  7  6  1  0
  8 17  1  0
  8  7  1  0
  9 15  1  0
  9 17  1  0
 10 15  1  0
 11 12  1  0
 11 10  1  0
 13 12  1  0
 13 22  1  0
 13 14  1  0
 15 14  1  0
 16  9  2  0
 17 18  1  0
 19 20  2  0
 20 39  1  0
 21 20  1  0
 21 24  1  0
 22 23  1  0
 22 19  1  0
 23 21  2  0
 24 25  1  0
 25 26  2  0
 27 30  1  0
 27 26  1  0
 28 27  2  0
 29 28  1  0
 29 24  2  0
 30 31  1  0
 31 36  2  0
 31 32  1  0
 32 33  2  0
 33 34  1  0
 34 38  1  0
 35 34  2  0
 36 35  1  0
 37 36  1  0
 39 40  1  0
 40 43  1  0
 40 42  1  0
 41 39  2  0
 44 19  1  0
 44 45  1  0
 46 44  1  0
 47 48  2  0
 49 51  1  0
 49 48  1  0
 50 61  2  0
 51 56  1  0
 52 60  1  0
 52 62  1  0
 53 59  1  0
 53 55  1  0
 54 60  1  0
 55 54  1  0
 56 55  2  0
 57 58  1  0
 57 51  2  0
 58 53  2  0
 59 52  1  0
 60 50  1  0
 62 64  2  0
 63 62  1  0
 65 63  1  0
 66 75  2  0
 66 71  1  0
 67 63  1  0
 67 71  1  0
 68 67  1  0
 69 70  1  0
 69 68  1  0
 70 66  1  0
 71 72  2  0
 72 73  1  0
 74 73  2  0
 75 74  1  0
 76 50  1  0
 76 77  1  0
 76 86  1  0
 77 80  1  0
 78 82  1  0
 78 77  1  0
 79 78  2  0
 82 81  1  0
 84 82  1  0
 84 85  1  0
 84 83  1  0
 86 89  1  1
 86 87  1  0
 88 86  1  0
M  ISO  4   9 100  17 100  48 101  49 101
M  END
>  <TORSDO>  (48) 
F 18

>  <SCORE>  (48) 
-12.262

>  <name>  (48) 
47

>  <ligand_id>  (48) 
47

>  <original_smiles>  (48) 
[H]C1=C([H])C([H])(C([H])([H])C([H])([H])Oc2c([H])c([H])c3c(c2[H])C([H])([H])N(C(=O)C([H])(N([H])C(=O)C([H])(N([H])C([H])([H])[H])C([H])([H])[H])C(C([H])([H])[H])(C([H])([H])[H])C([H])([H])[H])C([H])(C(=O)N([H])C2([H])c4c([H])c([H])c([H])c([H])c4C([H])([H])C([H])([H])C2([H])[H])C3([H])[H])C2([H])C(=C1[H])C([H])([H])C2([H])N([H])C(=O)N1C([H])([H])C([H])([H])C([H])([H])C([H])(n2nc(-c3c([H])c([H])c(Oc4c([H])c([H])c(F)c([H])c4F)c([H])c3[H])c(C(=O)N([H])[H])c2N([H])[H])C1([H])[H]

>  <smiles>  (48) 
[H]C1=C([H])C([H])(C([H])([H])C([H])([H])Oc2c([H])c([H])c3c(c2[H])C([H])([H])N(C(=O)C([H])(N([H])C(=O)C([H])(N([H])C([H])([H])[H])C([H])([H])[H])C(C([H])([H])[H])(C([H])([H])[H])C([H])([H])[H])C([H])(C(=O)N([H])C2([H])c4c([H])c([H])c([H])c([H])c4C([H])([H])C([H])([H])C2([H])[H])C3([H])[H])C2([H])C(=C1[H])C([H])([H])C2([H])N([H])C(=O)N1C([H])([H])C([H])([H])C([H])([H])C([H])(n2nc(-c3c([H])c([H])c(Oc4c([H])c([H])c(F)c([H])c4F)c([H])c3[H])c(C(=O)N([H])[H])c2N([H])[H])C1([H])[H]

$$$$
48:0:0
     RDKit          3D

 87 95  0  0  1  0  0  0  0  0999 V2000
  -29.0300  -21.0940   19.6190 C   0  0  0  0  0  2  0  0  0  0  0  0
  -30.5570  -15.2890   19.8390 C   0  0  0  0  0  0  0  0  0  0  0  0
  -30.4140  -12.8560   18.9570 C   0  0  0  0  0  2  0  0  0  0  0  0
  -29.4200  -12.6680   17.7860 C   0  0  0  0  0  2  0  0  0  0  0  0
  -27.9980  -12.4140   18.3180 C   0  0  0  0  0  2  0  0  0  0  0  0
  -27.6320  -13.3640   19.4860 C   0  0  0  0  0  3  0  0  0  0  0  0
  -28.7580  -13.5020   20.5350 C   0  0  0  0  0  2  0  0  0  0  0  0
  -29.9410  -14.0030   19.8160 N   0  0  0  0  0  0  0  0  0  0  0  0
  -31.7490  -15.2380   19.5000 O   0  0  0  0  0  0  0  0  0  0  0  0
  -28.3060  -18.5160   20.6660 C   0  0  0  0  0  0  0  0  0  0  0  0
  -28.6390  -16.9650   20.6620 C   0  0  0  0  0  2  0  0  0  0  0  0
  -30.2630  -18.1140   19.5040 C   0  0  0  0  0  2  0  0  0  0  0  0
  -29.4540  -19.4390   20.2220 C   0  0  0  0  0  3  0  0  0  0  0  0
  -27.1730  -18.9580   21.0050 N   0  0  0  0  0  0  0  0  0  0  0  0
  -29.8900  -16.6180   19.9470 N   0  0  0  0  0  0  0  0  0  0  0  0
  -26.5330  -18.2120   21.2580 H   0  0  0  0  0  0  0  0  0  0  0  0
  -25.3260  -13.9190   20.4270 C   0  0  0  0  0  0  0  0  0  0  0  0
  -24.2880  -13.1420   20.8530 C   0  0  0  0  0  0  0  0  0  0  0  0
  -24.7370  -11.7900   20.7500 C   0  0  0  0  0  0  0  0  0  0  0  0
  -26.3410  -13.0450   20.0840 N   0  0  0  0  0  0  0  0  0  0  0  0
  -26.0040  -11.7550   20.3460 N   0  0  0  0  0  0  0  0  0  0  0  0
  -24.0110  -10.5300   20.9550 C   0  0  0  0  0  0  0  0  0  0  0  0
  -24.4730   -9.5480   21.8560 C   0  0  0  0  0  3  0  0  0  0  0  0
  -23.7430   -8.3540   22.0500 C   0  0  0  0  0  3  0  0  0  0  0  0
  -22.5350   -8.1370   21.3450 C   0  0  0  0  0  0  0  0  0  0  0  0
  -22.0910   -9.1100   20.4310 C   0  0  0  0  0  3  0  0  0  0  0  0
  -22.8210  -10.2940   20.2360 C   0  0  0  0  0  3  0  0  0  0  0  0
  -21.7730   -7.0000   21.4520 O   0  0  0  0  0  0  0  0  0  0  0  0
  -21.7330   -6.2680   22.6110 C   0  0  0  0  0  0  0  0  0  0  0  0
  -21.3110   -6.8310   23.8350 C   0  0  0  0  0  3  0  0  0  0  0  0
  -21.2170   -6.0230   24.9870 C   0  0  0  0  0  3  0  0  0  0  0  0
  -21.5380   -4.6540   24.9160 C   0  0  0  0  0  0  0  0  0  0  0  0
  -21.9560   -4.0910   23.6980 C   0  0  0  0  0  3  0  0  0  0  0  0
  -22.0500   -4.8950   22.5490 C   0  0  0  0  0  0  0  0  0  0  0  0
  -22.4320   -4.3420   21.3710 F   0  0  0  0  0  0  0  0  0  0  0  0
  -21.4430   -3.8780   26.0210 F   0  0  0  0  0  0  0  0  0  0  0  0
  -22.9190  -13.6280   21.2300 C   0  0  0  0  0  0  0  0  0  0  0  0
  -22.2480  -12.9240   22.1330 N   0  0  0  0  0  0  0  0  0  0  0  0
  -22.4580  -14.6680   20.7610 O   0  0  0  0  0  0  0  0  0  0  0  0
  -22.6380  -12.0850   22.5340 H   0  0  0  0  0  0  0  0  0  0  0  0
  -21.3330  -13.2360   22.4320 H   0  0  0  0  0  0  0  0  0  0  0  0
  -25.4740  -15.2930   20.2650 N   0  0  0  0  0  0  0  0  0  0  0  0
  -24.6910  -15.9220   20.4030 H   0  0  0  0  0  0  0  0  0  0  0  0
  -26.2350  -15.7150   19.7520 H   0  0  0  0  0  0  0  0  0  0  0  0
  -28.8980  -22.7490   20.3230 C   0  0  0  0  0  3  0  0  0  0  0  0
  -28.1290  -24.2920   19.7940 C   0  0  0  0  0  3  0  0  0  0  0  0
  -28.2290  -25.8770   20.2300 O   0  0  0  0  0  0  0  0  0  0  0  0
  -24.5340  -31.7530   23.1490 C   0  0  0  0  0  0  0  0  0  0  0  0
  -27.2060  -26.9550   20.1240 C   0  0  0  0  0  0  0  0  0  0  0  0
  -23.3870  -30.3640   21.4710 C   0  0  0  0  0  3  0  0  0  0  0  0
  -24.8830  -28.7960   20.0560 C   0  0  0  0  0  0  0  0  0  0  0  0
  -25.9520  -30.6090   21.3780 C   0  0  0  0  0  2  0  0  0  0  0  0
  -26.0510  -29.2100   20.7060 C   0  0  0  0  0  0  0  0  0  0  0  0
  -27.2040  -28.3080   20.7200 C   0  0  0  0  0  3  0  0  0  0  0  0
  -26.0110  -26.6920   19.4160 C   0  0  0  0  0  3  0  0  0  0  0  0
  -24.8870  -27.5580   19.3890 C   0  0  0  0  0  3  0  0  0  0  0  0
  -23.6500  -29.6980   20.0910 C   0  0  0  0  0  2  0  0  0  0  0  0
  -24.6450  -30.9360   22.0530 N   0  0  0  0  0  0  0  0  0  0  0  0
  -23.4320  -32.0240   23.6540 O   0  0  0  0  0  0  0  0  0  0  0  0
  -22.6870  -29.3470   22.4110 C   0  0  0  0  0  0  0  0  0  0  0  0
  -21.3600  -29.1770   22.2700 N   0  0  0  0  0  0  0  0  0  0  0  0
  -23.3480  -28.7120   23.2380 O   0  0  0  0  0  0  0  0  0  0  0  0
  -20.8790  -29.7400   21.5830 H   0  0  0  0  0  0  0  0  0  0  0  0
  -17.9780  -27.9530   22.7300 C   0  0  0  0  0  0  0  0  0  0  0  0
  -20.5350  -28.2240   23.0190 C   0  0  0  0  0  3  0  0  0  0  0  0
  -20.6450  -26.8020   22.4200 C   0  0  0  0  0  2  0  0  0  0  0  0
  -19.5520  -26.4940   21.3910 C   0  0  0  0  0  2  0  0  0  0  0  0
  -18.1660  -26.6190   22.0270 C   0  0  0  0  0  2  0  0  0  0  0  0
  -19.0890  -28.7140   23.1820 C   0  0  0  0  0  0  0  0  0  0  0  0
  -18.8560  -29.9610   23.8030 C   0  0  0  0  0  3  0  0  0  0  0  0
  -17.5470  -30.4470   23.9760 C   0  0  0  0  0  3  0  0  0  0  0  0
  -16.4500  -29.6840   23.5380 C   0  0  0  0  0  3  0  0  0  0  0  0
  -16.6670  -28.4390   22.9210 C   0  0  0  0  0  3  0  0  0  0  0  0
  -25.7850  -32.4050   23.8120 C   0  0  0  0  0  3  0  0  0  0  0  0
  -25.4500  -33.8010   24.1400 N   0  0  0  0  0  0  0  0  0  0  0  0
  -25.7790  -34.8660   23.3960 C   0  0  0  0  0  0  0  0  0  0  0  0
  -26.4590  -34.7770   22.3710 O   0  0  0  0  0  0  0  0  0  0  0  0
  -24.8460  -33.9410   24.9350 H   0  0  0  0  0  0  0  0  0  0  0  0
  -24.0290  -36.6450   23.0580 C   0  0  0  0  0  1  0  0  0  0  0  0
  -25.2770  -36.2480   23.8620 C   0  0  0  0  0  3  0  0  0  0  0  0
  -27.3990  -37.1660   24.6950 C   0  0  0  0  0  1  0  0  0  0  0  0
  -26.2960  -37.3160   23.7480 N   0  0  0  0  0  0  0  0  0  0  0  0
  -25.8760  -38.2300   23.8920 H   0  0  0  0  0  0  0  0  0  0  0  0
  -26.2630  -31.6420   25.1100 C   0  0  1  0  0  0  0  0  0  0  0  0
  -25.1360  -31.4040   26.1420 C   0  0  0  0  0  1  0  0  0  0  0  0
  -26.8680  -30.2660   24.7530 C   0  0  0  0  0  1  0  0  0  0  0  0
  -27.3860  -32.4490   25.8060 C   0  0  0  0  0  1  0  0  0  0  0  0
  1 45  1  0
  2 15  1  0
  3  8  1  0
  4  5  1  0
  4  3  1  0
  6  5  1  0
  6 20  1  0
  6  7  1  0
  8  2  1  0
  8  7  1  0
  9  2  2  0
 10 14  2  0
 11 10  1  0
 12 15  1  0
 12 13  1  0
 13  1  1  0
 13 10  1  0
 14 16  1  0
 15 11  1  0
 17 18  2  0
 18 37  1  0
 19 18  1  0
 19 22  1  0
 20 21  1  0
 20 17  1  0
 21 19  2  0
 22 23  1  0
 23 24  2  0
 25 28  1  0
 25 24  1  0
 26 25  2  0
 27 26  1  0
 27 22  2  0
 28 29  1  0
 29 30  1  0
 30 31  2  0
 32 31  1  0
 32 36  1  0
 33 32  2  0
 34 29  2  0
 34 33  1  0
 35 34  1  0
 37 38  1  0
 38 41  1  0
 38 40  1  0
 39 37  2  0
 42 43  1  0
 42 17  1  0
 44 42  1  0
 46 47  1  0
 46 45  2  0
 48 59  2  0
 49 47  1  0
 49 54  1  0
 50 58  1  0
 50 60  1  0
 51 57  1  0
 51 53  1  0
 52 58  1  0
 53 54  2  0
 53 52  1  0
 55 49  2  0
 56 55  1  0
 56 51  2  0
 57 50  1  0
 58 48  1  0
 60 62  2  0
 61 60  1  0
 63 61  1  0
 64 73  2  0
 64 69  1  0
 65 61  1  0
 65 69  1  0
 66 65  1  0
 67 68  1  0
 67 66  1  0
 68 64  1  0
 69 70  2  0
 70 71  1  0
 72 71  2  0
 73 72  1  0
 74 48  1  0
 74 75  1  0
 74 84  1  0
 75 78  1  0
 76 80  1  0
 76 75  1  0
 77 76  2  0
 80 79  1  0
 82 80  1  0
 82 83  1  0
 82 81  1  0
 84 87  1  1
 84 85  1  0
 86 84  1  0
M  ISO  4   2 100  15 100  46 101  47 101
M  END
>  <TORSDO>  (49) 
F 18

>  <SCORE>  (49) 
-15.313

>  <name>  (49) 
48

>  <ligand_id>  (49) 
48

>  <original_smiles>  (49) 
[H]N=C1C([H])([H])N(C(=O)N2C([H])([H])C([H])([H])C([H])([H])C([H])(n3nc(-c4c([H])c([H])c(Oc5c([H])c([H])c(F)c([H])c5F)c([H])c4[H])c(C(=O)N([H])[H])c3N([H])[H])C2([H])[H])C([H])([H])C1([H])C([H])([H])C([H])([H])C([H])([H])Oc1c([H])c([H])c2c(c1[H])C([H])([H])N(C(=O)C([H])(N([H])C(=O)C([H])(N([H])C([H])([H])[H])C([H])([H])[H])C(C([H])([H])[H])(C([H])([H])[H])C([H])([H])[H])C([H])(C(=O)N([H])C1([H])c3c([H])c([H])c([H])c([H])c3C([H])([H])C([H])([H])C1([H])[H])C2([H])[H]

>  <smiles>  (49) 
[H]N=C1C([H])([H])N(C(=O)N2C([H])([H])C([H])([H])C([H])([H])C([H])(n3nc(-c4c([H])c([H])c(Oc5c([H])c([H])c(F)c([H])c5F)c([H])c4[H])c(C(=O)N([H])[H])c3N([H])[H])C2([H])[H])C([H])([H])C1([H])C([H])([H])C([H])([H])C([H])([H])Oc1c([H])c([H])c2c(c1[H])C([H])([H])N(C(=O)C([H])(N([H])C(=O)C([H])(N([H])C([H])([H])[H])C([H])([H])[H])C(C([H])([H])[H])(C([H])([H])[H])C([H])([H])[H])C([H])(C(=O)N([H])C1([H])c3c([H])c([H])c([H])c([H])c3C([H])([H])C([H])([H])C1([H])[H])C2([H])[H]

$$$$
49:0:0
     RDKit          3D

 95104  0  0  1  0  0  0  0  0999 V2000
  -28.7910  -21.3760   19.6790 C   0  0  0  0  0  3  0  0  0  0  0  0
  -29.6120  -20.9510   20.6600 C   0  0  0  0  0  0  0  0  0  0  0  0
  -28.3170  -22.7870   19.3880 C   0  0  0  0  0  2  0  0  0  0  0  0
  -30.1710  -21.8720   21.7380 C   0  0  0  0  0  2  0  0  0  0  0  0
  -29.4120  -23.8610   19.3840 C   0  0  0  0  0  2  0  0  0  0  0  0
  -30.8420  -23.1830   21.2760 C   0  0  0  0  0  2  0  0  0  0  0  0
  -29.8960  -24.2040   20.7470 N   0  0  1  0  0  4  0  0  0  0  0  0
  -29.0950  -24.1970   21.3600 H   0  0  0  0  0  0  0  0  0  0  0  0
  -28.6580  -18.6570   20.9070 C   0  0  0  0  0  3  0  0  0  0  0  0
  -31.0800  -18.9180   20.8170 C   0  0  0  0  0  3  0  0  0  0  0  0
  -28.8120  -17.2630   21.0110 C   0  0  0  0  0  3  0  0  0  0  0  0
  -31.2340  -17.5160   20.9040 C   0  0  0  0  0  3  0  0  0  0  0  0
  -29.7910  -19.4920   20.8010 C   0  0  0  0  0  0  0  0  0  0  0  0
  -30.0960  -16.6800   20.9840 C   0  0  0  0  0  0  0  0  0  0  0  0
  -30.7420  -14.4320   20.1920 C   0  0  0  0  0  0  0  0  0  0  0  0
  -30.3760  -12.3600   18.9010 C   0  0  0  0  0  2  0  0  0  0  0  0
  -29.3680  -12.6310   17.7640 C   0  0  0  0  0  2  0  0  0  0  0  0
  -27.9170  -12.4770   18.2600 C   0  0  0  0  0  2  0  0  0  0  0  0
  -27.6520  -13.2510   19.5780 C   0  0  0  0  0  3  0  0  0  0  0  0
  -28.7540  -12.9370   20.6160 C   0  0  0  0  0  2  0  0  0  0  0  0
  -30.0640  -13.2660   20.0140 N   0  0  0  0  0  0  0  0  0  0  0  0
  -31.7790  -14.7110   19.5790 O   0  0  0  0  0  0  0  0  0  0  0  0
  -30.1730  -15.2660   21.0770 N   0  0  0  0  0  0  0  0  0  0  0  0
  -29.4000  -14.8320   21.5580 H   0  0  0  0  0  0  0  0  0  0  0  0
  -25.2750  -13.8430   20.3800 C   0  0  0  0  0  0  0  0  0  0  0  0
  -24.2300  -13.0610   20.7940 C   0  0  0  0  0  0  0  0  0  0  0  0
  -24.6990  -11.7130   20.7400 C   0  0  0  0  0  0  0  0  0  0  0  0
  -26.3180  -12.9690   20.1070 N   0  0  0  0  0  0  0  0  0  0  0  0
  -25.9760  -11.6840   20.3770 N   0  0  0  0  0  0  0  0  0  0  0  0
  -23.9930  -10.4440   20.9580 C   0  0  0  0  0  0  0  0  0  0  0  0
  -24.4400   -9.5050   21.9130 C   0  0  0  0  0  3  0  0  0  0  0  0
  -23.7350   -8.2990   22.1170 C   0  0  0  0  0  3  0  0  0  0  0  0
  -22.5670   -8.0250   21.3650 C   0  0  0  0  0  0  0  0  0  0  0  0
  -22.1390   -8.9530   20.4000 C   0  0  0  0  0  3  0  0  0  0  0  0
  -22.8450  -10.1490   20.1940 C   0  0  0  0  0  3  0  0  0  0  0  0
  -21.8320   -6.8690   21.4770 O   0  0  0  0  0  0  0  0  0  0  0  0
  -21.7430   -6.1840   22.6620 C   0  0  0  0  0  0  0  0  0  0  0  0
  -21.2360   -6.7870   23.8340 C   0  0  0  0  0  3  0  0  0  0  0  0
  -21.0980   -6.0260   25.0130 C   0  0  0  0  0  3  0  0  0  0  0  0
  -21.4540   -4.6640   25.0190 C   0  0  0  0  0  0  0  0  0  0  0  0
  -21.9540   -4.0610   23.8510 C   0  0  0  0  0  3  0  0  0  0  0  0
  -22.0950   -4.8190   22.6750 C   0  0  0  0  0  0  0  0  0  0  0  0
  -22.5570   -4.2290   21.5460 F   0  0  0  0  0  0  0  0  0  0  0  0
  -21.3140   -3.9310   26.1480 F   0  0  0  0  0  0  0  0  0  0  0  0
  -22.8410  -13.5260   21.1290 C   0  0  0  0  0  0  0  0  0  0  0  0
  -22.1590  -12.8250   22.0290 N   0  0  0  0  0  0  0  0  0  0  0  0
  -22.3700  -14.5450   20.6270 O   0  0  0  0  0  0  0  0  0  0  0  0
  -22.5540  -12.0000   22.4570 H   0  0  0  0  0  0  0  0  0  0  0  0
  -21.2290  -13.1170   22.2940 H   0  0  0  0  0  0  0  0  0  0  0  0
  -25.4200  -15.2140   20.1960 N   0  0  0  0  0  0  0  0  0  0  0  0
  -24.6480  -15.8580   20.3200 H   0  0  0  0  0  0  0  0  0  0  0  0
  -26.2400  -15.6500   19.7900 H   0  0  0  0  0  0  0  0  0  0  0  0
  -30.4450  -25.5960   20.8190 C   0  0  0  0  0  2  0  0  0  0  0  0
  -29.3670  -26.6740   21.0660 C   0  0  0  0  0  2  0  0  0  0  0  0
  -28.4880  -26.7080   19.9510 O   0  0  0  0  0  0  0  0  0  0  0  0
  -24.6110  -31.8250   23.1290 C   0  0  0  0  0  0  0  0  0  0  0  0
  -27.3430  -27.4620   20.0400 C   0  0  0  0  0  0  0  0  0  0  0  0
  -23.4340  -30.4260   21.4590 C   0  0  0  0  0  3  0  0  0  0  0  0
  -24.9210  -28.9150   20.0420 C   0  0  0  0  0  0  0  0  0  0  0  0
  -25.9540  -30.8190   21.2920 C   0  0  0  0  0  2  0  0  0  0  0  0
  -26.0630  -29.4510   20.6540 C   0  0  0  0  0  0  0  0  0  0  0  0
  -27.2740  -28.7290   20.6650 C   0  0  0  0  0  3  0  0  0  0  0  0
  -26.1900  -26.9380   19.4200 C   0  0  0  0  0  3  0  0  0  0  0  0
  -24.9780  -27.6520   19.4270 C   0  0  0  0  0  3  0  0  0  0  0  0
  -23.6670  -29.7580   20.0780 C   0  0  0  0  0  2  0  0  0  0  0  0
  -24.6830  -31.0370   22.0200 N   0  0  0  0  0  0  0  0  0  0  0  0
  -23.5220  -32.0810   23.6610 O   0  0  0  0  0  0  0  0  0  0  0  0
  -22.7830  -29.3910   22.4020 C   0  0  0  0  0  0  0  0  0  0  0  0
  -21.4610  -29.2030   22.2620 N   0  0  0  0  0  0  0  0  0  0  0  0
  -23.4650  -28.7580   23.2150 O   0  0  0  0  0  0  0  0  0  0  0  0
  -20.9750  -29.7650   21.5780 H   0  0  0  0  0  0  0  0  0  0  0  0
  -18.0870  -28.0020   22.7270 C   0  0  0  0  0  0  0  0  0  0  0  0
  -20.6430  -28.2530   23.0140 C   0  0  0  0  0  3  0  0  0  0  0  0
  -20.7480  -26.8320   22.4150 C   0  0  0  0  0  2  0  0  0  0  0  0
  -19.6510  -26.5270   21.3910 C   0  0  0  0  0  2  0  0  0  0  0  0
  -18.2660  -26.6630   22.0310 C   0  0  0  0  0  2  0  0  0  0  0  0
  -19.2050  -28.7550   23.1740 C   0  0  0  0  0  0  0  0  0  0  0  0
  -18.9850  -30.0110   23.7830 C   0  0  0  0  0  3  0  0  0  0  0  0
  -17.6800  -30.5120   23.9500 C   0  0  0  0  0  3  0  0  0  0  0  0
  -16.5770  -29.7550   23.5190 C   0  0  0  0  0  3  0  0  0  0  0  0
  -16.7810  -28.5020   22.9140 C   0  0  0  0  0  3  0  0  0  0  0  0
  -25.8860  -32.4570   23.7680 C   0  0  0  0  0  3  0  0  0  0  0  0
  -26.4150  -31.6610   25.0240 C   0  0  1  0  0  0  0  0  0  0  0  0
  -25.3230  -31.3740   26.0800 C   0  0  0  0  0  1  0  0  0  0  0  0
  -27.0250  -30.3070   24.5930 C   0  0  0  0  0  1  0  0  0  0  0  0
  -27.5480  -32.4580   25.7100 C   0  0  0  0  0  1  0  0  0  0  0  0
  -25.5570  -33.8430   24.1290 N   0  0  0  0  0  0  0  0  0  0  0  0
  -25.8690  -34.9150   23.3890 C   0  0  0  0  0  0  0  0  0  0  0  0
  -26.5360  -34.8430   22.3520 O   0  0  0  0  0  0  0  0  0  0  0  0
  -24.9630  -33.9710   24.9350 H   0  0  0  0  0  0  0  0  0  0  0  0
  -24.1050  -36.6790   23.0810 C   0  0  0  0  0  1  0  0  0  0  0  0
  -25.3600  -36.2850   23.8760 C   0  0  0  0  0  3  0  0  0  0  0  0
  -27.4840  -37.1950   24.7060 C   0  0  0  0  0  1  0  0  0  0  0  0
  -26.3720  -37.3580   23.7740 N   0  0  0  0  0  0  0  0  0  0  0  0
  -25.9500  -38.2680   23.9400 H   0  0  0  0  0  0  0  0  0  0  0  0
  1  2  2  0
  2 13  1  0
  2  4  1  0
  3  1  1  0
  5  3  1  0
  5  7  1  0
  6  4  1  0
  7 53  1  0
  7  6  1  0
  7  8  1  1
  9 11  1  0
 10 12  2  0
 12 14  1  0
 13 10  1  0
 13  9  2  0
 14 11  2  0
 14 23  1  0
 15 23  1  0
 16 21  1  0
 17 18  1  0
 17 16  1  0
 19 18  1  0
 19 28  1  0
 19 20  1  0
 21 15  1  0
 21 20  1  0
 22 15  2  0
 23 24  1  0
 25 26  2  0
 26 45  1  0
 27 26  1  0
 27 30  1  0
 28 29  1  0
 28 25  1  0
 29 27  2  0
 30 31  1  0
 31 32  2  0
 33 36  1  0
 33 32  1  0
 34 33  2  0
 35 34  1  0
 35 30  2  0
 36 37  1  0
 37 42  2  0
 37 38  1  0
 38 39  2  0
 39 40  1  0
 40 44  1  0
 41 40  2  0
 42 41  1  0
 43 42  1  0
 45 46  1  0
 46 49  1  0
 46 48  1  0
 47 45  2  0
 50 51  1  0
 50 25  1  0
 52 50  1  0
 53 54  1  0
 55 57  1  0
 55 54  1  0
 56 67  2  0
 57 62  1  0
 58 66  1  0
 58 68  1  0
 59 65  1  0
 59 61  1  0
 60 66  1  0
 61 62  2  0
 61 60  1  0
 63 64  1  0
 63 57  2  0
 64 59  2  0
 65 58  1  0
 66 56  1  0
 68 70  2  0
 69 68  1  0
 71 69  1  0
 72 81  2  0
 72 77  1  0
 73 69  1  0
 73 77  1  0
 74 73  1  0
 75 76  1  0
 75 74  1  0
 76 72  1  0
 77 78  2  0
 78 79  1  0
 80 79  2  0
 81 80  1  0
 82 56  1  0
 82 87  1  0
 82 83  1  0
 83 86  1  1
 83 84  1  0
 85 83  1  0
 87 90  1  0
 88 92  1  0
 88 87  1  0
 89 88  2  0
 92 91  1  0
 94 92  1  0
 94 95  1  0
 94 93  1  0
M  ISO  4  15 100  23 100  54 101  55 101
M  END
>  <TORSDO>  (50) 
F 19

>  <SCORE>  (50) 
-14.018

>  <name>  (50) 
49

>  <ligand_id>  (50) 
49

>  <original_smiles>  (50) 
[H]C1=C(c2c([H])c([H])c(N([H])C(=O)N3C([H])([H])C([H])([H])C([H])([H])C([H])(n4nc(-c5c([H])c([H])c(Oc6c([H])c([H])c(F)c([H])c6F)c([H])c5[H])c(C(=O)N([H])[H])c4N([H])[H])C3([H])[H])c([H])c2[H])C([H])([H])C([H])([H])[N+]([H])(C([H])([H])C([H])([H])Oc2c([H])c([H])c3c(c2[H])C([H])([H])N(C(=O)C([H])(N([H])C(=O)C([H])(N([H])C([H])([H])[H])C([H])([H])[H])C(C([H])([H])[H])(C([H])([H])[H])C([H])([H])[H])C([H])(C(=O)N([H])C2([H])c4c([H])c([H])c([H])c([H])c4C([H])([H])C([H])([H])C2([H])[H])C3([H])[H])C([H])([H])C1([H])[H]

>  <smiles>  (50) 
[H]C1=C(c2c([H])c([H])c(N([H])C(=O)N3C([H])([H])C([H])([H])C([H])([H])C([H])(n4nc(-c5c([H])c([H])c(Oc6c([H])c([H])c(F)c([H])c6F)c([H])c5[H])c(C(=O)N([H])[H])c4N([H])[H])C3([H])[H])c([H])c2[H])C([H])([H])C([H])([H])[N+]([H])(C([H])([H])C([H])([H])Oc2c([H])c([H])c3c(c2[H])C([H])([H])N(C(=O)C([H])(N([H])C(=O)C([H])(N([H])C([H])([H])[H])C([H])([H])[H])C(C([H])([H])[H])(C([H])([H])[H])C([H])([H])[H])C([H])(C(=O)N([H])C2([H])c4c([H])c([H])c([H])c([H])c4C([H])([H])C([H])([H])C2([H])[H])C3([H])[H])C([H])([H])C1([H])[H]

$$$$
50:0:0
     RDKit          3D

 90 99  0  0  1  0  0  0  0  0999 V2000
  -30.9710  -20.8320   19.3860 C   0  0  0  0  0  3  0  0  0  0  0  0
  -31.0260  -19.3670   19.5910 C   0  0  0  0  0  3  0  0  0  0  0  0
  -28.8390  -19.4820   20.3850 C   0  0  0  0  0  3  0  0  0  0  0  0
  -28.7710  -20.9920   20.2090 C   0  0  0  0  0  0  0  0  0  0  0  0
  -29.8580  -21.7350   19.6730 C   0  0  0  0  0  0  0  0  0  0  0  0
  -29.9560  -18.5240   20.0950 C   0  0  0  0  0  0  0  0  0  0  0  0
  -27.5670  -21.9100   20.5600 C   0  0  0  0  0  0  0  0  0  0  0  0
  -29.8360  -23.4060   19.4600 C   0  0  0  0  0  2  0  0  0  0  0  0
  -27.5530  -23.5430   20.5060 C   0  0  0  0  0  2  0  0  0  0  0  0
  -28.4870  -24.4530   19.5610 C   0  0  0  0  0  3  0  0  0  0  0  0
  -26.5250  -21.3830   20.9720 O   0  0  0  0  0  0  0  0  0  0  0  0
  -30.7140  -15.6330   20.1280 C   0  0  0  0  0  0  0  0  0  0  0  0
  -30.7140  -13.1400   19.3380 C   0  0  0  0  0  2  0  0  0  0  0  0
  -29.7960  -12.8660   18.1170 C   0  0  0  0  0  2  0  0  0  0  0  0
  -28.3590  -12.5830   18.5800 C   0  0  0  0  0  2  0  0  0  0  0  0
  -27.8880  -13.5980   19.6500 C   0  0  0  0  0  3  0  0  0  0  0  0
  -28.9340  -13.8110   20.7690 C   0  0  0  0  0  2  0  0  0  0  0  0
  -30.1630  -14.3090   20.1270 N   0  0  0  0  0  0  0  0  0  0  0  0
  -31.9240  -15.6350   19.8680 O   0  0  0  0  0  0  0  0  0  0  0  0
  -29.9220  -16.8910   20.2720 N   0  0  0  0  0  0  0  0  0  0  0  0
  -29.0030  -16.6070   20.5820 H   0  0  0  0  0  0  0  0  0  0  0  0
  -25.5170  -14.1670   20.4040 C   0  0  0  0  0  0  0  0  0  0  0  0
  -24.4530  -13.3950   20.7720 C   0  0  0  0  0  0  0  0  0  0  0  0
  -24.9160  -12.0400   20.7490 C   0  0  0  0  0  0  0  0  0  0  0  0
  -26.5590  -13.2880   20.1630 N   0  0  0  0  0  0  0  0  0  0  0  0
  -26.2080  -12.0050   20.4360 N   0  0  0  0  0  0  0  0  0  0  0  0
  -24.1850  -10.7820   20.9430 C   0  0  0  0  0  0  0  0  0  0  0  0
  -24.5790   -9.8410   21.9180 C   0  0  0  0  0  3  0  0  0  0  0  0
  -23.8480   -8.6460   22.0980 C   0  0  0  0  0  3  0  0  0  0  0  0
  -22.7060   -8.3870   21.3050 C   0  0  0  0  0  0  0  0  0  0  0  0
  -22.3300   -9.3160   20.3180 C   0  0  0  0  0  3  0  0  0  0  0  0
  -23.0620  -10.5020   20.1360 C   0  0  0  0  0  3  0  0  0  0  0  0
  -21.9480   -7.2430   21.3940 O   0  0  0  0  0  0  0  0  0  0  0  0
  -21.8330   -6.5480   22.5700 C   0  0  0  0  0  0  0  0  0  0  0  0
  -21.2840   -7.1310   23.7330 C   0  0  0  0  0  3  0  0  0  0  0  0
  -21.1210   -6.3590   24.9010 C   0  0  0  0  0  3  0  0  0  0  0  0
  -21.4920   -5.0010   24.9030 C   0  0  0  0  0  0  0  0  0  0  0  0
  -22.0340   -4.4150   23.7470 C   0  0  0  0  0  3  0  0  0  0  0  0
  -22.1990   -5.1860   22.5820 C   0  0  0  0  0  0  0  0  0  0  0  0
  -22.7000   -4.6110   21.4630 F   0  0  0  0  0  0  0  0  0  0  0  0
  -21.3290   -4.2560   26.0230 F   0  0  0  0  0  0  0  0  0  0  0  0
  -23.0550  -13.8740   21.0390 C   0  0  0  0  0  0  0  0  0  0  0  0
  -22.3220  -13.1840   21.9040 N   0  0  0  0  0  0  0  0  0  0  0  0
  -22.6250  -14.9020   20.5150 O   0  0  0  0  0  0  0  0  0  0  0  0
  -22.6790  -12.3480   22.3410 H   0  0  0  0  0  0  0  0  0  0  0  0
  -21.3890  -13.4950   22.1320 H   0  0  0  0  0  0  0  0  0  0  0  0
  -25.6920  -15.5370   20.2260 N   0  0  0  0  0  0  0  0  0  0  0  0
  -24.9380  -16.2030   20.3430 H   0  0  0  0  0  0  0  0  0  0  0  0
  -26.5500  -15.9630   19.9020 H   0  0  0  0  0  0  0  0  0  0  0  0
  -28.5220  -26.1240   19.7390 O   0  0  0  0  0  0  0  0  0  0  0  0
  -24.7770  -31.7770   23.1410 C   0  0  0  0  0  0  0  0  0  0  0  0
  -27.4580  -27.1810   19.7630 C   0  0  0  0  0  0  0  0  0  0  0  0
  -23.6220  -30.4830   21.3970 C   0  0  0  0  0  3  0  0  0  0  0  0
  -25.1050  -29.0120   19.8650 C   0  0  0  0  0  0  0  0  0  0  0  0
  -26.1790  -30.7610   21.2670 C   0  0  0  0  0  2  0  0  0  0  0  0
  -26.2820  -29.4000   20.5130 C   0  0  0  0  0  0  0  0  0  0  0  0
  -27.4500  -28.5080   20.4360 C   0  0  0  0  0  3  0  0  0  0  0  0
  -26.2370  -26.9460   19.0890 C   0  0  0  0  0  3  0  0  0  0  0  0
  -25.1080  -27.8100   19.1360 C   0  0  0  0  0  3  0  0  0  0  0  0
  -23.8700  -29.9100   19.9710 C   0  0  0  0  0  2  0  0  0  0  0  0
  -24.8820  -31.0290   21.9910 N   0  0  0  0  0  0  0  0  0  0  0  0
  -23.6770  -31.9960   23.6780 O   0  0  0  0  0  0  0  0  0  0  0  0
  -22.9440  -29.4060   22.2880 C   0  0  0  0  0  0  0  0  0  0  0  0
  -21.6190  -29.2110   22.1460 N   0  0  0  0  0  0  0  0  0  0  0  0
  -23.6220  -28.7480   23.0820 O   0  0  0  0  0  0  0  0  0  0  0  0
  -21.1210  -29.7990   21.4940 H   0  0  0  0  0  0  0  0  0  0  0  0
  -18.2680  -27.8860   22.5820 C   0  0  0  0  0  0  0  0  0  0  0  0
  -20.8260  -28.1960   22.8450 C   0  0  0  0  0  3  0  0  0  0  0  0
  -20.9580  -26.8170   22.1600 C   0  0  0  0  0  2  0  0  0  0  0  0
  -19.8530  -26.5490   21.1310 C   0  0  0  0  0  2  0  0  0  0  0  0
  -18.4740  -26.6060   21.7900 C   0  0  0  0  0  2  0  0  0  0  0  0
  -19.3730  -28.6410   23.0640 C   0  0  0  0  0  0  0  0  0  0  0  0
  -19.1210  -29.8400   23.7660 C   0  0  0  0  0  3  0  0  0  0  0  0
  -17.8050  -30.2860   23.9860 C   0  0  0  0  0  3  0  0  0  0  0  0
  -16.7190  -29.5340   23.5090 C   0  0  0  0  0  3  0  0  0  0  0  0
  -16.9500  -28.3340   22.8130 C   0  0  0  0  0  3  0  0  0  0  0  0
  -26.0280  -32.4020   23.8250 C   0  0  0  0  0  3  0  0  0  0  0  0
  -25.6860  -33.7750   24.2370 N   0  0  0  0  0  0  0  0  0  0  0  0
  -25.9740  -34.8810   23.5370 C   0  0  0  0  0  0  0  0  0  0  0  0
  -26.6170  -34.8530   22.4850 O   0  0  0  0  0  0  0  0  0  0  0  0
  -25.1160  -33.8700   25.0640 H   0  0  0  0  0  0  0  0  0  0  0  0
  -24.1830  -36.6410   23.3690 C   0  0  0  0  0  1  0  0  0  0  0  0
  -25.4760  -36.2320   24.0920 C   0  0  0  0  0  3  0  0  0  0  0  0
  -27.6180  -37.1530   24.8650 C   0  0  0  0  0  1  0  0  0  0  0  0
  -26.4710  -37.3210   23.9770 N   0  0  0  0  0  0  0  0  0  0  0  0
  -26.0450  -38.2210   24.1770 H   0  0  0  0  0  0  0  0  0  0  0  0
  -26.5300  -31.5720   25.0700 C   0  0  1  0  0  0  0  0  0  0  0  0
  -25.4230  -31.2730   26.1060 C   0  0  0  0  0  1  0  0  0  0  0  0
  -27.1360  -30.2260   24.6220 C   0  0  0  0  0  1  0  0  0  0  0  0
  -27.6680  -32.3380   25.7870 C   0  0  0  0  0  1  0  0  0  0  0  0
  1  2  2  0
  1  5  1  0
  2  6  1  0
  4  3  1  0
  4  7  1  0
  5  4  2  0
  6 20  1  0
  6  3  2  0
  7 11  2  0
  8 10  1  0
  8  5  1  0
  9  7  1  0
 10 50  1  0
 10  9  1  0
 12 20  1  0
 13 18  1  0
 14 15  1  0
 14 13  1  0
 16 15  1  0
 16 25  1  0
 16 17  1  0
 18 12  1  0
 18 17  1  0
 19 12  2  0
 20 21  1  0
 22 23  2  0
 23 42  1  0
 24 23  1  0
 24 27  1  0
 25 22  1  0
 25 26  1  0
 26 24  2  0
 27 28  1  0
 28 29  2  0
 30 33  1  0
 30 29  1  0
 31 30  2  0
 32 31  1  0
 32 27  2  0
 33 34  1  0
 34 39  2  0
 34 35  1  0
 35 36  2  0
 36 37  1  0
 37 41  1  0
 38 37  2  0
 39 38  1  0
 40 39  1  0
 42 43  1  0
 43 46  1  0
 43 45  1  0
 44 42  2  0
 47 48  1  0
 47 22  1  0
 49 47  1  0
 50 52  1  0
 51 62  2  0
 52 57  1  0
 53 61  1  0
 53 63  1  0
 54 60  1  0
 54 56  1  0
 55 61  1  0
 56 55  1  0
 57 56  2  0
 58 59  1  0
 58 52  2  0
 59 54  2  0
 60 53  1  0
 61 51  1  0
 63 65  2  0
 64 63  1  0
 66 64  1  0
 67 76  2  0
 67 72  1  0
 68 64  1  0
 68 72  1  0
 69 68  1  0
 70 71  1  0
 70 69  1  0
 71 67  1  0
 72 73  2  0
 73 74  1  0
 75 74  2  0
 76 75  1  0
 77 51  1  0
 77 78  1  0
 77 87  1  0
 78 81  1  0
 79 83  1  0
 79 78  1  0
 80 79  2  0
 83 82  1  0
 85 83  1  0
 85 86  1  0
 85 84  1  0
 87 90  1  1
 87 88  1  0
 89 87  1  0
M  ISO  4  10 101  12 100  20 100  50 101
M  END
>  <TORSDO>  (51) 
F 16

>  <SCORE>  (51) 
-14.263

>  <name>  (51) 
50

>  <ligand_id>  (51) 
50

>  <original_smiles>  (51) 
[H]c1c([H])c([H])c2c(c1[H])C([H])([H])C([H])([H])C([H])([H])C2([H])N([H])C(=O)C1([H])N(C(=O)C([H])(N([H])C(=O)C([H])(N([H])C([H])([H])[H])C([H])([H])[H])C(C([H])([H])[H])(C([H])([H])[H])C([H])([H])[H])C([H])([H])c2c([H])c(OC3([H])C([H])([H])C(=O)c4c([H])c(N([H])C(=O)N5C([H])([H])C([H])([H])C([H])([H])C([H])(n6nc(-c7c([H])c([H])c(Oc8c([H])c([H])c(F)c([H])c8F)c([H])c7[H])c(C(=O)N([H])[H])c6N([H])[H])C5([H])[H])c([H])c([H])c4C3([H])[H])c([H])c([H])c2C1([H])[H]

>  <smiles>  (51) 
[H]c1c([H])c([H])c2c(c1[H])C([H])([H])C([H])([H])C([H])([H])C2([H])N([H])C(=O)C1([H])N(C(=O)C([H])(N([H])C(=O)C([H])(N([H])C([H])([H])[H])C([H])([H])[H])C(C([H])([H])[H])(C([H])([H])[H])C([H])([H])[H])C([H])([H])c2c([H])c(OC3([H])C([H])([H])C(=O)c4c([H])c(N([H])C(=O)N5C([H])([H])C([H])([H])C([H])([H])C([H])(n6nc(-c7c([H])c([H])c(Oc8c([H])c([H])c(F)c([H])c8F)c([H])c7[H])c(C(=O)N([H])[H])c6N([H])[H])C5([H])[H])c([H])c([H])c4C3([H])[H])c([H])c([H])c2C1([H])[H]

$$$$
51:0:0
     RDKit          3D

 90 98  0  0  1  0  0  0  0  0999 V2000
  -28.4280  -19.5220   20.4210 C   0  0  0  0  0  2  0  0  0  0  0  0
  -28.2550  -21.0730   20.8200 C   0  0  0  0  0  2  0  0  0  0  0  0
  -30.6880  -20.0630   19.6650 C   0  0  0  0  0  2  0  0  0  0  0  0
  -29.8930  -18.9390   20.4500 C   0  0  0  0  0  3  0  0  0  0  0  0
  -29.1490  -22.1190   20.0440 C   0  0  0  0  0  3  0  0  0  0  0  0
  -30.5180  -21.4970   20.1280 N   0  0  0  0  0  4  0  0  0  0  0  0
  -31.1450  -22.0560   19.5710 H   0  0  0  0  0  0  0  0  0  0  0  0
  -30.8460  -21.5580   21.0790 H   0  0  0  0  0  0  0  0  0  0  0  0
  -30.2360  -17.4380   19.8370 C   0  0  0  0  0  2  0  0  0  0  0  0
  -30.6550  -14.8680   20.2430 C   0  0  0  0  0  0  0  0  0  0  0  0
  -30.4380  -12.5790   19.2480 C   0  0  0  0  0  2  0  0  0  0  0  0
  -29.4910  -12.6430   18.0300 C   0  0  0  0  0  2  0  0  0  0  0  0
  -28.0280  -12.4580   18.4760 C   0  0  0  0  0  2  0  0  0  0  0  0
  -27.6620  -13.3420   19.6960 C   0  0  0  0  0  3  0  0  0  0  0  0
  -28.7340  -13.2800   20.8070 C   0  0  0  0  0  2  0  0  0  0  0  0
  -30.0180  -13.6420   20.1990 N   0  0  0  0  0  0  0  0  0  0  0  0
  -31.8330  -14.9350   19.8860 O   0  0  0  0  0  0  0  0  0  0  0  0
  -29.9180  -16.0450   20.4330 N   0  0  0  0  0  0  0  0  0  0  0  0
  -28.9700  -15.9070   20.7480 H   0  0  0  0  0  0  0  0  0  0  0  0
  -25.2790  -13.9150   20.4500 C   0  0  0  0  0  0  0  0  0  0  0  0
  -24.2210  -13.1340   20.8280 C   0  0  0  0  0  0  0  0  0  0  0  0
  -24.6920  -11.7860   20.7930 C   0  0  0  0  0  0  0  0  0  0  0  0
  -26.3250  -13.0420   20.2030 N   0  0  0  0  0  0  0  0  0  0  0  0
  -25.9800  -11.7570   20.4750 N   0  0  0  0  0  0  0  0  0  0  0  0
  -23.9730  -10.5190   20.9880 C   0  0  0  0  0  0  0  0  0  0  0  0
  -24.4080   -9.5580   21.9280 C   0  0  0  0  0  3  0  0  0  0  0  0
  -23.6890   -8.3590   22.1130 C   0  0  0  0  0  3  0  0  0  0  0  0
  -22.5190   -8.1100   21.3570 C   0  0  0  0  0  0  0  0  0  0  0  0
  -22.1010   -9.0590   20.4070 C   0  0  0  0  0  3  0  0  0  0  0  0
  -22.8220  -10.2490   20.2210 C   0  0  0  0  0  3  0  0  0  0  0  0
  -21.7720   -6.9600   21.4490 O   0  0  0  0  0  0  0  0  0  0  0  0
  -21.7120   -6.2310   22.6100 C   0  0  0  0  0  0  0  0  0  0  0  0
  -21.2500   -6.7930   23.8200 C   0  0  0  0  0  3  0  0  0  0  0  0
  -21.1410   -5.9900   24.9730 C   0  0  0  0  0  3  0  0  0  0  0  0
  -21.4820   -4.6250   24.9160 C   0  0  0  0  0  0  0  0  0  0  0  0
  -21.9360   -4.0620   23.7100 C   0  0  0  0  0  3  0  0  0  0  0  0
  -22.0470   -4.8630   22.5590 C   0  0  0  0  0  0  0  0  0  0  0  0
  -22.4650   -4.3120   21.3940 F   0  0  0  0  0  0  0  0  0  0  0  0
  -21.3700   -3.8500   26.0190 F   0  0  0  0  0  0  0  0  0  0  0  0
  -22.8240  -13.6040   21.1110 C   0  0  0  0  0  0  0  0  0  0  0  0
  -22.1060  -12.9010   21.9800 N   0  0  0  0  0  0  0  0  0  0  0  0
  -22.3780  -14.6300   20.5990 O   0  0  0  0  0  0  0  0  0  0  0  0
  -22.4820  -12.0710   22.4150 H   0  0  0  0  0  0  0  0  0  0  0  0
  -21.1690  -13.1970   22.2130 H   0  0  0  0  0  0  0  0  0  0  0  0
  -25.4360  -15.2870   20.2720 N   0  0  0  0  0  0  0  0  0  0  0  0
  -24.6700  -15.9390   20.3930 H   0  0  0  0  0  0  0  0  0  0  0  0
  -26.2760  -15.7270   19.9190 H   0  0  0  0  0  0  0  0  0  0  0  0
  -29.1580  -23.7260   20.4650 C   0  0  0  0  0  3  0  0  0  0  0  0
  -28.0560  -24.8650   20.0500 C   0  0  0  0  0  3  0  0  0  0  0  0
  -28.2840  -26.3580   20.2690 O   0  0  0  0  0  0  0  0  0  0  0  0
  -24.6020  -31.9110   23.2460 C   0  0  0  0  0  0  0  0  0  0  0  0
  -27.1990  -27.2780   20.1990 C   0  0  0  0  0  0  0  0  0  0  0  0
  -23.4030  -30.5200   21.6000 C   0  0  0  0  0  3  0  0  0  0  0  0
  -24.8530  -28.9610   20.1710 C   0  0  0  0  0  0  0  0  0  0  0  0
  -25.9510  -30.8100   21.4320 C   0  0  0  0  0  2  0  0  0  0  0  0
  -26.0270  -29.4260   20.7770 C   0  0  0  0  0  0  0  0  0  0  0  0
  -27.2030  -28.6010   20.7740 C   0  0  0  0  0  3  0  0  0  0  0  0
  -25.9990  -26.8930   19.5590 C   0  0  0  0  0  3  0  0  0  0  0  0
  -24.8470  -27.7040   19.5490 C   0  0  0  0  0  3  0  0  0  0  0  0
  -23.6230  -29.8470   20.2190 C   0  0  0  0  0  2  0  0  0  0  0  0
  -24.6720  -31.0990   22.1480 N   0  0  0  0  0  0  0  0  0  0  0  0
  -23.5170  -32.1920   23.7740 O   0  0  0  0  0  0  0  0  0  0  0  0
  -22.7280  -29.5070   22.5570 C   0  0  0  0  0  0  0  0  0  0  0  0
  -21.4010  -29.3390   22.4310 N   0  0  0  0  0  0  0  0  0  0  0  0
  -23.4000  -28.8740   23.3760 O   0  0  0  0  0  0  0  0  0  0  0  0
  -20.9170  -29.9000   21.7430 H   0  0  0  0  0  0  0  0  0  0  0  0
  -18.0140  -28.1650   22.9340 C   0  0  0  0  0  0  0  0  0  0  0  0
  -20.5750  -28.4020   23.1970 C   0  0  0  0  0  3  0  0  0  0  0  0
  -20.6640  -26.9740   22.6110 C   0  0  0  0  0  2  0  0  0  0  0  0
  -19.5560  -26.6690   21.5980 C   0  0  0  0  0  2  0  0  0  0  0  0
  -18.1770  -26.8210   22.2460 C   0  0  0  0  0  2  0  0  0  0  0  0
  -19.1400  -28.9140   23.3680 C   0  0  0  0  0  0  0  0  0  0  0  0
  -18.9330  -30.1740   23.9720 C   0  0  0  0  0  3  0  0  0  0  0  0
  -17.6330  -30.6830   24.1490 C   0  0  0  0  0  3  0  0  0  0  0  0
  -16.5210  -29.9300   23.7310 C   0  0  0  0  0  3  0  0  0  0  0  0
  -16.7130  -28.6730   23.1300 C   0  0  0  0  0  3  0  0  0  0  0  0
  -25.8820  -32.5400   23.8750 C   0  0  0  0  0  3  0  0  0  0  0  0
  -26.3830  -31.7750   25.1610 C   0  0  1  0  0  0  0  0  0  0  0  0
  -25.2790  -31.5500   26.2210 C   0  0  0  0  0  1  0  0  0  0  0  0
  -26.9640  -30.3920   24.7840 C   0  0  0  0  0  1  0  0  0  0  0  0
  -27.5310  -32.5670   25.8290 C   0  0  0  0  0  1  0  0  0  0  0  0
  -25.5750  -33.9430   24.1990 N   0  0  0  0  0  0  0  0  0  0  0  0
  -25.9080  -34.9920   23.4350 C   0  0  0  0  0  0  0  0  0  0  0  0
  -26.5750  -34.8820   22.4030 O   0  0  0  0  0  0  0  0  0  0  0  0
  -24.9830  -34.1010   25.0000 H   0  0  0  0  0  0  0  0  0  0  0  0
  -24.1900  -36.7960   23.0780 C   0  0  0  0  0  1  0  0  0  0  0  0
  -25.4290  -36.3850   23.8910 C   0  0  0  0  0  3  0  0  0  0  0  0
  -27.5640  -37.2650   24.7250 C   0  0  0  0  0  1  0  0  0  0  0  0
  -26.4670  -37.4320   23.7750 N   0  0  0  0  0  0  0  0  0  0  0  0
  -26.0650  -38.3550   23.9150 H   0  0  0  0  0  0  0  0  0  0  0  0
  1  4  1  0
  1  2  1  0
  3  6  1  0
  3  4  1  0
  4  9  1  0
  5  6  1  0
  5 48  1  0
  5  2  1  0
  6  8  1  0
  7  6  1  0
  9 18  1  0
 10 18  1  0
 11 16  1  0
 12 13  1  0
 12 11  1  0
 14 13  1  0
 14 23  1  0
 14 15  1  0
 16 10  1  0
 16 15  1  0
 17 10  2  0
 18 19  1  0
 20 21  2  0
 21 40  1  0
 22 21  1  0
 22 25  1  0
 23 20  1  0
 23 24  1  0
 24 22  2  0
 25 26  1  0
 26 27  2  0
 28 31  1  0
 28 27  1  0
 29 28  2  0
 30 29  1  0
 30 25  2  0
 31 32  1  0
 32 33  1  0
 33 34  2  0
 35 34  1  0
 35 39  1  0
 36 35  2  0
 37 32  2  0
 37 36  1  0
 38 37  1  0
 40 41  1  0
 41 44  1  0
 41 43  1  0
 42 40  2  0
 45 46  1  0
 45 20  1  0
 47 45  1  0
 49 50  1  0
 49 48  2  0
 51 62  2  0
 52 50  1  0
 52 57  1  0
 53 61  1  0
 53 63  1  0
 54 60  1  0
 54 56  1  0
 55 61  1  0
 56 55  1  0
 57 56  2  0
 58 52  2  0
 59 58  1  0
 59 54  2  0
 60 53  1  0
 61 51  1  0
 63 65  2  0
 64 63  1  0
 66 64  1  0
 67 76  2  0
 67 72  1  0
 68 64  1  0
 68 72  1  0
 69 68  1  0
 70 71  1  0
 70 69  1  0
 71 67  1  0
 72 73  2  0
 73 74  1  0
 75 74  2  0
 76 75  1  0
 77 51  1  0
 77 82  1  0
 77 78  1  0
 78 81  1  1
 78 79  1  0
 80 78  1  0
 82 85  1  0
 83 87  1  0
 83 82  1  0
 84 83  2  0
 87 86  1  0
 89 87  1  0
 89 90  1  0
 89 88  1  0
M  ISO  4  10 100  18 100  49 101  50 101
M  END
>  <TORSDO>  (52) 
F 19

>  <SCORE>  (52) 
-14.208

>  <name>  (52) 
51

>  <ligand_id>  (52) 
51

>  <original_smiles>  (52) 
[H]c1c([H])c([H])c2c(c1[H])C([H])([H])C([H])([H])C([H])([H])C2([H])N([H])C(=O)C1([H])N(C(=O)C([H])(N([H])C(=O)C([H])(N([H])C([H])([H])[H])C([H])([H])[H])C(C([H])([H])[H])(C([H])([H])[H])C([H])([H])[H])C([H])([H])c2c([H])c(OC([H])([H])C([H])([H])C3([H])C([H])([H])C([H])([H])C([H])(C([H])([H])N([H])C(=O)N4C([H])([H])C([H])([H])C([H])([H])C([H])(n5nc(-c6c([H])c([H])c(Oc7c([H])c([H])c(F)c([H])c7F)c([H])c6[H])c(C(=O)N([H])[H])c5N([H])[H])C4([H])[H])C([H])([H])[N+]3([H])[H])c([H])c([H])c2C1([H])[H]

>  <smiles>  (52) 
[H]c1c([H])c([H])c2c(c1[H])C([H])([H])C([H])([H])C([H])([H])C2([H])N([H])C(=O)C1([H])N(C(=O)C([H])(N([H])C(=O)C([H])(N([H])C([H])([H])[H])C([H])([H])[H])C(C([H])([H])[H])(C([H])([H])[H])C([H])([H])[H])C([H])([H])c2c([H])c(OC([H])([H])C([H])([H])C3([H])C([H])([H])C([H])([H])C([H])(C([H])([H])N([H])C(=O)N4C([H])([H])C([H])([H])C([H])([H])C([H])(n5nc(-c6c([H])c([H])c(Oc7c([H])c([H])c(F)c([H])c7F)c([H])c6[H])c(C(=O)N([H])[H])c5N([H])[H])C4([H])[H])C([H])([H])[N+]3([H])[H])c([H])c([H])c2C1([H])[H]

$$$$
52:0:0
     RDKit          3D

 93104  0  0  1  0  0  0  0  0999 V2000
  -30.4860  -19.7880   19.4600 C   0  0  0  0  0  3  0  0  0  0  0  0
  -30.7670  -18.3470   19.4730 C   0  0  0  0  0  3  0  0  0  0  0  0
  -28.2040  -19.3260   19.7830 C   0  0  0  0  0  3  0  0  0  0  0  0
  -29.1700  -20.3590   19.5970 C   0  0  0  0  0  0  0  0  0  0  0  0
  -28.4630  -17.9070   19.8330 C   0  0  0  0  0  0  0  0  0  0  0  0
  -29.7640  -17.3240   19.6490 C   0  0  0  0  0  0  0  0  0  0  0  0
  -30.6360  -14.7670   19.0190 C   0  0  0  0  0  0  0  0  0  0  0  0
  -30.3620  -12.4650   17.9950 C   0  0  0  0  0  2  0  0  0  0  0  0
  -29.1510  -12.4710   17.0280 C   0  0  0  0  0  2  0  0  0  0  0  0
  -27.8350  -12.2080   17.7860 C   0  0  0  0  0  2  0  0  0  0  0  0
  -27.7180  -13.0570   19.0790 C   0  0  0  0  0  3  0  0  0  0  0  0
  -29.0170  -13.0050   19.9150 C   0  0  0  0  0  2  0  0  0  0  0  0
  -30.1120  -13.4780   19.0540 N   0  0  0  0  0  0  0  0  0  0  0  0
  -31.6780  -14.9600   18.3820 O   0  0  0  0  0  0  0  0  0  0  0  0
  -29.8810  -15.8000   19.6090 N   0  0  0  0  0  0  0  0  0  0  0  0
  -29.1500  -15.3760   20.1570 H   0  0  0  0  0  0  0  0  0  0  0  0
  -25.6800  -13.5330   20.5580 C   0  0  0  0  0  0  0  0  0  0  0  0
  -24.6980  -12.7290   21.0650 C   0  0  0  0  0  0  0  0  0  0  0  0
  -25.0090  -11.4060   20.6250 C   0  0  0  0  0  0  0  0  0  0  0  0
  -26.5390  -12.6990   19.8620 N   0  0  0  0  0  0  0  0  0  0  0  0
  -26.1570  -11.3990   19.9550 N   0  0  0  0  0  0  0  0  0  0  0  0
  -24.2460  -10.1580   20.7530 C   0  0  0  0  0  0  0  0  0  0  0  0
  -24.7380   -9.0670   21.5020 C   0  0  0  0  0  3  0  0  0  0  0  0
  -23.9770   -7.8850   21.6280 C   0  0  0  0  0  3  0  0  0  0  0  0
  -22.7100   -7.7860   21.0050 C   0  0  0  0  0  0  0  0  0  0  0  0
  -22.2350   -8.8670   20.2420 C   0  0  0  0  0  3  0  0  0  0  0  0
  -22.9960  -10.0420   20.1130 C   0  0  0  0  0  3  0  0  0  0  0  0
  -21.9110   -6.6680   21.0520 O   0  0  0  0  0  0  0  0  0  0  0  0
  -21.7950   -5.9160   22.1940 C   0  0  0  0  0  0  0  0  0  0  0  0
  -21.3660   -6.4790   23.4160 C   0  0  0  0  0  3  0  0  0  0  0  0
  -21.1920   -5.6560   24.5480 C   0  0  0  0  0  3  0  0  0  0  0  0
  -21.4360   -4.2720   24.4570 C   0  0  0  0  0  0  0  0  0  0  0  0
  -21.8570   -3.7100   23.2390 C   0  0  0  0  0  3  0  0  0  0  0  0
  -22.0330   -4.5300   22.1100 C   0  0  0  0  0  0  0  0  0  0  0  0
  -22.4190   -3.9800   20.9350 F   0  0  0  0  0  0  0  0  0  0  0  0
  -21.2600   -3.4810   25.5400 F   0  0  0  0  0  0  0  0  0  0  0  0
  -23.4810  -13.1800   21.8190 C   0  0  0  0  0  0  0  0  0  0  0  0
  -22.9780  -12.3460   22.7220 N   0  0  0  0  0  0  0  0  0  0  0  0
  -23.0000  -14.2990   21.6470 O   0  0  0  0  0  0  0  0  0  0  0  0
  -23.3870  -11.4370   22.8810 H   0  0  0  0  0  0  0  0  0  0  0  0
  -22.1700  -12.6220   23.2640 H   0  0  0  0  0  0  0  0  0  0  0  0
  -25.8940  -14.9030   20.6060 N   0  0  0  0  0  4  0  0  0  0  0  0
  -25.2290  -15.5260   21.0500 H   0  0  0  0  0  0  0  0  0  0  0  0
  -26.6050  -15.3910   20.0800 H   0  0  0  0  0  0  0  0  0  0  0  0
  -27.1440  -22.1400   19.3610 C   0  0  0  0  0  2  0  0  0  0  0  0
  -26.9170  -23.5840   18.7900 C   0  0  0  0  0  2  0  0  0  0  0  0
  -29.2280  -23.3220   19.0690 C   0  0  0  0  0  2  0  0  0  0  0  0
  -28.6520  -21.9240   19.6710 C   0  0  0  0  0  3  0  0  0  0  0  0
  -28.0860  -24.4870   19.2490 C   0  0  0  0  0  3  0  0  0  0  0  0
  -28.1760  -25.9710   18.7940 O   0  0  0  0  0  0  0  0  0  0  0  0
  -24.9910  -31.4020   22.6600 C   0  0  0  0  0  0  0  0  0  0  0  0
  -27.1410  -26.9510   18.9890 C   0  0  0  0  0  0  0  0  0  0  0  0
  -23.6190  -30.2380   20.9740 C   0  0  0  0  0  3  0  0  0  0  0  0
  -24.8950  -28.7690   19.3010 C   0  0  0  0  0  0  0  0  0  0  0  0
  -26.1680  -30.4150   20.6630 C   0  0  0  0  0  2  0  0  0  0  0  0
  -26.1320  -29.1020   19.8670 C   0  0  0  0  0  0  0  0  0  0  0  0
  -27.2580  -28.2160   19.6900 C   0  0  0  0  0  3  0  0  0  0  0  0
  -25.8830  -26.7240   18.3940 C   0  0  0  0  0  3  0  0  0  0  0  0
  -24.7800  -27.5890   18.5530 C   0  0  0  0  0  3  0  0  0  0  0  0
  -23.7160  -29.7040   19.5230 C   0  0  0  0  0  2  0  0  0  0  0  0
  -24.9500  -30.6990   21.4880 N   0  0  0  0  0  0  0  0  0  0  0  0
  -23.9570  -31.6740   23.2890 O   0  0  0  0  0  0  0  0  0  0  0  0
  -22.9580  -29.1610   21.8700 C   0  0  0  0  0  0  0  0  0  0  0  0
  -21.6160  -29.0860   21.8480 N   0  0  0  0  0  0  0  0  0  0  0  0
  -23.6540  -28.4010   22.5490 O   0  0  0  0  0  0  0  0  0  0  0  0
  -21.1150  -29.7500   21.2750 H   0  0  0  0  0  0  0  0  0  0  0  0
  -18.2120  -28.0990   22.5990 C   0  0  0  0  0  0  0  0  0  0  0  0
  -20.7990  -28.1140   22.5800 C   0  0  0  0  0  3  0  0  0  0  0  0
  -20.6970  -26.7780   21.8070 C   0  0  0  0  0  2  0  0  0  0  0  0
  -19.4630  -26.6990   20.9010 C   0  0  0  0  0  2  0  0  0  0  0  0
  -18.1810  -26.8560   21.7240 C   0  0  0  0  0  2  0  0  0  0  0  0
  -19.4410  -28.6980   22.9850 C   0  0  0  0  0  0  0  0  0  0  0  0
  -19.4150  -29.8710   23.7710 C   0  0  0  0  0  3  0  0  0  0  0  0
  -18.1930  -30.4430   24.1700 C   0  0  0  0  0  3  0  0  0  0  0  0
  -16.9800  -29.8400   23.7960 C   0  0  0  0  0  3  0  0  0  0  0  0
  -16.9910  -28.6690   23.0180 C   0  0  0  0  0  3  0  0  0  0  0  0
  -26.3360  -31.9130   23.2560 C   0  0  0  0  0  3  0  0  0  0  0  0
  -26.0730  -33.2030   23.9120 N   0  0  0  0  0  0  0  0  0  0  0  0
  -26.2880  -34.4030   23.3560 C   0  0  0  0  0  0  0  0  0  0  0  0
  -26.7980  -34.5400   22.2410 O   0  0  0  0  0  0  0  0  0  0  0  0
  -25.6010  -33.1660   24.8040 H   0  0  0  0  0  0  0  0  0  0  0  0
  -24.5020  -36.1480   23.6760 C   0  0  0  0  0  1  0  0  0  0  0  0
  -25.8720  -35.6480   24.1640 C   0  0  0  0  0  3  0  0  0  0  0  0
  -28.1050  -36.4540   24.7900 C   0  0  0  0  0  1  0  0  0  0  0  0
  -26.8550  -36.7520   24.0970 N   0  0  0  0  0  0  0  0  0  0  0  0
  -26.4680  -37.6040   24.4950 H   0  0  0  0  0  0  0  0  0  0  0  0
  -26.9850  -30.9000   24.2790 C   0  0  1  0  0  0  0  0  0  0  0  0
  -26.0100  -30.4270   25.3820 C   0  0  0  0  0  1  0  0  0  0  0  0
  -27.5190  -29.6430   23.5520 C   0  0  0  0  0  1  0  0  0  0  0  0
  -28.2040  -31.5580   24.9650 C   0  0  0  0  0  1  0  0  0  0  0  0
  -26.4520  -17.1600   21.3530 C   0  0  0  0  0  2  0  0  0  0  0  0
  -27.2990  -15.9300   21.1280 C   0  0  0  0  0  3  0  0  0  0  0  0
  -27.2740  -17.0290   20.0890 C   0  0  0  0  0  3  0  0  0  0  0  0
  1  2  2  0
  1  4  1  0
  2  6  1  0
  3  5  1  0
  4  3  2  0
  5 93  1  0
  6  5  2  0
  7 13  1  0
  7 15  1  0
  8 13  1  0
  9 10  1  0
  9  8  1  0
 11 10  1  0
 11 20  1  0
 11 12  1  0
 13 12  1  0
 14  7  2  0
 15  6  1  0
 15 16  1  0
 17 42  1  0
 17 18  2  0
 18 37  1  0
 19 22  1  0
 19 18  1  0
 20 21  1  0
 20 17  1  0
 21 19  2  0
 22 23  1  0
 23 24  2  0
 25 28  1  0
 25 24  1  0
 26 25  2  0
 27 26  1  0
 27 22  2  0
 28 29  1  0
 29 30  1  0
 30 31  2  0
 32 31  1  0
 32 36  1  0
 33 32  2  0
 34 29  2  0
 34 33  1  0
 35 34  1  0
 37 38  1  0
 38 40  1  0
 38 41  1  0
 39 37  2  0
 42 43  1  0
 42 92  1  0
 44 42  1  0
 45 48  1  0
 46 49  1  0
 46 45  1  0
 47 49  1  0
 47 48  1  0
 48  4  1  0
 49 50  1  0
 50 52  1  0
 51 62  2  0
 52 57  1  0
 53 61  1  0
 53 63  1  0
 54 60  1  0
 54 56  1  0
 55 61  1  0
 56 55  1  0
 57 56  2  0
 58 59  1  0
 58 52  2  0
 59 54  2  0
 60 53  1  0
 61 51  1  0
 63 65  2  0
 64 63  1  0
 66 64  1  0
 67 72  2  0
 67 76  1  0
 68 64  1  0
 68 72  1  0
 69 68  1  0
 70 71  1  0
 70 69  1  0
 71 67  1  0
 72 73  1  0
 73 74  2  0
 75 74  1  0
 76 75  2  0
 77 51  1  0
 77 78  1  0
 77 87  1  0
 78 81  1  0
 79 78  1  0
 79 83  1  0
 80 79  2  0
 83 82  1  0
 85 83  1  0
 85 86  1  0
 85 84  1  0
 87 90  1  1
 87 88  1  0
 89 87  1  0
 92 91  1  0
 93 92  1  0
 93 91  1  0
M  ISO  4   7 100  15 100  49 101  50 101
M  END
>  <TORSDO>  (53) 
F 18

>  <SCORE>  (53) 
-6.699

>  <name>  (53) 
52

>  <ligand_id>  (53) 
52

>  <original_smiles>  (53) 
[H]c1c([H])c([H])c2c(c1[H])C([H])([H])C([H])([H])C([H])([H])C2([H])N([H])C(=O)C1([H])N(C(=O)C([H])(N([H])C(=O)C([H])(N([H])C([H])([H])[H])C([H])([H])[H])C(C([H])([H])[H])(C([H])([H])[H])C([H])([H])[H])C([H])([H])c2c([H])c(OC3([H])C([H])([H])C([H])([H])C([H])(c4c([H])c([H])c(N([H])C(=O)N5C([H])([H])C([H])([H])C([H])([H])C([H])(n6nc(-c7c([H])c([H])c(Oc8c([H])c([H])c(F)c([H])c8F)c([H])c7[H])c(C(=O)N([H])[H])c6N([H])[H])C5([H])[H])c(C5([H])C([H])([H])C5([H])[H])c4[H])C3([H])[H])c([H])c([H])c2C1([H])[H]

>  <smiles>  (53) 
[H]c1c([H])c([H])c2c(c1[H])C([H])([H])C([H])([H])C([H])([H])C2([H])N([H])C(=O)C1([H])N(C(=O)C([H])(N([H])C(=O)C([H])(N([H])C([H])([H])[H])C([H])([H])[H])C(C([H])([H])[H])(C([H])([H])[H])C([H])([H])[H])C([H])([H])c2c([H])c(OC3([H])C([H])([H])C([H])([H])C([H])(c4c([H])c([H])c(N([H])C(=O)N5C([H])([H])C([H])([H])C([H])([H])C([H])(n6nc(-c7c([H])c([H])c(Oc8c([H])c([H])c(F)c([H])c8F)c([H])c7[H])c(C(=O)N([H])[H])c6N([H])[H])C5([H])[H])c(C5([H])C([H])([H])C5([H])[H])c4[H])C3([H])[H])c([H])c([H])c2C1([H])[H]

$$$$
53:0:0
     RDKit          3D

 92100  0  0  1  0  0  0  0  0999 V2000
  -28.2150  -20.5730   19.4780 C   0  0  0  0  0  3  0  0  0  0  0  0
  -27.9810  -22.0620   19.5020 C   0  0  0  0  0  3  0  0  0  0  0  0
  -28.2980  -22.6690   18.1630 C   0  0  0  0  0  2  0  0  0  0  0  0
  -29.8910  -20.7160   21.0590 C   0  0  0  0  0  2  0  0  0  0  0  0
  -30.5270  -22.9450   19.5280 C   0  0  0  0  0  2  0  0  0  0  0  0
  -29.0760  -19.3760   20.3650 C   0  0  0  0  0  0  0  0  0  0  0  0
  -28.2490  -23.4090   20.5510 C   0  0  0  0  0  2  0  0  0  0  0  0
  -29.6750  -22.4840   20.7710 C   0  0  0  0  0  3  0  0  0  0  0  0
  -29.8620  -22.6570   18.1270 C   0  0  0  0  0  3  0  0  0  0  0  0
  -30.1340  -16.0640   20.1420 C   0  0  0  0  0  0  0  0  0  0  0  0
  -30.3420  -13.4560   19.3000 C   0  0  0  0  0  2  0  0  0  0  0  0
  -29.4610  -12.8920   18.1380 C   0  0  0  0  0  2  0  0  0  0  0  0
  -28.0820  -12.4460   18.6400 C   0  0  0  0  0  2  0  0  0  0  0  0
  -27.5370  -13.4520   19.6750 C   0  0  0  0  0  3  0  0  0  0  0  0
  -28.5700  -13.8980   20.7440 C   0  0  0  0  0  2  0  0  0  0  0  0
  -29.6600  -14.6420   20.0390 N   0  0  0  0  0  0  0  0  0  0  0  0
  -31.3760  -15.9640   20.0110 O   0  0  0  0  0  0  0  0  0  0  0  0
  -29.3380  -17.4910   20.2090 N   0  0  0  0  0  0  0  0  0  0  0  0
  -28.3880  -17.1470   20.1910 H   0  0  0  0  0  0  0  0  0  0  0  0
  -25.2000  -13.9210   20.5250 C   0  0  0  0  0  0  0  0  0  0  0  0
  -24.1620  -13.1210   20.9010 C   0  0  0  0  0  0  0  0  0  0  0  0
  -24.6460  -11.7770   20.8270 C   0  0  0  0  0  0  0  0  0  0  0  0
  -26.2490  -13.0710   20.2330 N   0  0  0  0  0  0  0  0  0  0  0  0
  -25.9320  -11.7700   20.4780 N   0  0  0  0  0  0  0  0  0  0  0  0
  -23.9330  -10.5040   21.0070 C   0  0  0  0  0  0  0  0  0  0  0  0
  -24.3700   -9.5350   21.9360 C   0  0  0  0  0  3  0  0  0  0  0  0
  -23.6510   -8.3330   22.1100 C   0  0  0  0  0  3  0  0  0  0  0  0
  -22.4810   -8.0890   21.3530 C   0  0  0  0  0  0  0  0  0  0  0  0
  -22.0610   -9.0470   20.4140 C   0  0  0  0  0  3  0  0  0  0  0  0
  -22.7810  -10.2420   20.2390 C   0  0  0  0  0  3  0  0  0  0  0  0
  -21.7340   -6.9370   21.4340 O   0  0  0  0  0  0  0  0  0  0  0  0
  -21.6580   -6.2090   22.5940 C   0  0  0  0  0  0  0  0  0  0  0  0
  -21.1440   -6.7610   23.7880 C   0  0  0  0  0  3  0  0  0  0  0  0
  -21.0200   -5.9570   24.9380 C   0  0  0  0  0  3  0  0  0  0  0  0
  -21.3980   -4.6010   24.8950 C   0  0  0  0  0  0  0  0  0  0  0  0
  -21.9060   -4.0490   23.7060 C   0  0  0  0  0  3  0  0  0  0  0  0
  -22.0330   -4.8500   22.5580 C   0  0  0  0  0  0  0  0  0  0  0  0
  -22.5010   -4.3070   21.4090 F   0  0  0  0  0  0  0  0  0  0  0  0
  -21.2710   -3.8260   25.9990 F   0  0  0  0  0  0  0  0  0  0  0  0
  -22.7670  -13.5780   21.2100 C   0  0  0  0  0  0  0  0  0  0  0  0
  -22.0660  -12.8640   22.0840 N   0  0  0  0  0  0  0  0  0  0  0  0
  -22.3090  -14.6060   20.7130 O   0  0  0  0  0  0  0  0  0  0  0  0
  -22.4510  -12.0330   22.5060 H   0  0  0  0  0  0  0  0  0  0  0  0
  -21.1320  -13.1550   22.3340 H   0  0  0  0  0  0  0  0  0  0  0  0
  -25.3380  -15.2970   20.3710 N   0  0  0  0  0  0  0  0  0  0  0  0
  -24.5590  -15.9330   20.5110 H   0  0  0  0  0  0  0  0  0  0  0  0
  -26.1610  -15.7520   20.0000 H   0  0  0  0  0  0  0  0  0  0  0  0
  -30.1230  -23.0800   15.6800 C   0  0  0  0  0  1  0  0  0  0  0  0
  -30.4170  -23.5210   17.0590 N   0  0  0  0  0  4  0  0  0  0  0  0
  -31.4190  -23.5400   17.1580 H   0  0  0  0  0  0  0  0  0  0  0  0
  -30.0870  -24.4660   17.1740 H   0  0  0  0  0  0  0  0  0  0  0  0
  -28.1820  -25.2830   20.3420 O   0  0  0  0  0  1  0  0  0  0  0  0
  -24.6460  -31.8710   23.2140 C   0  0  0  0  0  0  0  0  0  0  0  0
  -27.2030  -26.5720   20.3480 C   0  0  0  0  0  0  0  0  0  0  0  0
  -23.4930  -30.4550   21.5730 C   0  0  0  0  0  3  0  0  0  0  0  0
  -24.9610  -28.7460   20.2220 C   0  0  0  0  0  0  0  0  0  0  0  0
  -26.0830  -30.5310   21.5190 C   0  0  0  0  0  2  0  0  0  0  0  0
  -26.1530  -29.0670   20.8820 C   0  0  0  0  0  0  0  0  0  0  0  0
  -27.2510  -28.0180   20.8970 C   0  0  0  0  0  3  0  0  0  0  0  0
  -25.9710  -26.5150   19.6310 C   0  0  0  0  0  3  0  0  0  0  0  0
  -24.9230  -27.4980   19.5720 C   0  0  0  0  0  3  0  0  0  0  0  0
  -23.7670  -29.7270   20.2220 C   0  0  0  0  0  2  0  0  0  0  0  0
  -24.7670  -30.9910   22.1540 N   0  0  0  0  0  0  0  0  0  0  0  0
  -23.5400  -32.1860   23.6910 O   0  0  0  0  0  0  0  0  0  0  0  0
  -22.7370  -29.5070   22.5450 C   0  0  0  0  0  0  0  0  0  0  0  0
  -21.4030  -29.3740   22.4080 N   0  0  0  0  0  0  0  0  0  0  0  0
  -23.3700  -28.8840   23.4020 O   0  0  0  0  0  0  0  0  0  0  0  0
  -20.9400  -29.9260   21.6990 H   0  0  0  0  0  0  0  0  0  0  0  0
  -17.9910  -28.2140   22.9180 C   0  0  0  0  0  0  0  0  0  0  0  0
  -20.5570  -28.4490   23.1750 C   0  0  0  0  0  3  0  0  0  0  0  0
  -20.6350  -27.0160   22.5980 C   0  0  0  0  0  2  0  0  0  0  0  0
  -19.5290  -26.7140   21.5820 C   0  0  0  0  0  2  0  0  0  0  0  0
  -18.1500  -26.8700   22.2280 C   0  0  0  0  0  2  0  0  0  0  0  0
  -19.1200  -28.9630   23.3480 C   0  0  0  0  0  0  0  0  0  0  0  0
  -18.9130  -30.2180   23.9610 C   0  0  0  0  0  3  0  0  0  0  0  0
  -17.6120  -30.7260   24.1430 C   0  0  0  0  0  3  0  0  0  0  0  0
  -16.4990  -29.9770   23.7240 C   0  0  0  0  0  3  0  0  0  0  0  0
  -16.6900  -28.7220   23.1190 C   0  0  0  0  0  3  0  0  0  0  0  0
  -25.8880  -32.5370   23.8800 C   0  0  0  0  0  3  0  0  0  0  0  0
  -26.3450  -31.8050   25.2040 C   0  0  1  0  0  0  0  0  0  0  0  0
  -25.2070  -31.6040   26.2340 C   0  0  0  0  0  1  0  0  0  0  0  0
  -26.9380  -30.4130   24.8940 C   0  0  0  0  0  1  0  0  0  0  0  0
  -27.4700  -32.6160   25.8890 C   0  0  0  0  0  1  0  0  0  0  0  0
  -25.5560  -33.9460   24.1870 N   0  0  0  0  0  0  0  0  0  0  0  0
  -25.9000  -35.0050   23.4420 C   0  0  0  0  0  0  0  0  0  0  0  0
  -26.5810  -34.8990   22.4190 O   0  0  0  0  0  0  0  0  0  0  0  0
  -24.9480  -34.0990   24.9770 H   0  0  0  0  0  0  0  0  0  0  0  0
  -24.1810  -36.8170   23.0860 C   0  0  0  0  0  1  0  0  0  0  0  0
  -25.4190  -36.4010   23.8980 C   0  0  0  0  0  3  0  0  0  0  0  0
  -27.5470  -37.2990   24.7400 C   0  0  0  0  0  1  0  0  0  0  0  0
  -26.4560  -37.4520   23.7820 N   0  0  0  0  0  0  0  0  0  0  0  0
  -26.0510  -38.3750   23.9060 H   0  0  0  0  0  0  0  0  0  0  0  0
  1  2  1  0
  1  6  2  0
  2  3  1  0
  2  7  1  0
  6  4  1  0
  7  8  1  0
  8  5  1  0
  8  4  1  0
  9 49  1  0
  9  3  1  0
  9  5  1  0
 10 18  1  0
 11 16  1  0
 12 13  1  0
 12 11  1  0
 14 13  1  0
 14 23  1  0
 14 15  1  0
 16 10  1  0
 16 15  1  0
 17 10  2  0
 18  6  1  0
 19 18  1  0
 20 21  2  0
 21 40  1  0
 22 21  1  0
 22 25  1  0
 23 24  1  0
 23 20  1  0
 24 22  2  0
 25 26  1  0
 26 27  2  0
 28 31  1  0
 28 27  1  0
 29 28  2  0
 30 29  1  0
 30 25  2  0
 31 32  1  0
 32 33  1  0
 33 34  2  0
 35 34  1  0
 35 39  1  0
 36 35  2  0
 37 32  2  0
 37 36  1  0
 38 37  1  0
 40 41  1  0
 41 44  1  0
 41 43  1  0
 42 40  2  0
 45 46  1  0
 45 20  1  0
 47 45  1  0
 48 49  1  0
 49 50  1  0
 49 51  1  0
 52 54  1  0
 53 64  2  0
 54 59  1  0
 55 63  1  0
 55 65  1  0
 56 62  1  0
 56 58  1  0
 57 63  1  0
 58 59  2  0
 58 57  1  0
 60 54  2  0
 61 60  1  0
 61 56  2  0
 62 55  1  0
 63 53  1  0
 65 67  2  0
 66 65  1  0
 68 66  1  0
 69 78  2  0
 69 74  1  0
 70 66  1  0
 70 74  1  0
 71 70  1  0
 72 73  1  0
 72 71  1  0
 73 69  1  0
 74 75  2  0
 75 76  1  0
 77 76  2  0
 78 77  1  0
 79 53  1  0
 79 84  1  0
 79 80  1  0
 80 83  1  1
 80 81  1  0
 82 80  1  0
 84 87  1  0
 85 89  1  0
 85 84  1  0
 86 85  2  0
 89 88  1  0
 91 89  1  0
 91 92  1  0
 91 90  1  0
M  ISO  4   7 101  10 100  18 100  52 101
M  END
>  <TORSDO>  (54) 
F 17

>  <SCORE>  (54) 
-16.144

>  <name>  (54) 
53

>  <ligand_id>  (54) 
53

>  <original_smiles>  (54) 
[H]C1=C2C([H])([H])C([H])([N+]([H])([H])C([H])([H])[H])C([H])([H])C([H])(C2([H])Oc2c([H])c([H])c3c(c2[H])C([H])([H])N(C(=O)C([H])(N([H])C(=O)C([H])(N([H])C([H])([H])[H])C([H])([H])[H])C(C([H])([H])[H])(C([H])([H])[H])C([H])([H])[H])C([H])(C(=O)N([H])C2([H])c4c([H])c([H])c([H])c([H])c4C([H])([H])C([H])([H])C2([H])[H])C3([H])[H])C([H])([H])C1([H])N([H])C(=O)N1C([H])([H])C([H])([H])C([H])([H])C([H])(n2nc(-c3c([H])c([H])c(Oc4c([H])c([H])c(F)c([H])c4F)c([H])c3[H])c(C(=O)N([H])[H])c2N([H])[H])C1([H])[H]

>  <smiles>  (54) 
[H]C1=C2C([H])([H])C([H])([N+]([H])([H])C([H])([H])[H])C([H])([H])C([H])(C2([H])Oc2c([H])c([H])c3c(c2[H])C([H])([H])N(C(=O)C([H])(N([H])C(=O)C([H])(N([H])C([H])([H])[H])C([H])([H])[H])C(C([H])([H])[H])(C([H])([H])[H])C([H])([H])[H])C([H])(C(=O)N([H])C2([H])c4c([H])c([H])c([H])c([H])c4C([H])([H])C([H])([H])C2([H])[H])C3([H])[H])C([H])([H])C1([H])N([H])C(=O)N1C([H])([H])C([H])([H])C([H])([H])C([H])(n2nc(-c3c([H])c([H])c(Oc4c([H])c([H])c(F)c([H])c4F)c([H])c3[H])c(C(=O)N([H])[H])c2N([H])[H])C1([H])[H]

$$$$
54:0:0
     RDKit          3D

 96105  0  0  1  0  0  0  0  0999 V2000
  -31.7300  -21.4590   21.5940 C   0  0  0  0  0  0  0  0  0  0  0  0
  -32.5920  -21.3910   20.6660 N   0  0  0  0  0  0  0  0  0  0  0  0
  -32.5310  -22.1940   20.0500 H   0  0  0  0  0  0  0  0  0  0  0  0
  -31.3970  -23.9560   21.1860 C   0  0  0  0  0  2  0  0  0  0  0  0
  -29.4350  -22.3730   20.9610 C   0  0  0  0  0  2  0  0  0  0  0  0
  -30.4250  -25.1430   21.2940 C   0  0  0  0  0  2  0  0  0  0  0  0
  -28.4680  -23.5730   21.0470 C   0  0  0  0  0  2  0  0  0  0  0  0
  -30.7610  -22.6450   21.7030 C   0  0  0  0  0  3  0  0  0  0  0  0
  -29.1130  -24.8770   20.5290 C   0  0  0  0  0  3  0  0  0  0  0  0
  -28.1630  -26.0880   20.6270 C   0  0  0  0  0  2  0  0  0  0  0  0
  -27.0920  -25.9360   19.7000 O   0  0  0  0  0  0  0  0  0  0  0  0
  -24.1480  -31.5420   23.0110 C   0  0  0  0  0  0  0  0  0  0  0  0
  -26.0550  -26.8300   19.8160 C   0  0  0  0  0  0  0  0  0  0  0  0
  -22.6720  -30.2720   21.4820 C   0  0  0  0  0  3  0  0  0  0  0  0
  -23.8370  -28.5730   19.9790 C   0  0  0  0  0  0  0  0  0  0  0  0
  -25.1960  -30.3520   21.0910 C   0  0  0  0  0  2  0  0  0  0  0  0
  -25.0830  -28.9740   20.4790 C   0  0  0  0  0  0  0  0  0  0  0  0
  -26.1940  -28.1080   20.4070 C   0  0  0  0  0  3  0  0  0  0  0  0
  -24.8010  -26.4440   19.3030 C   0  0  0  0  0  3  0  0  0  0  0  0
  -23.6890  -27.3040   19.3910 C   0  0  0  0  0  3  0  0  0  0  0  0
  -22.6980  -29.5600   20.1020 C   0  0  0  0  0  2  0  0  0  0  0  0
  -24.0290  -30.7360   21.9180 N   0  0  0  0  0  0  0  0  0  0  0  0
  -23.1490  -31.9380   23.6260 O   0  0  0  0  0  0  0  0  0  0  0  0
  -21.9870  -29.3370   22.5050 C   0  0  0  0  0  0  0  0  0  0  0  0
  -20.6510  -29.2360   22.4180 N   0  0  0  0  0  0  0  0  0  0  0  0
  -22.6520  -28.7050   23.3290 O   0  0  0  0  0  0  0  0  0  0  0  0
  -20.1790  -29.7940   21.7200 H   0  0  0  0  0  0  0  0  0  0  0  0
  -17.2290  -28.2390   23.0040 C   0  0  0  0  0  0  0  0  0  0  0  0
  -19.7980  -28.3880   23.2490 C   0  0  0  0  0  3  0  0  0  0  0  0
  -19.8270  -26.9210   22.7600 C   0  0  0  0  0  2  0  0  0  0  0  0
  -18.7040  -26.5900   21.7750 C   0  0  0  0  0  2  0  0  0  0  0  0
  -17.3350  -26.8440   22.4130 C   0  0  0  0  0  2  0  0  0  0  0  0
  -18.3860  -28.9710   23.3810 C   0  0  0  0  0  0  0  0  0  0  0  0
  -18.2340  -30.2790   23.8910 C   0  0  0  0  0  3  0  0  0  0  0  0
  -16.9570  -30.8540   24.0300 C   0  0  0  0  0  3  0  0  0  0  0  0
  -15.8140  -30.1180   23.6720 C   0  0  0  0  0  3  0  0  0  0  0  0
  -15.9510  -28.8150   23.1640 C   0  0  0  0  0  3  0  0  0  0  0  0
  -25.5410  -32.0270   23.5230 C   0  0  0  0  0  3  0  0  0  0  0  0
  -26.1240  -31.1320   24.6850 C   0  0  1  0  0  0  0  0  0  0  0  0
  -25.1310  -30.9030   25.8480 C   0  0  0  0  0  1  0  0  0  0  0  0
  -26.5460  -29.7450   24.1440 C   0  0  0  0  0  1  0  0  0  0  0  0
  -27.3980  -31.7870   25.2670 C   0  0  0  0  0  1  0  0  0  0  0  0
  -25.3910  -33.4200   23.9640 N   0  0  0  0  0  0  0  0  0  0  0  0
  -25.8490  -34.4830   23.2920 C   0  0  0  0  0  0  0  0  0  0  0  0
  -26.5160  -34.3860   22.2570 O   0  0  0  0  0  0  0  0  0  0  0  0
  -24.8110  -33.5760   24.7760 H   0  0  0  0  0  0  0  0  0  0  0  0
  -24.3510  -36.4900   23.0570 C   0  0  0  0  0  1  0  0  0  0  0  0
  -25.5140  -35.8770   23.8560 C   0  0  0  0  0  3  0  0  0  0  0  0
  -27.7070  -36.4340   24.8080 C   0  0  0  0  0  1  0  0  0  0  0  0
  -26.6650  -36.8050   23.8550 N   0  0  0  0  0  0  0  0  0  0  0  0
  -26.3620  -37.7520   24.0720 H   0  0  0  0  0  0  0  0  0  0  0  0
  -31.6250  -20.3780   22.6680 C   0  0  0  0  0  2  0  0  0  0  0  0
  -29.8980  -18.5500   22.2570 C   0  0  0  0  0  3  0  0  0  0  0  0
  -32.2050  -18.1350   21.5950 C   0  0  0  0  0  3  0  0  0  0  0  0
  -29.5440  -17.2590   21.8210 C   0  0  0  0  0  3  0  0  0  0  0  0
  -31.8490  -16.8460   21.1490 C   0  0  0  0  0  3  0  0  0  0  0  0
  -31.2320  -18.9970   22.1490 C   0  0  0  0  0  0  0  0  0  0  0  0
  -30.5120  -16.3990   21.2570 C   0  0  0  0  0  0  0  0  0  0  0  0
  -30.5720  -14.2690   19.9430 C   0  0  0  0  0  0  0  0  0  0  0  0
  -30.1410  -12.1650   18.7180 C   0  0  0  0  0  2  0  0  0  0  0  0
  -29.0540  -12.3680   17.6450 C   0  0  0  0  0  2  0  0  0  0  0  0
  -27.6470  -12.1900   18.2460 C   0  0  0  0  0  2  0  0  0  0  0  0
  -27.4480  -13.0060   19.5500 C   0  0  0  0  0  3  0  0  0  0  0  0
  -28.6250  -12.7670   20.5210 C   0  0  0  0  0  2  0  0  0  0  0  0
  -29.8790  -13.1060   19.8170 N   0  0  0  0  0  0  0  0  0  0  0  0
  -31.5390  -14.5570   19.2270 O   0  0  0  0  0  0  0  0  0  0  0  0
  -30.0920  -15.0930   20.8890 N   0  0  0  0  0  0  0  0  0  0  0  0
  -29.2480  -14.7590   21.3290 H   0  0  0  0  0  0  0  0  0  0  0  0
  -25.1570  -13.5770   20.5790 C   0  0  0  0  0  0  0  0  0  0  0  0
  -24.1410  -12.7840   21.0400 C   0  0  0  0  0  0  0  0  0  0  0  0
  -24.5870  -11.4370   20.8830 C   0  0  0  0  0  0  0  0  0  0  0  0
  -26.1620  -12.7090   20.1760 N   0  0  0  0  0  0  0  0  0  0  0  0
  -25.8280  -11.4150   20.4120 N   0  0  0  0  0  0  0  0  0  0  0  0
  -23.8870  -10.1650   21.1000 C   0  0  0  0  0  0  0  0  0  0  0  0
  -24.3180   -9.2410   22.0790 C   0  0  0  0  0  3  0  0  0  0  0  0
  -23.6170   -8.0330   22.2800 C   0  0  0  0  0  3  0  0  0  0  0  0
  -22.4720   -7.7380   21.5020 C   0  0  0  0  0  0  0  0  0  0  0  0
  -22.0620   -8.6510   20.5140 C   0  0  0  0  0  3  0  0  0  0  0  0
  -22.7630   -9.8510   20.3120 C   0  0  0  0  0  3  0  0  0  0  0  0
  -21.7440   -6.5780   21.6090 O   0  0  0  0  0  0  0  0  0  0  0  0
  -21.5530   -5.9580   22.8170 C   0  0  0  0  0  0  0  0  0  0  0  0
  -20.8920   -6.6000   23.8870 C   0  0  0  0  0  3  0  0  0  0  0  0
  -20.6560   -5.9030   25.0890 C   0  0  0  0  0  3  0  0  0  0  0  0
  -21.0670   -4.5640   25.2190 C   0  0  0  0  0  0  0  0  0  0  0  0
  -21.7190   -3.9190   24.1530 C   0  0  0  0  0  3  0  0  0  0  0  0
  -21.9580   -4.6150   22.9540 C   0  0  0  0  0  0  0  0  0  0  0  0
  -22.5680   -3.9840   21.9220 F   0  0  0  0  0  0  0  0  0  0  0  0
  -20.8320   -3.8910   26.3700 F   0  0  0  0  0  0  0  0  0  0  0  0
  -22.7920  -13.2440   21.5140 C   0  0  0  0  0  0  0  0  0  0  0  0
  -22.1890  -12.5150   22.4480 N   0  0  0  0  0  0  0  0  0  0  0  0
  -22.2840  -14.2820   21.0910 O   0  0  0  0  0  0  0  0  0  0  0  0
  -22.6150  -11.6740   22.8060 H   0  0  0  0  0  0  0  0  0  0  0  0
  -21.2890  -12.8020   22.8060 H   0  0  0  0  0  0  0  0  0  0  0  0
  -25.3070  -14.9550   20.4520 N   0  0  0  0  0  0  0  0  0  0  0  0
  -24.5650  -15.6050   20.6890 H   0  0  0  0  0  0  0  0  0  0  0  0
  -26.1140  -15.4080   20.0420 H   0  0  0  0  0  0  0  0  0  0  0  0
  1 52  1  0
  2  1  2  0
  3  2  1  0
  4  6  1  0
  4  8  1  0
  5  7  1  0
  5  8  1  0
  8  1  1  0
  9 10  1  0
  9  7  1  0
  9  6  1  0
 11 13  1  0
 11 10  1  0
 12 23  2  0
 13 18  1  0
 14 22  1  0
 14 24  1  0
 15 21  1  0
 15 17  1  0
 16 22  1  0
 17 16  1  0
 18 17  2  0
 19 20  1  0
 19 13  2  0
 20 15  2  0
 21 14  1  0
 22 12  1  0
 24 26  2  0
 25 24  1  0
 27 25  1  0
 28 37  2  0
 28 33  1  0
 29 25  1  0
 29 33  1  0
 30 29  1  0
 31 32  1  0
 31 30  1  0
 32 28  1  0
 33 34  2  0
 34 35  1  0
 36 35  2  0
 37 36  1  0
 38 12  1  0
 38 43  1  0
 38 39  1  0
 39 42  1  1
 39 40  1  0
 41 39  1  0
 43 46  1  0
 44 48  1  0
 44 43  1  0
 45 44  2  0
 48 47  1  0
 50 48  1  0
 50 51  1  0
 50 49  1  0
 54 57  2  0
 55 53  2  0
 56 58  2  0
 56 54  1  0
 57 53  1  0
 57 52  1  0
 58 55  1  0
 59 67  1  0
 60 65  1  0
 61 62  1  0
 61 60  1  0
 63 62  1  0
 63 72  1  0
 63 64  1  0
 65 59  1  0
 65 64  1  0
 66 59  2  0
 67 58  1  0
 67 68  1  0
 69 70  2  0
 70 89  1  0
 71 70  1  0
 71 74  1  0
 72 73  1  0
 72 69  1  0
 73 71  2  0
 74 75  1  0
 75 76  2  0
 77 80  1  0
 77 76  1  0
 78 77  2  0
 79 78  1  0
 79 74  2  0
 80 81  1  0
 81 86  2  0
 81 82  1  0
 82 83  2  0
 83 84  1  0
 84 88  1  0
 85 84  2  0
 86 85  1  0
 87 86  1  0
 89 90  1  0
 90 93  1  0
 90 92  1  0
 91 89  2  0
 94 69  1  0
 94 95  1  0
 96 94  1  0
M  ISO  4  10 101  11 101  59 100  67 100
M  END
>  <TORSDO>  (55) 
F 20

>  <SCORE>  (55) 
-10.313

>  <name>  (55) 
54

>  <ligand_id>  (55) 
54

>  <original_smiles>  (55) 
[H]N=C(C([H])([H])c1c([H])c([H])c(N([H])C(=O)N2C([H])([H])C([H])([H])C([H])([H])C([H])(n3nc(-c4c([H])c([H])c(Oc5c([H])c([H])c(F)c([H])c5F)c([H])c4[H])c(C(=O)N([H])[H])c3N([H])[H])C2([H])[H])c([H])c1[H])C1([H])C([H])([H])C([H])([H])C([H])(C([H])([H])Oc2c([H])c([H])c3c(c2[H])C([H])([H])N(C(=O)C([H])(N([H])C(=O)C([H])(N([H])C([H])([H])[H])C([H])([H])[H])C(C([H])([H])[H])(C([H])([H])[H])C([H])([H])[H])C([H])(C(=O)N([H])C2([H])c4c([H])c([H])c([H])c([H])c4C([H])([H])C([H])([H])C2([H])[H])C3([H])[H])C([H])([H])C1([H])[H]

>  <smiles>  (55) 
[H]N=C(C([H])([H])c1c([H])c([H])c(N([H])C(=O)N2C([H])([H])C([H])([H])C([H])([H])C([H])(n3nc(-c4c([H])c([H])c(Oc5c([H])c([H])c(F)c([H])c5F)c([H])c4[H])c(C(=O)N([H])[H])c3N([H])[H])C2([H])[H])c([H])c1[H])C1([H])C([H])([H])C([H])([H])C([H])(C([H])([H])Oc2c([H])c([H])c3c(c2[H])C([H])([H])N(C(=O)C([H])(N([H])C(=O)C([H])(N([H])C([H])([H])[H])C([H])([H])[H])C(C([H])([H])[H])(C([H])([H])[H])C([H])([H])[H])C([H])(C(=O)N([H])C2([H])c4c([H])c([H])c([H])c([H])c4C([H])([H])C([H])([H])C2([H])[H])C3([H])[H])C([H])([H])C1([H])[H]

$$$$
55:0:0
     RDKit          3D

 91 94  0  0  1  0  0  0  0  0999 V2000
  -25.6920  -13.1250   18.6150 C   0  0  0  0  0  1  0  0  0  0  0  0
  -24.9490  -14.5620   19.2720 C   0  0  0  0  0  1  0  0  0  0  0  0
  -26.6120  -11.1310   19.3370 C   0  0  0  0  0  3  0  0  0  0  0  0
  -23.7100  -13.0350   20.2340 C   0  0  0  0  0 15  0  0  0  0  0  0
  -24.7520  -11.1170   22.0220 C   0  0  0  0  0 15  0  0  0  0  0  0
  -26.3850  -10.4620   20.8350 N   0  0  0  0  0  2  0  0  0  0  0  0
  -25.4260  -17.2500   19.1980 C   0  0  0  0  0 15  0  0  0  0  0  0
  -25.8820  -20.1110   19.7840 C   0  0  0  0  0 15  0  0  0  0  0  0
  -26.6300  -22.6120   19.8490 O   0  0  0  0  0 15  0  0  0  0  0  0
  -24.9860  -31.1930   22.8640 C   0  0  0  0  0  0  0  0  0  0  0  0
  -26.4580  -24.6030   19.9940 C   0  0  0  0  0  2  0  0  0  0  0  0
  -23.8380  -29.7780   21.2660 C   0  0  0  0  0  3  0  0  0  0  0  0
  -25.0990  -27.8080   19.8920 C   0  0  0  0  0  0  0  0  0  0  0  0
  -26.3700  -29.2550   21.4200 C   0  0  0  0  0  2  0  0  0  0  0  0
  -26.2070  -27.6850   20.7070 C   0  0  0  0  0  0  0  0  0  0  0  0
  -26.8610  -26.1570   20.6990 C   0  0  0  0  0  2  0  0  0  0  0  0
  -25.5950  -25.3670   19.0860 C   0  0  0  0  0  3  0  0  0  0  0  0
  -24.9570  -26.6920   19.0440 C   0  0  0  0  0  3  0  0  0  0  0  0
  -24.1110  -29.0310   19.9080 C   0  0  0  0  0  2  0  0  0  0  0  0
  -25.1350  -30.1650   21.8910 N   0  0  0  0  0  0  0  0  0  0  0  0
  -23.8640  -31.5810   23.2530 O   0  0  0  0  0  0  0  0  0  0  0  0
  -23.0100  -28.9110   22.2500 C   0  0  0  0  0  0  0  0  0  0  0  0
  -21.6700  -28.8620   22.1260 N   0  0  0  0  0  0  0  0  0  0  0  0
  -23.5990  -28.2760   23.1260 O   0  0  0  0  0  0  0  0  0  0  0  0
  -21.2280  -29.4260   21.4140 H   0  0  0  0  0  0  0  0  0  0  0  0
  -18.2250  -27.8360   22.7080 C   0  0  0  0  0  0  0  0  0  0  0  0
  -20.8010  -27.9750   22.9100 C   0  0  0  0  0  3  0  0  0  0  0  0
  -20.8140  -26.5470   22.3150 C   0  0  0  0  0  2  0  0  0  0  0  0
  -19.6850  -26.3110   21.3090 C   0  0  0  0  0  2  0  0  0  0  0  0
  -18.3230  -26.5050   21.9810 C   0  0  0  0  0  2  0  0  0  0  0  0
  -19.3890  -28.5390   23.1250 C   0  0  0  0  0  0  0  0  0  0  0  0
  -19.2360  -29.7830   23.7730 C   0  0  0  0  0  3  0  0  0  0  0  0
  -17.9570  -30.3280   23.9980 C   0  0  0  0  0  3  0  0  0  0  0  0
  -16.8120  -29.6280   23.5850 C   0  0  0  0  0  3  0  0  0  0  0  0
  -16.9470  -28.3820   22.9460 C   0  0  0  0  0  3  0  0  0  0  0  0
  -26.1580  -31.9650   23.5730 C   0  0  0  0  0  3  0  0  0  0  0  0
  -25.7360  -33.3610   23.9120 N   0  0  0  0  0  0  0  0  0  0  0  0
  -26.0850  -34.4910   23.2700 C   0  0  0  0  0  0  0  0  0  0  0  0
  -26.8080  -34.4760   22.2720 O   0  0  0  0  0  0  0  0  0  0  0  0
  -25.0830  -33.4470   24.6780 H   0  0  0  0  0  0  0  0  0  0  0  0
  -24.3190  -36.2900   22.9970 C   0  0  0  0  0  1  0  0  0  0  0  0
  -25.5590  -35.8510   23.7990 C   0  0  0  0  0  3  0  0  0  0  0  0
  -27.6440  -36.7920   24.7170 C   0  0  0  0  0  1  0  0  0  0  0  0
  -26.5600  -36.9460   23.7490 N   0  0  0  0  0  0  0  0  0  0  0  0
  -26.1170  -37.8480   23.9120 H   0  0  0  0  0  0  0  0  0  0  0  0
  -26.6250  -31.2720   24.9140 C   0  0  1  0  0  0  0  0  0  0  0  0
  -25.4880  -31.0370   25.9390 C   0  0  0  0  0  1  0  0  0  0  0  0
  -27.2640  -29.9070   24.6240 C   0  0  0  0  0  1  0  0  0  0  0  0
  -27.7170  -32.1270   25.5990 C   0  0  0  0  0  1  0  0  0  0  0  0
  -27.8700  -10.1660   19.0900 C   0  0  0  0  0  2  0  0  0  0  0  0
  -28.6220   -9.3390   20.4010 C   0  0  0  0  0  2  0  0  0  0  0  0
  -28.9300   -9.6860   22.0160 C   0  0  0  0  0  2  0  0  0  0  0  0
  -30.1030  -10.6250   22.7820 C   0  0  0  0  0  2  0  0  0  0  0  0
  -32.0230  -11.9550   21.3230 C   0  0  0  0  0  0  0  0  0  0  0  0
  -31.7820  -11.6460   18.8840 C   0  0  0  0  0  2  0  0  0  0  0  0
  -30.7780  -12.2720   17.8780 C   0  0  0  0  0  3  0  0  0  0  0  0
  -29.5210  -13.0110   18.4700 C   0  0  0  0  0  3  0  0  0  0  0  0
  -29.3840  -13.2480   20.0880 C   0  0  0  0  0  3  0  0  0  0  0  0
  -29.9450  -11.9890   20.4030 C   0  0  0  0  0  2  0  0  0  0  0  0
  -31.3100  -11.8110   20.2580 N   0  0  0  0  0  0  0  0  0  0  0  0
  -33.1400  -12.5010   21.2040 O   0  0  0  0  0  0  0  0  0  0  0  0
  -31.5290  -11.0720   22.2990 N   0  0  0  0  0  0  0  0  0  0  0  0
  -32.2090  -10.8790   23.0250 H   0  0  0  0  0  0  0  0  0  0  0  0
  -27.2610  -14.2700   21.6830 C   0  0  2  0  0  0  0  0  0  0  0  0
  -26.0660  -13.6610   22.1250 C   0  0  1  0  0  0  0  0  0  0  0  0
  -26.3790  -12.6440   21.2290 C   0  0  0  0  0  2  0  0  0  0  0  0
  -28.1510  -13.3950   21.0650 N   0  0  0  0  0  0  0  0  0  0  0  0
  -27.5950  -12.5520   21.8310 N   0  0  2  0  0  4  0  0  0  0  0  0
  -24.8910  -10.8250   19.9230 C   0  0  1  0  0  0  0  0  0  0  0  0
  -24.8610   -9.2580   20.2610 C   0  0  0  0  0  2  0  0  0  0  0  0
  -24.2000   -8.4350   21.3120 C   0  0  0  0  0  2  0  0  0  0  0  0
  -22.8200   -8.4640   21.2510 C   0  0  0  0  0  0  0  0  0  0  0  0
  -22.4510   -9.6140   20.4630 C   0  0  0  0  0  3  0  0  0  0  0  0
  -23.3810  -10.6710   19.9320 C   0  0  0  0  0  2  0  0  0  0  0  0
  -21.9480   -7.3590   21.5010 O   0  0  0  0  0  0  0  0  0  0  0  0
  -21.7210   -6.6120   22.6790 C   0  0  0  0  0  0  0  0  0  0  0  0
  -21.2930   -7.2160   23.8890 C   0  0  0  0  0  3  0  0  0  0  0  0
  -20.8960   -6.4440   25.0110 C   0  0  0  0  0  3  0  0  0  0  0  0
  -20.9180   -5.0420   24.9620 C   0  0  0  0  0  0  0  0  0  0  0  0
  -21.3280   -4.4070   23.7740 C   0  0  0  0  0  3  0  0  0  0  0  0
  -21.7170   -5.1760   22.6510 C   0  0  0  0  0  0  0  0  0  0  0  0
  -22.0510   -4.5070   21.5250 F   0  0  0  0  0  0  0  0  0  0  0  0
  -20.5370   -4.3050   26.0450 F   0  0  0  0  0  0  0  0  0  0  0  0
  -24.6080  -14.1480   22.4700 C   0  0  0  0  0  0  0  0  0  0  0  0
  -23.6880  -13.2920   22.9660 N   0  0  0  0  0  0  0  0  0  0  0  0
  -24.1150  -15.0910   21.8410 O   0  0  0  0  0  0  0  0  0  0  0  0
  -23.9490  -12.3610   23.2450 H   0  0  0  0  0  0  0  0  0  0  0  0
  -22.7200  -13.5780   23.0600 H   0  0  0  0  0  0  0  0  0  0  0  0
  -27.5920  -15.5520   21.5280 N   0  0  0  0  0  0  0  0  0  0  0  0
  -26.9700  -16.3350   21.6610 H   0  0  0  0  0  0  0  0  0  0  0  0
  -28.5090  -15.8140   21.1850 H   0  0  0  0  0  0  0  0  0  0  0  0
  1  2  1  0
  3 50  1  0
  3 69  1  0
  3  6  1  0
 10 21  2  0
 11 16  1  0
 12 20  1  0
 12 22  1  0
 13 19  1  0
 13 15  2  0
 14 20  1  0
 15 14  1  0
 16 15  1  0
 17 11  1  0
 18 17  2  0
 18 13  1  0
 19 12  1  0
 20 10  1  0
 22 24  2  0
 23 22  1  0
 25 23  1  0
 26 35  2  0
 26 31  1  0
 27 23  1  0
 27 31  1  0
 28 27  1  0
 29 30  1  0
 29 28  1  0
 30 26  1  0
 31 32  2  0
 32 33  1  0
 34 33  2  0
 35 34  1  0
 36 10  1  0
 36 37  1  0
 36 46  1  0
 37 40  1  0
 38 42  1  0
 38 37  1  0
 39 38  2  0
 42 41  1  0
 44 42  1  0
 44 45  1  0
 44 43  1  0
 46 49  1  1
 46 47  1  0
 48 46  1  0
 50 51  1  0
 51 52  1  0
 52 53  1  0
 54 62  1  0
 55 60  1  0
 56 57  2  0
 56 55  1  0
 58 57  1  0
 58 59  1  0
 60 59  1  0
 60 54  1  0
 61 54  2  0
 62 53  1  0
 62 63  1  0
 64 89  1  1
 64 68  1  0
 64 65  1  0
 65 84  1  1
 66 65  1  0
 67 58  1  0
 67 64  1  0
 67 68  1  0
 68 66  1  6
 68 65  1  0
 69 74  1  1
 69 70  1  0
 69  6  1  0
 70 71  1  0
 72 71  1  0
 72 75  1  0
 73 72  2  0
 74 73  1  0
 75 76  1  0
 76 77  1  0
 77 78  2  0
 79 78  1  0
 79 83  1  0
 80 79  2  0
 81 76  2  0
 81 80  1  0
 82 81  1  0
 84 85  1  0
 85 88  1  0
 85 87  1  0
 86 84  2  0
 89 90  1  0
 91 89  1  0
M  ISO  4   8 101   9 101  54 100  62 100
M  END
>  <TORSDO>  (56) 
F 22

>  <SCORE>  (56) 
-1.570

>  <name>  (56) 
55

>  <ligand_id>  (56) 
55

>  <original_smiles>  (56) 
[H]C1=C(C([H])([H])C([H])([H])Oc2c([H])c([H])c3c(c2[H])C([H])([H])N(C(=O)C([H])(N([H])C(=O)C([H])(N([H])C([H])([H])[H])C([H])([H])[H])C(C([H])([H])[H])(C([H])([H])[H])C([H])([H])[H])C([H])(C(=O)N([H])C2([H])c4c([H])c([H])c([H])c([H])c4C([H])([H])C([H])([H])C2([H])[H])C3([H])[H])C([H])([H])C([H])([H])N=C1C([H])([H])C([H])([H])C([H])([H])C([H])([H])N([H])C(=O)N1C([H])([H])C([H])([H])C([H])([H])C([H])(n2nc(-c3c([H])c([H])c(Oc4c([H])c([H])c(F)c([H])c4F)c([H])c3[H])c(C(=O)N([H])[H])c2N([H])[H])C1([H])[H]

>  <smiles>  (56) 
[H]C1=C(C([H])([H])C([H])([H])Oc2c([H])c([H])c3c(c2[H])C([H])([H])N(C(=O)C([H])(N([H])C(=O)C([H])(N([H])C([H])([H])[H])C([H])([H])[H])C(C([H])([H])[H])(C([H])([H])[H])C([H])([H])[H])C([H])(C(=O)N([H])C2([H])c4c([H])c([H])c([H])c([H])c4C([H])([H])C([H])([H])C2([H])[H])C3([H])[H])C([H])([H])C([H])([H])N=C1C([H])([H])C([H])([H])C([H])([H])C([H])([H])N([H])C(=O)N1C([H])([H])C([H])([H])C([H])([H])C([H])(n2nc(-c3c([H])c([H])c(Oc4c([H])c([H])c(F)c([H])c4F)c([H])c3[H])c(C(=O)N([H])[H])c2N([H])[H])C1([H])[H]

$$$$
56:0:0
     RDKit          3D

 91100  0  0  1  0  0  0  0  0999 V2000
  -30.2760  -15.6570   20.2310 C   0  0  0  0  0  0  0  0  0  0  0  0
  -30.4260  -13.0820   19.5170 C   0  0  0  0  0  2  0  0  0  0  0  0
  -29.5460  -12.5710   18.3410 C   0  0  0  0  0  2  0  0  0  0  0  0
  -28.1620  -12.1660   18.8650 C   0  0  0  0  0  2  0  0  0  0  0  0
  -27.6040  -13.2350   19.8380 C   0  0  0  0  0  3  0  0  0  0  0  0
  -28.6230  -13.6700   20.9250 C   0  0  0  0  0  2  0  0  0  0  0  0
  -29.7720  -14.2790   20.2250 N   0  0  0  0  0  0  0  0  0  0  0  0
  -31.4930  -15.5920   19.9660 O   0  0  0  0  0  0  0  0  0  0  0  0
  -30.4630  -19.2240   21.6970 C   0  0  0  0  0  3  0  0  0  0  0  0
  -29.9940  -20.3180   21.0040 C   0  0  0  0  0  0  0  0  0  0  0  0
  -29.8550  -17.7610   21.7560 C   0  0  0  0  0  2  0  0  0  0  0  0
  -29.0430  -18.4400   19.5970 C   0  0  0  0  0  3  0  0  0  0  0  0
  -28.7380  -20.2010   20.1570 C   0  0  0  0  0  0  0  0  0  0  0  0
  -29.5780  -17.0410   20.4520 N   0  0  0  0  0  0  0  0  0  0  0  0
  -31.5680  -24.2640   20.3700 C   0  0  0  0  0  3  0  0  0  0  0  0
  -31.9350  -23.2050   19.5180 C   0  0  0  0  0  3  0  0  0  0  0  0
  -30.7650  -24.0000   21.4950 C   0  0  0  0  0  3  0  0  0  0  0  0
  -31.5020  -21.8910   19.7940 C   0  0  0  0  0  3  0  0  0  0  0  0
  -30.3250  -22.6860   21.7720 C   0  0  0  0  0  3  0  0  0  0  0  0
  -30.6900  -21.6220   20.9210 C   0  0  0  0  0  0  0  0  0  0  0  0
  -25.2610  -13.7310   20.6920 C   0  0  0  0  0  0  0  0  0  0  0  0
  -24.2150  -12.9330   21.0610 C   0  0  0  0  0  0  0  0  0  0  0  0
  -24.6860  -11.5870   20.9620 C   0  0  0  0  0  0  0  0  0  0  0  0
  -26.3010  -12.8750   20.3860 N   0  0  0  0  0  0  0  0  0  0  0  0
  -25.9700  -11.5760   20.6140 N   0  0  0  0  0  0  0  0  0  0  0  0
  -23.9700  -10.3150   21.1290 C   0  0  0  0  0  0  0  0  0  0  0  0
  -24.4170   -9.3230   22.0300 C   0  0  0  0  0  3  0  0  0  0  0  0
  -23.6970   -8.1190   22.1920 C   0  0  0  0  0  3  0  0  0  0  0  0
  -22.5100   -7.8980   21.4520 C   0  0  0  0  0  0  0  0  0  0  0  0
  -22.0800   -8.8780   20.5400 C   0  0  0  0  0  3  0  0  0  0  0  0
  -22.8030  -10.0700   20.3770 C   0  0  0  0  0  3  0  0  0  0  0  0
  -21.7590   -6.7470   21.5190 O   0  0  0  0  0  0  0  0  0  0  0  0
  -21.7040   -5.9900   22.6610 C   0  0  0  0  0  0  0  0  0  0  0  0
  -21.2420   -6.5260   23.8820 C   0  0  0  0  0  3  0  0  0  0  0  0
  -21.1320   -5.6960   25.0190 C   0  0  0  0  0  3  0  0  0  0  0  0
  -21.4810   -4.3350   24.9330 C   0  0  0  0  0  0  0  0  0  0  0  0
  -21.9380   -3.8020   23.7170 C   0  0  0  0  0  3  0  0  0  0  0  0
  -22.0470   -4.6260   22.5860 C   0  0  0  0  0  0  0  0  0  0  0  0
  -22.4680   -4.1020   21.4080 F   0  0  0  0  0  0  0  0  0  0  0  0
  -21.3680   -3.5400   26.0220 F   0  0  0  0  0  0  0  0  0  0  0  0
  -22.8260  -13.3930   21.3860 C   0  0  0  0  0  0  0  0  0  0  0  0
  -22.1250  -12.6810   22.2600 N   0  0  0  0  0  0  0  0  0  0  0  0
  -22.3770  -14.4320   20.9030 O   0  0  0  0  0  0  0  0  0  0  0  0
  -22.5050  -11.8480   22.6790 H   0  0  0  0  0  0  0  0  0  0  0  0
  -21.1960  -12.9890   22.5180 H   0  0  0  0  0  0  0  0  0  0  0  0
  -25.4100  -15.1080   20.5560 N   0  0  0  0  0  0  0  0  0  0  0  0
  -24.6510  -15.7570   20.7290 H   0  0  0  0  0  0  0  0  0  0  0  0
  -26.2580  -15.5600   20.2380 H   0  0  0  0  0  0  0  0  0  0  0  0
  -28.2130  -21.9030   19.3910 C   0  0  0  0  0  2  0  0  0  0  0  0
  -27.5940  -23.6980   19.8080 C   0  0  0  0  0  2  0  0  0  0  0  0
  -27.8020  -25.4260   19.5410 O   0  0  0  0  0  0  0  0  0  0  0  0
  -24.6700  -31.6910   22.9740 C   0  0  0  0  0  0  0  0  0  0  0  0
  -26.8690  -26.6600   19.6520 C   0  0  0  0  0  0  0  0  0  0  0  0
  -23.3570  -30.3820   21.3630 C   0  0  0  0  0  3  0  0  0  0  0  0
  -24.6740  -28.7570   19.8090 C   0  0  0  0  0  0  0  0  0  0  0  0
  -25.9300  -30.4610   21.1000 C   0  0  0  0  0  2  0  0  0  0  0  0
  -25.9140  -29.0540   20.3870 C   0  0  0  0  0  0  0  0  0  0  0  0
  -27.0020  -28.0360   20.2740 C   0  0  0  0  0  3  0  0  0  0  0  0
  -25.5980  -26.5760   19.0380 C   0  0  0  0  0  3  0  0  0  0  0  0
  -24.5540  -27.5420   19.1120 C   0  0  0  0  0  3  0  0  0  0  0  0
  -23.5030  -29.7390   19.9560 C   0  0  0  0  0  2  0  0  0  0  0  0
  -24.6810  -30.8760   21.8640 N   0  0  0  0  0  0  0  0  0  0  0  0
  -23.6160  -32.0010   23.5530 O   0  0  0  0  0  0  0  0  0  0  0  0
  -22.6740  -29.3830   22.3350 C   0  0  0  0  0  0  0  0  0  0  0  0
  -21.3330  -29.2630   22.2790 N   0  0  0  0  0  0  0  0  0  0  0  0
  -23.3590  -28.7170   23.1150 O   0  0  0  0  0  0  0  0  0  0  0  0
  -20.8240  -29.8480   21.6300 H   0  0  0  0  0  0  0  0  0  0  0  0
  -17.9540  -28.0690   22.8970 C   0  0  0  0  0  0  0  0  0  0  0  0
  -20.5270  -28.3160   23.0610 C   0  0  0  0  0  3  0  0  0  0  0  0
  -20.5920  -26.8940   22.4540 C   0  0  0  0  0  2  0  0  0  0  0  0
  -19.4500  -26.6000   21.4760 C   0  0  0  0  0  2  0  0  0  0  0  0
  -18.0950  -26.7360   22.1780 C   0  0  0  0  0  2  0  0  0  0  0  0
  -19.0950  -28.8180   23.2950 C   0  0  0  0  0  0  0  0  0  0  0  0
  -18.9070  -30.0620   23.9330 C   0  0  0  0  0  3  0  0  0  0  0  0
  -17.6130  -30.5650   24.1680 C   0  0  0  0  0  3  0  0  0  0  0  0
  -16.4880  -29.8150   23.7840 C   0  0  0  0  0  3  0  0  0  0  0  0
  -16.6590  -28.5690   23.1550 C   0  0  0  0  0  3  0  0  0  0  0  0
  -25.9820  -32.2890   23.5640 C   0  0  0  0  0  3  0  0  0  0  0  0
  -25.7020  -33.6690   24.0090 N   0  0  0  0  0  0  0  0  0  0  0  0
  -26.0320  -34.7810   23.3340 C   0  0  0  0  0  0  0  0  0  0  0  0
  -26.6610  -34.7490   22.2730 O   0  0  0  0  0  0  0  0  0  0  0  0
  -25.1370  -33.7700   24.8390 H   0  0  0  0  0  0  0  0  0  0  0  0
  -24.3340  -36.6370   23.2050 C   0  0  0  0  0  1  0  0  0  0  0  0
  -25.5970  -36.1400   23.9230 C   0  0  0  0  0  3  0  0  0  0  0  0
  -27.7820  -36.9150   24.7340 C   0  0  0  0  0  1  0  0  0  0  0  0
  -26.6490  -37.1790   23.8510 N   0  0  0  0  0  0  0  0  0  0  0  0
  -26.2700  -38.0930   24.0850 H   0  0  0  0  0  0  0  0  0  0  0  0
  -26.5570  -31.4470   24.7720 C   0  0  1  0  0  0  0  0  0  0  0  0
  -25.5260  -31.1870   25.8990 C   0  0  0  0  0  1  0  0  0  0  0  0
  -27.0760  -30.0730   24.2910 C   0  0  0  0  0  1  0  0  0  0  0  0
  -27.7720  -32.1770   25.3930 C   0  0  0  0  0  1  0  0  0  0  0  0
  1 14  1  0
  2  7  1  0
  3  4  1  0
  3  2  1  0
  5  4  1  0
  5 24  1  0
  5  6  1  0
  7  1  1  0
  7  6  1  0
  8  1  2  0
  9 11  1  0
 10  9  2  0
 12 13  2  0
 12 14  1  0
 13 10  1  0
 14 11  1  0
 15 17  1  0
 16 18  1  0
 16 15  2  0
 17 19  2  0
 18 20  2  0
 20 10  1  0
 20 19  1  0
 21 22  2  0
 22 41  1  0
 23 22  1  0
 23 26  1  0
 24 25  1  0
 24 21  1  0
 25 23  2  0
 26 27  1  0
 27 28  2  0
 29 32  1  0
 29 28  1  0
 30 29  2  0
 31 30  1  0
 31 26  2  0
 32 33  1  0
 33 34  1  0
 34 35  2  0
 36 35  1  0
 36 40  1  0
 37 36  2  0
 38 33  2  0
 38 37  1  0
 39 38  1  0
 41 42  1  0
 42 45  1  0
 42 44  1  0
 43 41  2  0
 46 21  1  0
 46 47  1  0
 48 46  1  0
 49 50  1  0
 49 13  1  0
 51 53  1  0
 51 50  1  0
 52 63  2  0
 53 58  1  0
 54 62  1  0
 54 64  1  0
 55 61  1  0
 55 57  1  0
 56 62  1  0
 57 56  1  0
 58 57  2  0
 59 60  1  0
 59 53  2  0
 60 55  2  0
 61 54  1  0
 62 52  1  0
 64 66  2  0
 65 64  1  0
 67 65  1  0
 68 77  2  0
 68 73  1  0
 69 65  1  0
 69 73  1  0
 70 69  1  0
 71 72  1  0
 71 70  1  0
 72 68  1  0
 73 74  2  0
 74 75  1  0
 76 75  2  0
 77 76  1  0
 78 52  1  0
 78 79  1  0
 78 88  1  0
 79 82  1  0
 80 84  1  0
 80 79  1  0
 81 80  2  0
 84 83  1  0
 86 84  1  0
 86 87  1  0
 86 85  1  0
 88 91  1  1
 88 89  1  0
 90 88  1  0
M  ISO  4   1 100  14 100  50 101  51 101
M  END
>  <TORSDO>  (57) 
F 18

>  <SCORE>  (57) 
-15.388

>  <name>  (57) 
56

>  <ligand_id>  (57) 
56

>  <original_smiles>  (57) 
[H]C1=C(c2c([H])c([H])c([H])c([H])c2[H])C([H])(C([H])([H])C([H])([H])Oc2c([H])c([H])c3c(c2[H])C([H])([H])N(C(=O)C([H])(N([H])C(=O)C([H])(N([H])C([H])([H])[H])C([H])([H])[H])C(C([H])([H])[H])(C([H])([H])[H])C([H])([H])[H])C([H])(C(=O)N([H])C2([H])c4c([H])c([H])c([H])c([H])c4C([H])([H])C([H])([H])C2([H])[H])C3([H])[H])C([H])([H])N(C(=O)N2C([H])([H])C([H])([H])C([H])([H])C([H])(n3nc(-c4c([H])c([H])c(Oc5c([H])c([H])c(F)c([H])c5F)c([H])c4[H])c(C(=O)N([H])[H])c3N([H])[H])C2([H])[H])C1([H])[H]

>  <smiles>  (57) 
[H]C1=C(c2c([H])c([H])c([H])c([H])c2[H])C([H])(C([H])([H])C([H])([H])Oc2c([H])c([H])c3c(c2[H])C([H])([H])N(C(=O)C([H])(N([H])C(=O)C([H])(N([H])C([H])([H])[H])C([H])([H])[H])C(C([H])([H])[H])(C([H])([H])[H])C([H])([H])[H])C([H])(C(=O)N([H])C2([H])c4c([H])c([H])c([H])c([H])c4C([H])([H])C([H])([H])C2([H])[H])C3([H])[H])C([H])([H])N(C(=O)N2C([H])([H])C([H])([H])C([H])([H])C([H])(n3nc(-c4c([H])c([H])c(Oc5c([H])c([H])c(F)c([H])c5F)c([H])c4[H])c(C(=O)N([H])[H])c3N([H])[H])C2([H])[H])C1([H])[H]

$$$$
57:0:0
     RDKit          3D

 98107  0  0  1  0  0  0  0  0999 V2000
  -27.2130  -19.5450   19.3790 C   0  0  0  0  0  0  0  0  0  0  0  0
  -26.2000  -19.4510   18.5220 N   0  0  0  0  0  4  0  0  0  0  0  0
  -27.4850  -20.6980   19.9950 N   0  0  0  0  0  0  0  0  0  0  0  0
  -26.0090  -18.5630   18.0820 H   0  0  0  0  0  0  0  0  0  0  0  0
  -25.5980  -20.2270   18.3070 H   0  0  0  0  0  0  0  0  0  0  0  0
  -28.3030  -20.6740   20.5900 H   0  0  0  0  0  0  0  0  0  0  0  0
  -28.5700  -17.6070   18.6100 C   0  0  0  0  0  3  0  0  0  0  0  0
  -28.4890  -18.1550   20.9890 C   0  0  0  0  0  3  0  0  0  0  0  0
  -29.4970  -16.5840   18.8840 C   0  0  0  0  0  3  0  0  0  0  0  0
  -29.4170  -17.1330   21.2610 C   0  0  0  0  0  3  0  0  0  0  0  0
  -28.0800  -18.4090   19.6610 C   0  0  0  0  0  0  0  0  0  0  0  0
  -29.9330  -16.3490   20.2120 C   0  0  0  0  0  0  0  0  0  0  0  0
  -31.3290  -14.4380   19.6920 C   0  0  0  0  0  0  0  0  0  0  0  0
  -30.7560  -12.3260   18.5640 C   0  0  0  0  0  2  0  0  0  0  0  0
  -29.7040  -12.5280   17.4590 C   0  0  0  0  0  2  0  0  0  0  0  0
  -28.2810  -12.4490   18.0460 C   0  0  0  0  0  2  0  0  0  0  0  0
  -28.0980  -13.3380   19.3030 C   0  0  0  0  0  3  0  0  0  0  0  0
  -29.2530  -13.1220   20.3060 C   0  0  0  0  0  2  0  0  0  0  0  0
  -30.5260  -13.3460   19.5950 N   0  0  0  0  0  0  0  0  0  0  0  0
  -32.3510  -14.6000   19.0240 O   0  0  0  0  0  0  0  0  0  0  0  0
  -30.9300  -15.3980   20.5300 N   0  0  0  0  0  0  0  0  0  0  0  0
  -31.7020  -15.8150   21.0280 H   0  0  0  0  0  0  0  0  0  0  0  0
  -25.8420  -14.0570   20.3130 C   0  0  0  0  0  0  0  0  0  0  0  0
  -24.7690  -13.3330   20.7600 C   0  0  0  0  0  0  0  0  0  0  0  0
  -25.1290  -11.9590   20.6080 C   0  0  0  0  0  0  0  0  0  0  0  0
  -26.7910  -13.1260   19.9210 N   0  0  0  0  0  0  0  0  0  0  0  0
  -26.3710  -11.8560   20.1540 N   0  0  0  0  0  0  0  0  0  0  0  0
  -24.3430  -10.7360   20.8160 C   0  0  0  0  0  0  0  0  0  0  0  0
  -24.7210   -9.7700   21.7750 C   0  0  0  0  0  3  0  0  0  0  0  0
  -23.9390   -8.6120   21.9680 C   0  0  0  0  0  3  0  0  0  0  0  0
  -22.7650   -8.4100   21.2040 C   0  0  0  0  0  0  0  0  0  0  0  0
  -22.4070   -9.3650   20.2360 C   0  0  0  0  0  3  0  0  0  0  0  0
  -23.1890  -10.5160   20.0400 C   0  0  0  0  0  3  0  0  0  0  0  0
  -21.9600   -7.3020   21.3050 O   0  0  0  0  0  0  0  0  0  0  0  0
  -21.7530   -6.6700   22.5060 C   0  0  0  0  0  0  0  0  0  0  0  0
  -21.1780   -7.3390   23.6090 C   0  0  0  0  0  3  0  0  0  0  0  0
  -20.9160   -6.6360   24.8010 C   0  0  0  0  0  3  0  0  0  0  0  0
  -21.2200   -5.2640   24.8900 C   0  0  0  0  0  0  0  0  0  0  0  0
  -21.7890   -4.5940   23.7920 C   0  0  0  0  0  3  0  0  0  0  0  0
  -22.0510   -5.2960   22.6030 C   0  0  0  0  0  0  0  0  0  0  0  0
  -22.5790   -4.6420   21.5400 F   0  0  0  0  0  0  0  0  0  0  0  0
  -20.9630   -4.5850   26.0320 F   0  0  0  0  0  0  0  0  0  0  0  0
  -23.4480  -13.8810   21.2170 C   0  0  0  0  0  0  0  0  0  0  0  0
  -22.7930  -13.2010   22.1520 N   0  0  0  0  0  0  0  0  0  0  0  0
  -23.0100  -14.9450   20.7800 O   0  0  0  0  0  0  0  0  0  0  0  0
  -23.1600  -12.3390   22.5260 H   0  0  0  0  0  0  0  0  0  0  0  0
  -21.9120  -13.5510   22.5010 H   0  0  0  0  0  0  0  0  0  0  0  0
  -26.0780  -15.4220   20.1920 N   0  0  0  0  0  0  0  0  0  0  0  0
  -25.3750  -16.1070   20.4410 H   0  0  0  0  0  0  0  0  0  0  0  0
  -26.9410  -15.8330   19.8580 H   0  0  0  0  0  0  0  0  0  0  0  0
  -26.8100  -21.9910   19.9080 C   0  0  0  0  0  2  0  0  0  0  0  0
  -26.6610  -24.2020   21.1850 C   0  0  0  0  0  2  0  0  0  0  0  0
  -27.6910  -25.2540   21.5740 C   0  0  0  0  0  2  0  0  0  0  0  0
  -28.8260  -23.5770   20.2410 C   0  0  0  0  0  2  0  0  0  0  0  0
  -27.5220  -22.9920   20.8300 C   0  0  0  0  0  3  0  0  0  0  0  0
  -28.8360  -25.0890   20.5570 C   0  0  0  0  0  3  0  0  0  0  0  0
  -28.7190  -25.9180   19.2520 C   0  0  0  0  0  2  0  0  0  0  0  0
  -28.6630  -27.3300   19.4700 O   0  0  0  0  0  0  0  0  0  0  0  0
  -24.6370  -31.8200   23.2040 C   0  0  0  0  0  0  0  0  0  0  0  0
  -27.4360  -27.9550   19.5420 C   0  0  0  0  0  0  0  0  0  0  0  0
  -23.4670  -30.5740   21.4160 C   0  0  0  0  0  3  0  0  0  0  0  0
  -24.9640  -29.3060   19.7910 C   0  0  0  0  0  0  0  0  0  0  0  0
  -25.9670  -31.0880   21.2300 C   0  0  0  0  0  2  0  0  0  0  0  0
  -26.1050  -29.8150   20.4200 C   0  0  0  0  0  0  0  0  0  0  0  0
  -27.3420  -29.1480   20.2930 C   0  0  0  0  0  3  0  0  0  0  0  0
  -26.2700  -27.4580   18.9090 C   0  0  0  0  0  3  0  0  0  0  0  0
  -25.0390  -28.1250   19.0380 C   0  0  0  0  0  3  0  0  0  0  0  0
  -23.6810  -30.0870   19.9600 C   0  0  0  0  0  2  0  0  0  0  0  0
  -24.7100  -31.1680   22.0100 N   0  0  0  0  0  0  0  0  0  0  0  0
  -23.5550  -31.9680   23.7880 O   0  0  0  0  0  0  0  0  0  0  0  0
  -22.8870  -29.4090   22.2490 C   0  0  0  0  0  0  0  0  0  0  0  0
  -21.5670  -29.1900   22.1330 N   0  0  0  0  0  0  0  0  0  0  0  0
  -23.6190  -28.7110   22.9550 O   0  0  0  0  0  0  0  0  0  0  0  0
  -21.0370  -29.8110   21.5390 H   0  0  0  0  0  0  0  0  0  0  0  0
  -18.2620  -27.7900   22.5290 C   0  0  0  0  0  0  0  0  0  0  0  0
  -20.8090  -28.1290   22.7940 C   0  0  0  0  0  3  0  0  0  0  0  0
  -20.9630  -26.7860   22.0460 C   0  0  0  0  0  2  0  0  0  0  0  0
  -19.8590  -26.5350   21.0160 C   0  0  0  0  0  2  0  0  0  0  0  0
  -18.4850  -26.5410   21.6920 C   0  0  0  0  0  2  0  0  0  0  0  0
  -19.3540  -28.5440   23.0340 C   0  0  0  0  0  0  0  0  0  0  0  0
  -19.0920  -29.7150   23.7780 C   0  0  0  0  0  3  0  0  0  0  0  0
  -17.7710  -30.1340   24.0200 C   0  0  0  0  0  3  0  0  0  0  0  0
  -16.6930  -29.3740   23.5330 C   0  0  0  0  0  3  0  0  0  0  0  0
  -16.9400  -28.2040   22.7940 C   0  0  0  0  0  3  0  0  0  0  0  0
  -25.9030  -32.4320   23.8810 C   0  0  0  0  0  3  0  0  0  0  0  0
  -26.4380  -31.5730   25.0910 C   0  0  1  0  0  0  0  0  0  0  0  0
  -25.3540  -31.2380   26.1420 C   0  0  0  0  0  1  0  0  0  0  0  0
  -27.0390  -30.2400   24.5890 C   0  0  0  0  0  1  0  0  0  0  0  0
  -27.5840  -32.3290   25.8060 C   0  0  0  0  0  1  0  0  0  0  0  0
  -25.5580  -33.7900   24.3180 N   0  0  0  0  0  0  0  0  0  0  0  0
  -25.8900  -34.9080   23.6580 C   0  0  0  0  0  0  0  0  0  0  0  0
  -26.5900  -34.9020   22.6420 O   0  0  0  0  0  0  0  0  0  0  0  0
  -24.9380  -33.8680   25.1110 H   0  0  0  0  0  0  0  0  0  0  0  0
  -24.1360  -36.6900   23.3980 C   0  0  0  0  0  1  0  0  0  0  0  0
  -25.3600  -36.2430   24.2130 C   0  0  0  0  0  3  0  0  0  0  0  0
  -27.4460  -37.0970   25.1890 C   0  0  0  0  0  1  0  0  0  0  0  0
  -26.3750  -37.3190   24.2210 N   0  0  0  0  0  0  0  0  0  0  0  0
  -25.9460  -38.2190   24.4240 H   0  0  0  0  0  0  0  0  0  0  0  0
  1 11  1  0
  1  3  1  0
  2  1  2  0
  3  6  1  0
  4  2  1  0
  5  2  1  0
  7  9  2  0
  7 11  1  0
  8 10  1  0
  9 12  1  0
 11  8  2  0
 12 21  1  0
 12 10  2  0
 13 21  1  0
 14 19  1  0
 15 16  1  0
 15 14  1  0
 17 16  1  0
 17 26  1  0
 17 18  1  0
 19 13  1  0
 19 18  1  0
 20 13  2  0
 21 22  1  0
 23 24  2  0
 24 43  1  0
 25 24  1  0
 25 28  1  0
 26 27  1  0
 26 23  1  0
 27 25  2  0
 28 29  1  0
 29 30  2  0
 31 34  1  0
 31 30  1  0
 32 31  2  0
 33 32  1  0
 33 28  2  0
 34 35  1  0
 35 40  2  0
 35 36  1  0
 36 37  2  0
 37 38  1  0
 38 42  1  0
 39 38  2  0
 40 39  1  0
 41 40  1  0
 43 44  1  0
 44 47  1  0
 44 46  1  0
 45 43  2  0
 48 23  1  0
 48 49  1  0
 50 48  1  0
 51  3  1  0
 52 53  1  0
 54 56  1  0
 54 55  1  0
 55 51  1  0
 55 52  1  0
 56 57  1  0
 56 53  1  0
 57 58  1  0
 58 60  1  0
 59 70  2  0
 60 65  1  0
 61 69  1  0
 61 71  1  0
 62 68  1  0
 62 64  1  0
 63 69  1  0
 64 63  1  0
 65 64  2  0
 66 67  1  0
 66 60  2  0
 67 62  2  0
 68 61  1  0
 69 59  1  0
 71 73  2  0
 72 71  1  0
 74 72  1  0
 75 84  2  0
 75 80  1  0
 76 72  1  0
 76 80  1  0
 77 76  1  0
 78 79  1  0
 78 77  1  0
 79 75  1  0
 80 81  2  0
 81 82  1  0
 83 82  2  0
 84 83  1  0
 85 59  1  0
 85 90  1  0
 85 86  1  0
 86 89  1  1
 86 87  1  0
 88 86  1  0
 90 93  1  0
 91 95  1  0
 91 90  1  0
 92 91  2  0
 95 94  1  0
 95 97  1  0
 97 98  1  0
 97 96  1  0
M  ISO  4  13 100  21 100  57 101  58 101
M  END
>  <TORSDO>  (58) 
F 20

>  <SCORE>  (58) 
-11.516

>  <name>  (58) 
57

>  <ligand_id>  (58) 
57

>  <original_smiles>  (58) 
[H]c1c([H])c([H])c2c(c1[H])C([H])([H])C([H])([H])C([H])([H])C2([H])N([H])C(=O)C1([H])N(C(=O)C([H])(N([H])C(=O)C([H])(N([H])C([H])([H])[H])C([H])([H])[H])C(C([H])([H])[H])(C([H])([H])[H])C([H])([H])[H])C([H])([H])c2c([H])c(OC([H])([H])C3([H])C([H])([H])C([H])([H])C([H])(C([H])([H])[N+]([H])=C(c4c([H])c([H])c(N([H])C(=O)N5C([H])([H])C([H])([H])C([H])([H])C([H])(n6nc(-c7c([H])c([H])c(Oc8c([H])c([H])c(F)c([H])c8F)c([H])c7[H])c(C(=O)N([H])[H])c6N([H])[H])C5([H])[H])c([H])c4[H])N([H])[H])C3([H])[H])c([H])c([H])c2C1([H])[H]

>  <smiles>  (58) 
[H]c1c([H])c([H])c2c(c1[H])C([H])([H])C([H])([H])C([H])([H])C2([H])N([H])C(=O)C1([H])N(C(=O)C([H])(N([H])C(=O)C([H])(N([H])C([H])([H])[H])C([H])([H])[H])C(C([H])([H])[H])(C([H])([H])[H])C([H])([H])[H])C([H])([H])c2c([H])c(OC([H])([H])C3([H])C([H])([H])C([H])([H])C([H])(C([H])([H])[N+]([H])=C(c4c([H])c([H])c(N([H])C(=O)N5C([H])([H])C([H])([H])C([H])([H])C([H])(n6nc(-c7c([H])c([H])c(Oc8c([H])c([H])c(F)c([H])c8F)c([H])c7[H])c(C(=O)N([H])[H])c6N([H])[H])C5([H])[H])c([H])c4[H])N([H])[H])C3([H])[H])c([H])c([H])c2C1([H])[H]

$$$$
58:0:0
     RDKit          3D

 92100  0  0  1  0  0  0  0  0999 V2000
  -29.8880  -22.1190   17.5100 C   0  0  0  0  0  0  0  0  0  0  0  0
  -28.5480  -23.7220   19.9940 C   0  0  0  0  0  0  0  0  0  0  0  0
  -29.5740  -23.5940   17.6420 C   0  0  0  0  0  2  0  0  0  0  0  0
  -30.3070  -21.4280   18.7930 C   0  0  0  0  0  2  0  0  0  0  0  0
  -28.3170  -23.8530   18.4920 C   0  0  0  0  0  2  0  0  0  0  0  0
  -29.1580  -21.2700   19.8240 C   0  0  0  0  0  3  0  0  0  0  0  0
  -28.9240  -22.5870   20.5610 N   0  0  0  0  0  0  0  0  0  0  0  0
  -29.7970  -21.5030   16.4070 N   0  0  0  0  0  0  0  0  0  0  0  0
  -29.4990  -22.1120   15.6510 H   0  0  0  0  0  0  0  0  0  0  0  0
  -28.1960  -25.0660   20.7940 C   0  0  0  0  0  2  0  0  0  0  0  0
  -28.3580  -26.4220   20.1770 O   0  0  0  0  0  0  0  0  0  0  0  0
  -24.6600  -31.8710   23.2270 C   0  0  0  0  0  0  0  0  0  0  0  0
  -27.2500  -27.2880   20.1770 C   0  0  0  0  0  0  0  0  0  0  0  0
  -23.4460  -30.4660   21.5990 C   0  0  0  0  0  3  0  0  0  0  0  0
  -24.8880  -28.9070   20.1710 C   0  0  0  0  0  0  0  0  0  0  0  0
  -25.9840  -30.7840   21.3950 C   0  0  0  0  0  2  0  0  0  0  0  0
  -26.0620  -29.4010   20.7540 C   0  0  0  0  0  0  0  0  0  0  0  0
  -27.2510  -28.6060   20.7400 C   0  0  0  0  0  3  0  0  0  0  0  0
  -26.0530  -26.8480   19.5750 C   0  0  0  0  0  3  0  0  0  0  0  0
  -24.8860  -27.6380   19.5700 C   0  0  0  0  0  3  0  0  0  0  0  0
  -23.6500  -29.7830   20.2210 C   0  0  0  0  0  2  0  0  0  0  0  0
  -24.7160  -31.0580   22.1300 N   0  0  0  0  0  0  0  0  0  0  0  0
  -23.5800  -32.1490   23.7700 O   0  0  0  0  0  0  0  0  0  0  0  0
  -22.7900  -29.4530   22.5690 C   0  0  0  0  0  0  0  0  0  0  0  0
  -21.4630  -29.2740   22.4510 N   0  0  0  0  0  0  0  0  0  0  0  0
  -23.4730  -28.8320   23.3860 O   0  0  0  0  0  0  0  0  0  0  0  0
  -20.9690  -29.8260   21.7640 H   0  0  0  0  0  0  0  0  0  0  0  0
  -18.0930  -28.0640   22.9670 C   0  0  0  0  0  0  0  0  0  0  0  0
  -20.6500  -28.3380   23.2300 C   0  0  0  0  0  3  0  0  0  0  0  0
  -20.7580  -26.9030   22.6650 C   0  0  0  0  0  2  0  0  0  0  0  0
  -19.6560  -26.5670   21.6550 C   0  0  0  0  0  2  0  0  0  0  0  0
  -18.2750  -26.7100   22.3010 C   0  0  0  0  0  2  0  0  0  0  0  0
  -19.2080  -28.8350   23.3890 C   0  0  0  0  0  0  0  0  0  0  0  0
  -18.9830  -30.1000   23.9740 C   0  0  0  0  0  3  0  0  0  0  0  0
  -17.6760  -30.5960   24.1390 C   0  0  0  0  0  3  0  0  0  0  0  0
  -16.5750  -29.8210   23.7330 C   0  0  0  0  0  3  0  0  0  0  0  0
  -16.7850  -28.5580   23.1540 C   0  0  0  0  0  3  0  0  0  0  0  0
  -25.9460  -32.5060   23.8400 C   0  0  0  0  0  3  0  0  0  0  0  0
  -26.4780  -31.7320   25.1090 C   0  0  1  0  0  0  0  0  0  0  0  0
  -25.3970  -31.4910   26.1880 C   0  0  0  0  0  1  0  0  0  0  0  0
  -27.0590  -30.3570   24.7080 C   0  0  0  0  0  1  0  0  0  0  0  0
  -27.6340  -32.5270   25.7590 C   0  0  0  0  0  1  0  0  0  0  0  0
  -25.6350  -33.9020   24.1790 N   0  0  0  0  0  0  0  0  0  0  0  0
  -25.9530  -34.9600   23.4210 C   0  0  0  0  0  0  0  0  0  0  0  0
  -26.6090  -34.8640   22.3810 O   0  0  0  0  0  0  0  0  0  0  0  0
  -25.0530  -34.0500   24.9900 H   0  0  0  0  0  0  0  0  0  0  0  0
  -24.2110  -36.7470   23.1010 C   0  0  0  0  0  1  0  0  0  0  0  0
  -25.4660  -36.3450   23.8920 C   0  0  0  0  0  3  0  0  0  0  0  0
  -27.6110  -37.2350   24.6890 C   0  0  0  0  0  1  0  0  0  0  0  0
  -26.4920  -37.4030   23.7660 N   0  0  0  0  0  0  0  0  0  0  0  0
  -26.0850  -38.3210   23.9250 H   0  0  0  0  0  0  0  0  0  0  0  0
  -29.5020  -19.9920   20.7590 C   0  0  0  0  0  2  0  0  0  0  0  0
  -29.3720  -18.4780   20.1900 C   0  0  0  0  0  3  0  0  0  0  0  0
  -30.1790  -17.2710   20.8980 C   0  0  0  0  0  3  0  0  0  0  0  0
  -30.5600  -14.7050   20.4010 C   0  0  0  0  0  0  0  0  0  0  0  0
  -30.3520  -12.4470   19.3540 C   0  0  0  0  0  2  0  0  0  0  0  0
  -29.4050  -12.5370   18.1370 C   0  0  0  0  0  2  0  0  0  0  0  0
  -27.9340  -12.3690   18.5730 C   0  0  0  0  0  2  0  0  0  0  0  0
  -27.5710  -13.2460   19.8000 C   0  0  0  0  0  3  0  0  0  0  0  0
  -28.6340  -13.1350   20.9140 C   0  0  0  0  0  2  0  0  0  0  0  0
  -29.9290  -13.4860   20.3150 N   0  0  0  0  0  0  0  0  0  0  0  0
  -31.7470  -14.8170   20.0830 O   0  0  0  0  0  0  0  0  0  0  0  0
  -29.7830  -15.8190   20.6580 N   0  0  0  0  0  0  0  0  0  0  0  0
  -28.8080  -15.6100   20.8170 H   0  0  0  0  0  0  0  0  0  0  0  0
  -25.1850  -13.8410   20.5350 C   0  0  0  0  0  0  0  0  0  0  0  0
  -24.1200  -13.0680   20.9090 C   0  0  0  0  0  0  0  0  0  0  0  0
  -24.5830  -11.7160   20.8780 C   0  0  0  0  0  0  0  0  0  0  0  0
  -26.2280  -12.9610   20.2960 N   0  0  0  0  0  0  0  0  0  0  0  0
  -25.8730  -11.6780   20.5660 N   0  0  0  0  0  0  0  0  0  0  0  0
  -23.8570  -10.4540   21.0710 C   0  0  0  0  0  0  0  0  0  0  0  0
  -24.3040   -9.4770   21.9870 C   0  0  0  0  0  3  0  0  0  0  0  0
  -23.5780   -8.2800   22.1680 C   0  0  0  0  0  3  0  0  0  0  0  0
  -22.3910   -8.0520   21.4320 C   0  0  0  0  0  0  0  0  0  0  0  0
  -21.9630   -9.0180   20.5060 C   0  0  0  0  0  3  0  0  0  0  0  0
  -22.6890  -10.2060   20.3220 C   0  0  0  0  0  3  0  0  0  0  0  0
  -21.6340   -6.9080   21.5240 O   0  0  0  0  0  0  0  0  0  0  0  0
  -21.6200   -6.1450   22.6640 C   0  0  0  0  0  0  0  0  0  0  0  0
  -21.2480   -6.6810   23.9160 C   0  0  0  0  0  3  0  0  0  0  0  0
  -21.1800   -5.8440   25.0490 C   0  0  0  0  0  3  0  0  0  0  0  0
  -21.4730   -4.4720   24.9290 C   0  0  0  0  0  0  0  0  0  0  0  0
  -21.8360   -3.9360   23.6820 C   0  0  0  0  0  3  0  0  0  0  0  0
  -21.9060   -4.7700   22.5520 C   0  0  0  0  0  0  0  0  0  0  0  0
  -22.2370   -4.2420   21.3490 F   0  0  0  0  0  0  0  0  0  0  0  0
  -21.3990   -3.6670   26.0140 F   0  0  0  0  0  0  0  0  0  0  0  0
  -22.7220  -13.5440   21.1800 C   0  0  0  0  0  0  0  0  0  0  0  0
  -21.9960  -12.8510   22.0490 N   0  0  0  0  0  0  0  0  0  0  0  0
  -22.2840  -14.5690   20.6580 O   0  0  0  0  0  0  0  0  0  0  0  0
  -22.3640  -12.0220   22.4950 H   0  0  0  0  0  0  0  0  0  0  0  0
  -21.0580  -13.1510   22.2740 H   0  0  0  0  0  0  0  0  0  0  0  0
  -25.3460  -15.2110   20.3530 N   0  0  0  0  0  0  0  0  0  0  0  0
  -24.5740  -15.8610   20.4580 H   0  0  0  0  0  0  0  0  0  0  0  0
  -26.1830  -15.6500   19.9900 H   0  0  0  0  0  0  0  0  0  0  0  0
  1  3  1  0
  1  4  1  0
  2  7  2  0
  2 10  1  0
  3  5  1  0
  4  6  1  0
  5  2  1  0
  6  7  1  0
  6 52  1  0
  8  1  2  0
  9  8  1  0
 11 10  1  0
 12 23  2  0
 13 11  1  0
 13 18  1  0
 14 22  1  0
 14 24  1  0
 15 21  1  0
 15 17  1  0
 16 22  1  0
 17 16  1  0
 18 17  2  0
 19 13  2  0
 20 19  1  0
 20 15  2  0
 21 14  1  0
 22 12  1  0
 24 26  2  0
 25 24  1  0
 27 25  1  0
 28 37  2  0
 28 33  1  0
 29 25  1  0
 29 33  1  0
 30 29  1  0
 31 32  1  0
 31 30  1  0
 32 28  1  0
 33 34  2  0
 34 35  1  0
 36 35  2  0
 37 36  1  0
 38 12  1  0
 38 43  1  0
 38 39  1  0
 39 42  1  1
 39 40  1  0
 41 39  1  0
 43 46  1  0
 44 48  1  0
 44 43  1  0
 45 44  2  0
 48 47  1  0
 50 48  1  0
 50 51  1  0
 50 49  1  0
 53 52  1  0
 53 54  2  0
 55 63  1  0
 56 61  1  0
 57 58  1  0
 57 56  1  0
 59 58  1  0
 59 68  1  0
 59 60  1  0
 61 55  1  0
 61 60  1  0
 62 55  2  0
 63 64  1  0
 63 54  1  0
 65 66  2  0
 66 85  1  0
 67 66  1  0
 67 70  1  0
 68 65  1  0
 68 69  1  0
 69 67  2  0
 70 71  1  0
 71 72  2  0
 73 76  1  0
 73 72  1  0
 74 73  2  0
 75 74  1  0
 75 70  2  0
 76 77  1  0
 77 78  1  0
 78 79  2  0
 80 79  1  0
 80 84  1  0
 81 80  2  0
 82 77  2  0
 82 81  1  0
 83 82  1  0
 85 86  1  0
 86 89  1  0
 86 88  1  0
 87 85  2  0
 90 91  1  0
 90 65  1  0
 92 90  1  0
M  ISO  4  10 101  11 101  55 100  63 100
M  END
>  <TORSDO>  (59) 
F 20

>  <SCORE>  (59) 
-13.787

>  <name>  (59) 
58

>  <ligand_id>  (59) 
58

>  <original_smiles>  (59) 
[H]N=C1C([H])([H])C([H])([H])C(C([H])([H])Oc2c([H])c([H])c3c(c2[H])C([H])([H])N(C(=O)C([H])(N([H])C(=O)C([H])(N([H])C([H])([H])[H])C([H])([H])[H])C(C([H])([H])[H])(C([H])([H])[H])C([H])([H])[H])C([H])(C(=O)N([H])C2([H])c4c([H])c([H])c([H])c([H])c4C([H])([H])C([H])([H])C2([H])[H])C3([H])[H])=NC([H])(C([H])([H])C([H])([H])C([H])([H])N([H])C(=O)N2C([H])([H])C([H])([H])C([H])([H])C([H])(n3nc(-c4c([H])c([H])c(Oc5c([H])c([H])c(F)c([H])c5F)c([H])c4[H])c(C(=O)N([H])[H])c3N([H])[H])C2([H])[H])C1([H])[H]

>  <smiles>  (59) 
[H]N=C1C([H])([H])C([H])([H])C(C([H])([H])Oc2c([H])c([H])c3c(c2[H])C([H])([H])N(C(=O)C([H])(N([H])C(=O)C([H])(N([H])C([H])([H])[H])C([H])([H])[H])C(C([H])([H])[H])(C([H])([H])[H])C([H])([H])[H])C([H])(C(=O)N([H])C2([H])c4c([H])c([H])c([H])c([H])c4C([H])([H])C([H])([H])C2([H])[H])C3([H])[H])=NC([H])(C([H])([H])C([H])([H])C([H])([H])N([H])C(=O)N2C([H])([H])C([H])([H])C([H])([H])C([H])(n3nc(-c4c([H])c([H])c(Oc5c([H])c([H])c(F)c([H])c5F)c([H])c4[H])c(C(=O)N([H])[H])c3N([H])[H])C2([H])[H])C1([H])[H]

$$$$
59:0:0
     RDKit          3D

 89 97  0  0  1  0  0  0  0  0999 V2000
  -30.2760  -22.0480   20.1980 C   0  0  0  0  0  3  0  0  0  0  0  0
  -28.5960  -20.3390   20.3040 C   0  0  0  0  0  3  0  0  0  0  0  0
  -30.8440  -19.5310   20.1600 C   0  0  0  0  0  3  0  0  0  0  0  0
  -28.8650  -21.9570   20.2830 C   0  0  0  0  0  0  0  0  0  0  0  0
  -31.1820  -20.9310   20.1380 C   0  0  0  0  0  0  0  0  0  0  0  0
  -29.5330  -18.9950   20.2480 C   0  0  0  0  0  0  0  0  0  0  0  0
  -30.2010  -15.8470   20.1570 C   0  0  0  0  0  0  0  0  0  0  0  0
  -30.3500  -13.2850   19.3090 C   0  0  0  0  0  2  0  0  0  0  0  0
  -29.4570  -12.8230   18.1170 C   0  0  0  0  0  2  0  0  0  0  0  0
  -28.0490  -12.4290   18.5900 C   0  0  0  0  0  2  0  0  0  0  0  0
  -27.5330  -13.4140   19.6630 C   0  0  0  0  0  3  0  0  0  0  0  0
  -28.5740  -13.7650   20.7550 C   0  0  0  0  0  2  0  0  0  0  0  0
  -29.7050  -14.4540   20.0790 N   0  0  0  0  0  0  0  0  0  0  0  0
  -31.4340  -15.7760   19.9680 O   0  0  0  0  0  0  0  0  0  0  0  0
  -29.4190  -17.2330   20.2600 N   0  0  0  0  0  0  0  0  0  0  0  0
  -28.4490  -16.9720   20.3690 H   0  0  0  0  0  0  0  0  0  0  0  0
  -25.1880  -13.8970   20.4920 C   0  0  0  0  0  0  0  0  0  0  0  0
  -24.1480  -13.0980   20.8710 C   0  0  0  0  0  0  0  0  0  0  0  0
  -24.6340  -11.7560   20.8090 C   0  0  0  0  0  0  0  0  0  0  0  0
  -26.2360  -13.0440   20.2080 N   0  0  0  0  0  0  0  0  0  0  0  0
  -25.9210  -11.7470   20.4680 N   0  0  0  0  0  0  0  0  0  0  0  0
  -23.9250  -10.4820   20.9940 C   0  0  0  0  0  0  0  0  0  0  0  0
  -24.3670   -9.5160   21.9240 C   0  0  0  0  0  3  0  0  0  0  0  0
  -23.6530   -8.3100   22.1010 C   0  0  0  0  0  3  0  0  0  0  0  0
  -22.4810   -8.0630   21.3480 C   0  0  0  0  0  0  0  0  0  0  0  0
  -22.0560   -9.0180   20.4070 C   0  0  0  0  0  3  0  0  0  0  0  0
  -22.7710  -10.2140   20.2280 C   0  0  0  0  0  3  0  0  0  0  0  0
  -21.7360   -6.9120   21.4360 O   0  0  0  0  0  0  0  0  0  0  0  0
  -21.6780   -6.1780   22.5930 C   0  0  0  0  0  0  0  0  0  0  0  0
  -21.1980   -6.7290   23.8030 C   0  0  0  0  0  3  0  0  0  0  0  0
  -21.0900   -5.9180   24.9510 C   0  0  0  0  0  3  0  0  0  0  0  0
  -21.4500   -4.5580   24.8910 C   0  0  0  0  0  0  0  0  0  0  0  0
  -21.9230   -4.0070   23.6870 C   0  0  0  0  0  3  0  0  0  0  0  0
  -22.0340   -4.8140   22.5410 C   0  0  0  0  0  0  0  0  0  0  0  0
  -22.4680   -4.2730   21.3770 F   0  0  0  0  0  0  0  0  0  0  0  0
  -21.3390   -3.7790   25.9900 F   0  0  0  0  0  0  0  0  0  0  0  0
  -22.7500  -13.5540   21.1680 C   0  0  0  0  0  0  0  0  0  0  0  0
  -22.0470  -12.8460   22.0430 N   0  0  0  0  0  0  0  0  0  0  0  0
  -22.2930  -14.5770   20.6600 O   0  0  0  0  0  0  0  0  0  0  0  0
  -22.4330  -12.0230   22.4810 H   0  0  0  0  0  0  0  0  0  0  0  0
  -21.1060  -13.1320   22.2790 H   0  0  0  0  0  0  0  0  0  0  0  0
  -25.3250  -15.2720   20.3310 N   0  0  0  0  0  0  0  0  0  0  0  0
  -24.5500  -15.9120   20.4690 H   0  0  0  0  0  0  0  0  0  0  0  0
  -26.1460  -15.7190   19.9490 H   0  0  0  0  0  0  0  0  0  0  0  0
  -32.5390  -21.2410   20.0520 N   0  0  0  0  0  0  0  0  0  0  0  0
  -32.8090  -22.1840   19.7870 H   0  0  0  0  0  0  0  0  0  0  0  0
  -33.1710  -20.5380   19.6780 H   0  0  0  0  0  0  0  0  0  0  0  0
  -27.8980  -23.6130   20.3050 C   0  0  0  0  0  2  0  0  0  0  0  0
  -28.1280  -25.4110   20.3470 O   0  0  0  0  0  0  0  0  0  0  0  0
  -24.6770  -31.8700   23.2390 C   0  0  0  0  0  0  0  0  0  0  0  0
  -27.1760  -26.6760   20.2990 C   0  0  0  0  0  0  0  0  0  0  0  0
  -23.4880  -30.4660   21.6110 C   0  0  0  0  0  3  0  0  0  0  0  0
  -24.9300  -28.7840   20.2160 C   0  0  0  0  0  0  0  0  0  0  0  0
  -26.0710  -30.5680   21.5010 C   0  0  0  0  0  2  0  0  0  0  0  0
  -26.1290  -29.1200   20.8560 C   0  0  0  0  0  0  0  0  0  0  0  0
  -27.2320  -28.0990   20.8580 C   0  0  0  0  0  3  0  0  0  0  0  0
  -25.9410  -26.5770   19.6010 C   0  0  0  0  0  3  0  0  0  0  0  0
  -24.8810  -27.5390   19.5630 C   0  0  0  0  0  3  0  0  0  0  0  0
  -23.7310  -29.7510   20.2480 C   0  0  0  0  0  2  0  0  0  0  0  0
  -24.7700  -31.0030   22.1690 N   0  0  0  0  0  0  0  0  0  0  0  0
  -23.5830  -32.1820   23.7410 O   0  0  0  0  0  0  0  0  0  0  0  0
  -22.7570  -29.5050   22.5890 C   0  0  0  0  0  0  0  0  0  0  0  0
  -21.4230  -29.3610   22.4660 N   0  0  0  0  0  0  0  0  0  0  0  0
  -23.4060  -28.8860   23.4370 O   0  0  0  0  0  0  0  0  0  0  0  0
  -20.9470  -29.9090   21.7610 H   0  0  0  0  0  0  0  0  0  0  0  0
  -18.0280  -28.1680   22.9900 C   0  0  0  0  0  0  0  0  0  0  0  0
  -20.5900  -28.4360   23.2450 C   0  0  0  0  0  3  0  0  0  0  0  0
  -20.6860  -26.9970   22.6850 C   0  0  0  0  0  2  0  0  0  0  0  0
  -19.5830  -26.6690   21.6740 C   0  0  0  0  0  2  0  0  0  0  0  0
  -18.2030  -26.8170   22.3170 C   0  0  0  0  0  2  0  0  0  0  0  0
  -19.1480  -28.9350   23.4110 C   0  0  0  0  0  0  0  0  0  0  0  0
  -18.9260  -30.1950   24.0070 C   0  0  0  0  0  3  0  0  0  0  0  0
  -17.6200  -30.6920   24.1810 C   0  0  0  0  0  3  0  0  0  0  0  0
  -16.5160  -29.9240   23.7720 C   0  0  0  0  0  3  0  0  0  0  0  0
  -16.7210  -28.6640   23.1830 C   0  0  0  0  0  3  0  0  0  0  0  0
  -25.9400  -32.5230   23.8790 C   0  0  0  0  0  3  0  0  0  0  0  0
  -25.6200  -33.9280   24.2040 N   0  0  0  0  0  0  0  0  0  0  0  0
  -25.9300  -34.9890   23.4470 C   0  0  0  0  0  0  0  0  0  0  0  0
  -26.5720  -34.8900   22.3980 O   0  0  0  0  0  0  0  0  0  0  0  0
  -25.0470  -34.0780   25.0210 H   0  0  0  0  0  0  0  0  0  0  0  0
  -24.1780  -36.7820   23.1760 C   0  0  0  0  0  1  0  0  0  0  0  0
  -25.4600  -36.3820   23.9240 C   0  0  0  0  0  3  0  0  0  0  0  0
  -27.6240  -37.2910   24.6510 C   0  0  0  0  0  1  0  0  0  0  0  0
  -26.4800  -37.4420   23.7570 N   0  0  0  0  0  0  0  0  0  0  0  0
  -26.0730  -38.3590   23.9180 H   0  0  0  0  0  0  0  0  0  0  0  0
  -26.4280  -31.7740   25.1810 C   0  0  1  0  0  0  0  0  0  0  0  0
  -25.3170  -31.5660   26.2370 C   0  0  0  0  0  1  0  0  0  0  0  0
  -27.0070  -30.3840   24.8400 C   0  0  0  0  0  1  0  0  0  0  0  0
  -27.5750  -32.5740   25.8460 C   0  0  0  0  0  1  0  0  0  0  0  0
  1  4  1  0
  3  6  2  0
  4  2  2  0
  4 48  1  0
  5  3  1  0
  5  1  2  0
  6 15  1  0
  6  2  1  0
  7 15  1  0
  8 13  1  0
  9 10  1  0
  9  8  1  0
 11 10  1  0
 11 20  1  0
 11 12  1  0
 13  7  1  0
 13 12  1  0
 14  7  2  0
 15 16  1  0
 17 18  2  0
 18 37  1  0
 19 18  1  0
 19 22  1  0
 20 21  1  0
 20 17  1  0
 21 19  2  0
 22 23  1  0
 23 24  2  0
 25 28  1  0
 25 24  1  0
 26 25  2  0
 27 26  1  0
 27 22  2  0
 28 29  1  0
 29 30  1  0
 30 31  2  0
 32 31  1  0
 32 36  1  0
 33 32  2  0
 34 29  2  0
 34 33  1  0
 35 34  1  0
 37 38  1  0
 38 41  1  0
 38 40  1  0
 39 37  2  0
 42 43  1  0
 42 17  1  0
 44 42  1  0
 45  5  1  0
 46 45  1  0
 47 45  1  0
 48 49  1  0
 50 61  2  0
 51 49  1  0
 51 56  1  0
 52 60  1  0
 52 62  1  0
 53 59  1  0
 53 55  1  0
 54 60  1  0
 55 56  2  0
 55 54  1  0
 57 51  2  0
 58 57  1  0
 58 53  2  0
 59 52  1  0
 60 50  1  0
 62 64  2  0
 63 62  1  0
 65 63  1  0
 66 75  2  0
 66 71  1  0
 67 63  1  0
 67 71  1  0
 68 67  1  0
 69 70  1  0
 69 68  1  0
 70 66  1  0
 71 72  2  0
 72 73  1  0
 74 73  2  0
 75 74  1  0
 76 50  1  0
 76 77  1  0
 76 86  1  0
 77 80  1  0
 78 82  1  0
 78 77  1  0
 79 78  2  0
 82 81  1  0
 84 85  1  0
 84 82  1  0
 84 83  1  0
 86 89  1  1
 86 87  1  0
 88 86  1  0
M  ISO  4   7 100  15 100  48 101  49 101
M  END
>  <TORSDO>  (60) 
F 18

>  <SCORE>  (60) 
-16.317

>  <name>  (60) 
59

>  <ligand_id>  (60) 
59

>  <original_smiles>  (60) 
[H]c1c([H])c([H])c2c(c1[H])C([H])([H])C([H])([H])C([H])([H])C2([H])N([H])C(=O)C1([H])N(C(=O)C([H])(N([H])C(=O)C([H])(N([H])C([H])([H])[H])C([H])([H])[H])C(C([H])([H])[H])(C([H])([H])[H])C([H])([H])[H])C([H])([H])c2c([H])c(OC([H])([H])c3c([H])c(N([H])[H])c([H])c(N([H])C(=O)N4C([H])([H])C([H])([H])C([H])([H])C([H])(n5nc(-c6c([H])c([H])c(Oc7c([H])c([H])c(F)c([H])c7F)c([H])c6[H])c(C(=O)N([H])[H])c5N([H])[H])C4([H])[H])c3[H])c([H])c([H])c2C1([H])[H]

>  <smiles>  (60) 
[H]c1c([H])c([H])c2c(c1[H])C([H])([H])C([H])([H])C([H])([H])C2([H])N([H])C(=O)C1([H])N(C(=O)C([H])(N([H])C(=O)C([H])(N([H])C([H])([H])[H])C([H])([H])[H])C(C([H])([H])[H])(C([H])([H])[H])C([H])([H])[H])C([H])([H])c2c([H])c(OC([H])([H])c3c([H])c(N([H])[H])c([H])c(N([H])C(=O)N4C([H])([H])C([H])([H])C([H])([H])C([H])(n5nc(-c6c([H])c([H])c(Oc7c([H])c([H])c(F)c([H])c7F)c([H])c6[H])c(C(=O)N([H])[H])c5N([H])[H])C4([H])[H])c3[H])c([H])c([H])c2C1([H])[H]

$$$$
60:0:0
     RDKit          3D

 93102  0  0  1  0  0  0  0  0999 V2000
  -30.6270  -20.6760   21.0770 C   0  0  0  0  0  2  0  0  0  0  0  0
  -32.8240  -21.8640   21.0710 C   0  0  0  0  0  2  0  0  0  0  0  0
  -29.8730  -21.9760   20.7930 C   0  0  0  0  0  2  0  0  0  0  0  0
  -32.1300  -23.2080   20.7670 C   0  0  0  0  0  2  0  0  0  0  0  0
  -32.0230  -20.7240   20.4320 C   0  0  0  0  0  3  0  0  0  0  0  0
  -30.6490  -23.2410   21.2270 C   0  0  0  0  0  3  0  0  0  0  0  0
  -32.7170  -19.3560   20.4570 C   0  0  0  0  0  2  0  0  0  0  0  0
  -30.7250  -14.4760   20.4270 C   0  0  0  0  0  0  0  0  0  0  0  0
  -30.3750  -12.2660   19.4480 C   0  0  0  0  0  2  0  0  0  0  0  0
  -29.4760  -12.3990   18.2040 C   0  0  0  0  0  2  0  0  0  0  0  0
  -27.9830  -12.3560   18.5920 C   0  0  0  0  0  2  0  0  0  0  0  0
  -27.6150  -13.2250   19.8270 C   0  0  0  0  0  3  0  0  0  0  0  0
  -28.6610  -13.1120   20.9610 C   0  0  0  0  0  2  0  0  0  0  0  0
  -29.9930  -13.3320   20.3800 N   0  0  0  0  0  0  0  0  0  0  0  0
  -31.9410  -14.4940   20.2310 O   0  0  0  0  0  0  0  0  0  0  0  0
  -31.2110  -17.5180   19.5180 C   0  0  0  0  0  0  0  0  0  0  0  0
  -32.0980  -18.5110   19.3640 C   0  0  0  0  0  3  0  0  0  0  0  0
  -30.4760  -16.8890   18.3780 C   0  0  0  0  0  2  0  0  0  0  0  0
  -30.7260  -16.8800   20.8060 C   0  0  0  0  0  2  0  0  0  0  0  0
  -29.4480  -16.0180   19.0910 C   0  0  0  0  0  2  0  0  0  0  0  0
  -30.0350  -15.6440   20.3920 N   0  0  0  0  0  0  0  0  0  0  0  0
  -25.2110  -13.8480   20.4770 C   0  0  0  0  0  0  0  0  0  0  0  0
  -24.1310  -13.0840   20.8300 C   0  0  0  0  0  0  0  0  0  0  0  0
  -24.5910  -11.7320   20.8330 C   0  0  0  0  0  0  0  0  0  0  0  0
  -26.2580  -12.9590   20.2910 N   0  0  0  0  0  0  0  0  0  0  0  0
  -25.8890  -11.6840   20.5660 N   0  0  0  0  0  0  0  0  0  0  0  0
  -23.8620  -10.4720   21.0220 C   0  0  0  0  0  0  0  0  0  0  0  0
  -24.2840   -9.5130   21.9700 C   0  0  0  0  0  3  0  0  0  0  0  0
  -23.5550   -8.3180   22.1480 C   0  0  0  0  0  3  0  0  0  0  0  0
  -22.3910   -8.0750   21.3800 C   0  0  0  0  0  0  0  0  0  0  0  0
  -21.9900   -9.0230   20.4210 C   0  0  0  0  0  3  0  0  0  0  0  0
  -22.7180  -10.2110   20.2420 C   0  0  0  0  0  3  0  0  0  0  0  0
  -21.6340   -6.9320   21.4670 O   0  0  0  0  0  0  0  0  0  0  0  0
  -21.5810   -6.1910   22.6210 C   0  0  0  0  0  0  0  0  0  0  0  0
  -21.1660   -6.7550   23.8480 C   0  0  0  0  0  3  0  0  0  0  0  0
  -21.0590   -5.9430   24.9960 C   0  0  0  0  0  3  0  0  0  0  0  0
  -21.3560   -4.5690   24.9150 C   0  0  0  0  0  0  0  0  0  0  0  0
  -21.7620   -4.0050   23.6930 C   0  0  0  0  0  3  0  0  0  0  0  0
  -21.8710   -4.8150   22.5490 C   0  0  0  0  0  0  0  0  0  0  0  0
  -22.2440   -4.2630   21.3690 F   0  0  0  0  0  0  0  0  0  0  0  0
  -21.2430   -3.7860   26.0140 F   0  0  0  0  0  0  0  0  0  0  0  0
  -22.7280  -13.5670   21.0570 C   0  0  0  0  0  0  0  0  0  0  0  0
  -21.9810  -12.8810   21.9150 N   0  0  0  0  0  0  0  0  0  0  0  0
  -22.3080  -14.5850   20.5090 O   0  0  0  0  0  0  0  0  0  0  0  0
  -22.3350  -12.0510   22.3680 H   0  0  0  0  0  0  0  0  0  0  0  0
  -21.0390  -13.1870   22.1180 H   0  0  0  0  0  0  0  0  0  0  0  0
  -25.3860  -15.2130   20.2730 N   0  0  0  0  0  0  0  0  0  0  0  0
  -24.6240  -15.8800   20.3300 H   0  0  0  0  0  0  0  0  0  0  0  0
  -26.2580  -15.6360   19.9810 H   0  0  0  0  0  0  0  0  0  0  0  0
  -29.8770  -24.4630   20.6910 C   0  0  0  0  0  2  0  0  0  0  0  0
  -30.4300  -25.8480   21.0660 C   0  0  0  0  0  2  0  0  0  0  0  0
  -29.3380  -26.9370   21.0740 C   0  0  0  0  0  2  0  0  0  0  0  0
  -28.3690  -26.7200   20.0430 O   0  0  0  0  0  0  0  0  0  0  0  0
  -24.5790  -31.8720   23.2150 C   0  0  0  0  0  0  0  0  0  0  0  0
  -27.2070  -27.4630   20.1120 C   0  0  0  0  0  0  0  0  0  0  0  0
  -23.3430  -30.4680   21.5880 C   0  0  0  0  0  3  0  0  0  0  0  0
  -24.7800  -28.9200   20.1530 C   0  0  0  0  0  0  0  0  0  0  0  0
  -25.8590  -30.8330   21.3540 C   0  0  0  0  0  2  0  0  0  0  0  0
  -25.9350  -29.4600   20.7280 C   0  0  0  0  0  0  0  0  0  0  0  0
  -27.1430  -28.7370   20.7190 C   0  0  0  0  0  3  0  0  0  0  0  0
  -26.0380  -26.9290   19.5290 C   0  0  0  0  0  3  0  0  0  0  0  0
  -24.8200  -27.6460   19.5530 C   0  0  0  0  0  3  0  0  0  0  0  0
  -23.5340  -29.7730   20.2110 C   0  0  0  0  0  2  0  0  0  0  0  0
  -24.6110  -31.0720   22.1110 N   0  0  0  0  0  0  0  0  0  0  0  0
  -23.5080  -32.1530   23.7700 O   0  0  0  0  0  0  0  0  0  0  0  0
  -22.7010  -29.4570   22.5640 C   0  0  0  0  0  0  0  0  0  0  0  0
  -21.3750  -29.2780   22.4500 N   0  0  0  0  0  0  0  0  0  0  0  0
  -23.3920  -28.8360   23.3760 O   0  0  0  0  0  0  0  0  0  0  0  0
  -20.8790  -29.8300   21.7650 H   0  0  0  0  0  0  0  0  0  0  0  0
  -18.0060  -28.0860   22.9780 C   0  0  0  0  0  0  0  0  0  0  0  0
  -20.5650  -28.3440   23.2320 C   0  0  0  0  0  3  0  0  0  0  0  0
  -20.6670  -26.9100   22.6640 C   0  0  0  0  0  2  0  0  0  0  0  0
  -19.5590  -26.5810   21.6590 C   0  0  0  0  0  2  0  0  0  0  0  0
  -18.1800  -26.7320   22.3080 C   0  0  0  0  0  2  0  0  0  0  0  0
  -19.1280  -28.8490   23.3960 C   0  0  0  0  0  0  0  0  0  0  0  0
  -18.9160  -30.1180   23.9800 C   0  0  0  0  0  3  0  0  0  0  0  0
  -17.6140  -30.6230   24.1470 C   0  0  0  0  0  3  0  0  0  0  0  0
  -16.5050  -29.8570   23.7460 C   0  0  0  0  0  3  0  0  0  0  0  0
  -16.7020  -28.5890   23.1670 C   0  0  0  0  0  3  0  0  0  0  0  0
  -25.8810  -32.4930   23.8140 C   0  0  0  0  0  3  0  0  0  0  0  0
  -26.4280  -31.7060   25.0690 C   0  0  1  0  0  0  0  0  0  0  0  0
  -25.3600  -31.4650   26.1600 C   0  0  0  0  0  1  0  0  0  0  0  0
  -26.9940  -30.3300   24.6470 C   0  0  0  0  0  1  0  0  0  0  0  0
  -27.5970  -32.4890   25.7100 C   0  0  0  0  0  1  0  0  0  0  0  0
  -25.5830  -33.8910   24.1610 N   0  0  0  0  0  0  0  0  0  0  0  0
  -25.9090  -34.9480   23.4050 C   0  0  0  0  0  0  0  0  0  0  0  0
  -26.5620  -34.8510   22.3640 O   0  0  0  0  0  0  0  0  0  0  0  0
  -25.0010  -34.0410   24.9720 H   0  0  0  0  0  0  0  0  0  0  0  0
  -24.1790  -36.7450   23.0830 C   0  0  0  0  0  1  0  0  0  0  0  0
  -25.4290  -36.3320   23.8790 C   0  0  0  0  0  3  0  0  0  0  0  0
  -27.5780  -37.1980   24.6890 C   0  0  0  0  0  1  0  0  0  0  0  0
  -26.4620  -37.3830   23.7650 N   0  0  0  0  0  0  0  0  0  0  0  0
  -26.0620  -38.3020   23.9350 H   0  0  0  0  0  0  0  0  0  0  0  0
  3  1  1  0
  3  6  1  0
  4  2  1  0
  4  6  1  0
  5  7  1  0
  5  2  1  0
  5  1  1  0
  6 50  1  0
  9 14  1  0
 10 11  1  0
 10  9  1  0
 12 11  1  0
 12 25  1  0
 12 13  1  0
 14  8  1  0
 14 13  1  0
 15  8  2  0
 16 19  1  0
 17 16  2  0
 17  7  1  0
 18 20  1  0
 18 16  1  0
 20 21  1  0
 21  8  1  0
 21 19  1  0
 22 23  2  0
 23 24  1  0
 23 42  1  0
 24 27  1  0
 25 22  1  0
 25 26  1  0
 26 24  2  0
 27 28  1  0
 28 29  2  0
 30 33  1  0
 30 29  1  0
 31 30  2  0
 32 31  1  0
 32 27  2  0
 33 34  1  0
 34 35  1  0
 35 36  2  0
 37 36  1  0
 37 41  1  0
 38 37  2  0
 39 34  2  0
 39 38  1  0
 40 39  1  0
 42 43  1  0
 43 46  1  0
 43 45  1  0
 44 42  2  0
 47 48  1  0
 47 22  1  0
 49 47  1  0
 50 51  1  0
 51 52  1  0
 53 55  1  0
 53 52  1  0
 54 65  2  0
 55 60  1  0
 56 64  1  0
 56 66  1  0
 57 63  1  0
 57 59  1  0
 58 64  1  0
 59 58  1  0
 60 59  2  0
 61 62  1  0
 61 55  2  0
 62 57  2  0
 63 56  1  0
 64 54  1  0
 66 68  2  0
 67 66  1  0
 69 67  1  0
 70 79  2  0
 70 75  1  0
 71 67  1  0
 71 75  1  0
 72 71  1  0
 73 74  1  0
 73 72  1  0
 74 70  1  0
 75 76  2  0
 76 77  1  0
 78 77  2  0
 79 78  1  0
 80 54  1  0
 80 85  1  0
 80 81  1  0
 81 84  1  1
 81 82  1  0
 83 81  1  0
 85 88  1  0
 86 90  1  0
 86 85  1  0
 87 86  2  0
 90 89  1  0
 92 90  1  0
 92 93  1  0
 92 91  1  0
M  ISO  4   8 100  21 100  52 101  53 101
M  END
>  <TORSDO>  (61) 
F 20

>  <SCORE>  (61) 
-13.247

>  <name>  (61) 
60

>  <ligand_id>  (61) 
60

>  <original_smiles>  (61) 
[H]C(=C1C([H])([H])N(C(=O)N2C([H])([H])C([H])([H])C([H])([H])C([H])(n3nc(-c4c([H])c([H])c(Oc5c([H])c([H])c(F)c([H])c5F)c([H])c4[H])c(C(=O)N([H])[H])c3N([H])[H])C2([H])[H])C([H])([H])C1([H])[H])C([H])([H])C1([H])C([H])([H])C([H])([H])C([H])(C([H])([H])C([H])([H])C([H])([H])Oc2c([H])c([H])c3c(c2[H])C([H])([H])N(C(=O)C([H])(N([H])C(=O)C([H])(N([H])C([H])([H])[H])C([H])([H])[H])C(C([H])([H])[H])(C([H])([H])[H])C([H])([H])[H])C([H])(C(=O)N([H])C2([H])c4c([H])c([H])c([H])c([H])c4C([H])([H])C([H])([H])C2([H])[H])C3([H])[H])C([H])([H])C1([H])[H]

>  <smiles>  (61) 
[H]C(=C1C([H])([H])N(C(=O)N2C([H])([H])C([H])([H])C([H])([H])C([H])(n3nc(-c4c([H])c([H])c(Oc5c([H])c([H])c(F)c([H])c5F)c([H])c4[H])c(C(=O)N([H])[H])c3N([H])[H])C2([H])[H])C([H])([H])C1([H])[H])C([H])([H])C1([H])C([H])([H])C([H])([H])C([H])(C([H])([H])C([H])([H])C([H])([H])Oc2c([H])c([H])c3c(c2[H])C([H])([H])N(C(=O)C([H])(N([H])C(=O)C([H])(N([H])C([H])([H])[H])C([H])([H])[H])C(C([H])([H])[H])(C([H])([H])[H])C([H])([H])[H])C([H])(C(=O)N([H])C2([H])c4c([H])c([H])c([H])c([H])c4C([H])([H])C([H])([H])C2([H])[H])C3([H])[H])C([H])([H])C1([H])[H]

$$$$
61:0:0
     RDKit          3D

 93102  0  0  1  0  0  0  0  0999 V2000
  -30.1420  -23.1630   20.5560 C   0  0  0  0  0  2  0  0  0  0  0  0
  -28.8200  -23.2460   20.3550 C   0  0  0  0  0  0  0  0  0  0  0  0
  -30.6770  -21.7810   20.6230 C   0  0  0  0  0  0  0  0  0  0  0  0
  -29.5470  -17.7300   18.8990 C   0  0  0  0  0  0  0  0  0  0  0  0
  -32.0010  -21.6730   20.9200 C   0  0  0  0  0  3  0  0  0  0  0  0
  -28.3540  -21.7000   20.3850 C   0  0  0  0  0  2  0  0  0  0  0  0
  -29.0390  -19.0380   18.2810 C   0  0  0  0  0  2  0  0  0  0  0  0
  -29.8430  -20.2730   18.7680 C   0  0  0  0  0  2  0  0  0  0  0  0
  -29.7930  -19.1510   21.0700 C   0  0  0  0  0  2  0  0  0  0  0  0
  -29.4140  -17.6360   20.4230 C   0  0  0  0  0  3  0  0  0  0  0  0
  -29.6390  -20.6540   20.2660 C   0  0  1  0  0  0  0  0  0  0  0  0
  -32.9330  -20.4780   20.9690 C   0  0  0  0  0  1  0  0  0  0  0  0
  -29.9600  -16.8270   18.1680 O   0  0  0  0  0  0  0  0  0  0  0  0
  -30.5150  -15.0510   20.5820 C   0  0  0  0  0  0  0  0  0  0  0  0
  -30.4450  -12.6940   19.6470 C   0  0  0  0  0  2  0  0  0  0  0  0
  -29.5790  -12.6700   18.3650 C   0  0  0  0  0  2  0  0  0  0  0  0
  -28.0910  -12.4540   18.7010 C   0  0  0  0  0  2  0  0  0  0  0  0
  -27.6300  -13.3490   19.8840 C   0  0  0  0  0  3  0  0  0  0  0  0
  -28.6280  -13.3490   21.0640 C   0  0  0  0  0  2  0  0  0  0  0  0
  -29.9400  -13.7750   20.5520 N   0  0  0  0  0  0  0  0  0  0  0  0
  -31.6670  -15.1400   20.1390 O   0  0  0  0  0  0  0  0  0  0  0  0
  -29.8350  -16.2160   21.0380 N   0  0  0  0  0  0  0  0  0  0  0  0
  -29.1690  -15.9570   21.7540 H   0  0  0  0  0  0  0  0  0  0  0  0
  -25.2070  -13.8910   20.4990 C   0  0  0  0  0  0  0  0  0  0  0  0
  -24.1370  -13.1120   20.8390 C   0  0  0  0  0  0  0  0  0  0  0  0
  -24.6170  -11.7650   20.8440 C   0  0  0  0  0  0  0  0  0  0  0  0
  -26.2720  -13.0280   20.3170 N   0  0  0  0  0  0  0  0  0  0  0  0
  -25.9220  -11.7400   20.5880 N   0  0  0  0  0  0  0  0  0  0  0  0
  -23.8940  -10.5010   21.0270 C   0  0  0  0  0  0  0  0  0  0  0  0
  -24.2950   -9.5520   21.9940 C   0  0  0  0  0  3  0  0  0  0  0  0
  -23.5740   -8.3490   22.1630 C   0  0  0  0  0  3  0  0  0  0  0  0
  -22.4330   -8.0890   21.3680 C   0  0  0  0  0  0  0  0  0  0  0  0
  -22.0500   -9.0260   20.3910 C   0  0  0  0  0  3  0  0  0  0  0  0
  -22.7710  -10.2190   20.2210 C   0  0  0  0  0  3  0  0  0  0  0  0
  -21.6790   -6.9420   21.4460 O   0  0  0  0  0  0  0  0  0  0  0  0
  -21.5880   -6.2200   22.6080 C   0  0  0  0  0  0  0  0  0  0  0  0
  -21.0930   -6.7860   23.8030 C   0  0  0  0  0  3  0  0  0  0  0  0
  -20.9530   -5.9870   24.9550 C   0  0  0  0  0  3  0  0  0  0  0  0
  -21.2950   -4.6230   24.9130 C   0  0  0  0  0  0  0  0  0  0  0  0
  -21.7760   -4.0540   23.7210 C   0  0  0  0  0  3  0  0  0  0  0  0
  -21.9210   -4.8500   22.5710 C   0  0  0  0  0  0  0  0  0  0  0  0
  -22.3690   -4.2910   21.4220 F   0  0  0  0  0  0  0  0  0  0  0  0
  -21.1500   -3.8560   26.0180 F   0  0  0  0  0  0  0  0  0  0  0  0
  -22.7260  -13.5790   21.0480 C   0  0  0  0  0  0  0  0  0  0  0  0
  -21.9690  -12.8990   21.9030 N   0  0  0  0  0  0  0  0  0  0  0  0
  -22.3020  -14.5880   20.4840 O   0  0  0  0  0  0  0  0  0  0  0  0
  -22.3170  -12.0880   22.3930 H   0  0  0  0  0  0  0  0  0  0  0  0
  -21.0220  -13.2010   22.0760 H   0  0  0  0  0  0  0  0  0  0  0  0
  -25.3680  -15.2600   20.3060 N   0  0  0  0  0  0  0  0  0  0  0  0
  -24.5970  -15.9190   20.3640 H   0  0  0  0  0  0  0  0  0  0  0  0
  -26.2350  -15.6960   20.0220 H   0  0  0  0  0  0  0  0  0  0  0  0
  -27.8660  -24.5970   20.1090 C   0  0  0  0  0  3  0  0  0  0  0  0
  -28.2250  -26.1260   20.2550 O   0  0  0  0  0  0  0  0  0  0  0  0
  -24.6610  -31.9040   23.2550 C   0  0  0  0  0  0  0  0  0  0  0  0
  -27.1940  -27.1540   20.1920 C   0  0  0  0  0  0  0  0  0  0  0  0
  -23.4470  -30.5230   21.6140 C   0  0  0  0  0  3  0  0  0  0  0  0
  -24.8810  -28.9440   20.1750 C   0  0  0  0  0  0  0  0  0  0  0  0
  -26.0110  -30.7610   21.4500 C   0  0  0  0  0  2  0  0  0  0  0  0
  -26.0720  -29.3720   20.7810 C   0  0  0  0  0  0  0  0  0  0  0  0
  -27.2270  -28.4930   20.7710 C   0  0  0  0  0  3  0  0  0  0  0  0
  -25.9780  -26.8440   19.5410 C   0  0  0  0  0  3  0  0  0  0  0  0
  -24.8510  -27.6960   19.5380 C   0  0  0  0  0  3  0  0  0  0  0  0
  -23.6640  -29.8560   20.2300 C   0  0  0  0  0  2  0  0  0  0  0  0
  -24.7280  -31.0850   22.1590 N   0  0  0  0  0  0  0  0  0  0  0  0
  -23.5790  -32.1940   23.7860 O   0  0  0  0  0  0  0  0  0  0  0  0
  -22.7710  -29.5110   22.5740 C   0  0  0  0  0  0  0  0  0  0  0  0
  -21.4410  -29.3410   22.4540 N   0  0  0  0  0  0  0  0  0  0  0  0
  -23.4430  -28.8830   23.3940 O   0  0  0  0  0  0  0  0  0  0  0  0
  -20.9540  -29.9020   21.7700 H   0  0  0  0  0  0  0  0  0  0  0  0
  -18.0630  -28.1240   22.9610 C   0  0  0  0  0  0  0  0  0  0  0  0
  -20.6220  -28.4010   23.2250 C   0  0  0  0  0  3  0  0  0  0  0  0
  -20.7270  -26.9650   22.6560 C   0  0  0  0  0  2  0  0  0  0  0  0
  -19.6260  -26.6350   21.6430 C   0  0  0  0  0  2  0  0  0  0  0  0
  -18.2440  -26.7760   22.2860 C   0  0  0  0  0  2  0  0  0  0  0  0
  -19.1790  -28.8940   23.3870 C   0  0  0  0  0  0  0  0  0  0  0  0
  -18.9500  -30.1540   23.9800 C   0  0  0  0  0  3  0  0  0  0  0  0
  -17.6420  -30.6470   24.1470 C   0  0  0  0  0  3  0  0  0  0  0  0
  -16.5420  -29.8760   23.7330 C   0  0  0  0  0  3  0  0  0  0  0  0
  -16.7550  -28.6160   23.1470 C   0  0  0  0  0  3  0  0  0  0  0  0
  -25.9430  -32.5360   23.8770 C   0  0  0  0  0  3  0  0  0  0  0  0
  -25.6310  -33.9360   24.2160 N   0  0  0  0  0  0  0  0  0  0  0  0
  -25.9370  -34.9930   23.4530 C   0  0  0  0  0  0  0  0  0  0  0  0
  -26.5770  -34.8950   22.4030 O   0  0  0  0  0  0  0  0  0  0  0  0
  -25.0570  -34.0850   25.0330 H   0  0  0  0  0  0  0  0  0  0  0  0
  -24.1830  -36.7770   23.1780 C   0  0  0  0  0  1  0  0  0  0  0  0
  -25.4640  -36.3800   23.9300 C   0  0  0  0  0  3  0  0  0  0  0  0
  -27.6300  -37.2830   24.6610 C   0  0  0  0  0  1  0  0  0  0  0  0
  -26.4820  -37.4400   23.7680 N   0  0  0  0  0  0  0  0  0  0  0  0
  -26.0780  -38.3580   23.9270 H   0  0  0  0  0  0  0  0  0  0  0  0
  -26.4540  -31.7660   25.1570 C   0  0  1  0  0  0  0  0  0  0  0  0
  -25.3590  -31.5420   26.2280 C   0  0  0  0  0  1  0  0  0  0  0  0
  -27.0310  -30.3810   24.7790 C   0  0  0  0  0  1  0  0  0  0  0  0
  -27.6070  -32.5590   25.8150 C   0  0  0  0  0  1  0  0  0  0  0  0
  1  3  1  0
  2  6  1  0
  2  1  1  0
  3  5  2  0
  4 10  1  0
  5 12  1  0
  7  8  1  0
  7  4  1  0
 10 22  1  0
 10  9  1  0
 11  8  1  6
 11  6  1  0
 11  3  1  0
 11  9  1  0
 13  4  2  0
 14 22  1  0
 15 20  1  0
 16 17  1  0
 16 15  1  0
 18 17  1  0
 18 27  1  0
 18 19  1  0
 20 14  1  0
 20 19  1  0
 21 14  2  0
 22 23  1  0
 24 25  2  0
 25 26  1  0
 25 44  1  0
 26 29  1  0
 27 24  1  0
 27 28  1  0
 28 26  2  0
 29 30  1  0
 30 31  2  0
 32 35  1  0
 32 31  1  0
 33 32  2  0
 34 33  1  0
 34 29  2  0
 35 36  1  0
 36 37  1  0
 37 38  2  0
 39 38  1  0
 39 43  1  0
 40 39  2  0
 41 36  2  0
 41 40  1  0
 42 41  1  0
 44 45  1  0
 45 48  1  0
 45 47  1  0
 46 44  2  0
 49 50  1  0
 49 24  1  0
 51 49  1  0
 52 53  1  0
 52  2  2  0
 54 65  2  0
 55 53  1  0
 55 60  1  0
 56 64  1  0
 56 66  1  0
 57 63  1  0
 57 59  1  0
 58 64  1  0
 59 58  1  0
 60 59  2  0
 61 55  2  0
 62 61  1  0
 62 57  2  0
 63 56  1  0
 64 54  1  0
 66 68  2  0
 67 66  1  0
 69 67  1  0
 70 79  2  0
 70 75  1  0
 71 67  1  0
 71 75  1  0
 72 71  1  0
 73 74  1  0
 73 72  1  0
 74 70  1  0
 75 76  2  0
 76 77  1  0
 78 77  2  0
 79 78  1  0
 80 54  1  0
 80 81  1  0
 80 90  1  0
 81 84  1  0
 82 86  1  0
 82 81  1  0
 83 82  2  0
 86 85  1  0
 88 89  1  0
 88 86  1  0
 88 87  1  0
 90 93  1  1
 90 91  1  0
 92 90  1  0
M  ISO  4  14 100  22 100  52 101  53 101
M  END
>  <TORSDO>  (62) 
F 17

>  <SCORE>  (62) 
-14.942

>  <name>  (62) 
61

>  <ligand_id>  (62) 
61

>  <original_smiles>  (62) 
[H]C1=C(C([H])([H])Oc2c([H])c([H])c3c(c2[H])C([H])([H])N(C(=O)C([H])(N([H])C(=O)C([H])(N([H])C([H])([H])[H])C([H])([H])[H])C(C([H])([H])[H])(C([H])([H])[H])C([H])([H])[H])C([H])(C(=O)N([H])C2([H])c4c([H])c([H])c([H])c([H])c4C([H])([H])C([H])([H])C2([H])[H])C3([H])[H])C([H])([H])C2(C1=C([H])C([H])([H])[H])C([H])([H])C([H])([H])C(=O)C([H])(N([H])C(=O)N1C([H])([H])C([H])([H])C([H])([H])C([H])(n3nc(-c4c([H])c([H])c(Oc5c([H])c([H])c(F)c([H])c5F)c([H])c4[H])c(C(=O)N([H])[H])c3N([H])[H])C1([H])[H])C2([H])[H]

>  <smiles>  (62) 
[H]C1=C(C([H])([H])Oc2c([H])c([H])c3c(c2[H])C([H])([H])N(C(=O)C([H])(N([H])C(=O)C([H])(N([H])C([H])([H])[H])C([H])([H])[H])C(C([H])([H])[H])(C([H])([H])[H])C([H])([H])[H])C([H])(C(=O)N([H])C2([H])c4c([H])c([H])c([H])c([H])c4C([H])([H])C([H])([H])C2([H])[H])C3([H])[H])C([H])([H])C2(C1=C([H])C([H])([H])[H])C([H])([H])C([H])([H])C(=O)C([H])(N([H])C(=O)N1C([H])([H])C([H])([H])C([H])([H])C([H])(n3nc(-c4c([H])c([H])c(Oc5c([H])c([H])c(F)c([H])c5F)c([H])c4[H])c(C(=O)N([H])[H])c3N([H])[H])C1([H])[H])C2([H])[H]

$$$$
62:0:0
     RDKit          3D

 90 99  0  0  1  0  0  0  0  0999 V2000
  -30.4800  -20.1720   21.9990 C   0  0  0  0  0  0  0  0  0  0  0  0
  -28.7190  -23.1480   20.2150 C   0  0  0  0  0  0  0  0  0  0  0  0
  -30.9230  -18.7530   21.4720 C   0  0  0  0  0  2  0  0  0  0  0  0
  -29.6880  -22.7500   21.3520 C   0  0  0  0  0  2  0  0  0  0  0  0
  -29.0960  -19.2250   19.6800 C   0  0  0  0  0  3  0  0  0  0  0  0
  -30.3210  -21.3310   20.9660 C   0  0  0  0  0  3  0  0  0  0  0  0
  -29.5400  -20.8570   19.7390 C   0  0  0  0  0  3  0  0  0  0  0  0
  -29.8310  -18.0400   20.6120 C   0  0  0  0  0  0  0  0  0  0  0  0
  -28.5830  -22.0510   19.4630 N   0  0  0  0  0  0  0  0  0  0  0  0
  -30.2730  -20.3570   23.2030 O   0  0  0  0  0  0  0  0  0  0  0  0
  -30.7120  -15.2720   20.3100 C   0  0  0  0  0  0  0  0  0  0  0  0
  -30.6800  -12.8820   19.4080 C   0  0  0  0  0  2  0  0  0  0  0  0
  -29.7470  -12.7450   18.1810 C   0  0  0  0  0  2  0  0  0  0  0  0
  -28.2880  -12.5140   18.6230 C   0  0  0  0  0  2  0  0  0  0  0  0
  -27.8520  -13.4670   19.7630 C   0  0  0  0  0  3  0  0  0  0  0  0
  -28.9060  -13.5330   20.8880 C   0  0  0  0  0  2  0  0  0  0  0  0
  -30.1580  -13.9870   20.2650 N   0  0  0  0  0  0  0  0  0  0  0  0
  -31.9290  -15.3510   20.1010 O   0  0  0  0  0  0  0  0  0  0  0  0
  -29.8590  -16.4290   20.3910 N   0  0  0  0  0  0  0  0  0  0  0  0
  -28.9120  -16.0770   20.4090 H   0  0  0  0  0  0  0  0  0  0  0  0
  -25.4770  -14.0360   20.5280 C   0  0  0  0  0  0  0  0  0  0  0  0
  -24.4120  -13.2560   20.8900 C   0  0  0  0  0  0  0  0  0  0  0  0
  -24.8740  -11.9060   20.8390 C   0  0  0  0  0  0  0  0  0  0  0  0
  -26.5170  -13.1590   20.2660 N   0  0  0  0  0  0  0  0  0  0  0  0
  -26.1640  -11.8730   20.5220 N   0  0  0  0  0  0  0  0  0  0  0  0
  -24.1460  -10.6410   21.0150 C   0  0  0  0  0  0  0  0  0  0  0  0
  -24.5390   -9.6870   21.9770 C   0  0  0  0  0  3  0  0  0  0  0  0
  -23.8110   -8.4890   22.1380 C   0  0  0  0  0  3  0  0  0  0  0  0
  -22.6730   -8.2360   21.3330 C   0  0  0  0  0  0  0  0  0  0  0  0
  -22.3000   -9.1780   20.3590 C   0  0  0  0  0  3  0  0  0  0  0  0
  -23.0310  -10.3670   20.1960 C   0  0  0  0  0  3  0  0  0  0  0  0
  -21.9210   -7.0880   21.4000 O   0  0  0  0  0  0  0  0  0  0  0  0
  -21.7760   -6.3910   22.5730 C   0  0  0  0  0  0  0  0  0  0  0  0
  -21.1440   -6.9560   23.7030 C   0  0  0  0  0  3  0  0  0  0  0  0
  -20.9560   -6.1820   24.8650 C   0  0  0  0  0  3  0  0  0  0  0  0
  -21.3880   -4.8420   24.8970 C   0  0  0  0  0  0  0  0  0  0  0  0
  -22.0100   -4.2760   23.7710 C   0  0  0  0  0  3  0  0  0  0  0  0
  -22.2010   -5.0480   22.6110 C   0  0  0  0  0  0  0  0  0  0  0  0
  -22.7840   -4.4910   21.5230 F   0  0  0  0  0  0  0  0  0  0  0  0
  -21.1970   -4.0950   26.0100 F   0  0  0  0  0  0  0  0  0  0  0  0
  -23.0160  -13.7320   21.1670 C   0  0  0  0  0  0  0  0  0  0  0  0
  -22.2850  -13.0300   22.0260 N   0  0  0  0  0  0  0  0  0  0  0  0
  -22.5820  -14.7640   20.6560 O   0  0  0  0  0  0  0  0  0  0  0  0
  -22.6470  -12.1980   22.4680 H   0  0  0  0  0  0  0  0  0  0  0  0
  -21.3450  -13.3330   22.2500 H   0  0  0  0  0  0  0  0  0  0  0  0
  -25.6390  -15.4090   20.3650 N   0  0  0  0  0  0  0  0  0  0  0  0
  -24.8630  -16.0520   20.4860 H   0  0  0  0  0  0  0  0  0  0  0  0
  -26.4610  -15.8480   19.9740 H   0  0  0  0  0  0  0  0  0  0  0  0
  -27.8260  -24.6270   20.1250 C   0  0  0  0  0  2  0  0  0  0  0  0
  -28.1870  -26.1680   20.3270 O   0  0  0  0  0  0  0  0  0  0  0  0
  -24.5310  -31.9820   23.2580 C   0  0  0  0  0  0  0  0  0  0  0  0
  -27.1580  -27.2140   20.2510 C   0  0  0  0  0  0  0  0  0  0  0  0
  -23.3490  -30.5660   21.6270 C   0  0  0  0  0  3  0  0  0  0  0  0
  -24.8170  -28.9890   20.2120 C   0  0  0  0  0  0  0  0  0  0  0  0
  -25.9050  -30.8380   21.4670 C   0  0  0  0  0  2  0  0  0  0  0  0
  -25.9970  -29.4340   20.8210 C   0  0  0  0  0  0  0  0  0  0  0  0
  -27.1660  -28.5650   20.8230 C   0  0  0  0  0  3  0  0  0  0  0  0
  -25.9500  -26.9030   19.5860 C   0  0  0  0  0  3  0  0  0  0  0  0
  -24.8120  -27.7390   19.5750 C   0  0  0  0  0  3  0  0  0  0  0  0
  -23.5820  -29.8780   20.2550 C   0  0  0  0  0  2  0  0  0  0  0  0
  -24.6160  -31.1530   22.1730 N   0  0  0  0  0  0  0  0  0  0  0  0
  -23.4420  -32.2610   23.7820 O   0  0  0  0  0  0  0  0  0  0  0  0
  -22.6730  -29.5630   22.5990 C   0  0  0  0  0  0  0  0  0  0  0  0
  -21.3590  -29.3290   22.4280 N   0  0  0  0  0  0  0  0  0  0  0  0
  -23.3370  -28.9990   23.4710 O   0  0  0  0  0  0  0  0  0  0  0  0
  -20.8790  -29.8380   21.7000 H   0  0  0  0  0  0  0  0  0  0  0  0
  -18.0220  -27.9680   22.8370 C   0  0  0  0  0  0  0  0  0  0  0  0
  -20.5500  -28.3760   23.1960 C   0  0  0  0  0  3  0  0  0  0  0  0
  -20.7490  -26.9320   22.6780 C   0  0  0  0  0  2  0  0  0  0  0  0
  -19.7100  -26.5170   21.6320 C   0  0  0  0  0  2  0  0  0  0  0  0
  -18.2970  -26.6100   22.2140 C   0  0  0  0  0  2  0  0  0  0  0  0
  -19.0810  -28.8040   23.2830 C   0  0  0  0  0  0  0  0  0  0  0  0
  -18.7720  -30.0700   23.8250 C   0  0  0  0  0  3  0  0  0  0  0  0
  -17.4360  -30.5040   23.9250 C   0  0  0  0  0  3  0  0  0  0  0  0
  -16.3910  -29.6680   23.4940 C   0  0  0  0  0  3  0  0  0  0  0  0
  -16.6850  -28.4010   22.9570 C   0  0  0  0  0  3  0  0  0  0  0  0
  -25.8000  -32.6380   23.8870 C   0  0  0  0  0  3  0  0  0  0  0  0
  -25.4840  -34.0460   24.1790 N   0  0  0  0  0  0  0  0  0  0  0  0
  -25.7840  -35.0810   23.3810 C   0  0  0  0  0  0  0  0  0  0  0  0
  -26.4250  -34.9490   22.3350 O   0  0  0  0  0  0  0  0  0  0  0  0
  -24.9110  -34.2200   24.9910 H   0  0  0  0  0  0  0  0  0  0  0  0
  -24.0240  -36.8480   23.0460 C   0  0  0  0  0  1  0  0  0  0  0  0
  -25.3030  -36.4800   23.8130 C   0  0  0  0  0  3  0  0  0  0  0  0
  -27.4490  -37.4320   24.5360 C   0  0  0  0  0  1  0  0  0  0  0  0
  -26.3180  -37.5390   23.6190 N   0  0  0  0  0  0  0  0  0  0  0  0
  -25.9050  -38.4610   23.7300 H   0  0  0  0  0  0  0  0  0  0  0  0
  -26.2930  -31.9050   25.1960 C   0  0  1  0  0  0  0  0  0  0  0  0
  -25.1750  -31.6710   26.2390 C   0  0  0  0  0  1  0  0  0  0  0  0
  -26.9110  -30.5290   24.8570 C   0  0  0  0  0  1  0  0  0  0  0  0
  -27.4110  -32.7350   25.8720 C   0  0  0  0  0  1  0  0  0  0  0  0
  1 10  2  0
  2  4  1  0
  3  1  1  0
  5  8  2  0
  6  4  1  0
  6  1  1  0
  7  5  1  0
  7  6  1  0
  8  3  1  0
  9  7  1  0
  9  2  2  0
 11 19  1  0
 12 17  1  0
 13 14  1  0
 13 12  1  0
 15 14  1  0
 15 24  1  0
 15 16  1  0
 17 11  1  0
 17 16  1  0
 18 11  2  0
 19 20  1  0
 19  8  1  0
 21 22  2  0
 22 41  1  0
 23 22  1  0
 23 26  1  0
 24 25  1  0
 24 21  1  0
 25 23  2  0
 26 27  1  0
 27 28  2  0
 29 32  1  0
 29 28  1  0
 30 29  2  0
 31 30  1  0
 31 26  2  0
 32 33  1  0
 33 38  2  0
 33 34  1  0
 34 35  2  0
 35 36  1  0
 36 40  1  0
 37 36  2  0
 38 37  1  0
 39 38  1  0
 41 42  1  0
 42 45  1  0
 42 44  1  0
 43 41  2  0
 46 47  1  0
 46 21  1  0
 48 46  1  0
 49  2  1  0
 49 50  1  0
 51 62  2  0
 52 50  1  0
 52 57  1  0
 53 61  1  0
 53 63  1  0
 54 60  1  0
 54 56  1  0
 55 61  1  0
 56 57  2  0
 56 55  1  0
 58 52  2  0
 59 58  1  0
 59 54  2  0
 60 53  1  0
 61 51  1  0
 63 65  2  0
 64 63  1  0
 66 64  1  0
 67 76  2  0
 67 72  1  0
 68 64  1  0
 68 72  1  0
 69 68  1  0
 70 71  1  0
 70 69  1  0
 71 67  1  0
 72 73  2  0
 73 74  1  0
 75 74  2  0
 76 75  1  0
 77 51  1  0
 77 78  1  0
 77 87  1  0
 78 81  1  0
 79 83  1  0
 79 78  1  0
 80 79  2  0
 83 82  1  0
 85 86  1  0
 85 83  1  0
 85 84  1  0
 87 90  1  1
 87 88  1  0
 89 87  1  0
M  ISO  4  11 100  19 100  49 101  50 101
M  END
>  <TORSDO>  (63) 
F 17

>  <SCORE>  (63) 
-15.279

>  <name>  (63) 
62

>  <ligand_id>  (63) 
62

>  <original_smiles>  (63) 
[H]c1c([H])c([H])c2c(c1[H])C([H])([H])C([H])([H])C([H])([H])C2([H])N([H])C(=O)C1([H])N(C(=O)C([H])(N([H])C(=O)C([H])(N([H])C([H])([H])[H])C([H])([H])[H])C(C([H])([H])[H])(C([H])([H])[H])C([H])([H])[H])C([H])([H])c2c([H])c(OC([H])([H])C3=NC4([H])C([H])([H])C([H])(N([H])C(=O)N5C([H])([H])C([H])([H])C([H])([H])C([H])(n6nc(-c7c([H])c([H])c(Oc8c([H])c([H])c(F)c([H])c8F)c([H])c7[H])c(C(=O)N([H])[H])c6N([H])[H])C5([H])[H])C([H])([H])C(=O)C4([H])C3([H])[H])c([H])c([H])c2C1([H])[H]

>  <smiles>  (63) 
[H]c1c([H])c([H])c2c(c1[H])C([H])([H])C([H])([H])C([H])([H])C2([H])N([H])C(=O)C1([H])N(C(=O)C([H])(N([H])C(=O)C([H])(N([H])C([H])([H])[H])C([H])([H])[H])C(C([H])([H])[H])(C([H])([H])[H])C([H])([H])[H])C([H])([H])c2c([H])c(OC([H])([H])C3=NC4([H])C([H])([H])C([H])(N([H])C(=O)N5C([H])([H])C([H])([H])C([H])([H])C([H])(n6nc(-c7c([H])c([H])c(Oc8c([H])c([H])c(F)c([H])c8F)c([H])c7[H])c(C(=O)N([H])[H])c6N([H])[H])C5([H])[H])C([H])([H])C(=O)C4([H])C3([H])[H])c([H])c([H])c2C1([H])[H]

$$$$
63:0:0
     RDKit          3D

 89 98  0  0  1  0  0  0  0  0999 V2000
  -28.8000  -16.7880   19.2180 C   0  0  0  0  0  3  0  0  0  0  0  0
  -28.2320  -18.0790   18.9360 C   0  0  0  0  0  3  0  0  0  0  0  0
  -30.1890  -17.7910   20.8930 C   0  0  0  0  0  3  0  0  0  0  0  0
  -29.6000  -19.1250   20.6130 C   0  0  0  0  0  0  0  0  0  0  0  0
  -29.7930  -16.5330   20.2140 C   0  0  0  0  0  0  0  0  0  0  0  0
  -28.6350  -19.2550   19.6280 C   0  0  0  0  0  0  0  0  0  0  0  0
  -29.8080  -20.5850   21.1230 C   0  0  0  0  0  0  0  0  0  0  0  0
  -28.1760  -20.7380   19.3970 C   0  0  0  0  0  2  0  0  0  0  0  0
  -28.7220  -21.6500   20.5750 C   0  0  0  0  0  3  0  0  0  0  0  0
  -30.7050  -20.9300   21.8990 O   0  0  0  0  0  0  0  0  0  0  0  0
  -30.5250  -15.0840   20.2910 C   0  0  0  0  0  0  0  0  0  0  0  0
  -30.3850  -12.7150   19.3890 C   0  0  0  0  0  2  0  0  0  0  0  0
  -29.4440  -12.6450   18.1650 C   0  0  0  0  0  2  0  0  0  0  0  0
  -27.9890  -12.4110   18.6130 C   0  0  0  0  0  2  0  0  0  0  0  0
  -27.5770  -13.3390   19.7840 C   0  0  0  0  0  3  0  0  0  0  0  0
  -28.6450  -13.4180   20.8910 C   0  0  0  0  0  2  0  0  0  0  0  0
  -29.9080  -13.8270   20.2630 N   0  0  0  0  0  0  0  0  0  0  0  0
  -31.7480  -15.0780   20.1190 O   0  0  0  0  0  0  0  0  0  0  0  0
  -25.2150  -13.9040   20.5720 C   0  0  0  0  0  0  0  0  0  0  0  0
  -24.1570  -13.1220   20.9430 C   0  0  0  0  0  0  0  0  0  0  0  0
  -24.6260  -11.7730   20.8930 C   0  0  0  0  0  0  0  0  0  0  0  0
  -26.2550  -13.0300   20.3070 N   0  0  0  0  0  0  0  0  0  0  0  0
  -25.9130  -11.7430   20.5690 N   0  0  0  0  0  0  0  0  0  0  0  0
  -23.9060  -10.5070   21.0770 C   0  0  0  0  0  0  0  0  0  0  0  0
  -24.3350   -9.5410   22.0130 C   0  0  0  0  0  3  0  0  0  0  0  0
  -23.6140   -8.3400   22.1850 C   0  0  0  0  0  3  0  0  0  0  0  0
  -22.4490   -8.0970   21.4200 C   0  0  0  0  0  0  0  0  0  0  0  0
  -22.0390   -9.0520   20.4720 C   0  0  0  0  0  3  0  0  0  0  0  0
  -22.7600  -10.2440   20.2980 C   0  0  0  0  0  3  0  0  0  0  0  0
  -21.6990   -6.9480   21.5010 O   0  0  0  0  0  0  0  0  0  0  0  0
  -21.6190   -6.2220   22.6620 C   0  0  0  0  0  0  0  0  0  0  0  0
  -21.1010   -6.7750   23.8530 C   0  0  0  0  0  3  0  0  0  0  0  0
  -20.9730   -5.9720   25.0050 C   0  0  0  0  0  3  0  0  0  0  0  0
  -21.3520   -4.6180   24.9650 C   0  0  0  0  0  0  0  0  0  0  0  0
  -21.8630   -4.0640   23.7780 C   0  0  0  0  0  3  0  0  0  0  0  0
  -21.9940   -4.8630   22.6280 C   0  0  0  0  0  0  0  0  0  0  0  0
  -22.4670   -4.3200   21.4810 F   0  0  0  0  0  0  0  0  0  0  0  0
  -21.2220   -3.8440   26.0670 F   0  0  0  0  0  0  0  0  0  0  0  0
  -22.7610  -13.5920   21.2300 C   0  0  0  0  0  0  0  0  0  0  0  0
  -22.0440  -12.8890   22.0990 N   0  0  0  0  0  0  0  0  0  0  0  0
  -22.3150  -14.6190   20.7180 O   0  0  0  0  0  0  0  0  0  0  0  0
  -22.4200  -12.0600   22.5350 H   0  0  0  0  0  0  0  0  0  0  0  0
  -21.1080  -13.1860   22.3350 H   0  0  0  0  0  0  0  0  0  0  0  0
  -25.3740  -15.2770   20.4110 N   0  0  0  0  0  0  0  0  0  0  0  0
  -24.6130  -15.9320   20.5560 H   0  0  0  0  0  0  0  0  0  0  0  0
  -26.2340  -15.7290   20.1250 H   0  0  0  0  0  0  0  0  0  0  0  0
  -29.0440  -23.3260   20.4040 C   0  0  0  0  0  3  0  0  0  0  0  0
  -27.9620  -24.6370   20.2990 C   0  0  0  0  0  3  0  0  0  0  0  0
  -28.2530  -26.1840   20.3460 O   0  0  0  0  0  0  0  0  0  0  0  0
  -24.6220  -31.9420   23.2620 C   0  0  0  0  0  0  0  0  0  0  0  0
  -27.2050  -27.1850   20.2760 C   0  0  0  0  0  0  0  0  0  0  0  0
  -23.4330  -30.5480   21.6130 C   0  0  0  0  0  3  0  0  0  0  0  0
  -24.8900  -28.9600   20.2100 C   0  0  0  0  0  0  0  0  0  0  0  0
  -25.9930  -30.7940   21.4780 C   0  0  0  0  0  2  0  0  0  0  0  0
  -26.0670  -29.3980   20.8290 C   0  0  0  0  0  0  0  0  0  0  0  0
  -27.2260  -28.5290   20.8420 C   0  0  0  0  0  3  0  0  0  0  0  0
  -25.9990  -26.8560   19.6180 C   0  0  0  0  0  3  0  0  0  0  0  0
  -24.8700  -27.7040   19.5880 C   0  0  0  0  0  3  0  0  0  0  0  0
  -23.6680  -29.8670   20.2400 C   0  0  0  0  0  2  0  0  0  0  0  0
  -24.7030  -31.1170   22.1720 N   0  0  0  0  0  0  0  0  0  0  0  0
  -23.5310  -32.2340   23.7760 O   0  0  0  0  0  0  0  0  0  0  0  0
  -22.7380  -29.5470   22.5710 C   0  0  0  0  0  0  0  0  0  0  0  0
  -21.4090  -29.3870   22.4330 N   0  0  0  0  0  0  0  0  0  0  0  0
  -23.3960  -28.9190   23.4020 O   0  0  0  0  0  0  0  0  0  0  0  0
  -20.9350  -29.9460   21.7370 H   0  0  0  0  0  0  0  0  0  0  0  0
  -18.0100  -28.2360   22.9310 C   0  0  0  0  0  0  0  0  0  0  0  0
  -20.5730  -28.4580   23.1980 C   0  0  0  0  0  3  0  0  0  0  0  0
  -20.6520  -27.0280   22.6130 C   0  0  0  0  0  2  0  0  0  0  0  0
  -19.5440  -26.7290   21.5970 C   0  0  0  0  0  2  0  0  0  0  0  0
  -18.1660  -26.8900   22.2440 C   0  0  0  0  0  2  0  0  0  0  0  0
  -19.1410  -28.9790   23.3640 C   0  0  0  0  0  0  0  0  0  0  0  0
  -18.9390  -30.2390   23.9690 C   0  0  0  0  0  3  0  0  0  0  0  0
  -17.6420  -30.7550   24.1430 C   0  0  0  0  0  3  0  0  0  0  0  0
  -16.5260  -30.0090   23.7240 C   0  0  0  0  0  3  0  0  0  0  0  0
  -16.7110  -28.7510   23.1240 C   0  0  0  0  0  3  0  0  0  0  0  0
  -25.8940  -32.5740   23.9020 C   0  0  0  0  0  3  0  0  0  0  0  0
  -25.5880  -33.9790   24.2190 N   0  0  0  0  0  0  0  0  0  0  0  0
  -25.9150  -35.0250   23.4490 C   0  0  0  0  0  0  0  0  0  0  0  0
  -26.5730  -34.9100   22.4120 O   0  0  0  0  0  0  0  0  0  0  0  0
  -25.0010  -34.1400   25.0240 H   0  0  0  0  0  0  0  0  0  0  0  0
  -24.1870  -36.8240   23.1040 C   0  0  0  0  0  1  0  0  0  0  0  0
  -25.4390  -36.4200   23.9010 C   0  0  0  0  0  3  0  0  0  0  0  0
  -27.5800  -37.3160   24.7030 C   0  0  0  0  0  1  0  0  0  0  0  0
  -26.4730  -37.4700   23.7630 N   0  0  0  0  0  0  0  0  0  0  0  0
  -26.0700  -38.3940   23.8970 H   0  0  0  0  0  0  0  0  0  0  0  0
  -26.3790  -31.8130   25.1980 C   0  0  1  0  0  0  0  0  0  0  0  0
  -25.2630  -31.5930   26.2450 C   0  0  0  0  0  1  0  0  0  0  0  0
  -26.9630  -30.4280   24.8370 C   0  0  0  0  0  1  0  0  0  0  0  0
  -27.5200  -32.6080   25.8750 C   0  0  0  0  0  1  0  0  0  0  0  0
  1  5  1  0
  2  1  2  0
  2  6  1  0
  4  3  1  0
  4  7  1  0
  5 11  1  0
  5  3  2  0
  6  4  2  0
  7 10  2  0
  8  6  1  0
  8  9  1  0
  9 47  1  0
  9  7  1  0
 12 17  1  0
 13 14  1  0
 13 12  1  0
 15 14  1  0
 15 22  1  0
 15 16  1  0
 17 11  1  0
 17 16  1  0
 18 11  2  0
 19 20  2  0
 20 39  1  0
 21 20  1  0
 21 24  1  0
 22 23  1  0
 22 19  1  0
 23 21  2  0
 24 25  1  0
 25 26  2  0
 27 30  1  0
 27 26  1  0
 28 27  2  0
 29 28  1  0
 29 24  2  0
 30 31  1  0
 31 32  1  0
 32 33  2  0
 34 33  1  0
 34 38  1  0
 35 34  2  0
 36 31  2  0
 36 35  1  0
 37 36  1  0
 39 40  1  0
 40 43  1  0
 40 42  1  0
 41 39  2  0
 44 45  1  0
 44 19  1  0
 46 44  1  0
 48 49  1  0
 48 47  2  0
 50 61  2  0
 51 49  1  0
 51 56  1  0
 52 60  1  0
 52 62  1  0
 53 59  1  0
 53 55  1  0
 54 60  1  0
 55 56  2  0
 55 54  1  0
 57 51  2  0
 58 57  1  0
 58 53  2  0
 59 52  1  0
 60 50  1  0
 62 64  2  0
 63 62  1  0
 65 63  1  0
 66 75  2  0
 66 71  1  0
 67 63  1  0
 67 71  1  0
 68 67  1  0
 69 70  1  0
 69 68  1  0
 70 66  1  0
 71 72  2  0
 72 73  1  0
 74 73  2  0
 75 74  1  0
 76 50  1  0
 76 77  1  0
 76 86  1  0
 77 80  1  0
 78 82  1  0
 78 77  1  0
 79 78  2  0
 82 81  1  0
 84 85  1  0
 84 82  1  0
 84 83  1  0
 86 89  1  1
 86 87  1  0
 88 86  1  0
M  ISO  4   5 100  11 100  48 101  49 101
M  END
>  <TORSDO>  (64) 
F 18

>  <SCORE>  (64) 
-16.130

>  <name>  (64) 
63

>  <ligand_id>  (64) 
63

>  <original_smiles>  (64) 
[H]c1c([H])c([H])c2c(c1[H])C([H])([H])C([H])([H])C([H])([H])C2([H])N([H])C(=O)C1([H])N(C(=O)C([H])(N([H])C(=O)C([H])(N([H])C([H])([H])[H])C([H])([H])[H])C(C([H])([H])[H])(C([H])([H])[H])C([H])([H])[H])C([H])([H])c2c([H])c(OC([H])([H])C([H])([H])C3([H])C(=O)c4c([H])c(C(=O)N5C([H])([H])C([H])([H])C([H])([H])C([H])(n6nc(-c7c([H])c([H])c(Oc8c([H])c([H])c(F)c([H])c8F)c([H])c7[H])c(C(=O)N([H])[H])c6N([H])[H])C5([H])[H])c([H])c([H])c4C3([H])[H])c([H])c([H])c2C1([H])[H]

>  <smiles>  (64) 
[H]c1c([H])c([H])c2c(c1[H])C([H])([H])C([H])([H])C([H])([H])C2([H])N([H])C(=O)C1([H])N(C(=O)C([H])(N([H])C(=O)C([H])(N([H])C([H])([H])[H])C([H])([H])[H])C(C([H])([H])[H])(C([H])([H])[H])C([H])([H])[H])C([H])([H])c2c([H])c(OC([H])([H])C([H])([H])C3([H])C(=O)c4c([H])c(C(=O)N5C([H])([H])C([H])([H])C([H])([H])C([H])(n6nc(-c7c([H])c([H])c(Oc8c([H])c([H])c(F)c([H])c8F)c([H])c7[H])c(C(=O)N([H])[H])c6N([H])[H])C5([H])[H])c([H])c([H])c4C3([H])[H])c([H])c([H])c2C1([H])[H]

$$$$
64:0:0
     RDKit          3D

 94103  0  0  1  0  0  0  0  0999 V2000
  -29.6450  -21.2780   19.0900 C   0  0  0  0  0  0  0  0  0  0  0  0
  -28.7320  -22.3760   19.1850 N   0  0  0  0  0  0  0  0  0  0  0  0
  -30.7810  -21.5470   18.6990 O   0  0  0  0  0  0  0  0  0  0  0  0
  -27.8030  -22.1170   19.4930 H   0  0  0  0  0  0  0  0  0  0  0  0
  -31.0360  -15.8770   19.6360 C   0  0  0  0  0  0  0  0  0  0  0  0
  -31.0490  -13.4240   18.9600 C   0  0  0  0  0  2  0  0  0  0  0  0
  -30.0650  -13.1330   17.8050 C   0  0  0  0  0  2  0  0  0  0  0  0
  -28.6560  -12.8350   18.3520 C   0  0  0  0  0  2  0  0  0  0  0  0
  -28.2190  -13.8520   19.4370 C   0  0  0  0  0  3  0  0  0  0  0  0
  -29.3260  -14.1320   20.4750 C   0  0  0  0  0  2  0  0  0  0  0  0
  -30.5080  -14.5840   19.7270 N   0  0  0  0  0  0  0  0  0  0  0  0
  -32.2520  -15.9460   19.4160 O   0  0  0  0  0  0  0  0  0  0  0  0
  -28.8860  -18.7720   18.3140 C   0  0  0  0  0  2  0  0  0  0  0  0
  -29.0730  -17.2580   18.7170 C   0  0  0  0  0  2  0  0  0  0  0  0
  -30.5400  -18.5670   19.9480 C   0  0  0  0  0  3  0  0  0  0  0  0
  -29.3850  -19.6620   19.4640 C   0  0  0  0  0  3  0  0  0  0  0  0
  -30.2240  -17.0730   19.6200 N   0  0  0  0  0  0  0  0  0  0  0  0
  -31.2770  -19.0240   24.2070 C   0  0  0  0  0  3  0  0  0  0  0  0
  -31.7360  -20.0050   23.3040 C   0  0  0  0  0  3  0  0  0  0  0  0
  -30.5820  -17.8980   23.7270 C   0  0  0  0  0  3  0  0  0  0  0  0
  -31.5020  -19.8590   21.9230 C   0  0  0  0  0  3  0  0  0  0  0  0
  -30.3470  -17.7510   22.3460 C   0  0  0  0  0  3  0  0  0  0  0  0
  -30.8070  -18.7300   21.4370 C   0  0  0  0  0  0  0  0  0  0  0  0
  -25.9410  -14.3480   20.4880 C   0  0  0  0  0  0  0  0  0  0  0  0
  -24.9180  -13.5380   20.8950 C   0  0  0  0  0  0  0  0  0  0  0  0
  -25.3740  -12.1990   20.6950 C   0  0  0  0  0  0  0  0  0  0  0  0
  -26.9490  -13.5010   20.0580 N   0  0  0  0  0  0  0  0  0  0  0  0
  -26.6250  -12.1970   20.2490 N   0  0  0  0  0  0  0  0  0  0  0  0
  -24.6660  -10.9200   20.8430 C   0  0  0  0  0  0  0  0  0  0  0  0
  -24.9900  -10.0130   21.8760 C   0  0  0  0  0  3  0  0  0  0  0  0
  -24.2810   -8.8000   22.0100 C   0  0  0  0  0  3  0  0  0  0  0  0
  -23.2340   -8.4860   21.1110 C   0  0  0  0  0  0  0  0  0  0  0  0
  -22.9310   -9.3830   20.0710 C   0  0  0  0  0  3  0  0  0  0  0  0
  -23.6410  -10.5870   19.9360 C   0  0  0  0  0  3  0  0  0  0  0  0
  -22.5070   -7.3210   21.1510 O   0  0  0  0  0  0  0  0  0  0  0  0
  -21.9890   -6.8350   22.3250 C   0  0  0  0  0  0  0  0  0  0  0  0
  -21.0770   -7.5810   23.1020 C   0  0  0  0  0  3  0  0  0  0  0  0
  -20.5170   -7.0160   24.2660 C   0  0  0  0  0  3  0  0  0  0  0  0
  -20.8590   -5.7050   24.6470 C   0  0  0  0  0  0  0  0  0  0  0  0
  -21.7630   -4.9580   23.8710 C   0  0  0  0  0  3  0  0  0  0  0  0
  -22.3250   -5.5220   22.7120 C   0  0  0  0  0  0  0  0  0  0  0  0
  -23.1800   -4.7910   21.9550 F   0  0  0  0  0  0  0  0  0  0  0  0
  -20.3140   -5.1580   25.7590 F   0  0  0  0  0  0  0  0  0  0  0  0
  -23.5590  -13.9820   21.3490 C   0  0  0  0  0  0  0  0  0  0  0  0
  -22.9460  -13.2420   22.2670 N   0  0  0  0  0  0  0  0  0  0  0  0
  -23.0500  -15.0200   20.9240 O   0  0  0  0  0  0  0  0  0  0  0  0
  -23.3730  -12.4030   22.6320 H   0  0  0  0  0  0  0  0  0  0  0  0
  -22.0400  -13.5210   22.6150 H   0  0  0  0  0  0  0  0  0  0  0  0
  -26.0850  -15.7300   20.4200 N   0  0  0  0  0  0  0  0  0  0  0  0
  -25.3350  -16.3640   20.6710 H   0  0  0  0  0  0  0  0  0  0  0  0
  -26.8970  -16.2030   20.0460 H   0  0  0  0  0  0  0  0  0  0  0  0
  -28.9340  -23.9500   18.9700 C   0  0  0  0  0  3  0  0  0  0  0  0
  -27.7450  -25.1740   19.0120 C   0  0  0  0  0  3  0  0  0  0  0  0
  -27.9340  -26.7390   19.0600 O   0  0  0  0  0  0  0  0  0  0  0  0
  -24.4100  -31.8180   23.1400 C   0  0  0  0  0  0  0  0  0  0  0  0
  -26.8360  -27.6680   19.2490 C   0  0  0  0  0  0  0  0  0  0  0  0
  -23.0970  -30.5770   21.4650 C   0  0  0  0  0  3  0  0  0  0  0  0
  -24.4420  -29.2820   19.6950 C   0  0  0  0  0  0  0  0  0  0  0  0
  -25.6010  -31.0050   21.0660 C   0  0  0  0  0  2  0  0  0  0  0  0
  -25.6650  -29.7130   20.2290 C   0  0  0  0  0  0  0  0  0  0  0  0
  -26.8560  -28.9260   19.9870 C   0  0  0  0  0  3  0  0  0  0  0  0
  -25.5760  -27.3510   18.6930 C   0  0  0  0  0  3  0  0  0  0  0  0
  -24.4110  -28.1210   18.9100 C   0  0  0  0  0  3  0  0  0  0  0  0
  -23.1910  -30.0970   19.9910 C   0  0  0  0  0  2  0  0  0  0  0  0
  -24.3950  -31.1500   21.9450 N   0  0  0  0  0  0  0  0  0  0  0  0
  -23.3790  -31.9670   23.8150 O   0  0  0  0  0  0  0  0  0  0  0  0
  -22.5770  -29.4160   22.3510 C   0  0  0  0  0  0  0  0  0  0  0  0
  -21.2800  -29.0830   22.2310 N   0  0  0  0  0  0  0  0  0  0  0  0
  -23.3430  -28.8200   23.1120 O   0  0  0  0  0  0  0  0  0  0  0  0
  -20.7090  -29.6270   21.5970 H   0  0  0  0  0  0  0  0  0  0  0  0
  -18.1270  -27.3290   22.5860 C   0  0  0  0  0  0  0  0  0  0  0  0
  -20.6050  -27.9880   22.9330 C   0  0  0  0  0  3  0  0  0  0  0  0
  -20.9470  -26.6220   22.2950 C   0  0  0  0  0  2  0  0  0  0  0  0
  -19.9310  -26.1780   21.2360 C   0  0  0  0  0  2  0  0  0  0  0  0
  -18.5320  -26.0640   21.8500 C   0  0  0  0  0  2  0  0  0  0  0  0
  -19.0990  -28.2400   23.0820 C   0  0  0  0  0  0  0  0  0  0  0  0
  -18.6670  -29.4150   23.7320 C   0  0  0  0  0  3  0  0  0  0  0  0
  -17.2940  -29.6890   23.8890 C   0  0  0  0  0  3  0  0  0  0  0  0
  -16.3370  -28.7790   23.4060 C   0  0  0  0  0  3  0  0  0  0  0  0
  -16.7540  -27.6000   22.7620 C   0  0  0  0  0  3  0  0  0  0  0  0
  -25.7200  -32.4430   23.7090 C   0  0  0  0  0  3  0  0  0  0  0  0
  -26.3040  -31.6440   24.9390 C   0  0  1  0  0  0  0  0  0  0  0  0
  -25.2660  -31.3660   26.0510 C   0  0  0  0  0  1  0  0  0  0  0  0
  -26.8830  -30.2850   24.4830 C   0  0  0  0  0  1  0  0  0  0  0  0
  -27.4750  -32.4350   25.5670 C   0  0  0  0  0  1  0  0  0  0  0  0
  -25.4240  -33.8310   24.0960 N   0  0  0  0  0  0  0  0  0  0  0  0
  -25.7290  -34.9120   23.3670 C   0  0  0  0  0  0  0  0  0  0  0  0
  -26.3590  -34.8430   22.3080 O   0  0  0  0  0  0  0  0  0  0  0  0
  -24.8600  -33.9570   24.9250 H   0  0  0  0  0  0  0  0  0  0  0  0
  -24.0090  -36.7350   23.1280 C   0  0  0  0  0  1  0  0  0  0  0  0
  -25.2650  -36.2870   23.8920 C   0  0  0  0  0  3  0  0  0  0  0  0
  -27.4210  -37.1310   24.7150 C   0  0  0  0  0  1  0  0  0  0  0  0
  -26.3040  -37.3360   23.7950 N   0  0  0  0  0  0  0  0  0  0  0  0
  -25.9080  -38.2540   23.9740 H   0  0  0  0  0  0  0  0  0  0  0  0
  1  2  1  0
  2  4  1  0
  3  1  2  0
  5 11  1  0
  6 11  1  0
  7  8  1  0
  7  6  1  0
  9  8  1  0
  9 27  1  0
  9 10  1  0
 11 10  1  0
 12  5  2  0
 13 14  1  0
 13 16  1  0
 14 17  1  0
 15 23  1  0
 16  1  1  0
 16 15  1  0
 17  5  1  0
 17 15  1  0
 19 18  2  0
 20 18  1  0
 21 19  1  0
 22 20  2  0
 23 21  2  0
 23 22  1  0
 24 25  2  0
 25 44  1  0
 26 29  1  0
 26 25  1  0
 27 28  1  0
 27 24  1  0
 28 26  2  0
 29 30  1  0
 30 31  2  0
 32 35  1  0
 32 31  1  0
 33 32  2  0
 34 33  1  0
 34 29  2  0
 35 36  1  0
 36 41  2  0
 36 37  1  0
 37 38  2  0
 38 39  1  0
 39 43  1  0
 40 39  2  0
 41 40  1  0
 42 41  1  0
 44 45  1  0
 45 48  1  0
 45 47  1  0
 46 44  2  0
 49 24  1  0
 49 50  1  0
 51 49  1  0
 52 53  2  0
 52  2  1  0
 53 54  1  0
 54 56  1  0
 55 66  2  0
 56 61  1  0
 57 65  1  0
 57 67  1  0
 58 64  1  0
 58 60  1  0
 59 65  1  0
 60 59  1  0
 61 60  2  0
 62 63  1  0
 62 56  2  0
 63 58  2  0
 64 57  1  0
 65 55  1  0
 67 69  2  0
 68 67  1  0
 70 68  1  0
 71 80  2  0
 71 76  1  0
 72 68  1  0
 72 76  1  0
 73 72  1  0
 74 75  1  0
 74 73  1  0
 75 71  1  0
 76 77  2  0
 77 78  1  0
 79 78  2  0
 80 79  1  0
 81 55  1  0
 81 86  1  0
 81 82  1  0
 82 85  1  1
 82 83  1  0
 84 82  1  0
 86 89  1  0
 87 91  1  0
 87 86  1  0
 88 87  2  0
 91 90  1  0
 93 91  1  0
 93 94  1  0
 93 92  1  0
M  ISO  4   5 100  17 100  53 101  54 101
M  END
>  <TORSDO>  (65) 
F 19

>  <SCORE>  (65) 
-11.024

>  <name>  (65) 
64

>  <ligand_id>  (65) 
64

>  <original_smiles>  (65) 
[H]c1c([H])c([H])c(C2([H])N(C(=O)N3C([H])([H])C([H])([H])C([H])([H])C([H])(n4nc(-c5c([H])c([H])c(Oc6c([H])c([H])c(F)c([H])c6F)c([H])c5[H])c(C(=O)N([H])[H])c4N([H])[H])C3([H])[H])C([H])([H])C([H])([H])C2([H])C(=O)N([H])C([H])([H])C([H])([H])Oc2c([H])c([H])c3c(c2[H])C([H])([H])N(C(=O)C([H])(N([H])C(=O)C([H])(N([H])C([H])([H])[H])C([H])([H])[H])C(C([H])([H])[H])(C([H])([H])[H])C([H])([H])[H])C([H])(C(=O)N([H])C2([H])c4c([H])c([H])c([H])c([H])c4C([H])([H])C([H])([H])C2([H])[H])C3([H])[H])c([H])c1[H]

>  <smiles>  (65) 
[H]c1c([H])c([H])c(C2([H])N(C(=O)N3C([H])([H])C([H])([H])C([H])([H])C([H])(n4nc(-c5c([H])c([H])c(Oc6c([H])c([H])c(F)c([H])c6F)c([H])c5[H])c(C(=O)N([H])[H])c4N([H])[H])C3([H])[H])C([H])([H])C([H])([H])C2([H])C(=O)N([H])C([H])([H])C([H])([H])Oc2c([H])c([H])c3c(c2[H])C([H])([H])N(C(=O)C([H])(N([H])C(=O)C([H])(N([H])C([H])([H])[H])C([H])([H])[H])C(C([H])([H])[H])(C([H])([H])[H])C([H])([H])[H])C([H])(C(=O)N([H])C2([H])c4c([H])c([H])c([H])c([H])c4C([H])([H])C([H])([H])C2([H])[H])C3([H])[H])c([H])c1[H]

$$$$
65:0:0
     RDKit          3D

 87 94  0  0  1  0  0  0  0  0999 V2000
  -30.3010  -15.7110   20.3000 C   0  0  0  0  0  0  0  0  0  0  0  0
  -30.4210  -13.1370   19.5500 C   0  0  0  0  0  2  0  0  0  0  0  0
  -29.5820  -12.6590   18.3300 C   0  0  0  0  0  2  0  0  0  0  0  0
  -28.1530  -12.2940   18.7600 C   0  0  0  0  0  2  0  0  0  0  0  0
  -27.5950  -13.3260   19.7670 C   0  0  0  0  0  3  0  0  0  0  0  0
  -28.5840  -13.7190   20.8880 C   0  0  0  0  0  2  0  0  0  0  0  0
  -29.7570  -14.3460   20.2320 N   0  0  0  0  0  0  0  0  0  0  0  0
  -31.5400  -15.5890   20.1980 O   0  0  0  0  0  0  0  0  0  0  0  0
  -27.9110  -19.2080   20.3140 C   0  0  0  0  0  3  0  0  0  0  0  0
  -28.9380  -20.0950   20.1770 C   0  0  0  0  0  0  0  0  0  0  0  0
  -28.1860  -17.6060   20.3940 C   0  0  0  0  0  2  0  0  0  0  0  0
  -30.0830  -18.7720   20.1740 C   0  0  0  0  0  3  0  0  0  0  0  0
  -29.6320  -17.1470   20.2800 N   0  0  0  0  0  0  0  0  0  0  0  0
  -25.2140  -13.8420   20.4710 C   0  0  0  0  0  0  0  0  0  0  0  0
  -24.1540  -13.0580   20.8230 C   0  0  0  0  0  0  0  0  0  0  0  0
  -24.6380  -11.7130   20.8260 C   0  0  0  0  0  0  0  0  0  0  0  0
  -26.2720  -12.9790   20.2660 N   0  0  0  0  0  0  0  0  0  0  0  0
  -25.9400  -11.6910   20.5490 N   0  0  0  0  0  0  0  0  0  0  0  0
  -23.9180  -10.4480   21.0170 C   0  0  0  0  0  0  0  0  0  0  0  0
  -24.3370   -9.4930   21.9710 C   0  0  0  0  0  3  0  0  0  0  0  0
  -23.6130   -8.2950   22.1520 C   0  0  0  0  0  3  0  0  0  0  0  0
  -22.4550   -8.0420   21.3800 C   0  0  0  0  0  0  0  0  0  0  0  0
  -22.0530   -8.9840   20.4170 C   0  0  0  0  0  3  0  0  0  0  0  0
  -22.7780  -10.1730   20.2330 C   0  0  0  0  0  3  0  0  0  0  0  0
  -21.7040   -6.8940   21.4680 O   0  0  0  0  0  0  0  0  0  0  0  0
  -21.6440   -6.1620   22.6270 C   0  0  0  0  0  0  0  0  0  0  0  0
  -21.2150   -6.7300   23.8460 C   0  0  0  0  0  3  0  0  0  0  0  0
  -21.1000   -5.9240   24.9960 C   0  0  0  0  0  3  0  0  0  0  0  0
  -21.4050   -4.5510   24.9280 C   0  0  0  0  0  0  0  0  0  0  0  0
  -21.8280   -3.9820   23.7140 C   0  0  0  0  0  3  0  0  0  0  0  0
  -21.9430   -4.7860   22.5660 C   0  0  0  0  0  0  0  0  0  0  0  0
  -22.3300   -4.2280   21.3920 F   0  0  0  0  0  0  0  0  0  0  0  0
  -21.2880   -3.7750   26.0310 F   0  0  0  0  0  0  0  0  0  0  0  0
  -22.7450  -13.5260   21.0380 C   0  0  0  0  0  0  0  0  0  0  0  0
  -21.9970  -12.8500   21.9020 N   0  0  0  0  0  0  0  0  0  0  0  0
  -22.3140  -14.5320   20.4750 O   0  0  0  0  0  0  0  0  0  0  0  0
  -22.3570  -12.0390   22.3840 H   0  0  0  0  0  0  0  0  0  0  0  0
  -21.0510  -13.1490   22.0850 H   0  0  0  0  0  0  0  0  0  0  0  0
  -25.3650  -15.2110   20.2740 N   0  0  0  0  0  0  0  0  0  0  0  0
  -24.5920  -15.8610   20.3520 H   0  0  0  0  0  0  0  0  0  0  0  0
  -26.2210  -15.6460   19.9550 H   0  0  0  0  0  0  0  0  0  0  0  0
  -29.0060  -21.9870   20.1030 C   0  0  0  0  0  1  0  0  0  0  0  0
  -27.9640  -23.6610   20.0710 C   0  0  0  0  0  1  0  0  0  0  0  0
  -28.1350  -25.4410   20.0870 O   0  0  0  0  0  0  0  0  0  0  0  0
  -24.6740  -31.7910   23.0480 C   0  0  0  0  0  0  0  0  0  0  0  0
  -27.1640  -26.6710   20.0510 C   0  0  0  0  0  0  0  0  0  0  0  0
  -23.4740  -30.3930   21.4240 C   0  0  0  0  0  3  0  0  0  0  0  0
  -24.9070  -28.7360   20.0030 C   0  0  0  0  0  0  0  0  0  0  0  0
  -26.0560  -30.5190   21.2870 C   0  0  0  0  0  2  0  0  0  0  0  0
  -26.1100  -29.0820   20.6300 C   0  0  0  0  0  0  0  0  0  0  0  0
  -27.2230  -28.0820   20.6160 C   0  0  0  0  0  3  0  0  0  0  0  0
  -25.9260  -26.5430   19.3700 C   0  0  0  0  0  3  0  0  0  0  0  0
  -24.8580  -27.4930   19.3450 C   0  0  0  0  0  3  0  0  0  0  0  0
  -23.7040  -29.6940   20.0530 C   0  0  0  0  0  2  0  0  0  0  0  0
  -24.7600  -30.9350   21.9710 N   0  0  0  0  0  0  0  0  0  0  0  0
  -23.5840  -32.0960   23.5640 O   0  0  0  0  0  0  0  0  0  0  0  0
  -22.7610  -29.4200   22.4020 C   0  0  0  0  0  0  0  0  0  0  0  0
  -21.4240  -29.2910   22.3040 N   0  0  0  0  0  0  0  0  0  0  0  0
  -23.4230  -28.7800   23.2230 O   0  0  0  0  0  0  0  0  0  0  0  0
  -20.9390  -29.8520   21.6170 H   0  0  0  0  0  0  0  0  0  0  0  0
  -18.0260  -28.1390   22.8920 C   0  0  0  0  0  0  0  0  0  0  0  0
  -20.5980  -28.3600   23.0850 C   0  0  0  0  0  3  0  0  0  0  0  0
  -20.6560  -26.9340   22.4900 C   0  0  0  0  0  2  0  0  0  0  0  0
  -19.5220  -26.6450   21.5030 C   0  0  0  0  0  2  0  0  0  0  0  0
  -18.1600  -26.8010   22.1860 C   0  0  0  0  0  2  0  0  0  0  0  0
  -19.1680  -28.8800   23.2990 C   0  0  0  0  0  0  0  0  0  0  0  0
  -18.9830  -30.1310   23.9260 C   0  0  0  0  0  3  0  0  0  0  0  0
  -17.6890  -30.6440   24.1440 C   0  0  0  0  0  3  0  0  0  0  0  0
  -16.5630  -29.9020   23.7490 C   0  0  0  0  0  3  0  0  0  0  0  0
  -16.7320  -28.6510   23.1280 C   0  0  0  0  0  3  0  0  0  0  0  0
  -25.9400  -32.4430   23.6810 C   0  0  0  0  0  3  0  0  0  0  0  0
  -26.4710  -31.6590   24.9450 C   0  0  1  0  0  0  0  0  0  0  0  0
  -25.3900  -31.4010   26.0220 C   0  0  0  0  0  1  0  0  0  0  0  0
  -27.0580  -30.2880   24.5420 C   0  0  0  0  0  1  0  0  0  0  0  0
  -27.6240  -32.4500   25.6070 C   0  0  0  0  0  1  0  0  0  0  0  0
  -25.6050  -33.8300   24.0620 N   0  0  0  0  0  0  0  0  0  0  0  0
  -25.9100  -34.9230   23.3500 C   0  0  0  0  0  0  0  0  0  0  0  0
  -26.5600  -34.8720   22.3040 O   0  0  0  0  0  0  0  0  0  0  0  0
  -25.0190  -33.9400   24.8760 H   0  0  0  0  0  0  0  0  0  0  0  0
  -24.1530  -36.7170   23.1260 C   0  0  0  0  0  1  0  0  0  0  0  0
  -25.4220  -36.2900   23.8790 C   0  0  0  0  0  3  0  0  0  0  0  0
  -27.5710  -37.1750   24.6790 C   0  0  0  0  0  1  0  0  0  0  0  0
  -26.4380  -37.3620   23.7760 N   0  0  0  0  0  0  0  0  0  0  0  0
  -26.0240  -38.2700   23.9690 H   0  0  0  0  0  0  0  0  0  0  0  0
  -31.1070  -18.9210   19.0390 C   0  0  0  0  0  2  0  0  0  0  0  0
  -30.4670  -18.8140   17.7810 O   0  0  0  0  0  0  0  0  0  0  0  0
  -29.8260  -19.5170   17.7200 H   0  0  0  0  0  0  0  0  0  0  0  0
  2  7  1  0
  3  4  1  0
  3  2  1  0
  5  4  1  0
  5 17  1  0
  5  6  1  0
  7  1  1  0
  7  6  1  0
  8  1  2  0
  9 11  1  0
 10  9  2  0
 12 85  1  0
 12 10  1  0
 12 13  1  0
 13  1  1  0
 13 11  1  0
 14 15  2  0
 15 16  1  0
 15 34  1  0
 16 19  1  0
 17 14  1  0
 17 18  1  0
 18 16  2  0
 19 20  1  0
 20 21  2  0
 22 25  1  0
 22 21  1  0
 23 22  2  0
 24 23  1  0
 24 19  2  0
 25 26  1  0
 26 27  1  0
 27 28  2  0
 29 28  1  0
 29 33  1  0
 30 29  2  0
 31 26  2  0
 31 30  1  0
 32 31  1  0
 34 35  1  0
 35 38  1  0
 35 37  1  0
 36 34  2  0
 39 40  1  0
 39 14  1  0
 41 39  1  0
 42 10  1  0
 43 44  1  0
 45 56  2  0
 46 44  1  0
 46 51  1  0
 47 55  1  0
 47 57  1  0
 48 54  1  0
 48 50  1  0
 49 55  1  0
 50 49  1  0
 51 50  2  0
 52 46  2  0
 53 52  1  0
 53 48  2  0
 54 47  1  0
 55 45  1  0
 57 59  2  0
 58 57  1  0
 60 58  1  0
 61 70  2  0
 61 66  1  0
 62 58  1  0
 62 66  1  0
 63 62  1  0
 64 65  1  0
 64 63  1  0
 65 61  1  0
 66 67  2  0
 67 68  1  0
 69 68  2  0
 70 69  1  0
 71 45  1  0
 71 76  1  0
 71 72  1  0
 72 75  1  1
 72 73  1  0
 74 72  1  0
 76 79  1  0
 77 81  1  0
 77 76  1  0
 78 77  2  0
 81 80  1  0
 83 81  1  0
 83 84  1  0
 83 82  1  0
 86 85  1  0
 87 86  1  0
M  ISO  4   1 100  13 100  43 101  44 101
M  END
>  <TORSDO>  (66) 
F 19

>  <SCORE>  (66) 
-15.885

>  <name>  (66) 
65

>  <ligand_id>  (66) 
65

>  <original_smiles>  (66) 
[H]OC([H])([H])C1([H])C(C([H])([H])C([H])([H])Oc2c([H])c([H])c3c(c2[H])C([H])([H])N(C(=O)C([H])(N([H])C(=O)C([H])(N([H])C([H])([H])[H])C([H])([H])[H])C(C([H])([H])[H])(C([H])([H])[H])C([H])([H])[H])C([H])(C(=O)N([H])C2([H])c4c([H])c([H])c([H])c([H])c4C([H])([H])C([H])([H])C2([H])[H])C3([H])[H])=C([H])C([H])([H])N1C(=O)N1C([H])([H])C([H])([H])C([H])([H])C([H])(n2nc(-c3c([H])c([H])c(Oc4c([H])c([H])c(F)c([H])c4F)c([H])c3[H])c(C(=O)N([H])[H])c2N([H])[H])C1([H])[H]

>  <smiles>  (66) 
[H]OC([H])([H])C1([H])C(C([H])([H])C([H])([H])Oc2c([H])c([H])c3c(c2[H])C([H])([H])N(C(=O)C([H])(N([H])C(=O)C([H])(N([H])C([H])([H])[H])C([H])([H])[H])C(C([H])([H])[H])(C([H])([H])[H])C([H])([H])[H])C([H])(C(=O)N([H])C2([H])c4c([H])c([H])c([H])c([H])c4C([H])([H])C([H])([H])C2([H])[H])C3([H])[H])=C([H])C([H])([H])N1C(=O)N1C([H])([H])C([H])([H])C([H])([H])C([H])(n2nc(-c3c([H])c([H])c(Oc4c([H])c([H])c(F)c([H])c4F)c([H])c3[H])c(C(=O)N([H])[H])c2N([H])[H])C1([H])[H]

$$$$
66:0:0
     RDKit          3D

 88 97  0  0  1  0  0  0  0  0999 V2000
  -29.5360  -20.6450   20.3990 C   0  0  0  0  0  0  0  0  0  0  0  0
  -28.7620  -21.7990   20.0740 N   0  0  0  0  0  0  0  0  0  0  0  0
  -30.5830  -20.8460   21.0150 O   0  0  0  0  0  0  0  0  0  0  0  0
  -27.9050  -21.6090   19.5700 H   0  0  0  0  0  0  0  0  0  0  0  0
  -30.6010  -15.0420   20.0110 C   0  0  0  0  0  0  0  0  0  0  0  0
  -30.4470  -12.7130   18.9990 C   0  0  0  0  0  2  0  0  0  0  0  0
  -29.4440  -12.6790   17.8230 C   0  0  0  0  0  2  0  0  0  0  0  0
  -28.0110  -12.4400   18.3350 C   0  0  0  0  0  2  0  0  0  0  0  0
  -27.6660  -13.3170   19.5660 C   0  0  0  0  0  3  0  0  0  0  0  0
  -28.7880  -13.3010   20.6230 C   0  0  0  0  0  2  0  0  0  0  0  0
  -30.0010  -13.7800   19.9460 N   0  0  0  0  0  0  0  0  0  0  0  0
  -31.7770  -15.1030   19.6340 O   0  0  0  0  0  0  0  0  0  0  0  0
  -28.8660  -16.5860   21.2200 C   0  0  0  0  0  2  0  0  0  0  0  0
  -29.1660  -19.0820   20.0500 C   0  0  0  0  0  3  0  0  0  0  0  0
  -29.2470  -18.0740   21.2060 C   0  0  0  0  0  3  0  0  0  0  0  0
  -30.1840  -17.7600   20.0760 C   0  0  0  0  0  3  0  0  0  0  0  0
  -29.8480  -16.2550   20.1870 N   0  0  0  0  0  0  0  0  0  0  0  0
  -25.3290  -13.8400   20.4650 C   0  0  0  0  0  0  0  0  0  0  0  0
  -24.2990  -13.0420   20.8750 C   0  0  0  0  0  0  0  0  0  0  0  0
  -24.7730  -11.6990   20.7690 C   0  0  0  0  0  0  0  0  0  0  0  0
  -26.3650  -12.9850   20.1340 N   0  0  0  0  0  0  0  0  0  0  0  0
  -26.0430  -11.6880   20.3800 N   0  0  0  0  0  0  0  0  0  0  0  0
  -24.0690  -10.4230   20.9580 C   0  0  0  0  0  0  0  0  0  0  0  0
  -24.5160   -9.4650   21.8940 C   0  0  0  0  0  3  0  0  0  0  0  0
  -23.8110   -8.2560   22.0710 C   0  0  0  0  0  3  0  0  0  0  0  0
  -22.6440   -7.9960   21.3130 C   0  0  0  0  0  0  0  0  0  0  0  0
  -22.2160   -8.9440   20.3680 C   0  0  0  0  0  3  0  0  0  0  0  0
  -22.9230  -10.1450   20.1890 C   0  0  0  0  0  3  0  0  0  0  0  0
  -21.9100   -6.8380   21.4010 O   0  0  0  0  0  0  0  0  0  0  0  0
  -21.7970   -6.1440   22.5780 C   0  0  0  0  0  0  0  0  0  0  0  0
  -21.2550   -6.7340   23.7410 C   0  0  0  0  0  3  0  0  0  0  0  0
  -21.0930   -5.9640   24.9100 C   0  0  0  0  0  3  0  0  0  0  0  0
  -21.4610   -4.6050   24.9170 C   0  0  0  0  0  0  0  0  0  0  0  0
  -21.9950   -4.0150   23.7590 C   0  0  0  0  0  3  0  0  0  0  0  0
  -22.1600   -4.7820   22.5920 C   0  0  0  0  0  0  0  0  0  0  0  0
  -22.6550   -4.2020   21.4710 F   0  0  0  0  0  0  0  0  0  0  0  0
  -21.2970   -3.8650   26.0370 F   0  0  0  0  0  0  0  0  0  0  0  0
  -22.9160  -13.4970   21.2440 C   0  0  0  0  0  0  0  0  0  0  0  0
  -22.2520  -12.7710   22.1360 N   0  0  0  0  0  0  0  0  0  0  0  0
  -22.4380  -14.5290   20.7770 O   0  0  0  0  0  0  0  0  0  0  0  0
  -22.6560  -11.9390   22.5400 H   0  0  0  0  0  0  0  0  0  0  0  0
  -21.3260  -13.0550   22.4230 H   0  0  0  0  0  0  0  0  0  0  0  0
  -25.4600  -15.2170   20.3160 N   0  0  0  0  0  0  0  0  0  0  0  0
  -24.6840  -15.8490   20.4840 H   0  0  0  0  0  0  0  0  0  0  0  0
  -26.2600  -15.6720   19.8990 H   0  0  0  0  0  0  0  0  0  0  0  0
  -29.0260  -23.3430   20.3740 C   0  0  0  0  0  3  0  0  0  0  0  0
  -28.0210  -24.6540   19.9850 C   0  0  0  0  0  3  0  0  0  0  0  0
  -28.2610  -26.1760   20.2790 O   0  0  0  0  0  0  0  0  0  0  0  0
  -24.6330  -31.8640   23.2770 C   0  0  0  0  0  0  0  0  0  0  0  0
  -27.2130  -27.1710   20.2060 C   0  0  0  0  0  0  0  0  0  0  0  0
  -23.4390  -30.4910   21.6150 C   0  0  0  0  0  3  0  0  0  0  0  0
  -24.8910  -28.9290   20.1780 C   0  0  0  0  0  0  0  0  0  0  0  0
  -25.9950  -30.7510   21.4670 C   0  0  0  0  0  2  0  0  0  0  0  0
  -26.0690  -29.3640   20.7990 C   0  0  0  0  0  0  0  0  0  0  0  0
  -27.2310  -28.5020   20.7960 C   0  0  0  0  0  3  0  0  0  0  0  0
  -26.0130  -26.8440   19.5410 C   0  0  0  0  0  3  0  0  0  0  0  0
  -24.8780  -27.6840   19.5320 C   0  0  0  0  0  3  0  0  0  0  0  0
  -23.6670  -29.8310   20.2270 C   0  0  0  0  0  2  0  0  0  0  0  0
  -24.7090  -31.0570   22.1740 N   0  0  0  0  0  0  0  0  0  0  0  0
  -23.5430  -32.1450   23.8010 O   0  0  0  0  0  0  0  0  0  0  0  0
  -22.7550  -29.4720   22.5620 C   0  0  0  0  0  0  0  0  0  0  0  0
  -21.4280  -29.2970   22.4180 N   0  0  0  0  0  0  0  0  0  0  0  0
  -23.4180  -28.8440   23.3900 O   0  0  0  0  0  0  0  0  0  0  0  0
  -20.9490  -29.8570   21.7290 H   0  0  0  0  0  0  0  0  0  0  0  0
  -18.0450  -28.0880   22.8820 C   0  0  0  0  0  0  0  0  0  0  0  0
  -20.6020  -28.3520   23.1740 C   0  0  0  0  0  3  0  0  0  0  0  0
  -20.7100  -26.9250   22.5870 C   0  0  0  0  0  2  0  0  0  0  0  0
  -19.6180  -26.6100   21.5610 C   0  0  0  0  0  2  0  0  0  0  0  0
  -18.2300  -26.7460   22.1940 C   0  0  0  0  0  2  0  0  0  0  0  0
  -19.1590  -28.8490   23.3290 C   0  0  0  0  0  0  0  0  0  0  0  0
  -18.9300  -30.1040   23.9330 C   0  0  0  0  0  3  0  0  0  0  0  0
  -17.6210  -30.5980   24.0960 C   0  0  0  0  0  3  0  0  0  0  0  0
  -16.5240  -29.8340   23.6640 C   0  0  0  0  0  3  0  0  0  0  0  0
  -16.7360  -28.5800   23.0610 C   0  0  0  0  0  3  0  0  0  0  0  0
  -25.9080  -32.4920   23.9190 C   0  0  0  0  0  3  0  0  0  0  0  0
  -25.6050  -33.8960   24.2360 N   0  0  0  0  0  0  0  0  0  0  0  0
  -25.9270  -34.9420   23.4620 C   0  0  0  0  0  0  0  0  0  0  0  0
  -26.5770  -34.8250   22.4200 O   0  0  0  0  0  0  0  0  0  0  0  0
  -25.0270  -34.0610   25.0470 H   0  0  0  0  0  0  0  0  0  0  0  0
  -24.1830  -36.7300   23.1450 C   0  0  0  0  0  1  0  0  0  0  0  0
  -25.4540  -36.3380   23.9150 C   0  0  0  0  0  3  0  0  0  0  0  0
  -27.6120  -37.2500   24.6570 C   0  0  0  0  0  1  0  0  0  0  0  0
  -26.4800  -37.3910   23.7450 N   0  0  0  0  0  0  0  0  0  0  0  0
  -26.0760  -38.3140   23.8820 H   0  0  0  0  0  0  0  0  0  0  0  0
  -26.3870  -31.7290   25.2150 C   0  0  1  0  0  0  0  0  0  0  0  0
  -25.2690  -31.5140   26.2620 C   0  0  0  0  0  1  0  0  0  0  0  0
  -26.9650  -30.3410   24.8540 C   0  0  0  0  0  1  0  0  0  0  0  0
  -27.5280  -32.5200   25.8960 C   0  0  0  0  0  1  0  0  0  0  0  0
  1  3  2  0
  2 46  1  0
  2  1  1  0
  4  2  1  0
  5 17  1  0
  6 11  1  0
  7  8  1  0
  7  6  1  0
  9  8  1  0
  9 21  1  0
  9 10  1  0
 11  5  1  0
 11 10  1  0
 12  5  2  0
 14 16  1  0
 14  1  1  0
 14 15  1  0
 15 13  1  0
 16 17  1  0
 16 15  1  0
 17 13  1  0
 18 19  2  0
 19 38  1  0
 20 19  1  0
 20 23  1  0
 21 22  1  0
 21 18  1  0
 22 20  2  0
 23 24  1  0
 24 25  2  0
 26 29  1  0
 26 25  1  0
 27 26  2  0
 28 27  1  0
 28 23  2  0
 29 30  1  0
 30 35  2  0
 30 31  1  0
 31 32  2  0
 32 33  1  0
 33 37  1  0
 34 33  2  0
 35 34  1  0
 36 35  1  0
 38 39  1  0
 39 42  1  0
 39 41  1  0
 40 38  2  0
 43 18  1  0
 43 44  1  0
 45 43  1  0
 47 48  1  0
 47 46  2  0
 49 60  2  0
 50 48  1  0
 50 55  1  0
 51 59  1  0
 51 61  1  0
 52 58  1  0
 52 54  1  0
 53 59  1  0
 54 53  1  0
 55 54  2  0
 56 50  2  0
 57 56  1  0
 57 52  2  0
 58 51  1  0
 59 49  1  0
 61 63  2  0
 62 61  1  0
 64 62  1  0
 65 74  2  0
 65 70  1  0
 66 62  1  0
 66 70  1  0
 67 66  1  0
 68 69  1  0
 68 67  1  0
 69 65  1  0
 70 71  2  0
 71 72  1  0
 73 72  2  0
 74 73  1  0
 75 49  1  0
 75 76  1  0
 75 85  1  0
 76 79  1  0
 77 81  1  0
 77 76  1  0
 78 77  2  0
 81 80  1  0
 83 84  1  0
 83 81  1  0
 83 82  1  0
 85 88  1  1
 85 86  1  0
 87 85  1  0
M  ISO  4   5 100  17 100  47 101  48 101
M  END
>  <TORSDO>  (67) 
F 18

>  <SCORE>  (67) 
-14.806

>  <name>  (67) 
66

>  <ligand_id>  (67) 
66

>  <original_smiles>  (67) 
[H]c1c([H])c([H])c2c(c1[H])C([H])([H])C([H])([H])C([H])([H])C2([H])N([H])C(=O)C1([H])N(C(=O)C([H])(N([H])C(=O)C([H])(N([H])C([H])([H])[H])C([H])([H])[H])C(C([H])([H])[H])(C([H])([H])[H])C([H])([H])[H])C([H])([H])c2c([H])c(OC([H])([H])C([H])([H])N([H])C(=O)C3([H])C4([H])N(C(=O)N5C([H])([H])C([H])([H])C([H])([H])C([H])(n6nc(-c7c([H])c([H])c(Oc8c([H])c([H])c(F)c([H])c8F)c([H])c7[H])c(C(=O)N([H])[H])c6N([H])[H])C5([H])[H])C([H])([H])C34[H])c([H])c([H])c2C1([H])[H]

>  <smiles>  (67) 
[H]c1c([H])c([H])c2c(c1[H])C([H])([H])C([H])([H])C([H])([H])C2([H])N([H])C(=O)C1([H])N(C(=O)C([H])(N([H])C(=O)C([H])(N([H])C([H])([H])[H])C([H])([H])[H])C(C([H])([H])[H])(C([H])([H])[H])C([H])([H])[H])C([H])([H])c2c([H])c(OC([H])([H])C([H])([H])N([H])C(=O)C3([H])C4([H])N(C(=O)N5C([H])([H])C([H])([H])C([H])([H])C([H])(n6nc(-c7c([H])c([H])c(Oc8c([H])c([H])c(F)c([H])c8F)c([H])c7[H])c(C(=O)N([H])[H])c6N([H])[H])C5([H])[H])C([H])([H])C34[H])c([H])c([H])c2C1([H])[H]

$$$$
67:0:0
     RDKit          3D

 90 99  0  0  1  0  0  0  0  0999 V2000
  -29.5000  -20.1840   21.0960 C   0  0  0  0  0  3  0  0  0  0  0  0
  -29.7750  -19.6100   22.3390 C   0  0  0  0  0  3  0  0  0  0  0  0
  -30.6170  -17.6380   21.2320 C   0  0  0  0  0  3  0  0  0  0  0  0
  -29.7310  -19.5720   19.8360 C   0  0  0  0  0  0  0  0  0  0  0  0
  -30.3640  -18.1000   19.9100 C   0  0  0  0  0  0  0  0  0  0  0  0
  -30.3370  -18.3420   22.4070 C   0  0  0  0  0  0  0  0  0  0  0  0
  -30.6100  -17.7860   23.6110 F   0  0  0  0  0  0  0  0  0  0  0  0
  -31.3970  -15.4890   19.1280 C   0  0  0  0  0  0  0  0  0  0  0  0
  -31.1400  -13.0430   18.2970 C   0  0  0  0  0  2  0  0  0  0  0  0
  -30.0580  -12.8080   17.2150 C   0  0  0  0  0  2  0  0  0  0  0  0
  -28.6840  -12.5800   17.8640 C   0  0  0  0  0  2  0  0  0  0  0  0
  -28.4120  -13.5810   19.0140 C   0  0  0  0  0  3  0  0  0  0  0  0
  -29.6090  -13.7500   19.9710 C   0  0  0  0  0  2  0  0  0  0  0  0
  -30.7300  -14.2280   19.1420 N   0  0  0  0  0  0  0  0  0  0  0  0
  -32.5900  -15.3610   18.8170 O   0  0  0  0  0  0  0  0  0  0  0  0
  -30.7980  -16.8560   18.9940 N   0  0  0  0  0  0  0  0  0  0  0  0
  -31.1310  -17.2150   18.1100 H   0  0  0  0  0  0  0  0  0  0  0  0
  -26.2400  -14.2150   20.1810 C   0  0  0  0  0  0  0  0  0  0  0  0
  -25.1970  -13.4740   20.6630 C   0  0  0  0  0  0  0  0  0  0  0  0
  -25.5610  -12.1060   20.4730 C   0  0  0  0  0  0  0  0  0  0  0  0
  -27.1680  -13.3010   19.7170 N   0  0  0  0  0  0  0  0  0  0  0  0
  -26.7850  -12.0210   19.9590 N   0  0  0  0  0  0  0  0  0  0  0  0
  -24.7870  -10.8770   20.6950 C   0  0  0  0  0  0  0  0  0  0  0  0
  -25.1890   -9.9100   21.6440 C   0  0  0  0  0  3  0  0  0  0  0  0
  -24.4140   -8.7490   21.8540 C   0  0  0  0  0  3  0  0  0  0  0  0
  -23.2250   -8.5450   21.1170 C   0  0  0  0  0  0  0  0  0  0  0  0
  -22.8420   -9.4990   20.1550 C   0  0  0  0  0  3  0  0  0  0  0  0
  -23.6160  -10.6510   19.9440 C   0  0  0  0  0  3  0  0  0  0  0  0
  -22.4230   -7.4350   21.2350 O   0  0  0  0  0  0  0  0  0  0  0  0
  -22.1990   -6.8360   22.4480 C   0  0  0  0  0  0  0  0  0  0  0  0
  -21.6180   -7.5340   23.5290 C   0  0  0  0  0  3  0  0  0  0  0  0
  -21.3420   -6.8610   24.7350 C   0  0  0  0  0  3  0  0  0  0  0  0
  -21.6350   -5.4900   24.8600 C   0  0  0  0  0  0  0  0  0  0  0  0
  -22.2090   -4.7910   23.7850 C   0  0  0  0  0  3  0  0  0  0  0  0
  -22.4870   -5.4620   22.5800 C   0  0  0  0  0  0  0  0  0  0  0  0
  -23.0200   -4.7790   21.5390 F   0  0  0  0  0  0  0  0  0  0  0  0
  -21.3640   -4.8410   26.0180 F   0  0  0  0  0  0  0  0  0  0  0  0
  -23.8930  -14.0100   21.1750 C   0  0  0  0  0  0  0  0  0  0  0  0
  -23.2800  -13.3190   22.1290 N   0  0  0  0  0  0  0  0  0  0  0  0
  -23.4340  -15.0760   20.7620 O   0  0  0  0  0  0  0  0  0  0  0  0
  -23.6680  -12.4580   22.4800 H   0  0  0  0  0  0  0  0  0  0  0  0
  -22.4110  -13.6590   22.5150 H   0  0  0  0  0  0  0  0  0  0  0  0
  -26.4670  -15.5840   20.0690 N   0  0  0  0  0  0  0  0  0  0  0  0
  -25.7780  -16.2720   20.3520 H   0  0  0  0  0  0  0  0  0  0  0  0
  -27.2960  -15.9960   19.6600 H   0  0  0  0  0  0  0  0  0  0  0  0
  -27.8260  -21.4130   18.7690 C   0  0  0  0  0  2  0  0  0  0  0  0
  -29.2100  -20.8590   18.7930 C   0  0  0  0  0  3  0  0  0  0  0  0
  -28.7620  -22.6300   18.7400 C   0  0  0  0  0  3  0  0  0  0  0  0
  -27.9340  -24.0890   19.3610 C   0  0  0  0  0  2  0  0  0  0  0  0
  -28.1140  -25.7310   19.1870 O   0  0  0  0  0  0  0  0  0  0  0  0
  -24.6260  -31.3960   22.8150 C   0  0  0  0  0  0  0  0  0  0  0  0
  -27.0760  -26.8000   19.3000 C   0  0  0  0  0  0  0  0  0  0  0  0
  -23.3570  -30.0890   21.1620 C   0  0  0  0  0  3  0  0  0  0  0  0
  -24.7410  -28.6270   19.5370 C   0  0  0  0  0  0  0  0  0  0  0  0
  -25.9040  -30.3760   20.8650 C   0  0  0  0  0  2  0  0  0  0  0  0
  -25.9590  -29.0160   20.1060 C   0  0  0  0  0  0  0  0  0  0  0  0
  -27.1200  -28.1270   19.9610 C   0  0  0  0  0  3  0  0  0  0  0  0
  -25.8180  -26.5700   18.6970 C   0  0  0  0  0  3  0  0  0  0  0  0
  -24.6940  -27.4270   18.8110 C   0  0  0  0  0  3  0  0  0  0  0  0
  -23.5100  -29.5110   19.7280 C   0  0  0  0  0  2  0  0  0  0  0  0
  -24.6530  -30.6440   21.6680 N   0  0  0  0  0  0  0  0  0  0  0  0
  -23.5670  -31.6190   23.4250 O   0  0  0  0  0  0  0  0  0  0  0  0
  -22.7500  -29.0080   22.0960 C   0  0  0  0  0  0  0  0  0  0  0  0
  -21.4280  -28.7730   21.9990 N   0  0  0  0  0  0  0  0  0  0  0  0
  -23.4750  -28.3850   22.8750 O   0  0  0  0  0  0  0  0  0  0  0  0
  -20.8930  -29.3290   21.3470 H   0  0  0  0  0  0  0  0  0  0  0  0
  -18.1550  -27.2800   22.4720 C   0  0  0  0  0  0  0  0  0  0  0  0
  -20.6840  -27.7520   22.7460 C   0  0  0  0  0  3  0  0  0  0  0  0
  -20.9040  -26.3480   22.1360 C   0  0  0  0  0  2  0  0  0  0  0  0
  -19.8310  -25.9590   21.1130 C   0  0  0  0  0  2  0  0  0  0  0  0
  -18.4430  -25.9700   21.7600 C   0  0  0  0  0  2  0  0  0  0  0  0
  -19.2050  -28.1240   22.9220 C   0  0  0  0  0  0  0  0  0  0  0  0
  -18.8790  -29.3440   23.5520 C   0  0  0  0  0  3  0  0  0  0  0  0
  -17.5360  -29.7240   23.7340 C   0  0  0  0  0  3  0  0  0  0  0  0
  -16.5000  -28.8790   23.2990 C   0  0  0  0  0  3  0  0  0  0  0  0
  -16.8110  -27.6590   22.6750 C   0  0  0  0  0  3  0  0  0  0  0  0
  -25.9200  -32.0270   23.4110 C   0  0  0  0  0  3  0  0  0  0  0  0
  -25.5920  -33.3870   23.8740 N   0  0  0  0  0  0  0  0  0  0  0  0
  -25.9050  -34.5170   23.2260 C   0  0  0  0  0  0  0  0  0  0  0  0
  -26.5620  -34.5240   22.1820 O   0  0  0  0  0  0  0  0  0  0  0  0
  -25.0050  -33.4530   24.6940 H   0  0  0  0  0  0  0  0  0  0  0  0
  -24.1590  -36.3270   23.0770 C   0  0  0  0  0  1  0  0  0  0  0  0
  -25.4130  -35.8500   23.8280 C   0  0  0  0  0  3  0  0  0  0  0  0
  -27.5470  -36.6730   24.7240 C   0  0  0  0  0  1  0  0  0  0  0  0
  -26.4350  -36.9200   23.8090 N   0  0  0  0  0  0  0  0  0  0  0  0
  -26.0230  -37.8180   24.0450 H   0  0  0  0  0  0  0  0  0  0  0  0
  -26.5310  -31.1840   24.5980 C   0  0  1  0  0  0  0  0  0  0  0  0
  -25.5080  -30.8400   25.7080 C   0  0  0  0  0  1  0  0  0  0  0  0
  -27.1240  -29.8530   24.0840 C   0  0  0  0  0  1  0  0  0  0  0  0
  -27.6990  -31.9620   25.2470 C   0  0  0  0  0  1  0  0  0  0  0  0
  1  2  1  0
  2  6  2  0
  3  6  1  0
  4  5  1  0
  4  1  2  0
  5  3  2  0
  6  7  1  0
  8 14  1  0
  9 14  1  0
 10 11  1  0
 10  9  1  0
 12 11  1  0
 12 21  1  0
 12 13  1  0
 14 13  1  0
 15  8  2  0
 16  8  1  0
 16  5  1  0
 17 16  1  0
 18 19  2  0
 19 38  1  0
 20 19  1  0
 20 23  1  0
 21 22  1  0
 21 18  1  0
 22 20  2  0
 23 24  1  0
 24 25  2  0
 26 29  1  0
 26 25  1  0
 27 26  2  0
 28 27  1  0
 28 23  2  0
 29 30  1  0
 30 35  2  0
 30 31  1  0
 31 32  2  0
 32 33  1  0
 33 37  1  0
 34 33  2  0
 35 34  1  0
 36 35  1  0
 38 39  1  0
 39 41  1  0
 39 42  1  0
 40 38  2  0
 43 18  1  0
 43 44  1  0
 45 43  1  0
 46 47  1  0
 47  4  1  0
 48 46  1  0
 48 47  1  0
 48 49  1  0
 50 52  1  0
 50 49  1  0
 51 62  2  0
 52 57  1  0
 53 61  1  0
 53 63  1  0
 54 60  1  0
 54 56  1  0
 55 61  1  0
 56 55  1  0
 57 56  2  0
 58 59  1  0
 58 52  2  0
 59 54  2  0
 60 53  1  0
 61 51  1  0
 63 65  2  0
 64 63  1  0
 66 64  1  0
 67 76  2  0
 67 72  1  0
 68 64  1  0
 68 72  1  0
 69 68  1  0
 70 71  1  0
 70 69  1  0
 71 67  1  0
 72 73  2  0
 73 74  1  0
 75 74  2  0
 76 75  1  0
 77 51  1  0
 77 78  1  0
 77 87  1  0
 78 81  1  0
 79 83  1  0
 79 78  1  0
 80 79  2  0
 83 82  1  0
 85 83  1  0
 85 86  1  0
 85 84  1  0
 87 90  1  1
 87 88  1  0
 89 87  1  0
M  ISO  4   8 100  16 100  49 101  50 101
M  END
>  <TORSDO>  (68) 
F 18

>  <SCORE>  (68) 
-10.995

>  <name>  (68) 
67

>  <ligand_id>  (68) 
67

>  <original_smiles>  (68) 
[H]c1c([H])c([H])c2c(c1[H])C([H])([H])C([H])([H])C([H])([H])C2([H])N([H])C(=O)C1([H])N(C(=O)C([H])(N([H])C(=O)C([H])(N([H])C([H])([H])[H])C([H])([H])[H])C(C([H])([H])[H])(C([H])([H])[H])C([H])([H])[H])C([H])([H])c2c([H])c(OC([H])([H])C3([H])C([H])([H])C3([H])c3c([H])c([H])c(F)c([H])c3N([H])C(=O)N3C([H])([H])C([H])([H])C([H])([H])C([H])(n4nc(-c5c([H])c([H])c(Oc6c([H])c([H])c(F)c([H])c6F)c([H])c5[H])c(C(=O)N([H])[H])c4N([H])[H])C3([H])[H])c([H])c([H])c2C1([H])[H]

>  <smiles>  (68) 
[H]c1c([H])c([H])c2c(c1[H])C([H])([H])C([H])([H])C([H])([H])C2([H])N([H])C(=O)C1([H])N(C(=O)C([H])(N([H])C(=O)C([H])(N([H])C([H])([H])[H])C([H])([H])[H])C(C([H])([H])[H])(C([H])([H])[H])C([H])([H])[H])C([H])([H])c2c([H])c(OC([H])([H])C3([H])C([H])([H])C3([H])c3c([H])c([H])c(F)c([H])c3N([H])C(=O)N3C([H])([H])C([H])([H])C([H])([H])C([H])(n4nc(-c5c([H])c([H])c(Oc6c([H])c([H])c(F)c([H])c6F)c([H])c5[H])c(C(=O)N([H])[H])c4N([H])[H])C3([H])[H])c([H])c([H])c2C1([H])[H]

$$$$
68:0:0
     RDKit          3D

 90 99  0  0  1  0  0  0  0  0999 V2000
  -27.6140  -22.2690   18.0000 C   0  0  0  0  0  3  0  0  0  0  0  0
  -28.2010  -21.0770   18.4840 C   0  0  0  0  0  3  0  0  0  0  0  0
  -27.7200  -23.4950   18.6950 C   0  0  0  0  0  3  0  0  0  0  0  0
  -29.0070  -22.3280   20.3970 C   0  0  0  0  0  3  0  0  0  0  0  0
  -28.9380  -21.0470   19.6880 C   0  0  0  0  0  0  0  0  0  0  0  0
  -28.4030  -23.5830   19.9260 C   0  0  0  0  0  0  0  0  0  0  0  0
  -29.1940  -18.4680   20.9940 C   0  0  0  0  0  2  0  0  0  0  0  0
  -29.9730  -18.4410   19.1080 C   0  0  0  0  0  2  0  0  0  0  0  0
  -29.6840  -19.6660   20.0830 C   0  0  0  0  0  3  0  0  0  0  0  0
  -30.2350  -17.4780   20.3220 C   0  0  0  0  0  3  0  0  0  0  0  0
  -30.6870  -14.8420   20.0220 C   0  0  0  0  0  0  0  0  0  0  0  0
  -30.4850  -12.5430   19.0410 C   0  0  0  0  0  2  0  0  0  0  0  0
  -29.4830  -12.5790   17.8660 C   0  0  0  0  0  2  0  0  0  0  0  0
  -28.0400  -12.3980   18.3740 C   0  0  0  0  0  2  0  0  0  0  0  0
  -27.7180  -13.2920   19.6000 C   0  0  0  0  0  3  0  0  0  0  0  0
  -28.8330  -13.2270   20.6650 C   0  0  0  0  0  2  0  0  0  0  0  0
  -30.0840  -13.6010   19.9980 N   0  0  0  0  0  0  0  0  0  0  0  0
  -31.8680  -14.9460   19.6800 O   0  0  0  0  0  0  0  0  0  0  0  0
  -29.8910  -15.9740   20.2380 N   0  0  0  0  0  0  0  0  0  0  0  0
  -28.9290  -15.7510   20.4420 H   0  0  0  0  0  0  0  0  0  0  0  0
  -25.3830  -13.8830   20.4780 C   0  0  0  0  0  0  0  0  0  0  0  0
  -24.3330  -13.1100   20.8860 C   0  0  0  0  0  0  0  0  0  0  0  0
  -24.7780  -11.7550   20.7930 C   0  0  0  0  0  0  0  0  0  0  0  0
  -26.4040  -13.0010   20.1620 N   0  0  0  0  0  0  0  0  0  0  0  0
  -26.0510  -11.7140   20.4140 N   0  0  0  0  0  0  0  0  0  0  0  0
  -24.0470  -10.4950   20.9840 C   0  0  0  0  0  0  0  0  0  0  0  0
  -24.4850   -9.5220   21.9090 C   0  0  0  0  0  3  0  0  0  0  0  0
  -23.7580   -8.3250   22.0870 C   0  0  0  0  0  3  0  0  0  0  0  0
  -22.5770   -8.0940   21.3430 C   0  0  0  0  0  0  0  0  0  0  0  0
  -22.1570   -9.0570   20.4080 C   0  0  0  0  0  3  0  0  0  0  0  0
  -22.8860  -10.2440   20.2260 C   0  0  0  0  0  3  0  0  0  0  0  0
  -21.8180   -6.9520   21.4350 O   0  0  0  0  0  0  0  0  0  0  0  0
  -21.7320   -6.2380   22.6040 C   0  0  0  0  0  0  0  0  0  0  0  0
  -21.2080   -6.8030   23.7860 C   0  0  0  0  0  3  0  0  0  0  0  0
  -21.0700   -6.0120   24.9440 C   0  0  0  0  0  3  0  0  0  0  0  0
  -21.4480   -4.6560   24.9200 C   0  0  0  0  0  0  0  0  0  0  0  0
  -21.9700   -4.0890   23.7430 C   0  0  0  0  0  3  0  0  0  0  0  0
  -22.1070   -4.8780   22.5870 C   0  0  0  0  0  0  0  0  0  0  0  0
  -22.5870   -4.3230   21.4490 F   0  0  0  0  0  0  0  0  0  0  0  0
  -21.3100   -3.8940   26.0310 F   0  0  0  0  0  0  0  0  0  0  0  0
  -22.9580  -13.5910   21.2450 C   0  0  0  0  0  0  0  0  0  0  0  0
  -22.2710  -12.8800   22.1320 N   0  0  0  0  0  0  0  0  0  0  0  0
  -22.5050  -14.6360   20.7770 O   0  0  0  0  0  0  0  0  0  0  0  0
  -22.6510  -12.0350   22.5310 H   0  0  0  0  0  0  0  0  0  0  0  0
  -21.3500  -13.1840   22.4170 H   0  0  0  0  0  0  0  0  0  0  0  0
  -25.5460  -15.2570   20.3150 N   0  0  0  0  0  0  0  0  0  0  0  0
  -24.7640  -15.8890   20.4330 H   0  0  0  0  0  0  0  0  0  0  0  0
  -26.3330  -15.6900   19.8480 H   0  0  0  0  0  0  0  0  0  0  0  0
  -28.3280  -24.9540   20.7680 C   0  0  0  0  0  2  0  0  0  0  0  0
  -28.4430  -26.3520   20.1910 O   0  0  0  0  0  0  0  0  0  0  0  0
  -24.5730  -31.8240   23.1610 C   0  0  0  0  0  0  0  0  0  0  0  0
  -27.3340  -27.2360   20.1990 C   0  0  0  0  0  0  0  0  0  0  0  0
  -23.4490  -30.4160   21.4780 C   0  0  0  0  0  3  0  0  0  0  0  0
  -24.9630  -28.8670   20.1100 C   0  0  0  0  0  0  0  0  0  0  0  0
  -25.9950  -30.7450   21.3860 C   0  0  0  0  0  2  0  0  0  0  0  0
  -26.1130  -29.3620   20.7380 C   0  0  0  0  0  0  0  0  0  0  0  0
  -27.3100  -28.5660   20.7570 C   0  0  0  0  0  3  0  0  0  0  0  0
  -26.1520  -26.8030   19.5690 C   0  0  0  0  0  3  0  0  0  0  0  0
  -24.9880  -27.5940   19.5180 C   0  0  0  0  0  3  0  0  0  0  0  0
  -23.7210  -29.7400   20.1090 C   0  0  0  0  0  2  0  0  0  0  0  0
  -24.6910  -31.0140   22.0660 N   0  0  0  0  0  0  0  0  0  0  0  0
  -23.4670  -32.0880   23.6540 O   0  0  0  0  0  0  0  0  0  0  0  0
  -22.7580  -29.3930   22.4140 C   0  0  0  0  0  0  0  0  0  0  0  0
  -21.4270  -29.2490   22.2840 N   0  0  0  0  0  0  0  0  0  0  0  0
  -23.4200  -28.7320   23.2200 O   0  0  0  0  0  0  0  0  0  0  0  0
  -20.9510  -29.8360   21.6150 H   0  0  0  0  0  0  0  0  0  0  0  0
  -18.0150  -28.1580   22.8160 C   0  0  0  0  0  0  0  0  0  0  0  0
  -20.5880  -28.3060   23.0300 C   0  0  0  0  0  3  0  0  0  0  0  0
  -20.6210  -26.9000   22.3850 C   0  0  0  0  0  2  0  0  0  0  0  0
  -19.4800  -26.6640   21.3890 C   0  0  0  0  0  2  0  0  0  0  0  0
  -18.1210  -26.8350   22.0720 C   0  0  0  0  0  2  0  0  0  0  0  0
  -19.1730  -28.8560   23.2510 C   0  0  0  0  0  0  0  0  0  0  0  0
  -19.0190  -30.0940   23.9110 C   0  0  0  0  0  3  0  0  0  0  0  0
  -17.7400  -30.6350   24.1350 C   0  0  0  0  0  3  0  0  0  0  0  0
  -16.5970  -29.9360   23.7090 C   0  0  0  0  0  3  0  0  0  0  0  0
  -16.7350  -28.6980   23.0590 C   0  0  0  0  0  3  0  0  0  0  0  0
  -25.8210  -32.4740   23.8320 C   0  0  0  0  0  3  0  0  0  0  0  0
  -25.4780  -33.8670   24.1590 N   0  0  0  0  0  0  0  0  0  0  0  0
  -25.8020  -34.9300   23.4090 C   0  0  0  0  0  0  0  0  0  0  0  0
  -26.4890  -34.8390   22.3880 O   0  0  0  0  0  0  0  0  0  0  0  0
  -24.8720  -34.0070   24.9540 H   0  0  0  0  0  0  0  0  0  0  0  0
  -24.0500  -36.6960   23.0260 C   0  0  0  0  0  1  0  0  0  0  0  0
  -25.2830  -36.3090   23.8630 C   0  0  0  0  0  3  0  0  0  0  0  0
  -27.3760  -37.2340   24.7520 C   0  0  0  0  0  1  0  0  0  0  0  0
  -26.3000  -37.3790   23.7750 N   0  0  0  0  0  0  0  0  0  0  0  0
  -25.8730  -38.2920   23.9040 H   0  0  0  0  0  0  0  0  0  0  0  0
  -26.2980  -31.7090   25.1270 C   0  0  1  0  0  0  0  0  0  0  0  0
  -25.1670  -31.4530   26.1510 C   0  0  0  0  0  1  0  0  0  0  0  0
  -26.9150  -30.3410   24.7590 C   0  0  0  0  0  1  0  0  0  0  0  0
  -27.4110  -32.5180   25.8340 C   0  0  0  0  0  1  0  0  0  0  0  0
  1  2  2  0
  1  3  1  0
  2  5  1  0
  3  6  2  0
  5  4  2  0
  6  4  1  0
  6 49  1  0
  8  9  1  0
  8 10  1  0
  9  5  1  0
  9  7  1  0
 10 19  1  0
 10  7  1  0
 11 19  1  0
 12 17  1  0
 13 14  1  0
 13 12  1  0
 15 14  1  0
 15 24  1  0
 15 16  1  0
 17 11  1  0
 17 16  1  0
 18 11  2  0
 19 20  1  0
 21 22  2  0
 22 41  1  0
 23 22  1  0
 23 26  1  0
 24 25  1  0
 24 21  1  0
 25 23  2  0
 26 27  1  0
 27 28  2  0
 29 32  1  0
 29 28  1  0
 30 29  2  0
 31 30  1  0
 31 26  2  0
 32 33  1  0
 33 34  1  0
 34 35  2  0
 36 35  1  0
 36 40  1  0
 37 36  2  0
 38 33  2  0
 38 37  1  0
 39 38  1  0
 41 42  1  0
 42 45  1  0
 42 44  1  0
 43 41  2  0
 46 47  1  0
 46 21  1  0
 48 46  1  0
 50 52  1  0
 50 49  1  0
 51 62  2  0
 52 57  1  0
 53 61  1  0
 53 63  1  0
 54 56  1  0
 55 61  1  0
 56 57  2  0
 56 55  1  0
 58 52  2  0
 59 58  1  0
 59 54  2  0
 60 54  1  0
 60 53  1  0
 61 51  1  0
 63 65  2  0
 64 63  1  0
 66 64  1  0
 67 76  2  0
 67 72  1  0
 68 64  1  0
 68 72  1  0
 69 68  1  0
 70 71  1  0
 70 69  1  0
 71 67  1  0
 72 73  2  0
 73 74  1  0
 75 74  2  0
 76 75  1  0
 77 51  1  0
 77 78  1  0
 77 87  1  0
 78 81  1  0
 79 83  1  0
 79 78  1  0
 80 79  2  0
 83 82  1  0
 85 83  1  0
 85 86  1  0
 85 84  1  0
 87 90  1  1
 87 88  1  0
 89 87  1  0
M  ISO  4  11 100  19 100  49 101  50 101
M  END
>  <TORSDO>  (69) 
F 18

>  <SCORE>  (69) 
-14.347

>  <name>  (69) 
68

>  <ligand_id>  (69) 
68

>  <original_smiles>  (69) 
[H]c1c([H])c([H])c2c(c1[H])C([H])([H])C([H])([H])C([H])([H])C2([H])N([H])C(=O)C1([H])N(C(=O)C([H])(N([H])C(=O)C([H])(N([H])C([H])([H])[H])C([H])([H])[H])C(C([H])([H])[H])(C([H])([H])[H])C([H])([H])[H])C([H])([H])c2c([H])c(OC([H])([H])c3c([H])c([H])c([H])c(C4([H])C([H])([H])C([H])(N([H])C(=O)N5C([H])([H])C([H])([H])C([H])([H])C([H])(n6nc(-c7c([H])c([H])c(Oc8c([H])c([H])c(F)c([H])c8F)c([H])c7[H])c(C(=O)N([H])[H])c6N([H])[H])C5([H])[H])C4([H])[H])c3[H])c([H])c([H])c2C1([H])[H]

>  <smiles>  (69) 
[H]c1c([H])c([H])c2c(c1[H])C([H])([H])C([H])([H])C([H])([H])C2([H])N([H])C(=O)C1([H])N(C(=O)C([H])(N([H])C(=O)C([H])(N([H])C([H])([H])[H])C([H])([H])[H])C(C([H])([H])[H])(C([H])([H])[H])C([H])([H])[H])C([H])([H])c2c([H])c(OC([H])([H])c3c([H])c([H])c([H])c(C4([H])C([H])([H])C([H])(N([H])C(=O)N5C([H])([H])C([H])([H])C([H])([H])C([H])(n6nc(-c7c([H])c([H])c(Oc8c([H])c([H])c(F)c([H])c8F)c([H])c7[H])c(C(=O)N([H])[H])c6N([H])[H])C5([H])[H])C4([H])[H])c3[H])c([H])c([H])c2C1([H])[H]

$$$$
69:0:0
     RDKit          3D

 97106  0  0  1  0  0  0  0  0999 V2000
  -29.9530  -20.2730   22.7850 C   0  0  0  0  0  3  0  0  0  0  0  0
  -30.0290  -18.9590   22.2770 C   0  0  0  0  0  3  0  0  0  0  0  0
  -31.5640  -19.6910   20.5020 C   0  0  0  0  0  3  0  0  0  0  0  0
  -30.6770  -21.2800   22.1220 C   0  0  0  0  0  0  0  0  0  0  0  0
  -31.4760  -20.9930   21.0200 C   0  0  0  0  0  0  0  0  0  0  0  0
  -30.8190  -18.6710   21.1330 C   0  0  0  0  0  0  0  0  0  0  0  0
  -30.7040  -22.7220   22.3960 C   0  0  0  0  0  0  0  0  0  0  0  0
  -32.1620  -22.2310   20.5030 C   0  0  0  0  0  2  0  0  0  0  0  0
  -31.4510  -23.4010   21.2360 C   0  0  0  0  0  3  0  0  0  0  0  0
  -30.1490  -23.2970   23.3360 O   0  0  0  0  0  0  0  0  0  0  0  0
  -30.3850  -24.0060   20.4120 N   0  0  0  0  0  4  0  0  0  0  0  0
  -29.7120  -24.3850   21.0610 H   0  0  0  0  0  0  0  0  0  0  0  0
  -29.9330  -23.2560   19.9130 H   0  0  0  0  0  0  0  0  0  0  0  0
  -30.8240  -25.0570   19.4650 C   0  0  0  0  0  2  0  0  0  0  0  0
  -29.7030  -25.4400   18.4780 C   0  0  0  0  0  2  0  0  0  0  0  0
  -28.6730  -26.4260   19.0530 C   0  0  0  0  0  2  0  0  0  0  0  0
  -27.6280  -26.5850   18.1010 O   0  0  0  0  0  0  0  0  0  0  0  0
  -24.7520  -31.0910   22.8340 C   0  0  0  0  0  0  0  0  0  0  0  0
  -26.5550  -27.3340   18.5170 C   0  0  0  0  0  0  0  0  0  0  0  0
  -23.1930  -30.0950   21.1880 C   0  0  0  0  0  3  0  0  0  0  0  0
  -24.2840  -28.8390   19.2540 C   0  0  0  0  0  0  0  0  0  0  0  0
  -25.6610  -30.4210   20.6170 C   0  0  0  0  0  2  0  0  0  0  0  0
  -25.5530  -29.2040   19.7260 C   0  0  0  0  0  0  0  0  0  0  0  0
  -26.6910  -28.4530   19.3690 C   0  0  0  0  0  3  0  0  0  0  0  0
  -25.2780  -26.9810   18.0410 C   0  0  0  0  0  3  0  0  0  0  0  0
  -24.1390  -27.7200   18.4130 C   0  0  0  0  0  3  0  0  0  0  0  0
  -23.1210  -29.7010   19.6880 C   0  0  0  0  0  2  0  0  0  0  0  0
  -24.5640  -30.5360   21.6030 N   0  0  0  0  0  0  0  0  0  0  0  0
  -23.8000  -31.2780   23.6040 O   0  0  0  0  0  0  0  0  0  0  0  0
  -22.6520  -28.9170   22.0300 C   0  0  0  0  0  0  0  0  0  0  0  0
  -21.3220  -28.7320   22.0090 N   0  0  0  0  0  0  0  0  0  0  0  0
  -23.4170  -28.1800   22.6560 O   0  0  0  0  0  0  0  0  0  0  0  0
  -20.7610  -29.3820   21.4750 H   0  0  0  0  0  0  0  0  0  0  0  0
  -18.0370  -27.3140   22.5040 C   0  0  0  0  0  0  0  0  0  0  0  0
  -20.5900  -27.6650   22.6920 C   0  0  0  0  0  3  0  0  0  0  0  0
  -20.7280  -26.3230   21.9370 C   0  0  0  0  0  2  0  0  0  0  0  0
  -19.5920  -26.0730   20.9400 C   0  0  0  0  0  2  0  0  0  0  0  0
  -18.2400  -26.0670   21.6590 C   0  0  0  0  0  2  0  0  0  0  0  0
  -19.1400  -28.0730   22.9760 C   0  0  0  0  0  0  0  0  0  0  0  0
  -18.8960  -29.2430   23.7280 C   0  0  0  0  0  3  0  0  0  0  0  0
  -17.5810  -29.6550   24.0110 C   0  0  0  0  0  3  0  0  0  0  0  0
  -16.4920  -28.8910   23.5560 C   0  0  0  0  0  3  0  0  0  0  0  0
  -16.7220  -27.7210   22.8090 C   0  0  0  0  0  3  0  0  0  0  0  0
  -26.1650  -31.5400   23.3210 C   0  0  0  0  0  3  0  0  0  0  0  0
  -26.0210  -32.8690   23.9290 N   0  0  0  0  0  0  0  0  0  0  0  0
  -26.3760  -34.0170   23.3350 C   0  0  0  0  0  0  0  0  0  0  0  0
  -26.9320  -34.0570   22.2340 O   0  0  0  0  0  0  0  0  0  0  0  0
  -25.5250  -32.9150   24.8060 H   0  0  0  0  0  0  0  0  0  0  0  0
  -24.8110  -35.9800   23.4740 C   0  0  0  0  0  1  0  0  0  0  0  0
  -26.0630  -35.3270   24.0820 C   0  0  0  0  0  3  0  0  0  0  0  0
  -28.3260  -35.8630   24.8710 C   0  0  0  0  0  1  0  0  0  0  0  0
  -27.1830  -36.2930   24.0700 N   0  0  0  0  0  0  0  0  0  0  0  0
  -26.8800  -37.2010   24.4130 H   0  0  0  0  0  0  0  0  0  0  0  0
  -26.8220  -30.5260   24.3380 C   0  0  1  0  0  0  0  0  0  0  0  0
  -25.9040  -30.1540   25.5250 C   0  0  0  0  0  1  0  0  0  0  0  0
  -27.2230  -29.2140   23.6230 C   0  0  0  0  0  1  0  0  0  0  0  0
  -28.1240  -31.1340   24.9130 C   0  0  0  0  0  1  0  0  0  0  0  0
  -30.8400  -17.2620   20.5790 C   0  0  0  0  0  2  0  0  0  0  0  0
  -32.1650  -16.5250   20.8350 C   0  0  0  0  0  2  0  0  0  0  0  0
  -32.1600  -14.2870   19.7180 C   0  0  0  0  0  0  0  0  0  0  0  0
  -31.6640  -12.0250   18.8690 C   0  0  0  0  0  2  0  0  0  0  0  0
  -30.6270  -12.0270   17.7320 C   0  0  0  0  0  2  0  0  0  0  0  0
  -29.1910  -12.0150   18.2880 C   0  0  0  0  0  2  0  0  0  0  0  0
  -28.9680  -13.1170   19.3540 C   0  0  0  0  0  3  0  0  0  0  0  0
  -30.0830  -13.0610   20.4220 C   0  0  0  0  0  2  0  0  0  0  0  0
  -31.4000  -13.1660   19.7530 N   0  0  0  0  0  0  0  0  0  0  0  0
  -33.0330  -14.5170   18.8750 O   0  0  0  0  0  0  0  0  0  0  0  0
  -31.9270  -15.0940   20.7520 N   0  0  0  0  0  0  0  0  0  0  0  0
  -31.3030  -14.7150   21.4480 H   0  0  0  0  0  0  0  0  0  0  0  0
  -26.7670  -14.0140   20.3530 C   0  0  0  0  0  0  0  0  0  0  0  0
  -25.6370  -13.3780   20.7920 C   0  0  0  0  0  0  0  0  0  0  0  0
  -25.8830  -11.9810   20.6270 C   0  0  0  0  0  0  0  0  0  0  0  0
  -27.6410  -13.0130   19.9570 N   0  0  0  0  0  0  0  0  0  0  0  0
  -27.1140  -11.7800   20.1740 N   0  0  0  0  0  0  0  0  0  0  0  0
  -24.9980  -10.8240   20.8170 C   0  0  0  0  0  0  0  0  0  0  0  0
  -25.2500   -9.8580   21.8170 C   0  0  0  0  0  3  0  0  0  0  0  0
  -24.3750   -8.7640   21.9900 C   0  0  0  0  0  3  0  0  0  0  0  0
  -23.2320   -8.6310   21.1660 C   0  0  0  0  0  0  0  0  0  0  0  0
  -22.9990   -9.5840   20.1570 C   0  0  0  0  0  3  0  0  0  0  0  0
  -23.8740  -10.6680   19.9820 C   0  0  0  0  0  3  0  0  0  0  0  0
  -22.3390   -7.5900   21.2480 O   0  0  0  0  0  0  0  0  0  0  0  0
  -21.9420   -7.0760   22.4560 C   0  0  0  0  0  0  0  0  0  0  0  0
  -21.2930   -7.8720   23.4270 C   0  0  0  0  0  3  0  0  0  0  0  0
  -20.8390   -7.2870   24.6270 C   0  0  0  0  0  3  0  0  0  0  0  0
  -21.0220   -5.9090   24.8520 C   0  0  0  0  0  0  0  0  0  0  0  0
  -21.6630   -5.1150   23.8850 C   0  0  0  0  0  3  0  0  0  0  0  0
  -22.1180   -5.6970   22.6890 C   0  0  0  0  0  0  0  0  0  0  0  0
  -22.7150   -4.9230   21.7510 F   0  0  0  0  0  0  0  0  0  0  0  0
  -20.5780   -5.3460   26.0010 F   0  0  0  0  0  0  0  0  0  0  0  0
  -24.3620  -14.0290   21.2470 C   0  0  0  0  0  0  0  0  0  0  0  0
  -23.6390  -13.3890   22.1600 N   0  0  0  0  0  0  0  0  0  0  0  0
  -24.0250  -15.1360   20.8300 O   0  0  0  0  0  0  0  0  0  0  0  0
  -23.9290  -12.4930   22.5220 H   0  0  0  0  0  0  0  0  0  0  0  0
  -22.7850  -13.8050   22.5030 H   0  0  0  0  0  0  0  0  0  0  0  0
  -27.1170  -15.3550   20.2410 N   0  0  0  0  0  0  0  0  0  0  0  0
  -26.4690  -16.1020   20.4670 H   0  0  0  0  0  0  0  0  0  0  0  0
  -27.9880  -15.6910   19.8520 H   0  0  0  0  0  0  0  0  0  0  0  0
  2  1  1  0
  3  5  2  0
  3  6  1  0
  4  7  1  0
  4  1  2  0
  5  4  1  0
  6  2  2  0
  7 10  2  0
  8  5  1  0
  8  9  1  0
  9 11  1  0
  9  7  1  0
 11 12  1  0
 13 11  1  0
 14 11  1  0
 15 16  1  0
 15 14  1  0
 17 19  1  0
 17 16  1  0
 18 29  2  0
 19 24  1  0
 20 28  1  0
 20 30  1  0
 21 27  1  0
 21 23  1  0
 22 28  1  0
 23 22  1  0
 24 23  2  0
 25 26  1  0
 25 19  2  0
 26 21  2  0
 27 20  1  0
 28 18  1  0
 30 32  2  0
 31 30  1  0
 33 31  1  0
 34 43  2  0
 34 39  1  0
 35 31  1  0
 35 39  1  0
 36 35  1  0
 37 38  1  0
 37 36  1  0
 38 34  1  0
 39 40  2  0
 40 41  1  0
 42 41  2  0
 43 42  1  0
 44 18  1  0
 44 45  1  0
 44 54  1  0
 45 48  1  0
 46 45  1  0
 46 50  1  0
 47 46  2  0
 50 49  1  0
 52 50  1  0
 52 53  1  0
 52 51  1  0
 54 57  1  1
 54 55  1  0
 56 54  1  0
 58 59  1  0
 58  6  1  0
 60 66  1  0
 60 68  1  0
 61 66  1  0
 62 63  1  0
 62 61  1  0
 64 63  1  0
 64 73  1  0
 64 65  1  0
 66 65  1  0
 67 60  2  0
 68 59  1  0
 68 69  1  0
 70 71  2  0
 71 90  1  0
 72 71  1  0
 72 75  1  0
 73 74  1  0
 73 70  1  0
 74 72  2  0
 75 76  1  0
 76 77  2  0
 78 81  1  0
 78 77  1  0
 79 78  2  0
 80 79  1  0
 80 75  2  0
 81 82  1  0
 82 87  2  0
 82 83  1  0
 83 84  2  0
 84 85  1  0
 85 89  1  0
 86 85  2  0
 87 86  1  0
 88 87  1  0
 90 91  1  0
 91 94  1  0
 91 93  1  0
 92 90  2  0
 95 70  1  0
 95 96  1  0
 97 95  1  0
M  ISO  4  16 101  17 101  60 100  68 100
M  END
>  <TORSDO>  (70) 
F 22

>  <SCORE>  (70) 
-7.844

>  <name>  (70) 
69

>  <ligand_id>  (70) 
69

>  <original_smiles>  (70) 
[H]c1c([H])c([H])c2c(c1[H])C([H])([H])C([H])([H])C([H])([H])C2([H])N([H])C(=O)C1([H])N(C(=O)C([H])(N([H])C(=O)C([H])(N([H])C([H])([H])[H])C([H])([H])[H])C(C([H])([H])[H])(C([H])([H])[H])C([H])([H])[H])C([H])([H])c2c([H])c(OC([H])([H])C([H])([H])C([H])([H])[N+]([H])([H])C3([H])C(=O)c4c([H])c([H])c(C([H])([H])C([H])([H])N([H])C(=O)N5C([H])([H])C([H])([H])C([H])([H])C([H])(n6nc(-c7c([H])c([H])c(Oc8c([H])c([H])c(F)c([H])c8F)c([H])c7[H])c(C(=O)N([H])[H])c6N([H])[H])C5([H])[H])c([H])c4C3([H])[H])c([H])c([H])c2C1([H])[H]

>  <smiles>  (70) 
[H]c1c([H])c([H])c2c(c1[H])C([H])([H])C([H])([H])C([H])([H])C2([H])N([H])C(=O)C1([H])N(C(=O)C([H])(N([H])C(=O)C([H])(N([H])C([H])([H])[H])C([H])([H])[H])C(C([H])([H])[H])(C([H])([H])[H])C([H])([H])[H])C([H])([H])c2c([H])c(OC([H])([H])C([H])([H])C([H])([H])[N+]([H])([H])C3([H])C(=O)c4c([H])c([H])c(C([H])([H])C([H])([H])N([H])C(=O)N5C([H])([H])C([H])([H])C([H])([H])C([H])(n6nc(-c7c([H])c([H])c(Oc8c([H])c([H])c(F)c([H])c8F)c([H])c7[H])c(C(=O)N([H])[H])c6N([H])[H])C5([H])[H])c([H])c4C3([H])[H])c([H])c([H])c2C1([H])[H]

$$$$
70:0:0
     RDKit          3D

 85 90  0  0  1  0  0  0  0  0999 V2000
  -30.1250  -16.0540   20.2750 C   0  0  0  0  0  0  0  0  0  0  0  0
  -30.3450  -13.4230   19.4890 C   0  0  0  0  0  2  0  0  0  0  0  0
  -29.5130  -12.8230   18.3080 C   0  0  0  0  0  2  0  0  0  0  0  0
  -28.1160  -12.3900   18.7660 C   0  0  0  0  0  2  0  0  0  0  0  0
  -27.5310  -13.4230   19.7480 C   0  0  0  0  0  3  0  0  0  0  0  0
  -28.5210  -13.9010   20.8450 C   0  0  0  0  0  2  0  0  0  0  0  0
  -29.6320  -14.6330   20.1600 N   0  0  0  0  0  0  0  0  0  0  0  0
  -31.3720  -15.9080   20.3030 O   0  0  0  0  0  0  0  0  0  0  0  0
  -28.4780  -18.6320   18.2420 C   0  0  0  0  0  2  0  0  0  0  0  0
  -29.0770  -19.6250   18.8860 C   0  0  0  0  0  3  0  0  0  0  0  0
  -28.4090  -17.3670   19.0520 C   0  0  0  0  0  2  0  0  0  0  0  0
  -29.1980  -21.1370   18.6530 C   0  0  0  0  0  2  0  0  0  0  0  0
  -29.4820  -19.4430   20.3220 C   0  0  0  0  0  1  0  0  0  0  0  0
  -28.5850  -21.3200   20.0570 C   0  0  0  0  0  1  0  0  0  0  0  0
  -29.3780  -17.5270   20.1570 N   0  0  0  0  0  2  0  0  0  0  0  0
  -25.1570  -13.9170   20.4690 C   0  0  0  0  0  0  0  0  0  0  0  0
  -24.0980  -13.1300   20.8160 C   0  0  0  0  0  0  0  0  0  0  0  0
  -24.5860  -11.7870   20.8160 C   0  0  0  0  0  0  0  0  0  0  0  0
  -26.2170  -13.0590   20.2600 N   0  0  0  0  0  0  0  0  0  0  0  0
  -25.8880  -11.7670   20.5330 N   0  0  0  0  0  0  0  0  0  0  0  0
  -23.8640  -10.5190   21.0040 C   0  0  0  0  0  0  0  0  0  0  0  0
  -24.2770   -9.5650   21.9590 C   0  0  0  0  0  3  0  0  0  0  0  0
  -23.5500   -8.3690   22.1400 C   0  0  0  0  0  3  0  0  0  0  0  0
  -22.3920   -8.1170   21.3640 C   0  0  0  0  0  0  0  0  0  0  0  0
  -21.9980   -9.0600   20.3990 C   0  0  0  0  0  3  0  0  0  0  0  0
  -22.7260  -10.2470   20.2180 C   0  0  0  0  0  3  0  0  0  0  0  0
  -21.6380   -6.9720   21.4530 O   0  0  0  0  0  0  0  0  0  0  0  0
  -21.5690   -6.2430   22.6130 C   0  0  0  0  0  0  0  0  0  0  0  0
  -21.1170   -6.8110   23.8240 C   0  0  0  0  0  3  0  0  0  0  0  0
  -20.9950   -6.0080   24.9760 C   0  0  0  0  0  3  0  0  0  0  0  0
  -21.3150   -4.6380   24.9180 C   0  0  0  0  0  0  0  0  0  0  0  0
  -21.7600   -4.0700   23.7120 C   0  0  0  0  0  3  0  0  0  0  0  0
  -21.8840   -4.8690   22.5610 C   0  0  0  0  0  0  0  0  0  0  0  0
  -22.2930   -4.3120   21.3970 F   0  0  0  0  0  0  0  0  0  0  0  0
  -21.1910   -3.8650   26.0220 F   0  0  0  0  0  0  0  0  0  0  0  0
  -22.6900  -13.5960   21.0360 C   0  0  0  0  0  0  0  0  0  0  0  0
  -21.9470  -12.9150   21.8990 N   0  0  0  0  0  0  0  0  0  0  0  0
  -22.2570  -14.6040   20.4770 O   0  0  0  0  0  0  0  0  0  0  0  0
  -22.3120  -12.1010   22.3730 H   0  0  0  0  0  0  0  0  0  0  0  0
  -21.0010  -13.2110   22.0920 H   0  0  0  0  0  0  0  0  0  0  0  0
  -25.3020  -15.2880   20.2790 N   0  0  0  0  0  0  0  0  0  0  0  0
  -24.5230  -15.9300   20.3740 H   0  0  0  0  0  0  0  0  0  0  0  0
  -26.1590  -15.7410   19.9920 H   0  0  0  0  0  0  0  0  0  0  0  0
  -28.2900  -23.3480   20.5790 C   0  0  0  0  0 15  0  0  0  0  0  0
  -28.1890  -25.2070   20.2180 O   0  0  0  0  0  1  0  0  0  0  0  0
  -24.6670  -31.8270   23.1460 C   0  0  0  0  0  0  0  0  0  0  0  0
  -27.2110  -26.5060   20.2720 C   0  0  0  0  0  0  0  0  0  0  0  0
  -23.4980  -30.3930   21.5340 C   0  0  0  0  0  3  0  0  0  0  0  0
  -24.9540  -28.6810   20.1720 C   0  0  0  0  0  0  0  0  0  0  0  0
  -26.0870  -30.4770   21.4410 C   0  0  0  0  0  2  0  0  0  0  0  0
  -26.1560  -29.0080   20.8110 C   0  0  0  0  0  0  0  0  0  0  0  0
  -27.2600  -27.9590   20.8120 C   0  0  0  0  0  3  0  0  0  0  0  0
  -25.9650  -26.4520   19.5750 C   0  0  0  0  0  3  0  0  0  0  0  0
  -24.9120  -27.4300   19.5280 C   0  0  0  0  0  3  0  0  0  0  0  0
  -23.7560  -29.6580   20.1840 C   0  0  0  0  0  2  0  0  0  0  0  0
  -24.7770  -30.9400   22.0910 N   0  0  0  0  0  0  0  0  0  0  0  0
  -23.5660  -32.1380   23.6380 O   0  0  0  0  0  0  0  0  0  0  0  0
  -22.7630  -29.4470   22.5250 C   0  0  0  0  0  0  0  0  0  0  0  0
  -21.4280  -29.2990   22.4030 N   0  0  0  0  0  0  0  0  0  0  0  0
  -23.4100  -28.8400   23.3790 O   0  0  0  0  0  0  0  0  0  0  0  0
  -20.9510  -29.8390   21.6950 H   0  0  0  0  0  0  0  0  0  0  0  0
  -18.0400  -28.0830   22.9420 C   0  0  0  0  0  0  0  0  0  0  0  0
  -20.6000  -28.3740   23.1910 C   0  0  0  0  0  3  0  0  0  0  0  0
  -20.7060  -26.9310   22.6400 C   0  0  0  0  0  2  0  0  0  0  0  0
  -19.6050  -26.5880   21.6320 C   0  0  0  0  0  2  0  0  0  0  0  0
  -18.2240  -26.7300   22.2770 C   0  0  0  0  0  2  0  0  0  0  0  0
  -19.1550  -28.8620   23.3560 C   0  0  0  0  0  0  0  0  0  0  0  0
  -18.9230  -30.1240   23.9450 C   0  0  0  0  0  3  0  0  0  0  0  0
  -17.6140  -30.6090   24.1210 C   0  0  0  0  0  3  0  0  0  0  0  0
  -16.5150  -29.8300   23.7180 C   0  0  0  0  0  3  0  0  0  0  0  0
  -16.7280  -28.5680   23.1350 C   0  0  0  0  0  3  0  0  0  0  0  0
  -25.9140  -32.5060   23.7890 C   0  0  0  0  0  3  0  0  0  0  0  0
  -25.5660  -33.9050   24.1230 N   0  0  0  0  0  0  0  0  0  0  0  0
  -25.8890  -34.9830   23.3940 C   0  0  0  0  0  0  0  0  0  0  0  0
  -26.5610  -34.9040   22.3630 O   0  0  0  0  0  0  0  0  0  0  0  0
  -24.9640  -34.0370   24.9230 H   0  0  0  0  0  0  0  0  0  0  0  0
  -24.1420  -36.7760   23.0890 C   0  0  0  0  0  1  0  0  0  0  0  0
  -25.3940  -36.3640   23.8800 C   0  0  0  0  0  3  0  0  0  0  0  0
  -27.5250  -37.2690   24.7060 C   0  0  0  0  0  1  0  0  0  0  0  0
  -26.4150  -37.4300   23.7710 N   0  0  0  0  0  0  0  0  0  0  0  0
  -26.0000  -38.3450   23.9270 H   0  0  0  0  0  0  0  0  0  0  0  0
  -26.4170  -31.7650   25.0910 C   0  0  1  0  0  0  0  0  0  0  0  0
  -25.3110  -31.5410   26.1500 C   0  0  0  0  0  1  0  0  0  0  0  0
  -27.0160  -30.3840   24.7510 C   0  0  0  0  0  1  0  0  0  0  0  0
  -27.5530  -32.5810   25.7520 C   0  0  0  0  0  1  0  0  0  0  0  0
  1  8  2  0
  2  7  1  0
  3  4  1  0
  3  2  1  0
  5  4  1  0
  5 19  1  0
  5  6  1  0
  7  1  1  0
  7  6  1  0
  9 10  1  0
  9 11  1  0
 10 13  1  0
 11 15  1  0
 12 10  1  0
 12 14  1  0
 15  1  1  0
 16 17  2  0
 17 18  1  0
 17 36  1  0
 18 21  1  0
 19 16  1  0
 19 20  1  0
 20 18  2  0
 21 22  1  0
 22 23  2  0
 24 27  1  0
 24 23  1  0
 25 24  2  0
 26 25  1  0
 26 21  2  0
 27 28  1  0
 28 29  1  0
 29 30  2  0
 31 30  1  0
 31 35  1  0
 32 31  2  0
 33 28  2  0
 33 32  1  0
 34 33  1  0
 36 37  1  0
 37 40  1  0
 37 39  1  0
 38 36  2  0
 41 42  1  0
 41 16  1  0
 43 41  1  0
 45 47  1  0
 46 57  2  0
 47 52  1  0
 48 56  1  0
 48 58  1  0
 49 55  1  0
 49 51  1  0
 50 56  1  0
 51 52  2  0
 51 50  1  0
 53 47  2  0
 54 53  1  0
 54 49  2  0
 55 48  1  0
 56 46  1  0
 58 60  2  0
 59 58  1  0
 61 59  1  0
 62 71  2  0
 62 67  1  0
 63 59  1  0
 63 67  1  0
 64 63  1  0
 65 66  1  0
 65 64  1  0
 66 62  1  0
 67 68  2  0
 68 69  1  0
 70 69  2  0
 71 70  1  0
 72 46  1  0
 72 73  1  0
 72 82  1  0
 73 76  1  0
 74 78  1  0
 74 73  1  0
 75 74  2  0
 78 77  1  0
 80 78  1  0
 80 81  1  0
 80 79  1  0
 82 85  1  1
 82 83  1  0
 84 82  1  0
M  ISO  4   1 100  15 100  44 101  45 101
M  END
>  <TORSDO>  (71) 
F 16

>  <SCORE>  (71) 
-16.446

>  <name>  (71) 
70

>  <ligand_id>  (71) 
70

>  <original_smiles>  (71) 
[H]C1=C2C([H])([H])C([H])(C([H])([H])Oc3c([H])c([H])c4c(c3[H])C([H])([H])N(C(=O)C([H])(N([H])C(=O)C([H])(N([H])C([H])([H])[H])C([H])([H])[H])C(C([H])([H])[H])(C([H])([H])[H])C([H])([H])[H])C([H])(C(=O)N([H])C3([H])c5c([H])c([H])c([H])c([H])c5C([H])([H])C([H])([H])C3([H])[H])C4([H])[H])C2([H])N(C(=O)N2C([H])([H])C([H])([H])C([H])([H])C([H])(n3nc(-c4c([H])c([H])c(Oc5c([H])c([H])c(F)c([H])c5F)c([H])c4[H])c(C(=O)N([H])[H])c3N([H])[H])C2([H])[H])C1([H])[H]

>  <smiles>  (71) 
[H]C1=C2C([H])([H])C([H])(C([H])([H])Oc3c([H])c([H])c4c(c3[H])C([H])([H])N(C(=O)C([H])(N([H])C(=O)C([H])(N([H])C([H])([H])[H])C([H])([H])[H])C(C([H])([H])[H])(C([H])([H])[H])C([H])([H])[H])C([H])(C(=O)N([H])C3([H])c5c([H])c([H])c([H])c([H])c5C([H])([H])C([H])([H])C3([H])[H])C4([H])[H])C2([H])N(C(=O)N2C([H])([H])C([H])([H])C([H])([H])C([H])(n3nc(-c4c([H])c([H])c(Oc5c([H])c([H])c(F)c([H])c5F)c([H])c4[H])c(C(=O)N([H])[H])c3N([H])[H])C2([H])[H])C1([H])[H]

$$$$
71:0:0
     RDKit          3D

 94103  0  0  1  0  0  0  0  0999 V2000
  -31.1060  -17.6570   19.2810 C   0  0  0  0  0  0  0  0  0  0  0  0
  -31.7000  -19.0650   19.3420 C   0  0  0  0  0  2  0  0  0  0  0  0
  -29.0600  -18.3970   20.5210 C   0  0  0  0  0  2  0  0  0  0  0  0
  -28.4910  -21.1150   20.3910 C   0  0  0  0  0  2  0  0  0  0  0  0
  -31.2000  -21.5680   19.4670 C   0  0  0  0  0  2  0  0  0  0  0  0
  -30.2190  -17.2920   20.4830 C   0  0  0  0  0  3  0  0  0  0  0  0
  -30.5910  -20.1470   19.3600 C   0  0  0  0  0  3  0  0  0  0  0  0
  -29.5590  -19.9270   20.4940 C   0  0  0  0  0  3  0  0  0  0  0  0
  -29.1040  -22.5970   20.3740 C   0  0  0  0  0  3  0  0  0  0  0  0
  -30.1810  -22.6400   19.3540 N   0  0  0  0  0  4  0  0  0  0  0  0
  -31.2670  -16.9540   18.2800 O   0  0  0  0  0  0  0  0  0  0  0  0
  -29.7710  -22.5870   18.4340 H   0  0  0  0  0  0  0  0  0  0  0  0
  -30.6570  -23.5270   19.4150 H   0  0  0  0  0  0  0  0  0  0  0  0
  -30.5960  -14.6920   20.4440 C   0  0  0  0  0  0  0  0  0  0  0  0
  -30.3880  -12.4320   19.4350 C   0  0  0  0  0  2  0  0  0  0  0  0
  -29.4780  -12.5320   18.1930 C   0  0  0  0  0  2  0  0  0  0  0  0
  -27.9960  -12.3800   18.5910 C   0  0  0  0  0  2  0  0  0  0  0  0
  -27.6060  -13.2680   19.8030 C   0  0  0  0  0  3  0  0  0  0  0  0
  -28.6400  -13.1610   20.9450 C   0  0  0  0  0  2  0  0  0  0  0  0
  -29.9530  -13.4840   20.3750 N   0  0  0  0  0  0  0  0  0  0  0  0
  -31.8050  -14.7660   20.2150 O   0  0  0  0  0  0  0  0  0  0  0  0
  -29.8150  -15.8240   20.5620 N   0  0  0  0  0  0  0  0  0  0  0  0
  -28.8300  -15.6510   20.6810 H   0  0  0  0  0  0  0  0  0  0  0  0
  -25.2050  -13.8780   20.4660 C   0  0  0  0  0  0  0  0  0  0  0  0
  -24.1290  -13.1110   20.8210 C   0  0  0  0  0  0  0  0  0  0  0  0
  -24.5910  -11.7580   20.8210 C   0  0  0  0  0  0  0  0  0  0  0  0
  -26.2520  -12.9920   20.2660 N   0  0  0  0  0  0  0  0  0  0  0  0
  -25.8880  -11.7140   20.5440 N   0  0  0  0  0  0  0  0  0  0  0  0
  -23.8570  -10.5010   21.0100 C   0  0  0  0  0  0  0  0  0  0  0  0
  -24.2710   -9.5410   21.9590 C   0  0  0  0  0  3  0  0  0  0  0  0
  -23.5400   -8.3450   22.1350 C   0  0  0  0  0  3  0  0  0  0  0  0
  -22.3800   -8.1030   21.3610 C   0  0  0  0  0  0  0  0  0  0  0  0
  -21.9850   -9.0520   20.4010 C   0  0  0  0  0  3  0  0  0  0  0  0
  -22.7170  -10.2380   20.2240 C   0  0  0  0  0  3  0  0  0  0  0  0
  -21.6200   -6.9630   21.4470 O   0  0  0  0  0  0  0  0  0  0  0  0
  -21.5530   -6.2270   22.6030 C   0  0  0  0  0  0  0  0  0  0  0  0
  -21.1080   -6.7900   23.8190 C   0  0  0  0  0  3  0  0  0  0  0  0
  -20.9890   -5.9820   24.9670 C   0  0  0  0  0  3  0  0  0  0  0  0
  -21.3030   -4.6110   24.8990 C   0  0  0  0  0  0  0  0  0  0  0  0
  -21.7390   -4.0470   23.6870 C   0  0  0  0  0  3  0  0  0  0  0  0
  -21.8610   -4.8540   22.5420 C   0  0  0  0  0  0  0  0  0  0  0  0
  -22.2620   -4.3010   21.3710 F   0  0  0  0  0  0  0  0  0  0  0  0
  -21.1800   -3.8320   25.9980 F   0  0  0  0  0  0  0  0  0  0  0  0
  -22.7260  -13.5940   21.0490 C   0  0  0  0  0  0  0  0  0  0  0  0
  -21.9750  -12.9090   21.9040 N   0  0  0  0  0  0  0  0  0  0  0  0
  -22.3040  -14.6110   20.5010 O   0  0  0  0  0  0  0  0  0  0  0  0
  -22.3310  -12.0870   22.3680 H   0  0  0  0  0  0  0  0  0  0  0  0
  -21.0300  -13.2130   22.0980 H   0  0  0  0  0  0  0  0  0  0  0  0
  -25.3760  -15.2460   20.2710 N   0  0  0  0  0  0  0  0  0  0  0  0
  -24.6050  -15.9010   20.3490 H   0  0  0  0  0  0  0  0  0  0  0  0
  -26.2200  -15.6730   19.9150 H   0  0  0  0  0  0  0  0  0  0  0  0
  -28.1250  -23.8600   20.1600 C   0  0  0  0  0  2  0  0  0  0  0  0
  -28.4730  -25.2490   20.8740 C   0  0  0  0  0  2  0  0  0  0  0  0
  -28.4340  -26.5520   20.1780 O   0  0  0  0  0  0  0  0  0  0  0  0
  -24.6310  -31.8840   23.2460 C   0  0  0  0  0  0  0  0  0  0  0  0
  -27.2870  -27.3450   20.2240 C   0  0  0  0  0  0  0  0  0  0  0  0
  -23.4440  -30.4740   21.6020 C   0  0  0  0  0  3  0  0  0  0  0  0
  -24.9090  -28.9220   20.1940 C   0  0  0  0  0  0  0  0  0  0  0  0
  -25.9780  -30.8130   21.4280 C   0  0  0  0  0  2  0  0  0  0  0  0
  -26.0700  -29.4320   20.7910 C   0  0  0  0  0  0  0  0  0  0  0  0
  -27.2650  -28.6560   20.7900 C   0  0  0  0  0  3  0  0  0  0  0  0
  -26.1060  -26.8710   19.6220 C   0  0  0  0  0  3  0  0  0  0  0  0
  -24.9270  -27.6460   19.6020 C   0  0  0  0  0  3  0  0  0  0  0  0
  -23.6690  -29.7910   20.2270 C   0  0  0  0  0  2  0  0  0  0  0  0
  -24.7030  -31.0750   22.1490 N   0  0  0  0  0  0  0  0  0  0  0  0
  -23.5430  -32.1550   23.7760 O   0  0  0  0  0  0  0  0  0  0  0  0
  -22.7820  -29.4570   22.5620 C   0  0  0  0  0  0  0  0  0  0  0  0
  -21.4560  -29.2810   22.4360 N   0  0  0  0  0  0  0  0  0  0  0  0
  -23.4620  -28.8290   23.3790 O   0  0  0  0  0  0  0  0  0  0  0  0
  -20.9670  -29.8370   21.7490 H   0  0  0  0  0  0  0  0  0  0  0  0
  -18.0750  -28.1050   22.9530 C   0  0  0  0  0  0  0  0  0  0  0  0
  -20.6380  -28.3430   23.2060 C   0  0  0  0  0  3  0  0  0  0  0  0
  -20.7260  -26.9170   22.6170 C   0  0  0  0  0  2  0  0  0  0  0  0
  -19.6130  -26.6110   21.6090 C   0  0  0  0  0  2  0  0  0  0  0  0
  -18.2380  -26.7600   22.2640 C   0  0  0  0  0  2  0  0  0  0  0  0
  -19.2030  -28.8550   23.3820 C   0  0  0  0  0  0  0  0  0  0  0  0
  -18.9970  -30.1140   23.9850 C   0  0  0  0  0  3  0  0  0  0  0  0
  -17.6970  -30.6240   24.1650 C   0  0  0  0  0  3  0  0  0  0  0  0
  -16.5850  -29.8690   23.7540 C   0  0  0  0  0  3  0  0  0  0  0  0
  -16.7740  -28.6120   23.1550 C   0  0  0  0  0  3  0  0  0  0  0  0
  -25.9080  -32.5240   23.8740 C   0  0  0  0  0  3  0  0  0  0  0  0
  -25.5880  -33.9190   24.2040 N   0  0  0  0  0  0  0  0  0  0  0  0
  -25.9120  -34.9770   23.4460 C   0  0  0  0  0  0  0  0  0  0  0  0
  -26.5810  -34.8780   22.4140 O   0  0  0  0  0  0  0  0  0  0  0  0
  -24.9910  -34.0680   25.0050 H   0  0  0  0  0  0  0  0  0  0  0  0
  -24.1690  -36.7570   23.0970 C   0  0  0  0  0  1  0  0  0  0  0  0
  -25.4160  -36.3610   23.9040 C   0  0  0  0  0  3  0  0  0  0  0  0
  -27.5460  -37.2620   24.7290 C   0  0  0  0  0  1  0  0  0  0  0  0
  -26.4400  -37.4230   23.7880 N   0  0  0  0  0  0  0  0  0  0  0  0
  -26.0270  -38.3400   23.9370 H   0  0  0  0  0  0  0  0  0  0  0  0
  -26.4250  -31.7570   25.1530 C   0  0  1  0  0  0  0  0  0  0  0  0
  -25.3290  -31.5110   26.2170 C   0  0  0  0  0  1  0  0  0  0  0  0
  -27.0190  -30.3830   24.7660 C   0  0  0  0  0  1  0  0  0  0  0  0
  -27.5700  -32.5570   25.8180 C   0  0  0  0  0  1  0  0  0  0  0  0
  1  2  1  0
  1  6  1  0
  6  3  1  0
  6 22  1  0
  7  2  1  0
  7  5  1  0
  7  8  1  0
  8  4  1  0
  8  3  1  0
  9 52  1  0
  9  4  1  0
 10 13  1  0
 10  5  1  0
 10  9  1  0
 11  1  2  0
 12 10  1  0
 14 22  1  0
 15 20  1  0
 16 17  1  0
 16 15  1  0
 18 17  1  0
 18 27  1  0
 18 19  1  0
 20 14  1  0
 20 19  1  0
 21 14  2  0
 22 23  1  0
 24 25  2  0
 25 26  1  0
 25 44  1  0
 26 29  1  0
 27 24  1  0
 27 28  1  0
 28 26  2  0
 29 30  1  0
 30 31  2  0
 32 35  1  0
 32 31  1  0
 33 32  2  0
 34 33  1  0
 34 29  2  0
 35 36  1  0
 36 37  1  0
 37 38  2  0
 39 38  1  0
 39 43  1  0
 40 39  2  0
 41 36  2  0
 41 40  1  0
 42 41  1  0
 44 45  1  0
 45 48  1  0
 45 47  1  0
 46 44  2  0
 49 50  1  0
 49 24  1  0
 51 49  1  0
 52 53  1  0
 54 56  1  0
 54 53  1  0
 55 66  2  0
 56 61  1  0
 57 65  1  0
 57 67  1  0
 58 64  1  0
 58 60  1  0
 59 65  1  0
 60 59  1  0
 61 60  2  0
 62 56  2  0
 63 62  1  0
 63 58  2  0
 64 57  1  0
 65 55  1  0
 67 69  2  0
 68 67  1  0
 70 68  1  0
 71 80  2  0
 71 76  1  0
 72 68  1  0
 72 76  1  0
 73 72  1  0
 74 75  1  0
 74 73  1  0
 75 71  1  0
 76 77  2  0
 77 78  1  0
 79 78  2  0
 80 79  1  0
 81 55  1  0
 81 82  1  0
 81 91  1  0
 82 85  1  0
 83 87  1  0
 83 82  1  0
 84 83  2  0
 87 86  1  0
 89 87  1  0
 89 90  1  0
 89 88  1  0
 91 94  1  1
 91 92  1  0
 93 91  1  0
M  ISO  4  14 100  22 100  53 101  54 101
M  END
>  <TORSDO>  (72) 
F 18

>  <SCORE>  (72) 
-14.729

>  <name>  (72) 
71

>  <ligand_id>  (72) 
71

>  <original_smiles>  (72) 
[H]c1c([H])c([H])c2c(c1[H])C([H])([H])C([H])([H])C([H])([H])C2([H])N([H])C(=O)C1([H])N(C(=O)C([H])(N([H])C(=O)C([H])(N([H])C([H])([H])[H])C([H])([H])[H])C(C([H])([H])[H])(C([H])([H])[H])C([H])([H])[H])C([H])([H])c2c([H])c(OC([H])([H])C([H])([H])C3([H])C([H])([H])C4([H])C([H])([H])C([H])(N([H])C(=O)N5C([H])([H])C([H])([H])C([H])([H])C([H])(n6nc(-c7c([H])c([H])c(Oc8c([H])c([H])c(F)c([H])c8F)c([H])c7[H])c(C(=O)N([H])[H])c6N([H])[H])C5([H])[H])C(=O)C([H])([H])C4([H])C([H])([H])[N+]3([H])[H])c([H])c([H])c2C1([H])[H]

>  <smiles>  (72) 
[H]c1c([H])c([H])c2c(c1[H])C([H])([H])C([H])([H])C([H])([H])C2([H])N([H])C(=O)C1([H])N(C(=O)C([H])(N([H])C(=O)C([H])(N([H])C([H])([H])[H])C([H])([H])[H])C(C([H])([H])[H])(C([H])([H])[H])C([H])([H])[H])C([H])([H])c2c([H])c(OC([H])([H])C([H])([H])C3([H])C([H])([H])C4([H])C([H])([H])C([H])(N([H])C(=O)N5C([H])([H])C([H])([H])C([H])([H])C([H])(n6nc(-c7c([H])c([H])c(Oc8c([H])c([H])c(F)c([H])c8F)c([H])c7[H])c(C(=O)N([H])[H])c6N([H])[H])C5([H])[H])C(=O)C([H])([H])C4([H])C([H])([H])[N+]3([H])[H])c([H])c([H])c2C1([H])[H]

$$$$
72:0:0
     RDKit          3D

 89 98  0  0  1  0  0  0  0  0999 V2000
  -30.3140  -21.7200   21.8710 C   0  0  0  0  0  3  0  0  0  0  0  0
  -30.1130  -22.8370   21.1400 C   0  0  0  0  0  3  0  0  0  0  0  0
  -29.0740  -19.6760   19.5130 C   0  0  0  0  0  0  0  0  0  0  0  0
  -29.8510  -19.0650   21.6900 C   0  0  0  0  0  2  0  0  0  0  0  0
  -29.3110  -20.5960   21.6700 C   0  0  0  0  0  3  0  0  0  0  0  0
  -28.9460  -22.8160   20.1670 C   0  0  0  0  0  3  0  0  0  0  0  0
  -28.6090  -21.0590   20.3600 C   0  0  0  0  0  3  0  0  0  0  0  0
  -29.8840  -18.3790   20.2790 C   0  0  0  0  0  3  0  0  0  0  0  0
  -28.8090  -19.6200   18.3100 O   0  0  0  0  0  0  0  0  0  0  0  0
  -30.4390  -15.4520   20.0250 C   0  0  0  0  0  0  0  0  0  0  0  0
  -30.4020  -13.0250   19.0850 C   0  0  0  0  0  2  0  0  0  0  0  0
  -29.4200  -12.8180   17.9040 C   0  0  0  0  0  2  0  0  0  0  0  0
  -28.0020  -12.5150   18.4180 C   0  0  0  0  0  2  0  0  0  0  0  0
  -27.5960  -13.4510   19.5830 C   0  0  0  0  0  3  0  0  0  0  0  0
  -28.7010  -13.5980   20.6500 C   0  0  0  0  0  2  0  0  0  0  0  0
  -29.8820  -14.1420   19.9590 N   0  0  0  0  0  0  0  0  0  0  0  0
  -31.6520  -15.4650   19.7680 O   0  0  0  0  0  0  0  0  0  0  0  0
  -29.6630  -16.7130   20.1770 N   0  0  0  0  0  0  0  0  0  0  0  0
  -28.6830  -16.4890   20.2730 H   0  0  0  0  0  0  0  0  0  0  0  0
  -25.2680  -13.9580   20.4850 C   0  0  0  0  0  0  0  0  0  0  0  0
  -24.2340  -13.1570   20.8850 C   0  0  0  0  0  0  0  0  0  0  0  0
  -24.7120  -11.8140   20.7880 C   0  0  0  0  0  0  0  0  0  0  0  0
  -26.3040  -13.1020   20.1570 N   0  0  0  0  0  0  0  0  0  0  0  0
  -25.9860  -11.8050   20.4060 N   0  0  0  0  0  0  0  0  0  0  0  0
  -24.0080  -10.5390   20.9740 C   0  0  0  0  0  0  0  0  0  0  0  0
  -24.4530   -9.5770   21.9070 C   0  0  0  0  0  3  0  0  0  0  0  0
  -23.7450   -8.3690   22.0830 C   0  0  0  0  0  3  0  0  0  0  0  0
  -22.5760   -8.1140   21.3270 C   0  0  0  0  0  0  0  0  0  0  0  0
  -22.1500   -9.0650   20.3830 C   0  0  0  0  0  3  0  0  0  0  0  0
  -22.8600  -10.2640   20.2050 C   0  0  0  0  0  3  0  0  0  0  0  0
  -21.8390   -6.9580   21.4130 O   0  0  0  0  0  0  0  0  0  0  0  0
  -21.7430   -6.2510   22.5850 C   0  0  0  0  0  0  0  0  0  0  0  0
  -21.2170   -6.8270   23.7620 C   0  0  0  0  0  3  0  0  0  0  0  0
  -21.0710   -6.0440   24.9250 C   0  0  0  0  0  3  0  0  0  0  0  0
  -21.4420   -4.6870   24.9110 C   0  0  0  0  0  0  0  0  0  0  0  0
  -21.9610   -4.1100   23.7380 C   0  0  0  0  0  3  0  0  0  0  0  0
  -22.1070   -4.8900   22.5780 C   0  0  0  0  0  0  0  0  0  0  0  0
  -22.5870   -4.3230   21.4450 F   0  0  0  0  0  0  0  0  0  0  0  0
  -21.2960   -3.9320   26.0250 F   0  0  0  0  0  0  0  0  0  0  0  0
  -22.8490  -13.6110   21.2400 C   0  0  0  0  0  0  0  0  0  0  0  0
  -22.1740  -12.8850   22.1230 N   0  0  0  0  0  0  0  0  0  0  0  0
  -22.3770  -14.6460   20.7690 O   0  0  0  0  0  0  0  0  0  0  0  0
  -22.5710  -12.0480   22.5230 H   0  0  0  0  0  0  0  0  0  0  0  0
  -21.2460  -13.1690   22.4040 H   0  0  0  0  0  0  0  0  0  0  0  0
  -25.4040  -15.3350   20.3400 N   0  0  0  0  0  0  0  0  0  0  0  0
  -24.6300  -15.9700   20.5040 H   0  0  0  0  0  0  0  0  0  0  0  0
  -26.2090  -15.7920   19.9330 H   0  0  0  0  0  0  0  0  0  0  0  0
  -27.9520  -24.3300   20.3350 C   0  0  0  0  0  2  0  0  0  0  0  0
  -28.2080  -25.9700   20.3020 O   0  0  0  0  0  0  0  0  0  0  0  0
  -24.6270  -31.9490   23.2750 C   0  0  0  0  0  0  0  0  0  0  0  0
  -27.1910  -27.0670   20.2630 C   0  0  0  0  0  0  0  0  0  0  0  0
  -23.4380  -30.5570   21.6310 C   0  0  0  0  0  3  0  0  0  0  0  0
  -24.8910  -28.9530   20.2120 C   0  0  0  0  0  0  0  0  0  0  0  0
  -26.0060  -30.7670   21.4920 C   0  0  0  0  0  2  0  0  0  0  0  0
  -26.0780  -29.3560   20.8350 C   0  0  0  0  0  0  0  0  0  0  0  0
  -27.2230  -28.4370   20.8310 C   0  0  0  0  0  3  0  0  0  0  0  0
  -25.9700  -26.8170   19.5960 C   0  0  0  0  0  3  0  0  0  0  0  0
  -24.8620  -27.7040   19.5720 C   0  0  0  0  0  3  0  0  0  0  0  0
  -23.6730  -29.8760   20.2540 C   0  0  0  0  0  2  0  0  0  0  0  0
  -24.7120  -31.1180   22.1860 N   0  0  0  0  0  0  0  0  0  0  0  0
  -23.5350  -32.2370   23.7930 O   0  0  0  0  0  0  0  0  0  0  0  0
  -22.7400  -29.5590   22.5920 C   0  0  0  0  0  0  0  0  0  0  0  0
  -21.4130  -29.3840   22.4550 N   0  0  0  0  0  0  0  0  0  0  0  0
  -23.4020  -28.9420   23.4310 O   0  0  0  0  0  0  0  0  0  0  0  0
  -20.9320  -29.9340   21.7570 H   0  0  0  0  0  0  0  0  0  0  0  0
  -18.0330  -28.1540   22.9360 C   0  0  0  0  0  0  0  0  0  0  0  0
  -20.5890  -28.4430   23.2210 C   0  0  0  0  0  3  0  0  0  0  0  0
  -20.7070  -27.0090   22.6510 C   0  0  0  0  0  2  0  0  0  0  0  0
  -19.6180  -26.6740   21.6290 C   0  0  0  0  0  2  0  0  0  0  0  0
  -18.2280  -26.8060   22.2590 C   0  0  0  0  0  2  0  0  0  0  0  0
  -19.1410  -28.9280   23.3720 C   0  0  0  0  0  0  0  0  0  0  0  0
  -18.9030  -30.1860   23.9670 C   0  0  0  0  0  3  0  0  0  0  0  0
  -17.5900  -30.6710   24.1270 C   0  0  0  0  0  3  0  0  0  0  0  0
  -16.4980  -29.8950   23.7030 C   0  0  0  0  0  3  0  0  0  0  0  0
  -16.7200  -28.6380   23.1150 C   0  0  0  0  0  3  0  0  0  0  0  0
  -25.8940  -32.5920   23.9140 C   0  0  0  0  0  3  0  0  0  0  0  0
  -25.5770  -33.9920   24.2440 N   0  0  0  0  0  0  0  0  0  0  0  0
  -25.8840  -35.0500   23.4810 C   0  0  0  0  0  0  0  0  0  0  0  0
  -26.5260  -34.9500   22.4320 O   0  0  0  0  0  0  0  0  0  0  0  0
  -25.0040  -34.1430   25.0600 H   0  0  0  0  0  0  0  0  0  0  0  0
  -24.1230  -36.8280   23.2010 C   0  0  0  0  0  1  0  0  0  0  0  0
  -25.4050  -36.4390   23.9530 C   0  0  0  0  0  3  0  0  0  0  0  0
  -27.5630  -37.3620   24.6820 C   0  0  0  0  0  1  0  0  0  0  0  0
  -26.4210  -37.5020   23.7840 N   0  0  0  0  0  0  0  0  0  0  0  0
  -26.0090  -38.4200   23.9340 H   0  0  0  0  0  0  0  0  0  0  0  0
  -26.3900  -31.8300   25.2060 C   0  0  1  0  0  0  0  0  0  0  0  0
  -25.2790  -31.5950   26.2560 C   0  0  0  0  0  1  0  0  0  0  0  0
  -26.9850  -30.4510   24.8400 C   0  0  0  0  0  1  0  0  0  0  0  0
  -27.5260  -32.6320   25.8830 C   0  0  0  0  0  1  0  0  0  0  0  0
  2  1  2  0
  3  8  1  0
  5  4  1  0
  5  1  1  0
  6 48  1  0
  6  7  1  0
  6  2  1  0
  7  3  1  0
  7  5  1  0
  8 18  1  0
  8  4  1  0
  9  3  2  0
 10 18  1  0
 11 16  1  0
 12 13  1  0
 12 11  1  0
 14 13  1  0
 14 23  1  0
 14 15  1  0
 16 10  1  0
 16 15  1  0
 17 10  2  0
 18 19  1  0
 20 21  2  0
 21 40  1  0
 22 21  1  0
 22 25  1  0
 23 24  1  0
 23 20  1  0
 24 22  2  0
 25 26  1  0
 26 27  2  0
 28 31  1  0
 28 27  1  0
 29 28  2  0
 30 29  1  0
 30 25  2  0
 31 32  1  0
 32 33  1  0
 33 34  2  0
 35 34  1  0
 35 39  1  0
 36 35  2  0
 37 32  2  0
 37 36  1  0
 38 37  1  0
 40 41  1  0
 41 44  1  0
 41 43  1  0
 42 40  2  0
 45 20  1  0
 45 46  1  0
 47 45  1  0
 49 48  1  0
 50 61  2  0
 51 49  1  0
 51 56  1  0
 52 60  1  0
 52 62  1  0
 53 59  1  0
 53 55  1  0
 54 60  1  0
 55 54  1  0
 56 55  2  0
 57 51  2  0
 58 57  1  0
 58 53  2  0
 59 52  1  0
 60 50  1  0
 62 64  2  0
 63 62  1  0
 65 63  1  0
 66 75  2  0
 66 71  1  0
 67 63  1  0
 67 71  1  0
 68 67  1  0
 69 70  1  0
 69 68  1  0
 70 66  1  0
 71 72  2  0
 72 73  1  0
 74 73  2  0
 75 74  1  0
 76 50  1  0
 76 77  1  0
 76 86  1  0
 77 80  1  0
 78 82  1  0
 78 77  1  0
 79 78  2  0
 82 81  1  0
 84 85  1  0
 84 82  1  0
 84 83  1  0
 86 89  1  1
 86 87  1  0
 88 86  1  0
M  ISO  4  10 100  18 100  48 101  49 101
M  END
>  <TORSDO>  (73) 
F 17

>  <SCORE>  (73) 
-16.101

>  <name>  (73) 
72

>  <ligand_id>  (73) 
72

>  <original_smiles>  (73) 
[H]C1=C([H])C2([H])C([H])([H])C([H])(N([H])C(=O)N3C([H])([H])C([H])([H])C([H])([H])C([H])(n4nc(-c5c([H])c([H])c(Oc6c([H])c([H])c(F)c([H])c6F)c([H])c5[H])c(C(=O)N([H])[H])c4N([H])[H])C3([H])[H])C(=O)C2([H])C1([H])C([H])([H])Oc1c([H])c([H])c2c(c1[H])C([H])([H])N(C(=O)C([H])(N([H])C(=O)C([H])(N([H])C([H])([H])[H])C([H])([H])[H])C(C([H])([H])[H])(C([H])([H])[H])C([H])([H])[H])C([H])(C(=O)N([H])C1([H])c3c([H])c([H])c([H])c([H])c3C([H])([H])C([H])([H])C1([H])[H])C2([H])[H]

>  <smiles>  (73) 
[H]C1=C([H])C2([H])C([H])([H])C([H])(N([H])C(=O)N3C([H])([H])C([H])([H])C([H])([H])C([H])(n4nc(-c5c([H])c([H])c(Oc6c([H])c([H])c(F)c([H])c6F)c([H])c5[H])c(C(=O)N([H])[H])c4N([H])[H])C3([H])[H])C(=O)C2([H])C1([H])C([H])([H])Oc1c([H])c([H])c2c(c1[H])C([H])([H])N(C(=O)C([H])(N([H])C(=O)C([H])(N([H])C([H])([H])[H])C([H])([H])[H])C(C([H])([H])[H])(C([H])([H])[H])C([H])([H])[H])C([H])(C(=O)N([H])C1([H])c3c([H])c([H])c([H])c([H])c3C([H])([H])C([H])([H])C1([H])[H])C2([H])[H]

$$$$
73:0:0
     RDKit          3D

 94102  0  0  1  0  0  0  0  0999 V2000
  -28.6660  -20.8300   19.7050 C   0  0  0  0  0  2  0  0  0  0  0  0
  -28.5770  -18.7320   21.1220 C   0  0  0  0  0  3  0  0  0  0  0  0
  -28.9070  -17.3900   21.3980 C   0  0  0  0  0  3  0  0  0  0  0  0
  -30.5850  -17.4500   19.6480 C   0  0  0  0  0  3  0  0  0  0  0  0
  -29.2140  -19.4440   20.0830 C   0  0  0  0  0  0  0  0  0  0  0  0
  -30.2500  -18.7960   19.3560 C   0  0  0  0  0  0  0  0  0  0  0  0
  -29.8930  -16.7190   20.6460 C   0  0  0  0  0  0  0  0  0  0  0  0
  -30.6690  -14.4010   20.1300 C   0  0  0  0  0  0  0  0  0  0  0  0
  -30.2690  -12.2990   18.9050 C   0  0  0  0  0  2  0  0  0  0  0  0
  -29.2570  -12.5780   17.7730 C   0  0  0  0  0  2  0  0  0  0  0  0
  -27.8080  -12.4540   18.2860 C   0  0  0  0  0  2  0  0  0  0  0  0
  -27.5690  -13.2350   19.6040 C   0  0  0  0  0  3  0  0  0  0  0  0
  -28.6830  -12.9240   20.6300 C   0  0  0  0  0  2  0  0  0  0  0  0
  -29.9850  -13.2300   20.0080 N   0  0  0  0  0  0  0  0  0  0  0  0
  -31.7320  -14.6190   19.5420 O   0  0  0  0  0  0  0  0  0  0  0  0
  -30.0760  -15.3240   20.9090 N   0  0  0  0  0  0  0  0  0  0  0  0
  -29.3930  -14.9270   21.5340 H   0  0  0  0  0  0  0  0  0  0  0  0
  -25.2220  -13.8540   20.4650 C   0  0  0  0  0  0  0  0  0  0  0  0
  -24.1660  -13.0840   20.8750 C   0  0  0  0  0  0  0  0  0  0  0  0
  -24.6060  -11.7290   20.7790 C   0  0  0  0  0  0  0  0  0  0  0  0
  -26.2400  -12.9670   20.1500 N   0  0  0  0  0  0  0  0  0  0  0  0
  -25.8740  -11.6820   20.3940 N   0  0  0  0  0  0  0  0  0  0  0  0
  -23.8750  -10.4700   20.9760 C   0  0  0  0  0  0  0  0  0  0  0  0
  -24.3530   -9.4680   21.8490 C   0  0  0  0  0  3  0  0  0  0  0  0
  -23.6220   -8.2740   22.0360 C   0  0  0  0  0  3  0  0  0  0  0  0
  -22.4000   -8.0750   21.3520 C   0  0  0  0  0  0  0  0  0  0  0  0
  -21.9410   -9.0660   20.4660 C   0  0  0  0  0  3  0  0  0  0  0  0
  -22.6710  -10.2510   20.2770 C   0  0  0  0  0  3  0  0  0  0  0  0
  -21.6360   -6.9360   21.4520 O   0  0  0  0  0  0  0  0  0  0  0  0
  -21.6510   -6.1570   22.5800 C   0  0  0  0  0  0  0  0  0  0  0  0
  -21.3390   -6.6820   23.8530 C   0  0  0  0  0  3  0  0  0  0  0  0
  -21.2980   -5.8300   24.9760 C   0  0  0  0  0  3  0  0  0  0  0  0
  -21.5600   -4.4560   24.8270 C   0  0  0  0  0  0  0  0  0  0  0  0
  -21.8660   -3.9300   23.5600 C   0  0  0  0  0  3  0  0  0  0  0  0
  -21.9080   -4.7780   22.4400 C   0  0  0  0  0  0  0  0  0  0  0  0
  -22.1820   -4.2620   21.2180 F   0  0  0  0  0  0  0  0  0  0  0  0
  -21.5120   -3.6370   25.9040 F   0  0  0  0  0  0  0  0  0  0  0  0
  -22.7940  -13.5690   21.2450 C   0  0  0  0  0  0  0  0  0  0  0  0
  -22.1130  -12.8620   22.1410 N   0  0  0  0  0  0  0  0  0  0  0  0
  -22.3350  -14.6100   20.7750 O   0  0  0  0  0  0  0  0  0  0  0  0
  -22.4920  -12.0180   22.5430 H   0  0  0  0  0  0  0  0  0  0  0  0
  -21.1930  -13.1680   22.4260 H   0  0  0  0  0  0  0  0  0  0  0  0
  -25.3980  -15.2270   20.3150 N   0  0  0  0  0  0  0  0  0  0  0  0
  -24.6590  -15.8960   20.5000 H   0  0  0  0  0  0  0  0  0  0  0  0
  -26.2370  -15.6620   19.9500 H   0  0  0  0  0  0  0  0  0  0  0  0
  -30.4140  -19.0930   16.8450 C   0  0  0  0  0  1  0  0  0  0  0  0
  -30.9860  -19.4810   18.2130 C   0  0  0  0  0  2  0  0  0  0  0  0
  -29.3790  -22.0640   20.3150 C   0  0  0  0  0  2  0  0  0  0  0  0
  -28.7180  -23.3310   19.8950 N   0  0  0  0  0  4  0  0  0  0  0  0
  -27.9240  -23.4970   20.4950 H   0  0  0  0  0  0  0  0  0  0  0  0
  -28.3580  -23.1880   18.9640 H   0  0  0  0  0  0  0  0  0  0  0  0
  -29.5830  -24.5410   19.8680 C   0  0  0  0  0  2  0  0  0  0  0  0
  -28.9000  -25.7840   19.2330 C   0  0  0  0  0  2  0  0  0  0  0  0
  -28.5260  -26.7400   20.2330 O   0  0  0  0  0  0  0  0  0  0  0  0
  -24.6610  -31.8810   23.2260 C   0  0  0  0  0  0  0  0  0  0  0  0
  -27.3280  -27.4280   20.1650 C   0  0  0  0  0  0  0  0  0  0  0  0
  -23.4550  -30.4570   21.6010 C   0  0  0  0  0  3  0  0  0  0  0  0
  -24.9110  -28.9120   20.1820 C   0  0  0  0  0  0  0  0  0  0  0  0
  -25.9760  -30.8280   21.3870 C   0  0  0  0  0  2  0  0  0  0  0  0
  -26.0650  -29.4510   20.7600 C   0  0  0  0  0  0  0  0  0  0  0  0
  -27.2690  -28.7120   20.7570 C   0  0  0  0  0  3  0  0  0  0  0  0
  -26.1470  -26.8940   19.5990 C   0  0  0  0  0  3  0  0  0  0  0  0
  -24.9460  -27.6310   19.6020 C   0  0  0  0  0  3  0  0  0  0  0  0
  -23.6610  -29.7650   20.2260 C   0  0  0  0  0  2  0  0  0  0  0  0
  -24.7160  -31.0710   22.1290 N   0  0  0  0  0  0  0  0  0  0  0  0
  -23.5820  -32.1540   23.7680 O   0  0  0  0  0  0  0  0  0  0  0  0
  -22.8110  -29.4440   22.5740 C   0  0  0  0  0  0  0  0  0  0  0  0
  -21.4870  -29.2570   22.4540 N   0  0  0  0  0  0  0  0  0  0  0  0
  -23.5010  -28.8270   23.3900 O   0  0  0  0  0  0  0  0  0  0  0  0
  -20.9930  -29.8070   21.7660 H   0  0  0  0  0  0  0  0  0  0  0  0
  -18.1180  -28.0560   22.9640 C   0  0  0  0  0  0  0  0  0  0  0  0
  -20.6750  -28.3260   23.2350 C   0  0  0  0  0  3  0  0  0  0  0  0
  -20.7840  -26.8890   22.6740 C   0  0  0  0  0  2  0  0  0  0  0  0
  -19.6830  -26.5510   21.6630 C   0  0  0  0  0  2  0  0  0  0  0  0
  -18.3010  -26.6980   22.3040 C   0  0  0  0  0  2  0  0  0  0  0  0
  -19.2340  -28.8260   23.3860 C   0  0  0  0  0  0  0  0  0  0  0  0
  -19.0110  -30.0960   23.9610 C   0  0  0  0  0  3  0  0  0  0  0  0
  -17.7040  -30.5950   24.1180 C   0  0  0  0  0  3  0  0  0  0  0  0
  -16.6030  -29.8210   23.7130 C   0  0  0  0  0  3  0  0  0  0  0  0
  -16.8100  -28.5520   23.1410 C   0  0  0  0  0  3  0  0  0  0  0  0
  -25.9490  -32.5200   23.8350 C   0  0  0  0  0  3  0  0  0  0  0  0
  -25.6330  -33.9150   24.1690 N   0  0  0  0  0  0  0  0  0  0  0  0
  -25.9450  -34.9700   23.4060 C   0  0  0  0  0  0  0  0  0  0  0  0
  -26.6020  -34.8730   22.3660 O   0  0  0  0  0  0  0  0  0  0  0  0
  -25.0450  -34.0640   24.9770 H   0  0  0  0  0  0  0  0  0  0  0  0
  -24.1860  -36.7390   23.0860 C   0  0  0  0  0  1  0  0  0  0  0  0
  -25.4500  -36.3530   23.8700 C   0  0  0  0  0  3  0  0  0  0  0  0
  -27.5940  -37.2640   24.6470 C   0  0  0  0  0  1  0  0  0  0  0  0
  -26.4660  -37.4180   23.7320 N   0  0  0  0  0  0  0  0  0  0  0  0
  -26.0530  -38.3330   23.8910 H   0  0  0  0  0  0  0  0  0  0  0  0
  -26.4880  -31.7500   25.1020 C   0  0  1  0  0  0  0  0  0  0  0  0
  -25.4110  -31.5020   26.1840 C   0  0  0  0  0  1  0  0  0  0  0  0
  -27.0750  -30.3770   24.6960 C   0  0  0  0  0  1  0  0  0  0  0  0
  -27.6380  -32.5540   25.7540 C   0  0  0  0  0  1  0  0  0  0  0  0
  1  5  1  0
  1 48  1  0
  2  3  1  0
  4  7  1  0
  5  2  2  0
  6  4  2  0
  6  5  1  0
  7 16  1  0
  7  3  2  0
  8 16  1  0
  9 14  1  0
 10 11  1  0
 10  9  1  0
 12 11  1  0
 12 21  1  0
 12 13  1  0
 14  8  1  0
 14 13  1  0
 15  8  2  0
 16 17  1  0
 18 19  2  0
 19 38  1  0
 20 19  1  0
 20 23  1  0
 21 22  1  0
 21 18  1  0
 22 20  2  0
 23 24  1  0
 24 25  2  0
 26 29  1  0
 26 25  1  0
 27 26  2  0
 28 27  1  0
 28 23  2  0
 29 30  1  0
 30 31  1  0
 31 32  2  0
 33 32  1  0
 33 37  1  0
 34 33  2  0
 35 30  2  0
 35 34  1  0
 36 35  1  0
 38 39  1  0
 39 42  1  0
 39 41  1  0
 40 38  2  0
 43 18  1  0
 43 44  1  0
 45 43  1  0
 46 47  1  0
 47  6  1  0
 49 48  1  0
 49 50  1  0
 51 49  1  0
 52 49  1  0
 53 52  1  0
 53 54  1  0
 55 66  2  0
 56 54  1  0
 56 61  1  0
 57 65  1  0
 57 67  1  0
 58 64  1  0
 58 60  1  0
 59 65  1  0
 60 59  1  0
 61 60  2  0
 62 63  1  0
 62 56  2  0
 63 58  2  0
 64 57  1  0
 65 55  1  0
 67 69  2  0
 68 67  1  0
 70 68  1  0
 71 80  2  0
 71 76  1  0
 72 68  1  0
 72 76  1  0
 73 72  1  0
 74 75  1  0
 74 73  1  0
 75 71  1  0
 76 77  2  0
 77 78  1  0
 79 78  2  0
 80 79  1  0
 81 55  1  0
 81 82  1  0
 81 91  1  0
 82 85  1  0
 83 87  1  0
 83 82  1  0
 84 83  2  0
 87 86  1  0
 89 87  1  0
 89 90  1  0
 89 88  1  0
 91 94  1  1
 91 92  1  0
 93 91  1  0
M  ISO  4   8 100  16 100  53 101  54 101
M  END
>  <TORSDO>  (74) 
F 22

>  <SCORE>  (74) 
-12.119

>  <name>  (74) 
73

>  <ligand_id>  (74) 
73

>  <original_smiles>  (74) 
[H]c1c([H])c([H])c2c(c1[H])C([H])([H])C([H])([H])C([H])([H])C2([H])N([H])C(=O)C1([H])N(C(=O)C([H])(N([H])C(=O)C([H])(N([H])C([H])([H])[H])C([H])([H])[H])C(C([H])([H])[H])(C([H])([H])[H])C([H])([H])[H])C([H])([H])c2c([H])c(OC([H])([H])C([H])([H])[N+]([H])([H])C([H])([H])C([H])([H])c3c([H])c([H])c(N([H])C(=O)N4C([H])([H])C([H])([H])C([H])([H])C([H])(n5nc(-c6c([H])c([H])c(Oc7c([H])c([H])c(F)c([H])c7F)c([H])c6[H])c(C(=O)N([H])[H])c5N([H])[H])C4([H])[H])c([H])c3C([H])([H])C([H])([H])[H])c([H])c([H])c2C1([H])[H]

>  <smiles>  (74) 
[H]c1c([H])c([H])c2c(c1[H])C([H])([H])C([H])([H])C([H])([H])C2([H])N([H])C(=O)C1([H])N(C(=O)C([H])(N([H])C(=O)C([H])(N([H])C([H])([H])[H])C([H])([H])[H])C(C([H])([H])[H])(C([H])([H])[H])C([H])([H])[H])C([H])([H])c2c([H])c(OC([H])([H])C([H])([H])[N+]([H])([H])C([H])([H])C([H])([H])c3c([H])c([H])c(N([H])C(=O)N4C([H])([H])C([H])([H])C([H])([H])C([H])(n5nc(-c6c([H])c([H])c(Oc7c([H])c([H])c(F)c([H])c7F)c([H])c6[H])c(C(=O)N([H])[H])c5N([H])[H])C4([H])[H])c([H])c3C([H])([H])C([H])([H])[H])c([H])c([H])c2C1([H])[H]

$$$$
74:0:0
     RDKit          3D

 92100  0  0  1  0  0  0  0  0999 V2000
  -27.2450  -22.3940   20.4870 N   0  0  0  0  0  4  0  0  0  0  0  0
  -26.3710  -22.8800   20.6090 H   0  0  0  0  0  0  0  0  0  0  0  0
  -27.5630  -22.0980   21.3940 H   0  0  0  0  0  0  0  0  0  0  0  0
  -26.9330  -21.1890   19.6920 C   0  0  0  0  0  2  0  0  0  0  0  0
  -29.4740  -18.4630   18.7770 C   0  0  0  0  0  3  0  0  0  0  0  0
  -29.2850  -18.5350   21.2010 C   0  0  0  0  0  3  0  0  0  0  0  0
  -28.5650  -19.5320   18.6670 C   0  0  0  0  0  3  0  0  0  0  0  0
  -28.3600  -19.5950   21.0910 C   0  0  0  0  0  3  0  0  0  0  0  0
  -29.8350  -17.9470   20.0420 C   0  0  0  0  0  0  0  0  0  0  0  0
  -27.9890  -20.0950   19.8220 C   0  0  0  0  0  0  0  0  0  0  0  0
  -30.6830  -16.7480   20.1390 C   0  0  0  0  0  3  0  0  0  0  0  0
  -30.4740  -15.6870   19.3400 C   0  0  0  0  0  3  0  0  0  0  0  0
  -31.3210  -14.5100   19.3070 C   0  0  0  0  0  0  0  0  0  0  0  0
  -30.8670  -12.2670   18.4300 C   0  0  0  0  0  2  0  0  0  0  0  0
  -29.8140  -12.4190   17.3120 C   0  0  0  0  0  2  0  0  0  0  0  0
  -28.3850  -12.3660   17.8900 C   0  0  0  0  0  2  0  0  0  0  0  0
  -28.1920  -13.3120   19.1030 C   0  0  0  0  0  3  0  0  0  0  0  0
  -29.3540  -13.1660   20.1110 C   0  0  0  0  0  2  0  0  0  0  0  0
  -30.6270  -13.3460   19.3950 N   0  0  0  0  0  0  0  0  0  0  0  0
  -32.4760  -14.5810   18.8860 O   0  0  0  0  0  0  0  0  0  0  0  0
  -25.9630  -14.0710   20.1390 C   0  0  0  0  0  0  0  0  0  0  0  0
  -24.8840  -13.3680   20.6030 C   0  0  0  0  0  0  0  0  0  0  0  0
  -25.2260  -11.9880   20.4680 C   0  0  0  0  0  0  0  0  0  0  0  0
  -26.8930  -13.1230   19.7440 N   0  0  0  0  0  0  0  0  0  0  0  0
  -26.4620  -11.8620   20.0020 N   0  0  0  0  0  0  0  0  0  0  0  0
  -24.4270  -10.7790   20.7020 C   0  0  0  0  0  0  0  0  0  0  0  0
  -24.7680   -9.8540   21.7130 C   0  0  0  0  0  3  0  0  0  0  0  0
  -23.9770   -8.7060   21.9280 C   0  0  0  0  0  3  0  0  0  0  0  0
  -22.8300   -8.4750   21.1320 C   0  0  0  0  0  0  0  0  0  0  0  0
  -22.5080   -9.3870   20.1130 C   0  0  0  0  0  3  0  0  0  0  0  0
  -23.2990  -10.5270   19.8960 C   0  0  0  0  0  3  0  0  0  0  0  0
  -22.0170   -7.3740   21.2530 O   0  0  0  0  0  0  0  0  0  0  0  0
  -21.7200   -6.8290   22.4770 C   0  0  0  0  0  0  0  0  0  0  0  0
  -21.1200   -7.5880   23.5050 C   0  0  0  0  0  3  0  0  0  0  0  0
  -20.7740   -6.9730   24.7250 C   0  0  0  0  0  3  0  0  0  0  0  0
  -21.0130   -5.5980   24.9130 C   0  0  0  0  0  0  0  0  0  0  0  0
  -21.6000   -4.8380   23.8860 C   0  0  0  0  0  3  0  0  0  0  0  0
  -21.9530   -5.4530   22.6720 C   0  0  0  0  0  0  0  0  0  0  0  0
  -22.5020   -4.7130   21.6790 F   0  0  0  0  0  0  0  0  0  0  0  0
  -20.6690   -5.0040   26.0790 F   0  0  0  0  0  0  0  0  0  0  0  0
  -23.5720  -13.9390   21.0620 C   0  0  0  0  0  0  0  0  0  0  0  0
  -22.9280  -13.2950   22.0290 N   0  0  0  0  0  0  0  0  0  0  0  0
  -23.1350  -14.9910   20.5970 O   0  0  0  0  0  0  0  0  0  0  0  0
  -23.2960  -12.4430   22.4270 H   0  0  0  0  0  0  0  0  0  0  0  0
  -22.0540  -13.6580   22.3810 H   0  0  0  0  0  0  0  0  0  0  0  0
  -26.2270  -15.4320   20.0050 N   0  0  0  0  0  0  0  0  0  0  0  0
  -25.5600  -16.1480   20.2710 H   0  0  0  0  0  0  0  0  0  0  0  0
  -27.1070  -15.8090   19.6800 H   0  0  0  0  0  0  0  0  0  0  0  0
  -28.2180  -23.3380   19.8850 C   0  0  0  0  0  2  0  0  0  0  0  0
  -28.3280  -24.6480   20.7000 C   0  0  0  0  0  2  0  0  0  0  0  0
  -29.2110  -25.7310   20.0290 C   0  0  0  0  0  2  0  0  0  0  0  0
  -29.0510  -27.0340   20.6160 O   0  0  0  0  0  0  0  0  0  0  0  0
  -24.7250  -31.9960   23.3190 C   0  0  0  0  0  0  0  0  0  0  0  0
  -27.8330  -27.6790   20.4980 C   0  0  0  0  0  0  0  0  0  0  0  0
  -23.7160  -30.4920   21.6360 C   0  0  0  0  0  3  0  0  0  0  0  0
  -25.3510  -29.0330   20.3360 C   0  0  0  0  0  0  0  0  0  0  0  0
  -26.2230  -31.0110   21.5860 C   0  0  0  0  0  2  0  0  0  0  0  0
  -26.4360  -29.6380   20.9820 C   0  0  0  0  0  0  0  0  0  0  0  0
  -27.6790  -28.9680   21.0620 C   0  0  0  0  0  3  0  0  0  0  0  0
  -26.7220  -27.0930   19.8430 C   0  0  0  0  0  3  0  0  0  0  0  0
  -25.4900  -27.7580   19.7680 C   0  0  0  0  0  3  0  0  0  0  0  0
  -24.0530  -29.8020   20.2890 C   0  0  0  0  0  2  0  0  0  0  0  0
  -24.9020  -31.1820   22.2390 N   0  0  0  0  0  0  0  0  0  0  0  0
  -23.5960  -32.2040   23.7860 O   0  0  0  0  0  0  0  0  0  0  0  0
  -23.0770  -29.4430   22.5750 C   0  0  0  0  0  0  0  0  0  0  0  0
  -21.7640  -29.2200   22.4150 N   0  0  0  0  0  0  0  0  0  0  0  0
  -23.7610  -28.8340   23.4020 O   0  0  0  0  0  0  0  0  0  0  0  0
  -21.2720  -29.7690   21.7240 H   0  0  0  0  0  0  0  0  0  0  0  0
  -18.4040  -27.9830   22.8900 C   0  0  0  0  0  0  0  0  0  0  0  0
  -20.9600  -28.2480   23.1550 C   0  0  0  0  0  3  0  0  0  0  0  0
  -21.0680  -26.8400   22.5240 C   0  0  0  0  0  2  0  0  0  0  0  0
  -19.9640  -26.5590   21.5010 C   0  0  0  0  0  2  0  0  0  0  0  0
  -18.5880  -26.6580   22.1650 C   0  0  0  0  0  2  0  0  0  0  0  0
  -19.5200  -28.7380   23.3380 C   0  0  0  0  0  0  0  0  0  0  0  0
  -19.2980  -29.9810   23.9690 C   0  0  0  0  0  3  0  0  0  0  0  0
  -17.9910  -30.4710   24.1550 C   0  0  0  0  0  3  0  0  0  0  0  0
  -16.8890  -29.7100   23.7260 C   0  0  0  0  0  3  0  0  0  0  0  0
  -17.0970  -28.4680   23.1000 C   0  0  0  0  0  3  0  0  0  0  0  0
  -25.9260  -32.7220   23.9990 C   0  0  0  0  0  3  0  0  0  0  0  0
  -25.5050  -34.1000   24.2850 N   0  0  0  0  0  0  0  0  0  0  0  0
  -25.8040  -35.1580   23.5210 C   0  0  0  0  0  0  0  0  0  0  0  0
  -26.5340  -35.0850   22.5290 O   0  0  0  0  0  0  0  0  0  0  0  0
  -24.8530  -34.2240   25.0460 H   0  0  0  0  0  0  0  0  0  0  0  0
  -23.9780  -36.8180   23.0340 C   0  0  0  0  0  1  0  0  0  0  0  0
  -25.1970  -36.5170   23.9220 C   0  0  0  0  0  3  0  0  0  0  0  0
  -27.2200  -37.5570   24.8430 C   0  0  0  0  0  1  0  0  0  0  0  0
  -26.1580  -37.6370   23.8430 N   0  0  0  0  0  0  0  0  0  0  0  0
  -25.6820  -38.5280   23.9540 H   0  0  0  0  0  0  0  0  0  0  0  0
  -26.4170  -32.0040   25.3150 C   0  0  1  0  0  0  0  0  0  0  0  0
  -25.2770  -31.6780   26.3080 C   0  0  0  0  0  1  0  0  0  0  0  0
  -27.1490  -30.6820   24.9790 C   0  0  0  0  0  1  0  0  0  0  0  0
  -27.4420  -32.9010   26.0490 C   0  0  0  0  0  1  0  0  0  0  0  0
  1  2  1  0
  1  3  1  0
  4 10  1  0
  4  1  1  0
  5  9  1  0
  7  5  2  0
  7 10  1  0
  8  6  1  0
  9 11  1  0
  9  6  2  0
 10  8  2  0
 12 11  2  0
 13 12  1  0
 13 19  1  0
 14 19  1  0
 15 16  1  0
 15 14  1  0
 17 16  1  0
 17 24  1  0
 17 18  1  0
 19 18  1  0
 20 13  2  0
 21 22  2  0
 22 41  1  0
 23 22  1  0
 23 26  1  0
 24 25  1  0
 24 21  1  0
 25 23  2  0
 26 27  1  0
 27 28  2  0
 29 32  1  0
 29 28  1  0
 30 29  2  0
 31 30  1  0
 31 26  2  0
 32 33  1  0
 33 38  2  0
 33 34  1  0
 34 35  2  0
 35 36  1  0
 36 40  1  0
 37 36  2  0
 38 37  1  0
 39 38  1  0
 41 42  1  0
 42 45  1  0
 42 44  1  0
 43 41  2  0
 46 21  1  0
 46 47  1  0
 48 46  1  0
 49  1  1  0
 49 50  1  0
 51 52  1  0
 51 50  1  0
 53 64  2  0
 54 52  1  0
 54 59  1  0
 55 63  1  0
 55 65  1  0
 56 58  1  0
 57 63  1  0
 58 59  2  0
 58 57  1  0
 60 54  2  0
 61 60  1  0
 61 56  2  0
 62 56  1  0
 62 55  1  0
 63 53  1  0
 65 67  2  0
 66 65  1  0
 68 66  1  0
 69 78  2  0
 69 74  1  0
 70 66  1  0
 70 74  1  0
 71 70  1  0
 72 73  1  0
 72 71  1  0
 73 69  1  0
 74 75  2  0
 75 76  1  0
 77 76  2  0
 78 77  1  0
 79 53  1  0
 79 80  1  0
 79 89  1  0
 80 83  1  0
 81 85  1  0
 81 80  1  0
 82 81  2  0
 85 84  1  0
 87 85  1  0
 87 88  1  0
 87 86  1  0
 89 92  1  1
 89 90  1  0
 91 89  1  0
M  ISO  4  12 100  13 100  51 101  52 101
M  END
>  <TORSDO>  (75) 
F 22

>  <SCORE>  (75) 
-10.425

>  <name>  (75) 
74

>  <ligand_id>  (75) 
74

>  <original_smiles>  (75) 
[H]C(C(=O)N1C([H])([H])C([H])([H])C([H])([H])C([H])(n2nc(-c3c([H])c([H])c(Oc4c([H])c([H])c(F)c([H])c4F)c([H])c3[H])c(C(=O)N([H])[H])c2N([H])[H])C1([H])[H])=C([H])c1c([H])c([H])c(C([H])([H])[N+]([H])([H])C([H])([H])C([H])([H])C([H])([H])Oc2c([H])c([H])c3c(c2[H])C([H])([H])N(C(=O)C([H])(N([H])C(=O)C([H])(N([H])C([H])([H])[H])C([H])([H])[H])C(C([H])([H])[H])(C([H])([H])[H])C([H])([H])[H])C([H])(C(=O)N([H])C2([H])c4c([H])c([H])c([H])c([H])c4C([H])([H])C([H])([H])C2([H])[H])C3([H])[H])c([H])c1[H]

>  <smiles>  (75) 
[H]C(C(=O)N1C([H])([H])C([H])([H])C([H])([H])C([H])(n2nc(-c3c([H])c([H])c(Oc4c([H])c([H])c(F)c([H])c4F)c([H])c3[H])c(C(=O)N([H])[H])c2N([H])[H])C1([H])[H])=C([H])c1c([H])c([H])c(C([H])([H])[N+]([H])([H])C([H])([H])C([H])([H])C([H])([H])Oc2c([H])c([H])c3c(c2[H])C([H])([H])N(C(=O)C([H])(N([H])C(=O)C([H])(N([H])C([H])([H])[H])C([H])([H])[H])C(C([H])([H])[H])(C([H])([H])[H])C([H])([H])[H])C([H])(C(=O)N([H])C2([H])c4c([H])c([H])c([H])c([H])c4C([H])([H])C([H])([H])C2([H])[H])C3([H])[H])c([H])c1[H]

$$$$
75:0:0
     RDKit          3D

 91100  0  0  1  0  0  0  0  0999 V2000
  -27.2840  -23.3490   20.5110 C   0  0  0  0  0  2  0  0  0  0  0  0
  -28.2840  -23.8770   19.7890 C   0  0  0  0  0  3  0  0  0  0  0  0
  -27.3520  -21.8290   20.6260 C   0  0  0  0  0  2  0  0  0  0  0  0
  -29.2070  -22.7230   19.3120 C   0  0  0  0  0  2  0  0  0  0  0  0
  -28.3670  -21.4020   19.5310 C   0  0  0  0  0  3  0  0  0  0  0  0
  -28.8510  -18.9570   18.7350 C   0  0  0  0  0  3  0  0  0  0  0  0
  -29.6650  -19.5690   20.9140 C   0  0  0  0  0  3  0  0  0  0  0  0
  -29.2360  -17.5990   18.9610 C   0  0  0  0  0  3  0  0  0  0  0  0
  -30.0370  -18.2090   21.1460 C   0  0  0  0  0  3  0  0  0  0  0  0
  -29.0220  -19.9770   19.7160 C   0  0  0  0  0  0  0  0  0  0  0  0
  -29.8220  -17.1830   20.1860 C   0  0  0  0  0  0  0  0  0  0  0  0
  -30.7010  -14.7520   20.0150 C   0  0  0  0  0  0  0  0  0  0  0  0
  -30.4720  -12.5010   18.9790 C   0  0  0  0  0  2  0  0  0  0  0  0
  -29.4740  -12.6400   17.8100 C   0  0  0  0  0  2  0  0  0  0  0  0
  -28.0250  -12.4670   18.3090 C   0  0  0  0  0  2  0  0  0  0  0  0
  -27.7230  -13.3200   19.5700 C   0  0  0  0  0  3  0  0  0  0  0  0
  -28.8330  -13.1600   20.6330 C   0  0  0  0  0  2  0  0  0  0  0  0
  -30.1130  -13.5120   19.9970 N   0  0  0  0  0  0  0  0  0  0  0  0
  -31.8140  -14.9420   19.5070 O   0  0  0  0  0  0  0  0  0  0  0  0
  -29.9510  -15.7690   20.5420 N   0  0  0  0  0  0  0  0  0  0  0  0
  -29.1780  -15.4260   21.0930 H   0  0  0  0  0  0  0  0  0  0  0  0
  -25.3790  -13.9070   20.4530 C   0  0  0  0  0  0  0  0  0  0  0  0
  -24.3310  -13.1290   20.8630 C   0  0  0  0  0  0  0  0  0  0  0  0
  -24.7820  -11.7770   20.7620 C   0  0  0  0  0  0  0  0  0  0  0  0
  -26.4010  -13.0290   20.1250 N   0  0  0  0  0  0  0  0  0  0  0  0
  -26.0480  -11.7410   20.3670 N   0  0  0  0  0  0  0  0  0  0  0  0
  -24.0610  -10.5130   20.9610 C   0  0  0  0  0  0  0  0  0  0  0  0
  -24.5080   -9.5450   21.8860 C   0  0  0  0  0  3  0  0  0  0  0  0
  -23.7900   -8.3440   22.0700 C   0  0  0  0  0  3  0  0  0  0  0  0
  -22.6110   -8.1020   21.3260 C   0  0  0  0  0  0  0  0  0  0  0  0
  -22.1810   -9.0590   20.3920 C   0  0  0  0  0  3  0  0  0  0  0  0
  -22.8990  -10.2520   20.2050 C   0  0  0  0  0  3  0  0  0  0  0  0
  -21.8620   -6.9530   21.4220 O   0  0  0  0  0  0  0  0  0  0  0  0
  -21.7820   -6.2390   22.5900 C   0  0  0  0  0  0  0  0  0  0  0  0
  -21.2880   -6.8130   23.7830 C   0  0  0  0  0  3  0  0  0  0  0  0
  -21.1590   -6.0230   24.9420 C   0  0  0  0  0  3  0  0  0  0  0  0
  -21.5140   -4.6600   24.9090 C   0  0  0  0  0  0  0  0  0  0  0  0
  -21.9970   -4.0860   23.7220 C   0  0  0  0  0  3  0  0  0  0  0  0
  -22.1300   -4.8730   22.5660 C   0  0  0  0  0  0  0  0  0  0  0  0
  -22.5790   -4.3110   21.4180 F   0  0  0  0  0  0  0  0  0  0  0  0
  -21.3810   -3.8990   26.0190 F   0  0  0  0  0  0  0  0  0  0  0  0
  -22.9560  -13.6050   21.2330 C   0  0  0  0  0  0  0  0  0  0  0  0
  -22.2740  -12.8870   22.1180 N   0  0  0  0  0  0  0  0  0  0  0  0
  -22.4960  -14.6490   20.7730 O   0  0  0  0  0  0  0  0  0  0  0  0
  -22.6570  -12.0420   22.5160 H   0  0  0  0  0  0  0  0  0  0  0  0
  -21.3540  -13.1880   22.4040 H   0  0  0  0  0  0  0  0  0  0  0  0
  -25.5440  -15.2830   20.3150 N   0  0  0  0  0  0  0  0  0  0  0  0
  -24.7940  -15.9360   20.5110 H   0  0  0  0  0  0  0  0  0  0  0  0
  -26.3870  -15.7350   19.9860 H   0  0  0  0  0  0  0  0  0  0  0  0
  -28.4120  -25.3500   19.2440 C   0  0  0  0  0  2  0  0  0  0  0  0
  -28.2980  -26.5260   20.1410 O   0  0  0  0  0  0  0  0  0  0  0  0
  -24.6020  -31.9240   23.2320 C   0  0  0  0  0  0  0  0  0  0  0  0
  -27.1740  -27.3660   20.1120 C   0  0  0  0  0  0  0  0  0  0  0  0
  -23.3910  -30.5320   21.5980 C   0  0  0  0  0  3  0  0  0  0  0  0
  -24.8230  -28.9950   20.1530 C   0  0  0  0  0  0  0  0  0  0  0  0
  -25.9310  -30.8470   21.3990 C   0  0  0  0  0  2  0  0  0  0  0  0
  -26.0010  -29.4730   20.7380 C   0  0  0  0  0  0  0  0  0  0  0  0
  -27.1790  -28.6660   20.7140 C   0  0  0  0  0  3  0  0  0  0  0  0
  -25.9580  -26.9280   19.5410 C   0  0  0  0  0  3  0  0  0  0  0  0
  -24.8020  -27.7270   19.5540 C   0  0  0  0  0  3  0  0  0  0  0  0
  -23.5960  -29.8770   20.2100 C   0  0  0  0  0  2  0  0  0  0  0  0
  -24.6630  -31.1190   22.1340 N   0  0  0  0  0  0  0  0  0  0  0  0
  -23.5210  -32.1950   23.7750 O   0  0  0  0  0  0  0  0  0  0  0  0
  -22.7420  -29.5020   22.5540 C   0  0  0  0  0  0  0  0  0  0  0  0
  -21.4180  -29.3090   22.4270 N   0  0  0  0  0  0  0  0  0  0  0  0
  -23.4280  -28.8830   23.3710 O   0  0  0  0  0  0  0  0  0  0  0  0
  -20.9240  -29.8560   21.7370 H   0  0  0  0  0  0  0  0  0  0  0  0
  -18.0520  -28.0850   22.9330 C   0  0  0  0  0  0  0  0  0  0  0  0
  -20.6090  -28.3660   23.2000 C   0  0  0  0  0  3  0  0  0  0  0  0
  -20.7220  -26.9360   22.6240 C   0  0  0  0  0  2  0  0  0  0  0  0
  -19.6200  -26.6040   21.6120 C   0  0  0  0  0  2  0  0  0  0  0  0
  -18.2380  -26.7380   22.2560 C   0  0  0  0  0  2  0  0  0  0  0  0
  -19.1660  -28.8550   23.3610 C   0  0  0  0  0  0  0  0  0  0  0  0
  -18.9360  -30.1180   23.9520 C   0  0  0  0  0  3  0  0  0  0  0  0
  -17.6280  -30.6090   24.1200 C   0  0  0  0  0  3  0  0  0  0  0  0
  -16.5290  -29.8350   23.7090 C   0  0  0  0  0  3  0  0  0  0  0  0
  -16.7430  -28.5750   23.1190 C   0  0  0  0  0  3  0  0  0  0  0  0
  -25.8860  -32.5600   23.8470 C   0  0  0  0  0  3  0  0  0  0  0  0
  -25.5750  -33.9600   24.1760 N   0  0  0  0  0  0  0  0  0  0  0  0
  -25.9000  -35.0130   23.4150 C   0  0  0  0  0  0  0  0  0  0  0  0
  -26.5700  -34.9090   22.3820 O   0  0  0  0  0  0  0  0  0  0  0  0
  -24.9850  -34.1150   24.9810 H   0  0  0  0  0  0  0  0  0  0  0  0
  -24.1780  -36.8080   23.0470 C   0  0  0  0  0  1  0  0  0  0  0  0
  -25.4100  -36.4010   23.8700 C   0  0  0  0  0  3  0  0  0  0  0  0
  -27.5380  -37.2810   24.7240 C   0  0  0  0  0  1  0  0  0  0  0  0
  -26.4440  -37.4550   23.7720 N   0  0  0  0  0  0  0  0  0  0  0  0
  -26.0380  -38.3740   23.9170 H   0  0  0  0  0  0  0  0  0  0  0  0
  -26.4050  -31.7960   25.1260 C   0  0  1  0  0  0  0  0  0  0  0  0
  -25.3170  -31.5620   26.1980 C   0  0  0  0  0  1  0  0  0  0  0  0
  -26.9920  -30.4190   24.7390 C   0  0  0  0  0  1  0  0  0  0  0  0
  -27.5550  -32.5970   25.7820 C   0  0  0  0  0  1  0  0  0  0  0  0
  1  3  1  0
  2 50  1  0
  2  1  1  0
  4  5  1  0
  4  2  1  0
  5 10  1  0
  5  3  1  0
  6  8  2  0
  6 10  1  0
  7  9  1  0
  8 11  1  0
 10  7  2  0
 11 20  1  0
 11  9  2  0
 12 20  1  0
 13 18  1  0
 14 15  1  0
 14 13  1  0
 16 15  1  0
 16 25  1  0
 16 17  1  0
 18 12  1  0
 18 17  1  0
 19 12  2  0
 20 21  1  0
 22 23  2  0
 23 42  1  0
 24 23  1  0
 24 27  1  0
 25 26  1  0
 25 22  1  0
 26 24  2  0
 27 28  1  0
 28 29  2  0
 30 33  1  0
 30 29  1  0
 31 30  2  0
 32 31  1  0
 32 27  2  0
 33 34  1  0
 34 35  1  0
 35 36  2  0
 37 36  1  0
 37 41  1  0
 38 37  2  0
 39 34  2  0
 39 38  1  0
 40 39  1  0
 42 43  1  0
 43 46  1  0
 43 45  1  0
 44 42  2  0
 47 22  1  0
 47 48  1  0
 49 47  1  0
 50 51  1  0
 52 63  2  0
 53 51  1  0
 53 58  1  0
 54 62  1  0
 54 64  1  0
 55 61  1  0
 55 57  1  0
 56 62  1  0
 57 56  1  0
 58 57  2  0
 59 60  1  0
 59 53  2  0
 60 55  2  0
 61 54  1  0
 62 52  1  0
 64 66  2  0
 65 64  1  0
 67 65  1  0
 68 77  2  0
 68 73  1  0
 69 65  1  0
 69 73  1  0
 70 69  1  0
 71 72  1  0
 71 70  1  0
 72 68  1  0
 73 74  2  0
 74 75  1  0
 76 75  2  0
 77 76  1  0
 78 52  1  0
 78 79  1  0
 78 88  1  0
 79 82  1  0
 80 84  1  0
 80 79  1  0
 81 80  2  0
 84 83  1  0
 86 84  1  0
 86 87  1  0
 86 85  1  0
 88 91  1  1
 88 89  1  0
 90 88  1  0
M  ISO  4  12 100  20 100  50 101  51 101
M  END
>  <TORSDO>  (76) 
F 18

>  <SCORE>  (76) 
-14.385

>  <name>  (76) 
75

>  <ligand_id>  (76) 
75

>  <original_smiles>  (76) 
[H]C1=C(C([H])([H])Oc2c([H])c([H])c3c(c2[H])C([H])([H])N(C(=O)C([H])(N([H])C(=O)C([H])(N([H])C([H])([H])[H])C([H])([H])[H])C(C([H])([H])[H])(C([H])([H])[H])C([H])([H])[H])C([H])(C(=O)N([H])C2([H])c4c([H])c([H])c([H])c([H])c4C([H])([H])C([H])([H])C2([H])[H])C3([H])[H])C([H])([H])C([H])(c2c([H])c([H])c(N([H])C(=O)N3C([H])([H])C([H])([H])C([H])([H])C([H])(n4nc(-c5c([H])c([H])c(Oc6c([H])c([H])c(F)c([H])c6F)c([H])c5[H])c(C(=O)N([H])[H])c4N([H])[H])C3([H])[H])c([H])c2[H])C1([H])[H]

>  <smiles>  (76) 
[H]C1=C(C([H])([H])Oc2c([H])c([H])c3c(c2[H])C([H])([H])N(C(=O)C([H])(N([H])C(=O)C([H])(N([H])C([H])([H])[H])C([H])([H])[H])C(C([H])([H])[H])(C([H])([H])[H])C([H])([H])[H])C([H])(C(=O)N([H])C2([H])c4c([H])c([H])c([H])c([H])c4C([H])([H])C([H])([H])C2([H])[H])C3([H])[H])C([H])([H])C([H])(c2c([H])c([H])c(N([H])C(=O)N3C([H])([H])C([H])([H])C([H])([H])C([H])(n4nc(-c5c([H])c([H])c(Oc6c([H])c([H])c(F)c([H])c6F)c([H])c5[H])c(C(=O)N([H])[H])c4N([H])[H])C3([H])[H])c([H])c2[H])C1([H])[H]

$$$$
76:0:0
     RDKit          3D

 87 95  0  0  1  0  0  0  0  0999 V2000
  -30.3320  -15.7980   20.2940 C   0  0  0  0  0  0  0  0  0  0  0  0
  -30.3430  -13.2500   19.4670 C   0  0  0  0  0  2  0  0  0  0  0  0
  -29.4780  -12.7780   18.2670 C   0  0  0  0  0  2  0  0  0  0  0  0
  -28.0740  -12.3890   18.7400 C   0  0  0  0  0  2  0  0  0  0  0  0
  -27.5350  -13.4060   19.7710 C   0  0  0  0  0  3  0  0  0  0  0  0
  -28.5560  -13.8180   20.8630 C   0  0  0  0  0  2  0  0  0  0  0  0
  -29.7030  -14.4680   20.1680 N   0  0  0  0  0  0  0  0  0  0  0  0
  -31.5590  -15.5660   20.2130 O   0  0  0  0  0  0  0  0  0  0  0  0
  -30.5590  -20.9150   18.7390 C   0  0  0  0  0  2  0  0  0  0  0  0
  -29.5300  -22.1210   18.7620 C   0  0  0  0  0  2  0  0  0  0  0  0
  -30.9140  -18.4220   19.9210 C   0  0  0  0  0  2  0  0  0  0  0  0
  -28.7630  -18.6040   20.3300 C   0  0  0  0  0  2  0  0  0  0  0  0
  -30.5110  -20.0280   20.0320 C   0  0  0  0  0  3  0  0  0  0  0  0
  -29.1380  -20.3870   20.6410 C   0  0  0  0  0  3  0  0  0  0  0  0
  -28.9010  -22.2600   20.1690 C   0  0  0  0  0  3  0  0  0  0  0  0
  -29.8870  -17.3360   20.2270 N   0  0  0  0  0  0  0  0  0  0  0  0
  -25.1710  -13.9010   20.5280 C   0  0  0  0  0  0  0  0  0  0  0  0
  -24.1160  -13.1100   20.8800 C   0  0  0  0  0  0  0  0  0  0  0  0
  -24.6030  -11.7660   20.8560 C   0  0  0  0  0  0  0  0  0  0  0  0
  -26.2280  -13.0450   20.2940 N   0  0  0  0  0  0  0  0  0  0  0  0
  -25.9010  -11.7510   20.5580 N   0  0  0  0  0  0  0  0  0  0  0  0
  -23.8870  -10.4950   21.0330 C   0  0  0  0  0  0  0  0  0  0  0  0
  -24.3060   -9.5320   21.9800 C   0  0  0  0  0  3  0  0  0  0  0  0
  -23.5810   -8.3320   22.1490 C   0  0  0  0  0  3  0  0  0  0  0  0
  -22.4230   -8.0850   21.3720 C   0  0  0  0  0  0  0  0  0  0  0  0
  -22.0230   -9.0360   20.4170 C   0  0  0  0  0  3  0  0  0  0  0  0
  -22.7490  -10.2260   20.2460 C   0  0  0  0  0  3  0  0  0  0  0  0
  -21.6720   -6.9370   21.4530 O   0  0  0  0  0  0  0  0  0  0  0  0
  -21.5920   -6.2070   22.6110 C   0  0  0  0  0  0  0  0  0  0  0  0
  -21.1190   -6.7700   23.8160 C   0  0  0  0  0  3  0  0  0  0  0  0
  -20.9890   -5.9660   24.9660 C   0  0  0  0  0  3  0  0  0  0  0  0
  -21.3220   -4.5980   24.9110 C   0  0  0  0  0  0  0  0  0  0  0  0
  -21.7880   -4.0350   23.7100 C   0  0  0  0  0  3  0  0  0  0  0  0
  -21.9190   -4.8360   22.5630 C   0  0  0  0  0  0  0  0  0  0  0  0
  -22.3490   -4.2820   21.4030 F   0  0  0  0  0  0  0  0  0  0  0  0
  -21.1890   -3.8260   26.0140 F   0  0  0  0  0  0  0  0  0  0  0  0
  -22.7100  -13.5700   21.1270 C   0  0  0  0  0  0  0  0  0  0  0  0
  -21.9820  -12.8720   21.9900 N   0  0  0  0  0  0  0  0  0  0  0  0
  -22.2680  -14.5870   20.5920 O   0  0  0  0  0  0  0  0  0  0  0  0
  -22.3580  -12.0520   22.4450 H   0  0  0  0  0  0  0  0  0  0  0  0
  -21.0360  -13.1580   22.1980 H   0  0  0  0  0  0  0  0  0  0  0  0
  -25.3190  -15.2740   20.3510 N   0  0  0  0  0  0  0  0  0  0  0  0
  -24.5510  -15.9270   20.4660 H   0  0  0  0  0  0  0  0  0  0  0  0
  -26.1720  -15.7220   20.0370 H   0  0  0  0  0  0  0  0  0  0  0  0
  -27.8960  -23.6800   20.4180 N   0  0  0  0  0  2  0  0  0  0  0  0
  -26.9660  -23.5240   20.0300 H   0  0  0  0  0  0  0  0  0  0  0  0
  -28.2010  -25.5100   20.2700 O   0  0  0  0  0  1  0  0  0  0  0  0
  -24.6670  -31.8870   23.2050 C   0  0  0  0  0  0  0  0  0  0  0  0
  -27.1960  -26.7170   20.2930 C   0  0  0  0  0  0  0  0  0  0  0  0
  -23.4790  -30.4630   21.5930 C   0  0  0  0  0  3  0  0  0  0  0  0
  -24.9270  -28.7810   20.2140 C   0  0  0  0  0  0  0  0  0  0  0  0
  -26.0590  -30.5880   21.4750 C   0  0  0  0  0  2  0  0  0  0  0  0
  -26.1250  -29.1350   20.8460 C   0  0  0  0  0  0  0  0  0  0  0  0
  -27.2370  -28.1320   20.8580 C   0  0  0  0  0  3  0  0  0  0  0  0
  -25.9630  -26.5880   19.6010 C   0  0  0  0  0  3  0  0  0  0  0  0
  -24.8880  -27.5300   19.5730 C   0  0  0  0  0  3  0  0  0  0  0  0
  -23.7230  -29.7400   20.2350 C   0  0  0  0  0  2  0  0  0  0  0  0
  -24.7590  -31.0150   22.1410 N   0  0  0  0  0  0  0  0  0  0  0  0
  -23.5730  -32.1990   23.7080 O   0  0  0  0  0  0  0  0  0  0  0  0
  -22.7540  -29.5070   22.5780 C   0  0  0  0  0  0  0  0  0  0  0  0
  -21.4200  -29.3570   22.4510 N   0  0  0  0  0  0  0  0  0  0  0  0
  -23.4030  -28.8970   23.4300 O   0  0  0  0  0  0  0  0  0  0  0  0
  -20.9460  -29.8910   21.7380 H   0  0  0  0  0  0  0  0  0  0  0  0
  -18.0280  -28.1680   22.9750 C   0  0  0  0  0  0  0  0  0  0  0  0
  -20.5890  -28.4380   23.2400 C   0  0  0  0  0  3  0  0  0  0  0  0
  -20.6870  -26.9960   22.6900 C   0  0  0  0  0  2  0  0  0  0  0  0
  -19.5870  -26.6590   21.6770 C   0  0  0  0  0  2  0  0  0  0  0  0
  -18.2050  -26.8110   22.3160 C   0  0  0  0  0  2  0  0  0  0  0  0
  -19.1460  -28.9370   23.3930 C   0  0  0  0  0  0  0  0  0  0  0  0
  -18.9230  -30.2060   23.9750 C   0  0  0  0  0  3  0  0  0  0  0  0
  -17.6160  -30.7010   24.1420 C   0  0  0  0  0  3  0  0  0  0  0  0
  -16.5120  -29.9300   23.7370 C   0  0  0  0  0  3  0  0  0  0  0  0
  -16.7210  -28.6630   23.1600 C   0  0  0  0  0  3  0  0  0  0  0  0
  -25.9280  -32.5480   23.8390 C   0  0  0  0  0  3  0  0  0  0  0  0
  -25.6010  -33.9510   24.1670 N   0  0  0  0  0  0  0  0  0  0  0  0
  -25.9240  -35.0150   23.4200 C   0  0  0  0  0  0  0  0  0  0  0  0
  -26.5870  -34.9210   22.3850 O   0  0  0  0  0  0  0  0  0  0  0  0
  -25.0180  -34.0950   24.9780 H   0  0  0  0  0  0  0  0  0  0  0  0
  -24.1850  -36.8080   23.0960 C   0  0  0  0  0  1  0  0  0  0  0  0
  -25.4360  -36.4020   23.8920 C   0  0  0  0  0  3  0  0  0  0  0  0
  -27.5740  -37.2970   24.7050 C   0  0  0  0  0  1  0  0  0  0  0  0
  -26.4640  -37.4640   23.7710 N   0  0  0  0  0  0  0  0  0  0  0  0
  -26.0540  -38.3800   23.9300 H   0  0  0  0  0  0  0  0  0  0  0  0
  -26.4250  -31.8010   25.1380 C   0  0  1  0  0  0  0  0  0  0  0  0
  -25.3200  -31.5920   26.2010 C   0  0  0  0  0  1  0  0  0  0  0  0
  -27.0090  -30.4120   24.7970 C   0  0  0  0  0  1  0  0  0  0  0  0
  -27.5700  -32.6030   25.8020 C   0  0  0  0  0  1  0  0  0  0  0  0
  2  7  1  0
  3  4  1  0
  3  2  1  0
  5  4  1  0
  5 20  1  0
  5  6  1  0
  7  1  1  0
  7  6  1  0
  8  1  2  0
  9 10  1  0
 10 15  1  0
 11 13  1  0
 11 16  1  0
 13  9  1  0
 13 14  1  0
 14 12  1  0
 15 45  1  0
 15 14  1  0
 16  1  1  0
 16 12  1  0
 17 18  2  0
 18 37  1  0
 19 18  1  0
 19 22  1  0
 20 17  1  0
 20 21  1  0
 21 19  2  0
 22 23  1  0
 23 24  2  0
 25 28  1  0
 25 24  1  0
 26 25  2  0
 27 26  1  0
 27 22  2  0
 28 29  1  0
 29 30  1  0
 30 31  2  0
 32 31  1  0
 32 36  1  0
 33 32  2  0
 34 29  2  0
 34 33  1  0
 35 34  1  0
 37 38  1  0
 38 41  1  0
 38 40  1  0
 39 37  2  0
 42 43  1  0
 42 17  1  0
 44 42  1  0
 46 45  1  0
 47 49  1  0
 48 59  2  0
 49 54  1  0
 50 58  1  0
 50 60  1  0
 51 57  1  0
 51 53  1  0
 52 58  1  0
 53 54  2  0
 53 52  1  0
 55 49  2  0
 56 55  1  0
 56 51  2  0
 57 50  1  0
 58 48  1  0
 60 62  2  0
 61 60  1  0
 63 61  1  0
 64 73  2  0
 64 69  1  0
 65 61  1  0
 65 69  1  0
 66 65  1  0
 67 68  1  0
 67 66  1  0
 68 64  1  0
 69 70  2  0
 70 71  1  0
 72 71  2  0
 73 72  1  0
 74 48  1  0
 74 75  1  0
 74 84  1  0
 75 78  1  0
 76 80  1  0
 76 75  1  0
 77 76  2  0
 80 79  1  0
 82 80  1  0
 82 83  1  0
 82 81  1  0
 84 87  1  1
 84 85  1  0
 86 84  1  0
M  ISO  4   1 100  16 100  45 101  47 101
M  END
>  <TORSDO>  (77) 
F 16

>  <SCORE>  (77) 
-16.511

>  <name>  (77) 
76

>  <ligand_id>  (77) 
76

>  <original_smiles>  (77) 
[H]c1c([H])c([H])c2c(c1[H])C([H])([H])C([H])([H])C([H])([H])C2([H])N([H])C(=O)C1([H])N(C(=O)C([H])(N([H])C(=O)C([H])(N([H])C([H])([H])[H])C([H])([H])[H])C(C([H])([H])[H])(C([H])([H])[H])C([H])([H])[H])C([H])([H])c2c([H])c(ON([H])C3([H])C([H])([H])C([H])([H])C4([H])C([H])([H])N(C(=O)N5C([H])([H])C([H])([H])C([H])([H])C([H])(n6nc(-c7c([H])c([H])c(Oc8c([H])c([H])c(F)c([H])c8F)c([H])c7[H])c(C(=O)N([H])[H])c6N([H])[H])C5([H])[H])C([H])([H])C34[H])c([H])c([H])c2C1([H])[H]

>  <smiles>  (77) 
[H]c1c([H])c([H])c2c(c1[H])C([H])([H])C([H])([H])C([H])([H])C2([H])N([H])C(=O)C1([H])N(C(=O)C([H])(N([H])C(=O)C([H])(N([H])C([H])([H])[H])C([H])([H])[H])C(C([H])([H])[H])(C([H])([H])[H])C([H])([H])[H])C([H])([H])c2c([H])c(ON([H])C3([H])C([H])([H])C([H])([H])C4([H])C([H])([H])N(C(=O)N5C([H])([H])C([H])([H])C([H])([H])C([H])(n6nc(-c7c([H])c([H])c(Oc8c([H])c([H])c(F)c([H])c8F)c([H])c7[H])c(C(=O)N([H])[H])c6N([H])[H])C5([H])[H])C([H])([H])C34[H])c([H])c([H])c2C1([H])[H]

$$$$
77:0:0
     RDKit          3D

 91100  0  0  1  0  0  0  0  0999 V2000
  -28.8450  -22.5390   20.5740 C   0  0  0  0  0  3  0  0  0  0  0  0
  -29.7890  -21.6540   20.1590 C   0  0  0  0  0  0  0  0  0  0  0  0
  -30.9600  -22.4600   19.6260 C   0  0  0  0  0  2  0  0  0  0  0  0
  -30.4920  -23.9420   19.5860 C   0  0  0  0  0  2  0  0  0  0  0  0
  -29.2320  -24.0370   20.4700 C   0  0  0  0  0  3  0  0  0  0  0  0
  -28.7310  -19.3650   20.7860 C   0  0  0  0  0  3  0  0  0  0  0  0
  -30.9230  -19.3640   19.8040 C   0  0  0  0  0  3  0  0  0  0  0  0
  -28.7850  -17.9410   20.8740 C   0  0  0  0  0  3  0  0  0  0  0  0
  -30.9780  -17.9380   19.8910 C   0  0  0  0  0  3  0  0  0  0  0  0
  -29.8010  -20.1240   20.2460 C   0  0  0  0  0  0  0  0  0  0  0  0
  -29.9050  -17.1810   20.4310 C   0  0  0  0  0  0  0  0  0  0  0  0
  -30.6190  -14.6990   20.0420 C   0  0  0  0  0  0  0  0  0  0  0  0
  -30.3460  -12.4970   18.9180 C   0  0  0  0  0  2  0  0  0  0  0  0
  -29.3220  -12.6590   17.7720 C   0  0  0  0  0  2  0  0  0  0  0  0
  -27.8810  -12.4850   18.2900 C   0  0  0  0  0  2  0  0  0  0  0  0
  -27.6050  -13.3110   19.5750 C   0  0  0  0  0  3  0  0  0  0  0  0
  -28.7320  -13.1120   20.6140 C   0  0  0  0  0  2  0  0  0  0  0  0
  -30.0040  -13.4760   19.9690 N   0  0  0  0  0  0  0  0  0  0  0  0
  -31.7430  -14.8790   19.5630 O   0  0  0  0  0  0  0  0  0  0  0  0
  -29.8530  -15.7200   20.5440 N   0  0  0  0  0  0  0  0  0  0  0  0
  -29.0080  -15.3730   20.9720 H   0  0  0  0  0  0  0  0  0  0  0  0
  -25.2630  -13.8940   20.4590 C   0  0  0  0  0  0  0  0  0  0  0  0
  -24.2170  -13.1120   20.8690 C   0  0  0  0  0  0  0  0  0  0  0  0
  -24.6700  -11.7610   20.7640 C   0  0  0  0  0  0  0  0  0  0  0  0
  -26.2870  -13.0180   20.1320 N   0  0  0  0  0  0  0  0  0  0  0  0
  -25.9380  -11.7290   20.3750 N   0  0  0  0  0  0  0  0  0  0  0  0
  -23.9510  -10.4950   20.9570 C   0  0  0  0  0  0  0  0  0  0  0  0
  -24.3990   -9.5250   21.8810 C   0  0  0  0  0  3  0  0  0  0  0  0
  -23.6810   -8.3230   22.0630 C   0  0  0  0  0  3  0  0  0  0  0  0
  -22.5010   -8.0830   21.3200 C   0  0  0  0  0  0  0  0  0  0  0  0
  -22.0720   -9.0410   20.3850 C   0  0  0  0  0  3  0  0  0  0  0  0
  -22.7910  -10.2350   20.2020 C   0  0  0  0  0  3  0  0  0  0  0  0
  -21.7530   -6.9340   21.4110 O   0  0  0  0  0  0  0  0  0  0  0  0
  -21.6680   -6.2220   22.5800 C   0  0  0  0  0  0  0  0  0  0  0  0
  -21.1710   -6.7970   23.7690 C   0  0  0  0  0  3  0  0  0  0  0  0
  -21.0370   -6.0080   24.9290 C   0  0  0  0  0  3  0  0  0  0  0  0
  -21.3890   -4.6460   24.9010 C   0  0  0  0  0  0  0  0  0  0  0  0
  -21.8800   -4.0700   23.7160 C   0  0  0  0  0  3  0  0  0  0  0  0
  -22.0160   -4.8550   22.5580 C   0  0  0  0  0  0  0  0  0  0  0  0
  -22.4690   -4.2900   21.4130 F   0  0  0  0  0  0  0  0  0  0  0  0
  -21.2530   -3.8870   26.0140 F   0  0  0  0  0  0  0  0  0  0  0  0
  -22.8410  -13.5830   21.2430 C   0  0  0  0  0  0  0  0  0  0  0  0
  -22.1680  -12.8630   22.1350 N   0  0  0  0  0  0  0  0  0  0  0  0
  -22.3750  -14.6240   20.7830 O   0  0  0  0  0  0  0  0  0  0  0  0
  -22.5590  -12.0200   22.5280 H   0  0  0  0  0  0  0  0  0  0  0  0
  -21.2480  -13.1600   22.4270 H   0  0  0  0  0  0  0  0  0  0  0  0
  -25.4230  -15.2690   20.3150 N   0  0  0  0  0  0  0  0  0  0  0  0
  -24.6660  -15.9210   20.4880 H   0  0  0  0  0  0  0  0  0  0  0  0
  -26.2410  -15.7130   19.9170 H   0  0  0  0  0  0  0  0  0  0  0  0
  -28.1310  -25.0790   19.9890 C   0  0  0  0  0  2  0  0  0  0  0  0
  -28.3400  -26.5280   20.2190 O   0  0  0  0  0  0  0  0  0  0  0  0
  -24.6050  -31.8950   23.2670 C   0  0  0  0  0  0  0  0  0  0  0  0
  -27.2170  -27.3700   20.1690 C   0  0  0  0  0  0  0  0  0  0  0  0
  -23.3970  -30.5060   21.6220 C   0  0  0  0  0  3  0  0  0  0  0  0
  -24.8450  -28.9720   20.1800 C   0  0  0  0  0  0  0  0  0  0  0  0
  -25.9340  -30.8330   21.4310 C   0  0  0  0  0  2  0  0  0  0  0  0
  -26.0150  -29.4600   20.7740 C   0  0  0  0  0  0  0  0  0  0  0  0
  -27.2030  -28.6720   20.7590 C   0  0  0  0  0  3  0  0  0  0  0  0
  -26.0220  -26.9370   19.5470 C   0  0  0  0  0  3  0  0  0  0  0  0
  -24.8500  -27.7150   19.5570 C   0  0  0  0  0  3  0  0  0  0  0  0
  -23.6060  -29.8410   20.2380 C   0  0  0  0  0  2  0  0  0  0  0  0
  -24.6650  -31.0950   22.1630 N   0  0  0  0  0  0  0  0  0  0  0  0
  -23.5240  -32.1680   23.8070 O   0  0  0  0  0  0  0  0  0  0  0  0
  -22.7400  -29.4820   22.5780 C   0  0  0  0  0  0  0  0  0  0  0  0
  -21.4170  -29.2960   22.4480 N   0  0  0  0  0  0  0  0  0  0  0  0
  -23.4230  -28.8580   23.3970 O   0  0  0  0  0  0  0  0  0  0  0  0
  -20.9260  -29.8510   21.7620 H   0  0  0  0  0  0  0  0  0  0  0  0
  -18.0440  -28.0850   22.9420 C   0  0  0  0  0  0  0  0  0  0  0  0
  -20.6010  -28.3520   23.2140 C   0  0  0  0  0  3  0  0  0  0  0  0
  -20.7080  -26.9230   22.6330 C   0  0  0  0  0  2  0  0  0  0  0  0
  -19.6070  -26.6010   21.6170 C   0  0  0  0  0  2  0  0  0  0  0  0
  -18.2250  -26.7400   22.2600 C   0  0  0  0  0  2  0  0  0  0  0  0
  -19.1600  -28.8490   23.3760 C   0  0  0  0  0  0  0  0  0  0  0  0
  -18.9370  -30.1090   23.9720 C   0  0  0  0  0  3  0  0  0  0  0  0
  -17.6300  -30.6050   24.1390 C   0  0  0  0  0  3  0  0  0  0  0  0
  -16.5290  -29.8390   23.7220 C   0  0  0  0  0  3  0  0  0  0  0  0
  -16.7350  -28.5810   23.1290 C   0  0  0  0  0  3  0  0  0  0  0  0
  -25.8900  -32.5250   23.8880 C   0  0  0  0  0  3  0  0  0  0  0  0
  -25.5860  -33.9260   24.2100 N   0  0  0  0  0  0  0  0  0  0  0  0
  -25.8950  -34.9720   23.4320 C   0  0  0  0  0  0  0  0  0  0  0  0
  -26.5360  -34.8590   22.3840 O   0  0  0  0  0  0  0  0  0  0  0  0
  -25.0140  -34.0880   25.0270 H   0  0  0  0  0  0  0  0  0  0  0  0
  -24.1380  -36.7450   23.1250 C   0  0  0  0  0  1  0  0  0  0  0  0
  -25.4160  -36.3640   23.8890 C   0  0  0  0  0  3  0  0  0  0  0  0
  -27.5740  -37.2810   24.6200 C   0  0  0  0  0  1  0  0  0  0  0  0
  -26.4350  -37.4220   23.7160 N   0  0  0  0  0  0  0  0  0  0  0  0
  -26.0270  -38.3420   23.8620 H   0  0  0  0  0  0  0  0  0  0  0  0
  -26.4000  -31.7590   25.1690 C   0  0  1  0  0  0  0  0  0  0  0  0
  -25.3030  -31.5290   26.2340 C   0  0  0  0  0  1  0  0  0  0  0  0
  -26.9820  -30.3780   24.7850 C   0  0  0  0  0  1  0  0  0  0  0  0
  -27.5490  -32.5550   25.8320 C   0  0  0  0  0  1  0  0  0  0  0  0
  2 10  1  0
  2  1  2  0
  3  2  1  0
  4  3  1  0
  4  5  1  0
  5 50  1  0
  5  1  1  0
  6  8  1  0
  7  9  2  0
  7 10  1  0
  9 11  1  0
 10  6  2  0
 11 20  1  0
 11  8  2  0
 12 20  1  0
 13 18  1  0
 14 15  1  0
 14 13  1  0
 16 15  1  0
 16 25  1  0
 16 17  1  0
 18 12  1  0
 18 17  1  0
 19 12  2  0
 20 21  1  0
 22 23  2  0
 23 42  1  0
 24 23  1  0
 24 27  1  0
 25 26  1  0
 25 22  1  0
 26 24  2  0
 27 28  1  0
 28 29  2  0
 30 33  1  0
 30 29  1  0
 31 30  2  0
 32 31  1  0
 32 27  2  0
 33 34  1  0
 34 35  1  0
 35 36  2  0
 37 36  1  0
 37 41  1  0
 38 37  2  0
 39 34  2  0
 39 38  1  0
 40 39  1  0
 42 43  1  0
 43 46  1  0
 43 45  1  0
 44 42  2  0
 47 22  1  0
 47 48  1  0
 49 47  1  0
 50 51  1  0
 52 63  2  0
 53 51  1  0
 53 58  1  0
 54 62  1  0
 54 64  1  0
 55 61  1  0
 55 57  1  0
 56 62  1  0
 57 56  1  0
 58 57  2  0
 59 60  1  0
 59 53  2  0
 60 55  2  0
 61 54  1  0
 62 52  1  0
 64 66  2  0
 65 64  1  0
 67 65  1  0
 68 77  2  0
 68 73  1  0
 69 65  1  0
 69 73  1  0
 70 69  1  0
 71 72  1  0
 71 70  1  0
 72 68  1  0
 73 74  2  0
 74 75  1  0
 76 75  2  0
 77 76  1  0
 78 52  1  0
 78 79  1  0
 78 88  1  0
 79 82  1  0
 80 84  1  0
 80 79  1  0
 81 80  2  0
 84 83  1  0
 86 87  1  0
 86 84  1  0
 86 85  1  0
 88 91  1  1
 88 89  1  0
 90 88  1  0
M  ISO  4  12 100  20 100  50 101  51 101
M  END
>  <TORSDO>  (78) 
F 18

>  <SCORE>  (78) 
-14.309

>  <name>  (78) 
77

>  <ligand_id>  (78) 
77

>  <original_smiles>  (78) 
[H]C1=C(c2c([H])c([H])c(N([H])C(=O)N3C([H])([H])C([H])([H])C([H])([H])C([H])(n4nc(-c5c([H])c([H])c(Oc6c([H])c([H])c(F)c([H])c6F)c([H])c5[H])c(C(=O)N([H])[H])c4N([H])[H])C3([H])[H])c([H])c2[H])C([H])([H])C([H])([H])C1([H])C([H])([H])Oc1c([H])c([H])c2c(c1[H])C([H])([H])N(C(=O)C([H])(N([H])C(=O)C([H])(N([H])C([H])([H])[H])C([H])([H])[H])C(C([H])([H])[H])(C([H])([H])[H])C([H])([H])[H])C([H])(C(=O)N([H])C1([H])c3c([H])c([H])c([H])c([H])c3C([H])([H])C([H])([H])C1([H])[H])C2([H])[H]

>  <smiles>  (78) 
[H]C1=C(c2c([H])c([H])c(N([H])C(=O)N3C([H])([H])C([H])([H])C([H])([H])C([H])(n4nc(-c5c([H])c([H])c(Oc6c([H])c([H])c(F)c([H])c6F)c([H])c5[H])c(C(=O)N([H])[H])c4N([H])[H])C3([H])[H])c([H])c2[H])C([H])([H])C([H])([H])C1([H])C([H])([H])Oc1c([H])c([H])c2c(c1[H])C([H])([H])N(C(=O)C([H])(N([H])C(=O)C([H])(N([H])C([H])([H])[H])C([H])([H])[H])C(C([H])([H])[H])(C([H])([H])[H])C([H])([H])[H])C([H])(C(=O)N([H])C1([H])c3c([H])c([H])c([H])c([H])c3C([H])([H])C([H])([H])C1([H])[H])C2([H])[H]

$$$$
78:0:0
     RDKit          3D

 85 91  0  0  1  0  0  0  0  0999 V2000
  -30.1070  -16.3250   20.2510 C   0  0  0  0  0  0  0  0  0  0  0  0
  -30.3680  -13.6400   19.4730 C   0  0  0  0  0  2  0  0  0  0  0  0
  -29.5770  -12.9190   18.3230 C   0  0  0  0  0  2  0  0  0  0  0  0
  -28.2100  -12.4250   18.8010 C   0  0  0  0  0  2  0  0  0  0  0  0
  -27.5870  -13.4660   19.7460 C   0  0  0  0  0  3  0  0  0  0  0  0
  -28.5540  -14.0580   20.8210 C   0  0  0  0  0  2  0  0  0  0  0  0
  -29.6150  -14.8710   20.1180 N   0  0  0  0  0  0  0  0  0  0  0  0
  -31.3520  -16.1050   20.2210 O   0  0  0  0  0  0  0  0  0  0  0  0
  -28.6400  -20.8300   18.7580 C   0  0  0  0  0  2  0  0  0  0  0  0
  -27.2530  -21.7520   20.4600 C   0  0  0  0  0  2  0  0  0  0  0  0
  -28.0380  -18.6190   20.2300 C   0  0  0  0  0  2  0  0  0  0  0  0
  -29.9880  -19.6140   20.4700 C   0  0  0  0  0  1  0  0  0  0  0  0
  -27.6070  -20.2520   19.6850 C   0  0  0  0  0  3  0  0  0  0  0  0
  -29.4270  -21.4240   19.8940 C   0  0  0  0  0  1  0  0  0  0  0  0
  -28.3610  -23.0190   20.3830 C   0  0  0  0  0  1  0  0  0  0  0  0
  -29.4830  -17.9200   20.2450 N   0  0  0  0  0  0  0  0  0  0  0  0
  -25.2160  -13.9200   20.4820 C   0  0  0  0  0  0  0  0  0  0  0  0
  -24.1670  -13.1230   20.8310 C   0  0  0  0  0  0  0  0  0  0  0  0
  -24.6650  -11.7820   20.8200 C   0  0  0  0  0  0  0  0  0  0  0  0
  -26.2840  -13.0740   20.2680 N   0  0  0  0  0  0  0  0  0  0  0  0
  -25.9660  -11.7760   20.5310 N   0  0  0  0  0  0  0  0  0  0  0  0
  -23.9500  -10.5090   21.0060 C   0  0  0  0  0  0  0  0  0  0  0  0
  -24.3680   -9.5550   21.9610 C   0  0  0  0  0  3  0  0  0  0  0  0
  -23.6440   -8.3550   22.1410 C   0  0  0  0  0  3  0  0  0  0  0  0
  -22.4870   -8.1000   21.3660 C   0  0  0  0  0  0  0  0  0  0  0  0
  -22.0870   -9.0420   20.4030 C   0  0  0  0  0  3  0  0  0  0  0  0
  -22.8110  -10.2330   20.2210 C   0  0  0  0  0  3  0  0  0  0  0  0
  -21.7380   -6.9500   21.4550 O   0  0  0  0  0  0  0  0  0  0  0  0
  -21.6690   -6.2210   22.6150 C   0  0  0  0  0  0  0  0  0  0  0  0
  -21.1930   -6.7820   23.8190 C   0  0  0  0  0  3  0  0  0  0  0  0
  -21.0730   -5.9800   24.9710 C   0  0  0  0  0  3  0  0  0  0  0  0
  -21.4190   -4.6160   24.9190 C   0  0  0  0  0  0  0  0  0  0  0  0
  -21.8890   -4.0540   23.7190 C   0  0  0  0  0  3  0  0  0  0  0  0
  -22.0110   -4.8540   22.5700 C   0  0  0  0  0  0  0  0  0  0  0  0
  -22.4430   -4.3020   21.4110 F   0  0  0  0  0  0  0  0  0  0  0  0
  -21.2970   -3.8420   26.0230 F   0  0  0  0  0  0  0  0  0  0  0  0
  -22.7570  -13.5790   21.0590 C   0  0  0  0  0  0  0  0  0  0  0  0
  -22.0240  -12.8910   21.9260 N   0  0  0  0  0  0  0  0  0  0  0  0
  -22.3160  -14.5850   20.5060 O   0  0  0  0  0  0  0  0  0  0  0  0
  -22.3950  -12.0790   22.3970 H   0  0  0  0  0  0  0  0  0  0  0  0
  -21.0760  -13.1810   22.1240 H   0  0  0  0  0  0  0  0  0  0  0  0
  -25.3500  -15.2930   20.2890 N   0  0  0  0  0  0  0  0  0  0  0  0
  -24.5660  -15.9290   20.3750 H   0  0  0  0  0  0  0  0  0  0  0  0
  -26.1980  -15.7470   19.9740 H   0  0  0  0  0  0  0  0  0  0  0  0
  -28.1990  -24.9950   20.2120 O   0  0  0  0  0  1  0  0  0  0  0  0
  -24.7730  -31.8680   23.0690 C   0  0  0  0  0  0  0  0  0  0  0  0
  -27.2450  -26.3720   20.2290 C   0  0  0  0  0  0  0  0  0  0  0  0
  -23.5910  -30.4340   21.4670 C   0  0  0  0  0  3  0  0  0  0  0  0
  -25.0270  -28.6700   20.1180 C   0  0  0  0  0  0  0  0  0  0  0  0
  -26.1860  -30.4470   21.3860 C   0  0  0  0  0  2  0  0  0  0  0  0
  -26.2360  -28.9570   20.7630 C   0  0  0  0  0  0  0  0  0  0  0  0
  -27.3090  -27.8530   20.7660 C   0  0  0  0  0  3  0  0  0  0  0  0
  -25.9960  -26.3980   19.5210 C   0  0  0  0  0  3  0  0  0  0  0  0
  -24.9710  -27.4200   19.4700 C   0  0  0  0  0  3  0  0  0  0  0  0
  -23.8450  -29.6780   20.1260 C   0  0  0  0  0  2  0  0  0  0  0  0
  -24.8790  -30.9600   22.0250 N   0  0  0  0  0  0  0  0  0  0  0  0
  -23.6740  -32.2000   23.5540 O   0  0  0  0  0  0  0  0  0  0  0  0
  -22.8340  -29.5160   22.4680 C   0  0  0  0  0  0  0  0  0  0  0  0
  -21.4950  -29.3970   22.3570 N   0  0  0  0  0  0  0  0  0  0  0  0
  -23.4720  -28.9020   23.3260 O   0  0  0  0  0  0  0  0  0  0  0  0
  -21.0240  -29.9420   21.6480 H   0  0  0  0  0  0  0  0  0  0  0  0
  -18.0850  -28.2520   22.9420 C   0  0  0  0  0  0  0  0  0  0  0  0
  -20.6550  -28.4860   23.1510 C   0  0  0  0  0  3  0  0  0  0  0  0
  -20.7210  -27.0450   22.5920 C   0  0  0  0  0  2  0  0  0  0  0  0
  -19.5980  -26.7340   21.5970 C   0  0  0  0  0  2  0  0  0  0  0  0
  -18.2290  -26.9000   22.2640 C   0  0  0  0  0  2  0  0  0  0  0  0
  -19.2220  -29.0040   23.3430 C   0  0  0  0  0  0  0  0  0  0  0  0
  -19.0280  -30.2660   23.9460 C   0  0  0  0  0  3  0  0  0  0  0  0
  -17.7310  -30.7760   24.1460 C   0  0  0  0  0  3  0  0  0  0  0  0
  -16.6100  -30.0240   23.7560 C   0  0  0  0  0  3  0  0  0  0  0  0
  -16.7880  -28.7630   23.1600 C   0  0  0  0  0  3  0  0  0  0  0  0
  -26.0220  -32.5470   23.7120 C   0  0  0  0  0  3  0  0  0  0  0  0
  -25.6760  -33.9440   24.0620 N   0  0  0  0  0  0  0  0  0  0  0  0
  -25.9800  -35.0300   23.3350 C   0  0  0  0  0  0  0  0  0  0  0  0
  -26.6240  -34.9610   22.2870 O   0  0  0  0  0  0  0  0  0  0  0  0
  -25.0930  -34.0670   24.8760 H   0  0  0  0  0  0  0  0  0  0  0  0
  -24.2150  -36.8190   23.1030 C   0  0  0  0  0  1  0  0  0  0  0  0
  -25.4970  -36.4060   23.8460 C   0  0  0  0  0  3  0  0  0  0  0  0
  -27.6510  -37.3180   24.6020 C   0  0  0  0  0  1  0  0  0  0  0  0
  -26.5070  -37.4790   23.7080 N   0  0  0  0  0  0  0  0  0  0  0  0
  -26.0930  -38.3900   23.8860 H   0  0  0  0  0  0  0  0  0  0  0  0
  -26.5310  -31.7970   25.0070 C   0  0  1  0  0  0  0  0  0  0  0  0
  -25.4300  -31.5660   26.0700 C   0  0  0  0  0  1  0  0  0  0  0  0
  -27.1290  -30.4190   24.6570 C   0  0  0  0  0  1  0  0  0  0  0  0
  -27.6700  -32.6080   25.6690 C   0  0  0  0  0  1  0  0  0  0  0  0
  2  7  1  0
  3  4  1  0
  3  2  1  0
  5  4  1  0
  5 20  1  0
  5  6  1  0
  7  1  1  0
  7  6  1  0
  8  1  2  0
  9 13  1  0
  9 14  1  0
 11 16  1  0
 13 11  1  0
 13 10  1  0
 15 10  1  0
 16  1  1  0
 16 12  1  0
 17 18  2  0
 18 37  1  0
 19 18  1  0
 19 22  1  0
 20 17  1  0
 20 21  1  0
 21 19  2  0
 22 23  1  0
 23 24  2  0
 25 28  1  0
 25 24  1  0
 26 25  2  0
 27 26  1  0
 27 22  2  0
 28 29  1  0
 29 30  1  0
 30 31  2  0
 32 31  1  0
 32 36  1  0
 33 32  2  0
 34 29  2  0
 34 33  1  0
 35 34  1  0
 37 38  1  0
 38 41  1  0
 38 40  1  0
 39 37  2  0
 42 43  1  0
 42 17  1  0
 44 42  1  0
 45 47  1  0
 46 57  2  0
 47 52  1  0
 48 56  1  0
 48 58  1  0
 49 55  1  0
 49 51  1  0
 50 56  1  0
 51 52  2  0
 51 50  1  0
 53 47  2  0
 54 53  1  0
 54 49  2  0
 55 48  1  0
 56 46  1  0
 58 60  2  0
 59 58  1  0
 61 59  1  0
 62 71  2  0
 62 67  1  0
 63 59  1  0
 63 67  1  0
 64 63  1  0
 65 66  1  0
 65 64  1  0
 66 62  1  0
 67 68  2  0
 68 69  1  0
 70 69  2  0
 71 70  1  0
 72 46  1  0
 72 73  1  0
 72 82  1  0
 73 76  1  0
 74 78  1  0
 74 73  1  0
 75 74  2  0
 78 77  1  0
 80 78  1  0
 80 81  1  0
 80 79  1  0
 82 85  1  1
 82 83  1  0
 84 82  1  0
M  ISO  4   1 100  15 101  16 100  45 101
M  END
>  <TORSDO>  (79) 
F 15

>  <SCORE>  (79) 
-16.203

>  <name>  (79) 
78

>  <ligand_id>  (79) 
78

>  <original_smiles>  (79) 
[H]c1c([H])c([H])c2c(c1[H])C([H])([H])C([H])([H])C([H])([H])C2([H])N([H])C(=O)C1([H])N(C(=O)C([H])(N([H])C(=O)C([H])(N([H])C([H])([H])[H])C([H])([H])[H])C(C([H])([H])[H])(C([H])([H])[H])C([H])([H])[H])C([H])([H])c2c([H])c(OC3([H])C([H])([H])C4([H])C([H])([H])N(C(=O)N5C([H])([H])C([H])([H])C([H])([H])C([H])(n6nc(-c7c([H])c([H])c(Oc8c([H])c([H])c(F)c([H])c8F)c([H])c7[H])c(C(=O)N([H])[H])c6N([H])[H])C5([H])[H])C([H])([H])C3([H])C4([H])[H])c([H])c([H])c2C1([H])[H]

>  <smiles>  (79) 
[H]c1c([H])c([H])c2c(c1[H])C([H])([H])C([H])([H])C([H])([H])C2([H])N([H])C(=O)C1([H])N(C(=O)C([H])(N([H])C(=O)C([H])(N([H])C([H])([H])[H])C([H])([H])[H])C(C([H])([H])[H])(C([H])([H])[H])C([H])([H])[H])C([H])([H])c2c([H])c(OC3([H])C([H])([H])C4([H])C([H])([H])N(C(=O)N5C([H])([H])C([H])([H])C([H])([H])C([H])(n6nc(-c7c([H])c([H])c(Oc8c([H])c([H])c(F)c([H])c8F)c([H])c7[H])c(C(=O)N([H])[H])c6N([H])[H])C5([H])[H])C([H])([H])C3([H])C4([H])[H])c([H])c([H])c2C1([H])[H]

$$$$
79:0:0
     RDKit          3D

 91100  0  0  1  0  0  0  0  0999 V2000
  -27.9040  -21.7160   21.0250 C   0  0  0  0  0  2  0  0  0  0  0  0
  -28.5380  -22.7300   20.1090 C   0  0  0  0  0  3  0  0  0  0  0  0
  -29.1910  -21.1130   20.5350 C   0  0  1  0  0  0  0  0  0  0  0  0
  -32.8200  -21.2090   22.9090 C   0  0  0  0  0  3  0  0  0  0  0  0
  -31.5840  -20.9510   23.5290 C   0  0  0  0  0  3  0  0  0  0  0  0
  -32.8690  -21.4510   21.5230 C   0  0  0  0  0  3  0  0  0  0  0  0
  -30.3980  -20.9320   22.7640 C   0  0  0  0  0  3  0  0  0  0  0  0
  -31.6840  -21.4280   20.7600 C   0  0  0  0  0  3  0  0  0  0  0  0
  -30.4380  -21.1690   21.3720 C   0  0  0  0  0  0  0  0  0  0  0  0
  -28.2830  -24.3600   20.7360 C   0  0  0  0  0  2  0  0  0  0  0  0
  -28.3970  -25.9130   20.2640 O   0  0  0  0  0  0  0  0  0  0  0  0
  -24.6400  -31.7910   23.1240 C   0  0  0  0  0  0  0  0  0  0  0  0
  -27.3360  -26.9430   20.2520 C   0  0  0  0  0  0  0  0  0  0  0  0
  -23.5020  -30.3590   21.4760 C   0  0  0  0  0  3  0  0  0  0  0  0
  -25.0050  -28.7520   20.1210 C   0  0  0  0  0  0  0  0  0  0  0  0
  -26.0670  -30.6110   21.3850 C   0  0  0  0  0  2  0  0  0  0  0  0
  -26.1710  -29.1960   20.7590 C   0  0  0  0  0  0  0  0  0  0  0  0
  -27.3350  -28.3130   20.7940 C   0  0  0  0  0  3  0  0  0  0  0  0
  -26.1380  -26.6310   19.5770 C   0  0  0  0  0  3  0  0  0  0  0  0
  -25.0090  -27.4880   19.5090 C   0  0  0  0  0  3  0  0  0  0  0  0
  -23.7730  -29.6550   20.1170 C   0  0  0  0  0  2  0  0  0  0  0  0
  -24.7570  -30.9460   22.0510 N   0  0  0  0  0  0  0  0  0  0  0  0
  -23.5340  -32.0760   23.6140 O   0  0  0  0  0  0  0  0  0  0  0  0
  -22.7970  -29.3670   22.4370 C   0  0  0  0  0  0  0  0  0  0  0  0
  -21.4650  -29.2210   22.3080 N   0  0  0  0  0  0  0  0  0  0  0  0
  -23.4540  -28.7300   23.2630 O   0  0  0  0  0  0  0  0  0  0  0  0
  -20.9900  -29.7820   21.6140 H   0  0  0  0  0  0  0  0  0  0  0  0
  -18.0570  -28.1070   22.8560 C   0  0  0  0  0  0  0  0  0  0  0  0
  -20.6280  -28.2920   23.0740 C   0  0  0  0  0  3  0  0  0  0  0  0
  -20.6760  -26.8700   22.4670 C   0  0  0  0  0  2  0  0  0  0  0  0
  -19.5450  -26.6030   21.4680 C   0  0  0  0  0  2  0  0  0  0  0  0
  -18.1810  -26.7710   22.1430 C   0  0  0  0  0  2  0  0  0  0  0  0
  -19.2060  -28.8290   23.2790 C   0  0  0  0  0  0  0  0  0  0  0  0
  -19.0330  -30.0810   23.9080 C   0  0  0  0  0  3  0  0  0  0  0  0
  -17.7450  -30.6110   24.1170 C   0  0  0  0  0  3  0  0  0  0  0  0
  -16.6130  -29.8870   23.7060 C   0  0  0  0  0  3  0  0  0  0  0  0
  -16.7690  -28.6360   23.0840 C   0  0  0  0  0  3  0  0  0  0  0  0
  -25.8890  -32.4530   23.7820 C   0  0  0  0  0  3  0  0  0  0  0  0
  -26.3890  -31.6880   25.0690 C   0  0  1  0  0  0  0  0  0  0  0  0
  -25.2750  -31.4230   26.1100 C   0  0  0  0  0  1  0  0  0  0  0  0
  -27.0140  -30.3240   24.6930 C   0  0  0  0  0  1  0  0  0  0  0  0
  -27.5080  -32.5030   25.7620 C   0  0  0  0  0  1  0  0  0  0  0  0
  -25.5380  -33.8430   24.1220 N   0  0  0  0  0  0  0  0  0  0  0  0
  -25.8480  -34.9150   23.3800 C   0  0  0  0  0  0  0  0  0  0  0  0
  -26.5220  -34.8400   22.3500 O   0  0  0  0  0  0  0  0  0  0  0  0
  -24.9400  -33.9730   24.9230 H   0  0  0  0  0  0  0  0  0  0  0  0
  -24.0830  -36.6820   23.0430 C   0  0  0  0  0  1  0  0  0  0  0  0
  -25.3300  -36.2890   23.8550 C   0  0  0  0  0  3  0  0  0  0  0  0
  -27.4320  -37.2180   24.7210 C   0  0  0  0  0  1  0  0  0  0  0  0
  -26.3410  -37.3660   23.7620 N   0  0  0  0  0  0  0  0  0  0  0  0
  -25.9130  -38.2760   23.9030 H   0  0  0  0  0  0  0  0  0  0  0  0
  -29.0040  -19.4290   20.0440 C   0  0  0  0  0  3  0  0  0  0  0  0
  -29.9830  -17.9780   20.3580 C   0  0  0  0  0  3  0  0  0  0  0  0
  -30.4210  -15.1190   19.9720 C   0  0  0  0  0  0  0  0  0  0  0  0
  -30.3000  -12.7310   18.9960 C   0  0  0  0  0  2  0  0  0  0  0  0
  -29.2880  -12.6080   17.8310 C   0  0  0  0  0  2  0  0  0  0  0  0
  -27.8670  -12.3480   18.3660 C   0  0  0  0  0  2  0  0  0  0  0  0
  -27.5170  -13.2540   19.5740 C   0  0  0  0  0  3  0  0  0  0  0  0
  -28.6480  -13.3250   20.6180 C   0  0  0  0  0  2  0  0  0  0  0  0
  -29.8350  -13.8320   19.9100 N   0  0  0  0  0  0  0  0  0  0  0  0
  -31.6260  -15.1380   19.6820 O   0  0  0  0  0  0  0  0  0  0  0  0
  -29.6680  -16.3670   20.1620 N   0  0  0  0  0  0  0  0  0  0  0  0
  -28.6860  -16.1650   20.2850 H   0  0  0  0  0  0  0  0  0  0  0  0
  -25.2090  -13.7850   20.5300 C   0  0  0  0  0  0  0  0  0  0  0  0
  -24.1760  -12.9960   20.9470 C   0  0  0  0  0  0  0  0  0  0  0  0
  -24.6350  -11.6470   20.8260 C   0  0  0  0  0  0  0  0  0  0  0  0
  -26.2280  -12.9200   20.1690 N   0  0  0  0  0  0  0  0  0  0  0  0
  -25.8980  -11.6260   20.4130 N   0  0  0  0  0  0  0  0  0  0  0  0
  -23.9190  -10.3790   21.0200 C   0  0  0  0  0  0  0  0  0  0  0  0
  -24.3550   -9.4210   21.9620 C   0  0  0  0  0  3  0  0  0  0  0  0
  -23.6390   -8.2190   22.1450 C   0  0  0  0  0  3  0  0  0  0  0  0
  -22.4710   -7.9660   21.3840 C   0  0  0  0  0  0  0  0  0  0  0  0
  -22.0540   -8.9130   20.4330 C   0  0  0  0  0  3  0  0  0  0  0  0
  -22.7730  -10.1070   20.2480 C   0  0  0  0  0  3  0  0  0  0  0  0
  -21.7270   -6.8150   21.4730 O   0  0  0  0  0  0  0  0  0  0  0  0
  -21.6300   -6.1100   22.6450 C   0  0  0  0  0  0  0  0  0  0  0  0
  -21.0700   -6.6760   23.8100 C   0  0  0  0  0  3  0  0  0  0  0  0
  -20.9250   -5.8930   24.9730 C   0  0  0  0  0  3  0  0  0  0  0  0
  -21.3300   -4.5440   24.9720 C   0  0  0  0  0  0  0  0  0  0  0  0
  -21.8840   -3.9790   23.8100 C   0  0  0  0  0  3  0  0  0  0  0  0
  -22.0300   -4.7580   22.6500 C   0  0  0  0  0  0  0  0  0  0  0  0
  -22.5450   -4.2010   21.5260 F   0  0  0  0  0  0  0  0  0  0  0  0
  -21.1850   -3.7910   26.0880 F   0  0  0  0  0  0  0  0  0  0  0  0
  -22.8060  -13.4630   21.3390 C   0  0  0  0  0  0  0  0  0  0  0  0
  -22.1380  -12.7370   22.2280 N   0  0  0  0  0  0  0  0  0  0  0  0
  -22.3380  -14.5110   20.8950 O   0  0  0  0  0  0  0  0  0  0  0  0
  -22.5280  -11.8920   22.6170 H   0  0  0  0  0  0  0  0  0  0  0  0
  -21.2220  -13.0390   22.5280 H   0  0  0  0  0  0  0  0  0  0  0  0
  -25.3570  -15.1630   20.3960 N   0  0  0  0  0  0  0  0  0  0  0  0
  -24.5950  -15.8020   20.5880 H   0  0  0  0  0  0  0  0  0  0  0  0
  -26.1590  -15.6180   19.9810 H   0  0  0  0  0  0  0  0  0  0  0  0
  2  3  1  0
  2 10  1  0
  2  1  1  0
  3 52  1  6
  3  1  1  0
  3  9  1  0
  4  5  1  0
  6  4  2  0
  7  5  2  0
  8  9  2  0
  8  6  1  0
  9  7  1  0
 11 10  1  0
 12 23  2  0
 13 11  1  0
 13 18  1  0
 14 22  1  0
 14 24  1  0
 15 17  1  0
 16 22  1  0
 17 18  2  0
 17 16  1  0
 19 13  2  0
 20 19  1  0
 20 15  2  0
 21 15  1  0
 21 14  1  0
 22 12  1  0
 24 26  2  0
 25 24  1  0
 27 25  1  0
 28 37  2  0
 28 33  1  0
 29 25  1  0
 29 33  1  0
 30 29  1  0
 31 32  1  0
 31 30  1  0
 32 28  1  0
 33 34  2  0
 34 35  1  0
 36 35  2  0
 37 36  1  0
 38 12  1  0
 38 43  1  0
 38 39  1  0
 39 42  1  1
 39 40  1  0
 41 39  1  0
 43 46  1  0
 44 48  1  0
 44 43  1  0
 45 44  2  0
 48 47  1  0
 50 48  1  0
 50 51  1  0
 50 49  1  0
 52 53  2  0
 54 62  1  0
 55 60  1  0
 56 57  1  0
 56 55  1  0
 58 57  1  0
 58 67  1  0
 58 59  1  0
 60 54  1  0
 60 59  1  0
 61 54  2  0
 62 63  1  0
 62 53  1  0
 64 65  2  0
 65 84  1  0
 66 65  1  0
 66 69  1  0
 67 68  1  0
 67 64  1  0
 68 66  2  0
 69 70  1  0
 70 71  2  0
 72 75  1  0
 72 71  1  0
 73 72  2  0
 74 73  1  0
 74 69  2  0
 75 76  1  0
 76 81  2  0
 76 77  1  0
 77 78  2  0
 79 78  1  0
 79 83  1  0
 80 79  2  0
 81 80  1  0
 82 81  1  0
 84 85  1  0
 85 88  1  0
 85 87  1  0
 86 84  2  0
 89 64  1  0
 89 90  1  0
 91 89  1  0
M  ISO  4  10 101  11 101  54 100  62 100
M  END
>  <TORSDO>  (80) 
F 20

>  <SCORE>  (80) 
-15.350

>  <name>  (80) 
79

>  <ligand_id>  (80) 
79

>  <original_smiles>  (80) 
[H]c1c([H])c([H])c(C2(C([H])([H])C([H])([H])N([H])C(=O)N3C([H])([H])C([H])([H])C([H])([H])C([H])(n4nc(-c5c([H])c([H])c(Oc6c([H])c([H])c(F)c([H])c6F)c([H])c5[H])c(C(=O)N([H])[H])c4N([H])[H])C3([H])[H])C([H])([H])C2([H])C([H])([H])Oc2c([H])c([H])c3c(c2[H])C([H])([H])N(C(=O)C([H])(N([H])C(=O)C([H])(N([H])C([H])([H])[H])C([H])([H])[H])C(C([H])([H])[H])(C([H])([H])[H])C([H])([H])[H])C([H])(C(=O)N([H])C2([H])c4c([H])c([H])c([H])c([H])c4C([H])([H])C([H])([H])C2([H])[H])C3([H])[H])c([H])c1[H]

>  <smiles>  (80) 
[H]c1c([H])c([H])c(C2(C([H])([H])C([H])([H])N([H])C(=O)N3C([H])([H])C([H])([H])C([H])([H])C([H])(n4nc(-c5c([H])c([H])c(Oc6c([H])c([H])c(F)c([H])c6F)c([H])c5[H])c(C(=O)N([H])[H])c4N([H])[H])C3([H])[H])C([H])([H])C2([H])C([H])([H])Oc2c([H])c([H])c3c(c2[H])C([H])([H])N(C(=O)C([H])(N([H])C(=O)C([H])(N([H])C([H])([H])[H])C([H])([H])[H])C(C([H])([H])[H])(C([H])([H])[H])C([H])([H])[H])C([H])(C(=O)N([H])C2([H])c4c([H])c([H])c([H])c([H])c4C([H])([H])C([H])([H])C2([H])[H])C3([H])[H])c([H])c1[H]

$$$$
80:0:0
     RDKit          3D

 93102  0  0  1  0  0  0  0  0999 V2000
  -30.6150  -20.0980   20.1660 C   0  0  0  0  0  3  0  0  0  0  0  0
  -30.2940  -21.4130   20.3280 C   0  0  0  0  0  0  0  0  0  0  0  0
  -28.3170  -20.1190   20.4550 C   0  0  0  0  0  2  0  0  0  0  0  0
  -29.5300  -19.0240   20.2260 C   0  0  0  0  0  3  0  0  0  0  0  0
  -28.8000  -21.7010   20.5140 C   0  0  0  0  0  3  0  0  0  0  0  0
  -33.3060  -24.4910   20.2600 C   0  0  0  0  0  3  0  0  0  0  0  0
  -33.5150  -23.2890   19.5540 C   0  0  0  0  0  3  0  0  0  0  0  0
  -32.1080  -24.6870   20.9710 C   0  0  0  0  0  3  0  0  0  0  0  0
  -32.5230  -22.2880   19.5550 C   0  0  0  0  0  3  0  0  0  0  0  0
  -31.1200  -23.6820   20.9810 C   0  0  0  0  0  3  0  0  0  0  0  0
  -31.3180  -22.4780   20.2670 C   0  0  0  0  0  0  0  0  0  0  0  0
  -30.0300  -17.7050   21.1780 C   0  0  0  0  0  2  0  0  0  0  0  0
  -30.7400  -15.0160   21.2340 C   0  0  0  0  0  0  0  0  0  0  0  0
  -30.8620  -12.5210   20.7540 C   0  0  0  0  0  2  0  0  0  0  0  0
  -30.1480  -12.1730   19.4270 C   0  0  0  0  0  2  0  0  0  0  0  0
  -28.6390  -11.9620   19.6570 C   0  0  0  0  0  2  0  0  0  0  0  0
  -28.0140  -13.0760   20.5370 C   0  0  0  0  0  3  0  0  0  0  0  0
  -28.8620  -13.3680   21.7900 C   0  0  0  0  0  2  0  0  0  0  0  0
  -30.2010  -13.7340   21.3120 N   0  0  0  0  0  0  0  0  0  0  0  0
  -31.9720  -15.1110   21.2310 O   0  0  0  0  0  0  0  0  0  0  0  0
  -29.9070  -16.1400   20.9640 N   0  0  0  0  0  0  0  0  0  0  0  0
  -28.9530  -15.8530   20.8090 H   0  0  0  0  0  0  0  0  0  0  0  0
  -25.5720  -13.7010   20.9740 C   0  0  0  0  0  0  0  0  0  0  0  0
  -24.4540  -12.9460   21.1990 C   0  0  0  0  0  0  0  0  0  0  0  0
  -24.8920  -11.5870   21.2180 C   0  0  0  0  0  0  0  0  0  0  0  0
  -26.6190  -12.8030   20.8610 N   0  0  0  0  0  0  0  0  0  0  0  0
  -26.2120  -11.5260   21.0760 N   0  0  0  0  0  0  0  0  0  0  0  0
  -24.1230  -10.3400   21.2990 C   0  0  0  0  0  0  0  0  0  0  0  0
  -24.4120   -9.3560   22.2720 C   0  0  0  0  0  3  0  0  0  0  0  0
  -23.6430   -8.1730   22.3440 C   0  0  0  0  0  3  0  0  0  0  0  0
  -22.5740   -7.9660   21.4410 C   0  0  0  0  0  0  0  0  0  0  0  0
  -22.3060   -8.9380   20.4600 C   0  0  0  0  0  3  0  0  0  0  0  0
  -23.0740  -10.1110   20.3860 C   0  0  0  0  0  3  0  0  0  0  0  0
  -21.7900   -6.8380   21.4200 O   0  0  0  0  0  0  0  0  0  0  0  0
  -21.5600   -6.1010   22.5550 C   0  0  0  0  0  0  0  0  0  0  0  0
  -20.9870   -6.6740   23.7120 C   0  0  0  0  0  3  0  0  0  0  0  0
  -20.7020   -5.8650   24.8300 C   0  0  0  0  0  3  0  0  0  0  0  0
  -20.9810   -4.4850   24.7920 C   0  0  0  0  0  0  0  0  0  0  0  0
  -21.5470   -3.9130   23.6390 C   0  0  0  0  0  3  0  0  0  0  0  0
  -21.8320   -4.7190   22.5220 C   0  0  0  0  0  0  0  0  0  0  0  0
  -22.3560   -4.1580   21.4060 F   0  0  0  0  0  0  0  0  0  0  0  0
  -20.7010   -3.7060   25.8630 F   0  0  0  0  0  0  0  0  0  0  0  0
  -23.0430  -13.4510   21.2870 C   0  0  0  0  0  0  0  0  0  0  0  0
  -22.2020  -12.7820   22.0670 N   0  0  0  0  0  0  0  0  0  0  0  0
  -22.6930  -14.4740   20.7000 O   0  0  0  0  0  0  0  0  0  0  0  0
  -22.4960  -11.9560   22.5660 H   0  0  0  0  0  0  0  0  0  0  0  0
  -21.2490  -13.1020   22.1700 H   0  0  0  0  0  0  0  0  0  0  0  0
  -25.7840  -15.0700   20.8290 N   0  0  0  0  0  0  0  0  0  0  0  0
  -25.0200  -15.7370   20.8440 H   0  0  0  0  0  0  0  0  0  0  0  0
  -26.6660  -15.4910   20.5710 H   0  0  0  0  0  0  0  0  0  0  0  0
  -28.1940  -23.0350   19.6350 C   0  0  0  0  0  2  0  0  0  0  0  0
  -27.7180  -24.5570   20.2190 C   0  0  0  0  0  2  0  0  0  0  0  0
  -27.8280  -25.9660   19.5530 O   0  0  0  0  0  0  0  0  0  0  0  0
  -24.6950  -31.6170   23.1520 C   0  0  0  0  0  0  0  0  0  0  0  0
  -26.8200  -26.9880   19.6800 C   0  0  0  0  0  0  0  0  0  0  0  0
  -23.3300  -30.4180   21.4860 C   0  0  0  0  0  3  0  0  0  0  0  0
  -24.6040  -28.8620   19.8850 C   0  0  0  0  0  0  0  0  0  0  0  0
  -25.8840  -30.5450   21.2000 C   0  0  0  0  0  2  0  0  0  0  0  0
  -25.8390  -29.1990   20.4550 C   0  0  0  0  0  0  0  0  0  0  0  0
  -26.9500  -28.2830   20.3280 C   0  0  0  0  0  3  0  0  0  0  0  0
  -25.5630  -26.7500   19.0880 C   0  0  0  0  0  3  0  0  0  0  0  0
  -24.4790  -27.6510   19.1840 C   0  0  0  0  0  3  0  0  0  0  0  0
  -23.4400  -29.8270   20.0550 C   0  0  0  0  0  2  0  0  0  0  0  0
  -24.6610  -30.8760   22.0020 N   0  0  0  0  0  0  0  0  0  0  0  0
  -23.6570  -31.9250   23.7550 O   0  0  0  0  0  0  0  0  0  0  0  0
  -22.6360  -29.3880   22.4110 C   0  0  0  0  0  0  0  0  0  0  0  0
  -21.2990  -29.2790   22.3120 N   0  0  0  0  0  0  0  0  0  0  0  0
  -23.3020  -28.6890   23.1800 O   0  0  0  0  0  0  0  0  0  0  0  0
  -20.8180  -29.8930   21.6700 H   0  0  0  0  0  0  0  0  0  0  0  0
  -17.8930  -28.1440   22.7970 C   0  0  0  0  0  0  0  0  0  0  0  0
  -20.4590  -28.3330   23.0540 C   0  0  0  0  0  3  0  0  0  0  0  0
  -20.5220  -26.9230   22.4250 C   0  0  0  0  0  2  0  0  0  0  0  0
  -19.4050  -26.6660   21.4080 C   0  0  0  0  0  2  0  0  0  0  0  0
  -18.0320  -26.8190   22.0670 C   0  0  0  0  0  2  0  0  0  0  0  0
  -19.0330  -28.8620   23.2470 C   0  0  0  0  0  0  0  0  0  0  0  0
  -18.8490  -30.1050   23.8920 C   0  0  0  0  0  3  0  0  0  0  0  0
  -17.5590  -30.6290   24.0900 C   0  0  0  0  0  3  0  0  0  0  0  0
  -16.4320  -29.9080   23.6560 C   0  0  0  0  0  3  0  0  0  0  0  0
  -16.6000  -28.6680   23.0160 C   0  0  0  0  0  3  0  0  0  0  0  0
  -26.0390  -32.1250   23.7540 C   0  0  0  0  0  3  0  0  0  0  0  0
  -26.6220  -31.1690   24.8660 C   0  0  1  0  0  0  0  0  0  0  0  0
  -25.6070  -30.8220   25.9810 C   0  0  0  0  0  1  0  0  0  0  0  0
  -27.1150  -29.8400   24.2490 C   0  0  0  0  0  1  0  0  0  0  0  0
  -27.8520  -31.8310   25.5320 C   0  0  0  0  0  1  0  0  0  0  0  0
  -25.8020  -33.4690   24.3040 N   0  0  0  0  0  0  0  0  0  0  0  0
  -26.1610  -34.6150   23.7090 C   0  0  0  0  0  0  0  0  0  0  0  0
  -26.7920  -34.6470   22.6490 O   0  0  0  0  0  0  0  0  0  0  0  0
  -25.2350  -33.5210   25.1370 H   0  0  0  0  0  0  0  0  0  0  0  0
  -24.5190  -36.5240   23.7040 C   0  0  0  0  0  1  0  0  0  0  0  0
  -25.7580  -35.9340   24.3970 C   0  0  0  0  0  3  0  0  0  0  0  0
  -27.9550  -36.5780   25.2860 C   0  0  0  0  0  1  0  0  0  0  0  0
  -26.8400  -36.9430   24.4190 N   0  0  0  0  0  0  0  0  0  0  0  0
  -26.4830  -37.8460   24.7230 H   0  0  0  0  0  0  0  0  0  0  0  0
  1  4  1  0
  1  2  2  0
  2  5  1  0
  3  5  1  0
  4  3  1  0
  4 12  1  0
  5 51  1  0
  6  8  1  0
  7  9  1  0
  7  6  2  0
  8 10  2  0
  9 11  2  0
 11  2  1  0
 11 10  1  0
 13 19  1  0
 14 19  1  0
 15 16  1  0
 15 14  1  0
 17 16  1  0
 17 26  1  0
 17 18  1  0
 19 18  1  0
 20 13  2  0
 21 12  1  0
 21 13  1  0
 22 21  1  0
 23 24  2  0
 24 25  1  0
 24 43  1  0
 25 28  1  0
 26 23  1  0
 26 27  1  0
 27 25  2  0
 28 29  1  0
 29 30  2  0
 31 30  1  0
 32 31  2  0
 33 32  1  0
 33 28  2  0
 34 31  1  0
 34 35  1  0
 35 36  1  0
 36 37  2  0
 38 37  1  0
 38 42  1  0
 39 38  2  0
 40 35  2  0
 40 39  1  0
 41 40  1  0
 43 44  1  0
 44 47  1  0
 44 46  1  0
 45 43  2  0
 48 49  1  0
 48 23  1  0
 50 48  1  0
 51 52  1  0
 53 55  1  0
 53 52  1  0
 54 65  2  0
 55 60  1  0
 56 64  1  0
 56 66  1  0
 57 63  1  0
 57 59  1  0
 58 64  1  0
 59 58  1  0
 60 59  2  0
 61 62  1  0
 61 55  2  0
 62 57  2  0
 63 56  1  0
 64 54  1  0
 66 68  2  0
 67 66  1  0
 69 67  1  0
 70 79  2  0
 70 75  1  0
 71 67  1  0
 71 75  1  0
 72 71  1  0
 73 74  1  0
 73 72  1  0
 74 70  1  0
 75 76  2  0
 76 77  1  0
 78 77  2  0
 79 78  1  0
 80 54  1  0
 80 85  1  0
 80 81  1  0
 81 84  1  1
 81 82  1  0
 83 81  1  0
 85 88  1  0
 86 85  1  0
 86 90  1  0
 87 86  2  0
 90 89  1  0
 90 92  1  0
 92 93  1  0
 92 91  1  0
M  ISO  4  13 100  21 100  52 101  53 101
M  END
>  <TORSDO>  (81) 
F 20

>  <SCORE>  (81) 
-12.875

>  <name>  (81) 
80

>  <ligand_id>  (81) 
80

>  <original_smiles>  (81) 
[H]C1=C(c2c([H])c([H])c([H])c([H])c2[H])C([H])(C([H])([H])C([H])([H])Oc2c([H])c([H])c3c(c2[H])C([H])([H])N(C(=O)C([H])(N([H])C(=O)C([H])(N([H])C([H])([H])[H])C([H])([H])[H])C(C([H])([H])[H])(C([H])([H])[H])C([H])([H])[H])C([H])(C(=O)N([H])C2([H])c4c([H])c([H])c([H])c([H])c4C([H])([H])C([H])([H])C2([H])[H])C3([H])[H])C([H])([H])C1([H])C([H])([H])N([H])C(=O)N1C([H])([H])C([H])([H])C([H])([H])C([H])(n2nc(-c3c([H])c([H])c(Oc4c([H])c([H])c(F)c([H])c4F)c([H])c3[H])c(C(=O)N([H])[H])c2N([H])[H])C1([H])[H]

>  <smiles>  (81) 
[H]C1=C(c2c([H])c([H])c([H])c([H])c2[H])C([H])(C([H])([H])C([H])([H])Oc2c([H])c([H])c3c(c2[H])C([H])([H])N(C(=O)C([H])(N([H])C(=O)C([H])(N([H])C([H])([H])[H])C([H])([H])[H])C(C([H])([H])[H])(C([H])([H])[H])C([H])([H])[H])C([H])(C(=O)N([H])C2([H])c4c([H])c([H])c([H])c([H])c4C([H])([H])C([H])([H])C2([H])[H])C3([H])[H])C([H])([H])C1([H])C([H])([H])N([H])C(=O)N1C([H])([H])C([H])([H])C([H])([H])C([H])(n2nc(-c3c([H])c([H])c(Oc4c([H])c([H])c(F)c([H])c4F)c([H])c3[H])c(C(=O)N([H])[H])c2N([H])[H])C1([H])[H]

$$$$
81:0:0
     RDKit          3D

 87 95  0  0  1  0  0  0  0  0999 V2000
  -29.8390  -17.9520   20.2250 C   0  0  0  0  0  0  0  0  0  0  0  0
  -30.9380  -18.4480   19.2860 C   0  0  0  0  0  0  0  0  0  0  0  0
  -29.0490  -19.4500   20.7250 C   0  0  0  0  0  2  0  0  0  0  0  0
  -30.6600  -19.7130   18.4390 C   0  0  0  0  0  2  0  0  0  0  0  0
  -30.3840  -21.0370   19.2070 C   0  0  0  0  0  2  0  0  0  0  0  0
  -29.0360  -21.0580   19.9570 C   0  0  0  0  0  3  0  0  0  0  0  0
  -29.6350  -16.5980   20.6060 N   0  0  0  0  0  0  0  0  0  0  0  0
  -32.0250  -17.8790   19.1570 O   0  0  0  0  0  0  0  0  0  0  0  0
  -30.4290  -15.2920   20.3380 C   0  0  0  0  0  0  0  0  0  0  0  0
  -30.4010  -12.8340   19.4980 C   0  0  0  0  0  2  0  0  0  0  0  0
  -29.5160  -12.6740   18.2360 C   0  0  0  0  0  2  0  0  0  0  0  0
  -28.0530  -12.4120   18.6370 C   0  0  0  0  0  2  0  0  0  0  0  0
  -27.5790  -13.3670   19.7640 C   0  0  0  0  0  3  0  0  0  0  0  0
  -28.6010  -13.5110   20.9080 C   0  0  0  0  0  2  0  0  0  0  0  0
  -29.8650  -13.9850   20.3210 N   0  0  0  0  0  0  0  0  0  0  0  0
  -31.6260  -15.2540   20.0420 O   0  0  0  0  0  0  0  0  0  0  0  0
  -25.1890  -13.9100   20.4700 C   0  0  0  0  0  0  0  0  0  0  0  0
  -24.1250  -13.1290   20.8250 C   0  0  0  0  0  0  0  0  0  0  0  0
  -24.6020  -11.7820   20.8160 C   0  0  0  0  0  0  0  0  0  0  0  0
  -26.2440  -13.0410   20.2490 N   0  0  0  0  0  0  0  0  0  0  0  0
  -25.9010  -11.7540   20.5270 N   0  0  0  0  0  0  0  0  0  0  0  0
  -23.8770  -10.5170   21.0080 C   0  0  0  0  0  0  0  0  0  0  0  0
  -24.2920   -9.5620   21.9620 C   0  0  0  0  0  3  0  0  0  0  0  0
  -23.5660   -8.3630   22.1410 C   0  0  0  0  0  3  0  0  0  0  0  0
  -22.4070   -8.1130   21.3690 C   0  0  0  0  0  0  0  0  0  0  0  0
  -22.0090   -9.0580   20.4060 C   0  0  0  0  0  3  0  0  0  0  0  0
  -22.7370  -10.2450   20.2240 C   0  0  0  0  0  3  0  0  0  0  0  0
  -21.6550   -6.9670   21.4570 O   0  0  0  0  0  0  0  0  0  0  0  0
  -21.5860   -6.2360   22.6160 C   0  0  0  0  0  0  0  0  0  0  0  0
  -21.1370   -6.8020   23.8300 C   0  0  0  0  0  3  0  0  0  0  0  0
  -21.0180   -5.9970   24.9800 C   0  0  0  0  0  3  0  0  0  0  0  0
  -21.3350   -4.6280   24.9190 C   0  0  0  0  0  0  0  0  0  0  0  0
  -21.7770   -4.0610   23.7110 C   0  0  0  0  0  3  0  0  0  0  0  0
  -21.8990   -4.8620   22.5620 C   0  0  0  0  0  0  0  0  0  0  0  0
  -22.3070   -4.3050   21.3960 F   0  0  0  0  0  0  0  0  0  0  0  0
  -21.2110   -3.8540   26.0230 F   0  0  0  0  0  0  0  0  0  0  0  0
  -22.7210  -13.6010   21.0600 C   0  0  0  0  0  0  0  0  0  0  0  0
  -21.9730  -12.9140   21.9160 N   0  0  0  0  0  0  0  0  0  0  0  0
  -22.2920  -14.6190   20.5150 O   0  0  0  0  0  0  0  0  0  0  0  0
  -22.3260  -12.0950   22.3860 H   0  0  0  0  0  0  0  0  0  0  0  0
  -21.0290  -13.2180   22.1120 H   0  0  0  0  0  0  0  0  0  0  0  0
  -25.3430  -15.2810   20.2860 N   0  0  0  0  0  0  0  0  0  0  0  0
  -24.5710  -15.9320   20.3920 H   0  0  0  0  0  0  0  0  0  0  0  0
  -26.2110  -15.7270   20.0080 H   0  0  0  0  0  0  0  0  0  0  0  0
  -28.7370  -22.7350   20.5820 C   0  0  0  0  0  2  0  0  0  0  0  0
  -28.1120  -24.2870   19.9030 C   0  0  0  0  0  2  0  0  0  0  0  0
  -28.2010  -25.8840   20.3160 O   0  0  0  0  0  0  0  0  0  0  0  0
  -24.6270  -31.8530   23.2130 C   0  0  0  0  0  0  0  0  0  0  0  0
  -27.1900  -26.9760   20.2040 C   0  0  0  0  0  0  0  0  0  0  0  0
  -23.4370  -30.4530   21.5750 C   0  0  0  0  0  3  0  0  0  0  0  0
  -24.8900  -28.8530   20.1510 C   0  0  0  0  0  0  0  0  0  0  0  0
  -26.0030  -30.6650   21.4360 C   0  0  0  0  0  2  0  0  0  0  0  0
  -26.0720  -29.2560   20.7820 C   0  0  0  0  0  0  0  0  0  0  0  0
  -27.2140  -28.3360   20.7880 C   0  0  0  0  0  3  0  0  0  0  0  0
  -25.9830  -26.7270   19.5130 C   0  0  0  0  0  3  0  0  0  0  0  0
  -24.8720  -27.6120   19.4920 C   0  0  0  0  0  3  0  0  0  0  0  0
  -23.6700  -29.7710   20.1980 C   0  0  0  0  0  2  0  0  0  0  0  0
  -24.7100  -31.0180   22.1270 N   0  0  0  0  0  0  0  0  0  0  0  0
  -23.5360  -32.1440   23.7320 O   0  0  0  0  0  0  0  0  0  0  0  0
  -22.7420  -29.4580   22.5410 C   0  0  0  0  0  0  0  0  0  0  0  0
  -21.4100  -29.3000   22.4230 N   0  0  0  0  0  0  0  0  0  0  0  0
  -23.4090  -28.8300   23.3690 O   0  0  0  0  0  0  0  0  0  0  0  0
  -20.9260  -29.8600   21.7360 H   0  0  0  0  0  0  0  0  0  0  0  0
  -18.0250  -28.1060   22.9410 C   0  0  0  0  0  0  0  0  0  0  0  0
  -20.5860  -28.3650   23.1960 C   0  0  0  0  0  3  0  0  0  0  0  0
  -20.6820  -26.9320   22.6210 C   0  0  0  0  0  2  0  0  0  0  0  0
  -19.5760  -26.6130   21.6100 C   0  0  0  0  0  2  0  0  0  0  0  0
  -18.1970  -26.7580   22.2600 C   0  0  0  0  0  2  0  0  0  0  0  0
  -19.1470  -28.8670   23.3660 C   0  0  0  0  0  0  0  0  0  0  0  0
  -18.9300  -30.1250   23.9700 C   0  0  0  0  0  3  0  0  0  0  0  0
  -17.6270  -30.6250   24.1470 C   0  0  0  0  0  3  0  0  0  0  0  0
  -16.5200  -29.8630   23.7360 C   0  0  0  0  0  3  0  0  0  0  0  0
  -16.7190  -28.6050   23.1390 C   0  0  0  0  0  3  0  0  0  0  0  0
  -25.8980  -32.4990   23.8470 C   0  0  0  0  0  3  0  0  0  0  0  0
  -25.5780  -33.9020   24.1700 N   0  0  0  0  0  0  0  0  0  0  0  0
  -25.9130  -34.9600   23.4190 C   0  0  0  0  0  0  0  0  0  0  0  0
  -26.5860  -34.8600   22.3910 O   0  0  0  0  0  0  0  0  0  0  0  0
  -24.9800  -34.0530   24.9690 H   0  0  0  0  0  0  0  0  0  0  0  0
  -24.1860  -36.7640   23.0750 C   0  0  0  0  0  1  0  0  0  0  0  0
  -25.4270  -36.3510   23.8830 C   0  0  0  0  0  3  0  0  0  0  0  0
  -27.5620  -37.2380   24.7140 C   0  0  0  0  0  1  0  0  0  0  0  0
  -26.4590  -37.4060   23.7710 N   0  0  0  0  0  0  0  0  0  0  0  0
  -26.0500  -38.3230   23.9210 H   0  0  0  0  0  0  0  0  0  0  0  0
  -26.3960  -31.7440   25.1410 C   0  0  1  0  0  0  0  0  0  0  0  0
  -25.2920  -31.5260   26.2030 C   0  0  0  0  0  1  0  0  0  0  0  0
  -26.9770  -30.3570   24.7830 C   0  0  0  0  0  1  0  0  0  0  0  0
  -27.5410  -32.5430   25.8060 C   0  0  0  0  0  1  0  0  0  0  0  0
  1  7  2  0
  1  3  1  0
  2  1  1  0
  4  5  1  0
  4  2  1  0
  5  6  1  0
  6 45  1  0
  6  3  1  0
  8  2  2  0
  9  7  1  0
 10 15  1  0
 11 12  1  0
 11 10  1  0
 13 12  1  0
 13 20  1  0
 13 14  1  0
 15  9  1  0
 15 14  1  0
 16  9  2  0
 17 18  2  0
 18 37  1  0
 19 18  1  0
 19 22  1  0
 20 17  1  0
 20 21  1  0
 21 19  2  0
 22 23  1  0
 23 24  2  0
 25 28  1  0
 25 24  1  0
 26 25  2  0
 27 26  1  0
 27 22  2  0
 28 29  1  0
 29 30  1  0
 30 31  2  0
 32 31  1  0
 32 36  1  0
 33 32  2  0
 34 29  2  0
 34 33  1  0
 35 34  1  0
 37 38  1  0
 38 41  1  0
 38 40  1  0
 39 37  2  0
 42 43  1  0
 42 17  1  0
 44 42  1  0
 46 47  1  0
 46 45  1  0
 48 59  2  0
 49 47  1  0
 49 54  1  0
 50 58  1  0
 50 60  1  0
 51 57  1  0
 51 53  1  0
 52 58  1  0
 53 54  2  0
 53 52  1  0
 55 49  2  0
 56 55  1  0
 56 51  2  0
 57 50  1  0
 58 48  1  0
 60 62  2  0
 61 60  1  0
 63 61  1  0
 64 73  2  0
 64 69  1  0
 65 61  1  0
 65 69  1  0
 66 65  1  0
 67 68  1  0
 67 66  1  0
 68 64  1  0
 69 70  2  0
 70 71  1  0
 72 71  2  0
 73 72  1  0
 74 48  1  0
 74 75  1  0
 74 84  1  0
 75 78  1  0
 76 80  1  0
 76 75  1  0
 77 76  2  0
 80 79  1  0
 82 80  1  0
 82 83  1  0
 82 81  1  0
 84 87  1  1
 84 85  1  0
 86 84  1  0
M  ISO  4   7 100   9 100  46 101  47 101
M  END
>  <TORSDO>  (82) 
F 18

>  <SCORE>  (82) 
-15.980

>  <name>  (82) 
81

>  <ligand_id>  (82) 
81

>  <original_smiles>  (82) 
[H]c1c([H])c([H])c2c(c1[H])C([H])([H])C([H])([H])C([H])([H])C2([H])N([H])C(=O)C1([H])N(C(=O)C([H])(N([H])C(=O)C([H])(N([H])C([H])([H])[H])C([H])([H])[H])C(C([H])([H])[H])(C([H])([H])[H])C([H])([H])[H])C([H])([H])c2c([H])c(OC([H])([H])C([H])([H])C3([H])C([H])([H])C(=NC(=O)N4C([H])([H])C([H])([H])C([H])([H])C([H])(n5nc(-c6c([H])c([H])c(Oc7c([H])c([H])c(F)c([H])c7F)c([H])c6[H])c(C(=O)N([H])[H])c5N([H])[H])C4([H])[H])C(=O)C([H])([H])C3([H])[H])c([H])c([H])c2C1([H])[H]

>  <smiles>  (82) 
[H]c1c([H])c([H])c2c(c1[H])C([H])([H])C([H])([H])C([H])([H])C2([H])N([H])C(=O)C1([H])N(C(=O)C([H])(N([H])C(=O)C([H])(N([H])C([H])([H])[H])C([H])([H])[H])C(C([H])([H])[H])(C([H])([H])[H])C([H])([H])[H])C([H])([H])c2c([H])c(OC([H])([H])C([H])([H])C3([H])C([H])([H])C(=NC(=O)N4C([H])([H])C([H])([H])C([H])([H])C([H])(n5nc(-c6c([H])c([H])c(Oc7c([H])c([H])c(F)c([H])c7F)c([H])c6[H])c(C(=O)N([H])[H])c5N([H])[H])C4([H])[H])C(=O)C([H])([H])C3([H])[H])c([H])c([H])c2C1([H])[H]

$$$$
82:0:0
     RDKit          3D

 90 99  0  0  1  0  0  0  0  0999 V2000
  -28.5840  -20.9110   19.3470 N   0  0  0  0  0  4  0  0  0  0  0  0
  -28.0230  -20.5360   18.5980 H   0  0  0  0  0  0  0  0  0  0  0  0
  -29.3660  -21.3190   18.8600 H   0  0  0  0  0  0  0  0  0  0  0  0
  -30.5370  -14.8460   20.0960 C   0  0  0  0  0  0  0  0  0  0  0  0
  -30.3570  -12.5400   19.1470 C   0  0  0  0  0  2  0  0  0  0  0  0
  -29.3920  -12.5560   17.9440 C   0  0  0  0  0  2  0  0  0  0  0  0
  -27.9350  -12.3810   18.4080 C   0  0  0  0  0  2  0  0  0  0  0  0
  -27.5820  -13.2920   19.6160 C   0  0  0  0  0  3  0  0  0  0  0  0
  -28.6620  -13.2520   20.7160 C   0  0  0  0  0  2  0  0  0  0  0  0
  -29.9140  -13.6210   20.0620 N   0  0  0  0  0  0  0  0  0  0  0  0
  -31.7550  -14.8810   19.8710 O   0  0  0  0  0  0  0  0  0  0  0  0
  -30.8110  -18.1360   21.0910 C   0  0  0  0  0  2  0  0  0  0  0  0
  -30.1160  -19.5380   21.1410 C   0  0  0  0  0  2  0  0  0  0  0  0
  -28.4900  -16.7180   20.2170 C   0  0  0  0  0  2  0  0  0  0  0  0
  -28.9780  -18.0350   19.4750 C   0  0  0  0  0  3  0  0  0  0  0  0
  -30.3630  -17.4330   19.8210 C   0  0  0  0  0  3  0  0  0  0  0  0
  -29.0580  -19.5700   20.0060 C   0  0  0  0  0  3  0  0  0  0  0  0
  -29.8190  -16.0650   20.0030 N   0  0  0  0  0  0  0  0  0  0  0  0
  -25.2270  -13.8970   20.4460 C   0  0  0  0  0  0  0  0  0  0  0  0
  -24.1740  -13.1190   20.8550 C   0  0  0  0  0  0  0  0  0  0  0  0
  -24.6400  -11.7750   20.7970 C   0  0  0  0  0  0  0  0  0  0  0  0
  -26.2610  -13.0160   20.1660 N   0  0  0  0  0  0  0  0  0  0  0  0
  -25.9190  -11.7360   20.4400 N   0  0  0  0  0  0  0  0  0  0  0  0
  -23.9210  -10.5090   20.9880 C   0  0  0  0  0  0  0  0  0  0  0  0
  -24.3650   -9.5470   21.9190 C   0  0  0  0  0  3  0  0  0  0  0  0
  -23.6440   -8.3480   22.1020 C   0  0  0  0  0  3  0  0  0  0  0  0
  -22.4680   -8.1080   21.3530 C   0  0  0  0  0  0  0  0  0  0  0  0
  -22.0410   -9.0650   20.4150 C   0  0  0  0  0  3  0  0  0  0  0  0
  -22.7630  -10.2540   20.2290 C   0  0  0  0  0  3  0  0  0  0  0  0
  -21.7150   -6.9640   21.4500 O   0  0  0  0  0  0  0  0  0  0  0  0
  -21.6560   -6.2390   22.6110 C   0  0  0  0  0  0  0  0  0  0  0  0
  -21.1850   -6.7980   23.8190 C   0  0  0  0  0  3  0  0  0  0  0  0
  -21.0780   -5.9930   24.9710 C   0  0  0  0  0  3  0  0  0  0  0  0
  -21.4310   -4.6330   24.9160 C   0  0  0  0  0  0  0  0  0  0  0  0
  -21.8930   -4.0730   23.7130 C   0  0  0  0  0  3  0  0  0  0  0  0
  -22.0030   -4.8730   22.5620 C   0  0  0  0  0  0  0  0  0  0  0  0
  -22.4310   -4.3220   21.4000 F   0  0  0  0  0  0  0  0  0  0  0  0
  -21.3170   -3.8600   26.0210 F   0  0  0  0  0  0  0  0  0  0  0  0
  -22.7930  -13.6040   21.1710 C   0  0  0  0  0  0  0  0  0  0  0  0
  -22.0830  -12.8980   22.0460 N   0  0  0  0  0  0  0  0  0  0  0  0
  -22.3480  -14.6350   20.6700 O   0  0  0  0  0  0  0  0  0  0  0  0
  -22.4560  -12.0700   22.4710 H   0  0  0  0  0  0  0  0  0  0  0  0
  -21.1570  -13.2060   22.2980 H   0  0  0  0  0  0  0  0  0  0  0  0
  -25.3810  -15.2650   20.2940 N   0  0  0  0  0  0  0  0  0  0  0  0
  -24.6140  -15.9070   20.4600 H   0  0  0  0  0  0  0  0  0  0  0  0
  -26.2190  -15.7150   19.9520 H   0  0  0  0  0  0  0  0  0  0  0  0
  -27.5860  -22.0210   19.7770 C   0  0  0  0  0  2  0  0  0  0  0  0
  -27.8060  -23.3360   20.8140 C   0  0  0  0  0  2  0  0  0  0  0  0
  -28.4330  -24.8950   20.8070 C   0  0  0  0  0  2  0  0  0  0  0  0
  -28.2920  -26.2800   20.1430 O   0  0  0  0  0  0  0  0  0  0  0  0
  -24.6130  -31.8890   23.2100 C   0  0  0  0  0  0  0  0  0  0  0  0
  -27.2120  -27.1970   20.2540 C   0  0  0  0  0  0  0  0  0  0  0  0
  -23.4410  -30.4850   21.5620 C   0  0  0  0  0  3  0  0  0  0  0  0
  -24.8920  -28.9080   20.1740 C   0  0  0  0  0  0  0  0  0  0  0  0
  -25.9810  -30.7720   21.4070 C   0  0  0  0  0  2  0  0  0  0  0  0
  -26.0600  -29.3640   20.7950 C   0  0  0  0  0  0  0  0  0  0  0  0
  -27.2330  -28.5260   20.8210 C   0  0  0  0  0  3  0  0  0  0  0  0
  -26.0210  -26.8100   19.6140 C   0  0  0  0  0  3  0  0  0  0  0  0
  -24.8830  -27.6340   19.5790 C   0  0  0  0  0  3  0  0  0  0  0  0
  -23.6690  -29.8090   20.1910 C   0  0  0  0  0  2  0  0  0  0  0  0
  -24.6980  -31.0740   22.1160 N   0  0  0  0  0  0  0  0  0  0  0  0
  -23.5210  -32.1600   23.7340 O   0  0  0  0  0  0  0  0  0  0  0  0
  -22.7640  -29.4670   22.5200 C   0  0  0  0  0  0  0  0  0  0  0  0
  -21.4340  -29.2970   22.3940 N   0  0  0  0  0  0  0  0  0  0  0  0
  -23.4340  -28.8190   23.3290 O   0  0  0  0  0  0  0  0  0  0  0  0
  -20.9420  -29.8650   21.7210 H   0  0  0  0  0  0  0  0  0  0  0  0
  -18.0470  -28.1310   22.9220 C   0  0  0  0  0  0  0  0  0  0  0  0
  -20.6120  -28.3560   23.1610 C   0  0  0  0  0  3  0  0  0  0  0  0
  -20.6900  -26.9360   22.5540 C   0  0  0  0  0  2  0  0  0  0  0  0
  -19.5670  -26.6450   21.5570 C   0  0  0  0  0  2  0  0  0  0  0  0
  -18.2010  -26.7860   22.2370 C   0  0  0  0  0  2  0  0  0  0  0  0
  -19.1770  -28.8750   23.3490 C   0  0  0  0  0  0  0  0  0  0  0  0
  -18.9790  -30.1340   23.9590 C   0  0  0  0  0  3  0  0  0  0  0  0
  -17.6830  -30.6460   24.1420 C   0  0  0  0  0  3  0  0  0  0  0  0
  -16.5670  -29.8960   23.7320 C   0  0  0  0  0  3  0  0  0  0  0  0
  -16.7500  -28.6400   23.1260 C   0  0  0  0  0  3  0  0  0  0  0  0
  -25.8810  -32.5310   23.8450 C   0  0  0  0  0  3  0  0  0  0  0  0
  -26.3840  -31.7690   25.1330 C   0  0  1  0  0  0  0  0  0  0  0  0
  -25.2790  -31.5310   26.1900 C   0  0  0  0  0  1  0  0  0  0  0  0
  -26.9810  -30.3930   24.7550 C   0  0  0  0  0  1  0  0  0  0  0  0
  -27.5230  -32.5730   25.8140 C   0  0  0  0  0  1  0  0  0  0  0  0
  -25.5590  -33.9290   24.1720 N   0  0  0  0  0  0  0  0  0  0  0  0
  -25.8810  -34.9840   23.4120 C   0  0  0  0  0  0  0  0  0  0  0  0
  -26.5630  -34.8880   22.3870 O   0  0  0  0  0  0  0  0  0  0  0  0
  -24.9620  -34.0760   24.9730 H   0  0  0  0  0  0  0  0  0  0  0  0
  -24.1540  -36.7780   23.0460 C   0  0  0  0  0  1  0  0  0  0  0  0
  -25.3840  -36.3690   23.8690 C   0  0  0  0  0  3  0  0  0  0  0  0
  -27.5010  -37.2770   24.7290 C   0  0  0  0  0  1  0  0  0  0  0  0
  -26.4100  -37.4300   23.7700 N   0  0  0  0  0  0  0  0  0  0  0  0
  -25.9990  -38.3510   23.9090 H   0  0  0  0  0  0  0  0  0  0  0  0
  1 47  1  0
  2  1  1  0
  3  1  1  0
  5 10  1  0
  6  7  1  0
  6  5  1  0
  8  7  1  0
  8 22  1  0
  8  9  1  0
 10  4  1  0
 10  9  1  0
 11  4  2  0
 12 13  1  0
 15 16  1  0
 15 17  1  0
 15 14  1  0
 16 18  1  0
 16 12  1  0
 17  1  1  0
 17 13  1  0
 18  4  1  0
 18 14  1  0
 19 20  2  0
 20 39  1  0
 21 20  1  0
 21 24  1  0
 22 23  1  0
 22 19  1  0
 23 21  2  0
 24 25  1  0
 25 26  2  0
 27 30  1  0
 27 26  1  0
 28 27  2  0
 29 28  1  0
 29 24  2  0
 30 31  1  0
 31 32  1  0
 32 33  2  0
 34 33  1  0
 34 38  1  0
 35 34  2  0
 36 31  2  0
 36 35  1  0
 37 36  1  0
 39 40  1  0
 40 43  1  0
 40 42  1  0
 41 39  2  0
 44 19  1  0
 44 45  1  0
 46 44  1  0
 47 48  1  0
 49 48  1  0
 50 52  1  0
 50 49  1  0
 51 62  2  0
 52 57  1  0
 53 61  1  0
 53 63  1  0
 54 60  1  0
 54 56  1  0
 55 61  1  0
 56 57  2  0
 56 55  1  0
 58 52  2  0
 59 58  1  0
 59 54  2  0
 60 53  1  0
 61 51  1  0
 63 65  2  0
 64 63  1  0
 66 64  1  0
 67 76  2  0
 67 72  1  0
 68 64  1  0
 68 72  1  0
 69 68  1  0
 70 71  1  0
 70 69  1  0
 71 67  1  0
 72 73  2  0
 73 74  1  0
 75 74  2  0
 76 75  1  0
 77 51  1  0
 77 82  1  0
 77 78  1  0
 78 81  1  1
 78 79  1  0
 80 78  1  0
 82 85  1  0
 83 87  1  0
 83 82  1  0
 84 83  2  0
 87 86  1  0
 89 87  1  0
 89 90  1  0
 89 88  1  0
M  ISO  4   4 100  18 100  49 101  50 101
M  END
>  <TORSDO>  (83) 
F 19

>  <SCORE>  (83) 
-14.377

>  <name>  (83) 
82

>  <ligand_id>  (83) 
82

>  <original_smiles>  (83) 
[H]c1c([H])c([H])c2c(c1[H])C([H])([H])C([H])([H])C([H])([H])C2([H])N([H])C(=O)C1([H])N(C(=O)C([H])(N([H])C(=O)C([H])(N([H])C([H])([H])[H])C([H])([H])[H])C(C([H])([H])[H])(C([H])([H])[H])C([H])([H])[H])C([H])([H])c2c([H])c(OC([H])([H])C([H])([H])C([H])([H])[N+]([H])([H])C3([H])C([H])([H])C([H])([H])C4([H])N(C(=O)N5C([H])([H])C([H])([H])C([H])([H])C([H])(n6nc(-c7c([H])c([H])c(Oc8c([H])c([H])c(F)c([H])c8F)c([H])c7[H])c(C(=O)N([H])[H])c6N([H])[H])C5([H])[H])C([H])([H])C43[H])c([H])c([H])c2C1([H])[H]

>  <smiles>  (83) 
[H]c1c([H])c([H])c2c(c1[H])C([H])([H])C([H])([H])C([H])([H])C2([H])N([H])C(=O)C1([H])N(C(=O)C([H])(N([H])C(=O)C([H])(N([H])C([H])([H])[H])C([H])([H])[H])C(C([H])([H])[H])(C([H])([H])[H])C([H])([H])[H])C([H])([H])c2c([H])c(OC([H])([H])C([H])([H])C([H])([H])[N+]([H])([H])C3([H])C([H])([H])C([H])([H])C4([H])N(C(=O)N5C([H])([H])C([H])([H])C([H])([H])C([H])(n6nc(-c7c([H])c([H])c(Oc8c([H])c([H])c(F)c([H])c8F)c([H])c7[H])c(C(=O)N([H])[H])c6N([H])[H])C5([H])[H])C([H])([H])C43[H])c([H])c([H])c2C1([H])[H]

$$$$
83:0:0
     RDKit          3D

 94103  0  0  1  0  0  0  0  0999 V2000
  -29.1640  -21.9760   20.1600 C   0  0  0  0  0  2  0  0  0  0  0  0
  -31.0980  -21.8670   21.7140 C   0  0  0  0  0  2  0  0  0  0  0  0
  -29.3990  -23.4980   19.9760 C   0  0  0  0  0  2  0  0  0  0  0  0
  -31.3390  -23.3760   21.5090 C   0  0  0  0  0  2  0  0  0  0  0  0
  -30.4850  -21.2440   20.4540 C   0  0  0  0  0  3  0  0  0  0  0  0
  -30.1040  -24.1250   21.1330 N   0  0  1  0  0  4  0  0  0  0  0  0
  -29.4840  -24.0640   21.9290 H   0  0  0  0  0  0  0  0  0  0  0  0
  -31.0980  -18.9170   19.6320 C   0  0  0  0  0  3  0  0  0  0  0  0
  -29.5680  -19.0780   21.5100 C   0  0  0  0  0  3  0  0  0  0  0  0
  -31.0330  -17.5100   19.6960 C   0  0  0  0  0  3  0  0  0  0  0  0
  -29.5060  -17.6670   21.5750 C   0  0  0  0  0  3  0  0  0  0  0  0
  -30.3680  -19.7180   20.5370 C   0  0  0  0  0  0  0  0  0  0  0  0
  -30.2410  -16.8610   20.6750 C   0  0  0  0  0  0  0  0  0  0  0  0
  -30.7500  -14.4650   20.1000 C   0  0  0  0  0  0  0  0  0  0  0  0
  -30.3810  -12.3400   18.9120 C   0  0  0  0  0  2  0  0  0  0  0  0
  -29.3720  -12.5870   17.7730 C   0  0  0  0  0  2  0  0  0  0  0  0
  -27.9250  -12.4350   18.2840 C   0  0  0  0  0  2  0  0  0  0  0  0
  -27.6650  -13.2340   19.5890 C   0  0  0  0  0  3  0  0  0  0  0  0
  -28.7810  -12.9740   20.6250 C   0  0  0  0  0  2  0  0  0  0  0  0
  -30.0750  -13.2900   19.9930 N   0  0  0  0  0  0  0  0  0  0  0  0
  -31.8390  -14.6530   19.5490 O   0  0  0  0  0  0  0  0  0  0  0  0
  -30.1020  -15.4380   20.7740 N   0  0  0  0  0  0  0  0  0  0  0  0
  -29.3030  -15.1150   21.2980 H   0  0  0  0  0  0  0  0  0  0  0  0
  -25.3130  -13.8170   20.4570 C   0  0  0  0  0  0  0  0  0  0  0  0
  -24.2670  -13.0320   20.8660 C   0  0  0  0  0  0  0  0  0  0  0  0
  -24.7250  -11.6820   20.7660 C   0  0  0  0  0  0  0  0  0  0  0  0
  -26.3410  -12.9440   20.1380 N   0  0  0  0  0  0  0  0  0  0  0  0
  -25.9930  -11.6540   20.3780 N   0  0  0  0  0  0  0  0  0  0  0  0
  -24.0110  -10.4140   20.9610 C   0  0  0  0  0  0  0  0  0  0  0  0
  -24.4570   -9.4520   21.8930 C   0  0  0  0  0  3  0  0  0  0  0  0
  -23.7440   -8.2470   22.0750 C   0  0  0  0  0  3  0  0  0  0  0  0
  -22.5700   -7.9980   21.3260 C   0  0  0  0  0  0  0  0  0  0  0  0
  -22.1430   -8.9490   20.3820 C   0  0  0  0  0  3  0  0  0  0  0  0
  -22.8580  -10.1440   20.1980 C   0  0  0  0  0  3  0  0  0  0  0  0
  -21.8270   -6.8450   21.4170 O   0  0  0  0  0  0  0  0  0  0  0  0
  -21.7270   -6.1450   22.5930 C   0  0  0  0  0  0  0  0  0  0  0  0
  -21.2180   -6.7350   23.7700 C   0  0  0  0  0  3  0  0  0  0  0  0
  -21.0680   -5.9590   24.9380 C   0  0  0  0  0  3  0  0  0  0  0  0
  -21.4150   -4.5950   24.9270 C   0  0  0  0  0  0  0  0  0  0  0  0
  -21.9160   -4.0040   23.7530 C   0  0  0  0  0  3  0  0  0  0  0  0
  -22.0690   -4.7770   22.5890 C   0  0  0  0  0  0  0  0  0  0  0  0
  -22.5320   -4.1990   21.4550 F   0  0  0  0  0  0  0  0  0  0  0  0
  -21.2640   -3.8470   26.0440 F   0  0  0  0  0  0  0  0  0  0  0  0
  -22.8900  -13.4990   21.2390 C   0  0  0  0  0  0  0  0  0  0  0  0
  -22.2180  -12.7770   22.1280 N   0  0  0  0  0  0  0  0  0  0  0  0
  -22.4200  -14.5380   20.7770 O   0  0  0  0  0  0  0  0  0  0  0  0
  -22.6120  -11.9360   22.5230 H   0  0  0  0  0  0  0  0  0  0  0  0
  -21.2960  -13.0690   22.4190 H   0  0  0  0  0  0  0  0  0  0  0  0
  -25.4690  -15.1920   20.3140 N   0  0  0  0  0  0  0  0  0  0  0  0
  -24.7110  -15.8440   20.4880 H   0  0  0  0  0  0  0  0  0  0  0  0
  -26.3030  -15.6410   19.9580 H   0  0  0  0  0  0  0  0  0  0  0  0
  -30.4090  -25.5760   20.9200 C   0  0  0  0  0  2  0  0  0  0  0  0
  -29.2210  -26.5450   21.1160 C   0  0  0  0  0  2  0  0  0  0  0  0
  -28.4430  -26.6450   19.9250 O   0  0  0  0  0  0  0  0  0  0  0  0
  -24.5860  -31.7560   23.1370 C   0  0  0  0  0  0  0  0  0  0  0  0
  -27.2990  -27.4090   19.9950 C   0  0  0  0  0  0  0  0  0  0  0  0
  -23.3970  -30.3620   21.4720 C   0  0  0  0  0  3  0  0  0  0  0  0
  -24.8740  -28.8650   20.0260 C   0  0  0  0  0  0  0  0  0  0  0  0
  -25.9120  -30.7630   21.2770 C   0  0  0  0  0  2  0  0  0  0  0  0
  -26.0190  -29.4000   20.6280 C   0  0  0  0  0  0  0  0  0  0  0  0
  -27.2330  -28.6790   20.6200 C   0  0  0  0  0  3  0  0  0  0  0  0
  -26.1410  -26.8930   19.3790 C   0  0  0  0  0  3  0  0  0  0  0  0
  -24.9280  -27.6070   19.4010 C   0  0  0  0  0  3  0  0  0  0  0  0
  -23.6150  -29.7030   20.0830 C   0  0  0  0  0  2  0  0  0  0  0  0
  -24.6500  -30.9750   22.0210 N   0  0  0  0  0  0  0  0  0  0  0  0
  -23.5030  -32.0050   23.6840 O   0  0  0  0  0  0  0  0  0  0  0  0
  -22.7610  -29.3190   22.4180 C   0  0  0  0  0  0  0  0  0  0  0  0
  -21.4370  -29.1290   22.2960 N   0  0  0  0  0  0  0  0  0  0  0  0
  -23.4550  -28.6830   23.2150 O   0  0  0  0  0  0  0  0  0  0  0  0
  -20.9380  -29.6950   21.6240 H   0  0  0  0  0  0  0  0  0  0  0  0
  -18.0740  -27.9070   22.7910 C   0  0  0  0  0  0  0  0  0  0  0  0
  -20.6320  -28.1710   23.0530 C   0  0  0  0  0  3  0  0  0  0  0  0
  -20.7380  -26.7530   22.4450 C   0  0  0  0  0  2  0  0  0  0  0  0
  -19.6320  -26.4470   21.4320 C   0  0  0  0  0  2  0  0  0  0  0  0
  -18.2540  -26.5720   22.0880 C   0  0  0  0  0  2  0  0  0  0  0  0
  -19.1910  -28.6640   23.2310 C   0  0  0  0  0  0  0  0  0  0  0  0
  -18.9720  -29.9150   23.8470 C   0  0  0  0  0  3  0  0  0  0  0  0
  -17.6660  -30.4080   24.0310 C   0  0  0  0  0  3  0  0  0  0  0  0
  -16.5620  -29.6460   23.6090 C   0  0  0  0  0  3  0  0  0  0  0  0
  -16.7670  -28.3970   22.9950 C   0  0  0  0  0  3  0  0  0  0  0  0
  -25.8660  -32.3920   23.7640 C   0  0  0  0  0  3  0  0  0  0  0  0
  -26.4090  -31.5940   25.0130 C   0  0  1  0  0  0  0  0  0  0  0  0
  -25.3310  -31.3070   26.0840 C   0  0  0  0  0  1  0  0  0  0  0  0
  -27.0130  -30.2390   24.5740 C   0  0  0  0  0  1  0  0  0  0  0  0
  -27.5520  -32.3900   25.6860 C   0  0  0  0  0  1  0  0  0  0  0  0
  -25.5380  -33.7750   24.1320 N   0  0  0  0  0  0  0  0  0  0  0  0
  -25.8370  -34.8500   23.3910 C   0  0  0  0  0  0  0  0  0  0  0  0
  -26.4910  -34.7820   22.3450 O   0  0  0  0  0  0  0  0  0  0  0  0
  -24.9530  -33.9010   24.9450 H   0  0  0  0  0  0  0  0  0  0  0  0
  -24.0640  -36.6110   23.1050 C   0  0  0  0  0  1  0  0  0  0  0  0
  -25.3280  -36.2170   23.8860 C   0  0  0  0  0  3  0  0  0  0  0  0
  -27.4610  -37.1290   24.6930 C   0  0  0  0  0  1  0  0  0  0  0  0
  -26.3360  -37.2950   23.7770 N   0  0  0  0  0  0  0  0  0  0  0  0
  -25.9130  -38.2010   23.9580 H   0  0  0  0  0  0  0  0  0  0  0  0
  1  5  1  0
  3  1  1  0
  3  6  1  0
  4  2  1  0
  5 12  1  0
  5  2  1  0
  6  4  1  0
  6  7  1  1
  8 10  2  0
  8 12  1  0
  9 11  1  0
 10 13  1  0
 12  9  2  0
 13 22  1  0
 13 11  2  0
 14 22  1  0
 15 20  1  0
 16 17  1  0
 16 15  1  0
 18 17  1  0
 18 27  1  0
 18 19  1  0
 20 14  1  0
 20 19  1  0
 21 14  2  0
 22 23  1  0
 24 25  2  0
 25 44  1  0
 26 25  1  0
 26 29  1  0
 27 28  1  0
 27 24  1  0
 28 26  2  0
 29 30  1  0
 30 31  2  0
 32 35  1  0
 32 31  1  0
 33 32  2  0
 34 33  1  0
 34 29  2  0
 35 36  1  0
 36 37  1  0
 37 38  2  0
 39 38  1  0
 39 43  1  0
 40 39  2  0
 41 36  2  0
 41 40  1  0
 42 41  1  0
 44 45  1  0
 45 48  1  0
 45 47  1  0
 46 44  2  0
 49 24  1  0
 49 50  1  0
 51 49  1  0
 52 53  1  0
 52  6  1  0
 54 56  1  0
 54 53  1  0
 55 66  2  0
 56 61  1  0
 57 65  1  0
 57 67  1  0
 58 64  1  0
 58 60  1  0
 59 65  1  0
 60 59  1  0
 61 60  2  0
 62 63  1  0
 62 56  2  0
 63 58  2  0
 64 57  1  0
 65 55  1  0
 67 69  2  0
 68 67  1  0
 70 68  1  0
 71 80  2  0
 71 76  1  0
 72 68  1  0
 72 76  1  0
 73 72  1  0
 74 75  1  0
 74 73  1  0
 75 71  1  0
 76 77  2  0
 77 78  1  0
 79 78  2  0
 80 79  1  0
 81 55  1  0
 81 86  1  0
 81 82  1  0
 82 85  1  1
 82 83  1  0
 84 82  1  0
 86 89  1  0
 87 91  1  0
 87 86  1  0
 88 87  2  0
 91 90  1  0
 93 91  1  0
 93 94  1  0
 93 92  1  0
M  ISO  4  14 100  22 100  53 101  54 101
M  END
>  <TORSDO>  (84) 
F 19

>  <SCORE>  (84) 
-13.133

>  <name>  (84) 
83

>  <ligand_id>  (84) 
83

>  <original_smiles>  (84) 
[H]c1c([H])c([H])c2c(c1[H])C([H])([H])C([H])([H])C([H])([H])C2([H])N([H])C(=O)C1([H])N(C(=O)C([H])(N([H])C(=O)C([H])(N([H])C([H])([H])[H])C([H])([H])[H])C(C([H])([H])[H])(C([H])([H])[H])C([H])([H])[H])C([H])([H])c2c([H])c(OC([H])([H])C([H])([H])[N+]3([H])C([H])([H])C([H])([H])C([H])(c4c([H])c([H])c(N([H])C(=O)N5C([H])([H])C([H])([H])C([H])([H])C([H])(n6nc(-c7c([H])c([H])c(Oc8c([H])c([H])c(F)c([H])c8F)c([H])c7[H])c(C(=O)N([H])[H])c6N([H])[H])C5([H])[H])c([H])c4[H])C([H])([H])C3([H])[H])c([H])c([H])c2C1([H])[H]

>  <smiles>  (84) 
[H]c1c([H])c([H])c2c(c1[H])C([H])([H])C([H])([H])C([H])([H])C2([H])N([H])C(=O)C1([H])N(C(=O)C([H])(N([H])C(=O)C([H])(N([H])C([H])([H])[H])C([H])([H])[H])C(C([H])([H])[H])(C([H])([H])[H])C([H])([H])[H])C([H])([H])c2c([H])c(OC([H])([H])C([H])([H])[N+]3([H])C([H])([H])C([H])([H])C([H])(c4c([H])c([H])c(N([H])C(=O)N5C([H])([H])C([H])([H])C([H])([H])C([H])(n6nc(-c7c([H])c([H])c(Oc8c([H])c([H])c(F)c([H])c8F)c([H])c7[H])c(C(=O)N([H])[H])c6N([H])[H])C5([H])[H])c([H])c4[H])C([H])([H])C3([H])[H])c([H])c([H])c2C1([H])[H]

$$$$
84:0:0
     RDKit          3D

 91100  0  0  1  0  0  0  0  0999 V2000
  -31.2280  -17.7800   21.3550 C   0  0  0  0  0  3  0  0  0  0  0  0
  -30.1010  -17.4220   20.6920 C   0  0  0  0  0  0  0  0  0  0  0  0
  -31.5890  -19.1810   21.7110 C   0  0  0  0  0  0  0  0  0  0  0  0
  -29.1360  -21.4080   20.6470 C   0  0  0  0  0  3  0  0  0  0  0  0
  -29.0810  -18.5680   20.2680 C   0  0  0  0  0  2  0  0  0  0  0  0
  -29.6910  -21.0320   22.0140 C   0  0  0  0  0  2  0  0  0  0  0  0
  -30.7860  -20.3400   21.1450 C   0  0  0  0  0  3  0  0  0  0  0  0
  -29.7380  -20.0280   20.0700 C   0  0  0  0  0  3  0  0  0  0  0  0
  -29.1680  -22.5830   20.1120 N   0  0  0  0  0  2  0  0  0  0  0  0
  -32.5570  -19.3750   22.4500 O   0  0  0  0  0  0  0  0  0  0  0  0
  -30.5560  -14.8600   20.3930 C   0  0  0  0  0  0  0  0  0  0  0  0
  -30.3830  -12.5740   19.3750 C   0  0  0  0  0  2  0  0  0  0  0  0
  -29.4440  -12.6160   18.1490 C   0  0  0  0  0  2  0  0  0  0  0  0
  -27.9740  -12.4340   18.5800 C   0  0  0  0  0  2  0  0  0  0  0  0
  -27.5900  -13.3310   19.7870 C   0  0  0  0  0  3  0  0  0  0  0  0
  -28.6470  -13.2660   20.9080 C   0  0  0  0  0  2  0  0  0  0  0  0
  -29.9340  -13.6330   20.3060 N   0  0  0  0  0  0  0  0  0  0  0  0
  -31.7640  -14.9400   20.1540 O   0  0  0  0  0  0  0  0  0  0  0  0
  -29.7570  -16.0040   20.5040 N   0  0  0  0  0  0  0  0  0  0  0  0
  -28.7700  -15.8190   20.4130 H   0  0  0  0  0  0  0  0  0  0  0  0
  -25.2020  -13.9210   20.5100 C   0  0  0  0  0  0  0  0  0  0  0  0
  -24.1370  -13.1460   20.8780 C   0  0  0  0  0  0  0  0  0  0  0  0
  -24.6030  -11.7960   20.8540 C   0  0  0  0  0  0  0  0  0  0  0  0
  -26.2470  -13.0420   20.2780 N   0  0  0  0  0  0  0  0  0  0  0  0
  -25.8950  -11.7600   20.5510 N   0  0  0  0  0  0  0  0  0  0  0  0
  -23.8780  -10.5330   21.0430 C   0  0  0  0  0  0  0  0  0  0  0  0
  -24.3090   -9.5650   21.9760 C   0  0  0  0  0  3  0  0  0  0  0  0
  -23.5840   -8.3680   22.1530 C   0  0  0  0  0  3  0  0  0  0  0  0
  -22.4110   -8.1300   21.3980 C   0  0  0  0  0  0  0  0  0  0  0  0
  -21.9980   -9.0870   20.4550 C   0  0  0  0  0  3  0  0  0  0  0  0
  -22.7250  -10.2760   20.2750 C   0  0  0  0  0  3  0  0  0  0  0  0
  -21.6570   -6.9850   21.4850 O   0  0  0  0  0  0  0  0  0  0  0  0
  -21.6090   -6.2400   22.6360 C   0  0  0  0  0  0  0  0  0  0  0  0
  -21.1960   -6.7950   23.8670 C   0  0  0  0  0  3  0  0  0  0  0  0
  -21.0960   -5.9770   25.0090 C   0  0  0  0  0  3  0  0  0  0  0  0
  -21.3990   -4.6050   24.9230 C   0  0  0  0  0  0  0  0  0  0  0  0
  -21.8040   -4.0490   23.6970 C   0  0  0  0  0  3  0  0  0  0  0  0
  -21.9060   -4.8640   22.5560 C   0  0  0  0  0  0  0  0  0  0  0  0
  -22.2770   -4.3200   21.3720 F   0  0  0  0  0  0  0  0  0  0  0  0
  -21.2950   -3.8170   26.0190 F   0  0  0  0  0  0  0  0  0  0  0  0
  -22.7370  -13.6220   21.1380 C   0  0  0  0  0  0  0  0  0  0  0  0
  -22.0050  -12.9260   22.0010 N   0  0  0  0  0  0  0  0  0  0  0  0
  -22.3020  -14.6460   20.6120 O   0  0  0  0  0  0  0  0  0  0  0  0
  -22.3700  -12.0990   22.4480 H   0  0  0  0  0  0  0  0  0  0  0  0
  -21.0660  -13.2270   22.2190 H   0  0  0  0  0  0  0  0  0  0  0  0
  -25.3610  -15.2920   20.3270 N   0  0  0  0  0  0  0  0  0  0  0  0
  -24.5840  -15.9360   20.4210 H   0  0  0  0  0  0  0  0  0  0  0  0
  -26.1930  -15.7330   19.9570 H   0  0  0  0  0  0  0  0  0  0  0  0
  -28.1030  -23.6790   20.1430 C   0  0  0  0  0  2  0  0  0  0  0  0
  -28.4410  -25.1230   20.8250 C   0  0  0  0  0  2  0  0  0  0  0  0
  -28.3890  -26.4880   20.1830 O   0  0  0  0  0  0  0  0  0  0  0  0
  -24.6270  -31.9360   23.2580 C   0  0  0  0  0  0  0  0  0  0  0  0
  -27.2550  -27.3270   20.2420 C   0  0  0  0  0  0  0  0  0  0  0  0
  -23.4320  -30.5250   21.6210 C   0  0  0  0  0  3  0  0  0  0  0  0
  -24.8900  -28.9580   20.2130 C   0  0  0  0  0  0  0  0  0  0  0  0
  -25.9730  -30.8420   21.4410 C   0  0  0  0  0  2  0  0  0  0  0  0
  -26.0600  -29.4530   20.8060 C   0  0  0  0  0  0  0  0  0  0  0  0
  -27.2480  -28.6520   20.7990 C   0  0  0  0  0  3  0  0  0  0  0  0
  -26.0620  -26.8880   19.6380 C   0  0  0  0  0  3  0  0  0  0  0  0
  -24.8960  -27.6840   19.6190 C   0  0  0  0  0  3  0  0  0  0  0  0
  -23.6540  -29.8370   20.2470 C   0  0  0  0  0  2  0  0  0  0  0  0
  -24.6970  -31.1210   22.1630 N   0  0  0  0  0  0  0  0  0  0  0  0
  -23.5410  -32.2110   23.7890 O   0  0  0  0  0  0  0  0  0  0  0  0
  -22.7690  -29.5150   22.5880 C   0  0  0  0  0  0  0  0  0  0  0  0
  -21.4420  -29.3360   22.4610 N   0  0  0  0  0  0  0  0  0  0  0  0
  -23.4470  -28.8930   23.4090 O   0  0  0  0  0  0  0  0  0  0  0  0
  -20.9540  -29.8880   21.7710 H   0  0  0  0  0  0  0  0  0  0  0  0
  -18.0680  -28.1240   22.9590 C   0  0  0  0  0  0  0  0  0  0  0  0
  -20.6250  -28.3970   23.2340 C   0  0  0  0  0  3  0  0  0  0  0  0
  -20.7350  -26.9640   22.6640 C   0  0  0  0  0  2  0  0  0  0  0  0
  -19.6370  -26.6320   21.6490 C   0  0  0  0  0  2  0  0  0  0  0  0
  -18.2520  -26.7730   22.2890 C   0  0  0  0  0  2  0  0  0  0  0  0
  -19.1820  -28.8930   23.3880 C   0  0  0  0  0  0  0  0  0  0  0  0
  -18.9560  -30.1570   23.9770 C   0  0  0  0  0  3  0  0  0  0  0  0
  -17.6490  -30.6520   24.1380 C   0  0  0  0  0  3  0  0  0  0  0  0
  -16.5490  -29.8800   23.7240 C   0  0  0  0  0  3  0  0  0  0  0  0
  -16.7600  -28.6180   23.1410 C   0  0  0  0  0  3  0  0  0  0  0  0
  -25.9050  -32.5760   23.8830 C   0  0  0  0  0  3  0  0  0  0  0  0
  -25.5890  -33.9760   24.2040 N   0  0  0  0  0  0  0  0  0  0  0  0
  -25.9190  -35.0270   23.4430 C   0  0  0  0  0  0  0  0  0  0  0  0
  -26.5890  -34.9210   22.4110 O   0  0  0  0  0  0  0  0  0  0  0  0
  -24.9940  -34.1330   25.0040 H   0  0  0  0  0  0  0  0  0  0  0  0
  -24.1840  -36.8150   23.0850 C   0  0  0  0  0  1  0  0  0  0  0  0
  -25.4300  -36.4170   23.8950 C   0  0  0  0  0  3  0  0  0  0  0  0
  -27.5650  -37.3130   24.7110 C   0  0  0  0  0  1  0  0  0  0  0  0
  -26.4590  -37.4730   23.7720 N   0  0  0  0  0  0  0  0  0  0  0  0
  -26.0510  -38.3930   23.9160 H   0  0  0  0  0  0  0  0  0  0  0  0
  -26.4170  -31.8160   25.1680 C   0  0  1  0  0  0  0  0  0  0  0  0
  -25.3200  -31.5860   26.2330 C   0  0  0  0  0  1  0  0  0  0  0  0
  -27.0020  -30.4350   24.7890 C   0  0  0  0  0  1  0  0  0  0  0  0
  -27.5660  -32.6150   25.8260 C   0  0  0  0  0  1  0  0  0  0  0  0
  1  3  1  0
  2  1  2  0
  3 10  2  0
  4  9  1  0
  4  6  1  0
  5  2  1  0
  7  3  1  0
  7  6  1  0
  8  5  1  0
  8  4  1  0
  8  7  1  0
  9 49  1  0
 11 19  1  0
 12 17  1  0
 13 14  1  0
 13 12  1  0
 15 14  1  0
 15 24  1  0
 15 16  1  0
 17 11  1  0
 17 16  1  0
 18 11  2  0
 19  2  1  0
 20 19  1  0
 21 22  2  0
 22 41  1  0
 23 22  1  0
 23 26  1  0
 24 21  1  0
 24 25  1  0
 25 23  2  0
 26 27  1  0
 27 28  2  0
 29 32  1  0
 29 28  1  0
 30 29  2  0
 31 30  1  0
 31 26  2  0
 32 33  1  0
 33 34  1  0
 34 35  2  0
 36 35  1  0
 36 40  1  0
 37 36  2  0
 38 33  2  0
 38 37  1  0
 39 38  1  0
 41 42  1  0
 42 45  1  0
 42 44  1  0
 43 41  2  0
 46 47  1  0
 46 21  1  0
 48 46  1  0
 49 50  1  0
 51 53  1  0
 51 50  1  0
 52 63  2  0
 53 58  1  0
 54 62  1  0
 54 64  1  0
 55 61  1  0
 55 57  1  0
 56 62  1  0
 57 56  1  0
 58 57  2  0
 59 53  2  0
 60 59  1  0
 60 55  2  0
 61 54  1  0
 62 52  1  0
 64 66  2  0
 65 64  1  0
 67 65  1  0
 68 77  2  0
 68 73  1  0
 69 65  1  0
 69 73  1  0
 70 69  1  0
 71 72  1  0
 71 70  1  0
 72 68  1  0
 73 74  2  0
 74 75  1  0
 76 75  2  0
 77 76  1  0
 78 52  1  0
 78 79  1  0
 78 88  1  0
 79 82  1  0
 80 84  1  0
 80 79  1  0
 81 80  2  0
 84 83  1  0
 86 84  1  0
 86 87  1  0
 86 85  1  0
 88 91  1  1
 88 89  1  0
 90 88  1  0
M  ISO  4  11 100  19 100  50 101  51 101
M  END
>  <TORSDO>  (85) 
F 18

>  <SCORE>  (85) 
-14.826

>  <name>  (85) 
84

>  <ligand_id>  (85) 
84

>  <original_smiles>  (85) 
[H]C1=C(N([H])C(=O)N2C([H])([H])C([H])([H])C([H])([H])C([H])(n3nc(-c4c([H])c([H])c(Oc5c([H])c([H])c(F)c([H])c5F)c([H])c4[H])c(C(=O)N([H])[H])c3N([H])[H])C2([H])[H])C([H])([H])C2([H])C(=NC([H])([H])C([H])([H])Oc3c([H])c([H])c4c(c3[H])C([H])([H])N(C(=O)C([H])(N([H])C(=O)C([H])(N([H])C([H])([H])[H])C([H])([H])[H])C(C([H])([H])[H])(C([H])([H])[H])C([H])([H])[H])C([H])(C(=O)N([H])C3([H])c5c([H])c([H])c([H])c([H])c5C([H])([H])C([H])([H])C3([H])[H])C4([H])[H])C([H])([H])C2([H])C1=O

>  <smiles>  (85) 
[H]C1=C(N([H])C(=O)N2C([H])([H])C([H])([H])C([H])([H])C([H])(n3nc(-c4c([H])c([H])c(Oc5c([H])c([H])c(F)c([H])c5F)c([H])c4[H])c(C(=O)N([H])[H])c3N([H])[H])C2([H])[H])C([H])([H])C2([H])C(=NC([H])([H])C([H])([H])Oc3c([H])c([H])c4c(c3[H])C([H])([H])N(C(=O)C([H])(N([H])C(=O)C([H])(N([H])C([H])([H])[H])C([H])([H])[H])C(C([H])([H])[H])(C([H])([H])[H])C([H])([H])[H])C([H])(C(=O)N([H])C3([H])c5c([H])c([H])c([H])c([H])c5C([H])([H])C([H])([H])C3([H])[H])C4([H])[H])C([H])([H])C2([H])C1=O

$$$$
85:0:0
     RDKit          3D

 90 99  0  0  1  0  0  0  0  0999 V2000
  -28.3480  -22.7390   21.8470 C   0  0  0  0  0  2  0  0  0  0  0  0
  -28.2760  -24.3050   21.8410 C   0  0  0  0  0  2  0  0  0  0  0  0
  -28.8210  -23.5280   19.6300 C   0  0  0  0  0  2  0  0  0  0  0  0
  -29.2130  -22.3070   20.6440 C   0  0  0  0  0  3  0  0  0  0  0  0
  -28.0660  -24.7760   20.3870 C   0  0  0  0  0  3  0  0  0  0  0  0
  -30.5710  -19.9760   20.1810 C   0  0  0  0  0  3  0  0  0  0  0  0
  -28.2430  -19.7560   20.4680 C   0  0  0  0  0  3  0  0  0  0  0  0
  -30.7240  -18.5250   20.1420 C   0  0  0  0  0  3  0  0  0  0  0  0
  -28.3930  -18.3150   20.4330 C   0  0  0  0  0  3  0  0  0  0  0  0
  -29.3270  -20.6840   20.3580 C   0  0  0  0  0  0  0  0  0  0  0  0
  -29.6340  -17.6040   20.2860 C   0  0  0  0  0  0  0  0  0  0  0  0
  -30.4970  -14.9900   20.0290 C   0  0  0  0  0  0  0  0  0  0  0  0
  -30.3460  -12.6780   19.0090 C   0  0  0  0  0  2  0  0  0  0  0  0
  -29.3400  -12.7020   17.8330 C   0  0  0  0  0  2  0  0  0  0  0  0
  -27.8960  -12.4930   18.3340 C   0  0  0  0  0  2  0  0  0  0  0  0
  -27.5670  -13.3720   19.5700 C   0  0  0  0  0  3  0  0  0  0  0  0
  -28.6820  -13.2990   20.6360 C   0  0  0  0  0  2  0  0  0  0  0  0
  -29.9310  -13.7200   19.9850 N   0  0  0  0  0  0  0  0  0  0  0  0
  -31.6670  -15.1240   19.6560 O   0  0  0  0  0  0  0  0  0  0  0  0
  -29.6440  -16.0770   20.3210 N   0  0  0  0  0  0  0  0  0  0  0  0
  -28.7440  -15.7080   20.5870 H   0  0  0  0  0  0  0  0  0  0  0  0
  -25.2260  -13.9490   20.4380 C   0  0  0  0  0  0  0  0  0  0  0  0
  -24.1780  -13.1690   20.8450 C   0  0  0  0  0  0  0  0  0  0  0  0
  -24.6340  -11.8180   20.7570 C   0  0  0  0  0  0  0  0  0  0  0  0
  -26.2520  -13.0710   20.1240 N   0  0  0  0  0  0  0  0  0  0  0  0
  -25.9070  -11.7840   20.3810 N   0  0  0  0  0  0  0  0  0  0  0  0
  -23.9120  -10.5540   20.9530 C   0  0  0  0  0  0  0  0  0  0  0  0
  -24.3480   -9.5890   21.8880 C   0  0  0  0  0  3  0  0  0  0  0  0
  -23.6250   -8.3910   22.0720 C   0  0  0  0  0  3  0  0  0  0  0  0
  -22.4510   -8.1490   21.3210 C   0  0  0  0  0  0  0  0  0  0  0  0
  -22.0330   -9.1020   20.3750 C   0  0  0  0  0  3  0  0  0  0  0  0
  -22.7570  -10.2910   20.1900 C   0  0  0  0  0  3  0  0  0  0  0  0
  -21.6990   -7.0030   21.4140 O   0  0  0  0  0  0  0  0  0  0  0  0
  -21.6060   -6.2970   22.5860 C   0  0  0  0  0  0  0  0  0  0  0  0
  -21.1070   -6.8810   23.7700 C   0  0  0  0  0  3  0  0  0  0  0  0
  -20.9630   -6.0990   24.9340 C   0  0  0  0  0  3  0  0  0  0  0  0
  -21.3090   -4.7350   24.9140 C   0  0  0  0  0  0  0  0  0  0  0  0
  -21.8010   -4.1500   23.7340 C   0  0  0  0  0  3  0  0  0  0  0  0
  -21.9460   -4.9280   22.5730 C   0  0  0  0  0  0  0  0  0  0  0  0
  -22.4010   -4.3550   21.4330 F   0  0  0  0  0  0  0  0  0  0  0  0
  -21.1640   -3.9820   26.0300 F   0  0  0  0  0  0  0  0  0  0  0  0
  -22.7990  -13.6440   21.1970 C   0  0  0  0  0  0  0  0  0  0  0  0
  -22.1120  -12.9310   22.0810 N   0  0  0  0  0  0  0  0  0  0  0  0
  -22.3420  -14.6850   20.7240 O   0  0  0  0  0  0  0  0  0  0  0  0
  -22.4960  -12.0890   22.4850 H   0  0  0  0  0  0  0  0  0  0  0  0
  -21.1870  -13.2310   22.3590 H   0  0  0  0  0  0  0  0  0  0  0  0
  -25.3860  -15.3220   20.2820 N   0  0  0  0  0  0  0  0  0  0  0  0
  -24.6140  -15.9640   20.4290 H   0  0  0  0  0  0  0  0  0  0  0  0
  -26.1800  -15.7580   19.8320 H   0  0  0  0  0  0  0  0  0  0  0  0
  -28.2950  -26.3000   20.2020 O   0  0  0  0  0  0  0  0  0  0  0  0
  -24.6420  -31.9320   23.2310 C   0  0  0  0  0  0  0  0  0  0  0  0
  -27.2150  -27.2490   20.1840 C   0  0  0  0  0  0  0  0  0  0  0  0
  -23.4340  -30.5340   21.5990 C   0  0  0  0  0  3  0  0  0  0  0  0
  -24.8760  -28.9650   20.1670 C   0  0  0  0  0  0  0  0  0  0  0  0
  -25.9840  -30.8120   21.4160 C   0  0  0  0  0  2  0  0  0  0  0  0
  -26.0560  -29.4220   20.7660 C   0  0  0  0  0  0  0  0  0  0  0  0
  -27.2290  -28.5800   20.7570 C   0  0  0  0  0  3  0  0  0  0  0  0
  -26.0110  -26.8900   19.5390 C   0  0  0  0  0  3  0  0  0  0  0  0
  -24.8650  -27.7120   19.5380 C   0  0  0  0  0  3  0  0  0  0  0  0
  -23.6470  -29.8560   20.2200 C   0  0  0  0  0  2  0  0  0  0  0  0
  -24.7070  -31.1140   22.1370 N   0  0  0  0  0  0  0  0  0  0  0  0
  -23.5590  -32.2120   23.7670 O   0  0  0  0  0  0  0  0  0  0  0  0
  -22.7650  -29.5240   22.5660 C   0  0  0  0  0  0  0  0  0  0  0  0
  -21.4400  -29.3390   22.4390 N   0  0  0  0  0  0  0  0  0  0  0  0
  -23.4430  -28.9070   23.3920 O   0  0  0  0  0  0  0  0  0  0  0  0
  -20.9490  -29.8890   21.7460 H   0  0  0  0  0  0  0  0  0  0  0  0
  -18.0680  -28.1170   22.9470 C   0  0  0  0  0  0  0  0  0  0  0  0
  -20.6250  -28.3990   23.2130 C   0  0  0  0  0  3  0  0  0  0  0  0
  -20.7380  -26.9650   22.6450 C   0  0  0  0  0  2  0  0  0  0  0  0
  -19.6380  -26.6300   21.6320 C   0  0  0  0  0  2  0  0  0  0  0  0
  -18.2550  -26.7660   22.2750 C   0  0  0  0  0  2  0  0  0  0  0  0
  -19.1810  -28.8900   23.3720 C   0  0  0  0  0  0  0  0  0  0  0  0
  -18.9510  -30.1530   23.9620 C   0  0  0  0  0  3  0  0  0  0  0  0
  -17.6430  -30.6430   24.1280 C   0  0  0  0  0  3  0  0  0  0  0  0
  -16.5450  -29.8680   23.7170 C   0  0  0  0  0  3  0  0  0  0  0  0
  -16.7580  -28.6070   23.1330 C   0  0  0  0  0  3  0  0  0  0  0  0
  -25.9240  -32.5700   23.8480 C   0  0  0  0  0  3  0  0  0  0  0  0
  -25.6120  -33.9680   24.1810 N   0  0  0  0  0  0  0  0  0  0  0  0
  -25.9250  -35.0230   23.4170 C   0  0  0  0  0  0  0  0  0  0  0  0
  -26.5740  -34.9220   22.3730 O   0  0  0  0  0  0  0  0  0  0  0  0
  -25.0350  -34.1210   24.9950 H   0  0  0  0  0  0  0  0  0  0  0  0
  -24.1790  -36.8090   23.1070 C   0  0  0  0  0  1  0  0  0  0  0  0
  -25.4440  -36.4110   23.8850 C   0  0  0  0  0  3  0  0  0  0  0  0
  -27.5920  -37.3130   24.6600 C   0  0  0  0  0  1  0  0  0  0  0  0
  -26.4670  -37.4690   23.7410 N   0  0  0  0  0  0  0  0  0  0  0  0
  -26.0600  -38.3880   23.8930 H   0  0  0  0  0  0  0  0  0  0  0  0
  -26.4430  -31.8030   25.1280 C   0  0  1  0  0  0  0  0  0  0  0  0
  -25.3510  -31.5650   26.1970 C   0  0  0  0  0  1  0  0  0  0  0  0
  -27.0300  -30.4250   24.7420 C   0  0  0  0  0  1  0  0  0  0  0  0
  -27.5910  -32.6020   25.7870 C   0  0  0  0  0  1  0  0  0  0  0  0
  2  1  1  0
  3  5  1  0
  3  4  1  0
  4 10  1  0
  4  1  1  0
  5 50  1  0
  5  2  1  0
  6 10  1  0
  8  6  2  0
  8 11  1  0
  9  7  1  0
 10  7  2  0
 11 20  1  0
 11  9  2  0
 12 20  1  0
 13 18  1  0
 14 15  1  0
 14 13  1  0
 16 15  1  0
 16 25  1  0
 16 17  1  0
 18 12  1  0
 18 17  1  0
 19 12  2  0
 20 21  1  0
 22 23  2  0
 23 42  1  0
 24 23  1  0
 24 27  1  0
 25 26  1  0
 25 22  1  0
 26 24  2  0
 27 28  1  0
 28 29  2  0
 30 33  1  0
 30 29  1  0
 31 30  2  0
 32 31  1  0
 32 27  2  0
 33 34  1  0
 34 35  1  0
 35 36  2  0
 37 36  1  0
 37 41  1  0
 38 37  2  0
 39 34  2  0
 39 38  1  0
 40 39  1  0
 42 43  1  0
 43 46  1  0
 43 45  1  0
 44 42  2  0
 47 48  1  0
 47 22  1  0
 49 47  1  0
 51 62  2  0
 52 50  1  0
 52 57  1  0
 53 61  1  0
 53 63  1  0
 54 60  1  0
 54 56  1  0
 55 61  1  0
 56 55  1  0
 57 56  2  0
 58 52  2  0
 59 58  1  0
 59 54  2  0
 60 53  1  0
 61 51  1  0
 63 65  2  0
 64 63  1  0
 66 64  1  0
 67 76  2  0
 67 72  1  0
 68 64  1  0
 68 72  1  0
 69 68  1  0
 70 71  1  0
 70 69  1  0
 71 67  1  0
 72 73  2  0
 73 74  1  0
 75 74  2  0
 76 75  1  0
 77 51  1  0
 77 78  1  0
 77 87  1  0
 78 81  1  0
 79 83  1  0
 79 78  1  0
 80 79  2  0
 83 82  1  0
 85 83  1  0
 85 86  1  0
 85 84  1  0
 87 90  1  1
 87 88  1  0
 89 87  1  0
M  ISO  4   5 101  12 100  20 100  50 101
M  END
>  <TORSDO>  (86) 
F 17

>  <SCORE>  (86) 
-15.148

>  <name>  (86) 
85

>  <ligand_id>  (86) 
85

>  <original_smiles>  (86) 
[H]c1c([H])c([H])c2c(c1[H])C([H])([H])C([H])([H])C([H])([H])C2([H])N([H])C(=O)C1([H])N(C(=O)C([H])(N([H])C(=O)C([H])(N([H])C([H])([H])[H])C([H])([H])[H])C(C([H])([H])[H])(C([H])([H])[H])C([H])([H])[H])C([H])([H])c2c([H])c(OC3([H])C([H])([H])C([H])([H])C([H])(c4c([H])c([H])c(N([H])C(=O)N5C([H])([H])C([H])([H])C([H])([H])C([H])(n6nc(-c7c([H])c([H])c(Oc8c([H])c([H])c(F)c([H])c8F)c([H])c7[H])c(C(=O)N([H])[H])c6N([H])[H])C5([H])[H])c([H])c4[H])C3([H])[H])c([H])c([H])c2C1([H])[H]

>  <smiles>  (86) 
[H]c1c([H])c([H])c2c(c1[H])C([H])([H])C([H])([H])C([H])([H])C2([H])N([H])C(=O)C1([H])N(C(=O)C([H])(N([H])C(=O)C([H])(N([H])C([H])([H])[H])C([H])([H])[H])C(C([H])([H])[H])(C([H])([H])[H])C([H])([H])[H])C([H])([H])c2c([H])c(OC3([H])C([H])([H])C([H])([H])C([H])(c4c([H])c([H])c(N([H])C(=O)N5C([H])([H])C([H])([H])C([H])([H])C([H])(n6nc(-c7c([H])c([H])c(Oc8c([H])c([H])c(F)c([H])c8F)c([H])c7[H])c(C(=O)N([H])[H])c6N([H])[H])C5([H])[H])c([H])c4[H])C3([H])[H])c([H])c([H])c2C1([H])[H]

$$$$
86:0:0
     RDKit          3D

 85 94  0  0  1  0  0  0  0  0999 V2000
  -30.2270  -15.8750   20.2840 C   0  0  0  0  0  0  0  0  0  0  0  0
  -30.3530  -13.2930   19.4580 C   0  0  0  0  0  2  0  0  0  0  0  0
  -29.4930  -12.7710   18.2690 C   0  0  0  0  0  2  0  0  0  0  0  0
  -28.0850  -12.3790   18.7320 C   0  0  0  0  0  2  0  0  0  0  0  0
  -27.5360  -13.4060   19.7450 C   0  0  0  0  0  3  0  0  0  0  0  0
  -28.5480  -13.8200   20.8440 C   0  0  0  0  0  2  0  0  0  0  0  0
  -29.6840  -14.4980   20.1610 N   0  0  0  0  0  0  0  0  0  0  0  0
  -31.4710  -15.7200   20.2540 O   0  0  0  0  0  0  0  0  0  0  0  0
  -29.1350  -20.3610   20.3390 C   0  0  0  0  0  3  0  0  0  0  0  0
  -28.6830  -21.8010   20.0780 C   0  0  0  0  0  3  0  0  0  0  0  0
  -29.6530  -18.8560   21.0780 C   0  0  0  0  0  2  0  0  0  0  0  0
  -28.1900  -21.1100   18.7340 C   0  0  0  0  0  2  0  0  0  0  0  0
  -28.9180  -18.1450   19.1000 C   0  0  0  0  0  2  0  0  0  0  0  0
  -29.1380  -19.8210   18.9780 C   0  0  0  0  0  3  0  0  0  0  0  0
  -29.5600  -17.3450   20.2860 N   0  0  0  0  0  0  0  0  0  0  0  0
  -25.1730  -13.9220   20.4920 C   0  0  0  0  0  0  0  0  0  0  0  0
  -24.1120  -13.1400   20.8470 C   0  0  0  0  0  0  0  0  0  0  0  0
  -24.5890  -11.7930   20.8320 C   0  0  0  0  0  0  0  0  0  0  0  0
  -26.2240  -13.0560   20.2670 N   0  0  0  0  0  0  0  0  0  0  0  0
  -25.8880  -11.7670   20.5380 N   0  0  0  0  0  0  0  0  0  0  0  0
  -23.8640  -10.5280   21.0180 C   0  0  0  0  0  0  0  0  0  0  0  0
  -24.2800   -9.5670   21.9660 C   0  0  0  0  0  3  0  0  0  0  0  0
  -23.5490   -8.3720   22.1440 C   0  0  0  0  0  3  0  0  0  0  0  0
  -22.3870   -8.1300   21.3750 C   0  0  0  0  0  0  0  0  0  0  0  0
  -21.9880   -9.0790   20.4170 C   0  0  0  0  0  3  0  0  0  0  0  0
  -22.7200  -10.2650   20.2370 C   0  0  0  0  0  3  0  0  0  0  0  0
  -21.6290   -6.9860   21.4600 O   0  0  0  0  0  0  0  0  0  0  0  0
  -21.5600   -6.2530   22.6180 C   0  0  0  0  0  0  0  0  0  0  0  0
  -21.1100   -6.8180   23.8320 C   0  0  0  0  0  3  0  0  0  0  0  0
  -20.9890   -6.0110   24.9810 C   0  0  0  0  0  3  0  0  0  0  0  0
  -21.3090   -4.6410   24.9180 C   0  0  0  0  0  0  0  0  0  0  0  0
  -21.7520   -4.0770   23.7090 C   0  0  0  0  0  3  0  0  0  0  0  0
  -21.8750   -4.8800   22.5620 C   0  0  0  0  0  0  0  0  0  0  0  0
  -22.2810   -4.3270   21.3950 F   0  0  0  0  0  0  0  0  0  0  0  0
  -21.1870   -3.8640   26.0190 F   0  0  0  0  0  0  0  0  0  0  0  0
  -22.7080  -13.6130   21.0850 C   0  0  0  0  0  0  0  0  0  0  0  0
  -21.9710  -12.9290   21.9510 N   0  0  0  0  0  0  0  0  0  0  0  0
  -22.2760  -14.6270   20.5380 O   0  0  0  0  0  0  0  0  0  0  0  0
  -22.3370  -12.1090   22.4130 H   0  0  0  0  0  0  0  0  0  0  0  0
  -21.0280  -13.2300   22.1550 H   0  0  0  0  0  0  0  0  0  0  0  0
  -25.3300  -15.2940   20.3060 N   0  0  0  0  0  0  0  0  0  0  0  0
  -24.5610  -15.9470   20.4010 H   0  0  0  0  0  0  0  0  0  0  0  0
  -26.1910  -15.7350   20.0110 H   0  0  0  0  0  0  0  0  0  0  0  0
  -28.0940  -23.5670   20.6050 C   0  0  0  0  0  2  0  0  0  0  0  0
  -28.2120  -25.3560   20.2450 O   0  0  0  0  0  0  0  0  0  0  0  0
  -24.6860  -31.8310   23.1670 C   0  0  0  0  0  0  0  0  0  0  0  0
  -27.2400  -26.6190   20.2690 C   0  0  0  0  0  0  0  0  0  0  0  0
  -23.5150  -30.4050   21.5480 C   0  0  0  0  0  3  0  0  0  0  0  0
  -24.9740  -28.7220   20.1750 C   0  0  0  0  0  0  0  0  0  0  0  0
  -26.0990  -30.5240   21.4440 C   0  0  0  0  0  2  0  0  0  0  0  0
  -26.1730  -29.0680   20.8100 C   0  0  0  0  0  0  0  0  0  0  0  0
  -27.2890  -28.0530   20.8130 C   0  0  0  0  0  3  0  0  0  0  0  0
  -26.0000  -26.5140   19.5800 C   0  0  0  0  0  3  0  0  0  0  0  0
  -24.9340  -27.4710   19.5340 C   0  0  0  0  0  3  0  0  0  0  0  0
  -23.7700  -29.6830   20.1920 C   0  0  0  0  0  2  0  0  0  0  0  0
  -24.7930  -30.9570   22.1050 N   0  0  0  0  0  0  0  0  0  0  0  0
  -23.5880  -32.1360   23.6650 O   0  0  0  0  0  0  0  0  0  0  0  0
  -22.7890  -29.4460   22.5320 C   0  0  0  0  0  0  0  0  0  0  0  0
  -21.4560  -29.2910   22.4070 N   0  0  0  0  0  0  0  0  0  0  0  0
  -23.4400  -28.8350   23.3820 O   0  0  0  0  0  0  0  0  0  0  0  0
  -20.9780  -29.8310   21.6990 H   0  0  0  0  0  0  0  0  0  0  0  0
  -18.0690  -28.0790   22.9450 C   0  0  0  0  0  0  0  0  0  0  0  0
  -20.6300  -28.3630   23.1910 C   0  0  0  0  0  3  0  0  0  0  0  0
  -20.7320  -26.9240   22.6340 C   0  0  0  0  0  2  0  0  0  0  0  0
  -19.6290  -26.5880   21.6250 C   0  0  0  0  0  2  0  0  0  0  0  0
  -18.2500  -26.7280   22.2730 C   0  0  0  0  0  2  0  0  0  0  0  0
  -19.1850  -28.8540   23.3600 C   0  0  0  0  0  0  0  0  0  0  0  0
  -18.9570  -30.1130   23.9560 C   0  0  0  0  0  3  0  0  0  0  0  0
  -17.6490  -30.6020   24.1330 C   0  0  0  0  0  3  0  0  0  0  0  0
  -16.5480  -29.8270   23.7260 C   0  0  0  0  0  3  0  0  0  0  0  0
  -16.7580  -28.5670   23.1410 C   0  0  0  0  0  3  0  0  0  0  0  0
  -25.9380  -32.5040   23.8080 C   0  0  0  0  0  3  0  0  0  0  0  0
  -25.5930  -33.9010   24.1470 N   0  0  0  0  0  0  0  0  0  0  0  0
  -25.9160  -34.9770   23.4160 C   0  0  0  0  0  0  0  0  0  0  0  0
  -26.5900  -34.9000   22.3870 O   0  0  0  0  0  0  0  0  0  0  0  0
  -24.9920  -34.0310   24.9470 H   0  0  0  0  0  0  0  0  0  0  0  0
  -24.1710  -36.7700   23.1010 C   0  0  0  0  0  1  0  0  0  0  0  0
  -25.4190  -36.3580   23.9000 C   0  0  0  0  0  3  0  0  0  0  0  0
  -27.5450  -37.2570   24.7450 C   0  0  0  0  0  1  0  0  0  0  0  0
  -26.4430  -37.4240   23.8010 N   0  0  0  0  0  0  0  0  0  0  0  0
  -26.0270  -38.3380   23.9560 H   0  0  0  0  0  0  0  0  0  0  0  0
  -26.4430  -31.7550   25.1040 C   0  0  1  0  0  0  0  0  0  0  0  0
  -25.3410  -31.5280   26.1670 C   0  0  0  0  0  1  0  0  0  0  0  0
  -27.0410  -30.3750   24.7540 C   0  0  0  0  0  1  0  0  0  0  0  0
  -27.5820  -32.5660   25.7680 C   0  0  0  0  0  1  0  0  0  0  0  0
  1 15  1  0
  2  7  1  0
  3  4  1  0
  3  2  1  0
  5  4  1  0
  5 19  1  0
  5  6  1  0
  7  1  1  0
  7  6  1  0
  8  1  2  0
  9 11  1  0
 10  9  1  0
 10 44  1  0
 12 10  1  0
 13 15  1  0
 14 12  1  0
 14 13  1  0
 14  9  1  0
 15 11  1  0
 16 17  2  0
 17 36  1  0
 18 17  1  0
 18 21  1  0
 19 16  1  0
 19 20  1  0
 20 18  2  0
 21 22  1  0
 22 23  2  0
 24 27  1  0
 24 23  1  0
 25 24  2  0
 26 25  1  0
 26 21  2  0
 27 28  1  0
 28 29  1  0
 29 30  2  0
 31 30  1  0
 31 35  1  0
 32 31  2  0
 33 28  2  0
 33 32  1  0
 34 33  1  0
 36 37  1  0
 37 40  1  0
 37 39  1  0
 38 36  2  0
 41 42  1  0
 41 16  1  0
 43 41  1  0
 45 47  1  0
 45 44  1  0
 46 57  2  0
 47 52  1  0
 48 56  1  0
 48 58  1  0
 49 55  1  0
 49 51  1  0
 50 56  1  0
 51 52  2  0
 51 50  1  0
 53 47  2  0
 54 53  1  0
 54 49  2  0
 55 48  1  0
 56 46  1  0
 58 60  2  0
 59 58  1  0
 61 59  1  0
 62 71  2  0
 62 67  1  0
 63 59  1  0
 63 67  1  0
 64 63  1  0
 65 66  1  0
 65 64  1  0
 66 62  1  0
 67 68  2  0
 68 69  1  0
 70 69  2  0
 71 70  1  0
 72 46  1  0
 72 73  1  0
 72 82  1  0
 73 76  1  0
 74 78  1  0
 74 73  1  0
 75 74  2  0
 78 77  1  0
 80 78  1  0
 80 81  1  0
 80 79  1  0
 82 85  1  1
 82 83  1  0
 84 82  1  0
M  ISO  4   1 100  15 100  44 101  45 101
M  END
>  <TORSDO>  (87) 
F 16

>  <SCORE>  (87) 
-16.272

>  <name>  (87) 
86

>  <ligand_id>  (87) 
86

>  <original_smiles>  (87) 
[H]c1c([H])c([H])c2c(c1[H])C([H])([H])C([H])([H])C([H])([H])C2([H])N([H])C(=O)C1([H])N(C(=O)C([H])(N([H])C(=O)C([H])(N([H])C([H])([H])[H])C([H])([H])[H])C(C([H])([H])[H])(C([H])([H])[H])C([H])([H])[H])C([H])([H])c2c([H])c(OC([H])([H])C3=C4C([H])([H])N(C(=O)N5C([H])([H])C([H])([H])C([H])([H])C([H])(n6nc(-c7c([H])c([H])c(Oc8c([H])c([H])c(F)c([H])c8F)c([H])c7[H])c(C(=O)N([H])[H])c6N([H])[H])C5([H])[H])C([H])([H])C4([H])C3([H])[H])c([H])c([H])c2C1([H])[H]

>  <smiles>  (87) 
[H]c1c([H])c([H])c2c(c1[H])C([H])([H])C([H])([H])C([H])([H])C2([H])N([H])C(=O)C1([H])N(C(=O)C([H])(N([H])C(=O)C([H])(N([H])C([H])([H])[H])C([H])([H])[H])C(C([H])([H])[H])(C([H])([H])[H])C([H])([H])[H])C([H])([H])c2c([H])c(OC([H])([H])C3=C4C([H])([H])N(C(=O)N5C([H])([H])C([H])([H])C([H])([H])C([H])(n6nc(-c7c([H])c([H])c(Oc8c([H])c([H])c(F)c([H])c8F)c([H])c7[H])c(C(=O)N([H])[H])c6N([H])[H])C5([H])[H])C([H])([H])C4([H])C3([H])[H])c([H])c([H])c2C1([H])[H]

$$$$
87:0:0
     RDKit          3D

 90 98  0  0  1  0  0  0  0  0999 V2000
  -28.7990  -21.7110   20.4940 C   0  0  0  0  0  0  0  0  0  0  0  0
  -28.1250  -20.4840   21.0860 C   0  0  0  0  0  2  0  0  0  0  0  0
  -28.1030  -19.3410   20.0630 C   0  0  0  0  0  2  0  0  0  0  0  0
  -30.3860  -20.3290   19.3490 C   0  0  0  0  0  2  0  0  0  0  0  0
  -29.5140  -19.0410   19.5220 C   0  0  0  0  0  3  0  0  0  0  0  0
  -29.7620  -21.6220   19.6610 N   0  0  0  0  0  0  0  0  0  0  0  0
  -28.2710  -23.0510   21.0160 C   0  0  0  0  0  2  0  0  0  0  0  0
  -28.5790  -24.3090   20.1650 C   0  0  0  0  0  2  0  0  0  0  0  0
  -28.3600  -25.6030   20.9750 C   0  0  0  0  0  2  0  0  0  0  0  0
  -28.4240  -26.7870   20.1720 O   0  0  0  0  0  0  0  0  0  0  0  0
  -24.5740  -31.9340   23.2210 C   0  0  0  0  0  0  0  0  0  0  0  0
  -27.2580  -27.5160   20.1650 C   0  0  0  0  0  0  0  0  0  0  0  0
  -23.3810  -30.5160   21.5820 C   0  0  0  0  0  3  0  0  0  0  0  0
  -24.8490  -28.9830   20.1670 C   0  0  0  0  0  0  0  0  0  0  0  0
  -25.9010  -30.9010   21.3820 C   0  0  0  0  0  2  0  0  0  0  0  0
  -26.0010  -29.5300   20.7470 C   0  0  0  0  0  0  0  0  0  0  0  0
  -27.2130  -28.8040   20.7410 C   0  0  0  0  0  3  0  0  0  0  0  0
  -26.0920  -26.9750   19.5860 C   0  0  0  0  0  3  0  0  0  0  0  0
  -24.8880  -27.7060   19.5800 C   0  0  0  0  0  3  0  0  0  0  0  0
  -23.5950  -29.8280   20.2080 C   0  0  0  0  0  2  0  0  0  0  0  0
  -24.6370  -31.1320   22.1210 N   0  0  0  0  0  0  0  0  0  0  0  0
  -23.4920  -32.1980   23.7590 O   0  0  0  0  0  0  0  0  0  0  0  0
  -22.7380  -29.4930   22.5480 C   0  0  0  0  0  0  0  0  0  0  0  0
  -21.4160  -29.3000   22.4170 N   0  0  0  0  0  0  0  0  0  0  0  0
  -23.4240  -28.8770   23.3670 O   0  0  0  0  0  0  0  0  0  0  0  0
  -20.9230  -29.8470   21.7250 H   0  0  0  0  0  0  0  0  0  0  0  0
  -18.0440  -28.1110   22.9380 C   0  0  0  0  0  0  0  0  0  0  0  0
  -20.6050  -28.3600   23.1890 C   0  0  0  0  0  3  0  0  0  0  0  0
  -20.6990  -26.9320   22.6030 C   0  0  0  0  0  2  0  0  0  0  0  0
  -19.5870  -26.6190   21.5960 C   0  0  0  0  0  2  0  0  0  0  0  0
  -18.2110  -26.7640   22.2540 C   0  0  0  0  0  2  0  0  0  0  0  0
  -19.1680  -28.8670   23.3630 C   0  0  0  0  0  0  0  0  0  0  0  0
  -18.9590  -30.1270   23.9620 C   0  0  0  0  0  3  0  0  0  0  0  0
  -17.6570  -30.6330   24.1410 C   0  0  0  0  0  3  0  0  0  0  0  0
  -16.5480  -29.8730   23.7320 C   0  0  0  0  0  3  0  0  0  0  0  0
  -16.7410  -28.6140   23.1380 C   0  0  0  0  0  3  0  0  0  0  0  0
  -25.8550  -32.5770   23.8400 C   0  0  0  0  0  3  0  0  0  0  0  0
  -25.5430  -33.9800   24.1410 N   0  0  0  0  0  0  0  0  0  0  0  0
  -25.8880  -35.0190   23.3700 C   0  0  0  0  0  0  0  0  0  0  0  0
  -26.5750  -34.8990   22.3520 O   0  0  0  0  0  0  0  0  0  0  0  0
  -24.9360  -34.1470   24.9310 H   0  0  0  0  0  0  0  0  0  0  0  0
  -24.1800  -36.8150   22.9410 C   0  0  0  0  0  1  0  0  0  0  0  0
  -25.3930  -36.4150   23.7960 C   0  0  0  0  0  3  0  0  0  0  0  0
  -27.4970  -37.3060   24.6930 C   0  0  0  0  0  1  0  0  0  0  0  0
  -26.4330  -37.4610   23.7050 N   0  0  0  0  0  0  0  0  0  0  0  0
  -26.0260  -38.3860   23.8200 H   0  0  0  0  0  0  0  0  0  0  0  0
  -26.3660  -31.8280   25.1320 C   0  0  1  0  0  0  0  0  0  0  0  0
  -25.2650  -31.5970   26.1940 C   0  0  0  0  0  1  0  0  0  0  0  0
  -26.9630  -30.4510   24.7610 C   0  0  0  0  0  1  0  0  0  0  0  0
  -27.5010  -32.6420   25.7960 C   0  0  0  0  0  1  0  0  0  0  0  0
  -30.2650  -17.9500   20.3370 C   0  0  0  0  0  2  0  0  0  0  0  0
  -29.6490  -16.5330   20.2680 C   0  0  0  0  0  2  0  0  0  0  0  0
  -31.0840  -14.5480   20.2460 C   0  0  0  0  0  0  0  0  0  0  0  0
  -30.7010  -12.4140   19.0710 C   0  0  0  0  0  2  0  0  0  0  0  0
  -29.7370  -12.6380   17.8900 C   0  0  0  0  0  2  0  0  0  0  0  0
  -28.2710  -12.5230   18.3540 C   0  0  0  0  0  2  0  0  0  0  0  0
  -27.9760  -13.3670   19.6210 C   0  0  0  0  0  3  0  0  0  0  0  0
  -29.0500  -13.1260   20.7040 C   0  0  0  0  0  2  0  0  0  0  0  0
  -30.3670  -13.4020   20.1060 N   0  0  0  0  0  0  0  0  0  0  0  0
  -32.1870  -14.7300   19.7280 O   0  0  0  0  0  0  0  0  0  0  0  0
  -30.5010  -15.5390   20.9360 N   0  0  0  0  0  0  0  0  0  0  0  0
  -31.1810  -16.0080   21.5170 H   0  0  0  0  0  0  0  0  0  0  0  0
  -25.6090  -14.0280   20.3840 C   0  0  0  0  0  0  0  0  0  0  0  0
  -24.5300  -13.2790   20.7690 C   0  0  0  0  0  0  0  0  0  0  0  0
  -24.9580  -11.9170   20.7160 C   0  0  0  0  0  0  0  0  0  0  0  0
  -26.6280  -13.1230   20.1270 N   0  0  0  0  0  0  0  0  0  0  0  0
  -26.2400  -11.8480   20.3830 N   0  0  0  0  0  0  0  0  0  0  0  0
  -24.2080  -10.6710   20.9110 C   0  0  0  0  0  0  0  0  0  0  0  0
  -24.6040   -9.7120   21.8690 C   0  0  0  0  0  3  0  0  0  0  0  0
  -23.8550   -8.5280   22.0490 C   0  0  0  0  0  3  0  0  0  0  0  0
  -22.6980   -8.2950   21.2700 C   0  0  0  0  0  0  0  0  0  0  0  0
  -22.3220   -9.2420   20.3010 C   0  0  0  0  0  3  0  0  0  0  0  0
  -23.0700  -10.4170   20.1190 C   0  0  0  0  0  3  0  0  0  0  0  0
  -21.9240   -7.1630   21.3580 O   0  0  0  0  0  0  0  0  0  0  0  0
  -21.8000   -6.4660   22.5330 C   0  0  0  0  0  0  0  0  0  0  0  0
  -21.2620   -7.0560   23.6980 C   0  0  0  0  0  3  0  0  0  0  0  0
  -21.0890   -6.2840   24.8620 C   0  0  0  0  0  3  0  0  0  0  0  0
  -21.4430   -4.9210   24.8650 C   0  0  0  0  0  0  0  0  0  0  0  0
  -21.9750   -4.3300   23.7050 C   0  0  0  0  0  3  0  0  0  0  0  0
  -22.1500   -5.1010   22.5410 C   0  0  0  0  0  0  0  0  0  0  0  0
  -22.6430   -4.5210   21.4200 F   0  0  0  0  0  0  0  0  0  0  0  0
  -21.2700   -4.1770   25.9810 F   0  0  0  0  0  0  0  0  0  0  0  0
  -23.1500  -13.7860   21.0720 C   0  0  0  0  0  0  0  0  0  0  0  0
  -22.4210  -13.0950   21.9430 N   0  0  0  0  0  0  0  0  0  0  0  0
  -22.7270  -14.8280   20.5740 O   0  0  0  0  0  0  0  0  0  0  0  0
  -22.7750  -12.2520   22.3690 H   0  0  0  0  0  0  0  0  0  0  0  0
  -21.4960  -13.4160   22.1880 H   0  0  0  0  0  0  0  0  0  0  0  0
  -25.8040  -15.3950   20.2110 N   0  0  0  0  0  0  0  0  0  0  0  0
  -25.0590  -16.0710   20.3370 H   0  0  0  0  0  0  0  0  0  0  0  0
  -26.6600  -15.8070   19.8630 H   0  0  0  0  0  0  0  0  0  0  0  0
  1  7  1  0
  1  2  1  0
  3  2  1  0
  4  5  1  0
  4  6  1  0
  5  3  1  0
  5 51  1  0
  6  1  2  0
  8  9  1  0
  8  7  1  0
 10  9  1  0
 11 22  2  0
 12 10  1  0
 12 17  1  0
 13 21  1  0
 13 23  1  0
 14 20  1  0
 14 16  1  0
 15 21  1  0
 16 15  1  0
 17 16  2  0
 18 12  2  0
 19 18  1  0
 19 14  2  0
 20 13  1  0
 21 11  1  0
 23 25  2  0
 24 23  1  0
 26 24  1  0
 27 36  2  0
 27 32  1  0
 28 24  1  0
 28 32  1  0
 29 28  1  0
 30 31  1  0
 30 29  1  0
 31 27  1  0
 32 33  2  0
 33 34  1  0
 35 34  2  0
 36 35  1  0
 37 11  1  0
 37 38  1  0
 37 47  1  0
 38 41  1  0
 39 43  1  0
 39 38  1  0
 40 39  2  0
 43 42  1  0
 45 43  1  0
 45 46  1  0
 45 44  1  0
 47 50  1  1
 47 48  1  0
 49 47  1  0
 52 51  1  0
 52 61  1  0
 53 61  1  0
 54 59  1  0
 55 56  1  0
 55 54  1  0
 57 56  1  0
 57 66  1  0
 57 58  1  0
 59 53  1  0
 59 58  1  0
 60 53  2  0
 61 62  1  0
 63 64  2  0
 64 83  1  0
 65 64  1  0
 65 68  1  0
 66 67  1  0
 66 63  1  0
 67 65  2  0
 68 69  1  0
 69 70  2  0
 71 74  1  0
 71 70  1  0
 72 71  2  0
 73 72  1  0
 73 68  2  0
 74 75  1  0
 75 80  2  0
 75 76  1  0
 76 77  2  0
 77 78  1  0
 78 82  1  0
 79 78  2  0
 80 79  1  0
 81 80  1  0
 83 84  1  0
 84 87  1  0
 84 86  1  0
 85 83  2  0
 88 89  1  0
 88 63  1  0
 90 88  1  0
M  ISO  4   9 101  10 101  53 100  61 100
M  END
>  <TORSDO>  (88) 
F 21

>  <SCORE>  (88) 
-13.040

>  <name>  (88) 
87

>  <ligand_id>  (88) 
87

>  <original_smiles>  (88) 
[H]c1c([H])c([H])c2c(c1[H])C([H])([H])C([H])([H])C([H])([H])C2([H])N([H])C(=O)C1([H])N(C(=O)C([H])(N([H])C(=O)C([H])(N([H])C([H])([H])[H])C([H])([H])[H])C(C([H])([H])[H])(C([H])([H])[H])C([H])([H])[H])C([H])([H])c2c([H])c(OC([H])([H])C([H])([H])C([H])([H])C3=NC([H])([H])C([H])(C([H])([H])C([H])([H])N([H])C(=O)N4C([H])([H])C([H])([H])C([H])([H])C([H])(n5nc(-c6c([H])c([H])c(Oc7c([H])c([H])c(F)c([H])c7F)c([H])c6[H])c(C(=O)N([H])[H])c5N([H])[H])C4([H])[H])C([H])([H])C3([H])[H])c([H])c([H])c2C1([H])[H]

>  <smiles>  (88) 
[H]c1c([H])c([H])c2c(c1[H])C([H])([H])C([H])([H])C([H])([H])C2([H])N([H])C(=O)C1([H])N(C(=O)C([H])(N([H])C(=O)C([H])(N([H])C([H])([H])[H])C([H])([H])[H])C(C([H])([H])[H])(C([H])([H])[H])C([H])([H])[H])C([H])([H])c2c([H])c(OC([H])([H])C([H])([H])C([H])([H])C3=NC([H])([H])C([H])(C([H])([H])C([H])([H])N([H])C(=O)N4C([H])([H])C([H])([H])C([H])([H])C([H])(n5nc(-c6c([H])c([H])c(Oc7c([H])c([H])c(F)c([H])c7F)c([H])c6[H])c(C(=O)N([H])[H])c5N([H])[H])C4([H])[H])C([H])([H])C3([H])[H])c([H])c([H])c2C1([H])[H]

$$$$
88:0:0
     RDKit          3D

 85 93  0  0  1  0  0  0  0  0999 V2000
  -30.2900  -15.7910   20.2390 C   0  0  0  0  0  0  0  0  0  0  0  0
  -30.4360  -13.2000   19.5080 C   0  0  0  0  0  2  0  0  0  0  0  0
  -29.5870  -12.6520   18.3210 C   0  0  0  0  0  2  0  0  0  0  0  0
  -28.1670  -12.2960   18.7710 C   0  0  0  0  0  2  0  0  0  0  0  0
  -27.6110  -13.3550   19.7420 C   0  0  0  0  0  3  0  0  0  0  0  0
  -28.6020  -13.7730   20.8590 C   0  0  0  0  0  2  0  0  0  0  0  0
  -29.7620  -14.4110   20.1890 N   0  0  0  0  0  0  0  0  0  0  0  0
  -31.5230  -15.6790   20.0620 O   0  0  0  0  0  0  0  0  0  0  0  0
  -29.0820  -21.1360   21.3860 C   0  0  0  0  0  2  0  0  0  0  0  0
  -28.9780  -19.8260   20.9400 C   0  0  0  0  0  3  0  0  0  0  0  0
  -29.2280  -18.2420   21.3620 C   0  0  0  0  0  2  0  0  0  0  0  0
  -29.6290  -18.5700   19.2360 C   0  0  0  0  0  2  0  0  0  0  0  0
  -28.9700  -21.9210   19.9760 C   0  0  0  0  0  2  0  0  0  0  0  0
  -28.7660  -20.1270   19.5230 C   0  0  0  0  0  3  0  0  0  0  0  0
  -29.5900  -17.2210   20.2090 N   0  0  0  0  0  0  0  0  0  0  0  0
  -25.2410  -13.9000   20.4530 C   0  0  0  0  0  0  0  0  0  0  0  0
  -24.1730  -13.1300   20.8070 C   0  0  0  0  0  0  0  0  0  0  0  0
  -24.6400  -11.7770   20.8060 C   0  0  0  0  0  0  0  0  0  0  0  0
  -26.2870  -13.0240   20.2430 N   0  0  0  0  0  0  0  0  0  0  0  0
  -25.9380  -11.7380   20.5200 N   0  0  0  0  0  0  0  0  0  0  0  0
  -23.9070  -10.5180   20.9980 C   0  0  0  0  0  0  0  0  0  0  0  0
  -24.3130   -9.5650   21.9600 C   0  0  0  0  0  3  0  0  0  0  0  0
  -23.5750   -8.3760   22.1440 C   0  0  0  0  0  3  0  0  0  0  0  0
  -22.4180   -8.1280   21.3670 C   0  0  0  0  0  0  0  0  0  0  0  0
  -22.0300   -9.0710   20.3970 C   0  0  0  0  0  3  0  0  0  0  0  0
  -22.7690  -10.2520   20.2120 C   0  0  0  0  0  3  0  0  0  0  0  0
  -21.6600   -6.9870   21.4570 O   0  0  0  0  0  0  0  0  0  0  0  0
  -21.5720   -6.2700   22.6240 C   0  0  0  0  0  0  0  0  0  0  0  0
  -21.1130   -6.8550   23.8240 C   0  0  0  0  0  3  0  0  0  0  0  0
  -20.9700   -6.0670   24.9810 C   0  0  0  0  0  3  0  0  0  0  0  0
  -21.2740   -4.6920   24.9410 C   0  0  0  0  0  0  0  0  0  0  0  0
  -21.7270   -4.1060   23.7450 C   0  0  0  0  0  3  0  0  0  0  0  0
  -21.8710   -4.8920   22.5890 C   0  0  0  0  0  0  0  0  0  0  0  0
  -22.2860   -4.3190   21.4350 F   0  0  0  0  0  0  0  0  0  0  0  0
  -21.1320   -3.9320   26.0530 F   0  0  0  0  0  0  0  0  0  0  0  0
  -22.7710  -13.6130   21.0360 C   0  0  0  0  0  0  0  0  0  0  0  0
  -22.0270  -12.9430   21.9050 N   0  0  0  0  0  0  0  0  0  0  0  0
  -22.3470  -14.6300   20.4840 O   0  0  0  0  0  0  0  0  0  0  0  0
  -22.3760  -12.1150   22.3660 H   0  0  0  0  0  0  0  0  0  0  0  0
  -21.0950  -13.2650   22.1220 H   0  0  0  0  0  0  0  0  0  0  0  0
  -25.4120  -15.2700   20.2580 N   0  0  0  0  0  0  0  0  0  0  0  0
  -24.6450  -15.9300   20.3320 H   0  0  0  0  0  0  0  0  0  0  0  0
  -26.2750  -15.6990   19.9520 H   0  0  0  0  0  0  0  0  0  0  0  0
  -28.0340  -23.6730   19.8000 C   0  0  0  0  0  1  0  0  0  0  0  0
  -28.2020  -25.4540   19.9160 O   0  0  0  0  0  0  0  0  0  0  0  0
  -24.7480  -31.7550   22.9840 C   0  0  0  0  0  0  0  0  0  0  0  0
  -27.2290  -26.6850   19.8850 C   0  0  0  0  0  0  0  0  0  0  0  0
  -23.5370  -30.3780   21.3500 C   0  0  0  0  0  3  0  0  0  0  0  0
  -24.9620  -28.7500   19.8840 C   0  0  0  0  0  0  0  0  0  0  0  0
  -26.1150  -30.5090   21.1950 C   0  0  0  0  0  2  0  0  0  0  0  0
  -26.1660  -29.0850   20.5120 C   0  0  0  0  0  0  0  0  0  0  0  0
  -27.2780  -28.0830   20.4810 C   0  0  0  0  0  3  0  0  0  0  0  0
  -25.9900  -26.5710   19.2000 C   0  0  0  0  0  3  0  0  0  0  0  0
  -24.9180  -27.5200   19.2010 C   0  0  0  0  0  3  0  0  0  0  0  0
  -23.7590  -29.7080   19.9620 C   0  0  0  0  0  2  0  0  0  0  0  0
  -24.8250  -30.9160   21.8930 N   0  0  0  0  0  0  0  0  0  0  0  0
  -23.6620  -32.0460   23.5150 O   0  0  0  0  0  0  0  0  0  0  0  0
  -22.8410  -29.3830   22.3190 C   0  0  0  0  0  0  0  0  0  0  0  0
  -21.5010  -29.2550   22.2390 N   0  0  0  0  0  0  0  0  0  0  0  0
  -23.5150  -28.7290   23.1190 O   0  0  0  0  0  0  0  0  0  0  0  0
  -21.0100  -29.8250   21.5660 H   0  0  0  0  0  0  0  0  0  0  0  0
  -18.1130  -28.0980   22.8770 C   0  0  0  0  0  0  0  0  0  0  0  0
  -20.6890  -28.3130   23.0190 C   0  0  0  0  0  3  0  0  0  0  0  0
  -20.7380  -26.8980   22.3950 C   0  0  0  0  0  2  0  0  0  0  0  0
  -19.5830  -26.6300   21.4270 C   0  0  0  0  0  2  0  0  0  0  0  0
  -18.2330  -26.7760   22.1360 C   0  0  0  0  0  2  0  0  0  0  0  0
  -19.2660  -28.8260   23.2750 C   0  0  0  0  0  0  0  0  0  0  0  0
  -19.0980  -30.0650   23.9320 C   0  0  0  0  0  3  0  0  0  0  0  0
  -17.8110  -30.5730   24.1920 C   0  0  0  0  0  3  0  0  0  0  0  0
  -16.6750  -29.8450   23.8040 C   0  0  0  0  0  3  0  0  0  0  0  0
  -16.8260  -28.6070   23.1520 C   0  0  0  0  0  3  0  0  0  0  0  0
  -26.0180  -32.4050   23.6130 C   0  0  0  0  0  3  0  0  0  0  0  0
  -25.6800  -33.7840   24.0180 N   0  0  0  0  0  0  0  0  0  0  0  0
  -25.9680  -34.8900   23.3180 C   0  0  0  0  0  0  0  0  0  0  0  0
  -26.6060  -34.8590   22.2640 O   0  0  0  0  0  0  0  0  0  0  0  0
  -25.1240  -33.8770   24.8560 H   0  0  0  0  0  0  0  0  0  0  0  0
  -24.1930  -36.6720   23.1340 C   0  0  0  0  0  1  0  0  0  0  0  0
  -25.4720  -36.2440   23.8720 C   0  0  0  0  0  3  0  0  0  0  0  0
  -27.6320  -37.1160   24.6650 C   0  0  0  0  0  1  0  0  0  0  0  0
  -26.4800  -37.3280   23.7930 N   0  0  0  0  0  0  0  0  0  0  0  0
  -26.0610  -38.2220   24.0440 H   0  0  0  0  0  0  0  0  0  0  0  0
  -26.5640  -31.6080   24.8650 C   0  0  1  0  0  0  0  0  0  0  0  0
  -25.4920  -31.3420   25.9510 C   0  0  0  0  0  1  0  0  0  0  0  0
  -27.1500  -30.2420   24.4450 C   0  0  0  0  0  1  0  0  0  0  0  0
  -27.7210  -32.4010   25.5160 C   0  0  0  0  0  1  0  0  0  0  0  0
  2  7  1  0
  3  4  1  0
  3  2  1  0
  5  4  1  0
  5 19  1  0
  5  6  1  0
  7  1  1  0
  7  6  1  0
  8  1  2  0
 10 11  1  0
 10  9  1  0
 12 15  1  0
 13  9  1  0
 14 12  1  0
 14 13  1  0
 14 10  1  0
 15  1  1  0
 15 11  1  0
 16 17  2  0
 17 36  1  0
 18 17  1  0
 18 21  1  0
 19 16  1  0
 19 20  1  0
 20 18  2  0
 21 22  1  0
 22 23  2  0
 24 27  1  0
 24 23  1  0
 25 24  2  0
 26 25  1  0
 26 21  2  0
 27 28  1  0
 28 29  1  0
 29 30  2  0
 31 30  1  0
 31 35  1  0
 32 31  2  0
 33 28  2  0
 33 32  1  0
 34 33  1  0
 36 37  1  0
 37 40  1  0
 37 39  1  0
 38 36  2  0
 41 42  1  0
 41 16  1  0
 43 41  1  0
 44 45  1  0
 46 57  2  0
 47 45  1  0
 47 52  1  0
 48 56  1  0
 48 58  1  0
 49 55  1  0
 49 51  1  0
 50 56  1  0
 51 50  1  0
 52 51  2  0
 53 54  1  0
 53 47  2  0
 54 49  2  0
 55 48  1  0
 56 46  1  0
 58 60  2  0
 59 58  1  0
 61 59  1  0
 62 71  2  0
 62 67  1  0
 63 59  1  0
 63 67  1  0
 64 63  1  0
 65 66  1  0
 65 64  1  0
 66 62  1  0
 67 68  2  0
 68 69  1  0
 70 69  2  0
 71 70  1  0
 72 46  1  0
 72 73  1  0
 72 82  1  0
 73 76  1  0
 74 78  1  0
 74 73  1  0
 75 74  2  0
 78 77  1  0
 80 78  1  0
 80 81  1  0
 80 79  1  0
 82 85  1  1
 82 83  1  0
 84 82  1  0
M  ISO  4   1 100  15 100  44 101  45 101
M  END
>  <TORSDO>  (89) 
F 16

>  <SCORE>  (89) 
-15.550

>  <name>  (89) 
88

>  <ligand_id>  (89) 
88

>  <original_smiles>  (89) 
[H]C1=C2C([H])([H])N(C(=O)N3C([H])([H])C([H])([H])C([H])([H])C([H])(n4nc(-c5c([H])c([H])c(Oc6c([H])c([H])c(F)c([H])c6F)c([H])c5[H])c(C(=O)N([H])[H])c4N([H])[H])C3([H])[H])C([H])([H])C2([H])C1([H])C([H])([H])Oc1c([H])c([H])c2c(c1[H])C([H])([H])N(C(=O)C([H])(N([H])C(=O)C([H])(N([H])C([H])([H])[H])C([H])([H])[H])C(C([H])([H])[H])(C([H])([H])[H])C([H])([H])[H])C([H])(C(=O)N([H])C1([H])c3c([H])c([H])c([H])c([H])c3C([H])([H])C([H])([H])C1([H])[H])C2([H])[H]

>  <smiles>  (89) 
[H]C1=C2C([H])([H])N(C(=O)N3C([H])([H])C([H])([H])C([H])([H])C([H])(n4nc(-c5c([H])c([H])c(Oc6c([H])c([H])c(F)c([H])c6F)c([H])c5[H])c(C(=O)N([H])[H])c4N([H])[H])C3([H])[H])C([H])([H])C2([H])C1([H])C([H])([H])Oc1c([H])c([H])c2c(c1[H])C([H])([H])N(C(=O)C([H])(N([H])C(=O)C([H])(N([H])C([H])([H])[H])C([H])([H])[H])C(C([H])([H])[H])(C([H])([H])[H])C([H])([H])[H])C([H])(C(=O)N([H])C1([H])c3c([H])c([H])c([H])c([H])c3C([H])([H])C([H])([H])C1([H])[H])C2([H])[H]

$$$$
89:0:0
     RDKit          3D

 88 97  0  0  1  0  0  0  0  0999 V2000
  -29.8530  -20.4930   19.2230 C   0  0  0  0  0  2  0  0  0  0  0  0
  -27.6840  -21.6530   20.7700 C   0  0  0  0  0  2  0  0  0  0  0  0
  -28.4500  -22.9020   20.1420 C   0  0  0  0  0  3  0  0  0  0  0  0
  -29.6370  -21.7390   20.1910 C   0  0  0  0  0  3  0  0  0  0  0  0
  -29.1240  -19.4240   20.1280 C   0  0  0  0  0  3  0  0  0  0  0  0
  -28.8740  -20.7370   20.9820 N   0  0  2  0  0  4  0  0  0  0  0  0
  -29.1890  -20.6980   21.9400 H   0  0  0  0  0  0  0  0  0  0  0  0
  -28.2160  -24.5260   20.7850 C   0  0  0  0  0  2  0  0  0  0  0  0
  -28.3590  -26.0510   20.2980 O   0  0  0  0  0  0  0  0  0  0  0  0
  -24.6810  -31.8840   23.2500 C   0  0  0  0  0  0  0  0  0  0  0  0
  -27.3030  -27.0710   20.3050 C   0  0  0  0  0  0  0  0  0  0  0  0
  -23.5060  -30.4650   21.6150 C   0  0  0  0  0  3  0  0  0  0  0  0
  -24.9760  -28.8660   20.2250 C   0  0  0  0  0  0  0  0  0  0  0  0
  -26.0660  -30.7200   21.4750 C   0  0  0  0  0  2  0  0  0  0  0  0
  -26.1540  -29.3100   20.8400 C   0  0  0  0  0  0  0  0  0  0  0  0
  -27.3180  -28.4340   20.8510 C   0  0  0  0  0  3  0  0  0  0  0  0
  -26.0930  -26.7470   19.6560 C   0  0  0  0  0  3  0  0  0  0  0  0
  -24.9640  -27.6010   19.6150 C   0  0  0  0  0  3  0  0  0  0  0  0
  -23.7480  -29.7700   20.2480 C   0  0  0  0  0  2  0  0  0  0  0  0
  -24.7720  -31.0480   22.1680 N   0  0  0  0  0  0  0  0  0  0  0  0
  -23.5870  -32.1690   23.7630 O   0  0  0  0  0  0  0  0  0  0  0  0
  -22.8180  -29.4690   22.5840 C   0  0  0  0  0  0  0  0  0  0  0  0
  -21.4910  -29.2890   22.4460 N   0  0  0  0  0  0  0  0  0  0  0  0
  -23.4820  -28.8580   23.4240 O   0  0  0  0  0  0  0  0  0  0  0  0
  -21.0090  -29.8320   21.7430 H   0  0  0  0  0  0  0  0  0  0  0  0
  -18.1160  -28.0540   22.9240 C   0  0  0  0  0  0  0  0  0  0  0  0
  -20.6690  -28.3530   23.2180 C   0  0  0  0  0  3  0  0  0  0  0  0
  -20.7930  -26.9140   22.6640 C   0  0  0  0  0  2  0  0  0  0  0  0
  -19.7090  -26.5650   21.6400 C   0  0  0  0  0  2  0  0  0  0  0  0
  -18.3170  -26.7000   22.2650 C   0  0  0  0  0  2  0  0  0  0  0  0
  -19.2190  -28.8370   23.3570 C   0  0  0  0  0  0  0  0  0  0  0  0
  -18.9750  -30.1010   23.9350 C   0  0  0  0  0  3  0  0  0  0  0  0
  -17.6620  -30.5860   24.0830 C   0  0  0  0  0  3  0  0  0  0  0  0
  -16.5730  -29.8020   23.6640 C   0  0  0  0  0  3  0  0  0  0  0  0
  -16.8010  -28.5380   23.0910 C   0  0  0  0  0  3  0  0  0  0  0  0
  -25.9450  -32.5380   23.8840 C   0  0  0  0  0  3  0  0  0  0  0  0
  -25.6190  -33.9390   24.2010 N   0  0  0  0  0  0  0  0  0  0  0  0
  -25.9440  -34.9930   23.4410 C   0  0  0  0  0  0  0  0  0  0  0  0
  -26.6140  -34.8880   22.4100 O   0  0  0  0  0  0  0  0  0  0  0  0
  -25.0220  -34.0930   25.0020 H   0  0  0  0  0  0  0  0  0  0  0  0
  -24.2000  -36.7740   23.0840 C   0  0  0  0  0  1  0  0  0  0  0  0
  -25.4490  -36.3830   23.8920 C   0  0  0  0  0  3  0  0  0  0  0  0
  -27.5780  -37.2930   24.7090 C   0  0  0  0  0  1  0  0  0  0  0  0
  -26.4730  -37.4420   23.7660 N   0  0  0  0  0  0  0  0  0  0  0  0
  -26.0590  -38.3600   23.9060 H   0  0  0  0  0  0  0  0  0  0  0  0
  -26.4440  -31.7880   25.1820 C   0  0  1  0  0  0  0  0  0  0  0  0
  -25.3370  -31.5640   26.2380 C   0  0  0  0  0  1  0  0  0  0  0  0
  -27.0390  -30.4070   24.8250 C   0  0  0  0  0  1  0  0  0  0  0  0
  -27.5820  -32.5970   25.8490 C   0  0  0  0  0  1  0  0  0  0  0  0
  -29.9100  -17.9650   20.7130 C   0  0  0  0  0  2  0  0  0  0  0  0
  -30.4330  -15.1570   20.2680 C   0  0  0  0  0  0  0  0  0  0  0  0
  -30.3530  -12.7710   19.3090 C   0  0  0  0  0  2  0  0  0  0  0  0
  -29.4030  -12.6490   18.0930 C   0  0  0  0  0  2  0  0  0  0  0  0
  -27.9540  -12.4030   18.5520 C   0  0  0  0  0  2  0  0  0  0  0  0
  -27.5410  -13.3350   19.7190 C   0  0  0  0  0  3  0  0  0  0  0  0
  -28.6130  -13.4060   20.8250 C   0  0  0  0  0  2  0  0  0  0  0  0
  -29.8460  -13.8790   20.1820 N   0  0  0  0  0  0  0  0  0  0  0  0
  -31.6530  -15.1830   20.0680 O   0  0  0  0  0  0  0  0  0  0  0  0
  -29.6540  -16.3840   20.3740 N   0  0  0  0  0  0  0  0  0  0  0  0
  -28.6690  -16.1670   20.3760 H   0  0  0  0  0  0  0  0  0  0  0  0
  -25.1760  -13.8950   20.5000 C   0  0  0  0  0  0  0  0  0  0  0  0
  -24.1200  -13.1150   20.8800 C   0  0  0  0  0  0  0  0  0  0  0  0
  -24.5890  -11.7660   20.8400 C   0  0  0  0  0  0  0  0  0  0  0  0
  -26.2180  -13.0230   20.2420 N   0  0  0  0  0  0  0  0  0  0  0  0
  -25.8770  -11.7360   20.5150 N   0  0  0  0  0  0  0  0  0  0  0  0
  -23.8680  -10.5020   21.0330 C   0  0  0  0  0  0  0  0  0  0  0  0
  -24.3100   -9.5310   21.9590 C   0  0  0  0  0  3  0  0  0  0  0  0
  -23.5860   -8.3330   22.1420 C   0  0  0  0  0  3  0  0  0  0  0  0
  -22.4060   -8.0970   21.3970 C   0  0  0  0  0  0  0  0  0  0  0  0
  -21.9830   -9.0550   20.4590 C   0  0  0  0  0  3  0  0  0  0  0  0
  -22.7070  -10.2450   20.2750 C   0  0  0  0  0  3  0  0  0  0  0  0
  -21.6530   -6.9510   21.4880 O   0  0  0  0  0  0  0  0  0  0  0  0
  -21.6150   -6.2050   22.6390 C   0  0  0  0  0  0  0  0  0  0  0  0
  -21.1940   -6.7530   23.8690 C   0  0  0  0  0  3  0  0  0  0  0  0
  -21.1050   -5.9320   25.0110 C   0  0  0  0  0  3  0  0  0  0  0  0
  -21.4280   -4.5640   24.9250 C   0  0  0  0  0  0  0  0  0  0  0  0
  -21.8420   -4.0160   23.6990 C   0  0  0  0  0  3  0  0  0  0  0  0
  -21.9330   -4.8330   22.5580 C   0  0  0  0  0  0  0  0  0  0  0  0
  -22.3130   -4.2950   21.3740 F   0  0  0  0  0  0  0  0  0  0  0  0
  -21.3340   -3.7740   26.0190 F   0  0  0  0  0  0  0  0  0  0  0  0
  -22.7240  -13.5880   21.1630 C   0  0  0  0  0  0  0  0  0  0  0  0
  -22.0030  -12.8860   22.0300 N   0  0  0  0  0  0  0  0  0  0  0  0
  -22.2820  -14.6150   20.6490 O   0  0  0  0  0  0  0  0  0  0  0  0
  -22.3750  -12.0560   22.4660 H   0  0  0  0  0  0  0  0  0  0  0  0
  -21.0660  -13.1850   22.2620 H   0  0  0  0  0  0  0  0  0  0  0  0
  -25.3290  -15.2670   20.3230 N   0  0  0  0  0  0  0  0  0  0  0  0
  -24.5530  -15.9110   20.4340 H   0  0  0  0  0  0  0  0  0  0  0  0
  -26.1520  -15.7080   19.9320 H   0  0  0  0  0  0  0  0  0  0  0  0
  1  5  1  0
  2  6  1  0
  3  4  1  0
  3  2  1  0
  3  8  1  0
  4  1  1  0
  4  6  1  0
  5 50  1  0
  5  6  1  0
  6  7  1  1
  9 11  1  0
  9  8  1  0
 10 21  2  0
 11 16  1  0
 12 20  1  0
 12 22  1  0
 13 19  1  0
 13 15  1  0
 14 20  1  0
 15 16  2  0
 15 14  1  0
 17 11  2  0
 18 17  1  0
 18 13  2  0
 19 12  1  0
 20 10  1  0
 22 24  2  0
 23 22  1  0
 25 23  1  0
 26 35  2  0
 26 31  1  0
 27 23  1  0
 27 31  1  0
 28 27  1  0
 29 30  1  0
 29 28  1  0
 30 26  1  0
 31 32  2  0
 32 33  1  0
 34 33  2  0
 35 34  1  0
 36 10  1  0
 36 37  1  0
 36 46  1  0
 37 40  1  0
 38 42  1  0
 38 37  1  0
 39 38  2  0
 42 41  1  0
 44 42  1  0
 44 45  1  0
 44 43  1  0
 46 49  1  1
 46 47  1  0
 48 46  1  0
 51 59  1  0
 52 57  1  0
 53 54  1  0
 53 52  1  0
 55 54  1  0
 55 64  1  0
 55 56  1  0
 57 51  1  0
 57 56  1  0
 58 51  2  0
 59 60  1  0
 59 50  1  0
 61 62  2  0
 62 81  1  0
 63 62  1  0
 63 66  1  0
 64 61  1  0
 64 65  1  0
 65 63  2  0
 66 67  1  0
 67 68  2  0
 69 72  1  0
 69 68  1  0
 70 69  2  0
 71 70  1  0
 71 66  2  0
 72 73  1  0
 73 74  1  0
 74 75  2  0
 76 75  1  0
 76 80  1  0
 77 76  2  0
 78 73  2  0
 78 77  1  0
 79 78  1  0
 81 82  1  0
 82 85  1  0
 82 84  1  0
 83 81  2  0
 86 87  1  0
 86 61  1  0
 88 86  1  0
M  ISO  4   8 101   9 101  51 100  59 100
M  END
>  <TORSDO>  (90) 
F 18

>  <SCORE>  (90) 
-15.885

>  <name>  (90) 
89

>  <ligand_id>  (90) 
89

>  <original_smiles>  (90) 
[H]c1c([H])c([H])c2c(c1[H])C([H])([H])C([H])([H])C([H])([H])C2([H])N([H])C(=O)C1([H])N(C(=O)C([H])(N([H])C(=O)C([H])(N([H])C([H])([H])[H])C([H])([H])[H])C(C([H])([H])[H])(C([H])([H])[H])C([H])([H])[H])C([H])([H])c2c([H])c(OC([H])([H])C3([H])C([H])([H])[N+]4([H])C([H])(C([H])([H])N([H])C(=O)N5C([H])([H])C([H])([H])C([H])([H])C([H])(n6nc(-c7c([H])c([H])c(Oc8c([H])c([H])c(F)c([H])c8F)c([H])c7[H])c(C(=O)N([H])[H])c6N([H])[H])C5([H])[H])C([H])([H])C34[H])c([H])c([H])c2C1([H])[H]

>  <smiles>  (90) 
[H]c1c([H])c([H])c2c(c1[H])C([H])([H])C([H])([H])C([H])([H])C2([H])N([H])C(=O)C1([H])N(C(=O)C([H])(N([H])C(=O)C([H])(N([H])C([H])([H])[H])C([H])([H])[H])C(C([H])([H])[H])(C([H])([H])[H])C([H])([H])[H])C([H])([H])c2c([H])c(OC([H])([H])C3([H])C([H])([H])[N+]4([H])C([H])(C([H])([H])N([H])C(=O)N5C([H])([H])C([H])([H])C([H])([H])C([H])(n6nc(-c7c([H])c([H])c(Oc8c([H])c([H])c(F)c([H])c8F)c([H])c7[H])c(C(=O)N([H])[H])c6N([H])[H])C5([H])[H])C([H])([H])C34[H])c([H])c([H])c2C1([H])[H]

$$$$
90:0:0
     RDKit          3D

 92101  0  0  1  0  0  0  0  0999 V2000
  -29.6510  -21.2760   20.5760 N   0  0  0  0  0  4  0  0  0  0  0  0
  -29.9180  -21.1680   19.6130 H   0  0  0  0  0  0  0  0  0  0  0  0
  -30.4770  -21.5770   21.0680 H   0  0  0  0  0  0  0  0  0  0  0  0
  -29.2870  -19.8930   21.1190 C   0  0  0  0  0  2  0  0  0  0  0  0
  -30.7800  -14.7940   21.0110 C   0  0  0  0  0  0  0  0  0  0  0  0
  -30.6750  -12.4300   20.2120 C   0  0  0  0  0  2  0  0  0  0  0  0
  -29.8610  -12.2720   18.9080 C   0  0  0  0  0  2  0  0  0  0  0  0
  -28.3480  -12.1950   19.1840 C   0  0  0  0  0  2  0  0  0  0  0  0
  -27.8440  -13.2120   20.2420 C   0  0  0  0  0  3  0  0  0  0  0  0
  -28.7830  -13.2940   21.4610 C   0  0  0  0  0  2  0  0  0  0  0  0
  -30.1260  -13.5850   20.9470 N   0  0  0  0  0  0  0  0  0  0  0  0
  -32.0060  -14.8200   21.1260 O   0  0  0  0  0  0  0  0  0  0  0  0
  -30.1730  -16.0190   19.0800 C   0  0  0  0  0  0  0  0  0  0  0  0
  -29.4150  -17.1730   18.4160 C   0  0  0  0  0  2  0  0  0  0  0  0
  -31.1720  -18.8550   19.5300 C   0  0  0  0  0  2  0  0  0  0  0  0
  -29.8730  -17.2180   21.1930 C   0  0  0  0  0  2  0  0  0  0  0  0
  -29.8100  -18.5290   18.9560 C   0  0  0  0  0  3  0  0  0  0  0  0
  -29.9800  -18.6320   20.4480 C   0  0  1  0  0  0  0  0  0  0  0  0
  -30.1590  -15.9090   20.4440 N   0  0  0  0  0  0  0  0  0  0  0  0
  -30.7920  -15.2760   18.3140 O   0  0  0  0  0  0  0  0  0  0  0  0
  -25.4000  -13.8310   20.7160 C   0  0  0  0  0  0  0  0  0  0  0  0
  -24.2970  -13.0670   20.9910 C   0  0  0  0  0  0  0  0  0  0  0  0
  -24.7560  -11.7170   21.0570 C   0  0  0  0  0  0  0  0  0  0  0  0
  -26.4590  -12.9450   20.6220 N   0  0  0  0  0  0  0  0  0  0  0  0
  -26.0740  -11.6730   20.8970 N   0  0  0  0  0  0  0  0  0  0  0  0
  -24.0130  -10.4600   21.2020 C   0  0  0  0  0  0  0  0  0  0  0  0
  -24.3680   -9.5030   22.1770 C   0  0  0  0  0  3  0  0  0  0  0  0
  -23.6270   -8.3080   22.3090 C   0  0  0  0  0  3  0  0  0  0  0  0
  -22.5180   -8.0640   21.4650 C   0  0  0  0  0  0  0  0  0  0  0  0
  -22.1850   -9.0090   20.4790 C   0  0  0  0  0  3  0  0  0  0  0  0
  -22.9250  -10.1950   20.3450 C   0  0  0  0  0  3  0  0  0  0  0  0
  -21.7520   -6.9230   21.5070 O   0  0  0  0  0  0  0  0  0  0  0  0
  -21.6290   -6.1810   22.6530 C   0  0  0  0  0  0  0  0  0  0  0  0
  -21.1490   -6.7420   23.8580 C   0  0  0  0  0  3  0  0  0  0  0  0
  -20.9740   -5.9250   24.9930 C   0  0  0  0  0  3  0  0  0  0  0  0
  -21.2680   -4.5490   24.9240 C   0  0  0  0  0  0  0  0  0  0  0  0
  -21.7390   -3.9890   23.7250 C   0  0  0  0  0  3  0  0  0  0  0  0
  -21.9160   -4.8020   22.5920 C   0  0  0  0  0  0  0  0  0  0  0  0
  -22.3510   -4.2520   21.4320 F   0  0  0  0  0  0  0  0  0  0  0  0
  -21.0920   -3.7630   26.0130 F   0  0  0  0  0  0  0  0  0  0  0  0
  -22.8800  -13.5510   21.0870 C   0  0  0  0  0  0  0  0  0  0  0  0
  -22.0610  -12.8890   21.8980 N   0  0  0  0  0  0  0  0  0  0  0  0
  -22.5030  -14.5520   20.4790 O   0  0  0  0  0  0  0  0  0  0  0  0
  -22.3740  -12.0820   22.4150 H   0  0  0  0  0  0  0  0  0  0  0  0
  -21.1040  -13.1970   22.0020 H   0  0  0  0  0  0  0  0  0  0  0  0
  -25.5880  -15.1950   20.5150 N   0  0  0  0  0  0  0  0  0  0  0  0
  -24.8210  -15.8560   20.5350 H   0  0  0  0  0  0  0  0  0  0  0  0
  -26.4800  -15.6250   20.3030 H   0  0  0  0  0  0  0  0  0  0  0  0
  -28.6270  -22.4010   20.6340 C   0  0  0  0  0  2  0  0  0  0  0  0
  -29.1260  -23.8960   20.3230 C   0  0  0  0  0  3  0  0  0  0  0  0
  -27.9950  -24.9970   20.1040 C   0  0  0  0  0  3  0  0  0  0  0  0
  -28.2900  -26.4540   20.0490 O   0  0  0  0  0  0  0  0  0  0  0  0
  -24.6330  -31.8570   23.1520 C   0  0  0  0  0  0  0  0  0  0  0  0
  -27.1840  -27.3220   20.0170 C   0  0  0  0  0  0  0  0  0  0  0  0
  -23.4010  -30.4750   21.5220 C   0  0  0  0  0  3  0  0  0  0  0  0
  -24.8240  -28.9440   20.0580 C   0  0  0  0  0  0  0  0  0  0  0  0
  -25.9380  -30.7960   21.2960 C   0  0  0  0  0  2  0  0  0  0  0  0
  -26.0060  -29.4230   20.6370 C   0  0  0  0  0  0  0  0  0  0  0  0
  -27.1900  -28.6260   20.6040 C   0  0  0  0  0  3  0  0  0  0  0  0
  -25.9730  -26.9030   19.4100 C   0  0  0  0  0  3  0  0  0  0  0  0
  -24.8110  -27.6900   19.4350 C   0  0  0  0  0  3  0  0  0  0  0  0
  -23.5900  -29.8190   20.1320 C   0  0  0  0  0  2  0  0  0  0  0  0
  -24.6780  -31.0580   22.0470 N   0  0  0  0  0  0  0  0  0  0  0  0
  -23.5580  -32.1300   23.7070 O   0  0  0  0  0  0  0  0  0  0  0  0
  -22.7540  -29.4470   22.4820 C   0  0  0  0  0  0  0  0  0  0  0  0
  -21.4260  -29.2770   22.3800 N   0  0  0  0  0  0  0  0  0  0  0  0
  -23.4470  -28.8060   23.2760 O   0  0  0  0  0  0  0  0  0  0  0  0
  -20.9240  -29.8490   21.7140 H   0  0  0  0  0  0  0  0  0  0  0  0
  -18.0540  -28.0890   22.9280 C   0  0  0  0  0  0  0  0  0  0  0  0
  -20.6160  -28.3360   23.1570 C   0  0  0  0  0  3  0  0  0  0  0  0
  -20.7030  -26.9080   22.5680 C   0  0  0  0  0  2  0  0  0  0  0  0
  -19.5830  -26.5990   21.5700 C   0  0  0  0  0  2  0  0  0  0  0  0
  -18.2130  -26.7440   22.2390 C   0  0  0  0  0  2  0  0  0  0  0  0
  -19.1820  -28.8420   23.3450 C   0  0  0  0  0  0  0  0  0  0  0  0
  -18.9770  -30.1020   23.9500 C   0  0  0  0  0  3  0  0  0  0  0  0
  -17.6780  -30.6060   24.1450 C   0  0  0  0  0  3  0  0  0  0  0  0
  -16.5630  -29.8480   23.7420 C   0  0  0  0  0  3  0  0  0  0  0  0
  -16.7520  -28.5920   23.1390 C   0  0  0  0  0  3  0  0  0  0  0  0
  -25.9250  -32.4840   23.7580 C   0  0  0  0  0  3  0  0  0  0  0  0
  -26.4770  -31.6850   25.0030 C   0  0  1  0  0  0  0  0  0  0  0  0
  -25.4130  -31.4160   26.0940 C   0  0  0  0  0  1  0  0  0  0  0  0
  -27.0540  -30.3190   24.5640 C   0  0  0  0  0  1  0  0  0  0  0  0
  -27.6410  -32.4680   25.6550 C   0  0  0  0  0  1  0  0  0  0  0  0
  -25.6110  -33.8700   24.1320 N   0  0  0  0  0  0  0  0  0  0  0  0
  -25.9200  -34.9450   23.3920 C   0  0  0  0  0  0  0  0  0  0  0  0
  -26.5670  -34.8740   22.3440 O   0  0  0  0  0  0  0  0  0  0  0  0
  -25.0240  -33.9970   24.9430 H   0  0  0  0  0  0  0  0  0  0  0  0
  -24.1690  -36.7350   23.1330 C   0  0  0  0  0  1  0  0  0  0  0  0
  -25.4350  -36.3190   23.8980 C   0  0  0  0  0  3  0  0  0  0  0  0
  -27.5860  -37.1970   24.6910 C   0  0  0  0  0  1  0  0  0  0  0  0
  -26.4560  -37.3830   23.7850 N   0  0  0  0  0  0  0  0  0  0  0  0
  -26.0470  -38.2940   23.9730 H   0  0  0  0  0  0  0  0  0  0  0  0
  1 49  1  0
  1  3  1  0
  1  4  1  0
  2  1  1  0
  5 12  2  0
  6 11  1  0
  7  8  1  0
  7  6  1  0
  9  8  1  0
  9 24  1  0
  9 10  1  0
 11  5  1  0
 11 10  1  0
 13 19  1  0
 14 13  1  0
 15 18  1  0
 17 14  1  0
 17 15  1  0
 17 18  1  0
 18  4  1  1
 18 16  1  0
 19  5  1  0
 19 16  1  0
 20 13  2  0
 21 22  2  0
 22 23  1  0
 22 41  1  0
 23 26  1  0
 24 21  1  0
 24 25  1  0
 25 23  2  0
 26 27  1  0
 27 28  2  0
 29 32  1  0
 29 28  1  0
 30 29  2  0
 31 30  1  0
 31 26  2  0
 32 33  1  0
 33 34  1  0
 34 35  2  0
 36 35  1  0
 36 40  1  0
 37 36  2  0
 38 33  2  0
 38 37  1  0
 39 38  1  0
 41 42  1  0
 42 45  1  0
 42 44  1  0
 43 41  2  0
 46 47  1  0
 46 21  1  0
 48 46  1  0
 50 49  1  0
 51 50  2  0
 52 51  1  0
 53 64  2  0
 54 52  1  0
 54 59  1  0
 55 63  1  0
 55 65  1  0
 56 62  1  0
 56 58  1  0
 57 63  1  0
 58 57  1  0
 59 58  2  0
 60 61  1  0
 60 54  2  0
 61 56  2  0
 62 55  1  0
 63 53  1  0
 65 67  2  0
 66 65  1  0
 68 66  1  0
 69 78  2  0
 69 74  1  0
 70 66  1  0
 70 74  1  0
 71 70  1  0
 72 73  1  0
 72 71  1  0
 73 69  1  0
 74 75  2  0
 75 76  1  0
 77 76  2  0
 78 77  1  0
 79 53  1  0
 79 84  1  0
 79 80  1  0
 80 83  1  1
 80 81  1  0
 82 80  1  0
 84 87  1  0
 85 89  1  0
 85 84  1  0
 86 85  2  0
 89 88  1  0
 91 89  1  0
 91 92  1  0
 91 90  1  0
M  ISO  4   5 100  19 100  51 101  52 101
M  END
>  <TORSDO>  (91) 
F 20

>  <SCORE>  (91) 
-13.061

>  <name>  (91) 
90

>  <ligand_id>  (91) 
90

>  <original_smiles>  (91) 
[H]c1c([H])c([H])c2c(c1[H])C([H])([H])C([H])([H])C([H])([H])C2([H])N([H])C(=O)C1([H])N(C(=O)C([H])(N([H])C(=O)C([H])(N([H])C([H])([H])[H])C([H])([H])[H])C(C([H])([H])[H])(C([H])([H])[H])C([H])([H])[H])C([H])([H])c2c([H])c(OC([H])([H])C([H])([H])C([H])([H])[N+]([H])([H])C([H])([H])C34C([H])([H])N(C(=O)N5C([H])([H])C([H])([H])C([H])([H])C([H])(n6nc(-c7c([H])c([H])c(Oc8c([H])c([H])c(F)c([H])c8F)c([H])c7[H])c(C(=O)N([H])[H])c6N([H])[H])C5([H])[H])C(=O)C([H])([H])C3([H])C4([H])[H])c([H])c([H])c2C1([H])[H]

>  <smiles>  (91) 
[H]c1c([H])c([H])c2c(c1[H])C([H])([H])C([H])([H])C([H])([H])C2([H])N([H])C(=O)C1([H])N(C(=O)C([H])(N([H])C(=O)C([H])(N([H])C([H])([H])[H])C([H])([H])[H])C(C([H])([H])[H])(C([H])([H])[H])C([H])([H])[H])C([H])([H])c2c([H])c(OC([H])([H])C([H])([H])C([H])([H])[N+]([H])([H])C([H])([H])C34C([H])([H])N(C(=O)N5C([H])([H])C([H])([H])C([H])([H])C([H])(n6nc(-c7c([H])c([H])c(Oc8c([H])c([H])c(F)c([H])c8F)c([H])c7[H])c(C(=O)N([H])[H])c6N([H])[H])C5([H])[H])C(=O)C([H])([H])C3([H])C4([H])[H])c([H])c([H])c2C1([H])[H]

$$$$
91:0:0
     RDKit          3D

 86 90  0  0  1  0  0  0  0  0999 V2000
  -29.6850  -21.6790   18.8700 C   0  0  0  0  0  2  0  0  0  0  0  0
  -28.8890  -21.4460   19.9290 C   0  0  0  0  0  1  0  0  0  0  0  0
  -30.6860  -20.6530   18.6260 C   0  0  0  0  0  0  0  0  0  0  0  0
  -30.8710  -19.7240   19.8150 C   0  0  0  0  0  2  0  0  0  0  0  0
  -29.4710  -19.5650   20.4190 C   0  0  0  0  0  1  0  0  0  0  0  0
  -31.3610  -20.5470   17.6000 O   0  0  0  0  0  0  0  0  0  0  0  0
  -30.0660  -16.1570   20.1400 C   0  0  0  0  0  0  0  0  0  0  0  0
  -30.2720  -13.5250   19.3000 C   0  0  0  0  0  2  0  0  0  0  0  0
  -29.4060  -12.9130   18.1480 C   0  0  0  0  0  2  0  0  0  0  0  0
  -28.0340  -12.4530   18.6550 C   0  0  0  0  0  2  0  0  0  0  0  0
  -27.4790  -13.4660   19.6740 C   0  0  0  0  0  3  0  0  0  0  0  0
  -28.5070  -13.9550   20.7360 C   0  0  0  0  0  2  0  0  0  0  0  0
  -29.5780  -14.7270   20.0210 N   0  0  0  0  0  0  0  0  0  0  0  0
  -31.3100  -16.0080   20.0350 O   0  0  0  0  0  0  0  0  0  0  0  0
  -29.3370  -17.6530   20.1900 N   0  0  0  0  0  2  0  0  0  0  0  0
  -28.3480  -17.4420   20.1490 H   0  0  0  0  0  0  0  0  0  0  0  0
  -25.1430  -13.9350   20.5190 C   0  0  0  0  0  0  0  0  0  0  0  0
  -24.1010  -13.1380   20.8970 C   0  0  0  0  0  0  0  0  0  0  0  0
  -24.5860  -11.7940   20.8320 C   0  0  0  0  0  0  0  0  0  0  0  0
  -26.1920  -13.0830   20.2360 N   0  0  0  0  0  0  0  0  0  0  0  0
  -25.8720  -11.7840   20.4870 N   0  0  0  0  0  0  0  0  0  0  0  0
  -23.8700  -10.5230   21.0170 C   0  0  0  0  0  0  0  0  0  0  0  0
  -24.3070   -9.5560   21.9480 C   0  0  0  0  0  3  0  0  0  0  0  0
  -23.5840   -8.3550   22.1280 C   0  0  0  0  0  3  0  0  0  0  0  0
  -22.4090   -8.1130   21.3760 C   0  0  0  0  0  0  0  0  0  0  0  0
  -21.9910   -9.0700   20.4350 C   0  0  0  0  0  3  0  0  0  0  0  0
  -22.7130  -10.2620   20.2530 C   0  0  0  0  0  3  0  0  0  0  0  0
  -21.6590   -6.9660   21.4640 O   0  0  0  0  0  0  0  0  0  0  0  0
  -21.5940   -6.2350   22.6240 C   0  0  0  0  0  0  0  0  0  0  0  0
  -21.0990   -6.7850   23.8260 C   0  0  0  0  0  3  0  0  0  0  0  0
  -20.9850   -5.9790   24.9760 C   0  0  0  0  0  3  0  0  0  0  0  0
  -21.3560   -4.6220   24.9250 C   0  0  0  0  0  0  0  0  0  0  0  0
  -21.8430   -4.0690   23.7270 C   0  0  0  0  0  3  0  0  0  0  0  0
  -21.9580   -4.8730   22.5790 C   0  0  0  0  0  0  0  0  0  0  0  0
  -22.4080   -4.3310   21.4230 F   0  0  0  0  0  0  0  0  0  0  0  0
  -21.2390   -3.8450   26.0270 F   0  0  0  0  0  0  0  0  0  0  0  0
  -22.7060  -13.5990   21.1960 C   0  0  0  0  0  0  0  0  0  0  0  0
  -22.0010  -12.8900   22.0690 N   0  0  0  0  0  0  0  0  0  0  0  0
  -22.2530  -14.6270   20.6930 O   0  0  0  0  0  0  0  0  0  0  0  0
  -22.3830  -12.0620   22.5000 H   0  0  0  0  0  0  0  0  0  0  0  0
  -21.0640  -13.1820   22.3110 H   0  0  0  0  0  0  0  0  0  0  0  0
  -25.2810  -15.3100   20.3560 N   0  0  0  0  0  0  0  0  0  0  0  0
  -24.5060  -15.9510   20.4920 H   0  0  0  0  0  0  0  0  0  0  0  0
  -26.1130  -15.7630   20.0030 H   0  0  0  0  0  0  0  0  0  0  0  0
  -28.1140  -23.2520   20.4130 C   0  0  0  0  0 15  0  0  0  0  0  0
  -28.1350  -25.1660   20.2530 O   0  0  0  0  0  1  0  0  0  0  0  0
  -24.6040  -31.8360   23.1180 C   0  0  0  0  0  0  0  0  0  0  0  0
  -27.1710  -26.4930   20.2410 C   0  0  0  0  0  0  0  0  0  0  0  0
  -23.4490  -30.4060   21.4920 C   0  0  0  0  0  3  0  0  0  0  0  0
  -24.9170  -28.6940   20.1310 C   0  0  0  0  0  0  0  0  0  0  0  0
  -26.0400  -30.4820   21.4200 C   0  0  0  0  0  2  0  0  0  0  0  0
  -26.1140  -29.0110   20.7830 C   0  0  0  0  0  0  0  0  0  0  0  0
  -27.2120  -27.9500   20.7910 C   0  0  0  0  0  3  0  0  0  0  0  0
  -25.9310  -26.4600   19.5280 C   0  0  0  0  0  3  0  0  0  0  0  0
  -24.8820  -27.4480   19.4770 C   0  0  0  0  0  3  0  0  0  0  0  0
  -23.7180  -29.6730   20.1410 C   0  0  0  0  0  2  0  0  0  0  0  0
  -24.7250  -30.9490   22.0620 N   0  0  0  0  0  0  0  0  0  0  0  0
  -23.5000  -32.1460   23.6010 O   0  0  0  0  0  0  0  0  0  0  0  0
  -22.7040  -29.4600   22.4750 C   0  0  0  0  0  0  0  0  0  0  0  0
  -21.3700  -29.3080   22.3420 N   0  0  0  0  0  0  0  0  0  0  0  0
  -23.3450  -28.8550   23.3380 O   0  0  0  0  0  0  0  0  0  0  0  0
  -20.8990  -29.8470   21.6280 H   0  0  0  0  0  0  0  0  0  0  0  0
  -17.9800  -28.0840   22.8540 C   0  0  0  0  0  0  0  0  0  0  0  0
  -20.5390  -28.3780   23.1200 C   0  0  0  0  0  3  0  0  0  0  0  0
  -20.6510  -26.9380   22.5650 C   0  0  0  0  0  2  0  0  0  0  0  0
  -19.5570  -26.5980   21.5480 C   0  0  0  0  0  2  0  0  0  0  0  0
  -18.1710  -26.7340   22.1850 C   0  0  0  0  0  2  0  0  0  0  0  0
  -19.0900  -28.8640   23.2790 C   0  0  0  0  0  0  0  0  0  0  0  0
  -18.8530  -30.1220   23.8720 C   0  0  0  0  0  3  0  0  0  0  0  0
  -17.5410  -30.6030   24.0410 C   0  0  0  0  0  3  0  0  0  0  0  0
  -16.4470  -29.8230   23.6290 C   0  0  0  0  0  3  0  0  0  0  0  0
  -16.6660  -28.5640   23.0410 C   0  0  0  0  0  3  0  0  0  0  0  0
  -25.8450  -32.5170   23.7720 C   0  0  0  0  0  3  0  0  0  0  0  0
  -25.4970  -33.9180   24.0990 N   0  0  0  0  0  0  0  0  0  0  0  0
  -25.8260  -34.9930   23.3680 C   0  0  0  0  0  0  0  0  0  0  0  0
  -26.5040  -34.9110   22.3410 O   0  0  0  0  0  0  0  0  0  0  0  0
  -24.8920  -34.0530   24.8950 H   0  0  0  0  0  0  0  0  0  0  0  0
  -24.0890  -36.7940   23.0390 C   0  0  0  0  0  1  0  0  0  0  0  0
  -25.3300  -36.3770   23.8450 C   0  0  0  0  0  3  0  0  0  0  0  0
  -27.4510  -37.2780   24.7030 C   0  0  0  0  0  1  0  0  0  0  0  0
  -26.3560  -37.4410   23.7490 N   0  0  0  0  0  0  0  0  0  0  0  0
  -25.9400  -38.3560   23.8990 H   0  0  0  0  0  0  0  0  0  0  0  0
  -26.3300  -31.7800   25.0840 C   0  0  1  0  0  0  0  0  0  0  0  0
  -25.2110  -31.5600   26.1290 C   0  0  0  0  0  1  0  0  0  0  0  0
  -26.9340  -30.3970   24.7560 C   0  0  0  0  0  1  0  0  0  0  0  0
  -27.4580  -32.5980   25.7580 C   0  0  0  0  0  1  0  0  0  0  0  0
  1  2  1  0
  3  1  1  0
  3  4  1  0
  4  5  1  0
  6  3  2  0
  7 15  1  0
  8 13  1  0
  9 10  1  0
  9  8  1  0
 11 10  1  0
 11 20  1  0
 11 12  1  0
 13  7  1  0
 13 12  1  0
 14  7  2  0
 16 15  1  0
 17 18  2  0
 18 37  1  0
 19 18  1  0
 19 22  1  0
 20 21  1  0
 20 17  1  0
 21 19  2  0
 22 23  1  0
 23 24  2  0
 25 28  1  0
 25 24  1  0
 26 25  2  0
 27 26  1  0
 27 22  2  0
 28 29  1  0
 29 30  1  0
 30 31  2  0
 32 31  1  0
 32 36  1  0
 33 32  2  0
 34 29  2  0
 34 33  1  0
 35 34  1  0
 37 38  1  0
 38 41  1  0
 38 40  1  0
 39 37  2  0
 42 43  1  0
 42 17  1  0
 44 42  1  0
 47 58  2  0
 48 46  1  0
 48 53  1  0
 49 57  1  0
 49 59  1  0
 50 56  1  0
 50 52  1  0
 51 57  1  0
 52 53  2  0
 52 51  1  0
 54 48  2  0
 55 54  1  0
 55 50  2  0
 56 49  1  0
 57 47  1  0
 59 61  2  0
 60 59  1  0
 62 60  1  0
 63 72  2  0
 63 68  1  0
 64 60  1  0
 64 68  1  0
 65 64  1  0
 66 67  1  0
 66 65  1  0
 67 63  1  0
 68 69  2  0
 69 70  1  0
 71 70  2  0
 72 71  1  0
 73 47  1  0
 73 74  1  0
 73 83  1  0
 74 77  1  0
 75 79  1  0
 75 74  1  0
 76 75  2  0
 79 78  1  0
 81 79  1  0
 81 82  1  0
 81 80  1  0
 83 86  1  1
 83 84  1  0
 85 83  1  0
M  ISO  4   7 100  15 100  45 101  46 101
M  END
>  <TORSDO>  (92) 
F 17

>  <SCORE>  (92) 
-16.380

>  <name>  (92) 
91

>  <ligand_id>  (92) 
91

>  <original_smiles>  (92) 
[H]C1=C(C([H])([H])Oc2c([H])c([H])c3c(c2[H])C([H])([H])N(C(=O)C([H])(N([H])C(=O)C([H])(N([H])C([H])([H])[H])C([H])([H])[H])C(C([H])([H])[H])(C([H])([H])[H])C([H])([H])[H])C([H])(C(=O)N([H])C2([H])c4c([H])c([H])c([H])c([H])c4C([H])([H])C([H])([H])C2([H])[H])C3([H])[H])C([H])(N([H])C(=O)N2C([H])([H])C([H])([H])C([H])([H])C([H])(n3nc(-c4c([H])c([H])c(Oc5c([H])c([H])c(F)c([H])c5F)c([H])c4[H])c(C(=O)N([H])[H])c3N([H])[H])C2([H])[H])C([H])([H])C1=O

>  <smiles>  (92) 
[H]C1=C(C([H])([H])Oc2c([H])c([H])c3c(c2[H])C([H])([H])N(C(=O)C([H])(N([H])C(=O)C([H])(N([H])C([H])([H])[H])C([H])([H])[H])C(C([H])([H])[H])(C([H])([H])[H])C([H])([H])[H])C([H])(C(=O)N([H])C2([H])c4c([H])c([H])c([H])c([H])c4C([H])([H])C([H])([H])C2([H])[H])C3([H])[H])C([H])(N([H])C(=O)N2C([H])([H])C([H])([H])C([H])([H])C([H])(n3nc(-c4c([H])c([H])c(Oc5c([H])c([H])c(F)c([H])c5F)c([H])c4[H])c(C(=O)N([H])[H])c3N([H])[H])C2([H])[H])C([H])([H])C1=O

$$$$
92:0:0
     RDKit          3D

 87 96  0  0  1  0  0  0  0  0999 V2000
  -28.7190  -22.1940   20.0190 C   0  0  0  0  0  3  0  0  0  0  0  0
  -29.5070  -20.9810   20.7420 C   0  0  0  0  0  3  0  0  0  0  0  0
  -30.7220  -14.7740   20.0650 C   0  0  0  0  0  0  0  0  0  0  0  0
  -30.3510  -12.5230   19.0540 C   0  0  0  0  0  2  0  0  0  0  0  0
  -29.3670  -12.5970   17.8710 C   0  0  0  0  0  2  0  0  0  0  0  0
  -27.9230  -12.4310   18.3760 C   0  0  0  0  0  2  0  0  0  0  0  0
  -27.6130  -13.3250   19.6060 C   0  0  0  0  0  3  0  0  0  0  0  0
  -28.7270  -13.2670   20.6750 C   0  0  0  0  0  2  0  0  0  0  0  0
  -29.9850  -13.6070   20.0020 N   0  0  0  0  0  0  0  0  0  0  0  0
  -31.9000  -14.7310   19.6970 O   0  0  0  0  0  0  0  0  0  0  0  0
  -31.1010  -17.2020   20.5940 C   0  0  0  0  0  2  0  0  0  0  0  0
  -28.8760  -16.6860   20.3380 C   0  0  0  0  0  2  0  0  0  0  0  0
  -30.3470  -18.4660   21.0430 C   0  0  0  0  0  3  0  0  0  0  0  0
  -28.9060  -18.1830   20.8240 C   0  0  0  0  0  3  0  0  0  0  0  0
  -29.5490  -19.4730   20.1850 C   0  0  0  0  0  3  0  0  0  0  0  0
  -30.2090  -16.0280   20.4200 N   0  0  0  0  0  0  0  0  0  0  0  0
  -25.2760  -13.9130   20.4750 C   0  0  0  0  0  0  0  0  0  0  0  0
  -24.2240  -13.1370   20.8800 C   0  0  0  0  0  0  0  0  0  0  0  0
  -24.6740  -11.7840   20.7940 C   0  0  0  0  0  0  0  0  0  0  0  0
  -26.2990  -13.0330   20.1660 N   0  0  0  0  0  0  0  0  0  0  0  0
  -25.9480  -11.7450   20.4220 N   0  0  0  0  0  0  0  0  0  0  0  0
  -23.9450  -10.5240   20.9880 C   0  0  0  0  0  0  0  0  0  0  0  0
  -24.3940   -9.5430   21.9000 C   0  0  0  0  0  3  0  0  0  0  0  0
  -23.6650   -8.3480   22.0830 C   0  0  0  0  0  3  0  0  0  0  0  0
  -22.4720   -8.1260   21.3550 C   0  0  0  0  0  0  0  0  0  0  0  0
  -22.0420   -9.0950   20.4310 C   0  0  0  0  0  3  0  0  0  0  0  0
  -22.7720  -10.2800   20.2460 C   0  0  0  0  0  3  0  0  0  0  0  0
  -21.7110   -6.9860   21.4510 O   0  0  0  0  0  0  0  0  0  0  0  0
  -21.6630   -6.2470   22.6060 C   0  0  0  0  0  0  0  0  0  0  0  0
  -21.2100   -6.7980   23.8240 C   0  0  0  0  0  3  0  0  0  0  0  0
  -21.1110   -5.9840   24.9700 C   0  0  0  0  0  3  0  0  0  0  0  0
  -21.4550   -4.6220   24.8990 C   0  0  0  0  0  0  0  0  0  0  0  0
  -21.9010   -4.0700   23.6860 C   0  0  0  0  0  3  0  0  0  0  0  0
  -22.0020   -4.8800   22.5410 C   0  0  0  0  0  0  0  0  0  0  0  0
  -22.4120   -4.3390   21.3690 F   0  0  0  0  0  0  0  0  0  0  0  0
  -21.3520   -3.8380   25.9990 F   0  0  0  0  0  0  0  0  0  0  0  0
  -22.8470  -13.6190   21.2300 C   0  0  0  0  0  0  0  0  0  0  0  0
  -22.1580  -12.9110   22.1170 N   0  0  0  0  0  0  0  0  0  0  0  0
  -22.3940  -14.6600   20.7550 O   0  0  0  0  0  0  0  0  0  0  0  0
  -22.5400  -12.0680   22.5220 H   0  0  0  0  0  0  0  0  0  0  0  0
  -21.2360  -13.2130   22.3960 H   0  0  0  0  0  0  0  0  0  0  0  0
  -25.4390  -15.2860   20.3180 N   0  0  0  0  0  0  0  0  0  0  0  0
  -24.6790  -15.9380   20.4750 H   0  0  0  0  0  0  0  0  0  0  0  0
  -26.2680  -15.7260   19.9410 H   0  0  0  0  0  0  0  0  0  0  0  0
  -28.9580  -23.7270   20.5130 C   0  0  0  0  0  3  0  0  0  0  0  0
  -28.0200  -24.9250   19.9670 C   0  0  0  0  0  3  0  0  0  0  0  0
  -28.2570  -26.3820   20.2760 O   0  0  0  0  0  0  0  0  0  0  0  0
  -24.5930  -31.9110   23.2240 C   0  0  0  0  0  0  0  0  0  0  0  0
  -27.1750  -27.2920   20.1860 C   0  0  0  0  0  0  0  0  0  0  0  0
  -23.3850  -30.5100   21.5900 C   0  0  0  0  0  3  0  0  0  0  0  0
  -24.8300  -28.9550   20.1620 C   0  0  0  0  0  0  0  0  0  0  0  0
  -25.9310  -30.8090   21.4100 C   0  0  0  0  0  2  0  0  0  0  0  0
  -26.0030  -29.4260   20.7640 C   0  0  0  0  0  0  0  0  0  0  0  0
  -27.1780  -28.6060   20.7680 C   0  0  0  0  0  3  0  0  0  0  0  0
  -25.9830  -26.9030   19.5320 C   0  0  0  0  0  3  0  0  0  0  0  0
  -24.8250  -27.7030   19.5340 C   0  0  0  0  0  3  0  0  0  0  0  0
  -23.5970  -29.8360   20.2110 C   0  0  0  0  0  2  0  0  0  0  0  0
  -24.6560  -31.0960   22.1300 N   0  0  0  0  0  0  0  0  0  0  0  0
  -23.5100  -32.1930   23.7570 O   0  0  0  0  0  0  0  0  0  0  0  0
  -22.7200  -29.4980   22.5550 C   0  0  0  0  0  0  0  0  0  0  0  0
  -21.3940  -29.3220   22.4310 N   0  0  0  0  0  0  0  0  0  0  0  0
  -23.3990  -28.8730   23.3740 O   0  0  0  0  0  0  0  0  0  0  0  0
  -20.9050  -29.8780   21.7420 H   0  0  0  0  0  0  0  0  0  0  0  0
  -18.0110  -28.1490   22.9580 C   0  0  0  0  0  0  0  0  0  0  0  0
  -20.5740  -28.3900   23.2070 C   0  0  0  0  0  3  0  0  0  0  0  0
  -20.6600  -26.9580   22.6280 C   0  0  0  0  0  2  0  0  0  0  0  0
  -19.5470  -26.6460   21.6230 C   0  0  0  0  0  2  0  0  0  0  0  0
  -18.1710  -26.8000   22.2780 C   0  0  0  0  0  2  0  0  0  0  0  0
  -19.1390  -28.9020   23.3800 C   0  0  0  0  0  0  0  0  0  0  0  0
  -18.9340  -30.1650   23.9760 C   0  0  0  0  0  3  0  0  0  0  0  0
  -17.6340  -30.6760   24.1550 C   0  0  0  0  0  3  0  0  0  0  0  0
  -16.5210  -29.9200   23.7480 C   0  0  0  0  0  3  0  0  0  0  0  0
  -16.7100  -28.6590   23.1560 C   0  0  0  0  0  3  0  0  0  0  0  0
  -25.8760  -32.5450   23.8420 C   0  0  0  0  0  3  0  0  0  0  0  0
  -26.4020  -31.7690   25.1120 C   0  0  1  0  0  0  0  0  0  0  0  0
  -25.3140  -31.5220   26.1830 C   0  0  0  0  0  1  0  0  0  0  0  0
  -26.9880  -30.3970   24.7120 C   0  0  0  0  0  1  0  0  0  0  0  0
  -27.5510  -32.5660   25.7730 C   0  0  0  0  0  1  0  0  0  0  0  0
  -25.5630  -33.9410   24.1830 N   0  0  0  0  0  0  0  0  0  0  0  0
  -25.8680  -34.9990   23.4210 C   0  0  0  0  0  0  0  0  0  0  0  0
  -26.5140  -34.9060   22.3740 O   0  0  0  0  0  0  0  0  0  0  0  0
  -24.9890  -34.0880   25.0000 H   0  0  0  0  0  0  0  0  0  0  0  0
  -24.1150  -36.7780   23.1210 C   0  0  0  0  0  1  0  0  0  0  0  0
  -25.3820  -36.3830   23.8970 C   0  0  0  0  0  3  0  0  0  0  0  0
  -27.5260  -37.2880   24.6760 C   0  0  0  0  0  1  0  0  0  0  0  0
  -26.4000  -37.4450   23.7590 N   0  0  0  0  0  0  0  0  0  0  0  0
  -25.9890  -38.3620   23.9150 H   0  0  0  0  0  0  0  0  0  0  0  0
  1 45  1  0
  1  2  2  0
  3 16  1  0
  4  9  1  0
  5  6  1  0
  5  4  1  0
  7  6  1  0
  7 20  1  0
  7  8  1  0
  9  3  1  0
  9  8  1  0
 10  3  2  0
 12 16  1  0
 13 11  1  0
 14 12  1  0
 14 13  1  0
 15  2  1  0
 15 14  1  0
 15 13  1  0
 16 11  1  0
 17 18  2  0
 18 37  1  0
 19 18  1  0
 19 22  1  0
 20 21  1  0
 20 17  1  0
 21 19  2  0
 22 23  1  0
 23 24  2  0
 25 28  1  0
 25 24  1  0
 26 25  2  0
 27 26  1  0
 27 22  2  0
 28 29  1  0
 29 30  1  0
 30 31  2  0
 32 31  1  0
 32 36  1  0
 33 32  2  0
 34 29  2  0
 34 33  1  0
 35 34  1  0
 37 38  1  0
 38 41  1  0
 38 40  1  0
 39 37  2  0
 42 17  1  0
 42 43  1  0
 44 42  1  0
 46 47  1  0
 46 45  2  0
 48 59  2  0
 49 47  1  0
 49 54  1  0
 50 58  1  0
 50 60  1  0
 51 57  1  0
 51 53  1  0
 52 58  1  0
 53 54  2  0
 53 52  1  0
 55 56  1  0
 55 49  2  0
 56 51  2  0
 57 50  1  0
 58 48  1  0
 60 62  2  0
 61 60  1  0
 63 61  1  0
 64 73  2  0
 64 69  1  0
 65 61  1  0
 65 69  1  0
 66 65  1  0
 67 68  1  0
 67 66  1  0
 68 64  1  0
 69 70  2  0
 70 71  1  0
 72 71  2  0
 73 72  1  0
 74 48  1  0
 74 79  1  0
 74 75  1  0
 75 78  1  1
 75 76  1  0
 77 75  1  0
 79 82  1  0
 80 84  1  0
 80 79  1  0
 81 80  2  0
 84 83  1  0
 86 84  1  0
 86 87  1  0
 86 85  1  0
M  ISO  4   3 100  16 100  46 101  47 101
M  END
>  <TORSDO>  (93) 
F 19

>  <SCORE>  (93) 
-14.112

>  <name>  (93) 
92

>  <ligand_id>  (93) 
92

>  <original_smiles>  (93) 
[H]c1c([H])c([H])c2c(c1[H])C([H])([H])C([H])([H])C([H])([H])C2([H])N([H])C(=O)C1([H])N(C(=O)C([H])(N([H])C(=O)C([H])(N([H])C([H])([H])[H])C([H])([H])[H])C(C([H])([H])[H])(C([H])([H])[H])C([H])([H])[H])C([H])([H])c2c([H])c(OC([H])([H])C([H])([H])C([H])([H])C([H])([H])C3([H])C4([H])C([H])([H])N(C(=O)N5C([H])([H])C([H])([H])C([H])([H])C([H])(n6nc(-c7c([H])c([H])c(Oc8c([H])c([H])c(F)c([H])c8F)c([H])c7[H])c(C(=O)N([H])[H])c6N([H])[H])C5([H])[H])C([H])([H])C43[H])c([H])c([H])c2C1([H])[H]

>  <smiles>  (93) 
[H]c1c([H])c([H])c2c(c1[H])C([H])([H])C([H])([H])C([H])([H])C2([H])N([H])C(=O)C1([H])N(C(=O)C([H])(N([H])C(=O)C([H])(N([H])C([H])([H])[H])C([H])([H])[H])C(C([H])([H])[H])(C([H])([H])[H])C([H])([H])[H])C([H])([H])c2c([H])c(OC([H])([H])C([H])([H])C([H])([H])C([H])([H])C3([H])C4([H])C([H])([H])N(C(=O)N5C([H])([H])C([H])([H])C([H])([H])C([H])(n6nc(-c7c([H])c([H])c(Oc8c([H])c([H])c(F)c([H])c8F)c([H])c7[H])c(C(=O)N([H])[H])c6N([H])[H])C5([H])[H])C([H])([H])C43[H])c([H])c([H])c2C1([H])[H]

$$$$
93:0:0
     RDKit          3D

 91100  0  0  1  0  0  0  0  0999 V2000
  -29.6210  -21.9190   22.3910 C   0  0  0  0  0  3  0  0  0  0  0  0
  -29.6580  -20.5520   21.9850 C   0  0  0  0  0  3  0  0  0  0  0  0
  -28.7270  -21.1820   19.8340 C   0  0  0  0  0  3  0  0  0  0  0  0
  -28.6780  -22.5680   20.2550 C   0  0  0  0  0  0  0  0  0  0  0  0
  -29.1180  -22.9200   21.5240 C   0  0  0  0  0  0  0  0  0  0  0  0
  -29.2120  -20.1220   20.7040 C   0  0  0  0  0  0  0  0  0  0  0  0
  -28.2040  -23.8550   19.5890 C   0  0  0  0  0  0  0  0  0  0  0  0
  -28.9660  -24.4300   21.8000 C   0  0  0  0  0  2  0  0  0  0  0  0
  -28.0660  -25.0120   20.6570 C   0  0  0  0  0  3  0  0  0  0  0  0
  -27.9150  -23.9950   18.3980 O   0  0  0  0  0  0  0  0  0  0  0  0
  -28.3040  -26.4460   20.2440 O   0  0  0  0  0  0  0  0  0  0  0  0
  -24.6050  -31.9310   23.2450 C   0  0  0  0  0  0  0  0  0  0  0  0
  -27.2050  -27.3330   20.2090 C   0  0  0  0  0  0  0  0  0  0  0  0
  -23.3960  -30.5240   21.6140 C   0  0  0  0  0  3  0  0  0  0  0  0
  -24.8450  -28.9670   20.1860 C   0  0  0  0  0  0  0  0  0  0  0  0
  -25.9360  -30.8430   21.4170 C   0  0  0  0  0  2  0  0  0  0  0  0
  -26.0190  -29.4580   20.7740 C   0  0  0  0  0  0  0  0  0  0  0  0
  -27.2050  -28.6550   20.7670 C   0  0  0  0  0  3  0  0  0  0  0  0
  -26.0100  -26.9060   19.5930 C   0  0  0  0  0  3  0  0  0  0  0  0
  -24.8450  -27.7010   19.5830 C   0  0  0  0  0  3  0  0  0  0  0  0
  -23.6060  -29.8430   20.2350 C   0  0  0  0  0  2  0  0  0  0  0  0
  -24.6650  -31.1180   22.1490 N   0  0  0  0  0  0  0  0  0  0  0  0
  -23.5220  -32.2080   23.7840 O   0  0  0  0  0  0  0  0  0  0  0  0
  -22.7400  -29.5100   22.5830 C   0  0  0  0  0  0  0  0  0  0  0  0
  -21.4160  -29.3170   22.4560 N   0  0  0  0  0  0  0  0  0  0  0  0
  -23.4240  -28.9010   23.4100 O   0  0  0  0  0  0  0  0  0  0  0  0
  -20.9230  -29.8610   21.7630 H   0  0  0  0  0  0  0  0  0  0  0  0
  -18.0540  -28.0780   22.9570 C   0  0  0  0  0  0  0  0  0  0  0  0
  -20.6070  -28.3760   23.2330 C   0  0  0  0  0  3  0  0  0  0  0  0
  -20.7300  -26.9390   22.6750 C   0  0  0  0  0  2  0  0  0  0  0  0
  -19.6370  -26.5920   21.6590 C   0  0  0  0  0  2  0  0  0  0  0  0
  -18.2500  -26.7250   22.2950 C   0  0  0  0  0  2  0  0  0  0  0  0
  -19.1600  -28.8610   23.3830 C   0  0  0  0  0  0  0  0  0  0  0  0
  -18.9200  -30.1270   23.9610 C   0  0  0  0  0  3  0  0  0  0  0  0
  -17.6080  -30.6100   24.1180 C   0  0  0  0  0  3  0  0  0  0  0  0
  -16.5160  -29.8260   23.7060 C   0  0  0  0  0  3  0  0  0  0  0  0
  -16.7400  -28.5620   23.1320 C   0  0  0  0  0  3  0  0  0  0  0  0
  -25.8870  -32.5730   23.8580 C   0  0  0  0  0  3  0  0  0  0  0  0
  -25.5740  -33.9720   24.1830 N   0  0  0  0  0  0  0  0  0  0  0  0
  -25.9020  -35.0250   23.4230 C   0  0  0  0  0  0  0  0  0  0  0  0
  -26.5710  -34.9200   22.3910 O   0  0  0  0  0  0  0  0  0  0  0  0
  -24.9840  -34.1270   24.9890 H   0  0  0  0  0  0  0  0  0  0  0  0
  -24.1780  -36.8190   23.0580 C   0  0  0  0  0  1  0  0  0  0  0  0
  -25.4120  -36.4130   23.8790 C   0  0  0  0  0  3  0  0  0  0  0  0
  -27.5410  -37.2970   24.7260 C   0  0  0  0  0  1  0  0  0  0  0  0
  -26.4460  -37.4660   23.7740 N   0  0  0  0  0  0  0  0  0  0  0  0
  -26.0390  -38.3850   23.9230 H   0  0  0  0  0  0  0  0  0  0  0  0
  -26.4120  -31.8110   25.1360 C   0  0  1  0  0  0  0  0  0  0  0  0
  -25.3250  -31.5730   26.2110 C   0  0  0  0  0  1  0  0  0  0  0  0
  -27.0020  -30.4340   24.7520 C   0  0  0  0  0  1  0  0  0  0  0  0
  -27.5610  -32.6160   25.7910 C   0  0  0  0  0  1  0  0  0  0  0  0
  -29.0940  -18.5580   20.3570 C   0  0  0  0  0  3  0  0  0  0  0  0
  -30.2250  -17.4480   20.7230 C   0  0  0  0  0  3  0  0  0  0  0  0
  -30.6520  -14.8380   20.3840 C   0  0  0  0  0  0  0  0  0  0  0  0
  -30.4870  -12.5500   19.3770 C   0  0  0  0  0  2  0  0  0  0  0  0
  -29.5580  -12.5830   18.1420 C   0  0  0  0  0  2  0  0  0  0  0  0
  -28.0830  -12.4190   18.5570 C   0  0  0  0  0  2  0  0  0  0  0  0
  -27.6910  -13.3230   19.7550 C   0  0  0  0  0  3  0  0  0  0  0  0
  -28.7380  -13.2480   20.8890 C   0  0  0  0  0  2  0  0  0  0  0  0
  -30.0360  -13.6080   20.3090 N   0  0  0  0  0  0  0  0  0  0  0  0
  -31.8380  -14.9530   20.0600 O   0  0  0  0  0  0  0  0  0  0  0  0
  -29.8680  -15.9550   20.6430 N   0  0  0  0  0  0  0  0  0  0  0  0
  -28.9060  -15.7370   20.8510 H   0  0  0  0  0  0  0  0  0  0  0  0
  -25.2920  -13.9180   20.4450 C   0  0  0  0  0  0  0  0  0  0  0  0
  -24.2230  -13.1460   20.8090 C   0  0  0  0  0  0  0  0  0  0  0  0
  -24.6880  -11.7950   20.7970 C   0  0  0  0  0  0  0  0  0  0  0  0
  -26.3410  -13.0390   20.2320 N   0  0  0  0  0  0  0  0  0  0  0  0
  -25.9830  -11.7570   20.5050 N   0  0  0  0  0  0  0  0  0  0  0  0
  -23.9600  -10.5330   20.9880 C   0  0  0  0  0  0  0  0  0  0  0  0
  -24.3750   -9.5780   21.9420 C   0  0  0  0  0  3  0  0  0  0  0  0
  -23.6460   -8.3830   22.1210 C   0  0  0  0  0  3  0  0  0  0  0  0
  -22.4910   -8.1320   21.3440 C   0  0  0  0  0  0  0  0  0  0  0  0
  -22.0960   -9.0750   20.3780 C   0  0  0  0  0  3  0  0  0  0  0  0
  -22.8250  -10.2610   20.1970 C   0  0  0  0  0  3  0  0  0  0  0  0
  -21.7360   -6.9870   21.4320 O   0  0  0  0  0  0  0  0  0  0  0  0
  -21.6520   -6.2690   22.5980 C   0  0  0  0  0  0  0  0  0  0  0  0
  -21.1750   -6.8440   23.7960 C   0  0  0  0  0  3  0  0  0  0  0  0
  -21.0380   -6.0510   24.9530 C   0  0  0  0  0  3  0  0  0  0  0  0
  -21.3710   -4.6830   24.9130 C   0  0  0  0  0  0  0  0  0  0  0  0
  -21.8420   -4.1070   23.7200 C   0  0  0  0  0  3  0  0  0  0  0  0
  -21.9780   -4.8980   22.5650 C   0  0  0  0  0  0  0  0  0  0  0  0
  -22.4120   -4.3330   21.4120 F   0  0  0  0  0  0  0  0  0  0  0  0
  -21.2320   -3.9190   26.0220 F   0  0  0  0  0  0  0  0  0  0  0  0
  -22.8190  -13.6230   21.0530 C   0  0  0  0  0  0  0  0  0  0  0  0
  -22.0780  -12.9350   21.9120 N   0  0  0  0  0  0  0  0  0  0  0  0
  -22.3880  -14.6450   20.5180 O   0  0  0  0  0  0  0  0  0  0  0  0
  -22.4360  -12.1100   22.3700 H   0  0  0  0  0  0  0  0  0  0  0  0
  -21.1380  -13.2380   22.1180 H   0  0  0  0  0  0  0  0  0  0  0  0
  -25.4530  -15.2900   20.2560 N   0  0  0  0  0  0  0  0  0  0  0  0
  -24.6870  -15.9450   20.3700 H   0  0  0  0  0  0  0  0  0  0  0  0
  -26.3010  -15.7320   19.9250 H   0  0  0  0  0  0  0  0  0  0  0  0
  2  1  1  0
  3  4  2  0
  3  6  1  0
  4  5  1  0
  5  8  1  0
  5  1  2  0
  6  2  2  0
  7  4  1  0
  7  9  1  0
  9 11  1  0
  9  8  1  0
 10  7  2  0
 12 23  2  0
 13 11  1  0
 13 18  1  0
 14 22  1  0
 14 24  1  0
 15 21  1  0
 15 17  1  0
 16 22  1  0
 17 16  1  0
 18 17  2  0
 19 13  2  0
 20 19  1  0
 20 15  2  0
 21 14  1  0
 22 12  1  0
 24 26  2  0
 25 24  1  0
 27 25  1  0
 28 37  2  0
 28 33  1  0
 29 25  1  0
 29 33  1  0
 30 29  1  0
 31 32  1  0
 31 30  1  0
 32 28  1  0
 33 34  2  0
 34 35  1  0
 36 35  2  0
 37 36  1  0
 38 12  1  0
 38 39  1  0
 38 48  1  0
 39 42  1  0
 40 44  1  0
 40 39  1  0
 41 40  2  0
 44 43  1  0
 46 44  1  0
 46 47  1  0
 46 45  1  0
 48 51  1  1
 48 49  1  0
 50 48  1  0
 52  6  1  0
 52 53  2  0
 54 62  1  0
 55 60  1  0
 56 57  1  0
 56 55  1  0
 58 57  1  0
 58 67  1  0
 58 59  1  0
 60 54  1  0
 60 59  1  0
 61 54  2  0
 62 53  1  0
 62 63  1  0
 64 65  2  0
 65 84  1  0
 66 65  1  0
 66 69  1  0
 67 64  1  0
 67 68  1  0
 68 66  2  0
 69 70  1  0
 70 71  2  0
 72 75  1  0
 72 71  1  0
 73 72  2  0
 74 73  1  0
 74 69  2  0
 75 76  1  0
 76 77  1  0
 77 78  2  0
 79 78  1  0
 79 83  1  0
 80 79  2  0
 81 76  2  0
 81 80  1  0
 82 81  1  0
 84 85  1  0
 85 88  1  0
 85 87  1  0
 86 84  2  0
 89 90  1  0
 89 64  1  0
 91 89  1  0
M  ISO  4   9 101  11 101  54 100  62 100
M  END
>  <TORSDO>  (94) 
F 18

>  <SCORE>  (94) 
-14.621

>  <name>  (94) 
93

>  <ligand_id>  (94) 
93

>  <original_smiles>  (94) 
[H]c1c([H])c([H])c2c(c1[H])C([H])([H])C([H])([H])C([H])([H])C2([H])N([H])C(=O)C1([H])N(C(=O)C([H])(N([H])C(=O)C([H])(N([H])C([H])([H])[H])C([H])([H])[H])C(C([H])([H])[H])(C([H])([H])[H])C([H])([H])[H])C([H])([H])c2c([H])c(OC3([H])C(=O)c4c([H])c(C([H])([H])C([H])([H])N([H])C(=O)N5C([H])([H])C([H])([H])C([H])([H])C([H])(n6nc(-c7c([H])c([H])c(Oc8c([H])c([H])c(F)c([H])c8F)c([H])c7[H])c(C(=O)N([H])[H])c6N([H])[H])C5([H])[H])c([H])c([H])c4C3([H])[H])c([H])c([H])c2C1([H])[H]

>  <smiles>  (94) 
[H]c1c([H])c([H])c2c(c1[H])C([H])([H])C([H])([H])C([H])([H])C2([H])N([H])C(=O)C1([H])N(C(=O)C([H])(N([H])C(=O)C([H])(N([H])C([H])([H])[H])C([H])([H])[H])C(C([H])([H])[H])(C([H])([H])[H])C([H])([H])[H])C([H])([H])c2c([H])c(OC3([H])C(=O)c4c([H])c(C([H])([H])C([H])([H])N([H])C(=O)N5C([H])([H])C([H])([H])C([H])([H])C([H])(n6nc(-c7c([H])c([H])c(Oc8c([H])c([H])c(F)c([H])c8F)c([H])c7[H])c(C(=O)N([H])[H])c6N([H])[H])C5([H])[H])c([H])c([H])c4C3([H])[H])c([H])c([H])c2C1([H])[H]

$$$$
94:0:0
     RDKit          3D

 88 96  0  0  1  0  0  0  0  0999 V2000
  -28.5160  -19.4740   20.3930 C   0  0  0  0  0  3  0  0  0  0  0  0
  -29.7910  -18.9860   20.4180 C   0  0  0  0  0  0  0  0  0  0  0  0
  -28.0780  -20.9970   20.2780 C   0  0  0  0  0  2  0  0  0  0  0  0
  -30.8790  -20.0720   20.3720 C   0  0  0  0  0  2  0  0  0  0  0  0
  -30.4510  -21.4990   19.8460 C   0  0  0  0  0  2  0  0  0  0  0  0
  -29.1640  -22.1470   20.4530 C   0  0  0  0  0  3  0  0  0  0  0  0
  -30.3680  -17.4690   20.5090 C   0  0  0  0  0  2  0  0  0  0  0  0
  -30.6170  -14.8480   20.3680 C   0  0  0  0  0  0  0  0  0  0  0  0
  -30.4380  -12.5600   19.3640 C   0  0  0  0  0  2  0  0  0  0  0  0
  -29.5020  -12.6060   18.1360 C   0  0  0  0  0  2  0  0  0  0  0  0
  -28.0360  -12.4110   18.5690 C   0  0  0  0  0  2  0  0  0  0  0  0
  -27.6500  -13.3040   19.7790 C   0  0  0  0  0  3  0  0  0  0  0  0
  -28.7080  -13.2460   20.9010 C   0  0  0  0  0  2  0  0  0  0  0  0
  -29.9920  -13.6200   20.3000 N   0  0  0  0  0  0  0  0  0  0  0  0
  -31.8110  -14.9280   20.0670 O   0  0  0  0  0  0  0  0  0  0  0  0
  -29.8630  -16.0120   20.5580 N   0  0  0  0  0  0  0  0  0  0  0  0
  -28.8790  -15.8750   20.7430 H   0  0  0  0  0  0  0  0  0  0  0  0
  -25.2620  -13.8770   20.5130 C   0  0  0  0  0  0  0  0  0  0  0  0
  -24.2020  -13.0960   20.8820 C   0  0  0  0  0  0  0  0  0  0  0  0
  -24.6750  -11.7470   20.8500 C   0  0  0  0  0  0  0  0  0  0  0  0
  -26.3100  -13.0050   20.2710 N   0  0  0  0  0  0  0  0  0  0  0  0
  -25.9660  -11.7180   20.5410 N   0  0  0  0  0  0  0  0  0  0  0  0
  -23.9550  -10.4790   21.0350 C   0  0  0  0  0  0  0  0  0  0  0  0
  -24.3880   -9.5130   21.9700 C   0  0  0  0  0  3  0  0  0  0  0  0
  -23.6680   -8.3120   22.1440 C   0  0  0  0  0  3  0  0  0  0  0  0
  -22.5000   -8.0670   21.3820 C   0  0  0  0  0  0  0  0  0  0  0  0
  -22.0860   -9.0220   20.4360 C   0  0  0  0  0  3  0  0  0  0  0  0
  -22.8080  -10.2150   20.2610 C   0  0  0  0  0  3  0  0  0  0  0  0
  -21.7510   -6.9180   21.4650 O   0  0  0  0  0  0  0  0  0  0  0  0
  -21.6990   -6.1760   22.6190 C   0  0  0  0  0  0  0  0  0  0  0  0
  -21.2470   -6.7250   23.8380 C   0  0  0  0  0  3  0  0  0  0  0  0
  -21.1430   -5.9080   24.9820 C   0  0  0  0  0  3  0  0  0  0  0  0
  -21.4820   -4.5430   24.9060 C   0  0  0  0  0  0  0  0  0  0  0  0
  -21.9280   -3.9950   23.6910 C   0  0  0  0  0  3  0  0  0  0  0  0
  -22.0330   -4.8080   22.5500 C   0  0  0  0  0  0  0  0  0  0  0  0
  -22.4430   -4.2700   21.3760 F   0  0  0  0  0  0  0  0  0  0  0  0
  -21.3740   -3.7560   26.0020 F   0  0  0  0  0  0  0  0  0  0  0  0
  -22.8010  -13.5640   21.1510 C   0  0  0  0  0  0  0  0  0  0  0  0
  -22.0730  -12.8580   22.0080 N   0  0  0  0  0  0  0  0  0  0  0  0
  -22.3600  -14.5900   20.6350 O   0  0  0  0  0  0  0  0  0  0  0  0
  -22.4410  -12.0270   22.4460 H   0  0  0  0  0  0  0  0  0  0  0  0
  -21.1330  -13.1560   22.2330 H   0  0  0  0  0  0  0  0  0  0  0  0
  -25.4170  -15.2490   20.3360 N   0  0  0  0  0  0  0  0  0  0  0  0
  -24.6440  -15.8950   20.4430 H   0  0  0  0  0  0  0  0  0  0  0  0
  -26.2540  -15.6880   19.9720 H   0  0  0  0  0  0  0  0  0  0  0  0
  -28.8870  -23.6720   19.8600 C   0  0  0  0  0  2  0  0  0  0  0  0
  -28.1560  -24.9180   20.6350 C   0  0  0  0  0  2  0  0  0  0  0  0
  -28.3400  -26.3750   20.2330 O   0  0  0  0  0  0  0  0  0  0  0  0
  -24.6160  -31.9130   23.2070 C   0  0  0  0  0  0  0  0  0  0  0  0
  -27.2400  -27.2710   20.2140 C   0  0  0  0  0  0  0  0  0  0  0  0
  -23.4270  -30.5010   21.5680 C   0  0  0  0  0  3  0  0  0  0  0  0
  -24.8890  -28.9320   20.1650 C   0  0  0  0  0  0  0  0  0  0  0  0
  -25.9730  -30.8060   21.4020 C   0  0  0  0  0  2  0  0  0  0  0  0
  -26.0580  -29.4160   20.7660 C   0  0  0  0  0  0  0  0  0  0  0  0
  -27.2400  -28.6010   20.7710 C   0  0  0  0  0  3  0  0  0  0  0  0
  -26.0460  -26.8580   19.5880 C   0  0  0  0  0  3  0  0  0  0  0  0
  -24.8890  -27.6630   19.5650 C   0  0  0  0  0  3  0  0  0  0  0  0
  -23.6540  -29.8140   20.1960 C   0  0  0  0  0  2  0  0  0  0  0  0
  -24.6910  -31.0930   22.1150 N   0  0  0  0  0  0  0  0  0  0  0  0
  -23.5270  -32.1900   23.7340 O   0  0  0  0  0  0  0  0  0  0  0  0
  -22.7550  -29.4930   22.5330 C   0  0  0  0  0  0  0  0  0  0  0  0
  -21.4260  -29.3230   22.4100 N   0  0  0  0  0  0  0  0  0  0  0  0
  -23.4290  -28.8660   23.3540 O   0  0  0  0  0  0  0  0  0  0  0  0
  -20.9400  -29.8820   21.7230 H   0  0  0  0  0  0  0  0  0  0  0  0
  -18.0400  -28.1580   22.9350 C   0  0  0  0  0  0  0  0  0  0  0  0
  -20.6040  -28.3900   23.1820 C   0  0  0  0  0  3  0  0  0  0  0  0
  -20.6840  -26.9590   22.6000 C   0  0  0  0  0  2  0  0  0  0  0  0
  -19.5700  -26.6540   21.5940 C   0  0  0  0  0  2  0  0  0  0  0  0
  -18.1970  -26.8110   22.2520 C   0  0  0  0  0  2  0  0  0  0  0  0
  -19.1710  -28.9070   23.3590 C   0  0  0  0  0  0  0  0  0  0  0  0
  -18.9700  -30.1680   23.9600 C   0  0  0  0  0  3  0  0  0  0  0  0
  -17.6710  -30.6800   24.1440 C   0  0  0  0  0  3  0  0  0  0  0  0
  -16.5550  -29.9280   23.7370 C   0  0  0  0  0  3  0  0  0  0  0  0
  -16.7410  -28.6690   23.1380 C   0  0  0  0  0  3  0  0  0  0  0  0
  -25.8900  -32.5560   23.8350 C   0  0  0  0  0  3  0  0  0  0  0  0
  -26.4020  -31.7920   25.1180 C   0  0  1  0  0  0  0  0  0  0  0  0
  -25.3030  -31.5510   26.1810 C   0  0  0  0  0  1  0  0  0  0  0  0
  -26.9930  -30.4150   24.7360 C   0  0  0  0  0  1  0  0  0  0  0  0
  -27.5460  -32.5930   25.7840 C   0  0  0  0  0  1  0  0  0  0  0  0
  -25.5710  -33.9530   24.1620 N   0  0  0  0  0  0  0  0  0  0  0  0
  -25.9030  -35.0090   23.4070 C   0  0  0  0  0  0  0  0  0  0  0  0
  -26.5810  -34.9090   22.3810 O   0  0  0  0  0  0  0  0  0  0  0  0
  -24.9680  -34.1040   24.9580 H   0  0  0  0  0  0  0  0  0  0  0  0
  -24.1810  -36.8040   23.0360 C   0  0  0  0  0  1  0  0  0  0  0  0
  -25.4110  -36.3960   23.8630 C   0  0  0  0  0  3  0  0  0  0  0  0
  -27.5320  -37.2810   24.7280 C   0  0  0  0  0  1  0  0  0  0  0  0
  -26.4450  -37.4510   23.7680 N   0  0  0  0  0  0  0  0  0  0  0  0
  -26.0360  -38.3700   23.9100 H   0  0  0  0  0  0  0  0  0  0  0  0
  1  2  2  0
  2  7  1  0
  3  1  1  0
  3  6  1  0
  4  2  1  0
  5  4  1  0
  5  6  1  0
  6 46  1  0
  7 16  1  0
  8 16  1  0
  9 14  1  0
 10 11  1  0
 10  9  1  0
 12 11  1  0
 12 21  1  0
 12 13  1  0
 14  8  1  0
 14 13  1  0
 15  8  2  0
 16 17  1  0
 18 19  2  0
 19 38  1  0
 20 19  1  0
 20 23  1  0
 21 18  1  0
 21 22  1  0
 22 20  2  0
 23 24  1  0
 24 25  2  0
 26 29  1  0
 26 25  1  0
 27 26  2  0
 28 27  1  0
 28 23  2  0
 29 30  1  0
 30 31  1  0
 31 32  2  0
 33 32  1  0
 33 37  1  0
 34 33  2  0
 35 30  2  0
 35 34  1  0
 36 35  1  0
 38 39  1  0
 39 42  1  0
 39 41  1  0
 40 38  2  0
 43 44  1  0
 43 18  1  0
 45 43  1  0
 46 47  1  0
 48 47  1  0
 49 60  2  0
 50 48  1  0
 50 55  1  0
 51 59  1  0
 51 61  1  0
 52 58  1  0
 52 54  1  0
 53 59  1  0
 54 55  2  0
 54 53  1  0
 56 50  2  0
 57 56  1  0
 57 52  2  0
 58 51  1  0
 59 49  1  0
 61 63  2  0
 62 61  1  0
 64 62  1  0
 65 74  2  0
 65 70  1  0
 66 62  1  0
 66 70  1  0
 67 66  1  0
 68 69  1  0
 68 67  1  0
 69 65  1  0
 70 71  2  0
 71 72  1  0
 73 72  2  0
 74 73  1  0
 75 49  1  0
 75 80  1  0
 75 76  1  0
 76 79  1  1
 76 77  1  0
 78 76  1  0
 80 83  1  0
 81 85  1  0
 81 80  1  0
 82 81  2  0
 85 84  1  0
 87 85  1  0
 87 88  1  0
 87 86  1  0
M  ISO  4   8 100  16 100  47 101  48 101
M  END
>  <TORSDO>  (95) 
F 19

>  <SCORE>  (95) 
-14.180

>  <name>  (95) 
94

>  <ligand_id>  (95) 
94

>  <original_smiles>  (95) 
[H]C1=C(C([H])([H])N([H])C(=O)N2C([H])([H])C([H])([H])C([H])([H])C([H])(n3nc(-c4c([H])c([H])c(Oc5c([H])c([H])c(F)c([H])c5F)c([H])c4[H])c(C(=O)N([H])[H])c3N([H])[H])C2([H])[H])C([H])([H])C([H])([H])C([H])(C([H])([H])C([H])([H])Oc2c([H])c([H])c3c(c2[H])C([H])([H])N(C(=O)C([H])(N([H])C(=O)C([H])(N([H])C([H])([H])[H])C([H])([H])[H])C(C([H])([H])[H])(C([H])([H])[H])C([H])([H])[H])C([H])(C(=O)N([H])C2([H])c4c([H])c([H])c([H])c([H])c4C([H])([H])C([H])([H])C2([H])[H])C3([H])[H])C1([H])[H]

>  <smiles>  (95) 
[H]C1=C(C([H])([H])N([H])C(=O)N2C([H])([H])C([H])([H])C([H])([H])C([H])(n3nc(-c4c([H])c([H])c(Oc5c([H])c([H])c(F)c([H])c5F)c([H])c4[H])c(C(=O)N([H])[H])c3N([H])[H])C2([H])[H])C([H])([H])C([H])([H])C([H])(C([H])([H])C([H])([H])Oc2c([H])c([H])c3c(c2[H])C([H])([H])N(C(=O)C([H])(N([H])C(=O)C([H])(N([H])C([H])([H])[H])C([H])([H])[H])C(C([H])([H])[H])(C([H])([H])[H])C([H])([H])[H])C([H])(C(=O)N([H])C2([H])c4c([H])c([H])c([H])c([H])c4C([H])([H])C([H])([H])C2([H])[H])C3([H])[H])C1([H])[H]

$$$$
95:0:0
     RDKit          3D

 90 98  0  0  1  0  0  0  0  0999 V2000
  -31.8970  -20.1560   19.3760 C   0  0  0  0  0  3  0  0  0  0  0  0
  -32.0690  -18.8570   19.1210 C   0  0  0  0  0  3  0  0  0  0  0  0
  -30.8450  -20.8210   19.8710 C   0  0  0  0  0  3  0  0  0  0  0  0
  -31.2970  -17.7880   19.3690 C   0  0  0  0  0  3  0  0  0  0  0  0
  -29.5970  -20.4660   20.2330 C   0  0  0  0  0  0  0  0  0  0  0  0
  -30.1550  -17.5760   20.0620 C   0  0  0  0  0  3  0  0  0  0  0  0
  -29.2740  -18.8860   20.4020 C   0  0  0  0  0  0  0  0  0  0  0  0
  -28.1640  -18.6310   20.8790 O   0  0  0  0  0  0  0  0  0  0  0  0
  -30.4880  -14.9170   20.0990 C   0  0  0  0  0  0  0  0  0  0  0  0
  -30.2630  -12.6180   19.0760 C   0  0  0  0  0  2  0  0  0  0  0  0
  -29.2830  -12.6530   17.8830 C   0  0  0  0  0  2  0  0  0  0  0  0
  -27.8350  -12.4510   18.3690 C   0  0  0  0  0  2  0  0  0  0  0  0
  -27.4960  -13.3300   19.6030 C   0  0  0  0  0  3  0  0  0  0  0  0
  -28.5970  -13.2750   20.6830 C   0  0  0  0  0  2  0  0  0  0  0  0
  -29.8470  -13.6840   20.0350 N   0  0  0  0  0  0  0  0  0  0  0  0
  -31.6860  -14.9180   19.7940 O   0  0  0  0  0  0  0  0  0  0  0  0
  -29.7700  -16.1350   20.2970 N   0  0  0  0  0  0  0  0  0  0  0  0
  -28.8210  -16.0170   20.6160 H   0  0  0  0  0  0  0  0  0  0  0  0
  -25.1400  -13.8940   20.4210 C   0  0  0  0  0  0  0  0  0  0  0  0
  -24.0900  -13.1120   20.8200 C   0  0  0  0  0  0  0  0  0  0  0  0
  -24.5610  -11.7640   20.7690 C   0  0  0  0  0  0  0  0  0  0  0  0
  -26.1780  -13.0220   20.1440 N   0  0  0  0  0  0  0  0  0  0  0  0
  -25.8410  -11.7350   20.4180 N   0  0  0  0  0  0  0  0  0  0  0  0
  -23.8470  -10.4960   20.9750 C   0  0  0  0  0  0  0  0  0  0  0  0
  -24.3070   -9.5280   21.8960 C   0  0  0  0  0  3  0  0  0  0  0  0
  -23.5920   -8.3270   22.0910 C   0  0  0  0  0  3  0  0  0  0  0  0
  -22.4020   -8.0850   21.3650 C   0  0  0  0  0  0  0  0  0  0  0  0
  -21.9590   -9.0400   20.4340 C   0  0  0  0  0  3  0  0  0  0  0  0
  -22.6750  -10.2330   20.2370 C   0  0  0  0  0  3  0  0  0  0  0  0
  -21.6550   -6.9370   21.4710 O   0  0  0  0  0  0  0  0  0  0  0  0
  -21.6340   -6.1940   22.6240 C   0  0  0  0  0  0  0  0  0  0  0  0
  -21.2250   -6.7450   23.8580 C   0  0  0  0  0  3  0  0  0  0  0  0
  -21.1530   -5.9290   25.0050 C   0  0  0  0  0  3  0  0  0  0  0  0
  -21.4800   -4.5630   24.9180 C   0  0  0  0  0  0  0  0  0  0  0  0
  -21.8830   -4.0110   23.6900 C   0  0  0  0  0  3  0  0  0  0  0  0
  -21.9570   -4.8240   22.5450 C   0  0  0  0  0  0  0  0  0  0  0  0
  -22.3260   -4.2830   21.3590 F   0  0  0  0  0  0  0  0  0  0  0  0
  -21.4040   -3.7760   26.0160 F   0  0  0  0  0  0  0  0  0  0  0  0
  -22.7010  -13.5800   21.1380 C   0  0  0  0  0  0  0  0  0  0  0  0
  -22.0030  -12.8790   22.0250 N   0  0  0  0  0  0  0  0  0  0  0  0
  -22.2430  -14.6040   20.6350 O   0  0  0  0  0  0  0  0  0  0  0  0
  -22.3850  -12.0470   22.4470 H   0  0  0  0  0  0  0  0  0  0  0  0
  -21.0750  -13.1820   22.2870 H   0  0  0  0  0  0  0  0  0  0  0  0
  -25.2930  -15.2670   20.2480 N   0  0  0  0  0  0  0  0  0  0  0  0
  -24.5240  -15.9150   20.3870 H   0  0  0  0  0  0  0  0  0  0  0  0
  -26.1270  -15.7150   19.8920 H   0  0  0  0  0  0  0  0  0  0  0  0
  -28.5580  -21.7190   20.4820 C   0  0  0  0  0  3  0  0  0  0  0  0
  -28.9510  -23.3520   20.2510 C   0  0  0  0  0  3  0  0  0  0  0  0
  -27.8970  -24.6520   20.3630 C   0  0  0  0  0  3  0  0  0  0  0  0
  -28.2120  -26.1720   20.2320 O   0  0  0  0  0  0  0  0  0  0  0  0
  -24.6220  -31.8550   23.2430 C   0  0  0  0  0  0  0  0  0  0  0  0
  -27.1610  -27.1560   20.1860 C   0  0  0  0  0  0  0  0  0  0  0  0
  -23.4100  -30.4750   21.6000 C   0  0  0  0  0  3  0  0  0  0  0  0
  -24.8440  -28.9100   20.1580 C   0  0  0  0  0  0  0  0  0  0  0  0
  -25.9650  -30.7350   21.4240 C   0  0  0  0  0  2  0  0  0  0  0  0
  -26.0270  -29.3480   20.7680 C   0  0  0  0  0  0  0  0  0  0  0  0
  -27.1880  -28.4870   20.7630 C   0  0  0  0  0  3  0  0  0  0  0  0
  -25.9540  -26.8250   19.5320 C   0  0  0  0  0  3  0  0  0  0  0  0
  -24.8200  -27.6610   19.5230 C   0  0  0  0  0  3  0  0  0  0  0  0
  -23.6210  -29.8090   20.2130 C   0  0  0  0  0  2  0  0  0  0  0  0
  -24.6870  -31.0430   22.1450 N   0  0  0  0  0  0  0  0  0  0  0  0
  -23.5380  -32.1400   23.7760 O   0  0  0  0  0  0  0  0  0  0  0  0
  -22.7340  -29.4600   22.5570 C   0  0  0  0  0  0  0  0  0  0  0  0
  -21.4060  -29.2910   22.4330 N   0  0  0  0  0  0  0  0  0  0  0  0
  -23.4080  -28.8280   23.3760 O   0  0  0  0  0  0  0  0  0  0  0  0
  -20.9170  -29.8570   21.7530 H   0  0  0  0  0  0  0  0  0  0  0  0
  -18.0270  -28.0870   22.9220 C   0  0  0  0  0  0  0  0  0  0  0  0
  -20.5830  -28.3520   23.2010 C   0  0  0  0  0  3  0  0  0  0  0  0
  -20.6890  -26.9190   22.6300 C   0  0  0  0  0  2  0  0  0  0  0  0
  -19.5930  -26.5930   21.6120 C   0  0  0  0  0  2  0  0  0  0  0  0
  -18.2080  -26.7380   22.2500 C   0  0  0  0  0  2  0  0  0  0  0  0
  -19.1410  -28.8530   23.3550 C   0  0  0  0  0  0  0  0  0  0  0  0
  -18.9180  -30.1160   23.9450 C   0  0  0  0  0  3  0  0  0  0  0  0
  -17.6100  -30.6120   24.1120 C   0  0  0  0  0  3  0  0  0  0  0  0
  -16.5100  -29.8420   23.6950 C   0  0  0  0  0  3  0  0  0  0  0  0
  -16.7180  -28.5830   23.1040 C   0  0  0  0  0  3  0  0  0  0  0  0
  -25.9060  -32.4840   23.8680 C   0  0  0  0  0  3  0  0  0  0  0  0
  -26.4170  -31.7090   25.1440 C   0  0  1  0  0  0  0  0  0  0  0  0
  -25.3240  -31.4790   26.2150 C   0  0  0  0  0  1  0  0  0  0  0  0
  -26.9920  -30.3280   24.7550 C   0  0  0  0  0  1  0  0  0  0  0  0
  -27.5740  -32.4930   25.8060 C   0  0  0  0  0  1  0  0  0  0  0  0
  -25.6010  -33.8820   24.2060 N   0  0  0  0  0  0  0  0  0  0  0  0
  -25.9180  -34.9390   23.4460 C   0  0  0  0  0  0  0  0  0  0  0  0
  -26.5640  -34.8410   22.3990 O   0  0  0  0  0  0  0  0  0  0  0  0
  -25.0280  -34.0320   25.0240 H   0  0  0  0  0  0  0  0  0  0  0  0
  -24.1730  -36.7290   23.1630 C   0  0  0  0  0  1  0  0  0  0  0  0
  -25.4450  -36.3260   23.9260 C   0  0  0  0  0  3  0  0  0  0  0  0
  -27.6050  -37.2210   24.6780 C   0  0  0  0  0  1  0  0  0  0  0  0
  -26.4670  -37.3810   23.7750 N   0  0  0  0  0  0  0  0  0  0  0  0
  -26.0640  -38.3000   23.9400 H   0  0  0  0  0  0  0  0  0  0  0  0
  1  3  2  0
  2  4  2  0
  2  1  1  0
  3  5  1  0
  4  6  1  0
  5  7  1  0
  5 47  2  0
  6 17  1  0
  6  7  1  0
  7  8  2  0
  9 17  1  0
 10 15  1  0
 11 12  1  0
 11 10  1  0
 13 12  1  0
 13 22  1  0
 13 14  1  0
 15  9  1  0
 15 14  1  0
 16  9  2  0
 17 18  1  0
 19 20  2  0
 20 39  1  0
 21 20  1  0
 21 24  1  0
 22 23  1  0
 22 19  1  0
 23 21  2  0
 24 25  1  0
 25 26  2  0
 27 30  1  0
 27 26  1  0
 28 27  2  0
 29 28  1  0
 29 24  2  0
 30 31  1  0
 31 32  1  0
 32 33  2  0
 34 33  1  0
 34 38  1  0
 35 34  2  0
 36 31  2  0
 36 35  1  0
 37 36  1  0
 39 40  1  0
 40 43  1  0
 40 42  1  0
 41 39  2  0
 44 45  1  0
 44 19  1  0
 46 44  1  0
 48 49  2  0
 48 47  1  0
 50 49  1  0
 51 62  2  0
 52 50  1  0
 52 57  1  0
 53 61  1  0
 53 63  1  0
 54 60  1  0
 54 56  1  0
 55 61  1  0
 56 55  1  0
 57 56  2  0
 58 52  2  0
 59 58  1  0
 59 54  2  0
 60 53  1  0
 61 51  1  0
 63 65  2  0
 64 63  1  0
 66 64  1  0
 67 76  2  0
 67 72  1  0
 68 64  1  0
 68 72  1  0
 69 68  1  0
 70 71  1  0
 70 69  1  0
 71 67  1  0
 72 73  2  0
 73 74  1  0
 75 74  2  0
 76 75  1  0
 77 51  1  0
 77 82  1  0
 77 78  1  0
 78 81  1  1
 78 79  1  0
 80 78  1  0
 82 85  1  0
 83 87  1  0
 83 82  1  0
 84 83  2  0
 87 86  1  0
 89 87  1  0
 89 90  1  0
 89 88  1  0
M  ISO  4   9 100  17 100  49 101  50 101
M  END
>  <TORSDO>  (96) 
F 19

>  <SCORE>  (96) 
-14.947

>  <name>  (96) 
95

>  <ligand_id>  (96) 
95

>  <original_smiles>  (96) 
[H]c1c([H])c([H])c2c(c1[H])C([H])([H])C([H])([H])C([H])([H])C2([H])N([H])C(=O)C1([H])N(C(=O)C([H])(N([H])C(=O)C([H])(N([H])C([H])([H])[H])C([H])([H])[H])C(C([H])([H])[H])(C([H])([H])[H])C([H])([H])[H])C([H])([H])c2c([H])c(OC([H])([H])C([H])([H])C([H])([H])c3c([H])c([H])c([H])c([H])c(N([H])C(=O)N4C([H])([H])C([H])([H])C([H])([H])C([H])(n5nc(-c6c([H])c([H])c(Oc7c([H])c([H])c(F)c([H])c7F)c([H])c6[H])c(C(=O)N([H])[H])c5N([H])[H])C4([H])[H])c3=O)c([H])c([H])c2C1([H])[H]

>  <smiles>  (96) 
[H]c1c([H])c([H])c2c(c1[H])C([H])([H])C([H])([H])C([H])([H])C2([H])N([H])C(=O)C1([H])N(C(=O)C([H])(N([H])C(=O)C([H])(N([H])C([H])([H])[H])C([H])([H])[H])C(C([H])([H])[H])(C([H])([H])[H])C([H])([H])[H])C([H])([H])c2c([H])c(OC([H])([H])C([H])([H])C([H])([H])c3c([H])c([H])c([H])c([H])c(N([H])C(=O)N4C([H])([H])C([H])([H])C([H])([H])C([H])(n5nc(-c6c([H])c([H])c(Oc7c([H])c([H])c(F)c([H])c7F)c([H])c6[H])c(C(=O)N([H])[H])c5N([H])[H])C4([H])[H])c3=O)c([H])c([H])c2C1([H])[H]

$$$$
