0:0:0
     RDKit          3D

 95103  0  0  1  0  0  0  0  0999 V2000
  -28.7670  -21.7620   19.5370 C   0  0  0  0  0  2  0  0  0  0  0  0
  -29.9390  -23.1470   21.0720 C   0  0  0  0  0  2  0  0  0  0  0  0
  -29.1230  -23.3630   19.7870 C   0  0  0  0  0  3  0  0  0  0  0  0
  -29.6360  -20.6970   20.4560 C   0  0  0  0  0  3  0  0  0  0  0  0
  -30.6860  -21.7510   21.0010 C   0  0  1  0  0  0  0  0  0  0  0  0
  -30.3320  -19.1900   20.0440 C   0  0  0  0  0  2  0  0  0  0  0  0
  -29.6690  -17.6730   19.7540 C   0  0  0  0  0  2  0  0  0  0  0  0
  -30.7480  -15.1110   20.2020 C   0  0  0  0  0  0  0  0  0  0  0  0
  -30.6590  -12.7160   19.3940 C   0  0  0  0  0  2  0  0  0  0  0  0
  -29.7520  -12.6570   18.1390 C   0  0  0  0  0  2  0  0  0  0  0  0
  -28.2730  -12.4720   18.5370 C   0  0  0  0  0  2  0  0  0  0  0  0
  -27.8510  -13.4090   19.7020 C   0  0  0  0  0  3  0  0  0  0  0  0
  -28.8910  -13.4480   20.8440 C   0  0  0  0  0  2  0  0  0  0  0  0
  -30.1820  -13.8360   20.2550 N   0  0  0  0  0  0  0  0  0  0  0  0
  -31.9110  -15.1980   19.7900 O   0  0  0  0  0  0  0  0  0  0  0  0
  -29.9590  -16.2690   20.4470 N   0  0  0  0  0  0  0  0  0  0  0  0
  -29.1590  -15.9960   21.0000 H   0  0  0  0  0  0  0  0  0  0  0  0
  -25.4680  -13.9910   20.4350 C   0  0  0  0  0  0  0  0  0  0  0  0
  -24.4010  -13.2210   20.8070 C   0  0  0  0  0  0  0  0  0  0  0  0
  -24.8620  -11.8690   20.7730 C   0  0  0  0  0  0  0  0  0  0  0  0
  -26.5090  -13.1110   20.1960 N   0  0  0  0  0  0  0  0  0  0  0  0
  -26.1540  -11.8270   20.4690 N   0  0  0  0  0  0  0  0  0  0  0  0
  -24.1260  -10.6100   20.9700 C   0  0  0  0  0  0  0  0  0  0  0  0
  -24.5390   -9.6530   21.9250 C   0  0  0  0  0  3  0  0  0  0  0  0
  -23.8070   -8.4580   22.1000 C   0  0  0  0  0  3  0  0  0  0  0  0
  -22.6480   -8.2110   21.3290 C   0  0  0  0  0  0  0  0  0  0  0  0
  -22.2560   -9.1570   20.3650 C   0  0  0  0  0  3  0  0  0  0  0  0
  -22.9890  -10.3420   20.1820 C   0  0  0  0  0  3  0  0  0  0  0  0
  -21.8840   -7.0720   21.4170 O   0  0  0  0  0  0  0  0  0  0  0  0
  -21.7830   -6.3620   22.5870 C   0  0  0  0  0  0  0  0  0  0  0  0
  -21.2890   -6.9490   23.7740 C   0  0  0  0  0  3  0  0  0  0  0  0
  -21.1360   -6.1680   24.9350 C   0  0  0  0  0  3  0  0  0  0  0  0
  -21.4550   -4.7950   24.9110 C   0  0  0  0  0  0  0  0  0  0  0  0
  -21.9380   -4.2080   23.7310 C   0  0  0  0  0  3  0  0  0  0  0  0
  -22.0950   -4.9880   22.5720 C   0  0  0  0  0  0  0  0  0  0  0  0
  -22.5390   -4.4110   21.4280 F   0  0  0  0  0  0  0  0  0  0  0  0
  -21.3050   -4.0410   26.0270 F   0  0  0  0  0  0  0  0  0  0  0  0
  -23.0030  -13.6990   21.0760 C   0  0  0  0  0  0  0  0  0  0  0  0
  -22.2690  -13.0160   21.9450 N   0  0  0  0  0  0  0  0  0  0  0  0
  -22.5710  -14.7220   20.5450 O   0  0  0  0  0  0  0  0  0  0  0  0
  -22.6390  -12.1990   22.4010 H   0  0  0  0  0  0  0  0  0  0  0  0
  -21.3290  -13.3210   22.1620 H   0  0  0  0  0  0  0  0  0  0  0  0
  -25.6350  -15.3600   20.2490 N   0  0  0  0  0  0  0  0  0  0  0  0
  -24.8690  -16.0150   20.3310 H   0  0  0  0  0  0  0  0  0  0  0  0
  -26.4830  -15.7800   19.8780 H   0  0  0  0  0  0  0  0  0  0  0  0
  -28.0290  -24.6580   19.7830 C   0  0  0  0  0  2  0  0  0  0  0  0
  -28.2880  -26.1870   19.9660 O   0  0  0  0  0  0  0  0  0  0  0  0
  -24.6110  -31.7740   23.1250 C   0  0  0  0  0  0  0  0  0  0  0  0
  -27.2170  -27.1610   19.9410 C   0  0  0  0  0  0  0  0  0  0  0  0
  -23.4120  -30.4130   21.4550 C   0  0  0  0  0  3  0  0  0  0  0  0
  -24.8650  -28.8840   19.9810 C   0  0  0  0  0  0  0  0  0  0  0  0
  -25.9620  -30.7000   21.2830 C   0  0  0  0  0  2  0  0  0  0  0  0
  -26.0450  -29.3270   20.5940 C   0  0  0  0  0  0  0  0  0  0  0  0
  -27.2180  -28.4770   20.5630 C   0  0  0  0  0  3  0  0  0  0  0  0
  -26.0080  -26.8300   19.2900 C   0  0  0  0  0  3  0  0  0  0  0  0
  -24.8580  -27.6480   19.3190 C   0  0  0  0  0  3  0  0  0  0  0  0
  -23.6300  -29.7690   20.0600 C   0  0  0  0  0  2  0  0  0  0  0  0
  -24.6820  -30.9830   22.0090 N   0  0  0  0  0  0  0  0  0  0  0  0
  -23.5280  -32.0380   23.6670 O   0  0  0  0  0  0  0  0  0  0  0  0
  -22.7500  -29.3730   22.3940 C   0  0  0  0  0  0  0  0  0  0  0  0
  -21.4240  -29.1820   22.2620 N   0  0  0  0  0  0  0  0  0  0  0  0
  -23.4320  -28.7440   23.2070 O   0  0  0  0  0  0  0  0  0  0  0  0
  -20.9290  -29.7520   21.5900 H   0  0  0  0  0  0  0  0  0  0  0  0
  -18.0730  -27.8890   22.7110 C   0  0  0  0  0  0  0  0  0  0  0  0
  -20.6210  -28.2130   23.0130 C   0  0  0  0  0  3  0  0  0  0  0  0
  -20.7640  -26.7920   22.4220 C   0  0  0  0  0  2  0  0  0  0  0  0
  -19.6830  -26.4510   21.3900 C   0  0  0  0  0  2  0  0  0  0  0  0
  -18.2910  -26.5520   22.0210 C   0  0  0  0  0  2  0  0  0  0  0  0
  -19.1670  -28.6750   23.1630 C   0  0  0  0  0  0  0  0  0  0  0  0
  -18.9100  -29.9230   23.7700 C   0  0  0  0  0  3  0  0  0  0  0  0
  -17.5920  -30.3860   23.9330 C   0  0  0  0  0  3  0  0  0  0  0  0
  -16.5110  -29.5990   23.4970 C   0  0  0  0  0  3  0  0  0  0  0  0
  -16.7540  -28.3510   22.8900 C   0  0  0  0  0  3  0  0  0  0  0  0
  -25.8880  -32.4030   23.7610 C   0  0  0  0  0  3  0  0  0  0  0  0
  -26.4100  -31.6050   25.0200 C   0  0  1  0  0  0  0  0  0  0  0  0
  -25.3250  -31.3480   26.0900 C   0  0  0  0  0  1  0  0  0  0  0  0
  -26.9980  -30.2360   24.6040 C   0  0  0  0  0  1  0  0  0  0  0  0
  -27.5550  -32.3900   25.7010 C   0  0  0  0  0  1  0  0  0  0  0  0
  -25.5670  -33.7900   24.1350 N   0  0  0  0  0  0  0  0  0  0  0  0
  -25.8570  -34.8700   23.3980 C   0  0  0  0  0  0  0  0  0  0  0  0
  -26.4970  -34.8050   22.3450 O   0  0  0  0  0  0  0  0  0  0  0  0
  -24.9900  -33.9120   24.9540 H   0  0  0  0  0  0  0  0  0  0  0  0
  -24.0830  -36.6420   23.1630 C   0  0  0  0  0  1  0  0  0  0  0  0
  -25.3640  -36.2380   23.9100 C   0  0  0  0  0  3  0  0  0  0  0  0
  -27.5160  -37.1520   24.6640 C   0  0  0  0  0  1  0  0  0  0  0  0
  -26.3690  -37.3150   23.7760 N   0  0  0  0  0  0  0  0  0  0  0  0
  -25.9500  -38.2230   23.9600 H   0  0  0  0  0  0  0  0  0  0  0  0
  -31.8870  -21.8160   19.9840 C   0  0  0  0  0  2  0  0  0  0  0  0
  -34.1000  -22.8310   19.1310 C   0  0  0  0  0  1  0  0  0  0  0  0
  -32.9150  -22.9710   20.1090 C   0  0  0  0  0  2  0  0  0  0  0  0
  -31.2420  -21.3610   22.4110 C   0  0  0  0  0  2  0  0  0  0  0  0
  -30.2170  -21.2400   23.4700 N   0  0  0  0  0  4  0  0  0  0  0  0
  -29.8470  -22.1410   23.7180 H   0  0  0  0  0  0  0  0  0  0  0  0
  -30.6370  -20.8470   24.2960 H   0  0  0  0  0  0  0  0  0  0  0  0
  -29.4640  -20.6370   23.1910 H   0  0  0  0  0  0  0  0  0  0  0  0
  1  3  1  0
  1  4  1  0
  3 46  1  0
  3  2  1  0
  4  6  1  0
  4  5  1  0
  5 88  1  6
  5  2  1  0
  5 91  1  0
  7  6  1  0
  7 16  1  0
  8 14  1  0
  8 16  1  0
  9 14  1  0
 10 11  1  0
 10  9  1  0
 12 11  1  0
 12 21  1  0
 12 13  1  0
 14 13  1  0
 15  8  2  0
 16 17  1  0
 18 19  2  0
 19 38  1  0
 20 19  1  0
 20 23  1  0
 21 18  1  0
 21 22  1  0
 22 20  2  0
 23 24  1  0
 24 25  2  0
 26 29  1  0
 26 25  1  0
 27 26  2  0
 28 27  1  0
 28 23  2  0
 29 30  1  0
 30 31  1  0
 31 32  2  0
 33 32  1  0
 33 37  1  0
 34 33  2  0
 35 30  2  0
 35 34  1  0
 36 35  1  0
 38 39  1  0
 39 42  1  0
 39 41  1  0
 40 38  2  0
 43 44  1  0
 43 18  1  0
 45 43  1  0
 46 47  1  0
 48 59  2  0
 49 47  1  0
 49 54  1  0
 50 58  1  0
 50 60  1  0
 51 57  1  0
 51 53  1  0
 52 58  1  0
 53 52  1  0
 54 53  2  0
 55 56  1  0
 55 49  2  0
 56 51  2  0
 57 50  1  0
 58 48  1  0
 60 62  2  0
 61 60  1  0
 63 61  1  0
 64 73  2  0
 64 69  1  0
 65 61  1  0
 65 69  1  0
 66 65  1  0
 67 68  1  0
 67 66  1  0
 68 64  1  0
 69 70  2  0
 70 71  1  0
 72 71  2  0
 73 72  1  0
 74 48  1  0
 74 79  1  0
 74 75  1  0
 75 78  1  1
 75 76  1  0
 77 75  1  0
 79 82  1  0
 80 84  1  0
 80 79  1  0
 81 80  2  0
 84 83  1  0
 86 84  1  0
 86 87  1  0
 86 85  1  0
 88 90  1  0
 89 90  1  0
 91 92  1  0
 92 93  1  0
 92 94  1  0
 95 92  1  0
M  ISO  4   8 100  16 100  46 101  47 101
M  END
>  <TORSDO>  (1) 
F 23

>  <SCORE>  (1) 
-14.055

>  <name>  (1) 
0

>  <ligand_id>  (1) 
0

>  <original_smiles>  (1) 
[H]c1c([H])c([H])c2c(c1[H])C([H])([H])C([H])([H])C([H])([H])C2([H])N([H])C(=O)C1([H])N(C(=O)C([H])(N([H])C(=O)C([H])(N([H])C([H])([H])[H])C([H])([H])[H])C(C([H])([H])[H])(C([H])([H])[H])C([H])([H])[H])C([H])([H])c2c([H])c(OC([H])([H])C3([H])C([H])([H])C([H])(C([H])([H])C([H])([H])N([H])C(=O)N4C([H])([H])C([H])([H])C([H])([H])C([H])(n5nc(-c6c([H])c([H])c(Oc7c([H])c([H])c(F)c([H])c7F)c([H])c6[H])c(C(=O)N([H])[H])c5N([H])[H])C4([H])[H])C(C([H])([H])C([H])([H])C([H])([H])[H])(C([H])([H])[N+]([H])([H])[H])C3([H])[H])c([H])c([H])c2C1([H])[H]

>  <smiles>  (1) 
[H]c1c([H])c([H])c2c(c1[H])C([H])([H])C([H])([H])C([H])([H])C2([H])N([H])C(=O)C1([H])N(C(=O)C([H])(N([H])C(=O)C([H])(N([H])C([H])([H])[H])C([H])([H])[H])C(C([H])([H])[H])(C([H])([H])[H])C([H])([H])[H])C([H])([H])c2c([H])c(OC([H])([H])C3([H])C([H])([H])C([H])(C([H])([H])C([H])([H])N([H])C(=O)N4C([H])([H])C([H])([H])C([H])([H])C([H])(n5nc(-c6c([H])c([H])c(Oc7c([H])c([H])c(F)c([H])c7F)c([H])c6[H])c(C(=O)N([H])[H])c5N([H])[H])C4([H])[H])C(C([H])([H])C([H])([H])C([H])([H])[H])(C([H])([H])[N+]([H])([H])[H])C3([H])[H])c([H])c([H])c2C1([H])[H]

$$$$
1:0:0
     RDKit          3D

 93100  0  0  1  0  0  0  0  0999 V2000
  -30.4100  -22.0130   20.0880 C   0  0  0  0  0  3  0  0  0  0  0  0
  -31.2690  -21.7760   18.8280 C   0  0  0  0  0  0  0  0  0  0  0  0
  -30.7580  -21.5850   17.7200 O   0  0  0  0  0  0  0  0  0  0  0  0
  -33.5910  -21.7430   17.7040 C   0  0  0  0  0  1  0  0  0  0  0  0
  -32.7880  -21.7560   19.0170 C   0  0  0  0  0  2  0  0  0  0  0  0
  -29.2440  -23.0080   19.8020 C   0  0  0  0  0  2  0  0  0  0  0  0
  -29.5000  -24.4930   20.1840 C   0  0  0  0  0  3  0  0  0  0  0  0
  -30.8960  -25.2640   18.0970 C   0  0  0  0  0  1  0  0  0  0  0  0
  -30.7980  -25.1280   19.6260 C   0  0  0  0  0  2  0  0  0  0  0  0
  -28.2480  -25.3140   19.8250 C   0  0  0  0  0  2  0  0  0  0  0  0
  -28.3560  -26.6980   20.1630 O   0  0  0  0  0  0  0  0  0  0  0  0
  -24.5990  -31.8820   23.2370 C   0  0  0  0  0  0  0  0  0  0  0  0
  -27.1830  -27.4260   20.1380 C   0  0  0  0  0  0  0  0  0  0  0  0
  -23.3700  -30.4820   21.6100 C   0  0  0  0  0  3  0  0  0  0  0  0
  -24.7990  -28.9480   20.1690 C   0  0  0  0  0  0  0  0  0  0  0  0
  -25.8940  -30.8350   21.3840 C   0  0  0  0  0  2  0  0  0  0  0  0
  -25.9660  -29.4630   20.7470 C   0  0  0  0  0  0  0  0  0  0  0  0
  -27.1590  -28.7070   20.7330 C   0  0  0  0  0  3  0  0  0  0  0  0
  -25.9900  -26.9310   19.5510 C   0  0  0  0  0  3  0  0  0  0  0  0
  -24.8070  -27.6820   19.5700 C   0  0  0  0  0  3  0  0  0  0  0  0
  -23.5610  -29.8090   20.2260 C   0  0  0  0  0  2  0  0  0  0  0  0
  -24.6390  -31.0830   22.1350 N   0  0  0  0  0  0  0  0  0  0  0  0
  -23.5250  -32.1570   23.7890 O   0  0  0  0  0  0  0  0  0  0  0  0
  -22.7310  -29.4600   22.5750 C   0  0  0  0  0  0  0  0  0  0  0  0
  -21.4060  -29.2770   22.4590 N   0  0  0  0  0  0  0  0  0  0  0  0
  -23.4210  -28.8350   23.3860 O   0  0  0  0  0  0  0  0  0  0  0  0
  -20.9130  -29.8320   21.7720 H   0  0  0  0  0  0  0  0  0  0  0  0
  -18.0350  -28.0810   22.9720 C   0  0  0  0  0  0  0  0  0  0  0  0
  -20.5940  -28.3450   23.2370 C   0  0  0  0  0  3  0  0  0  0  0  0
  -20.6980  -26.9110   22.6700 C   0  0  0  0  0  2  0  0  0  0  0  0
  -19.5950  -26.5780   21.6610 C   0  0  0  0  0  2  0  0  0  0  0  0
  -18.2140  -26.7250   22.3080 C   0  0  0  0  0  2  0  0  0  0  0  0
  -19.1540  -28.8470   23.3940 C   0  0  0  0  0  0  0  0  0  0  0  0
  -18.9350  -30.1140   23.9770 C   0  0  0  0  0  3  0  0  0  0  0  0
  -17.6300  -30.6140   24.1440 C   0  0  0  0  0  3  0  0  0  0  0  0
  -16.5250  -29.8450   23.7380 C   0  0  0  0  0  3  0  0  0  0  0  0
  -16.7290  -28.5810   23.1580 C   0  0  0  0  0  3  0  0  0  0  0  0
  -25.8940  -32.5070   23.8420 C   0  0  0  0  0  3  0  0  0  0  0  0
  -26.4360  -31.7240   25.1010 C   0  0  1  0  0  0  0  0  0  0  0  0
  -25.3630  -31.4750   26.1860 C   0  0  0  0  0  1  0  0  0  0  0  0
  -27.0140  -30.3520   24.6840 C   0  0  0  0  0  1  0  0  0  0  0  0
  -27.6030  -32.5110   25.7430 C   0  0  0  0  0  1  0  0  0  0  0  0
  -25.5900  -33.9030   24.1880 N   0  0  0  0  0  0  0  0  0  0  0  0
  -25.9070  -34.9590   23.4250 C   0  0  0  0  0  0  0  0  0  0  0  0
  -26.5580  -34.8600   22.3830 O   0  0  0  0  0  0  0  0  0  0  0  0
  -25.0120  -34.0540   25.0010 H   0  0  0  0  0  0  0  0  0  0  0  0
  -24.1670  -36.7430   23.1100 C   0  0  0  0  0  1  0  0  0  0  0  0
  -25.4240  -36.3430   23.8970 C   0  0  0  0  0  3  0  0  0  0  0  0
  -27.5750  -37.2270   24.6820 C   0  0  0  0  0  1  0  0  0  0  0  0
  -26.4520  -37.4000   23.7660 N   0  0  0  0  0  0  0  0  0  0  0  0
  -26.0470  -38.3180   23.9320 H   0  0  0  0  0  0  0  0  0  0  0  0
  -29.9580  -20.6990   20.8200 C   0  0  0  0  0  3  0  0  0  0  0  0
  -30.3020  -19.3450   20.1530 C   0  0  0  0  0  3  0  0  0  0  0  0
  -29.8740  -18.0820   20.9320 C   0  0  0  0  0  2  0  0  0  0  0  0
  -30.3030  -16.8310   20.1420 C   0  0  0  0  0  2  0  0  0  0  0  0
  -30.6870  -14.4320   20.4520 C   0  0  0  0  0  0  0  0  0  0  0  0
  -30.3160  -12.2750   19.3520 C   0  0  0  0  0  2  0  0  0  0  0  0
  -29.3940  -12.5290   18.1410 C   0  0  0  0  0  2  0  0  0  0  0  0
  -27.9130  -12.4340   18.5530 C   0  0  0  0  0  2  0  0  0  0  0  0
  -27.5900  -13.2590   19.8320 C   0  0  0  0  0  3  0  0  0  0  0  0
  -28.6420  -13.0300   20.9430 C   0  0  0  0  0  2  0  0  0  0  0  0
  -29.9750  -13.2780   20.3730 N   0  0  0  0  0  0  0  0  0  0  0  0
  -31.8370  -14.5350   20.0240 O   0  0  0  0  0  0  0  0  0  0  0  0
  -29.9760  -15.5330   20.7530 N   0  0  0  0  0  0  0  0  0  0  0  0
  -29.0380  -15.3940   21.0960 H   0  0  0  0  0  0  0  0  0  0  0  0
  -25.1940  -13.8770   20.5370 C   0  0  0  0  0  0  0  0  0  0  0  0
  -24.1210  -13.1120   20.9100 C   0  0  0  0  0  0  0  0  0  0  0  0
  -24.5770  -11.7580   20.8850 C   0  0  0  0  0  0  0  0  0  0  0  0
  -26.2350  -12.9900   20.3100 N   0  0  0  0  0  0  0  0  0  0  0  0
  -25.8680  -11.7120   20.5800 N   0  0  0  0  0  0  0  0  0  0  0  0
  -23.8440  -10.4990   21.0790 C   0  0  0  0  0  0  0  0  0  0  0  0
  -24.2880   -9.5210   21.9940 C   0  0  0  0  0  3  0  0  0  0  0  0
  -23.5550   -8.3270   22.1770 C   0  0  0  0  0  3  0  0  0  0  0  0
  -22.3640   -8.1050   21.4470 C   0  0  0  0  0  0  0  0  0  0  0  0
  -21.9390   -9.0730   20.5200 C   0  0  0  0  0  3  0  0  0  0  0  0
  -22.6740  -10.2570   20.3340 C   0  0  0  0  0  3  0  0  0  0  0  0
  -21.6010   -6.9680   21.5430 O   0  0  0  0  0  0  0  0  0  0  0  0
  -21.5880   -6.1990   22.6800 C   0  0  0  0  0  0  0  0  0  0  0  0
  -21.2370   -6.7350   23.9380 C   0  0  0  0  0  3  0  0  0  0  0  0
  -21.1710   -5.8930   25.0670 C   0  0  0  0  0  3  0  0  0  0  0  0
  -21.4450   -4.5180   24.9390 C   0  0  0  0  0  0  0  0  0  0  0  0
  -21.7860   -3.9820   23.6860 C   0  0  0  0  0  3  0  0  0  0  0  0
  -21.8550   -4.8200   22.5580 C   0  0  0  0  0  0  0  0  0  0  0  0
  -22.1640   -4.2930   21.3490 F   0  0  0  0  0  0  0  0  0  0  0  0
  -21.3720   -3.7090   26.0220 F   0  0  0  0  0  0  0  0  0  0  0  0
  -22.7250  -13.5950   21.1770 C   0  0  0  0  0  0  0  0  0  0  0  0
  -21.9940  -12.9070   22.0460 N   0  0  0  0  0  0  0  0  0  0  0  0
  -22.2910  -14.6180   20.6500 O   0  0  0  0  0  0  0  0  0  0  0  0
  -22.3580  -12.0820   22.5030 H   0  0  0  0  0  0  0  0  0  0  0  0
  -21.0540  -13.2060   22.2640 H   0  0  0  0  0  0  0  0  0  0  0  0
  -25.3640  -15.2460   20.3560 N   0  0  0  0  0  0  0  0  0  0  0  0
  -24.5970  -15.9010   20.4520 H   0  0  0  0  0  0  0  0  0  0  0  0
  -26.2130  -15.6820   20.0240 H   0  0  0  0  0  0  0  0  0  0  0  0
  1  6  1  0
  1 52  1  0
  2  5  1  0
  2  1  1  0
  3  2  2  0
  4  5  1  0
  6  7  1  0
  7  9  1  0
  8  9  1  0
 10 11  1  0
 10  7  1  0
 12 23  2  0
 13 11  1  0
 13 18  1  0
 14 22  1  0
 14 24  1  0
 15 21  1  0
 15 17  1  0
 16 22  1  0
 17 16  1  0
 18 17  2  0
 19 20  1  0
 19 13  2  0
 20 15  2  0
 21 14  1  0
 22 12  1  0
 24 26  2  0
 25 24  1  0
 27 25  1  0
 28 37  2  0
 28 33  1  0
 29 25  1  0
 29 33  1  0
 30 29  1  0
 31 32  1  0
 31 30  1  0
 32 28  1  0
 33 34  2  0
 34 35  1  0
 36 35  2  0
 37 36  1  0
 38 12  1  0
 38 43  1  0
 38 39  1  0
 39 42  1  1
 39 40  1  0
 41 39  1  0
 43 46  1  0
 44 48  1  0
 44 43  1  0
 45 44  2  0
 48 47  1  0
 50 48  1  0
 50 51  1  0
 50 49  1  0
 53 52  2  0
 53 54  1  0
 55 64  1  0
 55 54  1  0
 56 64  1  0
 57 62  1  0
 58 59  1  0
 58 57  1  0
 60 59  1  0
 60 69  1  0
 60 61  1  0
 62 56  1  0
 62 61  1  0
 63 56  2  0
 64 65  1  0
 66 67  2  0
 67 86  1  0
 68 67  1  0
 68 71  1  0
 69 66  1  0
 69 70  1  0
 70 68  2  0
 71 72  1  0
 72 73  2  0
 74 77  1  0
 74 73  1  0
 75 74  2  0
 76 75  1  0
 76 71  2  0
 77 78  1  0
 78 79  1  0
 79 80  2  0
 81 80  1  0
 81 85  1  0
 82 81  2  0
 83 78  2  0
 83 82  1  0
 84 83  1  0
 86 87  1  0
 87 90  1  0
 87 89  1  0
 88 86  2  0
 91 92  1  0
 91 66  1  0
 93 91  1  0
M  ISO  4  10 101  11 101  56 100  64 100
M  END
>  <TORSDO>  (2) 
F 26

>  <SCORE>  (2) 
-11.791

>  <name>  (2) 
1

>  <ligand_id>  (2) 
1

>  <original_smiles>  (2) 
[H]c1c([H])c([H])c2c(c1[H])C([H])([H])C([H])([H])C([H])([H])C2([H])N([H])C(=O)C1([H])N(C(=O)C([H])(N([H])C(=O)C([H])(N([H])C([H])([H])[H])C([H])([H])[H])C(C([H])([H])[H])(C([H])([H])[H])C([H])([H])[H])C([H])([H])c2c([H])c(OC([H])([H])C([H])(C([H])([H])C([H])([H])[H])C([H])([H])C([H])(C(=O)C([H])([H])C([H])([H])[H])C([H])([H])C([H])([H])C([H])([H])C([H])([H])N([H])C(=O)N3C([H])([H])C([H])([H])C([H])([H])C([H])(n4nc(-c5c([H])c([H])c(Oc6c([H])c([H])c(F)c([H])c6F)c([H])c5[H])c(C(=O)N([H])[H])c4N([H])[H])C3([H])[H])c([H])c([H])c2C1([H])[H]

>  <smiles>  (2) 
[H]c1c([H])c([H])c2c(c1[H])C([H])([H])C([H])([H])C([H])([H])C2([H])N([H])C(=O)C1([H])N(C(=O)C([H])(N([H])C(=O)C([H])(N([H])C([H])([H])[H])C([H])([H])[H])C(C([H])([H])[H])(C([H])([H])[H])C([H])([H])[H])C([H])([H])c2c([H])c(OC([H])([H])C([H])(C([H])([H])C([H])([H])[H])C([H])([H])C([H])(C(=O)C([H])([H])C([H])([H])[H])C([H])([H])C([H])([H])C([H])([H])C([H])([H])N([H])C(=O)N3C([H])([H])C([H])([H])C([H])([H])C([H])(n4nc(-c5c([H])c([H])c(Oc6c([H])c([H])c(F)c([H])c6F)c([H])c5[H])c(C(=O)N([H])[H])c4N([H])[H])C3([H])[H])c([H])c([H])c2C1([H])[H]

$$$$
2:0:0
     RDKit          3D

 93100  0  0  1  0  0  0  0  0999 V2000
  -25.1360  -20.8050   19.3320 C   0  0  0  0  0  2  0  0  0  0  0  0
  -26.1080  -19.8680   18.7270 N   0  0  0  0  0  4  0  0  0  0  0  0
  -26.2720  -20.1250   17.7680 H   0  0  0  0  0  0  0  0  0  0  0  0
  -25.6650  -18.9630   18.7170 H   0  0  0  0  0  0  0  0  0  0  0  0
  -27.3870  -19.7260   19.4540 C   0  0  0  0  0  2  0  0  0  0  0  0
  -28.2240  -18.5370   18.9390 C   0  0  0  0  0  2  0  0  0  0  0  0
  -29.2520  -18.0550   19.9820 C   0  0  0  0  0  2  0  0  0  0  0  0
  -31.3270  -17.5060   18.6100 C   0  0  0  0  0  1  0  0  0  0  0  0
  -30.1800  -16.9300   19.4750 C   0  0  0  0  0  3  0  0  0  0  0  0
  -31.4160  -15.0450   20.4450 C   0  0  0  0  0  0  0  0  0  0  0  0
  -31.2670  -12.7000   19.7280 C   0  0  0  0  0  2  0  0  0  0  0  0
  -30.4390  -12.6130   18.4330 C   0  0  0  0  0  2  0  0  0  0  0  0
  -28.9400  -12.4700   18.7560 C   0  0  0  0  0  2  0  0  0  0  0  0
  -28.4430  -13.5000   19.8090 C   0  0  0  0  0  3  0  0  0  0  0  0
  -29.4130  -13.6140   21.0080 C   0  0  0  0  0  2  0  0  0  0  0  0
  -30.7660  -13.8540   20.4830 N   0  0  0  0  0  0  0  0  0  0  0  0
  -32.5940  -15.1620   20.1070 O   0  0  0  0  0  0  0  0  0  0  0  0
  -30.6730  -16.1450   20.6200 N   0  0  0  0  0  0  0  0  0  0  0  0
  -31.1150  -16.7570   21.2890 H   0  0  0  0  0  0  0  0  0  0  0  0
  -25.9990  -14.0820   20.3560 C   0  0  0  0  0  0  0  0  0  0  0  0
  -24.9300  -13.3040   20.7190 C   0  0  0  0  0  0  0  0  0  0  0  0
  -25.4310  -11.9680   20.8110 C   0  0  0  0  0  0  0  0  0  0  0  0
  -27.0770  -13.2180   20.2430 N   0  0  0  0  0  0  0  0  0  0  0  0
  -26.7370  -11.9480   20.5790 N   0  0  0  0  0  0  0  0  0  0  0  0
  -24.7300  -10.6990   21.0520 C   0  0  0  0  0  0  0  0  0  0  0  0
  -24.9880   -9.9200   22.2020 C   0  0  0  0  0  3  0  0  0  0  0  0
  -24.2860   -8.7170   22.4250 C   0  0  0  0  0  3  0  0  0  0  0  0
  -23.3140   -8.2810   21.4950 C   0  0  0  0  0  0  0  0  0  0  0  0
  -23.0740   -9.0460   20.3410 C   0  0  0  0  0  3  0  0  0  0  0  0
  -23.7760  -10.2430   20.1170 C   0  0  0  0  0  3  0  0  0  0  0  0
  -22.6050   -7.1090   21.6120 O   0  0  0  0  0  0  0  0  0  0  0  0
  -22.1840   -6.6400   22.8300 C   0  0  0  0  0  0  0  0  0  0  0  0
  -21.2930   -7.3740   23.6430 C   0  0  0  0  0  3  0  0  0  0  0  0
  -20.8290   -6.8240   24.8540 C   0  0  0  0  0  3  0  0  0  0  0  0
  -21.2460   -5.5390   25.2500 C   0  0  0  0  0  0  0  0  0  0  0  0
  -22.1320   -4.8050   24.4400 C   0  0  0  0  0  3  0  0  0  0  0  0
  -22.5950   -5.3530   23.2310 C   0  0  0  0  0  0  0  0  0  0  0  0
  -23.4290   -4.6310   22.4440 F   0  0  0  0  0  0  0  0  0  0  0  0
  -20.7970   -5.0060   26.4110 F   0  0  0  0  0  0  0  0  0  0  0  0
  -23.5080  -13.7560   20.8770 C   0  0  0  0  0  0  0  0  0  0  0  0
  -22.7560  -13.1090   21.7600 N   0  0  0  0  0  0  0  0  0  0  0  0
  -23.0670  -14.7220   20.2540 O   0  0  0  0  0  0  0  0  0  0  0  0
  -23.1230  -12.3270   22.2810 H   0  0  0  0  0  0  0  0  0  0  0  0
  -21.7990  -13.3980   21.9100 H   0  0  0  0  0  0  0  0  0  0  0  0
  -26.1380  -15.4420   20.0940 N   0  0  0  0  0  0  0  0  0  0  0  0
  -25.3550  -16.0830   20.1250 H   0  0  0  0  0  0  0  0  0  0  0  0
  -27.0150  -15.8800   19.8500 H   0  0  0  0  0  0  0  0  0  0  0  0
  -25.3300  -22.2570   18.8540 C   0  0  0  0  0  2  0  0  0  0  0  0
  -26.2640  -23.1170   19.7290 C   0  0  0  0  0  2  0  0  0  0  0  0
  -27.3590  -23.8060   18.8990 C   0  0  0  0  0  2  0  0  0  0  0  0
  -28.1840  -24.8120   19.7160 C   0  0  0  0  0  2  0  0  0  0  0  0
  -28.7630  -25.9590   18.8600 C   0  0  0  0  0  2  0  0  0  0  0  0
  -28.6680  -27.2030   19.5510 O   0  0  0  0  0  0  0  0  0  0  0  0
  -24.7010  -31.7050   23.3480 C   0  0  0  0  0  0  0  0  0  0  0  0
  -27.4450  -27.8380   19.6470 C   0  0  0  0  0  0  0  0  0  0  0  0
  -23.5250  -30.5480   21.5050 C   0  0  0  0  0  3  0  0  0  0  0  0
  -25.0100  -29.2620   19.8850 C   0  0  0  0  0  0  0  0  0  0  0  0
  -26.0440  -30.9710   21.3830 C   0  0  0  0  0  2  0  0  0  0  0  0
  -26.1540  -29.7120   20.5530 C   0  0  0  0  0  0  0  0  0  0  0  0
  -27.3690  -29.0060   20.4360 C   0  0  0  0  0  3  0  0  0  0  0  0
  -26.2750  -27.3910   18.9840 C   0  0  0  0  0  3  0  0  0  0  0  0
  -25.0640  -28.0950   19.1050 C   0  0  0  0  0  3  0  0  0  0  0  0
  -23.7520  -30.0850   20.0420 C   0  0  0  0  0  2  0  0  0  0  0  0
  -24.7750  -31.0820   22.1390 N   0  0  0  0  0  0  0  0  0  0  0  0
  -23.6120  -31.8760   23.9140 O   0  0  0  0  0  0  0  0  0  0  0  0
  -22.8810  -29.3870   22.2950 C   0  0  0  0  0  0  0  0  0  0  0  0
  -21.5660  -29.1910   22.1030 N   0  0  0  0  0  0  0  0  0  0  0  0
  -23.5600  -28.6730   23.0370 O   0  0  0  0  0  0  0  0  0  0  0  0
  -21.0760  -29.8220   21.4830 H   0  0  0  0  0  0  0  0  0  0  0  0
  -18.2210  -27.8500   22.3210 C   0  0  0  0  0  0  0  0  0  0  0  0
  -20.7580  -28.1350   22.7130 C   0  0  0  0  0  3  0  0  0  0  0  0
  -20.9250  -26.7990   21.9550 C   0  0  0  0  0  2  0  0  0  0  0  0
  -19.8670  -26.5850   20.8690 C   0  0  0  0  0  2  0  0  0  0  0  0
  -18.4630  -26.6080   21.4820 C   0  0  0  0  0  2  0  0  0  0  0  0
  -19.3000  -28.5760   22.8900 C   0  0  0  0  0  0  0  0  0  0  0  0
  -19.0250  -29.7410   23.6350 C   0  0  0  0  0  3  0  0  0  0  0  0
  -17.6990  -30.1790   23.8250 C   0  0  0  0  0  3  0  0  0  0  0  0
  -16.6330  -29.4460   23.2740 C   0  0  0  0  0  3  0  0  0  0  0  0
  -16.8950  -28.2850   22.5260 C   0  0  0  0  0  3  0  0  0  0  0  0
  -25.9740  -32.2500   24.0660 C   0  0  0  0  0  3  0  0  0  0  0  0
  -26.3920  -31.3970   25.3270 C   0  0  1  0  0  0  0  0  0  0  0  0
  -25.2360  -31.1500   26.3230 C   0  0  0  0  0  1  0  0  0  0  0  0
  -26.9430  -30.0200   24.8910 C   0  0  0  0  0  1  0  0  0  0  0  0
  -27.5320  -32.1100   26.0890 C   0  0  0  0  0  1  0  0  0  0  0  0
  -25.7030  -33.6410   24.4480 N   0  0  0  0  0  0  0  0  0  0  0  0
  -26.1270  -34.7140   23.7670 C   0  0  0  0  0  0  0  0  0  0  0  0
  -26.8590  -34.6310   22.7770 O   0  0  0  0  0  0  0  0  0  0  0  0
  -25.0650  -33.7850   25.2160 H   0  0  0  0  0  0  0  0  0  0  0  0
  -24.5030  -36.5980   23.3890 C   0  0  0  0  0  1  0  0  0  0  0  0
  -25.6660  -36.0970   24.2620 C   0  0  0  0  0  3  0  0  0  0  0  0
  -27.7610  -36.8540   25.2950 C   0  0  0  0  0  1  0  0  0  0  0  0
  -26.7450  -37.1090   24.2770 N   0  0  0  0  0  0  0  0  0  0  0  0
  -26.3670  -38.0390   24.4290 H   0  0  0  0  0  0  0  0  0  0  0  0
  2  1  1  0
  2  5  1  0
  3  2  1  0
  4  2  1  0
  6  5  1  0
  6  7  1  0
  9  8  1  0
  9  7  1  0
  9 18  1  0
 10 16  1  0
 10 18  1  0
 11 16  1  0
 12 13  1  0
 12 11  1  0
 14 13  1  0
 14 23  1  0
 14 15  1  0
 16 15  1  0
 17 10  2  0
 18 19  1  0
 20 21  2  0
 21 22  1  0
 21 40  1  0
 22 25  1  0
 23 20  1  0
 23 24  1  0
 24 22  2  0
 25 26  1  0
 26 27  2  0
 28 31  1  0
 28 27  1  0
 29 28  2  0
 30 29  1  0
 30 25  2  0
 31 32  1  0
 32 37  2  0
 32 33  1  0
 33 34  2  0
 34 35  1  0
 35 39  1  0
 36 35  2  0
 37 36  1  0
 38 37  1  0
 40 41  1  0
 41 44  1  0
 41 43  1  0
 42 40  2  0
 45 46  1  0
 45 20  1  0
 47 45  1  0
 48  1  1  0
 48 49  1  0
 50 51  1  0
 50 49  1  0
 52 53  1  0
 52 51  1  0
 53 55  1  0
 54 65  2  0
 55 60  1  0
 56 64  1  0
 56 66  1  0
 57 63  1  0
 57 59  1  0
 58 64  1  0
 59 58  1  0
 60 59  2  0
 61 62  1  0
 61 55  2  0
 62 57  2  0
 63 56  1  0
 64 54  1  0
 66 68  2  0
 67 66  1  0
 69 67  1  0
 70 79  2  0
 70 75  1  0
 71 67  1  0
 71 75  1  0
 72 71  1  0
 73 74  1  0
 73 72  1  0
 74 70  1  0
 75 76  2  0
 76 77  1  0
 78 77  2  0
 79 78  1  0
 80 54  1  0
 80 85  1  0
 80 81  1  0
 81 84  1  1
 81 82  1  0
 83 81  1  0
 85 88  1  0
 86 90  1  0
 86 85  1  0
 87 86  2  0
 90 89  1  0
 90 92  1  0
 92 93  1  0
 92 91  1  0
M  ISO  4  10 100  18 100  52 101  53 101
M  END
>  <TORSDO>  (3) 
F 26

>  <SCORE>  (3) 
-8.624

>  <name>  (3) 
2

>  <ligand_id>  (3) 
2

>  <original_smiles>  (3) 
[H]c1c([H])c([H])c2c(c1[H])C([H])([H])C([H])([H])C([H])([H])C2([H])N([H])C(=O)C1([H])N(C(=O)C([H])(N([H])C(=O)C([H])(N([H])C([H])([H])[H])C([H])([H])[H])C(C([H])([H])[H])(C([H])([H])[H])C([H])([H])[H])C([H])([H])c2c([H])c(OC([H])([H])C([H])([H])C([H])([H])C([H])([H])C([H])([H])C([H])([H])[N+]([H])([H])C([H])([H])C([H])([H])C([H])([H])C([H])(N([H])C(=O)N3C([H])([H])C([H])([H])C([H])([H])C([H])(n4nc(-c5c([H])c([H])c(Oc6c([H])c([H])c(F)c([H])c6F)c([H])c5[H])c(C(=O)N([H])[H])c4N([H])[H])C3([H])[H])C([H])([H])[H])c([H])c([H])c2C1([H])[H]

>  <smiles>  (3) 
[H]c1c([H])c([H])c2c(c1[H])C([H])([H])C([H])([H])C([H])([H])C2([H])N([H])C(=O)C1([H])N(C(=O)C([H])(N([H])C(=O)C([H])(N([H])C([H])([H])[H])C([H])([H])[H])C(C([H])([H])[H])(C([H])([H])[H])C([H])([H])[H])C([H])([H])c2c([H])c(OC([H])([H])C([H])([H])C([H])([H])C([H])([H])C([H])([H])C([H])([H])[N+]([H])([H])C([H])([H])C([H])([H])C([H])([H])C([H])(N([H])C(=O)N3C([H])([H])C([H])([H])C([H])([H])C([H])(n4nc(-c5c([H])c([H])c(Oc6c([H])c([H])c(F)c([H])c6F)c([H])c5[H])c(C(=O)N([H])[H])c4N([H])[H])C3([H])[H])C([H])([H])[H])c([H])c([H])c2C1([H])[H]

$$$$
3:0:0
     RDKit          3D

 93102  0  0  1  0  0  0  0  0999 V2000
  -31.1060  -22.3240   20.7720 C   0  0  0  0  0  3  0  0  0  0  0  0
  -28.7150  -22.5020   20.4630 C   0  0  0  0  0  3  0  0  0  0  0  0
  -30.1080  -24.5270   20.4500 C   0  0  0  0  0  3  0  0  0  0  0  0
  -29.8670  -21.6420   20.6920 C   0  0  0  0  0  0  0  0  0  0  0  0
  -31.2370  -23.7220   20.6620 C   0  0  0  0  0  0  0  0  0  0  0  0
  -28.8270  -23.9580   20.3370 C   0  0  0  0  0  0  0  0  0  0  0  0
  -32.6060  -24.3640   20.7800 C   0  0  0  0  0  1  0  0  0  0  0  0
  -30.0930  -20.0710   20.8800 C   0  0  0  0  0  3  0  0  0  0  0  0
  -30.3700  -19.2760   19.6210 C   0  0  0  0  0  3  0  0  0  0  0  0
  -29.4150  -18.6530   20.6170 C   0  0  0  0  0  3  0  0  0  0  0  0
  -32.6330  -19.6640   18.5160 C   0  0  0  0  0  1  0  0  0  0  0  0
  -31.7640  -18.7230   19.3580 C   0  0  0  0  0  2  0  0  0  0  0  0
  -29.8710  -17.3480   21.4340 C   0  0  0  0  0  2  0  0  0  0  0  0
  -30.4020  -14.8190   20.9270 C   0  0  0  0  0  0  0  0  0  0  0  0
  -30.3970  -12.4890   20.0270 C   0  0  0  0  0  2  0  0  0  0  0  0
  -29.5470  -12.4280   18.7380 C   0  0  0  0  0  2  0  0  0  0  0  0
  -28.0590  -12.2090   19.0740 C   0  0  0  0  0  2  0  0  0  0  0  0
  -27.5480  -13.1510   20.1950 C   0  0  0  0  0  3  0  0  0  0  0  0
  -28.5210  -13.1850   21.3930 C   0  0  0  0  0  2  0  0  0  0  0  0
  -29.8390  -13.5680   20.8710 N   0  0  0  0  0  0  0  0  0  0  0  0
  -31.6030  -14.9750   20.6940 O   0  0  0  0  0  0  0  0  0  0  0  0
  -29.5570  -15.9020   21.0750 N   0  0  0  0  0  0  0  0  0  0  0  0
  -28.5800  -15.6550   21.1350 H   0  0  0  0  0  0  0  0  0  0  0  0
  -25.1110  -13.6720   20.8120 C   0  0  0  0  0  0  0  0  0  0  0  0
  -24.0460  -12.8640   21.1050 C   0  0  0  0  0  0  0  0  0  0  0  0
  -24.5410  -11.5250   21.0630 C   0  0  0  0  0  0  0  0  0  0  0  0
  -26.1850  -12.8220   20.6040 N   0  0  0  0  0  0  0  0  0  0  0  0
  -25.8460  -11.5240   20.8160 N   0  0  0  0  0  0  0  0  0  0  0  0
  -23.8360  -10.2430   21.1780 C   0  0  0  0  0  0  0  0  0  0  0  0
  -24.2460   -9.2520   22.0960 C   0  0  0  0  0  3  0  0  0  0  0  0
  -23.5380   -8.0340   22.1990 C   0  0  0  0  0  3  0  0  0  0  0  0
  -22.4060   -7.8000   21.3840 C   0  0  0  0  0  0  0  0  0  0  0  0
  -22.0160   -8.7800   20.4540 C   0  0  0  0  0  3  0  0  0  0  0  0
  -22.7250   -9.9880   20.3490 C   0  0  0  0  0  3  0  0  0  0  0  0
  -21.6750   -6.6370   21.3990 O   0  0  0  0  0  0  0  0  0  0  0  0
  -21.6000   -5.8480   22.5200 C   0  0  0  0  0  0  0  0  0  0  0  0
  -21.0570   -6.3250   23.7330 C   0  0  0  0  0  3  0  0  0  0  0  0
  -20.9330   -5.4580   24.8370 C   0  0  0  0  0  3  0  0  0  0  0  0
  -21.3440   -4.1180   24.7290 C   0  0  0  0  0  0  0  0  0  0  0  0
  -21.8820   -3.6390   23.5230 C   0  0  0  0  0  3  0  0  0  0  0  0
  -22.0060   -4.5020   22.4190 C   0  0  0  0  0  0  0  0  0  0  0  0
  -22.5040   -4.0310   21.2520 F   0  0  0  0  0  0  0  0  0  0  0  0
  -21.2200   -3.2840   25.7890 F   0  0  0  0  0  0  0  0  0  0  0  0
  -22.6250  -13.3030   21.3160 C   0  0  0  0  0  0  0  0  0  0  0  0
  -21.8710  -12.5760   22.1360 N   0  0  0  0  0  0  0  0  0  0  0  0
  -22.1890  -14.3250   20.7900 O   0  0  0  0  0  0  0  0  0  0  0  0
  -22.2320  -11.7520   22.5930 H   0  0  0  0  0  0  0  0  0  0  0  0
  -20.9160  -12.8530   22.3140 H   0  0  0  0  0  0  0  0  0  0  0  0
  -25.2510  -15.0510   20.6820 N   0  0  0  0  0  0  0  0  0  0  0  0
  -24.4590  -15.6760   20.7800 H   0  0  0  0  0  0  0  0  0  0  0  0
  -26.0920  -15.5230   20.3760 H   0  0  0  0  0  0  0  0  0  0  0  0
  -27.6340  -24.9690   20.1010 C   0  0  0  0  0  2  0  0  0  0  0  0
  -27.9040  -26.4450   20.0630 O   0  0  0  0  0  0  0  0  0  0  0  0
  -24.4010  -31.9510   23.2150 C   0  0  0  0  0  0  0  0  0  0  0  0
  -26.8110  -27.3390   20.0410 C   0  0  0  0  0  0  0  0  0  0  0  0
  -23.1140  -30.5820   21.6150 C   0  0  0  0  0  3  0  0  0  0  0  0
  -24.4810  -29.0120   20.1250 C   0  0  0  0  0  0  0  0  0  0  0  0
  -25.6520  -30.8500   21.3400 C   0  0  0  0  0  2  0  0  0  0  0  0
  -25.6810  -29.4730   20.6800 C   0  0  0  0  0  0  0  0  0  0  0  0
  -26.8490  -28.6480   20.6270 C   0  0  0  0  0  3  0  0  0  0  0  0
  -25.5870  -26.9460   19.4530 C   0  0  0  0  0  3  0  0  0  0  0  0
  -24.4370  -27.7580   19.5000 C   0  0  0  0  0  3  0  0  0  0  0  0
  -23.2640  -29.9110   20.2240 C   0  0  0  0  0  2  0  0  0  0  0  0
  -24.4100  -31.1450   22.1120 N   0  0  0  0  0  0  0  0  0  0  0  0
  -23.3410  -32.2440   23.7890 O   0  0  0  0  0  0  0  0  0  0  0  0
  -22.4680  -29.5720   22.5960 C   0  0  0  0  0  0  0  0  0  0  0  0
  -21.1430  -29.3760   22.4800 N   0  0  0  0  0  0  0  0  0  0  0  0
  -23.1600  -28.9690   23.4200 O   0  0  0  0  0  0  0  0  0  0  0  0
  -20.6440  -29.9180   21.7890 H   0  0  0  0  0  0  0  0  0  0  0  0
  -17.7940  -28.1000   22.9860 C   0  0  0  0  0  0  0  0  0  0  0  0
  -20.3420  -28.4400   23.2710 C   0  0  0  0  0  3  0  0  0  0  0  0
  -20.4880  -26.9940   22.7430 C   0  0  0  0  0  2  0  0  0  0  0  0
  -19.4070  -26.6090   21.7280 C   0  0  0  0  0  2  0  0  0  0  0  0
  -18.0160  -26.7360   22.3530 C   0  0  0  0  0  2  0  0  0  0  0  0
  -18.8870  -28.9060   23.4030 C   0  0  0  0  0  0  0  0  0  0  0  0
  -18.6260  -30.1790   23.9560 C   0  0  0  0  0  3  0  0  0  0  0  0
  -17.3060  -30.6480   24.0920 C   0  0  0  0  0  3  0  0  0  0  0  0
  -16.2280  -29.8410   23.6890 C   0  0  0  0  0  3  0  0  0  0  0  0
  -16.4730  -28.5690   23.1440 C   0  0  0  0  0  3  0  0  0  0  0  0
  -25.7150  -32.5600   23.7920 C   0  0  0  0  0  3  0  0  0  0  0  0
  -26.2580  -31.7820   25.0530 C   0  0  1  0  0  0  0  0  0  0  0  0
  -25.1950  -31.5670   26.1570 C   0  0  0  0  0  1  0  0  0  0  0  0
  -26.8020  -30.3930   24.6470 C   0  0  0  0  0  1  0  0  0  0  0  0
  -27.4440  -32.5560   25.6750 C   0  0  0  0  0  1  0  0  0  0  0  0
  -25.4430  -33.9650   24.1310 N   0  0  0  0  0  0  0  0  0  0  0  0
  -25.7920  -35.0130   23.3740 C   0  0  0  0  0  0  0  0  0  0  0  0
  -26.4450  -34.8970   22.3340 O   0  0  0  0  0  0  0  0  0  0  0  0
  -24.8640  -34.1290   24.9410 H   0  0  0  0  0  0  0  0  0  0  0  0
  -24.1160  -36.8580   23.0390 C   0  0  0  0  0  1  0  0  0  0  0  0
  -25.3470  -36.4110   23.8440 C   0  0  0  0  0  3  0  0  0  0  0  0
  -27.5020  -37.2340   24.6870 C   0  0  0  0  0  1  0  0  0  0  0  0
  -26.4100  -37.4350   23.7370 N   0  0  0  0  0  0  0  0  0  0  0  0
  -26.0300  -38.3670   23.8810 H   0  0  0  0  0  0  0  0  0  0  0  0
  2  4  2  0
  3  5  1  0
  4  1  1  0
  5  1  2  0
  5  7  1  0
  6  3  2  0
  6  2  1  0
  8  4  1  0
  9 12  1  0
  9 10  1  0
  9  8  1  0
 10  8  1  0
 10 13  1  0
 11 12  1  0
 14 22  1  0
 15 20  1  0
 16 17  1  0
 16 15  1  0
 18 17  1  0
 18 27  1  0
 18 19  1  0
 20 14  1  0
 20 19  1  0
 21 14  2  0
 22 23  1  0
 22 13  1  0
 24 25  2  0
 25 44  1  0
 26 25  1  0
 26 29  1  0
 27 24  1  0
 27 28  1  0
 28 26  2  0
 29 30  1  0
 30 31  2  0
 32 35  1  0
 32 31  1  0
 33 32  2  0
 34 33  1  0
 34 29  2  0
 35 36  1  0
 36 37  1  0
 37 38  2  0
 39 38  1  0
 39 43  1  0
 40 39  2  0
 41 36  2  0
 41 40  1  0
 42 41  1  0
 44 45  1  0
 45 48  1  0
 45 47  1  0
 46 44  2  0
 49 50  1  0
 49 24  1  0
 51 49  1  0
 52  6  1  0
 53 52  1  0
 54 65  2  0
 55 53  1  0
 55 60  1  0
 56 64  1  0
 56 66  1  0
 57 63  1  0
 57 59  1  0
 58 64  1  0
 59 58  1  0
 60 59  2  0
 61 62  1  0
 61 55  2  0
 62 57  2  0
 63 56  1  0
 64 54  1  0
 66 68  2  0
 67 66  1  0
 69 67  1  0
 70 79  2  0
 70 75  1  0
 71 67  1  0
 71 75  1  0
 72 71  1  0
 73 74  1  0
 73 72  1  0
 74 70  1  0
 75 76  2  0
 76 77  1  0
 78 77  2  0
 79 78  1  0
 80 54  1  0
 80 85  1  0
 80 81  1  0
 81 84  1  1
 81 82  1  0
 83 81  1  0
 85 88  1  0
 86 90  1  0
 86 85  1  0
 87 86  2  0
 90 89  1  0
 92 90  1  0
 92 93  1  0
 92 91  1  0
M  ISO  4  14 100  22 100  52 101  53 101
M  END
>  <TORSDO>  (4) 
F 20

>  <SCORE>  (4) 
-12.695

>  <name>  (4) 
3

>  <ligand_id>  (4) 
3

>  <original_smiles>  (4) 
[H]c1c([H])c([H])c2c(c1[H])C([H])([H])C([H])([H])C([H])([H])C2([H])N([H])C(=O)C1([H])N(C(=O)C([H])(N([H])C(=O)C([H])(N([H])C([H])([H])[H])C([H])([H])[H])C(C([H])([H])[H])(C([H])([H])[H])C([H])([H])[H])C([H])([H])c2c([H])c(OC([H])([H])c3c([H])c(C([H])([H])[H])c([H])c(C4([H])C([H])(C([H])([H])N([H])C(=O)N5C([H])([H])C([H])([H])C([H])([H])C([H])(n6nc(-c7c([H])c([H])c(Oc8c([H])c([H])c(F)c([H])c8F)c([H])c7[H])c(C(=O)N([H])[H])c6N([H])[H])C5([H])[H])C4([H])C([H])([H])C([H])([H])[H])c3[H])c([H])c([H])c2C1([H])[H]

>  <smiles>  (4) 
[H]c1c([H])c([H])c2c(c1[H])C([H])([H])C([H])([H])C([H])([H])C2([H])N([H])C(=O)C1([H])N(C(=O)C([H])(N([H])C(=O)C([H])(N([H])C([H])([H])[H])C([H])([H])[H])C(C([H])([H])[H])(C([H])([H])[H])C([H])([H])[H])C([H])([H])c2c([H])c(OC([H])([H])c3c([H])c(C([H])([H])[H])c([H])c(C4([H])C([H])(C([H])([H])N([H])C(=O)N5C([H])([H])C([H])([H])C([H])([H])C([H])(n6nc(-c7c([H])c([H])c(Oc8c([H])c([H])c(F)c([H])c8F)c([H])c7[H])c(C(=O)N([H])[H])c6N([H])[H])C5([H])[H])C4([H])C([H])([H])C([H])([H])[H])c3[H])c([H])c([H])c2C1([H])[H]

$$$$
4:0:0
     RDKit          3D

 96105  0  0  1  0  0  0  0  0999 V2000
  -30.1890  -21.3260   20.0350 C   0  0  0  0  0  3  0  0  0  0  0  0
  -30.7300  -14.7270   20.0760 C   0  0  0  0  0  0  0  0  0  0  0  0
  -30.3870  -12.5220   18.9410 C   0  0  0  0  0  2  0  0  0  0  0  0
  -29.3820  -12.6680   17.7830 C   0  0  0  0  0  2  0  0  0  0  0  0
  -27.9380  -12.4890   18.2900 C   0  0  0  0  0  2  0  0  0  0  0  0
  -27.6550  -13.3130   19.5810 C   0  0  0  0  0  3  0  0  0  0  0  0
  -28.7850  -13.1150   20.6140 C   0  0  0  0  0  2  0  0  0  0  0  0
  -30.0330  -13.5350   19.9650 N   0  0  0  0  0  0  0  0  0  0  0  0
  -31.8740  -14.7680   19.6150 O   0  0  0  0  0  0  0  0  0  0  0  0
  -30.5660  -19.1620   18.4550 C   0  0  0  0  0  2  0  0  0  0  0  0
  -30.3970  -17.6420   18.4660 C   0  0  0  0  0  2  0  0  0  0  0  0
  -28.7700  -17.8000   21.2190 C   0  0  0  0  0  2  0  0  0  0  0  0
  -29.1680  -16.3080   21.4320 C   0  0  0  0  0  2  0  0  0  0  0  0
  -30.0190  -18.5160   20.6870 C   0  0  0  0  0  3  0  0  0  0  0  0
  -29.8060  -19.7590   19.6770 C   0  0  0  0  0  3  0  0  0  0  0  0
  -30.6550  -17.2860   19.9250 C   0  0  0  0  0  3  0  0  0  0  0  0
  -30.0950  -15.9450   20.3440 N   0  0  0  0  0  0  0  0  0  0  0  0
  -25.3090  -13.8810   20.4450 C   0  0  0  0  0  0  0  0  0  0  0  0
  -24.2680  -13.0950   20.8590 C   0  0  0  0  0  0  0  0  0  0  0  0
  -24.7250  -11.7460   20.7540 C   0  0  0  0  0  0  0  0  0  0  0  0
  -26.3380  -13.0100   20.1290 N   0  0  0  0  0  0  0  0  0  0  0  0
  -25.9950  -11.7180   20.3700 N   0  0  0  0  0  0  0  0  0  0  0  0
  -24.0110  -10.4770   20.9460 C   0  0  0  0  0  0  0  0  0  0  0  0
  -24.4620   -9.5120   21.8750 C   0  0  0  0  0  3  0  0  0  0  0  0
  -23.7470   -8.3090   22.0610 C   0  0  0  0  0  3  0  0  0  0  0  0
  -22.5680   -8.0600   21.3220 C   0  0  0  0  0  0  0  0  0  0  0  0
  -22.1360   -9.0150   20.3850 C   0  0  0  0  0  3  0  0  0  0  0  0
  -22.8490  -10.2110   20.1950 C   0  0  0  0  0  3  0  0  0  0  0  0
  -21.8210   -6.9100   21.4180 O   0  0  0  0  0  0  0  0  0  0  0  0
  -21.7270   -6.2070   22.5940 C   0  0  0  0  0  0  0  0  0  0  0  0
  -21.2280   -6.7960   23.7760 C   0  0  0  0  0  3  0  0  0  0  0  0
  -21.0850   -6.0190   24.9430 C   0  0  0  0  0  3  0  0  0  0  0  0
  -21.4290   -4.6530   24.9270 C   0  0  0  0  0  0  0  0  0  0  0  0
  -21.9180   -4.0640   23.7480 C   0  0  0  0  0  3  0  0  0  0  0  0
  -22.0640   -4.8390   22.5860 C   0  0  0  0  0  0  0  0  0  0  0  0
  -22.5150   -4.2600   21.4460 F   0  0  0  0  0  0  0  0  0  0  0  0
  -21.2840   -3.9030   26.0450 F   0  0  0  0  0  0  0  0  0  0  0  0
  -22.8900  -13.5620   21.2260 C   0  0  0  0  0  0  0  0  0  0  0  0
  -22.2190  -12.8460   22.1190 N   0  0  0  0  0  0  0  0  0  0  0  0
  -22.4200  -14.5970   20.7550 O   0  0  0  0  0  0  0  0  0  0  0  0
  -22.6140  -12.0100   22.5240 H   0  0  0  0  0  0  0  0  0  0  0  0
  -21.2960  -13.1340   22.4070 H   0  0  0  0  0  0  0  0  0  0  0  0
  -25.4670  -15.2550   20.2920 N   0  0  0  0  0  0  0  0  0  0  0  0
  -24.7100  -15.9130   20.4400 H   0  0  0  0  0  0  0  0  0  0  0  0
  -26.2970  -15.6850   19.9010 H   0  0  0  0  0  0  0  0  0  0  0  0
  -29.0160  -22.4150   20.2850 C   0  0  0  0  0  2  0  0  0  0  0  0
  -29.3380  -24.0020   20.4230 C   0  0  0  0  0  3  0  0  0  0  0  0
  -28.1800  -25.0570   20.1000 C   0  0  0  0  0  3  0  0  0  0  0  0
  -28.4130  -26.5190   20.2310 O   0  0  0  0  0  0  0  0  0  0  0  0
  -24.6680  -31.8810   23.2760 C   0  0  0  0  0  0  0  0  0  0  0  0
  -27.2940  -27.3710   20.1680 C   0  0  0  0  0  0  0  0  0  0  0  0
  -23.4680  -30.5100   21.6080 C   0  0  0  0  0  3  0  0  0  0  0  0
  -24.9250  -28.9800   20.1700 C   0  0  0  0  0  0  0  0  0  0  0  0
  -26.0090  -30.8290   21.4430 C   0  0  0  0  0  2  0  0  0  0  0  0
  -26.0920  -29.4630   20.7740 C   0  0  0  0  0  0  0  0  0  0  0  0
  -27.2790  -28.6720   20.7600 C   0  0  0  0  0  3  0  0  0  0  0  0
  -26.1000  -26.9450   19.5340 C   0  0  0  0  0  3  0  0  0  0  0  0
  -24.9290  -27.7250   19.5430 C   0  0  0  0  0  3  0  0  0  0  0  0
  -23.6900  -29.8560   20.2210 C   0  0  0  0  0  2  0  0  0  0  0  0
  -24.7330  -31.0900   22.1660 N   0  0  0  0  0  0  0  0  0  0  0  0
  -23.5810  -32.1530   23.8110 O   0  0  0  0  0  0  0  0  0  0  0  0
  -22.8030  -29.4770   22.5500 C   0  0  0  0  0  0  0  0  0  0  0  0
  -21.4790  -29.2940   22.4080 N   0  0  0  0  0  0  0  0  0  0  0  0
  -23.4780  -28.8420   23.3640 O   0  0  0  0  0  0  0  0  0  0  0  0
  -20.9940  -29.8600   21.7270 H   0  0  0  0  0  0  0  0  0  0  0  0
  -18.0990  -28.0970   22.8830 C   0  0  0  0  0  0  0  0  0  0  0  0
  -20.6580  -28.3450   23.1620 C   0  0  0  0  0  3  0  0  0  0  0  0
  -20.7560  -26.9240   22.5650 C   0  0  0  0  0  2  0  0  0  0  0  0
  -19.6580  -26.6180   21.5410 C   0  0  0  0  0  2  0  0  0  0  0  0
  -18.2740  -26.7580   22.1830 C   0  0  0  0  0  2  0  0  0  0  0  0
  -19.2190  -28.8490   23.3260 C   0  0  0  0  0  0  0  0  0  0  0  0
  -19.0020  -30.1020   23.9370 C   0  0  0  0  0  3  0  0  0  0  0  0
  -17.7000  -30.6060   24.1070 C   0  0  0  0  0  3  0  0  0  0  0  0
  -16.5940  -29.8510   23.6780 C   0  0  0  0  0  3  0  0  0  0  0  0
  -16.7950  -28.5970   23.0740 C   0  0  0  0  0  3  0  0  0  0  0  0
  -25.9490  -32.5020   23.9120 C   0  0  0  0  0  3  0  0  0  0  0  0
  -26.4500  -31.7220   25.1900 C   0  0  1  0  0  0  0  0  0  0  0  0
  -25.3450  -31.4890   26.2450 C   0  0  0  0  0  1  0  0  0  0  0  0
  -27.0300  -30.3440   24.7980 C   0  0  0  0  0  1  0  0  0  0  0  0
  -27.5990  -32.5090   25.8680 C   0  0  0  0  0  1  0  0  0  0  0  0
  -25.6460  -33.9020   24.2460 N   0  0  0  0  0  0  0  0  0  0  0  0
  -25.9610  -34.9520   23.4750 C   0  0  0  0  0  0  0  0  0  0  0  0
  -26.6100  -34.8450   22.4300 O   0  0  0  0  0  0  0  0  0  0  0  0
  -25.0690  -34.0620   25.0580 H   0  0  0  0  0  0  0  0  0  0  0  0
  -24.2050  -36.7270   23.1760 C   0  0  0  0  0  1  0  0  0  0  0  0
  -25.4820  -36.3390   23.9390 C   0  0  0  0  0  3  0  0  0  0  0  0
  -27.6400  -37.2490   24.6790 C   0  0  0  0  0  1  0  0  0  0  0  0
  -26.4990  -37.4000   23.7780 N   0  0  0  0  0  0  0  0  0  0  0  0
  -26.0910  -38.3170   23.9360 H   0  0  0  0  0  0  0  0  0  0  0  0
  -31.1900  -21.9570   19.0120 C   0  0  0  0  0  2  0  0  0  0  0  0
  -30.5700  -22.4000   17.6610 C   0  0  0  0  0  2  0  0  0  0  0  0
  -31.6020  -22.7210   16.6530 N   0  0  0  0  0  4  0  0  0  0  0  0
  -32.1780  -23.4660   17.0090 H   0  0  0  0  0  0  0  0  0  0  0  0
  -32.1900  -21.9130   16.5180 H   0  0  0  0  0  0  0  0  0  0  0  0
  -32.0950  -23.8550   14.4820 C   0  0  0  0  0  1  0  0  0  0  0  0
  -31.0540  -23.1220   15.3380 C   0  0  0  0  0  2  0  0  0  0  0  0
  1 90  1  0
  1 46  1  0
  2 17  1  0
  3  8  1  0
  4  5  1  0
  4  3  1  0
  6  5  1  0
  6 21  1  0
  6  7  1  0
  8  2  1  0
  8  7  1  0
  9  2  2  0
 10 11  1  0
 10 15  1  0
 12 13  1  0
 14 12  1  0
 15  1  1  0
 15 14  1  0
 16 11  1  0
 16 17  1  0
 16 14  1  0
 17 13  1  0
 18 19  2  0
 19 38  1  0
 20 19  1  0
 20 23  1  0
 21 22  1  0
 21 18  1  0
 22 20  2  0
 23 24  1  0
 24 25  2  0
 26 29  1  0
 26 25  1  0
 27 26  2  0
 28 27  1  0
 28 23  2  0
 29 30  1  0
 30 31  1  0
 31 32  2  0
 33 32  1  0
 33 37  1  0
 34 33  2  0
 35 30  2  0
 35 34  1  0
 36 35  1  0
 38 39  1  0
 39 42  1  0
 39 41  1  0
 40 38  2  0
 43 44  1  0
 43 18  1  0
 45 43  1  0
 46 47  1  0
 48 49  1  0
 48 47  2  0
 50 61  2  0
 51 49  1  0
 51 56  1  0
 52 60  1  0
 52 62  1  0
 53 59  1  0
 53 55  1  0
 54 60  1  0
 55 54  1  0
 56 55  2  0
 57 58  1  0
 57 51  2  0
 58 53  2  0
 59 52  1  0
 60 50  1  0
 62 64  2  0
 63 62  1  0
 65 63  1  0
 66 75  2  0
 66 71  1  0
 67 63  1  0
 67 71  1  0
 68 67  1  0
 69 70  1  0
 69 68  1  0
 70 66  1  0
 71 72  2  0
 72 73  1  0
 74 73  2  0
 75 74  1  0
 76 50  1  0
 76 81  1  0
 76 77  1  0
 77 80  1  1
 77 78  1  0
 79 77  1  0
 81 84  1  0
 82 86  1  0
 82 81  1  0
 83 82  2  0
 86 85  1  0
 88 89  1  0
 88 86  1  0
 88 87  1  0
 91 90  1  0
 92 93  1  0
 92 91  1  0
 94 92  1  0
 95 96  1  0
 96 92  1  0
M  ISO  4   2 100  17 100  48 101  49 101
M  END
>  <TORSDO>  (5) 
F 23

>  <SCORE>  (5) 
-12.138

>  <name>  (5) 
4

>  <ligand_id>  (5) 
4

>  <original_smiles>  (5) 
[H]c1c([H])c([H])c2c(c1[H])C([H])([H])C([H])([H])C([H])([H])C2([H])N([H])C(=O)C1([H])N(C(=O)C([H])(N([H])C(=O)C([H])(N([H])C([H])([H])[H])C([H])([H])[H])C(C([H])([H])[H])(C([H])([H])[H])C([H])([H])[H])C([H])([H])c2c([H])c(OC([H])([H])C([H])([H])C([H])([H])C([H])(C([H])([H])C([H])([H])[N+]([H])([H])C([H])([H])C([H])([H])[H])C3([H])C([H])([H])C([H])([H])C4([H])N(C(=O)N5C([H])([H])C([H])([H])C([H])([H])C([H])(n6nc(-c7c([H])c([H])c(Oc8c([H])c([H])c(F)c([H])c8F)c([H])c7[H])c(C(=O)N([H])[H])c6N([H])[H])C5([H])[H])C([H])([H])C([H])([H])C43[H])c([H])c([H])c2C1([H])[H]

>  <smiles>  (5) 
[H]c1c([H])c([H])c2c(c1[H])C([H])([H])C([H])([H])C([H])([H])C2([H])N([H])C(=O)C1([H])N(C(=O)C([H])(N([H])C(=O)C([H])(N([H])C([H])([H])[H])C([H])([H])[H])C(C([H])([H])[H])(C([H])([H])[H])C([H])([H])[H])C([H])([H])c2c([H])c(OC([H])([H])C([H])([H])C([H])([H])C([H])(C([H])([H])C([H])([H])[N+]([H])([H])C([H])([H])C([H])([H])[H])C3([H])C([H])([H])C([H])([H])C4([H])N(C(=O)N5C([H])([H])C([H])([H])C([H])([H])C([H])(n6nc(-c7c([H])c([H])c(Oc8c([H])c([H])c(F)c([H])c8F)c([H])c7[H])c(C(=O)N([H])[H])c6N([H])[H])C5([H])[H])C([H])([H])C([H])([H])C43[H])c([H])c([H])c2C1([H])[H]

$$$$
5:0:0
     RDKit          3D

 90 88  0  0  1  0  0  0  0  0999 V2000
  -28.7650  -19.4070   20.3820 C   0  0  0  0  0  2  0  0  0  0  0  0
  -27.9450  -19.3330   21.3080 O   0  0  0  0  0  0  0  0  0  0  0  0
  -31.3010  -14.5300   21.8380 C   0  0  0  0  0 15  0  0  0  0  0  0
  -29.8840  -16.2680   21.7910 C   0  0  0  0  0 15  0  0  0  0  0  0
  -32.3930  -13.9470   19.9630 C   0  0  0  0  0 15  0  0  0  0  0  0
  -29.8790  -16.5450   18.1990 C   0  0  0  0  0 15  0  0  0  0  0  0
  -29.3520  -17.4950   20.0640 C   0  0  0  0  0 15  0  0  0  0  0  0
  -31.6110  -15.0460   17.9980 C   0  0  0  0  0  1  0  0  0  0  0  0
  -32.6220  -16.0610   17.8070 C   0  0  0  0  0  2  0  0  0  0  0  0
  -31.3460  -16.1470   19.9260 C   0  0  0  0  0  0  0  0  0  0  0  0
  -30.1150  -13.2610   19.0040 C   0  0  0  0  0  2  0  0  0  0  0  0
  -29.2380  -12.9150   17.8190 C   0  0  0  0  0  2  0  0  0  0  0  0
  -28.0250  -12.4250   18.5000 C   0  0  0  0  0  2  0  0  0  0  0  0
  -27.6330  -13.5340   19.4790 C   0  0  0  0  0  3  0  0  0  0  0  0
  -28.7520  -14.1650   20.3930 C   0  0  0  0  0  2  0  0  0  0  0  0
  -30.0260  -14.8080   19.6940 N   0  0  0  0  0  0  0  0  0  0  0  0
  -32.2160  -16.4080   20.7310 O   0  0  0  0  0  0  0  0  0  0  0  0
  -32.1100  -16.7520   18.9470 N   0  0  0  0  0  0  0  0  0  0  0  0
  -32.7280  -17.4630   19.3250 H   0  0  0  0  0  0  0  0  0  0  0  0
  -25.3870  -14.0430   20.4600 C   0  0  0  0  0  0  0  0  0  0  0  0
  -24.3470  -13.2500   20.8460 C   0  0  0  0  0  0  0  0  0  0  0  0
  -24.8130  -11.9010   20.7700 C   0  0  0  0  0  0  0  0  0  0  0  0
  -26.4130  -13.1800   20.1670 N   0  0  0  0  0  0  0  0  0  0  0  0
  -26.0950  -11.8840   20.4260 N   0  0  0  0  0  0  0  0  0  0  0  0
  -24.0980  -10.6310   20.9440 C   0  0  0  0  0  0  0  0  0  0  0  0
  -24.5280   -9.6590   21.8760 C   0  0  0  0  0  3  0  0  0  0  0  0
  -23.8000   -8.4640   22.0570 C   0  0  0  0  0  3  0  0  0  0  0  0
  -22.6240   -8.2290   21.3060 C   0  0  0  0  0  0  0  0  0  0  0  0
  -22.2120   -9.1860   20.3620 C   0  0  0  0  0  3  0  0  0  0  0  0
  -22.9440  -10.3710   20.1800 C   0  0  0  0  0  3  0  0  0  0  0  0
  -21.8640   -7.0880   21.3990 O   0  0  0  0  0  0  0  0  0  0  0  0
  -21.7770   -6.3770   22.5690 C   0  0  0  0  0  0  0  0  0  0  0  0
  -21.3140   -6.9650   23.7640 C   0  0  0  0  0  3  0  0  0  0  0  0
  -21.1710   -6.1770   24.9260 C   0  0  0  0  0  3  0  0  0  0  0  0
  -21.4890   -4.8070   24.8890 C   0  0  0  0  0  0  0  0  0  0  0  0
  -21.9550   -4.2210   23.7010 C   0  0  0  0  0  3  0  0  0  0  0  0
  -22.0900   -5.0040   22.5390 C   0  0  0  0  0  0  0  0  0  0  0  0
  -22.5160   -4.4310   21.3870 F   0  0  0  0  0  0  0  0  0  0  0  0
  -21.3440   -4.0460   26.0000 F   0  0  0  0  0  0  0  0  0  0  0  0
  -22.9620  -13.7220   21.1490 C   0  0  0  0  0  0  0  0  0  0  0  0
  -22.2620  -13.0190   22.0290 N   0  0  0  0  0  0  0  0  0  0  0  0
  -22.5160  -14.7530   20.6430 O   0  0  0  0  0  0  0  0  0  0  0  0
  -22.6470  -12.1870   22.4510 H   0  0  0  0  0  0  0  0  0  0  0  0
  -21.3330  -13.3220   22.2910 H   0  0  0  0  0  0  0  0  0  0  0  0
  -25.5400  -15.4140   20.2720 N   0  0  0  0  0  0  0  0  0  0  0  0
  -24.7910  -16.0840   20.4170 H   0  0  0  0  0  0  0  0  0  0  0  0
  -26.3930  -15.8310   19.9220 H   0  0  0  0  0  0  0  0  0  0  0  0
  -28.8980  -21.3500   19.9820 C   0  0  0  0  0 15  0  0  0  0  0  0
  -28.0080  -23.2470   20.2140 C   0  0  0  0  0 15  0  0  0  0  0  0
  -28.1610  -25.1390   20.2140 O   0  0  0  0  0  1  0  0  0  0  0  0
  -24.7250  -31.8210   23.0320 C   0  0  0  0  0  0  0  0  0  0  0  0
  -27.2360  -26.4760   20.1750 C   0  0  0  0  0  0  0  0  0  0  0  0
  -23.5510  -30.3770   21.4360 C   0  0  0  0  0  3  0  0  0  0  0  0
  -25.0010  -28.6620   20.0640 C   0  0  0  0  0  0  0  0  0  0  0  0
  -26.1410  -30.4590   21.3310 C   0  0  0  0  0  2  0  0  0  0  0  0
  -26.2050  -28.9870   20.7010 C   0  0  0  0  0  0  0  0  0  0  0  0
  -27.2970  -27.9320   20.7170 C   0  0  0  0  0  3  0  0  0  0  0  0
  -26.0050  -26.4300   19.4620 C   0  0  0  0  0  3  0  0  0  0  0  0
  -24.9580  -27.4120   19.4190 C   0  0  0  0  0  3  0  0  0  0  0  0
  -23.8000  -29.6350   20.0870 C   0  0  0  0  0  2  0  0  0  0  0  0
  -24.8330  -30.9250   21.9820 N   0  0  0  0  0  0  0  0  0  0  0  0
  -23.6270  -32.1330   23.5260 O   0  0  0  0  0  0  0  0  0  0  0  0
  -22.8280  -29.4310   22.4320 C   0  0  0  0  0  0  0  0  0  0  0  0
  -21.4900  -29.2950   22.3320 N   0  0  0  0  0  0  0  0  0  0  0  0
  -23.4850  -28.8180   23.2760 O   0  0  0  0  0  0  0  0  0  0  0  0
  -21.0090  -29.8340   21.6260 H   0  0  0  0  0  0  0  0  0  0  0  0
  -18.1030  -28.1050   22.9270 C   0  0  0  0  0  0  0  0  0  0  0  0
  -20.6700  -28.3710   23.1270 C   0  0  0  0  0  3  0  0  0  0  0  0
  -20.7510  -26.9310   22.5650 C   0  0  0  0  0  2  0  0  0  0  0  0
  -19.6290  -26.6050   21.5760 C   0  0  0  0  0  2  0  0  0  0  0  0
  -18.2620  -26.7540   22.2490 C   0  0  0  0  0  2  0  0  0  0  0  0
  -19.2320  -28.8720   23.3230 C   0  0  0  0  0  0  0  0  0  0  0  0
  -19.0230  -30.1300   23.9250 C   0  0  0  0  0  3  0  0  0  0  0  0
  -17.7200  -30.6240   24.1320 C   0  0  0  0  0  3  0  0  0  0  0  0
  -16.6070  -29.8570   23.7450 C   0  0  0  0  0  3  0  0  0  0  0  0
  -16.7990  -28.6000   23.1460 C   0  0  0  0  0  3  0  0  0  0  0  0
  -25.9750  -32.5050   23.6700 C   0  0  0  0  0  3  0  0  0  0  0  0
  -26.4940  -31.7630   24.9630 C   0  0  1  0  0  0  0  0  0  0  0  0
  -25.3990  -31.5240   26.0300 C   0  0  0  0  0  1  0  0  0  0  0  0
  -27.1030  -30.3870   24.6130 C   0  0  0  0  0  1  0  0  0  0  0  0
  -27.6310  -32.5850   25.6130 C   0  0  0  0  0  1  0  0  0  0  0  0
  -25.6200  -33.8990   24.0100 N   0  0  0  0  0  0  0  0  0  0  0  0
  -25.9450  -34.9820   23.2900 C   0  0  0  0  0  0  0  0  0  0  0  0
  -26.6250  -34.9160   22.2650 O   0  0  0  0  0  0  0  0  0  0  0  0
  -25.0070  -34.0250   24.8020 H   0  0  0  0  0  0  0  0  0  0  0  0
  -24.1930  -36.7690   22.9790 C   0  0  0  0  0  1  0  0  0  0  0  0
  -25.4380  -36.3560   23.7810 C   0  0  0  0  0  3  0  0  0  0  0  0
  -27.5550  -37.2580   24.6430 C   0  0  0  0  0  1  0  0  0  0  0  0
  -26.4580  -37.4260   23.6930 N   0  0  0  0  0  0  0  0  0  0  0  0
  -26.0380  -38.3390   23.8510 H   0  0  0  0  0  0  0  0  0  0  0  0
  1  2  2  0
  9  8  1  0
  9 18  1  0
 10 17  2  0
 11 16  1  0
 12 13  1  0
 12 11  1  0
 14 13  1  0
 14 23  1  0
 14 15  1  0
 16 10  1  0
 16 15  1  0
 18 19  1  0
 18 10  1  0
 20 21  2  0
 21 40  1  0
 22 21  1  0
 22 25  1  0
 23 24  1  0
 23 20  1  0
 24 22  2  0
 25 26  1  0
 26 27  2  0
 28 31  1  0
 28 27  1  0
 29 28  2  0
 30 29  1  0
 30 25  2  0
 31 32  1  0
 32 33  1  0
 33 34  2  0
 35 34  1  0
 35 39  1  0
 36 35  2  0
 37 32  2  0
 37 36  1  0
 38 37  1  0
 40 41  1  0
 41 44  1  0
 41 43  1  0
 42 40  2  0
 45 46  1  0
 45 20  1  0
 47 45  1  0
 51 62  2  0
 52 50  1  0
 52 57  1  0
 53 61  1  0
 53 63  1  0
 54 60  1  0
 54 56  1  0
 55 61  1  0
 56 57  2  0
 56 55  1  0
 58 52  2  0
 59 58  1  0
 59 54  2  0
 60 53  1  0
 61 51  1  0
 63 65  2  0
 64 63  1  0
 66 64  1  0
 67 76  2  0
 67 72  1  0
 68 64  1  0
 68 72  1  0
 69 68  1  0
 70 71  1  0
 70 69  1  0
 71 67  1  0
 72 73  2  0
 73 74  1  0
 75 74  2  0
 76 75  1  0
 77 51  1  0
 77 82  1  0
 77 78  1  0
 78 81  1  1
 78 79  1  0
 80 78  1  0
 82 85  1  0
 83 87  1  0
 83 82  1  0
 84 83  2  0
 87 86  1  0
 89 87  1  0
 89 90  1  0
 89 88  1  0
M  ISO  4  10 100  18 100  49 101  50 101
M  END
>  <TORSDO>  (6) 
F 20

>  <SCORE>  (6) 
-14.147

>  <name>  (6) 
5

>  <ligand_id>  (6) 
5

>  <original_smiles>  (6) 
[H]c1c([H])c([H])c2c(c1[H])C([H])([H])C([H])([H])C([H])([H])C2([H])N([H])C(=O)C1([H])N(C(=O)C([H])(N([H])C(=O)C([H])(N([H])C([H])([H])[H])C([H])([H])[H])C(C([H])([H])[H])(C([H])([H])[H])C([H])([H])[H])C([H])([H])c2c([H])c(OC([H])([H])C([H])([H])C(=O)C3([H])C([H])([H])C([H])([H])C([H])([H])C([H])(C([H])([H])N([H])C(=O)N4C([H])([H])C([H])([H])C([H])([H])C([H])(n5nc(-c6c([H])c([H])c(Oc7c([H])c([H])c(F)c([H])c7F)c([H])c6[H])c(C(=O)N([H])[H])c5N([H])[H])C4([H])[H])C3([H])[H])c([H])c([H])c2C1([H])[H]

>  <smiles>  (6) 
[H]c1c([H])c([H])c2c(c1[H])C([H])([H])C([H])([H])C([H])([H])C2([H])N([H])C(=O)C1([H])N(C(=O)C([H])(N([H])C(=O)C([H])(N([H])C([H])([H])[H])C([H])([H])[H])C(C([H])([H])[H])(C([H])([H])[H])C([H])([H])[H])C([H])([H])c2c([H])c(OC([H])([H])C([H])([H])C(=O)C3([H])C([H])([H])C([H])([H])C([H])([H])C([H])(C([H])([H])N([H])C(=O)N4C([H])([H])C([H])([H])C([H])([H])C([H])(n5nc(-c6c([H])c([H])c(Oc7c([H])c([H])c(F)c([H])c7F)c([H])c6[H])c(C(=O)N([H])[H])c5N([H])[H])C4([H])[H])C3([H])[H])c([H])c([H])c2C1([H])[H]

$$$$
6:0:0
     RDKit          3D

 97107  0  0  1  0  0  0  0  0999 V2000
  -30.2210  -22.0170   21.2890 C   0  0  0  0  0  2  0  0  0  0  0  0
  -28.9030  -21.0720   19.5320 C   0  0  0  0  0  2  0  0  0  0  0  0
  -31.0140  -19.4180   20.8150 C   0  0  0  0  0  2  0  0  0  0  0  0
  -29.0210  -22.4210   20.3810 C   0  0  0  0  0  3  0  0  0  0  0  0
  -30.1240  -20.4910   21.5080 C   0  0  0  0  0  3  0  0  0  0  0  0
  -29.0270  -19.9160   20.6160 C   0  0  0  0  0  3  0  0  0  0  0  0
  -29.7710  -18.4700   20.7340 C   0  0  2  0  0  0  0  0  0  0  0  0
  -29.1040  -23.8970   19.7420 C   0  0  0  0  0  0  0  0  0  0  0  0
  -30.0740  -24.1920   18.9840 N   0  0  0  0  0  0  0  0  0  0  0  0
  -30.7020  -23.4010   18.8930 H   0  0  0  0  0  0  0  0  0  0  0  0
  -27.9820  -24.9960   20.0790 C   0  0  0  0  0  2  0  0  0  0  0  0
  -28.1630  -26.4400   19.6640 O   0  0  0  0  0  0  0  0  0  0  0  0
  -24.5150  -31.7170   23.0970 C   0  0  0  0  0  0  0  0  0  0  0  0
  -27.0530  -27.3180   19.7200 C   0  0  0  0  0  0  0  0  0  0  0  0
  -23.2720  -30.4090   21.4110 C   0  0  0  0  0  3  0  0  0  0  0  0
  -24.6910  -28.9600   19.8480 C   0  0  0  0  0  0  0  0  0  0  0  0
  -25.8060  -30.7430   21.1800 C   0  0  0  0  0  2  0  0  0  0  0  0
  -25.8740  -29.4020   20.4530 C   0  0  0  0  0  0  0  0  0  0  0  0
  -27.0550  -28.5980   20.3800 C   0  0  0  0  0  3  0  0  0  0  0  0
  -25.8460  -26.9470   19.0900 C   0  0  0  0  0  3  0  0  0  0  0  0
  -24.6840  -27.7430   19.1480 C   0  0  0  0  0  3  0  0  0  0  0  0
  -23.4540  -29.8290   19.9820 C   0  0  0  0  0  2  0  0  0  0  0  0
  -24.5510  -30.9730   21.9530 N   0  0  0  0  0  0  0  0  0  0  0  0
  -23.4460  -31.9520   23.6800 O   0  0  0  0  0  0  0  0  0  0  0  0
  -22.6380  -29.3340   22.3230 C   0  0  0  0  0  0  0  0  0  0  0  0
  -21.3150  -29.1370   22.2080 N   0  0  0  0  0  0  0  0  0  0  0  0
  -23.3410  -28.6830   23.1000 O   0  0  0  0  0  0  0  0  0  0  0  0
  -20.8000  -29.7240   21.5680 H   0  0  0  0  0  0  0  0  0  0  0  0
  -17.9660  -27.8670   22.7170 C   0  0  0  0  0  0  0  0  0  0  0  0
  -20.5280  -28.1420   22.9410 C   0  0  0  0  0  3  0  0  0  0  0  0
  -20.6350  -26.7480   22.2790 C   0  0  0  0  0  2  0  0  0  0  0  0
  -19.5110  -26.4720   21.2750 C   0  0  0  0  0  2  0  0  0  0  0  0
  -18.1420  -26.5630   21.9560 C   0  0  0  0  0  2  0  0  0  0  0  0
  -19.0840  -28.6140   23.1670 C   0  0  0  0  0  0  0  0  0  0  0  0
  -18.8690  -29.8380   23.8350 C   0  0  0  0  0  3  0  0  0  0  0  0
  -17.5630  -30.3120   24.0660 C   0  0  0  0  0  3  0  0  0  0  0  0
  -16.4560  -29.5560   23.6340 C   0  0  0  0  0  3  0  0  0  0  0  0
  -16.6590  -28.3390   22.9610 C   0  0  0  0  0  3  0  0  0  0  0  0
  -25.8130  -32.3230   23.7190 C   0  0  0  0  0  3  0  0  0  0  0  0
  -25.5220  -33.7130   24.0960 N   0  0  0  0  0  0  0  0  0  0  0  0
  -25.8360  -34.7860   23.3560 C   0  0  0  0  0  0  0  0  0  0  0  0
  -26.4800  -34.7090   22.3060 O   0  0  0  0  0  0  0  0  0  0  0  0
  -24.9640  -33.8460   24.9250 H   0  0  0  0  0  0  0  0  0  0  0  0
  -24.1110  -36.5990   23.0980 C   0  0  0  0  0  1  0  0  0  0  0  0
  -25.3700  -36.1640   23.8660 C   0  0  0  0  0  3  0  0  0  0  0  0
  -27.5240  -37.0230   24.6770 C   0  0  0  0  0  1  0  0  0  0  0  0
  -26.4050  -37.2160   23.7590 N   0  0  0  0  0  0  0  0  0  0  0  0
  -26.0040  -38.1330   23.9380 H   0  0  0  0  0  0  0  0  0  0  0  0
  -26.3340  -31.5120   24.9670 C   0  0  1  0  0  0  0  0  0  0  0  0
  -25.2390  -31.2230   26.0210 C   0  0  0  0  0  1  0  0  0  0  0  0
  -26.9380  -30.1590   24.5280 C   0  0  0  0  0  1  0  0  0  0  0  0
  -27.4650  -32.2990   25.6710 C   0  0  0  0  0  1  0  0  0  0  0  0
  -29.3320  -17.7420   22.0640 C   0  0  0  0  0  2  0  0  0  0  0  0
  -31.4160  -16.0340   22.0500 C   0  0  0  0  0  2  0  0  0  0  0  0
  -31.6140  -16.8940   23.2820 C   0  0  0  0  0  2  0  0  0  0  0  0
  -30.2150  -16.6620   22.7270 C   0  0  0  0  0  3  0  0  0  0  0  0
  -29.6020  -17.3480   19.5760 C   0  0  0  0  0  0  0  0  0  0  0  0
  -30.4030  -14.7980   19.2940 C   0  0  0  0  0  0  0  0  0  0  0  0
  -29.9910  -12.6100   18.1680 C   0  0  0  0  0  2  0  0  0  0  0  0
  -28.8690  -12.7850   17.1170 C   0  0  0  0  0  2  0  0  0  0  0  0
  -27.4830  -12.6170   17.7660 C   0  0  0  0  0  2  0  0  0  0  0  0
  -27.3350  -13.3870   19.1020 C   0  0  0  0  0  3  0  0  0  0  0  0
  -28.5670  -13.2040   20.0210 C   0  0  0  0  0  2  0  0  0  0  0  0
  -29.7590  -13.5840   19.2570 N   0  0  0  0  0  0  0  0  0  0  0  0
  -31.4620  -14.9650   18.6870 O   0  0  0  0  0  0  0  0  0  0  0  0
  -29.7140  -15.8470   19.8650 N   0  0  0  0  0  4  0  0  0  0  0  0
  -28.9450  -15.5120   20.4220 H   0  0  0  0  0  0  0  0  0  0  0  0
  -25.0750  -13.9070   20.2060 C   0  0  0  0  0  0  0  0  0  0  0  0
  -24.0890  -13.1010   20.7090 C   0  0  0  0  0  0  0  0  0  0  0  0
  -24.5540  -11.7590   20.5440 C   0  0  0  0  0  0  0  0  0  0  0  0
  -26.0850  -13.0570   19.7790 N   0  0  0  0  0  0  0  0  0  0  0  0
  -25.7820  -11.7570   20.0350 N   0  0  0  0  0  0  0  0  0  0  0  0
  -23.8750  -10.4770   20.7920 C   0  0  0  0  0  0  0  0  0  0  0  0
  -24.3740   -9.5480   21.7320 C   0  0  0  0  0  3  0  0  0  0  0  0
  -23.6940   -8.3350   21.9670 C   0  0  0  0  0  3  0  0  0  0  0  0
  -22.5070   -8.0380   21.2560 C   0  0  0  0  0  0  0  0  0  0  0  0
  -22.0270   -8.9540   20.3080 C   0  0  0  0  0  3  0  0  0  0  0  0
  -22.7070  -10.1610   20.0700 C   0  0  0  0  0  3  0  0  0  0  0  0
  -21.7920   -6.8730   21.4020 O   0  0  0  0  0  0  0  0  0  0  0  0
  -21.7260   -6.2160   22.6040 C   0  0  0  0  0  0  0  0  0  0  0  0
  -21.2120   -6.8320   23.7670 C   0  0  0  0  0  3  0  0  0  0  0  0
  -21.0990   -6.0990   24.9630 C   0  0  0  0  0  3  0  0  0  0  0  0
  -21.4810   -4.7440   24.9990 C   0  0  0  0  0  0  0  0  0  0  0  0
  -21.9890   -4.1250   23.8410 C   0  0  0  0  0  3  0  0  0  0  0  0
  -22.1030   -4.8580   22.6470 C   0  0  0  0  0  0  0  0  0  0  0  0
  -22.5710   -4.2500   21.5280 F   0  0  0  0  0  0  0  0  0  0  0  0
  -21.3660   -4.0340   26.1450 F   0  0  0  0  0  0  0  0  0  0  0  0
  -22.7470  -13.5460   21.2120 C   0  0  0  0  0  0  0  0  0  0  0  0
  -22.1920  -12.8210   22.1750 N   0  0  0  0  0  0  0  0  0  0  0  0
  -22.2030  -14.5630   20.7840 O   0  0  0  0  0  0  0  0  0  0  0  0
  -22.6470  -11.9930   22.5290 H   0  0  0  0  0  0  0  0  0  0  0  0
  -21.3050  -13.1010   22.5660 H   0  0  0  0  0  0  0  0  0  0  0  0
  -25.2000  -15.2880   20.0620 N   0  0  0  0  0  0  0  0  0  0  0  0
  -24.4590  -15.9340   20.3170 H   0  0  0  0  0  0  0  0  0  0  0  0
  -25.9740  -15.7420   19.5910 H   0  0  0  0  0  0  0  0  0  0  0  0
  -31.5710  -17.9580   17.9390 C   0  0  0  0  0  1  0  0  0  0  0  0
  -30.0620  -17.7490   18.1570 C   0  0  0  0  0  2  0  0  0  0  0  0
  1  5  1  0
  2  4  1  0
  4  8  1  0
  4  1  1  0
  5  3  1  0
  6  2  1  0
  6  7  1  0
  6  5  1  0
  7  3  1  0
  7 53  1  1
  8 11  1  0
  9  8  2  0
 10  9  1  0
 12 14  1  0
 12 11  1  0
 13 24  2  0
 14 19  1  0
 15 23  1  0
 15 25  1  0
 16 22  1  0
 16 18  1  0
 17 23  1  0
 18 17  1  0
 19 18  2  0
 20 21  1  0
 20 14  2  0
 21 16  2  0
 22 15  1  0
 23 13  1  0
 25 27  2  0
 26 25  1  0
 28 26  1  0
 29 38  2  0
 29 34  1  0
 30 26  1  0
 30 34  1  0
 31 30  1  0
 32 33  1  0
 32 31  1  0
 33 29  1  0
 34 35  2  0
 35 36  1  0
 37 36  2  0
 38 37  1  0
 39 13  1  0
 39 40  1  0
 39 49  1  0
 40 43  1  0
 41 45  1  0
 41 40  1  0
 42 41  2  0
 45 44  1  0
 47 45  1  0
 47 48  1  0
 47 46  1  0
 49 52  1  1
 49 50  1  0
 51 49  1  0
 53 56  1  0
 54 56  1  0
 54 55  1  0
 56 55  1  0
 57 66  2  0
 57  7  1  0
 58 66  1  0
 59 64  1  0
 60 61  1  0
 60 59  1  0
 62 61  1  0
 62 71  1  0
 62 63  1  0
 64 58  1  0
 64 63  1  0
 65 58  2  0
 66 67  1  0
 68 69  2  0
 69 88  1  0
 70 69  1  0
 70 73  1  0
 71 72  1  0
 71 68  1  0
 72 70  2  0
 73 74  1  0
 74 75  2  0
 76 79  1  0
 76 75  1  0
 77 76  2  0
 78 77  1  0
 78 73  2  0
 79 80  1  0
 80 85  2  0
 80 81  1  0
 81 82  2  0
 82 83  1  0
 83 87  1  0
 84 83  2  0
 85 84  1  0
 86 85  1  0
 88 89  1  0
 89 91  1  0
 89 92  1  0
 90 88  2  0
 93 68  1  0
 93 94  1  0
 95 93  1  0
 96 97  1  0
 97 57  1  0
M  ISO  4  11 101  12 101  58 100  66 100
M  END
>  <TORSDO>  (7) 
F 22

>  <SCORE>  (7) 
-8.391

>  <name>  (7) 
6

>  <ligand_id>  (7) 
6

>  <original_smiles>  (7) 
[H]N=C(C([H])([H])Oc1c([H])c([H])c2c(c1[H])C([H])([H])N(C(=O)C([H])(N([H])C(=O)C([H])(N([H])C([H])([H])[H])C([H])([H])[H])C(C([H])([H])[H])(C([H])([H])[H])C([H])([H])[H])C([H])(C(=O)N([H])C1([H])c3c([H])c([H])c([H])c([H])c3C([H])([H])C([H])([H])C1([H])[H])C2([H])[H])C1([H])C([H])([H])C2([H])C([H])([H])C(C([H])([H])C3([H])C([H])([H])C3([H])[H])(C([H])(N([H])C(=O)N3C([H])([H])C([H])([H])C([H])([H])C([H])(n4nc(-c5c([H])c([H])c(Oc6c([H])c([H])c(F)c([H])c6F)c([H])c5[H])c(C(=O)N([H])[H])c4N([H])[H])C3([H])[H])C([H])([H])C([H])([H])[H])C2([H])C1([H])[H]

>  <smiles>  (7) 
[H]N=C(C([H])([H])Oc1c([H])c([H])c2c(c1[H])C([H])([H])N(C(=O)C([H])(N([H])C(=O)C([H])(N([H])C([H])([H])[H])C([H])([H])[H])C(C([H])([H])[H])(C([H])([H])[H])C([H])([H])[H])C([H])(C(=O)N([H])C1([H])c3c([H])c([H])c([H])c([H])c3C([H])([H])C([H])([H])C1([H])[H])C2([H])[H])C1([H])C([H])([H])C2([H])C([H])([H])C(C([H])([H])C3([H])C([H])([H])C3([H])[H])(C([H])(N([H])C(=O)N3C([H])([H])C([H])([H])C([H])([H])C([H])(n4nc(-c5c([H])c([H])c(Oc6c([H])c([H])c(F)c([H])c6F)c([H])c5[H])c(C(=O)N([H])[H])c4N([H])[H])C3([H])[H])C([H])([H])C([H])([H])[H])C2([H])C1([H])[H]

$$$$
7:0:0
     RDKit          3D

 90100  0  0  1  0  0  0  0  0999 V2000
  -28.9910  -22.6420   20.8980 C   0  0  0  0  0  0  0  0  0  0  0  0
  -28.8220  -22.8140   22.1100 O   0  0  0  0  0  0  0  0  0  0  0  0
  -30.0380  -20.0830   21.7650 C   0  0  0  0  0  2  0  0  0  0  0  0
  -28.5720  -18.6440   20.3810 C   0  0  0  0  0  2  0  0  0  0  0  0
  -29.0720  -21.1770   20.2450 C   0  0  0  0  0  3  0  0  0  0  0  0
  -28.6240  -19.9770   21.1460 C   0  0  1  0  0  0  0  0  0  0  0  0
  -30.3070  -20.1400   20.2600 C   0  0  1  0  0  0  0  0  0  0  0  0
  -29.9370  -18.7120   19.6810 C   0  0  0  0  0  3  0  0  0  0  0  0
  -30.9400  -17.4900   19.9800 C   0  0  0  0  0  2  0  0  0  0  0  0
  -31.1640  -14.9170   19.8200 C   0  0  0  0  0  0  0  0  0  0  0  0
  -30.8920  -12.5920   18.9780 C   0  0  0  0  0  2  0  0  0  0  0  0
  -29.9200  -12.5990   17.7780 C   0  0  0  0  0  2  0  0  0  0  0  0
  -28.4610  -12.4850   18.2610 C   0  0  0  0  0  2  0  0  0  0  0  0
  -28.1340  -13.4670   19.4180 C   0  0  0  0  0  3  0  0  0  0  0  0
  -29.2230  -13.4410   20.5130 C   0  0  0  0  0  2  0  0  0  0  0  0
  -30.5080  -13.7140   19.8600 N   0  0  0  0  0  0  0  0  0  0  0  0
  -32.3360  -14.9830   19.4400 O   0  0  0  0  0  0  0  0  0  0  0  0
  -30.4330  -16.0650   20.0190 N   0  0  0  0  0  0  0  0  0  0  0  0
  -29.4630  -15.9340   20.2640 H   0  0  0  0  0  0  0  0  0  0  0  0
  -25.8080  -14.1530   20.2590 C   0  0  0  0  0  0  0  0  0  0  0  0
  -24.7280  -13.4190   20.6700 C   0  0  0  0  0  0  0  0  0  0  0  0
  -25.1310  -12.0510   20.6040 C   0  0  0  0  0  0  0  0  0  0  0  0
  -26.8010  -13.2320   19.9660 N   0  0  0  0  0  0  0  0  0  0  0  0
  -26.4040  -11.9620   20.2360 N   0  0  0  0  0  0  0  0  0  0  0  0
  -24.3620  -10.8170   20.8120 C   0  0  0  0  0  0  0  0  0  0  0  0
  -24.7430   -9.8620   21.7810 C   0  0  0  0  0  3  0  0  0  0  0  0
  -23.9750   -8.6940   21.9750 C   0  0  0  0  0  3  0  0  0  0  0  0
  -22.8120   -8.4720   21.2010 C   0  0  0  0  0  0  0  0  0  0  0  0
  -22.4490   -9.4150   20.2230 C   0  0  0  0  0  3  0  0  0  0  0  0
  -23.2170  -10.5750   20.0270 C   0  0  0  0  0  3  0  0  0  0  0  0
  -22.0190   -7.3550   21.3040 O   0  0  0  0  0  0  0  0  0  0  0  0
  -21.8510   -6.6980   22.4970 C   0  0  0  0  0  0  0  0  0  0  0  0
  -21.3250   -7.3440   23.6360 C   0  0  0  0  0  3  0  0  0  0  0  0
  -21.1050   -6.6140   24.8210 C   0  0  0  0  0  3  0  0  0  0  0  0
  -21.4010   -5.2390   24.8670 C   0  0  0  0  0  0  0  0  0  0  0  0
  -21.9200   -4.5920   23.7320 C   0  0  0  0  0  3  0  0  0  0  0  0
  -22.1410   -5.3190   22.5490 C   0  0  0  0  0  0  0  0  0  0  0  0
  -22.6210   -4.6870   21.4510 F   0  0  0  0  0  0  0  0  0  0  0  0
  -21.1820   -4.5350   26.0030 F   0  0  0  0  0  0  0  0  0  0  0  0
  -23.3650  -13.9510   21.0090 C   0  0  0  0  0  0  0  0  0  0  0  0
  -22.6550  -13.2840   21.9120 N   0  0  0  0  0  0  0  0  0  0  0  0
  -22.9430  -14.9920   20.5090 O   0  0  0  0  0  0  0  0  0  0  0  0
  -23.0110  -12.4410   22.3380 H   0  0  0  0  0  0  0  0  0  0  0  0
  -21.7420  -13.6220   22.1810 H   0  0  0  0  0  0  0  0  0  0  0  0
  -26.0200  -15.5170   20.0870 N   0  0  0  0  0  0  0  0  0  0  0  0
  -25.2820  -16.1980   20.2310 H   0  0  0  0  0  0  0  0  0  0  0  0
  -26.8570  -15.9210   19.6870 H   0  0  0  0  0  0  0  0  0  0  0  0
  -28.9940  -23.9770   20.0400 C   0  0  0  0  0  3  0  0  0  0  0  0
  -28.3790  -25.2780   20.7650 C   0  0  0  0  0  3  0  0  0  0  0  0
  -28.5660  -26.6580   20.2500 O   0  0  0  0  0  0  0  0  0  0  0  0
  -24.7090  -31.9550   23.3130 C   0  0  0  0  0  0  0  0  0  0  0  0
  -27.4400  -27.4900   20.2410 C   0  0  0  0  0  0  0  0  0  0  0  0
  -23.5470  -30.5440   21.6510 C   0  0  0  0  0  3  0  0  0  0  0  0
  -25.0400  -29.0380   20.2220 C   0  0  0  0  0  0  0  0  0  0  0  0
  -26.0770  -30.9260   21.4850 C   0  0  0  0  0  2  0  0  0  0  0  0
  -26.1940  -29.5540   20.8290 C   0  0  0  0  0  0  0  0  0  0  0  0
  -27.4010  -28.7930   20.8250 C   0  0  0  0  0  3  0  0  0  0  0  0
  -26.2680  -27.0210   19.6140 C   0  0  0  0  0  3  0  0  0  0  0  0
  -25.0780  -27.7760   19.6050 C   0  0  0  0  0  3  0  0  0  0  0  0
  -23.7840  -29.8840   20.2680 C   0  0  0  0  0  2  0  0  0  0  0  0
  -24.7960  -31.1590   22.2070 N   0  0  0  0  0  0  0  0  0  0  0  0
  -23.6180  -32.2030   23.8440 O   0  0  0  0  0  0  0  0  0  0  0  0
  -22.9010  -29.5070   22.5980 C   0  0  0  0  0  0  0  0  0  0  0  0
  -21.5810  -29.2940   22.4540 N   0  0  0  0  0  0  0  0  0  0  0  0
  -23.5850  -28.8950   23.4230 O   0  0  0  0  0  0  0  0  0  0  0  0
  -21.0870  -29.8420   21.7630 H   0  0  0  0  0  0  0  0  0  0  0  0
  -18.2340  -27.9940   22.8900 C   0  0  0  0  0  0  0  0  0  0  0  0
  -20.7780  -28.3310   23.2080 C   0  0  0  0  0  3  0  0  0  0  0  0
  -20.9340  -26.9040   22.6340 C   0  0  0  0  0  2  0  0  0  0  0  0
  -19.8620  -26.5490   21.6000 C   0  0  0  0  0  2  0  0  0  0  0  0
  -18.4640  -26.6510   22.2170 C   0  0  0  0  0  2  0  0  0  0  0  0
  -19.3210  -28.7890   23.3410 C   0  0  0  0  0  0  0  0  0  0  0  0
  -19.0510  -30.0440   23.9290 C   0  0  0  0  0  3  0  0  0  0  0  0
  -17.7290  -30.5060   24.0700 C   0  0  0  0  0  3  0  0  0  0  0  0
  -16.6570  -29.7080   23.6350 C   0  0  0  0  0  3  0  0  0  0  0  0
  -16.9100  -28.4540   23.0510 C   0  0  0  0  0  3  0  0  0  0  0  0
  -25.9750  -32.6090   23.9500 C   0  0  0  0  0  3  0  0  0  0  0  0
  -26.4760  -31.8580   25.2450 C   0  0  1  0  0  0  0  0  0  0  0  0
  -25.3640  -31.6060   26.2890 C   0  0  0  0  0  1  0  0  0  0  0  0
  -27.0970  -30.4890   24.8780 C   0  0  0  0  0  1  0  0  0  0  0  0
  -27.5940  -32.6810   25.9270 C   0  0  0  0  0  1  0  0  0  0  0  0
  -25.6450  -34.0070   24.2580 N   0  0  0  0  0  0  0  0  0  0  0  0
  -25.9780  -35.0550   23.4940 C   0  0  0  0  0  0  0  0  0  0  0  0
  -26.6650  -34.9460   22.4730 O   0  0  0  0  0  0  0  0  0  0  0  0
  -25.0360  -34.1640   25.0480 H   0  0  0  0  0  0  0  0  0  0  0  0
  -24.2380  -36.8260   23.0910 C   0  0  0  0  0  1  0  0  0  0  0  0
  -25.4700  -36.4430   23.9270 C   0  0  0  0  0  3  0  0  0  0  0  0
  -27.5790  -37.3620   24.7850 C   0  0  0  0  0  1  0  0  0  0  0  0
  -26.4930  -37.5060   23.8180 N   0  0  0  0  0  0  0  0  0  0  0  0
  -26.0750  -38.4230   23.9450 H   0  0  0  0  0  0  0  0  0  0  0  0
  1  2  2  0
  5  7  1  0
  5  1  1  0
  5  6  1  0
  6  4  1  1
  6  3  1  0
  7  6  1  0
  7  3  1  1
  8  9  1  0
  8  7  1  0
  8  4  1  0
  9 18  1  0
 10 16  1  0
 10 18  1  0
 11 16  1  0
 12 13  1  0
 12 11  1  0
 14 13  1  0
 14 23  1  0
 14 15  1  0
 16 15  1  0
 17 10  2  0
 18 19  1  0
 20 21  2  0
 21 40  1  0
 22 21  1  0
 22 25  1  0
 23 24  1  0
 23 20  1  0
 24 22  2  0
 25 26  1  0
 26 27  2  0
 28 31  1  0
 28 27  1  0
 29 28  2  0
 30 29  1  0
 30 25  2  0
 31 32  1  0
 32 37  2  0
 32 33  1  0
 33 34  2  0
 34 35  1  0
 35 39  1  0
 36 35  2  0
 37 36  1  0
 38 37  1  0
 40 41  1  0
 41 44  1  0
 41 43  1  0
 42 40  2  0
 45 46  1  0
 45 20  1  0
 47 45  1  0
 48 49  2  0
 48  1  1  0
 50 49  1  0
 51 62  2  0
 52 50  1  0
 52 57  1  0
 53 61  1  0
 53 63  1  0
 54 60  1  0
 54 56  1  0
 55 61  1  0
 56 55  1  0
 57 56  2  0
 58 52  2  0
 59 58  1  0
 59 54  2  0
 60 53  1  0
 61 51  1  0
 63 65  2  0
 64 63  1  0
 66 64  1  0
 67 76  2  0
 67 72  1  0
 68 64  1  0
 68 72  1  0
 69 68  1  0
 70 71  1  0
 70 69  1  0
 71 67  1  0
 72 73  2  0
 73 74  1  0
 75 74  2  0
 76 75  1  0
 77 51  1  0
 77 82  1  0
 77 78  1  0
 78 81  1  1
 78 79  1  0
 80 78  1  0
 82 85  1  0
 83 87  1  0
 83 82  1  0
 84 83  2  0
 87 86  1  0
 89 87  1  0
 89 90  1  0
 89 88  1  0
M  ISO  4  10 100  18 100  49 101  50 101
M  END
>  <TORSDO>  (8) 
F 20

>  <SCORE>  (8) 
-12.956

>  <name>  (8) 
7

>  <ligand_id>  (8) 
7

>  <original_smiles>  (8) 
[H]c1c([H])c([H])c2c(c1[H])C([H])([H])C([H])([H])C([H])([H])C2([H])N([H])C(=O)C1([H])N(C(=O)C([H])(N([H])C(=O)C([H])(N([H])C([H])([H])[H])C([H])([H])[H])C(C([H])([H])[H])(C([H])([H])[H])C([H])([H])[H])C([H])([H])c2c([H])c(OC([H])([H])C([H])([H])C(=O)C3([H])C4([H])C([H])([H])C([H])(C([H])([H])N([H])C(=O)N5C([H])([H])C([H])([H])C([H])([H])C([H])(n6nc(-c7c([H])c([H])c(Oc8c([H])c([H])c(F)c([H])c8F)c([H])c7[H])c(C(=O)N([H])[H])c6N([H])[H])C5([H])[H])C3([H])C4([H])[H])c([H])c([H])c2C1([H])[H]

>  <smiles>  (8) 
[H]c1c([H])c([H])c2c(c1[H])C([H])([H])C([H])([H])C([H])([H])C2([H])N([H])C(=O)C1([H])N(C(=O)C([H])(N([H])C(=O)C([H])(N([H])C([H])([H])[H])C([H])([H])[H])C(C([H])([H])[H])(C([H])([H])[H])C([H])([H])[H])C([H])([H])c2c([H])c(OC([H])([H])C([H])([H])C(=O)C3([H])C4([H])C([H])([H])C([H])(C([H])([H])N([H])C(=O)N5C([H])([H])C([H])([H])C([H])([H])C([H])(n6nc(-c7c([H])c([H])c(Oc8c([H])c([H])c(F)c([H])c8F)c([H])c7[H])c(C(=O)N([H])[H])c6N([H])[H])C5([H])[H])C3([H])C4([H])[H])c([H])c([H])c2C1([H])[H]

$$$$
8:0:0
     RDKit          3D

 88 97  0  0  1  0  0  0  0  0999 V2000
  -29.3990  -20.4100   19.0950 C   0  0  0  0  0  3  0  0  0  0  0  0
  -29.4810  -19.5630   20.1830 C   0  0  0  0  0  0  0  0  0  0  0  0
  -29.0280  -20.4540   21.4000 C   0  0  0  0  0  2  0  0  0  0  0  0
  -27.3210  -21.6630   19.8420 C   0  0  0  0  0  2  0  0  0  0  0  0
  -28.6250  -21.8390   19.0480 C   0  0  0  0  0  3  0  0  0  0  0  0
  -28.2740  -21.8730   21.0260 C   0  0  0  0  0  3  0  0  0  0  0  0
  -28.8260  -23.0970   20.0860 C   0  0  0  0  0  3  0  0  0  0  0  0
  -30.3100  -18.0810   20.2790 C   0  0  0  0  0  2  0  0  0  0  0  0
  -30.5980  -15.2880   20.2380 C   0  0  0  0  0  0  0  0  0  0  0  0
  -30.5030  -12.8980   19.3260 C   0  0  0  0  0  2  0  0  0  0  0  0
  -29.5610  -12.7790   18.1040 C   0  0  0  0  0  2  0  0  0  0  0  0
  -28.1120  -12.5350   18.5590 C   0  0  0  0  0  2  0  0  0  0  0  0
  -27.6950  -13.4740   19.7200 C   0  0  0  0  0  3  0  0  0  0  0  0
  -28.7620  -13.5600   20.8310 C   0  0  0  0  0  2  0  0  0  0  0  0
  -30.0030  -14.0150   20.1910 N   0  0  0  0  0  0  0  0  0  0  0  0
  -31.8080  -15.3110   19.9770 O   0  0  0  0  0  0  0  0  0  0  0  0
  -29.8570  -16.5300   20.3650 N   0  0  0  0  0  0  0  0  0  0  0  0
  -28.8700  -16.3940   20.5260 H   0  0  0  0  0  0  0  0  0  0  0  0
  -25.3290  -14.0250   20.5090 C   0  0  0  0  0  0  0  0  0  0  0  0
  -24.2750  -13.2410   20.8840 C   0  0  0  0  0  0  0  0  0  0  0  0
  -24.7450  -11.8920   20.8310 C   0  0  0  0  0  0  0  0  0  0  0  0
  -26.3720  -13.1560   20.2420 N   0  0  0  0  0  0  0  0  0  0  0  0
  -26.0330  -11.8660   20.5030 N   0  0  0  0  0  0  0  0  0  0  0  0
  -24.0260  -10.6250   21.0150 C   0  0  0  0  0  0  0  0  0  0  0  0
  -24.4500   -9.6630   21.9580 C   0  0  0  0  0  3  0  0  0  0  0  0
  -23.7280   -8.4620   22.1290 C   0  0  0  0  0  3  0  0  0  0  0  0
  -22.5660   -8.2150   21.3590 C   0  0  0  0  0  0  0  0  0  0  0  0
  -22.1610   -9.1660   20.4070 C   0  0  0  0  0  3  0  0  0  0  0  0
  -22.8850  -10.3570   20.2330 C   0  0  0  0  0  3  0  0  0  0  0  0
  -21.8170   -7.0660   21.4410 O   0  0  0  0  0  0  0  0  0  0  0  0
  -21.7240   -6.3490   22.6070 C   0  0  0  0  0  0  0  0  0  0  0  0
  -21.1960   -6.9120   23.7890 C   0  0  0  0  0  3  0  0  0  0  0  0
  -21.0540   -6.1190   24.9440 C   0  0  0  0  0  3  0  0  0  0  0  0
  -21.4290   -4.7630   24.9180 C   0  0  0  0  0  0  0  0  0  0  0  0
  -21.9510   -4.1980   23.7410 C   0  0  0  0  0  3  0  0  0  0  0  0
  -22.0940   -4.9890   22.5870 C   0  0  0  0  0  0  0  0  0  0  0  0
  -22.5770   -4.4350   21.4490 F   0  0  0  0  0  0  0  0  0  0  0  0
  -21.2870   -3.9980   26.0270 F   0  0  0  0  0  0  0  0  0  0  0  0
  -22.8800  -13.7090   21.1770 C   0  0  0  0  0  0  0  0  0  0  0  0
  -22.1680  -13.0080   22.0520 N   0  0  0  0  0  0  0  0  0  0  0  0
  -22.4300  -14.7330   20.6650 O   0  0  0  0  0  0  0  0  0  0  0  0
  -22.5470  -12.1800   22.4880 H   0  0  0  0  0  0  0  0  0  0  0  0
  -21.2330  -13.3040   22.2920 H   0  0  0  0  0  0  0  0  0  0  0  0
  -25.4820  -15.3990   20.3450 N   0  0  0  0  0  0  0  0  0  0  0  0
  -24.7100  -16.0440   20.4690 H   0  0  0  0  0  0  0  0  0  0  0  0
  -26.3140  -15.8450   19.9780 H   0  0  0  0  0  0  0  0  0  0  0  0
  -27.9870  -24.6300   19.8690 C   0  0  0  0  0  2  0  0  0  0  0  0
  -28.2910  -26.1850   20.0930 O   0  0  0  0  0  0  0  0  0  0  0  0
  -24.6590  -31.8850   23.2500 C   0  0  0  0  0  0  0  0  0  0  0  0
  -27.2540  -27.2240   20.0590 C   0  0  0  0  0  0  0  0  0  0  0  0
  -23.4650  -30.5310   21.5750 C   0  0  0  0  0  3  0  0  0  0  0  0
  -24.9210  -29.0090   20.0900 C   0  0  0  0  0  0  0  0  0  0  0  0
  -26.0220  -30.8040   21.4110 C   0  0  0  0  0  2  0  0  0  0  0  0
  -26.1050  -29.4270   20.7110 C   0  0  0  0  0  0  0  0  0  0  0  0
  -27.2700  -28.5540   20.6760 C   0  0  0  0  0  3  0  0  0  0  0  0
  -26.0390  -26.9350   19.3970 C   0  0  0  0  0  3  0  0  0  0  0  0
  -24.9070  -27.7810   19.4150 C   0  0  0  0  0  3  0  0  0  0  0  0
  -23.6890  -29.9010   20.1750 C   0  0  0  0  0  2  0  0  0  0  0  0
  -24.7360  -31.0960   22.1330 N   0  0  0  0  0  0  0  0  0  0  0  0
  -23.5710  -32.1430   23.7910 O   0  0  0  0  0  0  0  0  0  0  0  0
  -22.7970  -29.4900   22.5090 C   0  0  0  0  0  0  0  0  0  0  0  0
  -21.4720  -29.2970   22.3720 N   0  0  0  0  0  0  0  0  0  0  0  0
  -23.4750  -28.8590   23.3240 O   0  0  0  0  0  0  0  0  0  0  0  0
  -20.9790  -29.8590   21.6910 H   0  0  0  0  0  0  0  0  0  0  0  0
  -18.1130  -28.0110   22.8310 C   0  0  0  0  0  0  0  0  0  0  0  0
  -20.6650  -28.3250   23.1160 C   0  0  0  0  0  3  0  0  0  0  0  0
  -20.8010  -26.9090   22.5080 C   0  0  0  0  0  2  0  0  0  0  0  0
  -19.7110  -26.5870   21.4800 C   0  0  0  0  0  2  0  0  0  0  0  0
  -18.3230  -26.6850   22.1210 C   0  0  0  0  0  2  0  0  0  0  0  0
  -19.2120  -28.7890   23.2840 C   0  0  0  0  0  0  0  0  0  0  0  0
  -18.9610  -30.0290   23.9090 C   0  0  0  0  0  3  0  0  0  0  0  0
  -17.6440  -30.4940   24.0850 C   0  0  0  0  0  3  0  0  0  0  0  0
  -16.5590  -29.7150   23.6460 C   0  0  0  0  0  3  0  0  0  0  0  0
  -16.7950  -28.4750   23.0250 C   0  0  0  0  0  3  0  0  0  0  0  0
  -25.9310  -32.5170   23.8930 C   0  0  0  0  0  3  0  0  0  0  0  0
  -25.6180  -33.9170   24.2280 N   0  0  0  0  0  0  0  0  0  0  0  0
  -25.9230  -34.9740   23.4640 C   0  0  0  0  0  0  0  0  0  0  0  0
  -26.5620  -34.8750   22.4140 O   0  0  0  0  0  0  0  0  0  0  0  0
  -25.0470  -34.0670   25.0460 H   0  0  0  0  0  0  0  0  0  0  0  0
  -24.1620  -36.7520   23.1890 C   0  0  0  0  0  1  0  0  0  0  0  0
  -25.4460  -36.3610   23.9390 C   0  0  0  0  0  3  0  0  0  0  0  0
  -27.6040  -37.2800   24.6690 C   0  0  0  0  0  1  0  0  0  0  0  0
  -26.4610  -37.4250   23.7700 N   0  0  0  0  0  0  0  0  0  0  0  0
  -26.0510  -38.3420   23.9230 H   0  0  0  0  0  0  0  0  0  0  0  0
  -26.4240  -31.7450   25.1790 C   0  0  1  0  0  0  0  0  0  0  0  0
  -25.3130  -31.5130   26.2300 C   0  0  0  0  0  1  0  0  0  0  0  0
  -27.0070  -30.3630   24.8030 C   0  0  0  0  0  1  0  0  0  0  0  0
  -27.5680  -32.5350   25.8570 C   0  0  0  0  0  1  0  0  0  0  0  0
  1  2  2  0
  2  8  1  0
  2  3  1  0
  5  1  1  0
  5  4  1  0
  5  7  1  0
  6  4  1  0
  6  3  1  0
  7 47  1  0
  7  6  1  0
  8 17  1  0
  9 17  1  0
 10 15  1  0
 11 12  1  0
 11 10  1  0
 13 12  1  0
 13 22  1  0
 13 14  1  0
 15  9  1  0
 15 14  1  0
 16  9  2  0
 17 18  1  0
 19 20  2  0
 20 39  1  0
 21 20  1  0
 21 24  1  0
 22 23  1  0
 22 19  1  0
 23 21  2  0
 24 25  1  0
 25 26  2  0
 27 30  1  0
 27 26  1  0
 28 27  2  0
 29 28  1  0
 29 24  2  0
 30 31  1  0
 31 32  1  0
 32 33  2  0
 34 33  1  0
 34 38  1  0
 35 34  2  0
 36 31  2  0
 36 35  1  0
 37 36  1  0
 39 40  1  0
 40 43  1  0
 40 42  1  0
 41 39  2  0
 44 45  1  0
 44 19  1  0
 46 44  1  0
 47 48  1  0
 49 60  2  0
 50 48  1  0
 50 55  1  0
 51 59  1  0
 51 61  1  0
 52 58  1  0
 52 54  1  0
 53 59  1  0
 54 53  1  0
 55 54  2  0
 56 57  1  0
 56 50  2  0
 57 52  2  0
 58 51  1  0
 59 49  1  0
 61 63  2  0
 62 61  1  0
 64 62  1  0
 65 74  2  0
 65 70  1  0
 66 62  1  0
 66 70  1  0
 67 66  1  0
 68 69  1  0
 68 67  1  0
 69 65  1  0
 70 71  2  0
 71 72  1  0
 73 72  2  0
 74 73  1  0
 75 49  1  0
 75 76  1  0
 75 85  1  0
 76 79  1  0
 77 81  1  0
 77 76  1  0
 78 77  2  0
 81 80  1  0
 83 84  1  0
 83 81  1  0
 83 82  1  0
 85 88  1  1
 85 86  1  0
 87 85  1  0
M  ISO  4   9 100  17 100  47 101  48 101
M  END
>  <TORSDO>  (9) 
F 18

>  <SCORE>  (9) 
-15.627

>  <name>  (9) 
8

>  <ligand_id>  (9) 
8

>  <original_smiles>  (9) 
[H]C1=C(C([H])([H])N([H])C(=O)N2C([H])([H])C([H])([H])C([H])([H])C([H])(n3nc(-c4c([H])c([H])c(Oc5c([H])c([H])c(F)c([H])c5F)c([H])c4[H])c(C(=O)N([H])[H])c3N([H])[H])C2([H])[H])C([H])([H])C2([H])C([H])([H])C1([H])C2([H])C([H])([H])Oc1c([H])c([H])c2c(c1[H])C([H])([H])N(C(=O)C([H])(N([H])C(=O)C([H])(N([H])C([H])([H])[H])C([H])([H])[H])C(C([H])([H])[H])(C([H])([H])[H])C([H])([H])[H])C([H])(C(=O)N([H])C1([H])c3c([H])c([H])c([H])c([H])c3C([H])([H])C([H])([H])C1([H])[H])C2([H])[H]

>  <smiles>  (9) 
[H]C1=C(C([H])([H])N([H])C(=O)N2C([H])([H])C([H])([H])C([H])([H])C([H])(n3nc(-c4c([H])c([H])c(Oc5c([H])c([H])c(F)c([H])c5F)c([H])c4[H])c(C(=O)N([H])[H])c3N([H])[H])C2([H])[H])C([H])([H])C2([H])C([H])([H])C1([H])C2([H])C([H])([H])Oc1c([H])c([H])c2c(c1[H])C([H])([H])N(C(=O)C([H])(N([H])C(=O)C([H])(N([H])C([H])([H])[H])C([H])([H])[H])C(C([H])([H])[H])(C([H])([H])[H])C([H])([H])[H])C([H])(C(=O)N([H])C1([H])c3c([H])c([H])c([H])c([H])c3C([H])([H])C([H])([H])C1([H])[H])C2([H])[H]

$$$$
9:0:0
     RDKit          3D

 97106  0  0  1  0  0  0  0  0999 V2000
  -29.7110  -20.6250   19.2020 C   0  0  0  0  0  3  0  0  0  0  0  0
  -29.6730  -21.9400   18.8880 C   0  0  0  0  0  0  0  0  0  0  0  0
  -27.7950  -20.7940   20.7220 C   0  0  0  0  0  2  0  0  0  0  0  0
  -30.0930  -21.0830   21.5930 C   0  0  0  0  0  2  0  0  0  0  0  0
  -27.7320  -22.3160   20.3800 C   0  0  0  0  0  2  0  0  0  0  0  0
  -30.0330  -22.6050   21.2490 C   0  0  0  0  0  2  0  0  0  0  0  0
  -29.2430  -20.2410   20.5970 C   0  0  2  0  0  0  0  0  0  0  0  0
  -29.1370  -22.8740   20.0030 C   0  0  1  0  0  0  0  0  0  0  0  0
  -30.1130  -22.3870   17.5680 C   0  0  0  0  0  0  0  0  0  0  0  0
  -29.5870  -21.6850   16.5710 N   0  0  0  0  0  0  0  0  0  0  0  0
  -30.8930  -23.3100   17.3370 O   0  0  0  0  0  0  0  0  0  0  0  0
  -28.9340  -20.9410   16.7710 H   0  0  0  0  0  0  0  0  0  0  0  0
  -29.8230  -21.8960   15.6120 H   0  0  0  0  0  0  0  0  0  0  0  0
  -29.2890  -18.7040   20.8830 C   0  0  0  0  0  2  0  0  0  0  0  0
  -30.6380  -17.9790   20.6240 C   0  0  0  0  0  2  0  0  0  0  0  0
  -30.8840  -16.6900   21.4570 C   0  0  0  0  0  2  0  0  0  0  0  0
  -30.7960  -14.5330   20.1760 C   0  0  0  0  0  0  0  0  0  0  0  0
  -30.3950  -12.4510   18.9050 C   0  0  0  0  0  2  0  0  0  0  0  0
  -29.3810  -12.7120   17.7730 C   0  0  0  0  0  2  0  0  0  0  0  0
  -27.9360  -12.5550   18.2860 C   0  0  0  0  0  2  0  0  0  0  0  0
  -27.6830  -13.3360   19.6040 C   0  0  0  0  0  3  0  0  0  0  0  0
  -28.7990  -13.0570   20.6330 C   0  0  0  0  0  2  0  0  0  0  0  0
  -30.0880  -13.3850   20.0010 N   0  0  0  0  0  0  0  0  0  0  0  0
  -31.8690  -14.7490   19.6040 O   0  0  0  0  0  0  0  0  0  0  0  0
  -30.2310  -15.4650   20.9670 N   0  0  0  0  0  0  0  0  0  0  0  0
  -29.3310  -15.2320   21.3620 H   0  0  0  0  0  0  0  0  0  0  0  0
  -25.3270  -13.9200   20.4590 C   0  0  0  0  0  0  0  0  0  0  0  0
  -24.2810  -13.1370   20.8660 C   0  0  0  0  0  0  0  0  0  0  0  0
  -24.7400  -11.7870   20.7740 C   0  0  0  0  0  0  0  0  0  0  0  0
  -26.3580  -13.0460   20.1490 N   0  0  0  0  0  0  0  0  0  0  0  0
  -26.0110  -11.7570   20.3940 N   0  0  0  0  0  0  0  0  0  0  0  0
  -24.0250  -10.5190   20.9700 C   0  0  0  0  0  0  0  0  0  0  0  0
  -24.4780   -9.5520   21.8950 C   0  0  0  0  0  3  0  0  0  0  0  0
  -23.7640   -8.3490   22.0790 C   0  0  0  0  0  3  0  0  0  0  0  0
  -22.5830   -8.1030   21.3380 C   0  0  0  0  0  0  0  0  0  0  0  0
  -22.1500   -9.0590   20.4030 C   0  0  0  0  0  3  0  0  0  0  0  0
  -22.8650  -10.2540   20.2160 C   0  0  0  0  0  3  0  0  0  0  0  0
  -21.8390   -6.9520   21.4320 O   0  0  0  0  0  0  0  0  0  0  0  0
  -21.7760   -6.2280   22.5960 C   0  0  0  0  0  0  0  0  0  0  0  0
  -21.2730   -6.7850   23.7930 C   0  0  0  0  0  3  0  0  0  0  0  0
  -21.1620   -5.9850   24.9470 C   0  0  0  0  0  3  0  0  0  0  0  0
  -21.5420   -4.6300   24.9070 C   0  0  0  0  0  0  0  0  0  0  0  0
  -22.0370   -4.0730   23.7150 C   0  0  0  0  0  3  0  0  0  0  0  0
  -22.1510   -4.8700   22.5610 C   0  0  0  0  0  0  0  0  0  0  0  0
  -22.6090   -4.3240   21.4100 F   0  0  0  0  0  0  0  0  0  0  0  0
  -21.4270   -3.8590   26.0130 F   0  0  0  0  0  0  0  0  0  0  0  0
  -22.9010  -13.6040   21.2280 C   0  0  0  0  0  0  0  0  0  0  0  0
  -22.2190  -12.8780   22.1070 N   0  0  0  0  0  0  0  0  0  0  0  0
  -22.4380  -14.6480   20.7690 O   0  0  0  0  0  0  0  0  0  0  0  0
  -22.6060  -12.0320   22.4990 H   0  0  0  0  0  0  0  0  0  0  0  0
  -21.2950  -13.1710   22.3910 H   0  0  0  0  0  0  0  0  0  0  0  0
  -25.4820  -15.2950   20.3090 N   0  0  0  0  0  0  0  0  0  0  0  0
  -24.7260  -15.9480   20.4810 H   0  0  0  0  0  0  0  0  0  0  0  0
  -26.3190  -15.7420   19.9550 H   0  0  0  0  0  0  0  0  0  0  0  0
  -29.0860  -24.3980   19.6110 C   0  0  0  0  0  2  0  0  0  0  0  0
  -28.4960  -25.3930   20.6440 C   0  0  0  0  0  2  0  0  0  0  0  0
  -28.5910  -26.7610   20.1960 O   0  0  0  0  0  0  0  0  0  0  0  0
  -24.6050  -31.8530   23.1960 C   0  0  0  0  0  0  0  0  0  0  0  0
  -27.4150  -27.4810   20.1620 C   0  0  0  0  0  0  0  0  0  0  0  0
  -23.4750  -30.4540   21.4980 C   0  0  0  0  0  3  0  0  0  0  0  0
  -25.0000  -28.9550   20.1040 C   0  0  0  0  0  0  0  0  0  0  0  0
  -26.0010  -30.8530   21.3870 C   0  0  0  0  0  2  0  0  0  0  0  0
  -26.1290  -29.4900   20.7340 C   0  0  0  0  0  0  0  0  0  0  0  0
  -27.3430  -28.7630   20.7550 C   0  0  0  0  0  3  0  0  0  0  0  0
  -26.2700  -26.9620   19.5200 C   0  0  0  0  0  3  0  0  0  0  0  0
  -25.0650  -27.6900   19.4910 C   0  0  0  0  0  3  0  0  0  0  0  0
  -23.7420  -29.7940   20.1180 C   0  0  0  0  0  2  0  0  0  0  0  0
  -24.7100  -31.0680   22.0860 N   0  0  0  0  0  0  0  0  0  0  0  0
  -23.5020  -32.1030   23.7020 O   0  0  0  0  0  0  0  0  0  0  0  0
  -22.8080  -29.4110   22.4240 C   0  0  0  0  0  0  0  0  0  0  0  0
  -21.4830  -29.2480   22.2840 N   0  0  0  0  0  0  0  0  0  0  0  0
  -23.4800  -28.7550   23.2230 O   0  0  0  0  0  0  0  0  0  0  0  0
  -21.0030  -29.8320   21.6120 H   0  0  0  0  0  0  0  0  0  0  0  0
  -18.0850  -28.1190   22.7680 C   0  0  0  0  0  0  0  0  0  0  0  0
  -20.6510  -28.2970   23.0200 C   0  0  0  0  0  3  0  0  0  0  0  0
  -20.7090  -26.8930   22.3770 C   0  0  0  0  0  2  0  0  0  0  0  0
  -19.5880  -26.6470   21.3620 C   0  0  0  0  0  2  0  0  0  0  0  0
  -18.2180  -26.7980   22.0290 C   0  0  0  0  0  2  0  0  0  0  0  0
  -19.2280  -28.8310   23.2190 C   0  0  0  0  0  0  0  0  0  0  0  0
  -19.0500  -30.0710   23.8690 C   0  0  0  0  0  3  0  0  0  0  0  0
  -17.7610  -30.5990   24.0730 C   0  0  0  0  0  3  0  0  0  0  0  0
  -16.6320  -29.8830   23.6390 C   0  0  0  0  0  3  0  0  0  0  0  0
  -16.7950  -28.6440   22.9920 C   0  0  0  0  0  3  0  0  0  0  0  0
  -25.8600  -32.4950   23.8660 C   0  0  0  0  0  3  0  0  0  0  0  0
  -25.5310  -33.8930   24.1740 N   0  0  0  0  0  0  0  0  0  0  0  0
  -25.8890  -34.9420   23.4230 C   0  0  0  0  0  0  0  0  0  0  0  0
  -26.6030  -34.8360   22.4210 O   0  0  0  0  0  0  0  0  0  0  0  0
  -24.9030  -34.0500   24.9490 H   0  0  0  0  0  0  0  0  0  0  0  0
  -24.1810  -36.7290   22.9680 C   0  0  0  0  0  1  0  0  0  0  0  0
  -25.3760  -36.3300   23.8490 C   0  0  0  0  0  3  0  0  0  0  0  0
  -27.4530  -37.2270   24.8020 C   0  0  0  0  0  1  0  0  0  0  0  0
  -26.4110  -37.3840   23.7910 N   0  0  0  0  0  0  0  0  0  0  0  0
  -25.9940  -38.3050   23.9050 H   0  0  0  0  0  0  0  0  0  0  0  0
  -26.3300  -31.7330   25.1660 C   0  0  1  0  0  0  0  0  0  0  0  0
  -25.1950  -31.4870   26.1870 C   0  0  0  0  0  1  0  0  0  0  0  0
  -26.9420  -30.3600   24.8010 C   0  0  0  0  0  1  0  0  0  0  0  0
  -27.4440  -32.5400   25.8730 C   0  0  0  0  0  1  0  0  0  0  0  0
  1  7  1  0
  2  1  2  0
  2  8  1  0
  5  3  1  0
  6  4  1  0
  7  3  1  0
  7 14  1  1
  7  4  1  0
  8 55  1  6
  8  5  1  0
  8  6  1  0
  9  2  1  0
 10 12  1  0
 10  9  1  0
 11  9  2  0
 13 10  1  0
 15 14  1  0
 15 16  1  0
 17 25  1  0
 18 23  1  0
 19 20  1  0
 19 18  1  0
 21 20  1  0
 21 30  1  0
 21 22  1  0
 23 17  1  0
 23 22  1  0
 24 17  2  0
 25 26  1  0
 25 16  1  0
 27 28  2  0
 28 47  1  0
 29 28  1  0
 29 32  1  0
 30 31  1  0
 30 27  1  0
 31 29  2  0
 32 33  1  0
 33 34  2  0
 35 38  1  0
 35 34  1  0
 36 35  2  0
 37 36  1  0
 37 32  2  0
 38 39  1  0
 39 40  1  0
 40 41  2  0
 42 41  1  0
 42 46  1  0
 43 42  2  0
 44 39  2  0
 44 43  1  0
 45 44  1  0
 47 48  1  0
 48 51  1  0
 48 50  1  0
 49 47  2  0
 52 27  1  0
 52 53  1  0
 54 52  1  0
 55 56  1  0
 57 56  1  0
 58 69  2  0
 59 57  1  0
 59 64  1  0
 60 68  1  0
 60 70  1  0
 61 67  1  0
 61 63  1  0
 62 68  1  0
 63 64  2  0
 63 62  1  0
 65 59  2  0
 66 65  1  0
 66 61  2  0
 67 60  1  0
 68 58  1  0
 70 72  2  0
 71 70  1  0
 73 71  1  0
 74 83  2  0
 74 79  1  0
 75 71  1  0
 75 79  1  0
 76 75  1  0
 77 78  1  0
 77 76  1  0
 78 74  1  0
 79 80  2  0
 80 81  1  0
 82 81  2  0
 83 82  1  0
 84 58  1  0
 84 85  1  0
 84 94  1  0
 85 88  1  0
 86 90  1  0
 86 85  1  0
 87 86  2  0
 90 89  1  0
 92 90  1  0
 92 93  1  0
 92 91  1  0
 94 97  1  1
 94 95  1  0
 96 94  1  0
M  ISO  4  17 100  25 100  56 101  57 101
M  END
>  <TORSDO>  (10) 
F 22

>  <SCORE>  (10) 
-13.094

>  <name>  (10) 
9

>  <ligand_id>  (10) 
9

>  <original_smiles>  (10) 
[H]C1=C(C(=O)N([H])[H])C2(C([H])([H])C([H])([H])Oc3c([H])c([H])c4c(c3[H])C([H])([H])N(C(=O)C([H])(N([H])C(=O)C([H])(N([H])C([H])([H])[H])C([H])([H])[H])C(C([H])([H])[H])(C([H])([H])[H])C([H])([H])[H])C([H])(C(=O)N([H])C3([H])c5c([H])c([H])c([H])c([H])c5C([H])([H])C([H])([H])C3([H])[H])C4([H])[H])C([H])([H])C([H])([H])C1(C([H])([H])C([H])([H])C([H])([H])N([H])C(=O)N1C([H])([H])C([H])([H])C([H])([H])C([H])(n3nc(-c4c([H])c([H])c(Oc5c([H])c([H])c(F)c([H])c5F)c([H])c4[H])c(C(=O)N([H])[H])c3N([H])[H])C1([H])[H])C([H])([H])C2([H])[H]

>  <smiles>  (10) 
[H]C1=C(C(=O)N([H])[H])C2(C([H])([H])C([H])([H])Oc3c([H])c([H])c4c(c3[H])C([H])([H])N(C(=O)C([H])(N([H])C(=O)C([H])(N([H])C([H])([H])[H])C([H])([H])[H])C(C([H])([H])[H])(C([H])([H])[H])C([H])([H])[H])C([H])(C(=O)N([H])C3([H])c5c([H])c([H])c([H])c([H])c5C([H])([H])C([H])([H])C3([H])[H])C4([H])[H])C([H])([H])C([H])([H])C1(C([H])([H])C([H])([H])C([H])([H])N([H])C(=O)N1C([H])([H])C([H])([H])C([H])([H])C([H])(n3nc(-c4c([H])c([H])c(Oc5c([H])c([H])c(F)c([H])c5F)c([H])c4[H])c(C(=O)N([H])[H])c3N([H])[H])C1([H])[H])C([H])([H])C2([H])[H]

$$$$
10:0:0
     RDKit          3D

 91100  0  0  1  0  0  0  0  0999 V2000
  -28.2150  -18.8460   19.5540 C   0  0  0  0  0  3  0  0  0  0  0  0
  -28.5400  -17.4810   19.7720 C   0  0  0  0  0  3  0  0  0  0  0  0
  -30.4830  -18.1440   21.0480 C   0  0  0  0  0  3  0  0  0  0  0  0
  -28.9990  -19.8970   20.0910 C   0  0  0  0  0  0  0  0  0  0  0  0
  -30.1580  -19.5290   20.8250 C   0  0  0  0  0  0  0  0  0  0  0  0
  -29.6710  -17.0850   20.5290 C   0  0  0  0  0  0  0  0  0  0  0  0
  -28.5730  -21.3860   19.8600 C   0  0  0  0  0  2  0  0  0  0  0  0
  -31.0280  -20.6450   21.4090 C   0  0  0  0  0  2  0  0  0  0  0  0
  -30.8350  -22.0290   20.7260 C   0  0  0  0  0  2  0  0  0  0  0  0
  -29.3590  -22.5120   20.6380 C   0  0  0  0  0  3  0  0  0  0  0  0
  -30.6000  -14.6650   20.4480 C   0  0  0  0  0  0  0  0  0  0  0  0
  -30.4320  -12.4220   19.3760 C   0  0  0  0  0  2  0  0  0  0  0  0
  -29.4980  -12.5500   18.1520 C   0  0  0  0  0  2  0  0  0  0  0  0
  -28.0220  -12.3710   18.5670 C   0  0  0  0  0  2  0  0  0  0  0  0
  -27.6450  -13.2340   19.8010 C   0  0  0  0  0  3  0  0  0  0  0  0
  -28.6930  -13.0710   20.9260 C   0  0  0  0  0  2  0  0  0  0  0  0
  -30.0100  -13.4280   20.3710 N   0  0  0  0  0  0  0  0  0  0  0  0
  -31.7510  -14.8560   20.0420 O   0  0  0  0  0  0  0  0  0  0  0  0
  -29.7920  -15.6740   20.8990 N   0  0  0  0  0  0  0  0  0  0  0  0
  -28.9220  -15.2840   21.2280 H   0  0  0  0  0  0  0  0  0  0  0  0
  -25.2460  -13.8350   20.5090 C   0  0  0  0  0  0  0  0  0  0  0  0
  -24.1780  -13.0630   20.8770 C   0  0  0  0  0  0  0  0  0  0  0  0
  -24.6420  -11.7120   20.8530 C   0  0  0  0  0  0  0  0  0  0  0  0
  -26.2920  -12.9550   20.2780 N   0  0  0  0  0  0  0  0  0  0  0  0
  -25.9340  -11.6720   20.5460 N   0  0  0  0  0  0  0  0  0  0  0  0
  -23.9160  -10.4510   21.0470 C   0  0  0  0  0  0  0  0  0  0  0  0
  -24.3510   -9.4860   21.9830 C   0  0  0  0  0  3  0  0  0  0  0  0
  -23.6310   -8.2850   22.1610 C   0  0  0  0  0  3  0  0  0  0  0  0
  -22.4610   -8.0410   21.4040 C   0  0  0  0  0  0  0  0  0  0  0  0
  -22.0440   -8.9940   20.4570 C   0  0  0  0  0  3  0  0  0  0  0  0
  -22.7650  -10.1850   20.2760 C   0  0  0  0  0  3  0  0  0  0  0  0
  -21.7110   -6.8940   21.4920 O   0  0  0  0  0  0  0  0  0  0  0  0
  -21.6630   -6.1500   22.6430 C   0  0  0  0  0  0  0  0  0  0  0  0
  -21.2360   -6.7030   23.8700 C   0  0  0  0  0  3  0  0  0  0  0  0
  -21.1380   -5.8850   25.0150 C   0  0  0  0  0  3  0  0  0  0  0  0
  -21.4560   -4.5150   24.9310 C   0  0  0  0  0  0  0  0  0  0  0  0
  -21.8760   -3.9620   23.7080 C   0  0  0  0  0  3  0  0  0  0  0  0
  -21.9770   -4.7780   22.5670 C   0  0  0  0  0  0  0  0  0  0  0  0
  -22.3620   -4.2360   21.3860 F   0  0  0  0  0  0  0  0  0  0  0  0
  -21.3540   -3.7270   26.0260 F   0  0  0  0  0  0  0  0  0  0  0  0
  -22.7780  -13.5390   21.1390 C   0  0  0  0  0  0  0  0  0  0  0  0
  -22.0420  -12.8450   22.0000 N   0  0  0  0  0  0  0  0  0  0  0  0
  -22.3430  -14.5630   20.6140 O   0  0  0  0  0  0  0  0  0  0  0  0
  -22.4060  -12.0200   22.4530 H   0  0  0  0  0  0  0  0  0  0  0  0
  -21.1020  -13.1470   22.2130 H   0  0  0  0  0  0  0  0  0  0  0  0
  -25.4100  -15.2050   20.3360 N   0  0  0  0  0  0  0  0  0  0  0  0
  -24.6410  -15.8560   20.4500 H   0  0  0  0  0  0  0  0  0  0  0  0
  -26.2590  -15.6480   20.0140 H   0  0  0  0  0  0  0  0  0  0  0  0
  -29.2720  -24.0210   20.0790 C   0  0  0  0  0  3  0  0  0  0  0  0
  -28.1780  -25.0560   20.5950 C   0  0  0  0  0  3  0  0  0  0  0  0
  -28.3530  -26.4850   20.2320 O   0  0  0  0  0  0  0  0  0  0  0  0
  -24.6010  -31.8830   23.2450 C   0  0  0  0  0  0  0  0  0  0  0  0
  -27.2230  -27.3160   20.2180 C   0  0  0  0  0  0  0  0  0  0  0  0
  -23.3990  -30.4720   21.6140 C   0  0  0  0  0  3  0  0  0  0  0  0
  -24.8520  -28.9150   20.1980 C   0  0  0  0  0  0  0  0  0  0  0  0
  -25.9350  -30.7980   21.4230 C   0  0  0  0  0  2  0  0  0  0  0  0
  -26.0200  -29.4130   20.7900 C   0  0  0  0  0  0  0  0  0  0  0  0
  -27.2100  -28.6260   20.7890 C   0  0  0  0  0  3  0  0  0  0  0  0
  -26.0360  -26.8720   19.5950 C   0  0  0  0  0  3  0  0  0  0  0  0
  -24.8610  -27.6500   19.5910 C   0  0  0  0  0  3  0  0  0  0  0  0
  -23.6120  -29.7860   20.2390 C   0  0  0  0  0  2  0  0  0  0  0  0
  -24.6650  -31.0700   22.1510 N   0  0  0  0  0  0  0  0  0  0  0  0
  -23.5170  -32.1620   23.7780 O   0  0  0  0  0  0  0  0  0  0  0  0
  -22.7390  -29.4600   22.5790 C   0  0  0  0  0  0  0  0  0  0  0  0
  -21.4140  -29.2800   22.4530 N   0  0  0  0  0  0  0  0  0  0  0  0
  -23.4180  -28.8410   23.4030 O   0  0  0  0  0  0  0  0  0  0  0  0
  -20.9260  -29.8300   21.7600 H   0  0  0  0  0  0  0  0  0  0  0  0
  -18.0360  -28.0910   22.9590 C   0  0  0  0  0  0  0  0  0  0  0  0
  -20.5950  -28.3460   23.2280 C   0  0  0  0  0  3  0  0  0  0  0  0
  -20.6940  -26.9130   22.6560 C   0  0  0  0  0  2  0  0  0  0  0  0
  -19.5910  -26.5900   21.6440 C   0  0  0  0  0  2  0  0  0  0  0  0
  -18.2090  -26.7390   22.2880 C   0  0  0  0  0  2  0  0  0  0  0  0
  -19.1560  -28.8520   23.3860 C   0  0  0  0  0  0  0  0  0  0  0  0
  -18.9390  -30.1170   23.9750 C   0  0  0  0  0  3  0  0  0  0  0  0
  -17.6360  -30.6200   24.1430 C   0  0  0  0  0  3  0  0  0  0  0  0
  -16.5300  -29.8560   23.7320 C   0  0  0  0  0  3  0  0  0  0  0  0
  -16.7310  -28.5940   23.1440 C   0  0  0  0  0  3  0  0  0  0  0  0
  -25.8820  -32.5200   23.8650 C   0  0  0  0  0  3  0  0  0  0  0  0
  -25.5700  -33.9190   24.1880 N   0  0  0  0  0  0  0  0  0  0  0  0
  -25.9050  -34.9680   23.4250 C   0  0  0  0  0  0  0  0  0  0  0  0
  -26.5770  -34.8600   22.3960 O   0  0  0  0  0  0  0  0  0  0  0  0
  -24.9690  -34.0780   24.9840 H   0  0  0  0  0  0  0  0  0  0  0  0
  -24.1780  -36.7590   23.0580 C   0  0  0  0  0  1  0  0  0  0  0  0
  -25.4160  -36.3590   23.8750 C   0  0  0  0  0  3  0  0  0  0  0  0
  -27.5480  -37.2450   24.7090 C   0  0  0  0  0  1  0  0  0  0  0  0
  -26.4490  -37.4110   23.7620 N   0  0  0  0  0  0  0  0  0  0  0  0
  -26.0430  -38.3310   23.9070 H   0  0  0  0  0  0  0  0  0  0  0  0
  -26.3960  -31.7560   25.1470 C   0  0  1  0  0  0  0  0  0  0  0  0
  -25.3010  -31.5320   26.2160 C   0  0  0  0  0  1  0  0  0  0  0  0
  -26.9740  -30.3730   24.7640 C   0  0  0  0  0  1  0  0  0  0  0  0
  -27.5510  -32.5510   25.8000 C   0  0  0  0  0  1  0  0  0  0  0  0
  1  2  2  0
  1  4  1  0
  2  6  1  0
  4  5  2  0
  5  3  1  0
  5  8  1  0
  6 19  1  0
  6  3  2  0
  7  4  1  0
  7 10  1  0
  9  8  1  0
 10 49  1  0
 10  9  1  0
 11 19  1  0
 12 17  1  0
 13 14  1  0
 13 12  1  0
 15 14  1  0
 15 24  1  0
 15 16  1  0
 17 11  1  0
 17 16  1  0
 18 11  2  0
 19 20  1  0
 21 22  2  0
 22 41  1  0
 23 22  1  0
 23 26  1  0
 24 21  1  0
 24 25  1  0
 25 23  2  0
 26 27  1  0
 27 28  2  0
 29 32  1  0
 29 28  1  0
 30 29  2  0
 31 30  1  0
 31 26  2  0
 32 33  1  0
 33 34  1  0
 34 35  2  0
 36 35  1  0
 36 40  1  0
 37 36  2  0
 38 33  2  0
 38 37  1  0
 39 38  1  0
 41 42  1  0
 42 45  1  0
 42 44  1  0
 43 41  2  0
 46 47  1  0
 46 21  1  0
 48 46  1  0
 49 50  2  0
 51 50  1  0
 52 63  2  0
 53 51  1  0
 53 58  1  0
 54 62  1  0
 54 64  1  0
 55 61  1  0
 55 57  1  0
 56 62  1  0
 57 56  1  0
 58 57  2  0
 59 53  2  0
 60 59  1  0
 60 55  2  0
 61 54  1  0
 62 52  1  0
 64 66  2  0
 65 64  1  0
 67 65  1  0
 68 77  2  0
 68 73  1  0
 69 65  1  0
 69 73  1  0
 70 69  1  0
 71 72  1  0
 71 70  1  0
 72 68  1  0
 73 74  2  0
 74 75  1  0
 76 75  2  0
 77 76  1  0
 78 52  1  0
 78 79  1  0
 78 88  1  0
 79 82  1  0
 80 84  1  0
 80 79  1  0
 81 80  2  0
 84 83  1  0
 86 84  1  0
 86 87  1  0
 86 85  1  0
 88 91  1  1
 88 89  1  0
 90 88  1  0
M  ISO  4  11 100  19 100  50 101  51 101
M  END
>  <TORSDO>  (11) 
F 18

>  <SCORE>  (11) 
-14.978

>  <name>  (11) 
10

>  <ligand_id>  (11) 
10

>  <original_smiles>  (11) 
[H]c1c([H])c([H])c2c(c1[H])C([H])([H])C([H])([H])C([H])([H])C2([H])N([H])C(=O)C1([H])N(C(=O)C([H])(N([H])C(=O)C([H])(N([H])C([H])([H])[H])C([H])([H])[H])C(C([H])([H])[H])(C([H])([H])[H])C([H])([H])[H])C([H])([H])c2c([H])c(OC([H])([H])C([H])([H])C3([H])C([H])([H])c4c([H])c([H])c(N([H])C(=O)N5C([H])([H])C([H])([H])C([H])([H])C([H])(n6nc(-c7c([H])c([H])c(Oc8c([H])c([H])c(F)c([H])c8F)c([H])c7[H])c(C(=O)N([H])[H])c6N([H])[H])C5([H])[H])c([H])c4C([H])([H])C3([H])[H])c([H])c([H])c2C1([H])[H]

>  <smiles>  (11) 
[H]c1c([H])c([H])c2c(c1[H])C([H])([H])C([H])([H])C([H])([H])C2([H])N([H])C(=O)C1([H])N(C(=O)C([H])(N([H])C(=O)C([H])(N([H])C([H])([H])[H])C([H])([H])[H])C(C([H])([H])[H])(C([H])([H])[H])C([H])([H])[H])C([H])([H])c2c([H])c(OC([H])([H])C([H])([H])C3([H])C([H])([H])c4c([H])c([H])c(N([H])C(=O)N5C([H])([H])C([H])([H])C([H])([H])C([H])(n6nc(-c7c([H])c([H])c(Oc8c([H])c([H])c(F)c([H])c8F)c([H])c7[H])c(C(=O)N([H])[H])c6N([H])[H])C5([H])[H])c([H])c4C([H])([H])C3([H])[H])c([H])c([H])c2C1([H])[H]

$$$$
11:0:0
     RDKit          3D

 90 98  0  0  1  0  0  0  0  0999 V2000
  -27.9720  -20.3530   19.7760 C   0  0  0  0  0  2  0  0  0  0  0  0
  -29.9100  -20.9730   21.2460 C   0  0  0  0  0  2  0  0  0  0  0  0
  -27.9500  -21.7870   19.2030 C   0  0  0  0  0  2  0  0  0  0  0  0
  -29.8720  -22.4150   20.6930 C   0  0  0  0  0  2  0  0  0  0  0  0
  -29.3820  -19.9260   20.2340 C   0  0  0  0  0  3  0  0  0  0  0  0
  -28.4600  -22.8320   20.2200 C   0  0  0  0  0  3  0  0  0  0  0  0
  -29.3910  -18.4760   20.8010 C   0  0  0  0  0  2  0  0  0  0  0  0
  -30.7920  -17.8230   20.8460 C   0  0  0  0  0  2  0  0  0  0  0  0
  -30.9060  -16.5340   21.6960 C   0  0  0  0  0  2  0  0  0  0  0  0
  -30.7730  -14.4520   20.3080 C   0  0  0  0  0  0  0  0  0  0  0  0
  -30.3790  -12.3670   19.0390 C   0  0  0  0  0  2  0  0  0  0  0  0
  -29.3950  -12.6170   17.8810 C   0  0  0  0  0  2  0  0  0  0  0  0
  -27.9380  -12.4770   18.3610 C   0  0  0  0  0  2  0  0  0  0  0  0
  -27.6560  -13.2800   19.6590 C   0  0  0  0  0  3  0  0  0  0  0  0
  -28.7450  -13.0040   20.7200 C   0  0  0  0  0  2  0  0  0  0  0  0
  -30.0530  -13.3130   20.1190 N   0  0  0  0  0  0  0  0  0  0  0  0
  -31.8420  -14.6750   19.7330 O   0  0  0  0  0  0  0  0  0  0  0  0
  -30.2320  -15.3510   21.1470 N   0  0  0  0  0  0  0  0  0  0  0  0
  -29.3370  -15.1080   21.5450 H   0  0  0  0  0  0  0  0  0  0  0  0
  -25.2830  -13.8940   20.4410 C   0  0  0  0  0  0  0  0  0  0  0  0
  -24.2210  -13.1230   20.8350 C   0  0  0  0  0  0  0  0  0  0  0  0
  -24.6760  -11.7700   20.7810 C   0  0  0  0  0  0  0  0  0  0  0  0
  -26.3160  -13.0090   20.1740 N   0  0  0  0  0  0  0  0  0  0  0  0
  -25.9550  -11.7260   20.4340 N   0  0  0  0  0  0  0  0  0  0  0  0
  -23.9500  -10.5100   20.9840 C   0  0  0  0  0  0  0  0  0  0  0  0
  -24.3980   -9.5380   21.9060 C   0  0  0  0  0  3  0  0  0  0  0  0
  -23.6730   -8.3420   22.0950 C   0  0  0  0  0  3  0  0  0  0  0  0
  -22.4850   -8.1080   21.3620 C   0  0  0  0  0  0  0  0  0  0  0  0
  -22.0570   -9.0670   20.4280 C   0  0  0  0  0  3  0  0  0  0  0  0
  -22.7820  -10.2550   20.2360 C   0  0  0  0  0  3  0  0  0  0  0  0
  -21.7300   -6.9650   21.4620 O   0  0  0  0  0  0  0  0  0  0  0  0
  -21.6930   -6.2260   22.6170 C   0  0  0  0  0  0  0  0  0  0  0  0
  -21.2700   -6.7810   23.8440 C   0  0  0  0  0  3  0  0  0  0  0  0
  -21.1810   -5.9670   24.9910 C   0  0  0  0  0  3  0  0  0  0  0  0
  -21.5040   -4.6000   24.9120 C   0  0  0  0  0  0  0  0  0  0  0  0
  -21.9190   -4.0440   23.6890 C   0  0  0  0  0  3  0  0  0  0  0  0
  -22.0100   -4.8540   22.5450 C   0  0  0  0  0  0  0  0  0  0  0  0
  -22.3910   -4.3090   21.3640 F   0  0  0  0  0  0  0  0  0  0  0  0
  -21.4100   -3.8160   26.0120 F   0  0  0  0  0  0  0  0  0  0  0  0
  -22.8360  -13.6040   21.1530 C   0  0  0  0  0  0  0  0  0  0  0  0
  -22.1300  -12.9010   22.0330 N   0  0  0  0  0  0  0  0  0  0  0  0
  -22.3880  -14.6380   20.6590 O   0  0  0  0  0  0  0  0  0  0  0  0
  -22.5050  -12.0640   22.4540 H   0  0  0  0  0  0  0  0  0  0  0  0
  -21.2020  -13.2050   22.2890 H   0  0  0  0  0  0  0  0  0  0  0  0
  -25.4500  -15.2640   20.2690 N   0  0  0  0  0  0  0  0  0  0  0  0
  -24.6930  -15.9260   20.4050 H   0  0  0  0  0  0  0  0  0  0  0  0
  -26.2990  -15.7000   19.9280 H   0  0  0  0  0  0  0  0  0  0  0  0
  -28.4130  -24.2770   19.6430 C   0  0  0  0  0  2  0  0  0  0  0  0
  -28.3440  -25.3920   20.7150 C   0  0  0  0  0  2  0  0  0  0  0  0
  -28.4010  -26.7210   20.1720 O   0  0  0  0  0  0  0  0  0  0  0  0
  -24.5740  -31.8910   23.2380 C   0  0  0  0  0  0  0  0  0  0  0  0
  -27.2260  -27.4380   20.1830 C   0  0  0  0  0  0  0  0  0  0  0  0
  -23.3700  -30.4780   21.6030 C   0  0  0  0  0  3  0  0  0  0  0  0
  -24.8250  -28.9330   20.1890 C   0  0  0  0  0  0  0  0  0  0  0  0
  -25.8940  -30.8420   21.3990 C   0  0  0  0  0  2  0  0  0  0  0  0
  -25.9830  -29.4680   20.7670 C   0  0  0  0  0  0  0  0  0  0  0  0
  -27.1880  -28.7310   20.7550 C   0  0  0  0  0  3  0  0  0  0  0  0
  -26.0490  -26.9130   19.6060 C   0  0  0  0  0  3  0  0  0  0  0  0
  -24.8530  -27.6550   19.6060 C   0  0  0  0  0  3  0  0  0  0  0  0
  -23.5780  -29.7890   20.2300 C   0  0  0  0  0  2  0  0  0  0  0  0
  -24.6310  -31.0860   22.1390 N   0  0  0  0  0  0  0  0  0  0  0  0
  -23.4940  -32.1640   23.7780 O   0  0  0  0  0  0  0  0  0  0  0  0
  -22.7200  -29.4620   22.5710 C   0  0  0  0  0  0  0  0  0  0  0  0
  -21.3960  -29.2770   22.4430 N   0  0  0  0  0  0  0  0  0  0  0  0
  -23.4050  -28.8430   23.3900 O   0  0  0  0  0  0  0  0  0  0  0  0
  -20.9060  -29.8280   21.7520 H   0  0  0  0  0  0  0  0  0  0  0  0
  -18.0220  -28.0870   22.9510 C   0  0  0  0  0  0  0  0  0  0  0  0
  -20.5810  -28.3420   23.2170 C   0  0  0  0  0  3  0  0  0  0  0  0
  -20.6820  -26.9100   22.6440 C   0  0  0  0  0  2  0  0  0  0  0  0
  -19.5780  -26.5860   21.6330 C   0  0  0  0  0  2  0  0  0  0  0  0
  -18.1960  -26.7350   22.2780 C   0  0  0  0  0  2  0  0  0  0  0  0
  -19.1430  -28.8480   23.3770 C   0  0  0  0  0  0  0  0  0  0  0  0
  -18.9270  -30.1140   23.9640 C   0  0  0  0  0  3  0  0  0  0  0  0
  -17.6250  -30.6190   24.1290 C   0  0  0  0  0  3  0  0  0  0  0  0
  -16.5180  -29.8540   23.7190 C   0  0  0  0  0  3  0  0  0  0  0  0
  -16.7190  -28.5900   23.1360 C   0  0  0  0  0  3  0  0  0  0  0  0
  -25.8610  -32.5270   23.8540 C   0  0  0  0  0  3  0  0  0  0  0  0
  -25.5520  -33.9260   24.1760 N   0  0  0  0  0  0  0  0  0  0  0  0
  -25.8900  -34.9740   23.4140 C   0  0  0  0  0  0  0  0  0  0  0  0
  -26.5670  -34.8650   22.3880 O   0  0  0  0  0  0  0  0  0  0  0  0
  -24.9530  -34.0850   24.9740 H   0  0  0  0  0  0  0  0  0  0  0  0
  -24.1740  -36.7710   23.0270 C   0  0  0  0  0  1  0  0  0  0  0  0
  -25.3990  -36.3650   23.8610 C   0  0  0  0  0  3  0  0  0  0  0  0
  -27.5220  -37.2440   24.7280 C   0  0  0  0  0  1  0  0  0  0  0  0
  -26.4380  -37.4140   23.7640 N   0  0  0  0  0  0  0  0  0  0  0  0
  -26.0320  -38.3350   23.9020 H   0  0  0  0  0  0  0  0  0  0  0  0
  -26.3830  -31.7620   25.1320 C   0  0  1  0  0  0  0  0  0  0  0  0
  -25.2920  -31.5220   26.2020 C   0  0  0  0  0  1  0  0  0  0  0  0
  -26.9700  -30.3850   24.7420 C   0  0  0  0  0  1  0  0  0  0  0  0
  -27.5320  -32.5610   25.7890 C   0  0  0  0  0  1  0  0  0  0  0  0
  1  5  1  0
  3  1  1  0
  3  6  1  0
  4  2  1  0
  5  7  1  0
  5  2  1  0
  6 48  1  0
  6  4  1  0
  7  8  1  0
  8  9  1  0
 10 18  1  0
 11 16  1  0
 12 13  1  0
 12 11  1  0
 14 13  1  0
 14 23  1  0
 14 15  1  0
 16 10  1  0
 16 15  1  0
 17 10  2  0
 18 19  1  0
 18  9  1  0
 20 21  2  0
 21 40  1  0
 22 21  1  0
 22 25  1  0
 23 24  1  0
 23 20  1  0
 24 22  2  0
 25 26  1  0
 26 27  2  0
 28 31  1  0
 28 27  1  0
 29 28  2  0
 30 29  1  0
 30 25  2  0
 31 32  1  0
 32 33  1  0
 33 34  2  0
 35 34  1  0
 35 39  1  0
 36 35  2  0
 37 32  2  0
 37 36  1  0
 38 37  1  0
 40 41  1  0
 41 44  1  0
 41 43  1  0
 42 40  2  0
 45 46  1  0
 45 20  1  0
 47 45  1  0
 48 49  1  0
 50 52  1  0
 50 49  1  0
 51 62  2  0
 52 57  1  0
 53 61  1  0
 53 63  1  0
 54 60  1  0
 54 56  1  0
 55 61  1  0
 56 55  1  0
 57 56  2  0
 58 59  1  0
 58 52  2  0
 59 54  2  0
 60 53  1  0
 61 51  1  0
 63 65  2  0
 64 63  1  0
 66 64  1  0
 67 76  2  0
 67 72  1  0
 68 64  1  0
 68 72  1  0
 69 68  1  0
 70 71  1  0
 70 69  1  0
 71 67  1  0
 72 73  2  0
 73 74  1  0
 75 74  2  0
 76 75  1  0
 77 51  1  0
 77 78  1  0
 77 87  1  0
 78 81  1  0
 79 83  1  0
 79 78  1  0
 80 79  2  0
 83 82  1  0
 85 83  1  0
 85 86  1  0
 85 84  1  0
 87 90  1  1
 87 88  1  0
 89 87  1  0
M  ISO  4  10 100  18 100  49 101  50 101
M  END
>  <TORSDO>  (12) 
F 21

>  <SCORE>  (12) 
-13.597

>  <name>  (12) 
11

>  <ligand_id>  (12) 
11

>  <original_smiles>  (12) 
[H]c1c([H])c([H])c2c(c1[H])C([H])([H])C([H])([H])C([H])([H])C2([H])N([H])C(=O)C1([H])N(C(=O)C([H])(N([H])C(=O)C([H])(N([H])C([H])([H])[H])C([H])([H])[H])C(C([H])([H])[H])(C([H])([H])[H])C([H])([H])[H])C([H])([H])c2c([H])c(OC([H])([H])C([H])([H])C3([H])C([H])([H])C([H])([H])C([H])(C([H])([H])C([H])([H])C([H])([H])N([H])C(=O)N4C([H])([H])C([H])([H])C([H])([H])C([H])(n5nc(-c6c([H])c([H])c(Oc7c([H])c([H])c(F)c([H])c7F)c([H])c6[H])c(C(=O)N([H])[H])c5N([H])[H])C4([H])[H])C([H])([H])C3([H])[H])c([H])c([H])c2C1([H])[H]

>  <smiles>  (12) 
[H]c1c([H])c([H])c2c(c1[H])C([H])([H])C([H])([H])C([H])([H])C2([H])N([H])C(=O)C1([H])N(C(=O)C([H])(N([H])C(=O)C([H])(N([H])C([H])([H])[H])C([H])([H])[H])C(C([H])([H])[H])(C([H])([H])[H])C([H])([H])[H])C([H])([H])c2c([H])c(OC([H])([H])C([H])([H])C3([H])C([H])([H])C([H])([H])C([H])(C([H])([H])C([H])([H])C([H])([H])N([H])C(=O)N4C([H])([H])C([H])([H])C([H])([H])C([H])(n5nc(-c6c([H])c([H])c(Oc7c([H])c([H])c(F)c([H])c7F)c([H])c6[H])c(C(=O)N([H])[H])c5N([H])[H])C4([H])[H])C([H])([H])C3([H])[H])c([H])c([H])c2C1([H])[H]

$$$$
13:0:0
     RDKit          3D

 92101  0  0  1  0  0  0  0  0999 V2000
  -30.7660  -19.3130   21.3850 C   0  0  0  0  0  2  0  0  0  0  0  0
  -29.1370  -21.2180   22.2380 C   0  0  0  0  0  2  0  0  0  0  0  0
  -28.8460  -19.8260   19.9720 C   0  0  0  0  0  2  0  0  0  0  0  0
  -30.4070  -20.8010   21.5350 C   0  0  0  0  0  3  0  0  0  0  0  0
  -29.5570  -18.6080   20.7020 C   0  0  0  0  0  3  0  0  0  0  0  0
  -29.1820  -21.1520   20.7210 C   0  0  2  0  0  0  0  0  0  0  0  0
  -28.9960  -22.5130   19.9330 C   0  0  0  0  0  0  0  0  0  0  0  0
  -28.6920  -22.4450   18.7390 O   0  0  0  0  0  0  0  0  0  0  0  0
  -29.1570  -23.9720   20.5450 C   0  0  0  0  0  3  0  0  0  0  0  0
  -28.2110  -25.1190   19.9480 C   0  0  0  0  0  3  0  0  0  0  0  0
  -28.3910  -26.5620   20.2800 O   0  0  0  0  0  0  0  0  0  0  0  0
  -24.6050  -31.9340   23.2760 C   0  0  0  0  0  0  0  0  0  0  0  0
  -27.2730  -27.4170   20.1980 C   0  0  0  0  0  0  0  0  0  0  0  0
  -23.4210  -30.5330   21.6260 C   0  0  0  0  0  3  0  0  0  0  0  0
  -24.8920  -29.0140   20.1880 C   0  0  0  0  0  0  0  0  0  0  0  0
  -25.9580  -30.8790   21.4520 C   0  0  0  0  0  2  0  0  0  0  0  0
  -26.0540  -29.5060   20.7960 C   0  0  0  0  0  0  0  0  0  0  0  0
  -27.2460  -28.7180   20.7950 C   0  0  0  0  0  3  0  0  0  0  0  0
  -26.0900  -26.9960   19.5450 C   0  0  0  0  0  3  0  0  0  0  0  0
  -24.9140  -27.7640   19.5530 C   0  0  0  0  0  3  0  0  0  0  0  0
  -23.6450  -29.8720   20.2400 C   0  0  0  0  0  2  0  0  0  0  0  0
  -24.6800  -31.1330   22.1740 N   0  0  0  0  0  0  0  0  0  0  0  0
  -23.5170  -32.1960   23.8100 O   0  0  0  0  0  0  0  0  0  0  0  0
  -22.7690  -29.5000   22.5780 C   0  0  0  0  0  0  0  0  0  0  0  0
  -21.4450  -29.3090   22.4480 N   0  0  0  0  0  0  0  0  0  0  0  0
  -23.4540  -28.8760   23.3930 O   0  0  0  0  0  0  0  0  0  0  0  0
  -20.9520  -29.8640   21.7630 H   0  0  0  0  0  0  0  0  0  0  0  0
  -18.0790  -28.0780   22.9410 C   0  0  0  0  0  0  0  0  0  0  0  0
  -20.6350  -28.3580   23.2120 C   0  0  0  0  0  3  0  0  0  0  0  0
  -20.7500  -26.9320   22.6260 C   0  0  0  0  0  2  0  0  0  0  0  0
  -19.6500  -26.6070   21.6110 C   0  0  0  0  0  2  0  0  0  0  0  0
  -18.2670  -26.7350   22.2560 C   0  0  0  0  0  2  0  0  0  0  0  0
  -19.1910  -28.8480   23.3760 C   0  0  0  0  0  0  0  0  0  0  0  0
  -18.9610  -30.1040   23.9770 C   0  0  0  0  0  3  0  0  0  0  0  0
  -17.6510  -30.5920   24.1460 C   0  0  0  0  0  3  0  0  0  0  0  0
  -16.5540  -29.8200   23.7270 C   0  0  0  0  0  3  0  0  0  0  0  0
  -16.7680  -28.5650   23.1300 C   0  0  0  0  0  3  0  0  0  0  0  0
  -25.8800  -32.5780   23.9040 C   0  0  0  0  0  3  0  0  0  0  0  0
  -25.5640  -33.9810   24.2090 N   0  0  0  0  0  0  0  0  0  0  0  0
  -25.8970  -35.0220   23.4340 C   0  0  0  0  0  0  0  0  0  0  0  0
  -26.5720  -34.9040   22.4080 O   0  0  0  0  0  0  0  0  0  0  0  0
  -24.9650  -34.1470   25.0040 H   0  0  0  0  0  0  0  0  0  0  0  0
  -24.1660  -36.8040   23.0430 C   0  0  0  0  0  1  0  0  0  0  0  0
  -25.4040  -36.4170   23.8670 C   0  0  0  0  0  3  0  0  0  0  0  0
  -27.5290  -37.3230   24.6980 C   0  0  0  0  0  1  0  0  0  0  0  0
  -26.4340  -37.4700   23.7430 N   0  0  0  0  0  0  0  0  0  0  0  0
  -26.0240  -38.3920   23.8690 H   0  0  0  0  0  0  0  0  0  0  0  0
  -26.3800  -31.8270   25.1980 C   0  0  1  0  0  0  0  0  0  0  0  0
  -25.2740  -31.6060   26.2550 C   0  0  0  0  0  1  0  0  0  0  0  0
  -26.9700  -30.4440   24.8370 C   0  0  0  0  0  1  0  0  0  0  0  0
  -27.5210  -32.6340   25.8630 C   0  0  0  0  0  1  0  0  0  0  0  0
  -29.7890  -17.2390   19.8650 C   0  0  0  0  0  0  0  0  0  0  0  0
  -30.6510  -14.7960   20.3730 C   0  0  0  0  0  0  0  0  0  0  0  0
  -30.4500  -12.5320   19.3720 C   0  0  0  0  0  2  0  0  0  0  0  0
  -29.5220  -12.6410   18.1420 C   0  0  0  0  0  2  0  0  0  0  0  0
  -28.0470  -12.4750   18.5590 C   0  0  0  0  0  2  0  0  0  0  0  0
  -27.6710  -13.3500   19.7840 C   0  0  0  0  0  3  0  0  0  0  0  0
  -28.7210  -13.2370   20.9130 C   0  0  0  0  0  2  0  0  0  0  0  0
  -30.0320  -13.5710   20.3400 N   0  0  0  0  0  0  0  0  0  0  0  0
  -31.8220  -14.9110   20.0020 O   0  0  0  0  0  0  0  0  0  0  0  0
  -29.8500  -15.8970   20.5870 N   0  0  0  0  0  4  0  0  0  0  0  0
  -28.9720  -15.6430   21.0160 H   0  0  0  0  0  0  0  0  0  0  0  0
  -25.2690  -13.9300   20.4850 C   0  0  0  0  0  0  0  0  0  0  0  0
  -24.2060  -13.1490   20.8510 C   0  0  0  0  0  0  0  0  0  0  0  0
  -24.6790  -11.8020   20.8300 C   0  0  0  0  0  0  0  0  0  0  0  0
  -26.3220  -13.0570   20.2620 N   0  0  0  0  0  0  0  0  0  0  0  0
  -25.9720  -11.7720   20.5310 N   0  0  0  0  0  0  0  0  0  0  0  0
  -23.9610  -10.5350   21.0210 C   0  0  0  0  0  0  0  0  0  0  0  0
  -24.3910   -9.5770   21.9660 C   0  0  0  0  0  3  0  0  0  0  0  0
  -23.6720   -8.3760   22.1440 C   0  0  0  0  0  3  0  0  0  0  0  0
  -22.5100   -8.1220   21.3780 C   0  0  0  0  0  0  0  0  0  0  0  0
  -22.1010   -9.0690   20.4210 C   0  0  0  0  0  3  0  0  0  0  0  0
  -22.8190  -10.2620   20.2410 C   0  0  0  0  0  3  0  0  0  0  0  0
  -21.7630   -6.9720   21.4640 O   0  0  0  0  0  0  0  0  0  0  0  0
  -21.7020   -6.2390   22.6220 C   0  0  0  0  0  0  0  0  0  0  0  0
  -21.2420   -6.7980   23.8340 C   0  0  0  0  0  3  0  0  0  0  0  0
  -21.1310   -5.9910   24.9840 C   0  0  0  0  0  3  0  0  0  0  0  0
  -21.4680   -4.6260   24.9220 C   0  0  0  0  0  0  0  0  0  0  0  0
  -21.9210   -4.0660   23.7150 C   0  0  0  0  0  3  0  0  0  0  0  0
  -22.0340   -4.8710   22.5670 C   0  0  0  0  0  0  0  0  0  0  0  0
  -22.4510   -4.3210   21.4010 F   0  0  0  0  0  0  0  0  0  0  0  0
  -21.3530   -3.8480   26.0250 F   0  0  0  0  0  0  0  0  0  0  0  0
  -22.8030  -13.6170   21.1110 C   0  0  0  0  0  0  0  0  0  0  0  0
  -22.0750  -12.9190   21.9750 N   0  0  0  0  0  0  0  0  0  0  0  0
  -22.3610  -14.6360   20.5840 O   0  0  0  0  0  0  0  0  0  0  0  0
  -22.4450  -12.0950   22.4240 H   0  0  0  0  0  0  0  0  0  0  0  0
  -21.1330  -13.2150   22.1920 H   0  0  0  0  0  0  0  0  0  0  0  0
  -25.4230  -15.3000   20.3000 N   0  0  0  0  0  0  0  0  0  0  0  0
  -24.6460  -15.9450   20.3970 H   0  0  0  0  0  0  0  0  0  0  0  0
  -26.2630  -15.7440   19.9530 H   0  0  0  0  0  0  0  0  0  0  0  0
  -31.5740  -18.5060   18.0290 C   0  0  0  0  0  1  0  0  0  0  0  0
  -30.7890  -17.3230   18.6590 C   0  0  0  0  0  2  0  0  0  0  0  0
  3  5  1  0
  3  6  1  0
  4  1  1  0
  4  2  1  0
  5 52  1  0
  5  1  1  0
  6  7  1  6
  6  4  1  0
  6  2  1  0
  7  9  1  0
  8  7  2  0
 10 11  1  0
 10  9  2  0
 12 23  2  0
 13 11  1  0
 13 18  1  0
 14 22  1  0
 14 24  1  0
 15 21  1  0
 15 17  1  0
 16 22  1  0
 17 16  1  0
 18 17  2  0
 19 20  1  0
 19 13  2  0
 20 15  2  0
 21 14  1  0
 22 12  1  0
 24 26  2  0
 25 24  1  0
 27 25  1  0
 28 37  2  0
 28 33  1  0
 29 25  1  0
 29 33  1  0
 30 29  1  0
 31 32  1  0
 31 30  1  0
 32 28  1  0
 33 34  2  0
 34 35  1  0
 36 35  2  0
 37 36  1  0
 38 12  1  0
 38 39  1  0
 38 48  1  0
 39 42  1  0
 40 44  1  0
 40 39  1  0
 41 40  2  0
 44 43  1  0
 46 44  1  0
 46 47  1  0
 46 45  1  0
 48 51  1  1
 48 49  1  0
 50 48  1  0
 52 61  2  0
 53 61  1  0
 54 59  1  0
 55 56  1  0
 55 54  1  0
 57 56  1  0
 57 66  1  0
 57 58  1  0
 59 53  1  0
 59 58  1  0
 60 53  2  0
 61 62  1  0
 63 64  2  0
 64 83  1  0
 65 64  1  0
 65 68  1  0
 66 63  1  0
 66 67  1  0
 67 65  2  0
 68 69  1  0
 69 70  2  0
 71 74  1  0
 71 70  1  0
 72 71  2  0
 73 72  1  0
 73 68  2  0
 74 75  1  0
 75 76  1  0
 76 77  2  0
 78 77  1  0
 78 82  1  0
 79 78  2  0
 80 75  2  0
 80 79  1  0
 81 80  1  0
 83 84  1  0
 84 87  1  0
 84 86  1  0
 85 83  2  0
 88 89  1  0
 88 63  1  0
 90 88  1  0
 91 92  1  0
 92 52  1  0
M  ISO  4  10 101  11 101  53 100  61 100
M  END
>  <TORSDO>  (13) 
F 21

>  <SCORE>  (13) 
-13.525

>  <name>  (13) 
13

>  <ligand_id>  (13) 
13

>  <original_smiles>  (13) 
[H]c1c([H])c([H])c2c(c1[H])C([H])([H])C([H])([H])C([H])([H])C2([H])N([H])C(=O)C1([H])N(C(=O)C([H])(N([H])C(=O)C([H])(N([H])C([H])([H])[H])C([H])([H])[H])C(C([H])([H])[H])(C([H])([H])[H])C([H])([H])[H])C([H])([H])c2c([H])c(OC([H])([H])C([H])([H])C(=O)C34C([H])([H])C([H])(C([H])(N([H])C(=O)N5C([H])([H])C([H])([H])C([H])([H])C([H])(n6nc(-c7c([H])c([H])c(Oc8c([H])c([H])c(F)c([H])c8F)c([H])c7[H])c(C(=O)N([H])[H])c6N([H])[H])C5([H])[H])C([H])([H])C([H])([H])[H])C([H])([H])C3([H])C4([H])[H])c([H])c([H])c2C1([H])[H]

>  <smiles>  (13) 
[H]c1c([H])c([H])c2c(c1[H])C([H])([H])C([H])([H])C([H])([H])C2([H])N([H])C(=O)C1([H])N(C(=O)C([H])(N([H])C(=O)C([H])(N([H])C([H])([H])[H])C([H])([H])[H])C(C([H])([H])[H])(C([H])([H])[H])C([H])([H])[H])C([H])([H])c2c([H])c(OC([H])([H])C([H])([H])C(=O)C34C([H])([H])C([H])(C([H])(N([H])C(=O)N5C([H])([H])C([H])([H])C([H])([H])C([H])(n6nc(-c7c([H])c([H])c(Oc8c([H])c([H])c(F)c([H])c8F)c([H])c7[H])c(C(=O)N([H])[H])c6N([H])[H])C5([H])[H])C([H])([H])C([H])([H])[H])C([H])([H])C3([H])C4([H])[H])c([H])c([H])c2C1([H])[H]

$$$$
14:0:0
     RDKit          3D

 97106  0  0  1  0  0  0  0  0999 V2000
  -26.7390  -21.5230   18.7500 C   0  0  0  0  0  2  0  0  0  0  0  0
  -27.0940  -18.8390   18.6790 C   0  0  0  0  0  2  0  0  0  0  0  0
  -28.6360  -21.3070   20.1970 C   0  0  0  0  0  2  0  0  0  0  0  0
  -26.6590  -20.1280   19.3900 C   0  0  0  0  0  3  0  0  0  0  0  0
  -27.8360  -19.9840   20.3630 C   0  0  0  0  0  3  0  0  0  0  0  0
  -27.5520  -22.3570   19.7640 C   0  0  0  0  0  3  0  0  0  0  0  0
  -28.1000  -18.5260   19.8080 C   0  0  0  0  0  3  0  0  0  0  0  0
  -27.9440  -23.8190   19.2920 C   0  0  0  0  0  3  0  0  0  0  0  0
  -28.0200  -24.9450   20.4060 C   0  0  0  0  0  3  0  0  0  0  0  0
  -28.3230  -26.3540   20.0650 O   0  0  0  0  0  0  0  0  0  0  0  0
  -24.6150  -31.7060   23.1710 C   0  0  0  0  0  0  0  0  0  0  0  0
  -27.2440  -27.2310   20.0380 C   0  0  0  0  0  0  0  0  0  0  0  0
  -23.4380  -30.3490   21.4890 C   0  0  0  0  0  3  0  0  0  0  0  0
  -24.9030  -28.8440   20.0370 C   0  0  0  0  0  0  0  0  0  0  0  0
  -25.9860  -30.6660   21.3510 C   0  0  0  0  0  2  0  0  0  0  0  0
  -26.0670  -29.3090   20.6670 C   0  0  0  0  0  0  0  0  0  0  0  0
  -27.2480  -28.5120   20.6640 C   0  0  0  0  0  3  0  0  0  0  0  0
  -26.0720  -26.8230   19.3730 C   0  0  0  0  0  3  0  0  0  0  0  0
  -24.9100  -27.6110   19.3750 C   0  0  0  0  0  3  0  0  0  0  0  0
  -23.6650  -29.7130   20.0960 C   0  0  0  0  0  2  0  0  0  0  0  0
  -24.6980  -30.9250   22.0560 N   0  0  0  0  0  0  0  0  0  0  0  0
  -23.5260  -31.9760   23.6970 O   0  0  0  0  0  0  0  0  0  0  0  0
  -22.7630  -29.3020   22.4050 C   0  0  0  0  0  0  0  0  0  0  0  0
  -21.4340  -29.1640   22.2820 N   0  0  0  0  0  0  0  0  0  0  0  0
  -23.4350  -28.6300   23.1890 O   0  0  0  0  0  0  0  0  0  0  0  0
  -20.9520  -29.7600   21.6230 H   0  0  0  0  0  0  0  0  0  0  0  0
  -18.0340  -28.0450   22.8470 C   0  0  0  0  0  0  0  0  0  0  0  0
  -20.6110  -28.1970   23.0110 C   0  0  0  0  0  3  0  0  0  0  0  0
  -20.6530  -26.8130   22.3140 C   0  0  0  0  0  2  0  0  0  0  0  0
  -19.4740  -26.5560   21.3750 C   0  0  0  0  0  2  0  0  0  0  0  0
  -18.1350  -26.7230   22.0970 C   0  0  0  0  0  2  0  0  0  0  0  0
  -19.1980  -28.7390   23.2670 C   0  0  0  0  0  0  0  0  0  0  0  0
  -19.0580  -29.9850   23.9100 C   0  0  0  0  0  3  0  0  0  0  0  0
  -17.7880  -30.5420   24.1470 C   0  0  0  0  0  3  0  0  0  0  0  0
  -16.6330  -29.8390   23.7510 C   0  0  0  0  0  3  0  0  0  0  0  0
  -16.7580  -28.5900   23.1140 C   0  0  0  0  0  3  0  0  0  0  0  0
  -25.8850  -32.3250   23.8250 C   0  0  0  0  0  3  0  0  0  0  0  0
  -26.3700  -31.5380   25.1070 C   0  0  1  0  0  0  0  0  0  0  0  0
  -25.2540  -31.3000   26.1520 C   0  0  0  0  0  1  0  0  0  0  0  0
  -26.9570  -30.1620   24.7150 C   0  0  0  0  0  1  0  0  0  0  0  0
  -27.5120  -32.3210   25.7960 C   0  0  0  0  0  1  0  0  0  0  0  0
  -25.5740  -33.7210   24.1690 N   0  0  0  0  0  0  0  0  0  0  0  0
  -25.9270  -34.7840   23.4320 C   0  0  0  0  0  0  0  0  0  0  0  0
  -26.6270  -34.6920   22.4190 O   0  0  0  0  0  0  0  0  0  0  0  0
  -24.9530  -33.8660   24.9520 H   0  0  0  0  0  0  0  0  0  0  0  0
  -24.2130  -36.5820   23.0560 C   0  0  0  0  0  1  0  0  0  0  0  0
  -25.4300  -36.1650   23.8970 C   0  0  0  0  0  3  0  0  0  0  0  0
  -27.5410  -37.0380   24.7970 C   0  0  0  0  0  1  0  0  0  0  0  0
  -26.4670  -37.2170   23.8230 N   0  0  0  0  0  0  0  0  0  0  0  0
  -26.0580  -38.1360   23.9670 H   0  0  0  0  0  0  0  0  0  0  0  0
  -29.4740  -17.8810   19.4450 C   0  0  0  0  0  2  0  0  0  0  0  0
  -30.0620  -16.7610   20.4050 C   0  0  0  0  0  3  0  0  0  0  0  0
  -31.4830  -14.6350   19.9260 C   0  0  0  0  0  0  0  0  0  0  0  0
  -31.0410  -12.4640   18.8960 C   0  0  0  0  0  2  0  0  0  0  0  0
  -30.0750  -12.6810   17.7130 C   0  0  0  0  0  2  0  0  0  0  0  0
  -28.6110  -12.6440   18.1790 C   0  0  0  0  0  2  0  0  0  0  0  0
  -28.3570  -13.5230   19.4310 C   0  0  0  0  0  3  0  0  0  0  0  0
  -29.4290  -13.2940   20.5170 C   0  0  0  0  0  2  0  0  0  0  0  0
  -30.7350  -13.4990   19.8840 N   0  0  0  0  0  0  0  0  0  0  0  0
  -32.6810  -14.6370   19.6460 O   0  0  0  0  0  0  0  0  0  0  0  0
  -30.8180  -15.7680   19.5970 N   0  0  0  0  0  0  0  0  0  0  0  0
  -31.3750  -16.2550   18.9150 H   0  0  0  0  0  0  0  0  0  0  0  0
  -26.0480  -14.2920   20.2380 C   0  0  0  0  0  0  0  0  0  0  0  0
  -24.9430  -13.5900   20.6440 C   0  0  0  0  0  0  0  0  0  0  0  0
  -25.3080  -12.2100   20.5770 C   0  0  0  0  0  0  0  0  0  0  0  0
  -27.0130  -13.3370   19.9570 N   0  0  0  0  0  0  0  0  0  0  0  0
  -26.5800  -12.0810   20.2270 N   0  0  0  0  0  0  0  0  0  0  0  0
  -24.4990  -11.0000   20.7730 C   0  0  0  0  0  0  0  0  0  0  0  0
  -24.8650  -10.0160   21.7170 C   0  0  0  0  0  3  0  0  0  0  0  0
  -24.0670   -8.8670   21.8980 C   0  0  0  0  0  3  0  0  0  0  0  0
  -22.8870   -8.6970   21.1350 C   0  0  0  0  0  0  0  0  0  0  0  0
  -22.5420   -9.6670   20.1770 C   0  0  0  0  0  3  0  0  0  0  0  0
  -23.3410  -10.8080   19.9930 C   0  0  0  0  0  3  0  0  0  0  0  0
  -22.0580   -7.6040   21.2290 O   0  0  0  0  0  0  0  0  0  0  0  0
  -21.8910   -6.9290   22.4100 C   0  0  0  0  0  0  0  0  0  0  0  0
  -21.4640   -7.5830   23.5880 C   0  0  0  0  0  3  0  0  0  0  0  0
  -21.2340   -6.8380   24.7620 C   0  0  0  0  0  3  0  0  0  0  0  0
  -21.4220   -5.4420   24.7590 C   0  0  0  0  0  0  0  0  0  0  0  0
  -21.8410   -4.7910   23.5870 C   0  0  0  0  0  3  0  0  0  0  0  0
  -22.0720   -5.5320   22.4150 C   0  0  0  0  0  0  0  0  0  0  0  0
  -22.4560   -4.8960   21.2830 F   0  0  0  0  0  0  0  0  0  0  0  0
  -21.1950   -4.7250   25.8850 F   0  0  0  0  0  0  0  0  0  0  0  0
  -23.5900  -14.1630   20.9600 C   0  0  0  0  0  0  0  0  0  0  0  0
  -22.8810  -13.5540   21.9040 N   0  0  0  0  0  0  0  0  0  0  0  0
  -23.1770  -15.1790   20.4090 O   0  0  0  0  0  0  0  0  0  0  0  0
  -23.2340  -12.7320   22.3720 H   0  0  0  0  0  0  0  0  0  0  0  0
  -21.9750  -13.9120   22.1630 H   0  0  0  0  0  0  0  0  0  0  0  0
  -26.3050  -15.6470   20.0720 N   0  0  0  0  0  0  0  0  0  0  0  0
  -25.5950  -16.3560   20.2190 H   0  0  0  0  0  0  0  0  0  0  0  0
  -27.1620  -16.0130   19.6790 H   0  0  0  0  0  0  0  0  0  0  0  0
  -30.9790  -17.3870   21.4910 C   0  0  0  0  0  2  0  0  0  0  0  0
  -30.3720  -18.5720   22.2640 C   0  0  0  0  0  2  0  0  0  0  0  0
  -31.2270  -19.8480   22.1450 C   0  0  0  0  0  2  0  0  0  0  0  0
  -30.5960  -20.9730   22.8600 N   0  0  0  0  0  4  0  0  0  0  0  0
  -29.6530  -21.1060   22.5480 H   0  0  0  0  0  0  0  0  0  0  0  0
  -31.1140  -21.8190   22.6970 H   0  0  0  0  0  0  0  0  0  0  0  0
  -30.5620  -20.8020   23.8500 H   0  0  0  0  0  0  0  0  0  0  0  0
  1  4  1  0
  1  6  1  0
  2  7  1  0
  4  2  1  0
  4  5  1  0
  5  3  1  0
  6  8  1  0
  6  3  1  0
  7 51  1  0
  7  5  1  0
  8  9  2  0
 10  9  1  0
 11 22  2  0
 12 10  1  0
 12 17  1  0
 13 21  1  0
 13 23  1  0
 14 20  1  0
 14 16  1  0
 15 21  1  0
 16 15  1  0
 17 16  2  0
 18 19  1  0
 18 12  2  0
 19 14  2  0
 20 13  1  0
 21 11  1  0
 23 25  2  0
 24 23  1  0
 26 24  1  0
 27 36  2  0
 27 32  1  0
 28 24  1  0
 28 32  1  0
 29 28  1  0
 30 31  1  0
 30 29  1  0
 31 27  1  0
 32 33  2  0
 33 34  1  0
 35 34  2  0
 36 35  1  0
 37 11  1  0
 37 42  1  0
 37 38  1  0
 38 41  1  1
 38 39  1  0
 40 38  1  0
 42 45  1  0
 43 47  1  0
 43 42  1  0
 44 43  2  0
 47 46  1  0
 49 47  1  0
 49 50  1  0
 49 48  1  0
 52 51  1  0
 52 91  1  0
 54 59  1  0
 55 56  1  0
 55 54  1  0
 57 56  1  0
 57 66  1  0
 57 58  1  0
 59 53  1  0
 59 58  1  0
 60 53  2  0
 61 53  1  0
 61 52  1  0
 62 61  1  0
 63 64  2  0
 64 83  1  0
 65 64  1  0
 65 68  1  0
 66 67  1  0
 66 63  1  0
 67 65  2  0
 68 69  1  0
 69 70  2  0
 71 74  1  0
 71 70  1  0
 72 71  2  0
 73 72  1  0
 73 68  2  0
 74 75  1  0
 75 80  2  0
 75 76  1  0
 76 77  2  0
 78 77  1  0
 78 82  1  0
 79 78  2  0
 80 79  1  0
 81 80  1  0
 83 84  1  0
 84 87  1  0
 84 86  1  0
 85 83  2  0
 88 89  1  0
 88 63  1  0
 90 88  1  0
 91 92  1  0
 93 92  1  0
 93 94  1  0
 94 97  1  0
 95 94  1  0
 96 94  1  0
M  ISO  4   9 101  10 101  53 100  61 100
M  END
>  <TORSDO>  (14) 
F 24

>  <SCORE>  (14) 
-11.457

>  <name>  (14) 
14

>  <ligand_id>  (14) 
14

>  <original_smiles>  (14) 
[H]c1c([H])c([H])c2c(c1[H])C([H])([H])C([H])([H])C([H])([H])C2([H])N([H])C(=O)C1([H])N(C(=O)C([H])(N([H])C(=O)C([H])(N([H])C([H])([H])[H])C([H])([H])[H])C(C([H])([H])[H])(C([H])([H])[H])C([H])([H])[H])C([H])([H])c2c([H])c(OC([H])([H])C([H])([H])C3([H])C([H])([H])C4([H])C([H])([H])C([H])(C([H])([H])C([H])(N([H])C(=O)N5C([H])([H])C([H])([H])C([H])([H])C([H])(n6nc(-c7c([H])c([H])c(Oc8c([H])c([H])c(F)c([H])c8F)c([H])c7[H])c(C(=O)N([H])[H])c6N([H])[H])C5([H])[H])C([H])([H])C([H])([H])C([H])([H])[N+]([H])([H])[H])C4([H])C3([H])[H])c([H])c([H])c2C1([H])[H]

>  <smiles>  (14) 
[H]c1c([H])c([H])c2c(c1[H])C([H])([H])C([H])([H])C([H])([H])C2([H])N([H])C(=O)C1([H])N(C(=O)C([H])(N([H])C(=O)C([H])(N([H])C([H])([H])[H])C([H])([H])[H])C(C([H])([H])[H])(C([H])([H])[H])C([H])([H])[H])C([H])([H])c2c([H])c(OC([H])([H])C([H])([H])C3([H])C([H])([H])C4([H])C([H])([H])C([H])(C([H])([H])C([H])(N([H])C(=O)N5C([H])([H])C([H])([H])C([H])([H])C([H])(n6nc(-c7c([H])c([H])c(Oc8c([H])c([H])c(F)c([H])c8F)c([H])c7[H])c(C(=O)N([H])[H])c6N([H])[H])C5([H])[H])C([H])([H])C([H])([H])C([H])([H])[N+]([H])([H])[H])C4([H])C3([H])[H])c([H])c([H])c2C1([H])[H]

$$$$
15:0:0
     RDKit          3D

 95104  0  0  1  0  0  0  0  0999 V2000
  -30.0730  -23.9150   16.1840 C   0  0  0  0  0  2  0  0  0  0  0  0
  -30.3730  -23.4950   17.6200 C   0  0  0  0  0  2  0  0  0  0  0  0
  -28.8060  -23.0690   16.3000 C   0  0  0  0  0  2  0  0  0  0  0  0
  -28.4790  -21.9760   18.6550 C   0  0  0  0  0  2  0  0  0  0  0  0
  -28.0560  -24.4380   18.3900 C   0  0  0  0  0  2  0  0  0  0  0  0
  -29.1910  -21.9580   20.0160 C   0  0  0  0  0  3  0  0  0  0  0  0
  -28.8160  -23.4180   20.7480 C   0  0  0  0  0  3  0  0  0  0  0  0
  -28.0860  -24.6930   19.9280 C   0  0  0  0  0  3  0  0  0  0  0  0
  -28.8600  -23.2330   17.8410 C   0  0  1  0  0  0  0  0  0  0  0  0
  -29.6850  -24.8080   22.7490 C   0  0  0  0  0  1  0  0  0  0  0  0
  -30.0390  -23.9340   21.5330 C   0  0  0  0  0  2  0  0  0  0  0  0
  -28.2570  -26.2170   20.2040 O   0  0  0  0  0  0  0  0  0  0  0  0
  -24.6360  -31.8670   23.2100 C   0  0  0  0  0  0  0  0  0  0  0  0
  -27.1810  -27.1770   20.1400 C   0  0  0  0  0  0  0  0  0  0  0  0
  -23.4140  -30.4730   21.5860 C   0  0  0  0  0  3  0  0  0  0  0  0
  -24.8440  -28.9060   20.1450 C   0  0  0  0  0  0  0  0  0  0  0  0
  -25.9660  -30.7470   21.3830 C   0  0  0  0  0  2  0  0  0  0  0  0
  -26.0330  -29.3570   20.7320 C   0  0  0  0  0  0  0  0  0  0  0  0
  -27.2020  -28.5080   20.7120 C   0  0  0  0  0  3  0  0  0  0  0  0
  -25.9600  -26.8230   19.5210 C   0  0  0  0  0  3  0  0  0  0  0  0
  -24.8180  -27.6500   19.5260 C   0  0  0  0  0  3  0  0  0  0  0  0
  -23.6140  -29.7980   20.2050 C   0  0  0  0  0  2  0  0  0  0  0  0
  -24.6930  -31.0490   22.1170 N   0  0  0  0  0  0  0  0  0  0  0  0
  -23.5560  -32.1500   23.7510 O   0  0  0  0  0  0  0  0  0  0  0  0
  -22.7520  -29.4620   22.5560 C   0  0  0  0  0  0  0  0  0  0  0  0
  -21.4240  -29.2880   22.4440 N   0  0  0  0  0  0  0  0  0  0  0  0
  -23.4320  -28.8370   23.3750 O   0  0  0  0  0  0  0  0  0  0  0  0
  -20.9300  -29.8430   21.7580 H   0  0  0  0  0  0  0  0  0  0  0  0
  -18.0530  -28.0690   22.9630 C   0  0  0  0  0  0  0  0  0  0  0  0
  -20.6110  -28.3490   23.2220 C   0  0  0  0  0  3  0  0  0  0  0  0
  -20.7210  -26.9130   22.6570 C   0  0  0  0  0  2  0  0  0  0  0  0
  -19.6170  -26.5730   21.6510 C   0  0  0  0  0  2  0  0  0  0  0  0
  -18.2360  -26.7140   22.2970 C   0  0  0  0  0  2  0  0  0  0  0  0
  -19.1680  -28.8420   23.3830 C   0  0  0  0  0  0  0  0  0  0  0  0
  -18.9420  -30.1080   23.9660 C   0  0  0  0  0  3  0  0  0  0  0  0
  -17.6340  -30.6000   24.1370 C   0  0  0  0  0  3  0  0  0  0  0  0
  -16.5330  -29.8230   23.7340 C   0  0  0  0  0  3  0  0  0  0  0  0
  -16.7440  -28.5590   23.1520 C   0  0  0  0  0  3  0  0  0  0  0  0
  -25.9200  -32.5040   23.8240 C   0  0  0  0  0  3  0  0  0  0  0  0
  -25.6100  -33.9000   24.1670 N   0  0  0  0  0  0  0  0  0  0  0  0
  -25.9290  -34.9620   23.4130 C   0  0  0  0  0  0  0  0  0  0  0  0
  -26.5850  -34.8680   22.3720 O   0  0  0  0  0  0  0  0  0  0  0  0
  -25.0390  -34.0490   24.9860 H   0  0  0  0  0  0  0  0  0  0  0  0
  -24.1940  -36.7560   23.0960 C   0  0  0  0  0  1  0  0  0  0  0  0
  -25.4450  -36.3460   23.8890 C   0  0  0  0  0  3  0  0  0  0  0  0
  -27.5920  -37.2220   24.6950 C   0  0  0  0  0  1  0  0  0  0  0  0
  -26.4730  -37.4030   23.7730 N   0  0  0  0  0  0  0  0  0  0  0  0
  -26.0680  -38.3190   23.9420 H   0  0  0  0  0  0  0  0  0  0  0  0
  -26.4500  -31.7320   25.0960 C   0  0  1  0  0  0  0  0  0  0  0  0
  -25.3710  -31.4890   26.1760 C   0  0  0  0  0  1  0  0  0  0  0  0
  -27.0340  -30.3560   24.6990 C   0  0  0  0  0  1  0  0  0  0  0  0
  -27.6070  -32.5280   25.7430 C   0  0  0  0  0  1  0  0  0  0  0  0
  -29.2090  -20.4510   20.7710 C   0  0  0  0  0  2  0  0  0  0  0  0
  -29.5900  -18.9480   20.1000 C   0  0  0  0  0  3  0  0  0  0  0  0
  -32.0800  -19.5400   19.6390 C   0  0  0  0  0  1  0  0  0  0  0  0
  -30.7310  -19.0660   19.0660 C   0  0  0  0  0  2  0  0  0  0  0  0
  -29.8910  -17.5750   21.0170 C   0  0  0  0  0  2  0  0  0  0  0  0
  -30.5190  -14.9300   20.4630 C   0  0  0  0  0  0  0  0  0  0  0  0
  -30.4250  -12.5920   19.4940 C   0  0  0  0  0  2  0  0  0  0  0  0
  -29.5010  -12.5450   18.2560 C   0  0  0  0  0  2  0  0  0  0  0  0
  -28.0310  -12.3380   18.6710 C   0  0  0  0  0  2  0  0  0  0  0  0
  -27.6080  -13.2720   19.8360 C   0  0  0  0  0  3  0  0  0  0  0  0
  -28.6470  -13.2710   20.9760 C   0  0  0  0  0  2  0  0  0  0  0  0
  -29.9260  -13.6760   20.3800 N   0  0  0  0  0  0  0  0  0  0  0  0
  -31.7330  -15.0160   20.2600 O   0  0  0  0  0  0  0  0  0  0  0  0
  -29.7000  -16.0760   20.5760 N   0  0  0  0  0  0  0  0  0  0  0  0
  -28.7270  -15.8170   20.5570 H   0  0  0  0  0  0  0  0  0  0  0  0
  -25.2130  -13.8560   20.5280 C   0  0  0  0  0  0  0  0  0  0  0  0
  -24.1460  -13.0800   20.8890 C   0  0  0  0  0  0  0  0  0  0  0  0
  -24.6170  -11.7310   20.8840 C   0  0  0  0  0  0  0  0  0  0  0  0
  -26.2630  -12.9780   20.3160 N   0  0  0  0  0  0  0  0  0  0  0  0
  -25.9120  -11.6970   20.5960 N   0  0  0  0  0  0  0  0  0  0  0  0
  -23.8940  -10.4680   21.0720 C   0  0  0  0  0  0  0  0  0  0  0  0
  -24.3240   -9.4990   22.0060 C   0  0  0  0  0  3  0  0  0  0  0  0
  -23.5960   -8.3020   22.1800 C   0  0  0  0  0  3  0  0  0  0  0  0
  -22.4240   -8.0670   21.4230 C   0  0  0  0  0  0  0  0  0  0  0  0
  -22.0160   -9.0230   20.4760 C   0  0  0  0  0  3  0  0  0  0  0  0
  -22.7450  -10.2100   20.2990 C   0  0  0  0  0  3  0  0  0  0  0  0
  -21.6670   -6.9240   21.5110 O   0  0  0  0  0  0  0  0  0  0  0  0
  -21.6270   -6.1710   22.6560 C   0  0  0  0  0  0  0  0  0  0  0  0
  -21.2270   -6.7200   23.8950 C   0  0  0  0  0  3  0  0  0  0  0  0
  -21.1340   -5.8950   25.0330 C   0  0  0  0  0  3  0  0  0  0  0  0
  -21.4330   -4.5230   24.9350 C   0  0  0  0  0  0  0  0  0  0  0  0
  -21.8250   -3.9730   23.7030 C   0  0  0  0  0  3  0  0  0  0  0  0
  -21.9190   -4.7950   22.5660 C   0  0  0  0  0  0  0  0  0  0  0  0
  -22.2780   -4.2570   21.3760 F   0  0  0  0  0  0  0  0  0  0  0  0
  -21.3360   -3.7290   26.0270 F   0  0  0  0  0  0  0  0  0  0  0  0
  -22.7410  -13.5550   21.1270 C   0  0  0  0  0  0  0  0  0  0  0  0
  -21.9970  -12.8610   21.9830 N   0  0  0  0  0  0  0  0  0  0  0  0
  -22.3100  -14.5740   20.5880 O   0  0  0  0  0  0  0  0  0  0  0  0
  -22.3550  -12.0320   22.4360 H   0  0  0  0  0  0  0  0  0  0  0  0
  -21.0540  -13.1610   22.1860 H   0  0  0  0  0  0  0  0  0  0  0  0
  -25.3710  -15.2240   20.3350 N   0  0  0  0  0  0  0  0  0  0  0  0
  -24.5980  -15.8750   20.4280 H   0  0  0  0  0  0  0  0  0  0  0  0
  -26.2120  -15.6670   19.9880 H   0  0  0  0  0  0  0  0  0  0  0  0
  1  3  1  0
  1  2  1  0
  9  2  1  6
  3  9  1  0
  4  6  1  0
  5  8  1  0
  6  7  1  0
  6 53  1  0
  7 11  1  0
  8 12  1  0
  8  7  1  0
  9  5  1  0
  9  4  1  0
 11 10  1  0
 13 24  2  0
 14 12  1  0
 14 19  1  0
 15 23  1  0
 15 25  1  0
 16 22  1  0
 16 18  1  0
 17 23  1  0
 18 17  1  0
 19 18  2  0
 20 21  1  0
 20 14  2  0
 21 16  2  0
 22 15  1  0
 23 13  1  0
 25 27  2  0
 26 25  1  0
 28 26  1  0
 29 38  2  0
 29 34  1  0
 30 26  1  0
 30 34  1  0
 31 30  1  0
 32 33  1  0
 32 31  1  0
 33 29  1  0
 34 35  2  0
 35 36  1  0
 37 36  2  0
 38 37  1  0
 39 13  1  0
 39 40  1  0
 39 49  1  0
 40 43  1  0
 41 45  1  0
 41 40  1  0
 42 41  2  0
 45 44  1  0
 47 45  1  0
 47 48  1  0
 47 46  1  0
 49 52  1  1
 49 50  1  0
 51 49  1  0
 54 56  1  0
 54 53  1  0
 54 57  1  0
 56 55  1  0
 58 66  1  0
 59 64  1  0
 60 61  1  0
 60 59  1  0
 62 61  1  0
 62 71  1  0
 62 63  1  0
 64 58  1  0
 64 63  1  0
 65 58  2  0
 66 57  1  0
 67 66  1  0
 68 69  2  0
 69 88  1  0
 70 69  1  0
 70 73  1  0
 71 68  1  0
 71 72  1  0
 72 70  2  0
 73 74  1  0
 74 75  2  0
 76 79  1  0
 76 75  1  0
 77 76  2  0
 78 77  1  0
 78 73  2  0
 79 80  1  0
 80 81  1  0
 81 82  2  0
 83 82  1  0
 83 87  1  0
 84 83  2  0
 85 80  2  0
 85 84  1  0
 86 85  1  0
 88 89  1  0
 89 92  1  0
 89 91  1  0
 90 88  2  0
 93 94  1  0
 93 68  1  0
 95 93  1  0
M  ISO  4   8 101  12 101  58 100  66 100
M  END
>  <TORSDO>  (15) 
F 21

>  <SCORE>  (15) 
-13.196

>  <name>  (15) 
15

>  <ligand_id>  (15) 
15

>  <original_smiles>  (15) 
[H]c1c([H])c([H])c2c(c1[H])C([H])([H])C([H])([H])C([H])([H])C2([H])N([H])C(=O)C1([H])N(C(=O)C([H])(N([H])C(=O)C([H])(N([H])C([H])([H])[H])C([H])([H])[H])C(C([H])([H])[H])(C([H])([H])[H])C([H])([H])[H])C([H])([H])c2c([H])c(OC3([H])C([H])([H])C4(C([H])([H])C([H])([H])C4([H])[H])C([H])([H])C([H])(C([H])([H])C([H])(C([H])([H])N([H])C(=O)N4C([H])([H])C([H])([H])C([H])([H])C([H])(n5nc(-c6c([H])c([H])c(Oc7c([H])c([H])c(F)c([H])c7F)c([H])c6[H])c(C(=O)N([H])[H])c5N([H])[H])C4([H])[H])C([H])([H])C([H])([H])[H])C3([H])C([H])([H])C([H])([H])[H])c([H])c([H])c2C1([H])[H]

>  <smiles>  (15) 
[H]c1c([H])c([H])c2c(c1[H])C([H])([H])C([H])([H])C([H])([H])C2([H])N([H])C(=O)C1([H])N(C(=O)C([H])(N([H])C(=O)C([H])(N([H])C([H])([H])[H])C([H])([H])[H])C(C([H])([H])[H])(C([H])([H])[H])C([H])([H])[H])C([H])([H])c2c([H])c(OC3([H])C([H])([H])C4(C([H])([H])C([H])([H])C4([H])[H])C([H])([H])C([H])(C([H])([H])C([H])(C([H])([H])N([H])C(=O)N4C([H])([H])C([H])([H])C([H])([H])C([H])(n5nc(-c6c([H])c([H])c(Oc7c([H])c([H])c(F)c([H])c7F)c([H])c6[H])c(C(=O)N([H])[H])c5N([H])[H])C4([H])[H])C([H])([H])C([H])([H])[H])C3([H])C([H])([H])C([H])([H])[H])c([H])c([H])c2C1([H])[H]

$$$$
16:0:0
     RDKit          3D

 93100  0  0  1  0  0  0  0  0999 V2000
  -28.8590  -21.8460   19.8190 C   0  0  1  0  0  0  0  0  0  0  0  0
  -30.0840  -20.7750   17.6910 C   0  0  0  0  0  1  0  0  0  0  0  0
  -29.7220  -22.0210   18.5230 C   0  0  0  0  0  2  0  0  0  0  0  0
  -27.3730  -21.4150   19.5430 C   0  0  0  0  0  2  0  0  0  0  0  0
  -26.7290  -21.7030   18.1720 C   0  0  0  0  0  0  0  0  0  0  0  0
  -26.3290  -20.6640   17.4450 N   0  0  0  0  0  0  0  0  0  0  0  0
  -26.5310  -22.8450   17.7720 O   0  0  0  0  0  0  0  0  0  0  0  0
  -26.4370  -19.7180   17.7840 H   0  0  0  0  0  0  0  0  0  0  0  0
  -25.8850  -20.8120   16.5480 H   0  0  0  0  0  0  0  0  0  0  0  0
  -29.5350  -20.5390   20.6450 C   0  0  0  0  0  2  0  0  0  0  0  0
  -29.2220  -18.9070   20.3830 C   0  0  0  0  0  3  0  0  0  0  0  0
  -30.2220  -17.6490   20.8330 C   0  0  0  0  0  3  0  0  0  0  0  0
  -30.6340  -14.9600   20.6460 C   0  0  0  0  0  0  0  0  0  0  0  0
  -30.5490  -12.6210   19.7070 C   0  0  0  0  0  2  0  0  0  0  0  0
  -29.6530  -12.5760   18.4510 C   0  0  0  0  0  2  0  0  0  0  0  0
  -28.1780  -12.3580   18.8410 C   0  0  0  0  0  2  0  0  0  0  0  0
  -27.7250  -13.2910   19.9950 C   0  0  0  0  0  3  0  0  0  0  0  0
  -28.7450  -13.3060   21.1520 C   0  0  0  0  0  2  0  0  0  0  0  0
  -30.0380  -13.7080   20.5840 N   0  0  0  0  0  0  0  0  0  0  0  0
  -31.8450  -15.0400   20.4140 O   0  0  0  0  0  0  0  0  0  0  0  0
  -29.8450  -16.1260   20.7620 N   0  0  0  0  0  0  0  0  0  0  0  0
  -28.8660  -15.9320   20.9100 H   0  0  0  0  0  0  0  0  0  0  0  0
  -25.3220  -13.8520   20.6750 C   0  0  0  0  0  0  0  0  0  0  0  0
  -24.2510  -13.0670   21.0080 C   0  0  0  0  0  0  0  0  0  0  0  0
  -24.7250  -11.7200   20.9810 C   0  0  0  0  0  0  0  0  0  0  0  0
  -26.3750  -12.9820   20.4560 N   0  0  0  0  0  0  0  0  0  0  0  0
  -26.0240  -11.6950   20.7090 N   0  0  0  0  0  0  0  0  0  0  0  0
  -24.0030  -10.4500   21.1440 C   0  0  0  0  0  0  0  0  0  0  0  0
  -24.4120   -9.4840   22.0890 C   0  0  0  0  0  3  0  0  0  0  0  0
  -23.6890   -8.2800   22.2390 C   0  0  0  0  0  3  0  0  0  0  0  0
  -22.5440   -8.0350   21.4440 C   0  0  0  0  0  0  0  0  0  0  0  0
  -22.1570   -8.9890   20.4870 C   0  0  0  0  0  3  0  0  0  0  0  0
  -22.8790  -10.1850   20.3350 C   0  0  0  0  0  3  0  0  0  0  0  0
  -21.7980   -6.8810   21.5000 O   0  0  0  0  0  0  0  0  0  0  0  0
  -21.7050   -6.1380   22.6500 C   0  0  0  0  0  0  0  0  0  0  0  0
  -21.1850   -6.6790   23.8470 C   0  0  0  0  0  3  0  0  0  0  0  0
  -21.0460   -5.8630   24.9870 C   0  0  0  0  0  3  0  0  0  0  0  0
  -21.4170   -4.5050   24.9300 C   0  0  0  0  0  0  0  0  0  0  0  0
  -21.9320   -3.9640   23.7370 C   0  0  0  0  0  3  0  0  0  0  0  0
  -22.0720   -4.7790   22.6010 C   0  0  0  0  0  0  0  0  0  0  0  0
  -22.5480   -4.2490   21.4480 F   0  0  0  0  0  0  0  0  0  0  0  0
  -21.2760   -3.7160   26.0190 F   0  0  0  0  0  0  0  0  0  0  0  0
  -22.8440  -13.5310   21.2400 C   0  0  0  0  0  0  0  0  0  0  0  0
  -22.0970  -12.8240   22.0800 N   0  0  0  0  0  0  0  0  0  0  0  0
  -22.4140  -14.5550   20.7090 O   0  0  0  0  0  0  0  0  0  0  0  0
  -22.4610  -11.9980   22.5310 H   0  0  0  0  0  0  0  0  0  0  0  0
  -21.1480  -13.1120   22.2730 H   0  0  0  0  0  0  0  0  0  0  0  0
  -25.4850  -15.2260   20.5090 N   0  0  0  0  0  0  0  0  0  0  0  0
  -24.7130  -15.8780   20.5860 H   0  0  0  0  0  0  0  0  0  0  0  0
  -26.3370  -15.6600   20.1810 H   0  0  0  0  0  0  0  0  0  0  0  0
  -28.8860  -23.3980   20.5010 C   0  0  0  0  0  3  0  0  0  0  0  0
  -28.0930  -24.7640   19.9290 C   0  0  0  0  0  3  0  0  0  0  0  0
  -28.2740  -26.2470   20.3310 O   0  0  0  0  0  0  0  0  0  0  0  0
  -24.5890  -31.8890   23.2440 C   0  0  0  0  0  0  0  0  0  0  0  0
  -27.2150  -27.2140   20.2190 C   0  0  0  0  0  0  0  0  0  0  0  0
  -23.4110  -30.4940   21.5880 C   0  0  0  0  0  3  0  0  0  0  0  0
  -24.8830  -28.9370   20.1710 C   0  0  0  0  0  0  0  0  0  0  0  0
  -25.9650  -30.7710   21.4570 C   0  0  0  0  0  2  0  0  0  0  0  0
  -26.0470  -29.3830   20.8040 C   0  0  0  0  0  0  0  0  0  0  0  0
  -27.2140  -28.5330   20.8230 C   0  0  0  0  0  3  0  0  0  0  0  0
  -26.0340  -26.8800   19.5160 C   0  0  0  0  0  3  0  0  0  0  0  0
  -24.8870  -27.7000   19.5110 C   0  0  0  0  0  3  0  0  0  0  0  0
  -23.6500  -29.8230   20.2080 C   0  0  0  0  0  2  0  0  0  0  0  0
  -24.6740  -31.0710   22.1510 N   0  0  0  0  0  0  0  0  0  0  0  0
  -23.4980  -32.1690   23.7600 O   0  0  0  0  0  0  0  0  0  0  0  0
  -22.7280  -29.4800   22.5380 C   0  0  0  0  0  0  0  0  0  0  0  0
  -21.4070  -29.2870   22.3820 N   0  0  0  0  0  0  0  0  0  0  0  0
  -23.3910  -28.8670   23.3810 O   0  0  0  0  0  0  0  0  0  0  0  0
  -20.9280  -29.8310   21.6770 H   0  0  0  0  0  0  0  0  0  0  0  0
  -18.0360  -28.0340   22.8000 C   0  0  0  0  0  0  0  0  0  0  0  0
  -20.5800  -28.3450   23.1400 C   0  0  0  0  0  3  0  0  0  0  0  0
  -20.7250  -26.9090   22.5870 C   0  0  0  0  0  2  0  0  0  0  0  0
  -19.6620  -26.5540   21.5440 C   0  0  0  0  0  2  0  0  0  0  0  0
  -18.2580  -26.6800   22.1440 C   0  0  0  0  0  2  0  0  0  0  0  0
  -19.1270  -28.8220   23.2530 C   0  0  0  0  0  0  0  0  0  0  0  0
  -18.8670  -30.0860   23.8260 C   0  0  0  0  0  3  0  0  0  0  0  0
  -17.5490  -30.5650   23.9490 C   0  0  0  0  0  3  0  0  0  0  0  0
  -16.4720  -29.7740   23.5110 C   0  0  0  0  0  3  0  0  0  0  0  0
  -16.7160  -28.5110   22.9440 C   0  0  0  0  0  3  0  0  0  0  0  0
  -25.8580  -32.5270   23.8850 C   0  0  0  0  0  3  0  0  0  0  0  0
  -25.5470  -33.9320   24.1950 N   0  0  0  0  0  0  0  0  0  0  0  0
  -25.8850  -34.9750   23.4280 C   0  0  0  0  0  0  0  0  0  0  0  0
  -26.5600  -34.8590   22.4020 O   0  0  0  0  0  0  0  0  0  0  0  0
  -24.9450  -34.0970   24.9890 H   0  0  0  0  0  0  0  0  0  0  0  0
  -24.1600  -36.7700   23.0520 C   0  0  0  0  0  1  0  0  0  0  0  0
  -25.3980  -36.3700   23.8680 C   0  0  0  0  0  3  0  0  0  0  0  0
  -27.5280  -37.2700   24.7010 C   0  0  0  0  0  1  0  0  0  0  0  0
  -26.4320  -37.4200   23.7460 N   0  0  0  0  0  0  0  0  0  0  0  0
  -26.0250  -38.3430   23.8750 H   0  0  0  0  0  0  0  0  0  0  0  0
  -26.3460  -31.7700   25.1830 C   0  0  1  0  0  0  0  0  0  0  0  0
  -25.2290  -31.5480   26.2290 C   0  0  0  0  0  1  0  0  0  0  0  0
  -26.9340  -30.3850   24.8270 C   0  0  0  0  0  1  0  0  0  0  0  0
  -27.4850  -32.5700   25.8610 C   0  0  0  0  0  1  0  0  0  0  0  0
  1  3  1  6
  1 51  1  0
  1 10  1  0
  2  3  1  0
  4  1  1  0
  5  4  1  0
  6  8  1  0
  6  5  1  0
  7  5  2  0
  9  6  1  0
 11 10  1  0
 11 12  2  0
 13 21  1  0
 14 19  1  0
 15 16  1  0
 15 14  1  0
 17 16  1  0
 17 26  1  0
 17 18  1  0
 19 13  1  0
 19 18  1  0
 20 13  2  0
 21 12  1  0
 21 22  1  0
 23 24  2  0
 24 43  1  0
 25 24  1  0
 25 28  1  0
 26 23  1  0
 26 27  1  0
 27 25  2  0
 28 29  1  0
 29 30  2  0
 31 34  1  0
 31 30  1  0
 32 31  2  0
 33 32  1  0
 33 28  2  0
 34 35  1  0
 35 36  1  0
 36 37  2  0
 38 37  1  0
 38 42  1  0
 39 38  2  0
 40 35  2  0
 40 39  1  0
 41 40  1  0
 43 44  1  0
 44 47  1  0
 44 46  1  0
 45 43  2  0
 48 49  1  0
 48 23  1  0
 50 48  1  0
 52 53  1  0
 52 51  2  0
 54 65  2  0
 55 53  1  0
 55 60  1  0
 56 64  1  0
 56 66  1  0
 57 63  1  0
 57 59  1  0
 58 64  1  0
 59 60  2  0
 59 58  1  0
 61 55  2  0
 62 61  1  0
 62 57  2  0
 63 56  1  0
 64 54  1  0
 66 68  2  0
 67 66  1  0
 69 67  1  0
 70 79  2  0
 70 75  1  0
 71 67  1  0
 71 75  1  0
 72 71  1  0
 73 74  1  0
 73 72  1  0
 74 70  1  0
 75 76  2  0
 76 77  1  0
 78 77  2  0
 79 78  1  0
 80 54  1  0
 80 81  1  0
 80 90  1  0
 81 84  1  0
 82 86  1  0
 82 81  1  0
 83 82  2  0
 86 85  1  0
 88 86  1  0
 88 89  1  0
 88 87  1  0
 90 93  1  1
 90 91  1  0
 92 90  1  0
M  ISO  4  13 100  21 100  52 101  53 101
M  END
>  <TORSDO>  (16) 
F 24

>  <SCORE>  (16) 
-12.982

>  <name>  (16) 
16

>  <ligand_id>  (16) 
16

>  <original_smiles>  (16) 
[H]c1c([H])c([H])c2c(c1[H])C([H])([H])C([H])([H])C([H])([H])C2([H])N([H])C(=O)C1([H])N(C(=O)C([H])(N([H])C(=O)C([H])(N([H])C([H])([H])[H])C([H])([H])[H])C(C([H])([H])[H])(C([H])([H])[H])C([H])([H])[H])C([H])([H])c2c([H])c(OC([H])([H])C([H])([H])C(C([H])([H])C(=O)N([H])[H])(C([H])([H])C([H])([H])[H])C([H])([H])C([H])([H])C([H])([H])N([H])C(=O)N3C([H])([H])C([H])([H])C([H])([H])C([H])(n4nc(-c5c([H])c([H])c(Oc6c([H])c([H])c(F)c([H])c6F)c([H])c5[H])c(C(=O)N([H])[H])c4N([H])[H])C3([H])[H])c([H])c([H])c2C1([H])[H]

>  <smiles>  (16) 
[H]c1c([H])c([H])c2c(c1[H])C([H])([H])C([H])([H])C([H])([H])C2([H])N([H])C(=O)C1([H])N(C(=O)C([H])(N([H])C(=O)C([H])(N([H])C([H])([H])[H])C([H])([H])[H])C(C([H])([H])[H])(C([H])([H])[H])C([H])([H])[H])C([H])([H])c2c([H])c(OC([H])([H])C([H])([H])C(C([H])([H])C(=O)N([H])[H])(C([H])([H])C([H])([H])[H])C([H])([H])C([H])([H])C([H])([H])N([H])C(=O)N3C([H])([H])C([H])([H])C([H])([H])C([H])(n4nc(-c5c([H])c([H])c(Oc6c([H])c([H])c(F)c([H])c6F)c([H])c5[H])c(C(=O)N([H])[H])c4N([H])[H])C3([H])[H])c([H])c([H])c2C1([H])[H]

$$$$
17:0:0
     RDKit          3D

 89 97  0  0  1  0  0  0  0  0999 V2000
  -30.5690  -21.4340   19.0940 C   0  0  0  0  0  2  0  0  0  0  0  0
  -29.3330  -21.1550   18.2960 C   0  0  0  0  0  3  0  0  0  0  0  0
  -29.2510  -21.2340   19.8270 C   0  0  2  0  0  0  0  0  0  0  0  0
  -28.7510  -22.7700   20.5340 C   0  0  0  0  0  0  0  0  0  0  0  0
  -28.8690  -22.7960   21.7630 O   0  0  0  0  0  0  0  0  0  0  0  0
  -28.1170  -24.2660   19.8680 C   0  0  0  0  0  2  0  0  0  0  0  0
  -28.2420  -25.8150   20.4020 O   0  0  0  0  0  0  0  0  0  0  0  0
  -24.6060  -31.7570   23.2630 C   0  0  0  0  0  0  0  0  0  0  0  0
  -27.2410  -26.9100   20.2770 C   0  0  0  0  0  0  0  0  0  0  0  0
  -23.4470  -30.3580   21.6020 C   0  0  0  0  0  3  0  0  0  0  0  0
  -24.9290  -28.7680   20.1960 C   0  0  0  0  0  0  0  0  0  0  0  0
  -26.0120  -30.5850   21.5020 C   0  0  0  0  0  2  0  0  0  0  0  0
  -26.1010  -29.1790   20.8420 C   0  0  0  0  0  0  0  0  0  0  0  0
  -27.2490  -28.2680   20.8650 C   0  0  0  0  0  3  0  0  0  0  0  0
  -26.0430  -26.6540   19.5700 C   0  0  0  0  0  3  0  0  0  0  0  0
  -24.9250  -27.5260   19.5410 C   0  0  0  0  0  3  0  0  0  0  0  0
  -23.7020  -29.6790   20.2280 C   0  0  0  0  0  2  0  0  0  0  0  0
  -24.7090  -30.9280   22.1750 N   0  0  0  0  0  0  0  0  0  0  0  0
  -23.5060  -32.0410   23.7670 O   0  0  0  0  0  0  0  0  0  0  0  0
  -22.7420  -29.3560   22.5530 C   0  0  0  0  0  0  0  0  0  0  0  0
  -21.4160  -29.1830   22.4030 N   0  0  0  0  0  0  0  0  0  0  0  0
  -23.3980  -28.7340   23.3930 O   0  0  0  0  0  0  0  0  0  0  0  0
  -20.9410  -29.7350   21.7030 H   0  0  0  0  0  0  0  0  0  0  0  0
  -18.0300  -27.9670   22.8640 C   0  0  0  0  0  0  0  0  0  0  0  0
  -20.5850  -28.2400   23.1610 C   0  0  0  0  0  3  0  0  0  0  0  0
  -20.6980  -26.8100   22.5810 C   0  0  0  0  0  2  0  0  0  0  0  0
  -19.6110  -26.4890   21.5510 C   0  0  0  0  0  2  0  0  0  0  0  0
  -18.2200  -26.6230   22.1790 C   0  0  0  0  0  2  0  0  0  0  0  0
  -19.1400  -28.7330   23.3100 C   0  0  0  0  0  0  0  0  0  0  0  0
  -18.9050  -29.9880   23.9130 C   0  0  0  0  0  3  0  0  0  0  0  0
  -17.5960  -30.4780   24.0710 C   0  0  0  0  0  3  0  0  0  0  0  0
  -16.5010  -29.7100   23.6390 C   0  0  0  0  0  3  0  0  0  0  0  0
  -16.7180  -28.4560   23.0420 C   0  0  0  0  0  3  0  0  0  0  0  0
  -25.8640  -32.4060   23.9170 C   0  0  0  0  0  3  0  0  0  0  0  0
  -25.5480  -33.8160   24.2060 N   0  0  0  0  0  0  0  0  0  0  0  0
  -25.9180  -34.8570   23.4470 C   0  0  0  0  0  0  0  0  0  0  0  0
  -26.6240  -34.7310   22.4440 O   0  0  0  0  0  0  0  0  0  0  0  0
  -24.9250  -33.9860   24.9820 H   0  0  0  0  0  0  0  0  0  0  0  0
  -24.2360  -36.6750   22.9960 C   0  0  0  0  0  1  0  0  0  0  0  0
  -25.4320  -36.2600   23.8680 C   0  0  0  0  0  3  0  0  0  0  0  0
  -27.5280  -37.1370   24.8000 C   0  0  0  0  0  1  0  0  0  0  0  0
  -26.4840  -37.2980   23.7910 N   0  0  0  0  0  0  0  0  0  0  0  0
  -26.0850  -38.2260   23.8960 H   0  0  0  0  0  0  0  0  0  0  0  0
  -26.3210  -31.6710   25.2380 C   0  0  1  0  0  0  0  0  0  0  0  0
  -25.1840  -31.4710   26.2670 C   0  0  0  0  0  1  0  0  0  0  0  0
  -26.9130  -30.2790   24.9200 C   0  0  0  0  0  1  0  0  0  0  0  0
  -27.4500  -32.4800   25.9220 C   0  0  0  0  0  1  0  0  0  0  0  0
  -29.5720  -21.9530   15.9150 C   0  0  0  0  0  1  0  0  0  0  0  0
  -28.8750  -22.1680   17.2640 C   0  0  0  0  0  2  0  0  0  0  0  0
  -29.1500  -19.5990   20.4970 C   0  0  0  0  0  3  0  0  0  0  0  0
  -30.0060  -18.0940   19.9980 C   0  0  0  0  0  3  0  0  0  0  0  0
  -30.5350  -15.2120   20.1080 C   0  0  0  0  0  0  0  0  0  0  0  0
  -30.4440  -12.8020   19.1620 C   0  0  0  0  0  2  0  0  0  0  0  0
  -29.4780  -12.6750   17.9570 C   0  0  0  0  0  2  0  0  0  0  0  0
  -28.0400  -12.4160   18.4360 C   0  0  0  0  0  2  0  0  0  0  0  0
  -27.6490  -13.3290   19.6260 C   0  0  0  0  0  3  0  0  0  0  0  0
  -28.7410  -13.4100   20.7150 C   0  0  0  0  0  2  0  0  0  0  0  0
  -29.9570  -13.9130   20.0580 N   0  0  0  0  0  0  0  0  0  0  0  0
  -31.7300  -15.2250   19.7830 O   0  0  0  0  0  0  0  0  0  0  0  0
  -29.7890  -16.4720   20.3140 N   0  0  0  0  0  0  0  0  0  0  0  0
  -28.8380  -16.2720   20.5930 H   0  0  0  0  0  0  0  0  0  0  0  0
  -25.3000  -13.8660   20.4620 C   0  0  0  0  0  0  0  0  0  0  0  0
  -24.2560  -13.0770   20.8570 C   0  0  0  0  0  0  0  0  0  0  0  0
  -24.7310  -11.7300   20.7960 C   0  0  0  0  0  0  0  0  0  0  0  0
  -26.3400  -13.0000   20.1730 N   0  0  0  0  0  0  0  0  0  0  0  0
  -26.0110  -11.7090   20.4410 N   0  0  0  0  0  0  0  0  0  0  0  0
  -24.0160  -10.4620   20.9940 C   0  0  0  0  0  0  0  0  0  0  0  0
  -24.4460   -9.5090   21.9450 C   0  0  0  0  0  3  0  0  0  0  0  0
  -23.7270   -8.3090   22.1320 C   0  0  0  0  0  3  0  0  0  0  0  0
  -22.5640   -8.0510   21.3690 C   0  0  0  0  0  0  0  0  0  0  0  0
  -22.1540   -8.9910   20.4060 C   0  0  0  0  0  3  0  0  0  0  0  0
  -22.8740  -10.1830   20.2180 C   0  0  0  0  0  3  0  0  0  0  0  0
  -21.8180   -6.9000   21.4620 O   0  0  0  0  0  0  0  0  0  0  0  0
  -21.7310   -6.1930   22.6340 C   0  0  0  0  0  0  0  0  0  0  0  0
  -21.1880   -6.7590   23.8080 C   0  0  0  0  0  3  0  0  0  0  0  0
  -21.0540   -5.9760   24.9710 C   0  0  0  0  0  3  0  0  0  0  0  0
  -21.4540   -4.6260   24.9620 C   0  0  0  0  0  0  0  0  0  0  0  0
  -21.9910   -4.0600   23.7930 C   0  0  0  0  0  3  0  0  0  0  0  0
  -22.1260   -4.8400   22.6320 C   0  0  0  0  0  0  0  0  0  0  0  0
  -22.6250   -4.2830   21.5020 F   0  0  0  0  0  0  0  0  0  0  0  0
  -21.3190   -3.8710   26.0770 F   0  0  0  0  0  0  0  0  0  0  0  0
  -22.8670  -13.5430   21.1760 C   0  0  0  0  0  0  0  0  0  0  0  0
  -22.1630  -12.8250   22.0440 N   0  0  0  0  0  0  0  0  0  0  0  0
  -22.4150  -14.5790   20.6910 O   0  0  0  0  0  0  0  0  0  0  0  0
  -22.5440  -11.9850   22.4550 H   0  0  0  0  0  0  0  0  0  0  0  0
  -21.2300  -13.1150   22.2990 H   0  0  0  0  0  0  0  0  0  0  0  0
  -25.4460  -15.2390   20.2960 N   0  0  0  0  0  0  0  0  0  0  0  0
  -24.6740  -15.8820   20.4400 H   0  0  0  0  0  0  0  0  0  0  0  0
  -26.2640  -15.6870   19.9030 H   0  0  0  0  0  0  0  0  0  0  0  0
  1  3  1  0
  2 49  1  0
  2  1  1  0
  2  3  1  0
  3 50  1  1
  3  4  1  0
  4  5  2  0
  6  7  1  0
  6  4  1  0
  8 19  2  0
  9  7  1  0
  9 14  1  0
 10 18  1  0
 10 20  1  0
 11 17  1  0
 11 13  1  0
 12 18  1  0
 13 14  2  0
 13 12  1  0
 15  9  2  0
 16 15  1  0
 16 11  2  0
 17 10  1  0
 18  8  1  0
 20 22  2  0
 21 20  1  0
 23 21  1  0
 24 33  2  0
 24 29  1  0
 25 21  1  0
 25 29  1  0
 26 25  1  0
 27 28  1  0
 27 26  1  0
 28 24  1  0
 29 30  2  0
 30 31  1  0
 32 31  2  0
 33 32  1  0
 34  8  1  0
 34 35  1  0
 34 44  1  0
 35 38  1  0
 36 40  1  0
 36 35  1  0
 37 36  2  0
 40 39  1  0
 42 40  1  0
 42 43  1  0
 42 41  1  0
 44 47  1  1
 44 45  1  0
 46 44  1  0
 48 49  1  0
 51 60  1  0
 51 50  2  0
 52 60  1  0
 53 58  1  0
 54 55  1  0
 54 53  1  0
 56 55  1  0
 56 65  1  0
 56 57  1  0
 58 52  1  0
 58 57  1  0
 59 52  2  0
 60 61  1  0
 62 63  2  0
 63 82  1  0
 64 63  1  0
 64 67  1  0
 65 66  1  0
 65 62  1  0
 66 64  2  0
 67 68  1  0
 68 69  2  0
 70 73  1  0
 70 69  1  0
 71 70  2  0
 72 71  1  0
 72 67  2  0
 73 74  1  0
 74 75  1  0
 75 76  2  0
 77 76  1  0
 77 81  1  0
 78 77  2  0
 79 74  2  0
 79 78  1  0
 80 79  1  0
 82 83  1  0
 83 86  1  0
 83 85  1  0
 84 82  2  0
 87 88  1  0
 87 62  1  0
 89 87  1  0
M  ISO  4   6 101   7 101  52 100  60 100
M  END
>  <TORSDO>  (17) 
F 21

>  <SCORE>  (17) 
-15.009

>  <name>  (17) 
17

>  <ligand_id>  (17) 
17

>  <original_smiles>  (17) 
[H]c1c([H])c([H])c2c(c1[H])C([H])([H])C([H])([H])C([H])([H])C2([H])N([H])C(=O)C1([H])N(C(=O)C([H])(N([H])C(=O)C([H])(N([H])C([H])([H])[H])C([H])([H])[H])C(C([H])([H])[H])(C([H])([H])[H])C([H])([H])[H])C([H])([H])c2c([H])c(OC([H])([H])C(=O)C3(C([H])([H])C([H])([H])N([H])C(=O)N4C([H])([H])C([H])([H])C([H])([H])C([H])(n5nc(-c6c([H])c([H])c(Oc7c([H])c([H])c(F)c([H])c7F)c([H])c6[H])c(C(=O)N([H])[H])c5N([H])[H])C4([H])[H])C([H])([H])C3([H])C([H])([H])C([H])([H])[H])c([H])c([H])c2C1([H])[H]

>  <smiles>  (17) 
[H]c1c([H])c([H])c2c(c1[H])C([H])([H])C([H])([H])C([H])([H])C2([H])N([H])C(=O)C1([H])N(C(=O)C([H])(N([H])C(=O)C([H])(N([H])C([H])([H])[H])C([H])([H])[H])C(C([H])([H])[H])(C([H])([H])[H])C([H])([H])[H])C([H])([H])c2c([H])c(OC([H])([H])C(=O)C3(C([H])([H])C([H])([H])N([H])C(=O)N4C([H])([H])C([H])([H])C([H])([H])C([H])(n5nc(-c6c([H])c([H])c(Oc7c([H])c([H])c(F)c([H])c7F)c([H])c6[H])c(C(=O)N([H])[H])c5N([H])[H])C4([H])[H])C([H])([H])C3([H])C([H])([H])C([H])([H])[H])c([H])c([H])c2C1([H])[H]

$$$$
18:0:0
     RDKit          3D

 96105  0  0  1  0  0  0  0  0999 V2000
  -31.0580  -19.2010   21.6120 C   0  0  0  0  0  3  0  0  0  0  0  0
  -30.5970  -20.4520   21.1400 C   0  0  0  0  0  3  0  0  0  0  0  0
  -30.5020  -18.1730   19.4910 C   0  0  0  0  0  3  0  0  0  0  0  0
  -30.0570  -19.4280   19.0080 C   0  0  0  0  0  0  0  0  0  0  0  0
  -31.0110  -18.0450   20.8010 C   0  0  0  0  0  0  0  0  0  0  0  0
  -30.0710  -20.5880   19.8330 C   0  0  0  0  0  0  0  0  0  0  0  0
  -30.3050  -19.9670   16.6500 C   0  0  0  0  0  3  0  0  0  0  0  0
  -29.5360  -19.4610   17.6350 C   0  0  0  0  0  0  0  0  0  0  0  0
  -29.9170  -20.0020   15.1810 C   0  0  0  0  0  2  0  0  0  0  0  0
  -28.1610  -18.8730   17.3420 C   0  0  0  0  0  2  0  0  0  0  0  0
  -28.6970  -19.1190   14.8720 C   0  0  0  0  0  2  0  0  0  0  0  0
  -27.6190  -19.2630   15.9540 C   0  0  0  0  0  2  0  0  0  0  0  0
  -29.5030  -21.9260   19.3110 C   0  0  0  0  0  2  0  0  0  0  0  0
  -29.6220  -23.1900   20.2140 C   0  0  0  0  0  2  0  0  0  0  0  0
  -28.5080  -24.2380   19.9300 C   0  0  0  0  0  2  0  0  0  0  0  0
  -28.6580  -25.6170   20.6420 C   0  0  0  0  0  2  0  0  0  0  0  0
  -28.5980  -26.7540   19.7660 O   0  0  0  0  0  0  0  0  0  0  0  0
  -24.6400  -31.5680   23.2390 C   0  0  0  0  0  0  0  0  0  0  0  0
  -27.4380  -27.4890   19.8290 C   0  0  0  0  0  0  0  0  0  0  0  0
  -23.5040  -30.3270   21.4250 C   0  0  0  0  0  3  0  0  0  0  0  0
  -25.0260  -28.9550   19.9020 C   0  0  0  0  0  0  0  0  0  0  0  0
  -26.0280  -30.7320   21.3460 C   0  0  0  0  0  2  0  0  0  0  0  0
  -26.1530  -29.4310   20.5820 C   0  0  0  0  0  0  0  0  0  0  0  0
  -27.3640  -28.7010   20.5510 C   0  0  0  0  0  3  0  0  0  0  0  0
  -26.3010  -27.0330   19.1310 C   0  0  0  0  0  3  0  0  0  0  0  0
  -25.0920  -27.7550   19.1710 C   0  0  0  0  0  3  0  0  0  0  0  0
  -23.7680  -29.7920   19.9930 C   0  0  0  0  0  2  0  0  0  0  0  0
  -24.7390  -30.8860   22.0650 N   0  0  0  0  0  0  0  0  0  0  0  0
  -23.5400  -31.7700   23.7720 O   0  0  0  0  0  0  0  0  0  0  0  0
  -22.8390  -29.2060   22.2550 C   0  0  0  0  0  0  0  0  0  0  0  0
  -21.5100  -29.0690   22.1220 N   0  0  0  0  0  0  0  0  0  0  0  0
  -23.5190  -28.4700   22.9760 O   0  0  0  0  0  0  0  0  0  0  0  0
  -21.0240  -29.7200   21.5180 H   0  0  0  0  0  0  0  0  0  0  0  0
  -18.1080  -27.9190   22.5410 C   0  0  0  0  0  0  0  0  0  0  0  0
  -20.6790  -28.0580   22.7750 C   0  0  0  0  0  3  0  0  0  0  0  0
  -20.7200  -26.7190   22.0020 C   0  0  0  0  0  2  0  0  0  0  0  0
  -19.5860  -26.5780   20.9810 C   0  0  0  0  0  2  0  0  0  0  0  0
  -18.2230  -26.6730   21.6760 C   0  0  0  0  0  2  0  0  0  0  0  0
  -19.2630  -28.5770   23.0430 C   0  0  0  0  0  0  0  0  0  0  0  0
  -19.1040  -29.7510   23.8100 C   0  0  0  0  0  3  0  0  0  0  0  0
  -17.8230  -30.2680   24.0790 C   0  0  0  0  0  3  0  0  0  0  0  0
  -16.6830  -29.6040   23.5920 C   0  0  0  0  0  3  0  0  0  0  0  0
  -16.8270  -28.4300   22.8310 C   0  0  0  0  0  3  0  0  0  0  0  0
  -25.9020  -32.1460   23.9590 C   0  0  0  0  0  3  0  0  0  0  0  0
  -25.6160  -33.5500   24.2820 N   0  0  0  0  0  0  0  0  0  0  0  0
  -26.0630  -34.5980   23.5760 C   0  0  0  0  0  0  0  0  0  0  0  0
  -26.8270  -34.4810   22.6140 O   0  0  0  0  0  0  0  0  0  0  0  0
  -24.9580  -33.7170   25.0290 H   0  0  0  0  0  0  0  0  0  0  0  0
  -24.4530  -36.4640   23.0820 C   0  0  0  0  0  1  0  0  0  0  0  0
  -25.5890  -35.9980   24.0060 C   0  0  0  0  0  3  0  0  0  0  0  0
  -27.6630  -36.7840   25.0610 C   0  0  0  0  0  1  0  0  0  0  0  0
  -26.6680  -37.0080   24.0150 N   0  0  0  0  0  0  0  0  0  0  0  0
  -26.2840  -37.9410   24.1410 H   0  0  0  0  0  0  0  0  0  0  0  0
  -26.3000  -31.3430   25.2580 C   0  0  1  0  0  0  0  0  0  0  0  0
  -25.1380  -31.1660   26.2630 C   0  0  0  0  0  1  0  0  0  0  0  0
  -26.8200  -29.9330   24.8900 C   0  0  0  0  0  1  0  0  0  0  0  0
  -27.4520  -32.0690   25.9920 C   0  0  0  0  0  1  0  0  0  0  0  0
  -31.4490  -16.6960   21.3940 C   0  0  0  0  0  2  0  0  0  0  0  0
  -31.2570  -14.5130   20.1700 C   0  0  0  0  0  0  0  0  0  0  0  0
  -30.8050  -12.4070   18.9530 C   0  0  0  0  0  2  0  0  0  0  0  0
  -29.8350  -12.6480   17.7800 C   0  0  0  0  0  2  0  0  0  0  0  0
  -28.3730  -12.5600   18.2580 C   0  0  0  0  0  2  0  0  0  0  0  0
  -28.1090  -13.4070   19.5320 C   0  0  0  0  0  3  0  0  0  0  0  0
  -29.1830  -13.1350   20.6070 C   0  0  0  0  0  2  0  0  0  0  0  0
  -30.5030  -13.3910   20.0070 N   0  0  0  0  0  0  0  0  0  0  0  0
  -32.3440  -14.6650   19.6030 O   0  0  0  0  0  0  0  0  0  0  0  0
  -30.7370  -15.4820   20.9480 N   0  0  0  0  0  0  0  0  0  0  0  0
  -29.8330  -15.3000   21.3570 H   0  0  0  0  0  0  0  0  0  0  0  0
  -25.7650  -14.1090   20.3200 C   0  0  0  0  0  0  0  0  0  0  0  0
  -24.6750  -13.3800   20.7190 C   0  0  0  0  0  0  0  0  0  0  0  0
  -25.0780  -12.0100   20.6660 C   0  0  0  0  0  0  0  0  0  0  0  0
  -26.7610  -13.1850   20.0500 N   0  0  0  0  0  0  0  0  0  0  0  0
  -26.3540  -11.9170   20.3160 N   0  0  0  0  0  0  0  0  0  0  0  0
  -24.3050  -10.7780   20.8710 C   0  0  0  0  0  0  0  0  0  0  0  0
  -24.7010   -9.8060   21.8160 C   0  0  0  0  0  3  0  0  0  0  0  0
  -23.9320   -8.6370   22.0060 C   0  0  0  0  0  3  0  0  0  0  0  0
  -22.7530   -8.4330   21.2510 C   0  0  0  0  0  0  0  0  0  0  0  0
  -22.3760   -9.3930   20.2950 C   0  0  0  0  0  3  0  0  0  0  0  0
  -23.1460  -10.5520   20.1030 C   0  0  0  0  0  3  0  0  0  0  0  0
  -21.9580   -7.3190   21.3500 O   0  0  0  0  0  0  0  0  0  0  0  0
  -21.8220   -6.6340   22.5320 C   0  0  0  0  0  0  0  0  0  0  0  0
  -21.3320   -7.2550   23.7020 C   0  0  0  0  0  3  0  0  0  0  0  0
  -21.1430   -6.4980   24.8740 C   0  0  0  0  0  3  0  0  0  0  0  0
  -21.4350   -5.1210   24.8780 C   0  0  0  0  0  0  0  0  0  0  0  0
  -21.9160   -4.4980   23.7140 C   0  0  0  0  0  3  0  0  0  0  0  0
  -22.1070   -5.2530   22.5430 C   0  0  0  0  0  0  0  0  0  0  0  0
  -22.5510   -4.6460   21.4160 F   0  0  0  0  0  0  0  0  0  0  0  0
  -21.2450   -4.3890   26.0030 F   0  0  0  0  0  0  0  0  0  0  0  0
  -23.3090  -13.9140   21.0350 C   0  0  0  0  0  0  0  0  0  0  0  0
  -22.5930  -13.2660   21.9480 N   0  0  0  0  0  0  0  0  0  0  0  0
  -22.8840  -14.9400   20.5070 O   0  0  0  0  0  0  0  0  0  0  0  0
  -22.9480  -12.4350   22.3980 H   0  0  0  0  0  0  0  0  0  0  0  0
  -21.6760  -13.6040   22.2000 H   0  0  0  0  0  0  0  0  0  0  0  0
  -25.9860  -15.4710   20.1430 N   0  0  0  0  0  0  0  0  0  0  0  0
  -25.2560  -16.1610   20.2850 H   0  0  0  0  0  0  0  0  0  0  0  0
  -26.8360  -15.8680   19.7660 H   0  0  0  0  0  0  0  0  0  0  0  0
  2  1  1  0
  3  5  1  0
  4  3  2  0
  4  6  1  0
  5 58  1  0
  5  1  2  0
  6  2  2  0
  7  8  2  0
  8  4  1  0
  9  7  1  0
 10  8  1  0
 11  9  1  0
 11 12  1  0
 12 10  1  0
 13  6  1  0
 13 14  1  0
 15 14  1  0
 15 16  1  0
 17 19  1  0
 17 16  1  0
 18 29  2  0
 19 24  1  0
 20 28  1  0
 20 30  1  0
 21 27  1  0
 21 23  1  0
 22 28  1  0
 23 22  1  0
 24 23  2  0
 25 26  1  0
 25 19  2  0
 26 21  2  0
 27 20  1  0
 28 18  1  0
 30 32  2  0
 31 30  1  0
 33 31  1  0
 34 43  2  0
 34 39  1  0
 35 31  1  0
 35 39  1  0
 36 35  1  0
 37 38  1  0
 37 36  1  0
 38 34  1  0
 39 40  2  0
 40 41  1  0
 42 41  2  0
 43 42  1  0
 44 18  1  0
 44 45  1  0
 44 54  1  0
 45 48  1  0
 46 50  1  0
 46 45  1  0
 47 46  2  0
 50 49  1  0
 50 52  1  0
 52 53  1  0
 52 51  1  0
 54 57  1  1
 54 55  1  0
 56 54  1  0
 59 67  1  0
 60 65  1  0
 61 62  1  0
 61 60  1  0
 63 62  1  0
 63 72  1  0
 63 64  1  0
 65 59  1  0
 65 64  1  0
 66 59  2  0
 67 68  1  0
 67 58  1  0
 69 70  2  0
 70 89  1  0
 71 70  1  0
 71 74  1  0
 72 73  1  0
 72 69  1  0
 73 71  2  0
 74 75  1  0
 75 76  2  0
 77 80  1  0
 77 76  1  0
 78 77  2  0
 79 78  1  0
 79 74  2  0
 80 81  1  0
 81 86  2  0
 81 82  1  0
 82 83  2  0
 83 84  1  0
 84 88  1  0
 85 84  2  0
 86 85  1  0
 87 86  1  0
 89 90  1  0
 90 93  1  0
 90 92  1  0
 91 89  2  0
 94 95  1  0
 94 69  1  0
 96 94  1  0
M  ISO  4  16 101  17 101  59 100  67 100
M  END
>  <TORSDO>  (18) 
F 22

>  <SCORE>  (18) 
-12.556

>  <name>  (18) 
18

>  <ligand_id>  (18) 
18

>  <original_smiles>  (18) 
[H]C1=C(c2c([H])c(C([H])([H])N([H])C(=O)N3C([H])([H])C([H])([H])C([H])([H])C([H])(n4nc(-c5c([H])c([H])c(Oc6c([H])c([H])c(F)c([H])c6F)c([H])c5[H])c(C(=O)N([H])[H])c4N([H])[H])C3([H])[H])c([H])c([H])c2C([H])([H])C([H])([H])C([H])([H])C([H])([H])Oc2c([H])c([H])c3c(c2[H])C([H])([H])N(C(=O)C([H])(N([H])C(=O)C([H])(N([H])C([H])([H])[H])C([H])([H])[H])C(C([H])([H])[H])(C([H])([H])[H])C([H])([H])[H])C([H])(C(=O)N([H])C2([H])c4c([H])c([H])c([H])c([H])c4C([H])([H])C([H])([H])C2([H])[H])C3([H])[H])C([H])([H])C([H])([H])C([H])([H])C1([H])[H]

>  <smiles>  (18) 
[H]C1=C(c2c([H])c(C([H])([H])N([H])C(=O)N3C([H])([H])C([H])([H])C([H])([H])C([H])(n4nc(-c5c([H])c([H])c(Oc6c([H])c([H])c(F)c([H])c6F)c([H])c5[H])c(C(=O)N([H])[H])c4N([H])[H])C3([H])[H])c([H])c([H])c2C([H])([H])C([H])([H])C([H])([H])C([H])([H])Oc2c([H])c([H])c3c(c2[H])C([H])([H])N(C(=O)C([H])(N([H])C(=O)C([H])(N([H])C([H])([H])[H])C([H])([H])[H])C(C([H])([H])[H])(C([H])([H])[H])C([H])([H])[H])C([H])(C(=O)N([H])C2([H])c4c([H])c([H])c([H])c([H])c4C([H])([H])C([H])([H])C2([H])[H])C3([H])[H])C([H])([H])C([H])([H])C([H])([H])C1([H])[H]

$$$$
19:0:0
     RDKit          3D

 98107  0  0  1  0  0  0  0  0999 V2000
  -29.9900  -19.3640   24.6910 C   0  0  0  0  0  2  0  0  0  0  0  0
  -29.0350  -20.5490   24.4760 C   0  0  0  0  0  2  0  0  0  0  0  0
  -30.6440  -19.2510   22.2200 C   0  0  0  0  0  2  0  0  0  0  0  0
  -30.6360  -21.8370   21.7120 C   0  0  0  0  0  2  0  0  0  0  0  0
  -29.8590  -20.5450   21.9730 C   0  0  0  0  0  3  0  0  0  0  0  0
  -30.1510  -18.4510   23.4530 C   0  0  0  0  0  3  0  0  0  0  0  0
  -29.2970  -21.3060   23.1760 C   0  0  0  0  0  3  0  0  0  0  0  0
  -30.5530  -22.0640   23.1550 N   0  0  2  0  0  4  0  0  0  0  0  0
  -31.2820  -21.5460   23.6210 H   0  0  0  0  0  0  0  0  0  0  0  0
  -31.0800  -17.2760   23.8420 C   0  0  0  0  0  2  0  0  0  0  0  0
  -31.2690  -16.2190   22.7560 C   0  0  0  0  0  0  0  0  0  0  0  0
  -31.1350  -15.0180   23.0010 O   0  0  0  0  0  0  0  0  0  0  0  0
  -31.6230  -16.7430   21.3600 C   0  0  0  0  0  2  0  0  0  0  0  0
  -31.7630  -15.6740   20.2620 C   0  0  0  0  0  2  0  0  0  0  0  0
  -30.1710  -14.5770   18.6940 C   0  0  0  0  0  0  0  0  0  0  0  0
  -29.6600  -12.3560   17.7940 C   0  0  0  0  0  2  0  0  0  0  0  0
  -28.4710  -12.2740   16.8310 C   0  0  0  0  0  2  0  0  0  0  0  0
  -27.1650  -12.0770   17.6150 C   0  0  0  0  0  2  0  0  0  0  0  0
  -26.9920  -13.1260   18.7410 C   0  0  0  0  0  3  0  0  0  0  0  0
  -28.2620  -13.2350   19.6160 C   0  0  0  0  0  2  0  0  0  0  0  0
  -29.4330  -13.4490   18.7460 N   0  0  0  0  0  0  0  0  0  0  0  0
  -30.7650  -14.9730   17.6870 O   0  0  0  0  0  0  0  0  0  0  0  0
  -30.5020  -15.0090   19.9170 N   0  0  0  0  0  0  0  0  0  0  0  0
  -30.0090  -14.5610   20.6770 H   0  0  0  0  0  0  0  0  0  0  0  0
  -24.8520  -13.7150   20.0500 C   0  0  0  0  0  0  0  0  0  0  0  0
  -23.9080  -12.9330   20.6590 C   0  0  0  0  0  0  0  0  0  0  0  0
  -24.3390  -11.5830   20.4810 C   0  0  0  0  0  0  0  0  0  0  0  0
  -25.8030  -12.8420   19.5440 N   0  0  0  0  0  0  0  0  0  0  0  0
  -25.5090  -11.5520   19.8560 N   0  0  0  0  0  0  0  0  0  0  0  0
  -23.6790  -10.3150   20.8190 C   0  0  0  0  0  0  0  0  0  0  0  0
  -24.2710   -9.3880   21.7050 C   0  0  0  0  0  3  0  0  0  0  0  0
  -23.6090   -8.1840   22.0300 C   0  0  0  0  0  3  0  0  0  0  0  0
  -22.3400   -7.8990   21.4710 C   0  0  0  0  0  0  0  0  0  0  0  0
  -21.7650   -8.8150   20.5720 C   0  0  0  0  0  3  0  0  0  0  0  0
  -22.4280  -10.0100   20.2450 C   0  0  0  0  0  3  0  0  0  0  0  0
  -21.6340   -6.7440   21.7080 O   0  0  0  0  0  0  0  0  0  0  0  0
  -21.6460   -6.1330   22.9370 C   0  0  0  0  0  0  0  0  0  0  0  0
  -21.2530   -6.8130   24.1110 C   0  0  0  0  0  3  0  0  0  0  0  0
  -21.2140   -6.1260   25.3410 C   0  0  0  0  0  3  0  0  0  0  0  0
  -21.5560   -4.7630   25.4000 C   0  0  0  0  0  0  0  0  0  0  0  0
  -21.9430   -4.0840   24.2310 C   0  0  0  0  0  3  0  0  0  0  0  0
  -21.9840   -4.7670   23.0020 C   0  0  0  0  0  0  0  0  0  0  0  0
  -22.3360   -4.1020   21.8750 F   0  0  0  0  0  0  0  0  0  0  0  0
  -21.5110   -4.1010   26.5790 F   0  0  0  0  0  0  0  0  0  0  0  0
  -22.6270  -13.4010   21.2890 C   0  0  0  0  0  0  0  0  0  0  0  0
  -22.1590  -12.7030   22.3180 N   0  0  0  0  0  0  0  0  0  0  0  0
  -22.0590  -14.4210   20.9000 O   0  0  0  0  0  0  0  0  0  0  0  0
  -22.6370  -11.8780   22.6490 H   0  0  0  0  0  0  0  0  0  0  0  0
  -21.3110  -12.9980   22.7810 H   0  0  0  0  0  0  0  0  0  0  0  0
  -24.9730  -15.0900   19.8680 N   0  0  0  0  0  0  0  0  0  0  0  0
  -24.2610  -15.7420   20.1760 H   0  0  0  0  0  0  0  0  0  0  0  0
  -25.7210  -15.5330   19.3500 H   0  0  0  0  0  0  0  0  0  0  0  0
  -30.5250  -23.4670   23.6210 C   0  0  0  0  0  2  0  0  0  0  0  0
  -31.4020  -24.3720   22.7330 C   0  0  0  0  0  2  0  0  0  0  0  0
  -31.4100  -25.8440   23.1670 C   0  0  0  0  0  2  0  0  0  0  0  0
  -31.9230  -26.7670   22.0540 C   0  0  0  0  0  2  0  0  0  0  0  0
  -31.9120  -28.2480   22.4530 C   0  0  0  0  0  2  0  0  0  0  0  0
  -31.5840  -29.0370   21.3140 O   0  0  0  0  0  0  0  0  0  0  0  0
  -25.7320  -31.8230   24.1910 C   0  0  0  0  0  0  0  0  0  0  0  0
  -30.2360  -29.2360   21.1970 C   0  0  0  0  0  0  0  0  0  0  0  0
  -25.3690  -30.2580   22.3070 C   0  0  0  0  0  3  0  0  0  0  0  0
  -27.4540  -29.6070   20.9910 C   0  0  0  0  0  0  0  0  0  0  0  0
  -27.5220  -31.6220   22.4740 C   0  0  0  0  0  2  0  0  0  0  0  0
  -28.2230  -30.4870   21.7640 C   0  0  0  0  0  0  0  0  0  0  0  0
  -29.6160  -30.3060   21.8720 C   0  0  0  0  0  3  0  0  0  0  0  0
  -29.4610  -28.3550   20.4180 C   0  0  0  0  0  3  0  0  0  0  0  0
  -28.0670  -28.5330   20.3180 C   0  0  0  0  0  3  0  0  0  0  0  0
  -25.9700  -29.8800   20.9250 C   0  0  0  0  0  2  0  0  0  0  0  0
  -26.2120  -31.2470   23.0530 N   0  0  0  0  0  0  0  0  0  0  0  0
  -24.5880  -31.5770   24.5980 O   0  0  0  0  0  0  0  0  0  0  0  0
  -25.1050  -28.9590   23.0990 C   0  0  0  0  0  0  0  0  0  0  0  0
  -24.0940  -28.1890   22.6620 N   0  0  0  0  0  0  0  0  0  0  0  0
  -25.8130  -28.6490   24.0610 O   0  0  0  0  0  0  0  0  0  0  0  0
  -23.5580  -28.5180   21.8720 H   0  0  0  0  0  0  0  0  0  0  0  0
  -21.8150  -25.4200   22.2360 C   0  0  0  0  0  0  0  0  0  0  0  0
  -23.6850  -26.9040   23.2270 C   0  0  0  0  0  3  0  0  0  0  0  0
  -24.6590  -25.7780   22.8090 C   0  0  0  0  0  2  0  0  0  0  0  0
  -24.2180  -25.0380   21.5420 C   0  0  0  0  0  2  0  0  0  0  0  0
  -22.8360  -24.4100   21.7420 C   0  0  0  0  0  2  0  0  0  0  0  0
  -22.2150  -26.5990   22.9190 C   0  0  0  0  0  0  0  0  0  0  0  0
  -21.2280  -27.5230   23.3260 C   0  0  0  0  0  3  0  0  0  0  0  0
  -19.8670  -27.2830   23.0650 C   0  0  0  0  0  3  0  0  0  0  0  0
  -19.4740  -26.1070   22.4040 C   0  0  0  0  0  3  0  0  0  0  0  0
  -20.4470  -25.1780   21.9950 C   0  0  0  0  0  3  0  0  0  0  0  0
  -26.5850  -32.8330   25.0210 C   0  0  0  0  0  3  0  0  0  0  0  0
  -26.8280  -32.3680   26.5090 C   0  0  1  0  0  0  0  0  0  0  0  0
  -25.5410  -31.9160   27.2370 C   0  0  0  0  0  1  0  0  0  0  0  0
  -27.8350  -31.1950   26.5550 C   0  0  0  0  0  1  0  0  0  0  0  0
  -27.4570  -33.5230   27.3240 C   0  0  0  0  0  1  0  0  0  0  0  0
  -25.8920  -34.1280   24.9860 N   0  0  0  0  0  0  0  0  0  0  0  0
  -26.1960  -35.1300   24.1500 C   0  0  0  0  0  0  0  0  0  0  0  0
  -27.1480  -35.0840   23.3670 O   0  0  0  0  0  0  0  0  0  0  0  0
  -25.0680  -34.2160   25.5630 H   0  0  0  0  0  0  0  0  0  0  0  0
  -24.2980  -36.3340   23.0230 C   0  0  0  0  0  1  0  0  0  0  0  0
  -25.2990  -36.3820   24.1880 C   0  0  0  0  0  3  0  0  0  0  0  0
  -26.9150  -37.8550   25.3040 C   0  0  0  0  0  1  0  0  0  0  0  0
  -26.0580  -37.6510   24.1400 N   0  0  0  0  0  0  0  0  0  0  0  0
  -25.4290  -38.4450   24.0650 H   0  0  0  0  0  0  0  0  0  0  0  0
  2  1  1  0
  3  6  1  0
  4  8  1  0
  5  4  1  0
  5  3  1  0
  5  7  1  0
  6 10  1  0
  6  1  1  0
  7  2  1  0
  8  7  1  0
  8  9  1  1
  8 53  1  0
 11 12  2  0
 11 10  1  0
 13 11  1  0
 14 13  1  0
 15 21  1  0
 15 23  1  0
 16 21  1  0
 17 18  1  0
 17 16  1  0
 19 18  1  0
 19 28  1  0
 19 20  1  0
 21 20  1  0
 22 15  2  0
 23 14  1  0
 23 24  1  0
 25 26  2  0
 26 45  1  0
 27 26  1  0
 27 30  1  0
 28 29  1  0
 28 25  1  0
 29 27  2  0
 30 31  1  0
 31 32  2  0
 33 36  1  0
 33 32  1  0
 34 33  2  0
 35 34  1  0
 35 30  2  0
 36 37  1  0
 37 42  2  0
 37 38  1  0
 38 39  2  0
 39 40  1  0
 40 44  1  0
 41 40  2  0
 42 41  1  0
 43 42  1  0
 45 46  1  0
 46 48  1  0
 46 49  1  0
 47 45  2  0
 50 25  1  0
 50 51  1  0
 52 50  1  0
 54 55  1  0
 54 53  1  0
 56 57  1  0
 56 55  1  0
 58 57  1  0
 59 70  2  0
 60 58  1  0
 60 65  1  0
 61 69  1  0
 61 71  1  0
 62 64  1  0
 63 69  1  0
 64 65  2  0
 64 63  1  0
 66 60  2  0
 67 66  1  0
 67 62  2  0
 68 62  1  0
 68 61  1  0
 69 59  1  0
 71 73  2  0
 72 71  1  0
 74 72  1  0
 75 80  1  0
 76 72  1  0
 77 76  1  0
 78 79  1  0
 78 77  1  0
 79 75  1  0
 80 76  1  0
 80 81  2  0
 82 81  1  0
 83 82  2  0
 84 75  2  0
 84 83  1  0
 85 59  1  0
 85 86  1  0
 86 88  1  6
 86 87  1  0
 86 89  1  0
 90 85  1  0
 90 93  1  0
 91 95  1  0
 91 90  1  0
 92 91  2  0
 95 94  1  0
 97 95  1  0
 97 96  1  0
 98 97  1  0
M  ISO  4  15 100  23 100  57 101  58 101
M  END
>  <TORSDO>  (19) 
F 25

>  <SCORE>  (19) 
9.027

>  <name>  (19) 
19

>  <ligand_id>  (19) 
19

>  <original_smiles>  (19) 
[H]c1c([H])c([H])c2c(c1[H])C([H])([H])C([H])([H])C([H])([H])C2([H])N([H])C(=O)C1([H])N(C(=O)C([H])(N([H])C(=O)C([H])(N([H])C([H])([H])[H])C([H])([H])[H])C(C([H])([H])[H])(C([H])([H])[H])C([H])([H])[H])C([H])([H])c2c([H])c(OC([H])([H])C([H])([H])C([H])([H])C([H])([H])C([H])([H])[N+]3([H])C([H])([H])C4([H])C([H])([H])C([H])(C([H])([H])C(=O)C([H])([H])C([H])([H])N([H])C(=O)N5C([H])([H])C([H])([H])C([H])([H])C([H])(n6nc(-c7c([H])c([H])c(Oc8c([H])c([H])c(F)c([H])c8F)c([H])c7[H])c(C(=O)N([H])[H])c6N([H])[H])C5([H])[H])C([H])([H])C([H])([H])C43[H])c([H])c([H])c2C1([H])[H]

>  <smiles>  (19) 
[H]c1c([H])c([H])c2c(c1[H])C([H])([H])C([H])([H])C([H])([H])C2([H])N([H])C(=O)C1([H])N(C(=O)C([H])(N([H])C(=O)C([H])(N([H])C([H])([H])[H])C([H])([H])[H])C(C([H])([H])[H])(C([H])([H])[H])C([H])([H])[H])C([H])([H])c2c([H])c(OC([H])([H])C([H])([H])C([H])([H])C([H])([H])C([H])([H])[N+]3([H])C([H])([H])C4([H])C([H])([H])C([H])(C([H])([H])C(=O)C([H])([H])C([H])([H])N([H])C(=O)N5C([H])([H])C([H])([H])C([H])([H])C([H])(n6nc(-c7c([H])c([H])c(Oc8c([H])c([H])c(F)c([H])c8F)c([H])c7[H])c(C(=O)N([H])[H])c6N([H])[H])C5([H])[H])C([H])([H])C([H])([H])C43[H])c([H])c([H])c2C1([H])[H]

$$$$
20:0:0
     RDKit          3D

 95104  0  0  1  0  0  0  0  0999 V2000
  -28.5340  -20.9280   21.8580 C   0  0  0  0  0  3  0  0  0  0  0  0
  -28.2140  -22.2840   21.6030 C   0  0  0  0  0  3  0  0  0  0  0  0
  -29.4370  -20.7370   19.6330 C   0  0  0  0  0  3  0  0  0  0  0  0
  -29.1520  -20.1240   20.8720 C   0  0  0  0  0  0  0  0  0  0  0  0
  -28.4510  -22.8970   20.3460 C   0  0  0  0  0  0  0  0  0  0  0  0
  -29.0530  -22.0770   19.3410 C   0  0  0  0  0  0  0  0  0  0  0  0
  -30.9700  -14.6810   19.9850 C   0  0  0  0  0  0  0  0  0  0  0  0
  -30.5790  -12.4870   18.9310 C   0  0  0  0  0  2  0  0  0  0  0  0
  -29.5700  -12.6340   17.7760 C   0  0  0  0  0  2  0  0  0  0  0  0
  -28.1280  -12.4840   18.2950 C   0  0  0  0  0  2  0  0  0  0  0  0
  -27.8490  -13.3600   19.5440 C   0  0  0  0  0  3  0  0  0  0  0  0
  -28.9740  -13.2440   20.5980 C   0  0  0  0  0  2  0  0  0  0  0  0
  -30.2550  -13.5200   19.9310 N   0  0  0  0  0  0  0  0  0  0  0  0
  -32.0950  -14.7780   19.4880 O   0  0  0  0  0  0  0  0  0  0  0  0
  -28.6960  -17.6730   20.1150 C   0  0  0  0  0  2  0  0  0  0  0  0
  -30.8950  -18.1910   21.2670 C   0  0  0  0  0  2  0  0  0  0  0  0
  -29.6350  -16.6280   19.4590 C   0  0  0  0  0  2  0  0  0  0  0  0
  -31.0670  -16.6470   21.4440 C   0  0  0  0  0  2  0  0  0  0  0  0
  -29.4110  -18.6140   21.1200 C   0  0  0  0  0  3  0  0  0  0  0  0
  -30.3470  -15.8010   20.4560 N   0  0  0  0  0  0  0  0  0  0  0  0
  -25.5210  -13.9760   20.4410 C   0  0  0  0  0  0  0  0  0  0  0  0
  -24.4670  -13.2090   20.8490 C   0  0  0  0  0  0  0  0  0  0  0  0
  -24.9000  -11.8500   20.7380 C   0  0  0  0  0  0  0  0  0  0  0  0
  -26.5310  -13.0860   20.1070 N   0  0  0  0  0  0  0  0  0  0  0  0
  -26.1660  -11.8020   20.3450 N   0  0  0  0  0  0  0  0  0  0  0  0
  -24.1660  -10.5920   20.9260 C   0  0  0  0  0  0  0  0  0  0  0  0
  -24.5830   -9.6310   21.8710 C   0  0  0  0  0  3  0  0  0  0  0  0
  -23.8520   -8.4360   22.0470 C   0  0  0  0  0  3  0  0  0  0  0  0
  -22.6870   -8.1980   21.2780 C   0  0  0  0  0  0  0  0  0  0  0  0
  -22.2880   -9.1490   20.3210 C   0  0  0  0  0  3  0  0  0  0  0  0
  -23.0220  -10.3350   20.1440 C   0  0  0  0  0  3  0  0  0  0  0  0
  -21.9280   -7.0570   21.3640 O   0  0  0  0  0  0  0  0  0  0  0  0
  -21.7810   -6.3760   22.5460 C   0  0  0  0  0  0  0  0  0  0  0  0
  -21.2170   -6.9840   23.6890 C   0  0  0  0  0  3  0  0  0  0  0  0
  -21.0200   -6.2280   24.8630 C   0  0  0  0  0  3  0  0  0  0  0  0
  -21.3750   -4.8660   24.8920 C   0  0  0  0  0  0  0  0  0  0  0  0
  -21.9310   -4.2580   23.7510 C   0  0  0  0  0  3  0  0  0  0  0  0
  -22.1270   -5.0110   22.5810 C   0  0  0  0  0  0  0  0  0  0  0  0
  -22.6440   -4.4140   21.4800 F   0  0  0  0  0  0  0  0  0  0  0  0
  -21.1770   -4.1380   26.0150 F   0  0  0  0  0  0  0  0  0  0  0  0
  -23.0980  -13.6940   21.2320 C   0  0  0  0  0  0  0  0  0  0  0  0
  -22.4150  -12.9740   22.1160 N   0  0  0  0  0  0  0  0  0  0  0  0
  -22.6440  -14.7470   20.7840 O   0  0  0  0  0  0  0  0  0  0  0  0
  -22.7910  -12.1190   22.4970 H   0  0  0  0  0  0  0  0  0  0  0  0
  -21.5000  -13.2830   22.4160 H   0  0  0  0  0  0  0  0  0  0  0  0
  -25.7000  -15.3500   20.3050 N   0  0  0  0  0  0  0  0  0  0  0  0
  -24.9620  -16.0170   20.5000 H   0  0  0  0  0  0  0  0  0  0  0  0
  -26.5420  -15.7820   19.9460 H   0  0  0  0  0  0  0  0  0  0  0  0
  -29.2270  -22.5220   17.8970 C   0  0  0  0  0  2  0  0  0  0  0  0
  -31.5250  -22.0970   16.8360 C   0  0  0  0  0  3  0  0  0  0  0  0
  -30.6590  -22.8630   17.5290 C   0  0  0  0  0  3  0  0  0  0  0  0
  -31.2820  -20.7020   16.2820 C   0  0  0  0  0  1  0  0  0  0  0  0
  -27.9080  -24.3530   20.1620 C   0  0  0  0  0  2  0  0  0  0  0  0
  -28.7440  -25.4450   19.4140 C   0  0  0  0  0  2  0  0  0  0  0  0
  -28.6170  -26.8220   19.8620 O   0  0  0  0  0  0  0  0  0  0  0  0
  -24.6930  -31.7430   23.1830 C   0  0  0  0  0  0  0  0  0  0  0  0
  -27.4170  -27.5180   19.8370 C   0  0  0  0  0  0  0  0  0  0  0  0
  -23.5050  -30.4010   21.4760 C   0  0  0  0  0  3  0  0  0  0  0  0
  -24.9820  -28.9780   19.9510 C   0  0  0  0  0  0  0  0  0  0  0  0
  -26.0210  -30.8270   21.2770 C   0  0  0  0  0  2  0  0  0  0  0  0
  -26.1330  -29.4940   20.5590 C   0  0  0  0  0  0  0  0  0  0  0  0
  -27.3470  -28.7700   20.4990 C   0  0  0  0  0  3  0  0  0  0  0  0
  -26.2530  -27.0300   19.2060 C   0  0  0  0  0  3  0  0  0  0  0  0
  -25.0380  -27.7470   19.2720 C   0  0  0  0  0  3  0  0  0  0  0  0
  -23.7180  -29.8020   20.0580 C   0  0  0  0  0  2  0  0  0  0  0  0
  -24.7580  -31.0050   22.0370 N   0  0  0  0  0  0  0  0  0  0  0  0
  -23.6120  -31.9560   23.7510 O   0  0  0  0  0  0  0  0  0  0  0  0
  -22.8930  -29.3100   22.3870 C   0  0  0  0  0  0  0  0  0  0  0  0
  -21.5820  -29.0640   22.2320 N   0  0  0  0  0  0  0  0  0  0  0  0
  -23.6000  -28.6900   23.1870 O   0  0  0  0  0  0  0  0  0  0  0  0
  -21.0730  -29.6210   21.5590 H   0  0  0  0  0  0  0  0  0  0  0  0
  -18.2790  -27.6530   22.5990 C   0  0  0  0  0  0  0  0  0  0  0  0
  -20.8070  -28.0540   22.9510 C   0  0  0  0  0  3  0  0  0  0  0  0
  -21.0130  -26.6520   22.3320 C   0  0  0  0  0  2  0  0  0  0  0  0
  -19.9600  -26.2980   21.2770 C   0  0  0  0  0  2  0  0  0  0  0  0
  -18.5550  -26.3390   21.8880 C   0  0  0  0  0  2  0  0  0  0  0  0
  -19.3370  -28.4650   23.0830 C   0  0  0  0  0  0  0  0  0  0  0  0
  -19.0270  -29.6940   23.7060 C   0  0  0  0  0  3  0  0  0  0  0  0
  -17.6910  -30.1100   23.8520 C   0  0  0  0  0  3  0  0  0  0  0  0
  -16.6460  -29.2950   23.3860 C   0  0  0  0  0  3  0  0  0  0  0  0
  -16.9400  -28.0680   22.7640 C   0  0  0  0  0  3  0  0  0  0  0  0
  -25.9690  -32.3750   23.8220 C   0  0  0  0  0  3  0  0  0  0  0  0
  -26.5110  -31.5650   25.0640 C   0  0  1  0  0  0  0  0  0  0  0  0
  -25.4280  -31.2590   26.1250 C   0  0  0  0  0  1  0  0  0  0  0  0
  -27.1240  -30.2180   24.6140 C   0  0  0  0  0  1  0  0  0  0  0  0
  -27.6440  -32.3590   25.7580 C   0  0  0  0  0  1  0  0  0  0  0  0
  -25.6400  -33.7520   24.2060 N   0  0  0  0  0  0  0  0  0  0  0  0
  -25.9500  -34.8380   23.4860 C   0  0  0  0  0  0  0  0  0  0  0  0
  -26.6190  -34.7870   22.4500 O   0  0  0  0  0  0  0  0  0  0  0  0
  -25.0470  -33.8700   25.0150 H   0  0  0  0  0  0  0  0  0  0  0  0
  -24.1930  -36.6140   23.1970 C   0  0  0  0  0  1  0  0  0  0  0  0
  -25.4390  -36.1990   23.9950 C   0  0  0  0  0  3  0  0  0  0  0  0
  -27.5520  -37.0900   24.8750 C   0  0  0  0  0  1  0  0  0  0  0  0
  -26.4530  -37.2730   23.9300 N   0  0  0  0  0  0  0  0  0  0  0  0
  -26.0300  -38.1800   24.1120 H   0  0  0  0  0  0  0  0  0  0  0  0
  2  1  1  0
  3  4  1  0
  4  1  2  0
  5  2  2  0
  6  3  2  0
  6  5  1  0
  7 20  1  0
  8 13  1  0
  9 10  1  0
  9  8  1  0
 11 10  1  0
 11 24  1  0
 11 12  1  0
 13  7  1  0
 13 12  1  0
 14  7  2  0
 15 19  1  0
 16 18  1  0
 17 15  1  0
 17 20  1  0
 19  4  1  0
 19 16  1  0
 20 18  1  0
 21 22  2  0
 22 41  1  0
 23 22  1  0
 23 26  1  0
 24 25  1  0
 24 21  1  0
 25 23  2  0
 26 27  1  0
 27 28  2  0
 29 32  1  0
 29 28  1  0
 30 29  2  0
 31 30  1  0
 31 26  2  0
 32 33  1  0
 33 38  2  0
 33 34  1  0
 34 35  2  0
 35 36  1  0
 36 40  1  0
 37 36  2  0
 38 37  1  0
 39 38  1  0
 41 42  1  0
 42 45  1  0
 42 44  1  0
 43 41  2  0
 46 21  1  0
 46 47  1  0
 48 46  1  0
 49  6  1  0
 50 51  2  0
 51 49  1  0
 52 50  1  0
 53  5  1  0
 54 55  1  0
 54 53  1  0
 56 67  2  0
 57 55  1  0
 57 62  1  0
 58 66  1  0
 58 68  1  0
 59 65  1  0
 59 61  1  0
 60 66  1  0
 61 60  1  0
 62 61  2  0
 63 64  1  0
 63 57  2  0
 64 59  2  0
 65 58  1  0
 66 56  1  0
 68 70  2  0
 69 68  1  0
 71 69  1  0
 72 81  2  0
 72 77  1  0
 73 69  1  0
 73 77  1  0
 74 73  1  0
 75 76  1  0
 75 74  1  0
 76 72  1  0
 77 78  2  0
 78 79  1  0
 80 79  2  0
 81 80  1  0
 82 56  1  0
 82 87  1  0
 82 83  1  0
 83 86  1  1
 83 84  1  0
 85 83  1  0
 87 90  1  0
 88 92  1  0
 88 87  1  0
 89 88  2  0
 92 91  1  0
 94 92  1  0
 94 95  1  0
 94 93  1  0
M  ISO  4   7 100  20 100  54 101  55 101
M  END
>  <TORSDO>  (20) 
F 20

>  <SCORE>  (20) 
-12.927

>  <name>  (20) 
20

>  <ligand_id>  (20) 
20

>  <original_smiles>  (20) 
[H]C(=C([H])C([H])([H])c1c([H])c(C2([H])C([H])([H])C([H])([H])N(C(=O)N3C([H])([H])C([H])([H])C([H])([H])C([H])(n4nc(-c5c([H])c([H])c(Oc6c([H])c([H])c(F)c([H])c6F)c([H])c5[H])c(C(=O)N([H])[H])c4N([H])[H])C3([H])[H])C([H])([H])C2([H])[H])c([H])c([H])c1C([H])([H])C([H])([H])Oc1c([H])c([H])c2c(c1[H])C([H])([H])N(C(=O)C([H])(N([H])C(=O)C([H])(N([H])C([H])([H])[H])C([H])([H])[H])C(C([H])([H])[H])(C([H])([H])[H])C([H])([H])[H])C([H])(C(=O)N([H])C1([H])c3c([H])c([H])c([H])c([H])c3C([H])([H])C([H])([H])C1([H])[H])C2([H])[H])C([H])([H])[H]

>  <smiles>  (20) 
[H]C(=C([H])C([H])([H])c1c([H])c(C2([H])C([H])([H])C([H])([H])N(C(=O)N3C([H])([H])C([H])([H])C([H])([H])C([H])(n4nc(-c5c([H])c([H])c(Oc6c([H])c([H])c(F)c([H])c6F)c([H])c5[H])c(C(=O)N([H])[H])c4N([H])[H])C3([H])[H])C([H])([H])C2([H])[H])c([H])c([H])c1C([H])([H])C([H])([H])Oc1c([H])c([H])c2c(c1[H])C([H])([H])N(C(=O)C([H])(N([H])C(=O)C([H])(N([H])C([H])([H])[H])C([H])([H])[H])C(C([H])([H])[H])(C([H])([H])[H])C([H])([H])[H])C([H])(C(=O)N([H])C1([H])c3c([H])c([H])c([H])c([H])c3C([H])([H])C([H])([H])C1([H])[H])C2([H])[H])C([H])([H])[H]

$$$$
21:0:0
     RDKit          3D

 93102  0  0  1  0  0  0  0  0999 V2000
  -30.1900  -22.5090   19.9560 C   0  0  0  0  0  2  0  0  0  0  0  0
  -30.1510  -24.0520   19.8600 C   0  0  0  0  0  2  0  0  0  0  0  0
  -27.8970  -23.1480   19.9350 C   0  0  0  0  0  2  0  0  0  0  0  0
  -28.8270  -22.0090   19.4620 C   0  0  0  0  0  3  0  0  0  0  0  0
  -28.6720  -24.4770   19.7590 C   0  0  0  0  0  3  0  0  0  0  0  0
  -28.3970  -20.5950   19.9700 C   0  0  0  0  0  2  0  0  0  0  0  0
  -29.2380  -19.3620   19.5100 C   0  0  0  0  0  2  0  0  0  0  0  0
  -28.9920  -18.0950   20.3990 C   0  0  0  0  0  2  0  0  0  0  0  0
  -31.3980  -18.2410   22.4950 C   0  0  0  0  0  2  0  0  0  0  0  0
  -32.0110  -18.6160   21.1440 C   0  0  0  0  0  2  0  0  0  0  0  0
  -30.4380  -17.0740   22.2170 C   0  0  0  0  0  2  0  0  0  0  0  0
  -31.5360  -17.5330   20.1720 C   0  0  0  0  0  2  0  0  0  0  0  0
  -30.1550  -17.0590   20.6950 C   0  0  2  0  0  0  0  0  0  0  0  0
  -30.4210  -14.6160   19.8080 C   0  0  0  0  0  0  0  0  0  0  0  0
  -30.2300  -12.2640   19.0520 C   0  0  0  0  0  2  0  0  0  0  0  0
  -29.2180  -12.1710   17.8940 C   0  0  0  0  0  2  0  0  0  0  0  0
  -27.7890  -11.9870   18.4410 C   0  0  0  0  0  2  0  0  0  0  0  0
  -27.4390  -13.0120   19.5540 C   0  0  0  0  0  3  0  0  0  0  0  0
  -28.5650  -13.0900   20.6110 C   0  0  0  0  0  2  0  0  0  0  0  0
  -29.8240  -13.3940   19.9090 N   0  0  0  0  0  0  0  0  0  0  0  0
  -31.4710  -14.7640   19.1810 O   0  0  0  0  0  0  0  0  0  0  0  0
  -29.7590  -15.6550   20.3740 N   0  0  0  0  0  0  0  0  0  0  0  0
  -28.8730  -15.3780   20.7690 H   0  0  0  0  0  0  0  0  0  0  0  0
  -25.1260  -13.5900   20.5210 C   0  0  0  0  0  0  0  0  0  0  0  0
  -24.1040  -12.8050   20.9830 C   0  0  0  0  0  0  0  0  0  0  0  0
  -24.5620  -11.4560   20.8750 C   0  0  0  0  0  0  0  0  0  0  0  0
  -26.1440  -12.7190   20.1650 N   0  0  0  0  0  0  0  0  0  0  0  0
  -25.8140  -11.4290   20.4340 N   0  0  0  0  0  0  0  0  0  0  0  0
  -23.8610  -10.1880   21.1130 C   0  0  0  0  0  0  0  0  0  0  0  0
  -24.3410   -9.2410   22.0450 C   0  0  0  0  0  3  0  0  0  0  0  0
  -23.6400   -8.0380   22.2700 C   0  0  0  0  0  3  0  0  0  0  0  0
  -22.4430   -7.7700   21.5630 C   0  0  0  0  0  0  0  0  0  0  0  0
  -21.9820   -8.7050   20.6180 C   0  0  0  0  0  3  0  0  0  0  0  0
  -22.6840   -9.9000   20.3920 C   0  0  0  0  0  3  0  0  0  0  0  0
  -21.7100   -6.6160   21.6960 O   0  0  0  0  0  0  0  0  0  0  0  0
  -21.6670   -5.9230   22.8790 C   0  0  0  0  0  0  0  0  0  0  0  0
  -21.1990   -6.5150   24.0730 C   0  0  0  0  0  3  0  0  0  0  0  0
  -21.1070   -5.7450   25.2500 C   0  0  0  0  0  3  0  0  0  0  0  0
  -21.4720   -4.3860   25.2340 C   0  0  0  0  0  0  0  0  0  0  0  0
  -21.9330   -3.7940   24.0450 C   0  0  0  0  0  3  0  0  0  0  0  0
  -22.0270   -4.5600   22.8690 C   0  0  0  0  0  0  0  0  0  0  0  0
  -22.4510   -3.9800   21.7210 F   0  0  0  0  0  0  0  0  0  0  0  0
  -21.3760   -3.6440   26.3630 F   0  0  0  0  0  0  0  0  0  0  0  0
  -22.7410  -13.2710   21.4080 C   0  0  0  0  0  0  0  0  0  0  0  0
  -22.1080  -12.5570   22.3320 N   0  0  0  0  0  0  0  0  0  0  0  0
  -22.2490  -14.3030   20.9530 O   0  0  0  0  0  0  0  0  0  0  0  0
  -22.5220  -11.7220   22.7210 H   0  0  0  0  0  0  0  0  0  0  0  0
  -21.1970  -12.8500   22.6550 H   0  0  0  0  0  0  0  0  0  0  0  0
  -25.2690  -14.9640   20.3570 N   0  0  0  0  0  0  0  0  0  0  0  0
  -24.5130  -15.6100   20.5570 H   0  0  0  0  0  0  0  0  0  0  0  0
  -26.0820  -15.4160   19.9550 H   0  0  0  0  0  0  0  0  0  0  0  0
  -28.2330  -25.5960   20.7550 C   0  0  0  0  0  2  0  0  0  0  0  0
  -28.4320  -26.9610   20.3100 O   0  0  0  0  0  0  0  0  0  0  0  0
  -24.5770  -32.1110   23.4080 C   0  0  0  0  0  0  0  0  0  0  0  0
  -27.2840  -27.7300   20.2850 C   0  0  0  0  0  0  0  0  0  0  0  0
  -23.3970  -30.7210   21.7370 C   0  0  0  0  0  3  0  0  0  0  0  0
  -24.8780  -29.2220   20.2950 C   0  0  0  0  0  0  0  0  0  0  0  0
  -25.9210  -31.1100   21.5590 C   0  0  0  0  0  2  0  0  0  0  0  0
  -26.0270  -29.7480   20.8970 C   0  0  0  0  0  0  0  0  0  0  0  0
  -27.2380  -29.0130   20.8840 C   0  0  0  0  0  3  0  0  0  0  0  0
  -26.1200  -27.2250   19.6690 C   0  0  0  0  0  3  0  0  0  0  0  0
  -24.9190  -27.9610   19.6740 C   0  0  0  0  0  3  0  0  0  0  0  0
  -23.6230  -30.0660   20.3490 C   0  0  0  0  0  2  0  0  0  0  0  0
  -24.6490  -31.3290   22.2940 N   0  0  0  0  0  0  0  0  0  0  0  0
  -23.4900  -32.3620   23.9480 O   0  0  0  0  0  0  0  0  0  0  0  0
  -22.7520  -29.6780   22.6780 C   0  0  0  0  0  0  0  0  0  0  0  0
  -21.4330  -29.4700   22.5280 N   0  0  0  0  0  0  0  0  0  0  0  0
  -23.4340  -29.0610   23.5000 O   0  0  0  0  0  0  0  0  0  0  0  0
  -20.9430  -30.0230   21.8390 H   0  0  0  0  0  0  0  0  0  0  0  0
  -18.0750  -28.2090   22.9680 C   0  0  0  0  0  0  0  0  0  0  0  0
  -20.6240  -28.5080   23.2770 C   0  0  0  0  0  3  0  0  0  0  0  0
  -20.7580  -27.0860   22.6840 C   0  0  0  0  0  2  0  0  0  0  0  0
  -19.6750  -26.7580   21.6510 C   0  0  0  0  0  2  0  0  0  0  0  0
  -18.2830  -26.8710   22.2790 C   0  0  0  0  0  2  0  0  0  0  0  0
  -19.1750  -28.9840   23.4230 C   0  0  0  0  0  0  0  0  0  0  0  0
  -18.9260  -30.2360   24.0260 C   0  0  0  0  0  3  0  0  0  0  0  0
  -17.6110  -30.7130   24.1820 C   0  0  0  0  0  3  0  0  0  0  0  0
  -16.5250  -29.9340   23.7450 C   0  0  0  0  0  3  0  0  0  0  0  0
  -16.7590  -28.6850   23.1430 C   0  0  0  0  0  3  0  0  0  0  0  0
  -25.8510  -32.7470   24.0460 C   0  0  0  0  0  3  0  0  0  0  0  0
  -25.5490  -34.1560   24.3310 N   0  0  0  0  0  0  0  0  0  0  0  0
  -25.9000  -35.1830   23.5450 C   0  0  0  0  0  0  0  0  0  0  0  0
  -26.5850  -35.0450   22.5280 O   0  0  0  0  0  0  0  0  0  0  0  0
  -24.9450  -34.3380   25.1190 H   0  0  0  0  0  0  0  0  0  0  0  0
  -24.1870  -36.9720   23.1120 C   0  0  0  0  0  1  0  0  0  0  0  0
  -25.4130  -36.5870   23.9530 C   0  0  0  0  0  3  0  0  0  0  0  0
  -27.5430  -37.4860   24.7830 C   0  0  0  0  0  1  0  0  0  0  0  0
  -26.4540  -37.6310   23.8220 N   0  0  0  0  0  0  0  0  0  0  0  0
  -26.0510  -38.5580   23.9370 H   0  0  0  0  0  0  0  0  0  0  0  0
  -26.3290  -32.0050   25.3530 C   0  0  1  0  0  0  0  0  0  0  0  0
  -25.2030  -31.7780   26.3880 C   0  0  0  0  0  1  0  0  0  0  0  0
  -26.9340  -30.6250   25.0050 C   0  0  0  0  0  1  0  0  0  0  0  0
  -27.4520  -32.8190   26.0390 C   0  0  0  0  0  1  0  0  0  0  0  0
  2  1  1  0
  4  3  1  0
  4  1  1  0
  4  6  1  0
  5  2  1  0
  5  3  1  0
  5 52  1  0
  7  6  1  0
  7  8  1  0
 13  8  1  1
 10  9  1  0
 11  9  1  0
 12 13  1  0
 12 10  1  0
 13 11  1  0
 14 20  1  0
 14 22  1  0
 15 20  1  0
 16 17  1  0
 16 15  1  0
 18 17  1  0
 18 27  1  0
 18 19  1  0
 20 19  1  0
 21 14  2  0
 22 13  1  0
 22 23  1  0
 24 25  2  0
 25 44  1  0
 26 25  1  0
 26 29  1  0
 27 28  1  0
 27 24  1  0
 28 26  2  0
 29 30  1  0
 30 31  2  0
 32 35  1  0
 32 31  1  0
 33 32  2  0
 34 33  1  0
 34 29  2  0
 35 36  1  0
 36 37  1  0
 37 38  2  0
 39 38  1  0
 39 43  1  0
 40 39  2  0
 41 36  2  0
 41 40  1  0
 42 41  1  0
 44 45  1  0
 45 48  1  0
 45 47  1  0
 46 44  2  0
 49 24  1  0
 49 50  1  0
 51 49  1  0
 53 52  1  0
 54 65  2  0
 55 53  1  0
 55 60  1  0
 56 64  1  0
 56 66  1  0
 57 63  1  0
 57 59  1  0
 58 64  1  0
 59 58  1  0
 60 59  2  0
 61 62  1  0
 61 55  2  0
 62 57  2  0
 63 56  1  0
 64 54  1  0
 66 68  2  0
 67 66  1  0
 69 67  1  0
 70 79  2  0
 70 75  1  0
 71 67  1  0
 71 75  1  0
 72 71  1  0
 73 74  1  0
 73 72  1  0
 74 70  1  0
 75 76  2  0
 76 77  1  0
 78 77  2  0
 79 78  1  0
 80 54  1  0
 80 81  1  0
 80 90  1  0
 81 84  1  0
 82 86  1  0
 82 81  1  0
 83 82  2  0
 86 85  1  0
 88 89  1  0
 88 86  1  0
 88 87  1  0
 90 93  1  1
 90 91  1  0
 92 90  1  0
M  ISO  4  14 100  22 100  52 101  53 101
M  END
>  <TORSDO>  (21) 
F 21

>  <SCORE>  (21) 
-12.853

>  <name>  (21) 
21

>  <ligand_id>  (21) 
21

>  <original_smiles>  (21) 
[H]c1c([H])c([H])c2c(c1[H])C([H])([H])C([H])([H])C([H])([H])C2([H])N([H])C(=O)C1([H])N(C(=O)C([H])(N([H])C(=O)C([H])(N([H])C([H])([H])[H])C([H])([H])[H])C(C([H])([H])[H])(C([H])([H])[H])C([H])([H])[H])C([H])([H])c2c([H])c(OC([H])([H])C3([H])C([H])([H])C([H])([H])C([H])(C([H])([H])C([H])([H])C([H])([H])C4(N([H])C(=O)N5C([H])([H])C([H])([H])C([H])([H])C([H])(n6nc(-c7c([H])c([H])c(Oc8c([H])c([H])c(F)c([H])c8F)c([H])c7[H])c(C(=O)N([H])[H])c6N([H])[H])C5([H])[H])C([H])([H])C([H])([H])C([H])([H])C4([H])[H])C3([H])[H])c([H])c([H])c2C1([H])[H]

>  <smiles>  (21) 
[H]c1c([H])c([H])c2c(c1[H])C([H])([H])C([H])([H])C([H])([H])C2([H])N([H])C(=O)C1([H])N(C(=O)C([H])(N([H])C(=O)C([H])(N([H])C([H])([H])[H])C([H])([H])[H])C(C([H])([H])[H])(C([H])([H])[H])C([H])([H])[H])C([H])([H])c2c([H])c(OC([H])([H])C3([H])C([H])([H])C([H])([H])C([H])(C([H])([H])C([H])([H])C([H])([H])C4(N([H])C(=O)N5C([H])([H])C([H])([H])C([H])([H])C([H])(n6nc(-c7c([H])c([H])c(Oc8c([H])c([H])c(F)c([H])c8F)c([H])c7[H])c(C(=O)N([H])[H])c6N([H])[H])C5([H])[H])C([H])([H])C([H])([H])C([H])([H])C4([H])[H])C3([H])[H])c([H])c([H])c2C1([H])[H]

$$$$
22:0:0
     RDKit          3D

 96104  0  0  1  0  0  0  0  0999 V2000
  -26.8210  -25.5380   20.9650 C   0  0  0  0  0  2  0  0  0  0  0  0
  -25.8780  -24.6840   21.8070 C   0  0  0  0  0  2  0  0  0  0  0  0
  -27.6020  -23.4350   19.8410 C   0  0  0  0  0  2  0  0  0  0  0  0
  -28.0550  -24.7250   20.5430 C   0  0  0  0  0  3  0  0  0  0  0  0
  -25.4930  -23.3460   21.1190 C   0  0  0  0  0  3  0  0  0  0  0  0
  -26.7220  -22.5900   20.6940 N   0  0  1  0  0  4  0  0  0  0  0  0
  -27.2420  -22.3950   21.5370 H   0  0  0  0  0  0  0  0  0  0  0  0
  -28.9550  -25.5200   19.5880 C   0  0  0  0  0  2  0  0  0  0  0  0
  -29.7030  -26.6930   20.2270 C   0  0  0  0  0  2  0  0  0  0  0  0
  -29.3850  -27.8510   19.4700 O   0  0  0  0  0  0  0  0  0  0  0  0
  -24.8070  -30.9490   23.9030 C   0  0  0  0  0  0  0  0  0  0  0  0
  -28.1020  -28.2780   19.6720 C   0  0  0  0  0  0  0  0  0  0  0  0
  -23.8140  -29.9190   21.8800 C   0  0  0  0  0  3  0  0  0  0  0  0
  -25.4710  -29.1820   20.0920 C   0  0  0  0  0  0  0  0  0  0  0  0
  -26.2140  -30.7900   21.8610 C   0  0  0  0  0  2  0  0  0  0  0  0
  -26.5240  -29.7180   20.8440 C   0  0  0  0  0  0  0  0  0  0  0  0
  -27.8410  -29.2660   20.6420 C   0  0  0  0  0  3  0  0  0  0  0  0
  -27.0390  -27.7480   18.9110 C   0  0  0  0  0  3  0  0  0  0  0  0
  -25.7210  -28.1900   19.1250 C   0  0  0  0  0  3  0  0  0  0  0  0
  -24.0930  -29.7360   20.3630 C   0  0  0  0  0  2  0  0  0  0  0  0
  -24.9630  -30.5510   22.6100 N   0  0  0  0  0  0  0  0  0  0  0  0
  -23.7160  -30.8440   24.4750 O   0  0  0  0  0  0  0  0  0  0  0  0
  -23.3910  -28.5570   22.4700 C   0  0  0  0  0  0  0  0  0  0  0  0
  -22.2270  -28.0550   22.0330 N   0  0  0  0  0  0  0  0  0  0  0  0
  -24.1130  -27.9660   23.2780 O   0  0  0  0  0  0  0  0  0  0  0  0
  -21.6900  -28.6090   21.3810 H   0  0  0  0  0  0  0  0  0  0  0  0
  -19.4620  -25.8170   21.4170 C   0  0  0  0  0  0  0  0  0  0  0  0
  -21.6450  -26.7690   22.4160 C   0  0  0  0  0  3  0  0  0  0  0  0
  -22.3620  -25.5990   21.7020 C   0  0  0  0  0  2  0  0  0  0  0  0
  -21.6890  -25.1890   20.3880 C   0  0  0  0  0  2  0  0  0  0  0  0
  -20.2400  -24.7660   20.6430 C   0  0  0  0  0  2  0  0  0  0  0  0
  -20.1240  -26.7680   22.2380 C   0  0  0  0  0  0  0  0  0  0  0  0
  -19.3560  -27.7470   22.9080 C   0  0  0  0  0  3  0  0  0  0  0  0
  -17.9560  -27.7810   22.7740 C   0  0  0  0  0  3  0  0  0  0  0  0
  -17.3040  -26.8250   21.9740 C   0  0  0  0  0  3  0  0  0  0  0  0
  -18.0570  -25.8480   21.3000 C   0  0  0  0  0  3  0  0  0  0  0  0
  -25.9850  -31.5810   24.7150 C   0  0  0  0  0  3  0  0  0  0  0  0
  -26.3320  -30.7830   26.0310 C   0  0  1  0  0  0  0  0  0  0  0  0
  -25.0900  -30.3870   26.8600 C   0  0  0  0  0  1  0  0  0  0  0  0
  -27.1070  -29.4860   25.6960 C   0  0  0  0  0  1  0  0  0  0  0  0
  -27.2590  -31.6300   26.9320 C   0  0  0  0  0  1  0  0  0  0  0  0
  -25.6160  -32.9690   25.0250 N   0  0  0  0  0  0  0  0  0  0  0  0
  -26.0620  -34.0410   24.3560 C   0  0  0  0  0  0  0  0  0  0  0  0
  -26.8940  -33.9670   23.4460 O   0  0  0  0  0  0  0  0  0  0  0  0
  -24.8990  -33.1030   25.7200 H   0  0  0  0  0  0  0  0  0  0  0  0
  -24.4140  -35.8380   23.7460 C   0  0  0  0  0  1  0  0  0  0  0  0
  -25.4940  -35.4170   24.7560 C   0  0  0  0  0  3  0  0  0  0  0  0
  -27.4660  -36.2560   25.9550 C   0  0  0  0  0  1  0  0  0  0  0  0
  -26.5270  -36.4720   24.8570 N   0  0  0  0  0  0  0  0  0  0  0  0
  -26.0970  -37.3860   24.9840 H   0  0  0  0  0  0  0  0  0  0  0  0
  -24.5560  -22.5220   22.0460 C   0  0  0  0  0  2  0  0  0  0  0  0
  -22.5870  -22.4770   23.6820 C   0  0  0  0  0  1  0  0  0  0  0  0
  -23.5070  -23.3490   22.8180 C   0  0  0  0  0  2  0  0  0  0  0  0
  -26.4490  -21.2560   20.0670 C   0  0  0  0  0  2  0  0  0  0  0  0
  -27.6850  -20.5770   19.4210 C   0  0  0  0  0  2  0  0  0  0  0  0
  -27.8300  -19.0750   19.7420 C   0  0  0  0  0  2  0  0  0  0  0  0
  -29.1630  -18.5030   19.2170 C   0  0  0  0  0  2  0  0  0  0  0  0
  -29.9260  -17.6050   20.2130 C   0  0  0  0  0  2  0  0  0  0  0  0
  -30.2120  -15.2130   19.5520 C   0  0  0  0  0  0  0  0  0  0  0  0
  -30.3900  -12.7780   19.1720 C   0  0  0  0  0  2  0  0  0  0  0  0
  -29.4020  -12.2980   18.0890 C   0  0  0  0  0  2  0  0  0  0  0  0
  -28.0120  -12.0100   18.6910 C   0  0  0  0  0  2  0  0  0  0  0  0
  -27.5080  -13.1560   19.6060 C   0  0  0  0  0  3  0  0  0  0  0  0
  -28.6040  -13.5800   20.6090 C   0  0  0  0  0  2  0  0  0  0  0  0
  -29.8050  -13.9500   19.8390 N   0  0  0  0  0  0  0  0  0  0  0  0
  -31.1550  -15.4590   18.7920 O   0  0  0  0  0  0  0  0  0  0  0  0
  -29.5330  -16.1940   20.1680 N   0  0  0  0  0  0  0  0  0  0  0  0
  -28.7560  -15.9080   20.7460 H   0  0  0  0  0  0  0  0  0  0  0  0
  -25.3980  -13.5830   21.0160 C   0  0  0  0  0  0  0  0  0  0  0  0
  -24.3540  -12.7710   21.3720 C   0  0  0  0  0  0  0  0  0  0  0  0
  -24.6460  -11.4890   20.8140 C   0  0  0  0  0  0  0  0  0  0  0  0
  -26.2660  -12.7880   20.2840 N   0  0  0  0  0  0  0  0  0  0  0  0
  -25.8270  -11.5060   20.2100 N   0  0  0  0  0  0  0  0  0  0  0  0
  -23.8430  -10.2610   20.7700 C   0  0  0  0  0  0  0  0  0  0  0  0
  -24.3750   -9.0220   21.1890 C   0  0  0  0  0  3  0  0  0  0  0  0
  -23.5830   -7.8530   21.1520 C   0  0  0  0  0  3  0  0  0  0  0  0
  -22.2440   -7.9190   20.6970 C   0  0  0  0  0  0  0  0  0  0  0  0
  -21.7290   -9.1500   20.2580 C   0  0  0  0  0  3  0  0  0  0  0  0
  -22.5180  -10.3110   20.2910 C   0  0  0  0  0  3  0  0  0  0  0  0
  -21.4060   -6.8330   20.6050 O   0  0  0  0  0  0  0  0  0  0  0  0
  -21.5570   -5.7360   21.4140 C   0  0  0  0  0  0  0  0  0  0  0  0
  -21.5060   -5.8340   22.8220 C   0  0  0  0  0  3  0  0  0  0  0  0
  -21.6020   -4.6710   23.6120 C   0  0  0  0  0  3  0  0  0  0  0  0
  -21.7310   -3.4100   22.9980 C   0  0  0  0  0  0  0  0  0  0  0  0
  -21.7710   -3.3100   21.5960 C   0  0  0  0  0  3  0  0  0  0  0  0
  -21.6820   -4.4700   20.8070 C   0  0  0  0  0  0  0  0  0  0  0  0
  -21.7050   -4.3650   19.4570 F   0  0  0  0  0  0  0  0  0  0  0  0
  -21.8110   -2.2930   23.7570 F   0  0  0  0  0  0  0  0  0  0  0  0
  -23.1080  -13.1820   22.1060 C   0  0  0  0  0  0  0  0  0  0  0  0
  -22.5300  -12.2740   22.8860 N   0  0  0  0  0  0  0  0  0  0  0  0
  -22.6670  -14.3270   22.0260 O   0  0  0  0  0  0  0  0  0  0  0  0
  -22.9040  -11.3410   22.9710 H   0  0  0  0  0  0  0  0  0  0  0  0
  -21.6980  -12.5160   23.4060 H   0  0  0  0  0  0  0  0  0  0  0  0
  -25.6690  -14.9290   21.2350 N   0  0  0  0  0  0  0  0  0  0  0  0
  -25.0200  -15.5410   21.7160 H   0  0  0  0  0  0  0  0  0  0  0  0
  -26.4710  -15.4200   20.8600 H   0  0  0  0  0  0  0  0  0  0  0  0
  1  2  1  0
  3  4  1  0
  3  6  1  0
  4  8  1  0
  4  1  1  0
  5  2  1  0
  5 51  1  0
  6  5  1  0
  6  7  1  1
  8  9  1  0
 10 12  1  0
 10  9  1  0
 11 22  2  0
 12 17  1  0
 13 23  1  0
 13 21  1  0
 14 20  1  0
 14 16  1  0
 15 21  1  0
 16 15  1  0
 17 16  2  0
 18 19  1  0
 18 12  2  0
 19 14  2  0
 20 13  1  0
 21 11  1  0
 23 25  2  0
 24 23  1  0
 26 24  1  0
 27 32  1  0
 28 24  1  0
 29 28  1  0
 30 31  1  0
 30 29  1  0
 31 27  1  0
 32 28  1  0
 32 33  2  0
 34 33  1  0
 35 34  2  0
 36 27  2  0
 36 35  1  0
 37 11  1  0
 37 42  1  0
 37 38  1  0
 38 39  1  1
 38 41  1  0
 40 38  1  0
 42 45  1  0
 43 47  1  0
 43 42  1  0
 44 43  2  0
 47 46  1  0
 47 49  1  0
 49 50  1  0
 49 48  1  0
 51 53  1  0
 53 52  1  0
 54  6  1  0
 55 56  1  0
 55 54  1  0
 57 56  1  0
 57 58  1  0
 59 65  1  0
 59 67  1  0
 60 65  1  0
 61 62  1  0
 61 60  1  0
 63 62  1  0
 63 72  1  0
 63 64  1  0
 65 64  1  0
 66 59  2  0
 67 58  1  0
 67 68  1  0
 69 94  1  0
 69 70  2  0
 70 89  1  0
 71 70  1  0
 72 69  1  0
 73 72  1  0
 73 71  2  0
 74 71  1  0
 74 75  1  0
 76 75  2  0
 77 76  1  0
 78 79  1  0
 78 77  2  0
 79 74  2  0
 80 77  1  0
 80 81  1  0
 81 82  1  0
 82 83  2  0
 84 83  1  0
 84 88  1  0
 85 84  2  0
 86 81  2  0
 86 85  1  0
 87 86  1  0
 89 90  1  0
 90 92  1  0
 90 93  1  0
 91 89  2  0
 94 95  1  0
 96 94  1  0
M  ISO  4   9 101  10 101  59 100  67 100
M  END
>  <TORSDO>  (22) 
F 25

>  <SCORE>  (22) 
-0.297

>  <name>  (22) 
22

>  <ligand_id>  (22) 
22

>  <original_smiles>  (22) 
[H]c1c([H])c([H])c2c(c1[H])C([H])([H])C([H])([H])C([H])([H])C2([H])N([H])C(=O)C1([H])N(C(=O)C([H])(N([H])C(=O)C([H])(N([H])C([H])([H])[H])C([H])([H])[H])C(C([H])([H])[H])(C([H])([H])[H])C([H])([H])[H])C([H])([H])c2c([H])c(OC([H])([H])C([H])([H])C3([H])C([H])([H])C([H])([H])C([H])(C([H])([H])C([H])([H])C([H])([H])[H])[N+]([H])(C([H])([H])C([H])([H])C([H])([H])C([H])([H])C([H])([H])N([H])C(=O)N4C([H])([H])C([H])([H])C([H])([H])C([H])(n5nc(-c6c([H])c([H])c(Oc7c([H])c([H])c(F)c([H])c7F)c([H])c6[H])c(C(=O)N([H])[H])c5N([H])[H])C4([H])[H])C3([H])[H])c([H])c([H])c2C1([H])[H]

>  <smiles>  (22) 
[H]c1c([H])c([H])c2c(c1[H])C([H])([H])C([H])([H])C([H])([H])C2([H])N([H])C(=O)C1([H])N(C(=O)C([H])(N([H])C(=O)C([H])(N([H])C([H])([H])[H])C([H])([H])[H])C(C([H])([H])[H])(C([H])([H])[H])C([H])([H])[H])C([H])([H])c2c([H])c(OC([H])([H])C([H])([H])C3([H])C([H])([H])C([H])([H])C([H])(C([H])([H])C([H])([H])C([H])([H])[H])[N+]([H])(C([H])([H])C([H])([H])C([H])([H])C([H])([H])C([H])([H])N([H])C(=O)N4C([H])([H])C([H])([H])C([H])([H])C([H])(n5nc(-c6c([H])c([H])c(Oc7c([H])c([H])c(F)c([H])c7F)c([H])c6[H])c(C(=O)N([H])[H])c5N([H])[H])C4([H])[H])C3([H])[H])c([H])c([H])c2C1([H])[H]

$$$$
23:0:0
     RDKit          3D

 96104  0  0  1  0  0  0  0  0999 V2000
  -29.9620  -21.8240   19.1980 C   0  0  0  0  0  2  0  0  0  0  0  0
  -27.5770  -21.0960   18.8060 C   0  0  0  0  0  2  0  0  0  0  0  0
  -30.1970  -20.5480   20.0340 C   0  0  0  0  0  2  0  0  0  0  0  0
  -27.8350  -19.8310   19.6460 C   0  0  0  0  0  2  0  0  0  0  0  0
  -28.4880  -22.2740   19.2050 C   0  0  0  0  0  3  0  0  0  0  0  0
  -29.3090  -19.3440   19.6220 C   0  0  2  0  0  0  0  0  0  0  0  0
  -28.2270  -23.4760   18.2640 C   0  0  0  0  0  2  0  0  0  0  0  0
  -28.8940  -24.8270   18.6340 C   0  0  0  0  0  3  0  0  0  0  0  0
  -29.7880  -26.9280   17.3980 C   0  0  0  0  0  1  0  0  0  0  0  0
  -28.7170  -25.8270   17.4630 C   0  0  0  0  0  2  0  0  0  0  0  0
  -28.3790  -25.3370   20.0090 C   0  0  0  0  0  2  0  0  0  0  0  0
  -28.4040  -26.7590   20.1780 O   0  0  0  0  0  0  0  0  0  0  0  0
  -24.5700  -31.9010   23.2340 C   0  0  0  0  0  0  0  0  0  0  0  0
  -27.2100  -27.4520   20.1630 C   0  0  0  0  0  0  0  0  0  0  0  0
  -23.3620  -30.4980   21.5950 C   0  0  0  0  0  3  0  0  0  0  0  0
  -24.8110  -28.9560   20.1760 C   0  0  0  0  0  0  0  0  0  0  0  0
  -25.8880  -30.8530   21.3980 C   0  0  0  0  0  2  0  0  0  0  0  0
  -25.9700  -29.4820   20.7610 C   0  0  0  0  0  0  0  0  0  0  0  0
  -27.1710  -28.7370   20.7480 C   0  0  0  0  0  3  0  0  0  0  0  0
  -26.0270  -26.9400   19.5750 C   0  0  0  0  0  3  0  0  0  0  0  0
  -24.8340  -27.6830   19.5830 C   0  0  0  0  0  3  0  0  0  0  0  0
  -23.5700  -29.8160   20.2170 C   0  0  0  0  0  2  0  0  0  0  0  0
  -24.6260  -31.0990   22.1350 N   0  0  0  0  0  0  0  0  0  0  0  0
  -23.4890  -32.1760   23.7730 O   0  0  0  0  0  0  0  0  0  0  0  0
  -22.7090  -29.4790   22.5560 C   0  0  0  0  0  0  0  0  0  0  0  0
  -21.3850  -29.2990   22.4250 N   0  0  0  0  0  0  0  0  0  0  0  0
  -23.3900  -28.8540   23.3730 O   0  0  0  0  0  0  0  0  0  0  0  0
  -20.8970  -29.8560   21.7360 H   0  0  0  0  0  0  0  0  0  0  0  0
  -18.0050  -28.1240   22.9220 C   0  0  0  0  0  0  0  0  0  0  0  0
  -20.5630  -28.3670   23.1960 C   0  0  0  0  0  3  0  0  0  0  0  0
  -20.6580  -26.9350   22.6190 C   0  0  0  0  0  2  0  0  0  0  0  0
  -19.5540  -26.6190   21.6030 C   0  0  0  0  0  2  0  0  0  0  0  0
  -18.1730  -26.7730   22.2470 C   0  0  0  0  0  2  0  0  0  0  0  0
  -19.1280  -28.8790   23.3520 C   0  0  0  0  0  0  0  0  0  0  0  0
  -18.9170  -30.1450   23.9410 C   0  0  0  0  0  3  0  0  0  0  0  0
  -17.6150  -30.6550   24.1050 C   0  0  0  0  0  3  0  0  0  0  0  0
  -16.5060  -29.8980   23.6900 C   0  0  0  0  0  3  0  0  0  0  0  0
  -16.7020  -28.6340   23.1050 C   0  0  0  0  0  3  0  0  0  0  0  0
  -25.8580  -32.5280   23.8540 C   0  0  0  0  0  3  0  0  0  0  0  0
  -26.3750  -31.7560   25.1300 C   0  0  1  0  0  0  0  0  0  0  0  0
  -25.2830  -31.5190   26.1980 C   0  0  0  0  0  1  0  0  0  0  0  0
  -26.9540  -30.3780   24.7340 C   0  0  0  0  0  1  0  0  0  0  0  0
  -27.5280  -32.5470   25.7910 C   0  0  0  0  0  1  0  0  0  0  0  0
  -25.5540  -33.9270   24.1810 N   0  0  0  0  0  0  0  0  0  0  0  0
  -25.8950  -34.9770   23.4220 C   0  0  0  0  0  0  0  0  0  0  0  0
  -26.5720  -34.8690   22.3950 O   0  0  0  0  0  0  0  0  0  0  0  0
  -24.9550  -34.0860   24.9780 H   0  0  0  0  0  0  0  0  0  0  0  0
  -24.1780  -36.7750   23.0470 C   0  0  0  0  0  1  0  0  0  0  0  0
  -25.4090  -36.3670   23.8720 C   0  0  0  0  0  3  0  0  0  0  0  0
  -27.5400  -37.2400   24.7220 C   0  0  0  0  0  1  0  0  0  0  0  0
  -26.4460  -37.4170   23.7700 N   0  0  0  0  0  0  0  0  0  0  0  0
  -26.0430  -38.3380   23.9180 H   0  0  0  0  0  0  0  0  0  0  0  0
  -29.4490  -18.1900   20.6660 C   0  0  0  0  0  2  0  0  0  0  0  0
  -30.8670  -17.6080   20.8590 C   0  0  0  0  0  2  0  0  0  0  0  0
  -30.9320  -16.4230   21.8460 C   0  0  0  0  0  2  0  0  0  0  0  0
  -30.7520  -14.3630   20.4500 C   0  0  0  0  0  0  0  0  0  0  0  0
  -30.3560  -12.2920   19.1680 C   0  0  0  0  0  2  0  0  0  0  0  0
  -29.4090  -12.5520   17.9820 C   0  0  0  0  0  2  0  0  0  0  0  0
  -27.9380  -12.4270   18.4220 C   0  0  0  0  0  2  0  0  0  0  0  0
  -27.6280  -13.2410   19.7060 C   0  0  0  0  0  3  0  0  0  0  0  0
  -28.6810  -12.9600   20.8000 C   0  0  0  0  0  2  0  0  0  0  0  0
  -30.0170  -13.2410   20.2390 N   0  0  0  0  0  0  0  0  0  0  0  0
  -31.8040  -14.6040   19.8500 O   0  0  0  0  0  0  0  0  0  0  0  0
  -30.2620  -15.2160   21.3610 N   0  0  0  0  0  0  0  0  0  0  0  0
  -29.3990  -14.9510   21.8110 H   0  0  0  0  0  0  0  0  0  0  0  0
  -25.2310  -13.8740   20.4010 C   0  0  0  0  0  0  0  0  0  0  0  0
  -24.1570  -13.1140   20.7790 C   0  0  0  0  0  0  0  0  0  0  0  0
  -24.6090  -11.7590   20.7650 C   0  0  0  0  0  0  0  0  0  0  0  0
  -26.2710  -12.9840   20.1840 N   0  0  0  0  0  0  0  0  0  0  0  0
  -25.8990  -11.7070   20.4570 N   0  0  0  0  0  0  0  0  0  0  0  0
  -23.8750  -10.5030   20.9700 C   0  0  0  0  0  0  0  0  0  0  0  0
  -24.3050   -9.5420   21.9110 C   0  0  0  0  0  3  0  0  0  0  0  0
  -23.5720   -8.3520   22.1030 C   0  0  0  0  0  3  0  0  0  0  0  0
  -22.3950   -8.1140   21.3540 C   0  0  0  0  0  0  0  0  0  0  0  0
  -21.9850   -9.0630   20.4040 C   0  0  0  0  0  3  0  0  0  0  0  0
  -22.7180  -10.2460   20.2090 C   0  0  0  0  0  3  0  0  0  0  0  0
  -21.6340   -6.9750   21.4560 O   0  0  0  0  0  0  0  0  0  0  0  0
  -21.5880   -6.2400   22.6130 C   0  0  0  0  0  0  0  0  0  0  0  0
  -21.1830   -6.8070   23.8410 C   0  0  0  0  0  3  0  0  0  0  0  0
  -21.0850   -5.9980   24.9910 C   0  0  0  0  0  3  0  0  0  0  0  0
  -21.3810   -4.6250   24.9150 C   0  0  0  0  0  0  0  0  0  0  0  0
  -21.7780   -4.0570   23.6920 C   0  0  0  0  0  3  0  0  0  0  0  0
  -21.8790   -4.8610   22.5440 C   0  0  0  0  0  0  0  0  0  0  0  0
  -22.2420   -4.3060   21.3630 F   0  0  0  0  0  0  0  0  0  0  0  0
  -21.2780   -3.8460   26.0180 F   0  0  0  0  0  0  0  0  0  0  0  0
  -22.7630  -13.6030   21.0460 C   0  0  0  0  0  0  0  0  0  0  0  0
  -22.0320  -12.9210   21.9210 N   0  0  0  0  0  0  0  0  0  0  0  0
  -22.3310  -14.6260   20.5150 O   0  0  0  0  0  0  0  0  0  0  0  0
  -22.3930  -12.0950   22.3710 H   0  0  0  0  0  0  0  0  0  0  0  0
  -21.0960  -13.2320   22.1420 H   0  0  0  0  0  0  0  0  0  0  0  0
  -25.4050  -15.2420   20.2070 N   0  0  0  0  0  0  0  0  0  0  0  0
  -24.6440  -15.9040   20.3050 H   0  0  0  0  0  0  0  0  0  0  0  0
  -26.2620  -15.6690   19.8780 H   0  0  0  0  0  0  0  0  0  0  0  0
  -29.7100  -18.8470   18.2010 C   0  0  0  0  0  2  0  0  0  0  0  0
  -28.9710  -17.7050   17.8090 O   0  0  0  0  0  0  0  0  0  0  0  0
  -29.1310  -17.0310   18.4600 H   0  0  0  0  0  0  0  0  0  0  0  0
  1  5  1  0
  1  3  1  0
  2  5  1  0
  2  4  1  0
  5  7  1  0
  6 94  1  6
  6  4  1  0
  6  3  1  0
  6 53  1  0
  7  8  1  0
  8 10  1  0
  8 11  1  0
  9 10  1  0
 11 12  1  0
 13 24  2  0
 14 12  1  0
 14 19  1  0
 15 23  1  0
 15 25  1  0
 16 22  1  0
 16 18  1  0
 17 23  1  0
 18 17  1  0
 19 18  2  0
 20 21  1  0
 20 14  2  0
 21 16  2  0
 22 15  1  0
 23 13  1  0
 25 27  2  0
 26 25  1  0
 28 26  1  0
 29 38  2  0
 29 34  1  0
 30 26  1  0
 30 34  1  0
 31 30  1  0
 32 33  1  0
 32 31  1  0
 33 29  1  0
 34 35  2  0
 35 36  1  0
 37 36  2  0
 38 37  1  0
 39 13  1  0
 39 44  1  0
 39 40  1  0
 40 43  1  1
 40 41  1  0
 42 40  1  0
 44 47  1  0
 45 49  1  0
 45 44  1  0
 46 45  2  0
 49 48  1  0
 51 49  1  0
 51 52  1  0
 51 50  1  0
 53 54  1  0
 54 55  1  0
 56 64  1  0
 57 62  1  0
 58 59  1  0
 58 57  1  0
 60 59  1  0
 60 69  1  0
 60 61  1  0
 62 56  1  0
 62 61  1  0
 63 56  2  0
 64 65  1  0
 64 55  1  0
 66 67  2  0
 67 86  1  0
 68 67  1  0
 68 71  1  0
 69 66  1  0
 69 70  1  0
 70 68  2  0
 71 72  1  0
 72 73  2  0
 74 77  1  0
 74 73  1  0
 75 74  2  0
 76 75  1  0
 76 71  2  0
 77 78  1  0
 78 79  1  0
 79 80  2  0
 81 80  1  0
 81 85  1  0
 82 81  2  0
 83 78  2  0
 83 82  1  0
 84 83  1  0
 86 87  1  0
 87 90  1  0
 87 89  1  0
 88 86  2  0
 91 92  1  0
 91 66  1  0
 93 91  1  0
 95 94  1  0
 95 96  1  0
M  ISO  4  11 101  12 101  56 100  64 100
M  END
>  <TORSDO>  (23) 
F 25

>  <SCORE>  (23) 
-12.779

>  <name>  (23) 
23

>  <ligand_id>  (23) 
23

>  <original_smiles>  (23) 
[H]OC([H])([H])C1(C([H])([H])C([H])([H])C([H])([H])N([H])C(=O)N2C([H])([H])C([H])([H])C([H])([H])C([H])(n3nc(-c4c([H])c([H])c(Oc5c([H])c([H])c(F)c([H])c5F)c([H])c4[H])c(C(=O)N([H])[H])c3N([H])[H])C2([H])[H])C([H])([H])C([H])([H])C([H])(C([H])([H])C([H])(C([H])([H])Oc2c([H])c([H])c3c(c2[H])C([H])([H])N(C(=O)C([H])(N([H])C(=O)C([H])(N([H])C([H])([H])[H])C([H])([H])[H])C(C([H])([H])[H])(C([H])([H])[H])C([H])([H])[H])C([H])(C(=O)N([H])C2([H])c4c([H])c([H])c([H])c([H])c4C([H])([H])C([H])([H])C2([H])[H])C3([H])[H])C([H])([H])C([H])([H])[H])C([H])([H])C1([H])[H]

>  <smiles>  (23) 
[H]OC([H])([H])C1(C([H])([H])C([H])([H])C([H])([H])N([H])C(=O)N2C([H])([H])C([H])([H])C([H])([H])C([H])(n3nc(-c4c([H])c([H])c(Oc5c([H])c([H])c(F)c([H])c5F)c([H])c4[H])c(C(=O)N([H])[H])c3N([H])[H])C2([H])[H])C([H])([H])C([H])([H])C([H])(C([H])([H])C([H])(C([H])([H])Oc2c([H])c([H])c3c(c2[H])C([H])([H])N(C(=O)C([H])(N([H])C(=O)C([H])(N([H])C([H])([H])[H])C([H])([H])[H])C(C([H])([H])[H])(C([H])([H])[H])C([H])([H])[H])C([H])(C(=O)N([H])C2([H])c4c([H])c([H])c([H])c([H])c4C([H])([H])C([H])([H])C2([H])[H])C3([H])[H])C([H])([H])C([H])([H])[H])C([H])([H])C1([H])[H]

$$$$
24:0:0
     RDKit          3D

 92101  0  0  1  0  0  0  0  0999 V2000
  -29.5740  -20.8480   21.4910 C   0  0  0  0  0  2  0  0  0  0  0  0
  -30.0300  -21.5380   19.5690 C   0  0  0  0  0  2  0  0  0  0  0  0
  -27.4530  -21.0820   19.9330 C   0  0  0  0  0  2  0  0  0  0  0  0
  -28.8610  -19.2450   19.5650 C   0  0  0  0  0  2  0  0  0  0  0  0
  -30.8970  -21.0910   20.7530 C   0  0  0  0  0  3  0  0  0  0  0  0
  -27.1020  -20.8020   18.4660 C   0  0  0  0  0  3  0  0  0  0  0  0
  -28.0270  -19.2660   18.2850 C   0  0  0  0  0  3  0  0  0  0  0  0
  -28.9010  -20.6490   20.1260 C   0  0  2  0  0  0  0  0  0  0  0  0
  -33.2570  -21.9860   20.5700 C   0  0  0  0  0  1  0  0  0  0  0  0
  -31.9280  -22.0450   21.3300 C   0  0  0  0  0  2  0  0  0  0  0  0
  -27.1700  -22.4380   17.7410 C   0  0  0  0  0  2  0  0  0  0  0  0
  -26.6270  -24.0400   18.3320 C   0  0  0  0  0  2  0  0  0  0  0  0
  -27.2060  -25.5670   18.2740 O   0  0  0  0  0  0  0  0  0  0  0  0
  -26.2480  -30.1510   24.1690 C   0  0  0  0  0  0  0  0  0  0  0  0
  -26.6180  -26.7720   18.9120 C   0  0  0  0  0  0  0  0  0  0  0  0
  -24.4770  -30.0530   22.4590 C   0  0  0  0  0  3  0  0  0  0  0  0
  -25.1160  -28.9670   20.2040 C   0  0  0  0  0  0  0  0  0  0  0  0
  -26.9260  -29.6190   21.7770 C   0  0  0  0  0  2  0  0  0  0  0  0
  -26.4300  -28.7170   20.6150 C   0  0  0  0  0  0  0  0  0  0  0  0
  -27.1830  -27.6490   19.9590 C   0  0  0  0  0  3  0  0  0  0  0  0
  -25.3190  -27.1680   18.5280 C   0  0  0  0  0  3  0  0  0  0  0  0
  -24.5830  -28.2080   19.1510 C   0  0  0  0  0  3  0  0  0  0  0  0
  -24.3100  -30.0510   20.9160 C   0  0  0  0  0  2  0  0  0  0  0  0
  -25.9190  -29.9310   22.8550 N   0  0  0  0  0  0  0  0  0  0  0  0
  -25.3910  -30.4540   25.0130 O   0  0  0  0  0  0  0  0  0  0  0  0
  -23.5760  -28.9560   23.0820 C   0  0  0  0  0  0  0  0  0  0  0  0
  -22.2500  -29.0560   22.8830 N   0  0  0  0  0  0  0  0  0  0  0  0
  -24.0800  -28.0230   23.7130 O   0  0  0  0  0  0  0  0  0  0  0  0
  -21.9090  -29.8580   22.3710 H   0  0  0  0  0  0  0  0  0  0  0  0
  -18.7660  -28.0900   22.5780 C   0  0  0  0  0  0  0  0  0  0  0  0
  -21.2420  -28.0880   23.3290 C   0  0  0  0  0  3  0  0  0  0  0  0
  -21.3650  -26.7550   22.5530 C   0  0  0  0  0  2  0  0  0  0  0  0
  -20.4580  -26.6860   21.3220 C   0  0  0  0  0  2  0  0  0  0  0  0
  -18.9900  -26.8490   21.7280 C   0  0  0  0  0  2  0  0  0  0  0  0
  -19.8270  -28.6790   23.3180 C   0  0  0  0  0  0  0  0  0  0  0  0
  -19.5740  -29.8470   24.0700 C   0  0  0  0  0  3  0  0  0  0  0  0
  -18.2900  -30.4230   24.0940 C   0  0  0  0  0  3  0  0  0  0  0  0
  -17.2390  -29.8260   23.3740 C   0  0  0  0  0  3  0  0  0  0  0  0
  -17.4770  -28.6630   22.6200 C   0  0  0  0  0  3  0  0  0  0  0  0
  -27.7220  -30.0540   24.6700 C   0  0  0  0  0  3  0  0  0  0  0  0
  -28.0600  -28.6620   25.3390 C   0  0  1  0  0  0  0  0  0  0  0  0
  -27.0570  -28.2380   26.4380 C   0  0  0  0  0  1  0  0  0  0  0  0
  -28.0940  -27.5350   24.2810 C   0  0  0  0  0  1  0  0  0  0  0  0
  -29.4710  -28.7130   25.9700 C   0  0  0  0  0  1  0  0  0  0  0  0
  -27.9460  -31.1460   25.6350 N   0  0  0  0  0  0  0  0  0  0  0  0
  -28.5950  -32.2870   25.3670 C   0  0  0  0  0  0  0  0  0  0  0  0
  -29.1290  -32.5070   24.2760 O   0  0  0  0  0  0  0  0  0  0  0  0
  -27.4910  -31.0590   26.5310 H   0  0  0  0  0  0  0  0  0  0  0  0
  -27.6300  -34.4550   26.2170 C   0  0  0  0  0  1  0  0  0  0  0  0
  -28.6660  -33.3510   26.4820 C   0  0  0  0  0  3  0  0  0  0  0  0
  -31.0020  -33.0440   27.1820 C   0  0  0  0  0  1  0  0  0  0  0  0
  -30.0060  -33.9610   26.6330 N   0  0  0  0  0  0  0  0  0  0  0  0
  -29.9630  -34.7810   27.2320 H   0  0  0  0  0  0  0  0  0  0  0  0
  -27.6410  -17.5450   18.0990 C   0  0  0  0  0  2  0  0  0  0  0  0
  -28.9740  -15.2470   19.3160 C   0  0  0  0  0  0  0  0  0  0  0  0
  -29.5030  -12.7240   19.2420 C   0  0  0  0  0  2  0  0  0  0  0  0
  -28.6160  -12.0010   18.1950 C   0  0  0  0  0  2  0  0  0  0  0  0
  -27.2780  -11.5720   18.8220 C   0  0  0  0  0  2  0  0  0  0  0  0
  -26.6480  -12.7030   19.6760 C   0  0  0  0  0  3  0  0  0  0  0  0
  -27.6690  -13.3910   20.6120 C   0  0  0  0  0  2  0  0  0  0  0  0
  -28.7420  -13.9190   19.7550 N   0  0  0  0  0  0  0  0  0  0  0  0
  -30.1360  -15.4570   18.9520 O   0  0  0  0  0  0  0  0  0  0  0  0
  -27.9230  -16.2430   19.0830 N   0  0  0  0  0  0  0  0  0  0  0  0
  -27.0570  -15.9080   19.4800 H   0  0  0  0  0  0  0  0  0  0  0  0
  -24.4160  -13.0450   20.8660 C   0  0  0  0  0  0  0  0  0  0  0  0
  -23.4720  -12.1730   21.3300 C   0  0  0  0  0  0  0  0  0  0  0  0
  -23.9890  -10.8630   21.0910 C   0  0  0  0  0  0  0  0  0  0  0  0
  -25.4460  -12.2620   20.3740 N   0  0  0  0  0  0  0  0  0  0  0  0
  -25.2110  -10.9390   20.5720 N   0  0  0  0  0  0  0  0  0  0  0  0
  -23.3660   -9.5450   21.2770 C   0  0  0  0  0  0  0  0  0  0  0  0
  -23.6360   -8.7540   22.4150 C   0  0  0  0  0  3  0  0  0  0  0  0
  -23.0050   -7.5020   22.5820 C   0  0  0  0  0  3  0  0  0  0  0  0
  -22.0930   -7.0290   21.6100 C   0  0  0  0  0  0  0  0  0  0  0  0
  -21.8440   -7.8120   20.4690 C   0  0  0  0  0  3  0  0  0  0  0  0
  -22.4740   -9.0560   20.3010 C   0  0  0  0  0  3  0  0  0  0  0  0
  -21.4570   -5.8140   21.6740 O   0  0  0  0  0  0  0  0  0  0  0  0
  -20.7700   -5.4200   22.7950 C   0  0  0  0  0  0  0  0  0  0  0  0
  -19.6280   -6.1130   23.2490 C   0  0  0  0  0  3  0  0  0  0  0  0
  -18.9130   -5.6350   24.3650 C   0  0  0  0  0  3  0  0  0  0  0  0
  -19.3290   -4.4600   25.0190 C   0  0  0  0  0  0  0  0  0  0  0  0
  -20.4610   -3.7640   24.5620 C   0  0  0  0  0  3  0  0  0  0  0  0
  -21.1790   -4.2420   23.4500 C   0  0  0  0  0  0  0  0  0  0  0  0
  -22.2570   -3.5550   23.0010 F   0  0  0  0  0  0  0  0  0  0  0  0
  -18.6370   -3.9970   26.0890 F   0  0  0  0  0  0  0  0  0  0  0  0
  -22.1180  -12.5380   21.8710 C   0  0  0  0  0  0  0  0  0  0  0  0
  -21.5890  -11.7330   22.7840 N   0  0  0  0  0  0  0  0  0  0  0  0
  -21.5430  -13.5680   21.5180 O   0  0  0  0  0  0  0  0  0  0  0  0
  -22.0680  -10.8960   23.0850 H   0  0  0  0  0  0  0  0  0  0  0  0
  -20.6900  -11.9520   23.1900 H   0  0  0  0  0  0  0  0  0  0  0  0
  -24.4740  -14.4320   20.7900 N   0  0  0  0  0  0  0  0  0  0  0  0
  -23.6910  -15.0150   21.0660 H   0  0  0  0  0  0  0  0  0  0  0  0
  -25.2120  -14.9550   20.3390 H   0  0  0  0  0  0  0  0  0  0  0  0
  8  2  1  6
  2  5  1  0
  3  8  1  0
  5 10  1  0
  5  1  1  0
  6 11  1  0
  6  3  1  0
  7 54  1  0
  7  6  1  0
  7  4  1  0
  8  4  1  0
  8  1  1  0
  9 10  1  0
 11 12  1  0
 13 12  1  0
 13 15  1  0
 14 25  2  0
 15 20  1  0
 16 24  1  0
 16 26  1  0
 17 19  1  0
 17 23  1  0
 18 24  1  0
 19 18  1  0
 20 19  2  0
 21 15  2  0
 21 22  1  0
 22 17  2  0
 23 16  1  0
 24 14  1  0
 26 28  2  0
 27 26  1  0
 29 27  1  0
 30 39  2  0
 30 35  1  0
 31 27  1  0
 32 31  1  0
 33 34  1  0
 33 32  1  0
 34 30  1  0
 35 31  1  0
 35 36  2  0
 36 37  1  0
 38 37  2  0
 39 38  1  0
 40 14  1  0
 40 41  1  0
 40 45  1  0
 41 44  1  1
 41 42  1  0
 43 41  1  0
 45 48  1  0
 46 45  1  0
 46 50  1  0
 47 46  2  0
 50 49  1  0
 50 52  1  0
 52 51  1  0
 52 53  1  0
 54 63  1  0
 55 61  1  0
 56 61  1  0
 57 58  1  0
 57 56  1  0
 59 58  1  0
 59 68  1  0
 59 60  1  0
 61 60  1  0
 62 55  2  0
 63 55  1  0
 63 64  1  0
 65 66  2  0
 66 85  1  0
 67 70  1  0
 67 66  1  0
 68 69  1  0
 68 65  1  0
 69 67  2  0
 70 71  1  0
 71 72  2  0
 73 76  1  0
 73 72  1  0
 74 73  2  0
 75 74  1  0
 75 70  2  0
 76 77  1  0
 77 78  2  0
 77 82  1  0
 78 79  1  0
 79 80  2  0
 80 84  1  0
 81 80  1  0
 82 81  2  0
 83 82  1  0
 85 86  1  0
 86 88  1  0
 86 89  1  0
 87 85  2  0
 90 65  1  0
 90 91  1  0
 92 90  1  0
M  ISO  4  12 101  13 101  55 100  63 100
M  END
>  <TORSDO>  (24) 
F 20

>  <SCORE>  (24) 
-9.220

>  <name>  (24) 
24

>  <ligand_id>  (24) 
24

>  <original_smiles>  (24) 
[H]c1c([H])c([H])c2c(c1[H])C([H])([H])C([H])([H])C([H])([H])C2([H])N([H])C(=O)C1([H])N(C(=O)C([H])(N([H])C(=O)C([H])(N([H])C([H])([H])[H])C([H])([H])[H])C(C([H])([H])[H])(C([H])([H])[H])C([H])([H])[H])C([H])([H])c2c([H])c(OC([H])([H])C([H])([H])C3([H])C([H])([H])C4(C([H])([H])C([H])(C([H])([H])C([H])([H])[H])C4([H])[H])C([H])([H])C3([H])C([H])([H])N([H])C(=O)N3C([H])([H])C([H])([H])C([H])([H])C([H])(n4nc(-c5c([H])c([H])c(Oc6c([H])c([H])c(F)c([H])c6F)c([H])c5[H])c(C(=O)N([H])[H])c4N([H])[H])C3([H])[H])c([H])c([H])c2C1([H])[H]

>  <smiles>  (24) 
[H]c1c([H])c([H])c2c(c1[H])C([H])([H])C([H])([H])C([H])([H])C2([H])N([H])C(=O)C1([H])N(C(=O)C([H])(N([H])C(=O)C([H])(N([H])C([H])([H])[H])C([H])([H])[H])C(C([H])([H])[H])(C([H])([H])[H])C([H])([H])[H])C([H])([H])c2c([H])c(OC([H])([H])C([H])([H])C3([H])C([H])([H])C4(C([H])([H])C([H])(C([H])([H])C([H])([H])[H])C4([H])[H])C([H])([H])C3([H])C([H])([H])N([H])C(=O)N3C([H])([H])C([H])([H])C([H])([H])C([H])(n4nc(-c5c([H])c([H])c(Oc6c([H])c([H])c(F)c([H])c6F)c([H])c5[H])c(C(=O)N([H])[H])c4N([H])[H])C3([H])[H])c([H])c([H])c2C1([H])[H]

$$$$
25:0:0
     RDKit          3D

 95103  0  0  1  0  0  0  0  0999 V2000
  -28.8150  -23.6730   21.7820 C   0  0  0  0  0  2  0  0  0  0  0  0
  -28.8940  -22.6240   22.9010 C   0  0  0  0  0  2  0  0  0  0  0  0
  -28.5170  -21.6610   20.1160 C   0  0  0  0  0  2  0  0  0  0  0  0
  -29.8190  -20.4120   22.0270 C   0  0  0  0  0  2  0  0  0  0  0  0
  -28.8530  -23.1860   20.3140 C   0  0  0  0  0  3  0  0  0  0  0  0
  -29.5980  -20.5790   20.5070 C   0  0  0  0  0  3  0  0  0  0  0  0
  -30.1200  -21.6930   22.8360 C   0  0  0  0  0  3  0  0  0  0  0  0
  -30.5570  -21.3410   24.2030 N   0  0  0  0  0  4  0  0  0  0  0  0
  -29.8100  -20.9250   24.7290 H   0  0  0  0  0  0  0  0  0  0  0  0
  -30.8650  -22.1600   24.6950 H   0  0  0  0  0  0  0  0  0  0  0  0
  -31.3280  -20.6980   24.1740 H   0  0  0  0  0  0  0  0  0  0  0  0
  -27.9260  -24.1220   19.4590 C   0  0  0  0  0  2  0  0  0  0  0  0
  -28.4260  -25.5610   19.0760 C   0  0  0  0  0  2  0  0  0  0  0  0
  -28.2600  -26.6690   19.9950 O   0  0  0  0  0  0  0  0  0  0  0  0
  -24.5300  -31.8680   23.1980 C   0  0  0  0  0  0  0  0  0  0  0  0
  -27.0940  -27.4250   19.9910 C   0  0  0  0  0  0  0  0  0  0  0  0
  -23.2900  -30.4910   21.5630 C   0  0  0  0  0  3  0  0  0  0  0  0
  -24.7080  -28.9740   20.0780 C   0  0  0  0  0  0  0  0  0  0  0  0
  -25.8160  -30.8310   21.3250 C   0  0  0  0  0  2  0  0  0  0  0  0
  -25.8810  -29.4660   20.6640 C   0  0  0  0  0  0  0  0  0  0  0  0
  -27.0690  -28.6940   20.6340 C   0  0  0  0  0  3  0  0  0  0  0  0
  -25.8980  -26.9670   19.3900 C   0  0  0  0  0  3  0  0  0  0  0  0
  -24.7130  -27.7220   19.4400 C   0  0  0  0  0  3  0  0  0  0  0  0
  -23.4700  -29.8390   20.1650 C   0  0  0  0  0  2  0  0  0  0  0  0
  -24.5650  -31.0790   22.0860 N   0  0  0  0  0  0  0  0  0  0  0  0
  -23.4600  -32.1320   23.7650 O   0  0  0  0  0  0  0  0  0  0  0  0
  -22.6570  -29.4550   22.5220 C   0  0  0  0  0  0  0  0  0  0  0  0
  -21.3350  -29.2530   22.4000 N   0  0  0  0  0  0  0  0  0  0  0  0
  -23.3530  -28.8390   23.3320 O   0  0  0  0  0  0  0  0  0  0  0  0
  -20.8300  -29.8140   21.7270 H   0  0  0  0  0  0  0  0  0  0  0  0
  -17.9910  -27.9670   22.8780 C   0  0  0  0  0  0  0  0  0  0  0  0
  -20.5370  -28.2990   23.1710 C   0  0  0  0  0  3  0  0  0  0  0  0
  -20.6850  -26.8660   22.6090 C   0  0  0  0  0  2  0  0  0  0  0  0
  -19.6020  -26.5040   21.5860 C   0  0  0  0  0  2  0  0  0  0  0  0
  -18.2110  -26.6160   22.2160 C   0  0  0  0  0  2  0  0  0  0  0  0
  -19.0850  -28.7640   23.3120 C   0  0  0  0  0  0  0  0  0  0  0  0
  -18.8280  -30.0250   23.8920 C   0  0  0  0  0  3  0  0  0  0  0  0
  -17.5110  -30.4910   24.0450 C   0  0  0  0  0  3  0  0  0  0  0  0
  -16.4300  -29.6960   23.6240 C   0  0  0  0  0  3  0  0  0  0  0  0
  -16.6710  -28.4350   23.0480 C   0  0  0  0  0  3  0  0  0  0  0  0
  -25.8280  -32.4930   23.7970 C   0  0  0  0  0  3  0  0  0  0  0  0
  -25.5290  -33.8890   24.1420 N   0  0  0  0  0  0  0  0  0  0  0  0
  -25.8790  -34.9480   23.3970 C   0  0  0  0  0  0  0  0  0  0  0  0
  -26.5520  -34.8500   22.3680 O   0  0  0  0  0  0  0  0  0  0  0  0
  -24.9290  -34.0410   24.9390 H   0  0  0  0  0  0  0  0  0  0  0  0
  -24.1800  -36.7690   23.0440 C   0  0  0  0  0  1  0  0  0  0  0  0
  -25.4030  -36.3370   23.8680 C   0  0  0  0  0  3  0  0  0  0  0  0
  -27.5330  -37.1760   24.7540 C   0  0  0  0  0  1  0  0  0  0  0  0
  -26.4520  -37.3760   23.7920 N   0  0  0  0  0  0  0  0  0  0  0  0
  -26.0570  -38.2990   23.9470 H   0  0  0  0  0  0  0  0  0  0  0  0
  -26.3700  -31.7090   25.0540 C   0  0  1  0  0  0  0  0  0  0  0  0
  -25.3010  -31.4590   26.1430 C   0  0  0  0  0  1  0  0  0  0  0  0
  -26.9410  -30.3330   24.6330 C   0  0  0  0  0  1  0  0  0  0  0  0
  -27.5320  -32.4970   25.6980 C   0  0  0  0  0  1  0  0  0  0  0  0
  -29.2540  -19.1730   19.8870 C   0  0  0  0  0  2  0  0  0  0  0  0
  -30.3350  -18.0360   19.8900 C   0  0  0  0  0  2  0  0  0  0  0  0
  -30.4380  -17.1060   21.1430 C   0  0  0  0  0  2  0  0  0  0  0  0
  -30.9810  -14.6600   20.5170 C   0  0  0  0  0  0  0  0  0  0  0  0
  -30.7880  -12.4530   19.4120 C   0  0  0  0  0  2  0  0  0  0  0  0
  -29.8710  -12.5970   18.1780 C   0  0  0  0  0  2  0  0  0  0  0  0
  -28.3810  -12.4790   18.5670 C   0  0  0  0  0  2  0  0  0  0  0  0
  -28.0050  -13.3510   19.7960 C   0  0  0  0  0  3  0  0  0  0  0  0
  -29.0260  -13.1350   20.9350 C   0  0  0  0  0  2  0  0  0  0  0  0
  -30.3600  -13.4540   20.4000 N   0  0  0  0  0  0  0  0  0  0  0  0
  -32.1440  -14.8530   20.1440 O   0  0  0  0  0  0  0  0  0  0  0  0
  -30.1670  -15.6660   20.9110 N   0  0  0  0  0  0  0  0  0  0  0  0
  -29.2250  -15.3680   21.1220 H   0  0  0  0  0  0  0  0  0  0  0  0
  -25.6000  -14.0040   20.4340 C   0  0  0  0  0  0  0  0  0  0  0  0
  -24.5120  -13.2530   20.7870 C   0  0  0  0  0  0  0  0  0  0  0  0
  -24.9550  -11.8940   20.7880 C   0  0  0  0  0  0  0  0  0  0  0  0
  -26.6370  -13.1030   20.2420 N   0  0  0  0  0  0  0  0  0  0  0  0
  -26.2520  -11.8290   20.5140 N   0  0  0  0  0  0  0  0  0  0  0  0
  -24.2050  -10.6460   20.9760 C   0  0  0  0  0  0  0  0  0  0  0  0
  -24.5790   -9.7010   21.9570 C   0  0  0  0  0  3  0  0  0  0  0  0
  -23.8340   -8.5150   22.1300 C   0  0  0  0  0  3  0  0  0  0  0  0
  -22.6960   -8.2670   21.3250 C   0  0  0  0  0  0  0  0  0  0  0  0
  -22.3420   -9.1990   20.3340 C   0  0  0  0  0  3  0  0  0  0  0  0
  -23.0890  -10.3760   20.1580 C   0  0  0  0  0  3  0  0  0  0  0  0
  -21.9230   -7.1340   21.4090 O   0  0  0  0  0  0  0  0  0  0  0  0
  -21.7820   -6.4440   22.5870 C   0  0  0  0  0  0  0  0  0  0  0  0
  -21.2560   -7.0510   23.7480 C   0  0  0  0  0  3  0  0  0  0  0  0
  -21.0660   -6.2860   24.9170 C   0  0  0  0  0  3  0  0  0  0  0  0
  -21.3880   -4.9150   24.9210 C   0  0  0  0  0  0  0  0  0  0  0  0
  -21.9060   -4.3090   23.7650 C   0  0  0  0  0  3  0  0  0  0  0  0
  -22.0990   -5.0710   22.6000 C   0  0  0  0  0  0  0  0  0  0  0  0
  -22.5780   -4.4790   21.4790 F   0  0  0  0  0  0  0  0  0  0  0  0
  -21.1960   -4.1770   26.0400 F   0  0  0  0  0  0  0  0  0  0  0  0
  -23.1140  -13.7530   21.0130 C   0  0  0  0  0  0  0  0  0  0  0  0
  -22.3530  -13.0860   21.8740 N   0  0  0  0  0  0  0  0  0  0  0  0
  -22.7040  -14.7710   20.4580 O   0  0  0  0  0  0  0  0  0  0  0  0
  -22.6960  -12.2630   22.3490 H   0  0  0  0  0  0  0  0  0  0  0  0
  -21.4140  -13.4010   22.0620 H   0  0  0  0  0  0  0  0  0  0  0  0
  -25.7890  -15.3690   20.2430 N   0  0  0  0  0  0  0  0  0  0  0  0
  -25.0220  -16.0280   20.3160 H   0  0  0  0  0  0  0  0  0  0  0  0
  -26.6420  -15.7940   19.9060 H   0  0  0  0  0  0  0  0  0  0  0  0
  1  2  1  0
  3  5  1  0
  3  6  1  0
  4  7  1  0
  5 12  1  0
  5  1  1  0
  6 55  1  0
  6  4  1  0
  7  2  1  0
  7  8  1  0
  8 10  1  0
  8  9  1  0
 11  8  1  0
 13 12  1  0
 13 14  1  0
 15 26  2  0
 16 14  1  0
 16 21  1  0
 17 25  1  0
 17 27  1  0
 18 24  1  0
 18 20  1  0
 19 25  1  0
 20 19  1  0
 21 20  2  0
 22 23  1  0
 22 16  2  0
 23 18  2  0
 24 17  1  0
 25 15  1  0
 27 29  2  0
 28 27  1  0
 30 28  1  0
 31 40  2  0
 31 36  1  0
 32 28  1  0
 32 36  1  0
 33 32  1  0
 34 35  1  0
 34 33  1  0
 35 31  1  0
 36 37  2  0
 37 38  1  0
 39 38  2  0
 40 39  1  0
 41 15  1  0
 41 42  1  0
 41 51  1  0
 42 45  1  0
 43 47  1  0
 43 42  1  0
 44 43  2  0
 47 46  1  0
 49 47  1  0
 49 50  1  0
 49 48  1  0
 51 54  1  1
 51 52  1  0
 53 51  1  0
 55 56  1  0
 56 57  1  0
 58 66  1  0
 59 64  1  0
 60 61  1  0
 60 59  1  0
 62 61  1  0
 62 71  1  0
 62 63  1  0
 64 58  1  0
 64 63  1  0
 65 58  2  0
 66 67  1  0
 66 57  1  0
 68 69  2  0
 69 70  1  0
 69 88  1  0
 70 73  1  0
 71 68  1  0
 71 72  1  0
 72 70  2  0
 73 74  1  0
 74 75  2  0
 76 79  1  0
 76 75  1  0
 77 76  2  0
 78 77  1  0
 78 73  2  0
 79 80  1  0
 80 85  2  0
 80 81  1  0
 81 82  2  0
 82 83  1  0
 83 87  1  0
 84 83  2  0
 85 84  1  0
 86 85  1  0
 88 89  1  0
 89 92  1  0
 89 91  1  0
 90 88  2  0
 93 94  1  0
 93 68  1  0
 95 93  1  0
M  ISO  4  13 101  14 101  58 100  66 100
M  END
>  <TORSDO>  (25) 
F 22

>  <SCORE>  (25) 
-13.035

>  <name>  (25) 
25

>  <ligand_id>  (25) 
25

>  <original_smiles>  (25) 
[H]c1c([H])c([H])c2c(c1[H])C([H])([H])C([H])([H])C([H])([H])C2([H])N([H])C(=O)C1([H])N(C(=O)C([H])(N([H])C(=O)C([H])(N([H])C([H])([H])[H])C([H])([H])[H])C(C([H])([H])[H])(C([H])([H])[H])C([H])([H])[H])C([H])([H])c2c([H])c(OC([H])([H])C([H])([H])C3([H])C([H])([H])C([H])([H])C([H])([N+]([H])([H])[H])C([H])([H])C([H])(C([H])([H])C([H])([H])C([H])([H])N([H])C(=O)N4C([H])([H])C([H])([H])C([H])([H])C([H])(n5nc(-c6c([H])c([H])c(Oc7c([H])c([H])c(F)c([H])c7F)c([H])c6[H])c(C(=O)N([H])[H])c5N([H])[H])C4([H])[H])C3([H])[H])c([H])c([H])c2C1([H])[H]

>  <smiles>  (25) 
[H]c1c([H])c([H])c2c(c1[H])C([H])([H])C([H])([H])C([H])([H])C2([H])N([H])C(=O)C1([H])N(C(=O)C([H])(N([H])C(=O)C([H])(N([H])C([H])([H])[H])C([H])([H])[H])C(C([H])([H])[H])(C([H])([H])[H])C([H])([H])[H])C([H])([H])c2c([H])c(OC([H])([H])C([H])([H])C3([H])C([H])([H])C([H])([H])C([H])([N+]([H])([H])[H])C([H])([H])C([H])(C([H])([H])C([H])([H])C([H])([H])N([H])C(=O)N4C([H])([H])C([H])([H])C([H])([H])C([H])(n5nc(-c6c([H])c([H])c(Oc7c([H])c([H])c(F)c([H])c7F)c([H])c6[H])c(C(=O)N([H])[H])c5N([H])[H])C4([H])[H])C3([H])[H])c([H])c([H])c2C1([H])[H]

$$$$
26:0:0
     RDKit          3D

 90 99  0  0  1  0  0  0  0  0999 V2000
  -30.2110  -16.9230   20.7130 C   0  0  0  0  0  0  0  0  0  0  0  0
  -31.3420  -17.8750   20.3240 C   0  0  0  0  0  0  0  0  0  0  0  0
  -29.0820  -17.8480   21.1780 C   0  0  0  0  0  2  0  0  0  0  0  0
  -31.1770  -20.5380   19.9730 C   0  0  0  0  0  2  0  0  0  0  0  0
  -28.9430  -20.4770   20.7520 C   0  0  0  0  0  2  0  0  0  0  0  0
  -31.0890  -19.2880   20.9010 C   0  0  0  0  0  3  0  0  0  0  0  0
  -29.6530  -19.2690   21.4210 C   0  0  0  0  0  3  0  0  0  0  0  0
  -30.0670  -21.5050   20.4810 C   0  0  0  0  0  3  0  0  0  0  0  0
  -29.9980  -15.6400   20.7310 N   0  0  0  0  0  0  0  0  0  0  0  0
  -32.3690  -17.5920   19.6980 O   0  0  0  0  0  0  0  0  0  0  0  0
  -30.8460  -14.6320   20.2350 C   0  0  0  0  0  0  0  0  0  0  0  0
  -30.6130  -12.3960   19.1690 C   0  0  0  0  0  2  0  0  0  0  0  0
  -29.6430  -12.5270   17.9730 C   0  0  0  0  0  2  0  0  0  0  0  0
  -28.1700  -12.3970   18.4200 C   0  0  0  0  0  2  0  0  0  0  0  0
  -27.8460  -13.2810   19.6510 C   0  0  0  0  0  3  0  0  0  0  0  0
  -28.9140  -13.0840   20.7490 C   0  0  0  0  0  2  0  0  0  0  0  0
  -30.2290  -13.4110   20.1640 N   0  0  0  0  0  0  0  0  0  0  0  0
  -31.9820  -14.7850   19.7760 O   0  0  0  0  0  0  0  0  0  0  0  0
  -25.4780  -13.9500   20.4060 C   0  0  0  0  0  0  0  0  0  0  0  0
  -24.3960  -13.2070   20.7880 C   0  0  0  0  0  0  0  0  0  0  0  0
  -24.8170  -11.8430   20.7360 C   0  0  0  0  0  0  0  0  0  0  0  0
  -26.4960  -13.0400   20.1520 N   0  0  0  0  0  0  0  0  0  0  0  0
  -26.0990  -11.7670   20.4060 N   0  0  0  0  0  0  0  0  0  0  0  0
  -24.0610  -10.5990   20.9280 C   0  0  0  0  0  0  0  0  0  0  0  0
  -24.4660   -9.6210   21.8640 C   0  0  0  0  0  3  0  0  0  0  0  0
  -23.7080   -8.4440   22.0430 C   0  0  0  0  0  3  0  0  0  0  0  0
  -22.5300   -8.2370   21.2840 C   0  0  0  0  0  0  0  0  0  0  0  0
  -22.1450   -9.2040   20.3350 C   0  0  0  0  0  3  0  0  0  0  0  0
  -22.9030  -10.3720   20.1560 C   0  0  0  0  0  3  0  0  0  0  0  0
  -21.7420   -7.1140   21.3720 O   0  0  0  0  0  0  0  0  0  0  0  0
  -21.6580   -6.3850   22.5320 C   0  0  0  0  0  0  0  0  0  0  0  0
  -21.1920   -6.9520   23.7380 C   0  0  0  0  0  3  0  0  0  0  0  0
  -21.0570   -6.1480   24.8890 C   0  0  0  0  0  3  0  0  0  0  0  0
  -21.3800   -4.7790   24.8320 C   0  0  0  0  0  0  0  0  0  0  0  0
  -21.8380   -4.2110   23.6300 C   0  0  0  0  0  3  0  0  0  0  0  0
  -21.9740   -5.0120   22.4820 C   0  0  0  0  0  0  0  0  0  0  0  0
  -22.3950   -4.4560   21.3220 F   0  0  0  0  0  0  0  0  0  0  0  0
  -21.2440   -4.0040   25.9340 F   0  0  0  0  0  0  0  0  0  0  0  0
  -23.0180  -13.7220   21.0930 C   0  0  0  0  0  0  0  0  0  0  0  0
  -22.2890  -13.0370   21.9650 N   0  0  0  0  0  0  0  0  0  0  0  0
  -22.6010  -14.7690   20.5970 O   0  0  0  0  0  0  0  0  0  0  0  0
  -22.6400  -12.1940   22.3960 H   0  0  0  0  0  0  0  0  0  0  0  0
  -21.3620  -13.3590   22.2100 H   0  0  0  0  0  0  0  0  0  0  0  0
  -25.6820  -15.3150   20.2300 N   0  0  0  0  0  0  0  0  0  0  0  0
  -24.9450  -16.0000   20.3640 H   0  0  0  0  0  0  0  0  0  0  0  0
  -26.5620  -15.7230   19.9430 H   0  0  0  0  0  0  0  0  0  0  0  0
  -29.6760  -22.7360   19.5710 C   0  0  0  0  0  2  0  0  0  0  0  0
  -29.6370  -24.1790   20.2170 C   0  0  0  0  0  2  0  0  0  0  0  0
  -28.8420  -25.2560   19.3880 C   0  0  0  0  0  2  0  0  0  0  0  0
  -28.7450  -26.6160   19.9280 O   0  0  0  0  0  0  0  0  0  0  0  0
  -24.6280  -31.6110   23.0360 C   0  0  0  0  0  0  0  0  0  0  0  0
  -27.5550  -27.3540   19.8590 C   0  0  0  0  0  0  0  0  0  0  0  0
  -23.5360  -30.2460   21.2870 C   0  0  0  0  0  3  0  0  0  0  0  0
  -25.1060  -28.8290   19.8490 C   0  0  0  0  0  0  0  0  0  0  0  0
  -26.0660  -30.6840   21.2170 C   0  0  0  0  0  2  0  0  0  0  0  0
  -26.2260  -29.3460   20.5130 C   0  0  0  0  0  0  0  0  0  0  0  0
  -27.4470  -28.6130   20.5210 C   0  0  0  0  0  3  0  0  0  0  0  0
  -26.4140  -26.8990   19.1550 C   0  0  0  0  0  3  0  0  0  0  0  0
  -25.2010  -27.6120   19.1660 C   0  0  0  0  0  3  0  0  0  0  0  0
  -23.8280  -29.6390   19.8870 C   0  0  0  0  0  2  0  0  0  0  0  0
  -24.7580  -30.8630   21.9020 N   0  0  0  0  0  0  0  0  0  0  0  0
  -23.5170  -31.8210   23.5430 O   0  0  0  0  0  0  0  0  0  0  0  0
  -22.8880  -29.1590   22.1740 C   0  0  0  0  0  0  0  0  0  0  0  0
  -21.5620  -28.9820   22.0370 N   0  0  0  0  0  0  0  0  0  0  0  0
  -23.5700  -28.4810   22.9440 O   0  0  0  0  0  0  0  0  0  0  0  0
  -21.0680  -29.5710   21.3790 H   0  0  0  0  0  0  0  0  0  0  0  0
  -18.1830  -27.7910   22.5330 C   0  0  0  0  0  0  0  0  0  0  0  0
  -20.7500  -27.9910   22.7470 C   0  0  0  0  0  3  0  0  0  0  0  0
  -20.8170  -26.6170   22.0450 C   0  0  0  0  0  2  0  0  0  0  0  0
  -19.6760  -26.3970   21.0430 C   0  0  0  0  0  2  0  0  0  0  0  0
  -18.3180  -26.5020   21.7380 C   0  0  0  0  0  2  0  0  0  0  0  0
  -19.3240  -28.4940   22.9960 C   0  0  0  0  0  0  0  0  0  0  0  0
  -19.1410  -29.6970   23.7140 C   0  0  0  0  0  3  0  0  0  0  0  0
  -17.8470  -30.1970   23.9620 C   0  0  0  0  0  3  0  0  0  0  0  0
  -16.7210  -29.4900   23.5080 C   0  0  0  0  0  3  0  0  0  0  0  0
  -16.8890  -28.2890   22.7970 C   0  0  0  0  0  3  0  0  0  0  0  0
  -25.8640  -32.2590   23.7340 C   0  0  0  0  0  3  0  0  0  0  0  0
  -26.3550  -31.4610   25.0050 C   0  0  1  0  0  0  0  0  0  0  0  0
  -25.2280  -31.1610   26.0190 C   0  0  0  0  0  1  0  0  0  0  0  0
  -26.9920  -30.1130   24.5940 C   0  0  0  0  0  1  0  0  0  0  0  0
  -27.4570  -32.2660   25.7340 C   0  0  0  0  0  1  0  0  0  0  0  0
  -25.4950  -33.6350   24.0950 N   0  0  0  0  0  0  0  0  0  0  0  0
  -25.8310  -34.7220   23.3900 C   0  0  0  0  0  0  0  0  0  0  0  0
  -26.5500  -34.6770   22.3870 O   0  0  0  0  0  0  0  0  0  0  0  0
  -24.8600  -33.7450   24.8710 H   0  0  0  0  0  0  0  0  0  0  0  0
  -24.0760  -36.4840   23.0110 C   0  0  0  0  0  1  0  0  0  0  0  0
  -25.2800  -36.0770   23.8740 C   0  0  0  0  0  3  0  0  0  0  0  0
  -27.3250  -36.9920   24.8750 C   0  0  0  0  0  1  0  0  0  0  0  0
  -26.2860  -37.1610   23.8640 N   0  0  0  0  0  0  0  0  0  0  0  0
  -25.8430  -38.0650   24.0100 H   0  0  0  0  0  0  0  0  0  0  0  0
  1  9  2  0
  1  3  1  0
  2  1  1  0
  2  6  1  0
  3  7  1  0
  4  8  1  0
  6  4  1  0
  6  7  1  0
  7  5  1  0
  8 47  1  0
  8  5  1  0
 10  2  2  0
 11  9  1  0
 12 17  1  0
 13 14  1  0
 13 12  1  0
 15 14  1  0
 15 22  1  0
 15 16  1  0
 17 11  1  0
 17 16  1  0
 18 11  2  0
 19 20  2  0
 20 39  1  0
 21 20  1  0
 21 24  1  0
 22 23  1  0
 22 19  1  0
 23 21  2  0
 24 25  1  0
 25 26  2  0
 27 30  1  0
 27 26  1  0
 28 27  2  0
 29 28  1  0
 29 24  2  0
 30 31  1  0
 31 32  1  0
 32 33  2  0
 34 33  1  0
 34 38  1  0
 35 34  2  0
 36 31  2  0
 36 35  1  0
 37 36  1  0
 39 40  1  0
 40 43  1  0
 40 42  1  0
 41 39  2  0
 44 45  1  0
 44 19  1  0
 46 44  1  0
 47 48  1  0
 49 50  1  0
 49 48  1  0
 51 62  2  0
 52 50  1  0
 52 57  1  0
 53 61  1  0
 53 63  1  0
 54 60  1  0
 54 56  1  0
 55 61  1  0
 56 57  2  0
 56 55  1  0
 58 59  1  0
 58 52  2  0
 59 54  2  0
 60 53  1  0
 61 51  1  0
 63 65  2  0
 64 63  1  0
 66 64  1  0
 67 76  2  0
 67 72  1  0
 68 64  1  0
 68 72  1  0
 69 68  1  0
 70 71  1  0
 70 69  1  0
 71 67  1  0
 72 73  2  0
 73 74  1  0
 75 74  2  0
 76 75  1  0
 77 51  1  0
 77 82  1  0
 77 78  1  0
 78 81  1  1
 78 79  1  0
 80 78  1  0
 82 85  1  0
 83 87  1  0
 83 82  1  0
 84 83  2  0
 87 86  1  0
 89 87  1  0
 89 90  1  0
 89 88  1  0
M  ISO  4   9 100  11 100  49 101  50 101
M  END
>  <TORSDO>  (26) 
F 19

>  <SCORE>  (26) 
-13.295

>  <name>  (26) 
26

>  <ligand_id>  (26) 
26

>  <original_smiles>  (26) 
[H]c1c([H])c([H])c2c(c1[H])C([H])([H])C([H])([H])C([H])([H])C2([H])N([H])C(=O)C1([H])N(C(=O)C([H])(N([H])C(=O)C([H])(N([H])C([H])([H])[H])C([H])([H])[H])C(C([H])([H])[H])(C([H])([H])[H])C([H])([H])[H])C([H])([H])c2c([H])c(OC([H])([H])C([H])([H])C([H])([H])C3([H])C([H])([H])C4([H])C(=O)C(=NC(=O)N5C([H])([H])C([H])([H])C([H])([H])C([H])(n6nc(-c7c([H])c([H])c(Oc8c([H])c([H])c(F)c([H])c8F)c([H])c7[H])c(C(=O)N([H])[H])c6N([H])[H])C5([H])[H])C([H])([H])C4([H])C3([H])[H])c([H])c([H])c2C1([H])[H]

>  <smiles>  (26) 
[H]c1c([H])c([H])c2c(c1[H])C([H])([H])C([H])([H])C([H])([H])C2([H])N([H])C(=O)C1([H])N(C(=O)C([H])(N([H])C(=O)C([H])(N([H])C([H])([H])[H])C([H])([H])[H])C(C([H])([H])[H])(C([H])([H])[H])C([H])([H])[H])C([H])([H])c2c([H])c(OC([H])([H])C([H])([H])C([H])([H])C3([H])C([H])([H])C4([H])C(=O)C(=NC(=O)N5C([H])([H])C([H])([H])C([H])([H])C([H])(n6nc(-c7c([H])c([H])c(Oc8c([H])c([H])c(F)c([H])c8F)c([H])c7[H])c(C(=O)N([H])[H])c6N([H])[H])C5([H])[H])C([H])([H])C4([H])C3([H])[H])c([H])c([H])c2C1([H])[H]

$$$$
27:0:0
     RDKit          3D

 97106  0  0  1  0  0  0  0  0999 V2000
  -29.7050  -21.3250   21.1070 C   0  0  0  0  0  2  0  0  0  0  0  0
  -30.1080  -19.7970   21.0750 C   0  0  0  0  0  2  0  0  0  0  0  0
  -31.9550  -22.2250   20.3870 C   0  0  0  0  0  2  0  0  0  0  0  0
  -30.3870  -20.6880   18.9540 C   0  0  0  0  0  2  0  0  0  0  0  0
  -32.3890  -23.6410   19.9680 C   0  0  0  0  0  2  0  0  0  0  0  0
  -30.0770  -23.6120   19.5120 C   0  0  0  0  0  3  0  0  0  0  0  0
  -30.4660  -22.0140   19.9640 C   0  0  1  0  0  0  0  0  0  0  0  0
  -29.9580  -19.2210   19.6190 C   0  0  2  0  0  0  0  0  0  0  0  0
  -31.3710  -24.1190   19.0270 N   0  0  0  0  0  4  0  0  0  0  0  0
  -31.5660  -23.7480   18.1120 H   0  0  0  0  0  0  0  0  0  0  0  0
  -31.3750  -25.1280   18.9700 H   0  0  0  0  0  0  0  0  0  0  0  0
  -29.4700  -24.8720   20.4430 C   0  0  0  0  0  2  0  0  0  0  0  0
  -29.4010  -26.3790   20.0640 O   0  0  0  0  0  0  0  0  0  0  0  0
  -24.8780  -31.4140   23.0070 C   0  0  0  0  0  0  0  0  0  0  0  0
  -28.1990  -27.1660   20.0390 C   0  0  0  0  0  0  0  0  0  0  0  0
  -23.9650  -29.9550   21.2460 C   0  0  0  0  0  3  0  0  0  0  0  0
  -25.6810  -28.6050   19.8870 C   0  0  0  0  0  0  0  0  0  0  0  0
  -26.4730  -30.5220   21.2660 C   0  0  0  0  0  2  0  0  0  0  0  0
  -26.7540  -29.1730   20.5840 C   0  0  0  0  0  0  0  0  0  0  0  0
  -28.0170  -28.4770   20.6310 C   0  0  0  0  0  3  0  0  0  0  0  0
  -27.0890  -26.6760   19.3200 C   0  0  0  0  0  3  0  0  0  0  0  0
  -25.8600  -27.3720   19.2380 C   0  0  0  0  0  3  0  0  0  0  0  0
  -24.3560  -29.3550   19.8670 C   0  0  0  0  0  2  0  0  0  0  0  0
  -25.1200  -30.6490   21.8980 N   0  0  0  0  0  0  0  0  0  0  0  0
  -23.7320  -31.5490   23.4640 O   0  0  0  0  0  0  0  0  0  0  0  0
  -23.3480  -28.8370   22.1230 C   0  0  0  0  0  0  0  0  0  0  0  0
  -22.0550  -28.5340   21.9100 N   0  0  0  0  0  0  0  0  0  0  0  0
  -24.0350  -28.2500   22.9640 O   0  0  0  0  0  0  0  0  0  0  0  0
  -21.5500  -29.0690   21.2180 H   0  0  0  0  0  0  0  0  0  0  0  0
  -18.7790  -27.0190   22.2170 C   0  0  0  0  0  0  0  0  0  0  0  0
  -21.2960  -27.4790   22.5900 C   0  0  0  0  0  3  0  0  0  0  0  0
  -21.5410  -26.1020   21.9300 C   0  0  0  0  0  2  0  0  0  0  0  0
  -20.5010  -25.7520   20.8610 C   0  0  0  0  0  2  0  0  0  0  0  0
  -19.0930  -25.7370   21.4640 C   0  0  0  0  0  2  0  0  0  0  0  0
  -19.8140  -27.8440   22.7330 C   0  0  0  0  0  0  0  0  0  0  0  0
  -19.4700  -29.0410   23.3990 C   0  0  0  0  0  3  0  0  0  0  0  0
  -18.1230  -29.4160   23.5490 C   0  0  0  0  0  3  0  0  0  0  0  0
  -17.1020  -28.5890   23.0530 C   0  0  0  0  0  3  0  0  0  0  0  0
  -17.4310  -27.3910   22.3920 C   0  0  0  0  0  3  0  0  0  0  0  0
  -26.0250  -32.1670   23.7470 C   0  0  0  0  0  3  0  0  0  0  0  0
  -25.5210  -33.5000   24.1140 N   0  0  0  0  0  0  0  0  0  0  0  0
  -25.7460  -34.6230   23.4200 C   0  0  0  0  0  0  0  0  0  0  0  0
  -26.4650  -34.6550   22.4180 O   0  0  0  0  0  0  0  0  0  0  0  0
  -24.8840  -33.5430   24.8960 H   0  0  0  0  0  0  0  0  0  0  0  0
  -23.8000  -36.1870   23.0870 C   0  0  0  0  0  1  0  0  0  0  0  0
  -25.0650  -35.9160   23.9160 C   0  0  0  0  0  3  0  0  0  0  0  0
  -27.0490  -37.0420   24.8290 C   0  0  0  0  0  1  0  0  0  0  0  0
  -25.9490  -37.1020   23.8690 N   0  0  0  0  0  0  0  0  0  0  0  0
  -25.4200  -37.9510   24.0490 H   0  0  0  0  0  0  0  0  0  0  0  0
  -26.5440  -31.4070   25.0300 C   0  0  1  0  0  0  0  0  0  0  0  0
  -25.4170  -30.9630   25.9930 C   0  0  0  0  0  1  0  0  0  0  0  0
  -27.3440  -30.1460   24.6280 C   0  0  0  0  0  1  0  0  0  0  0  0
  -27.5120  -32.3170   25.8210 C   0  0  0  0  0  1  0  0  0  0  0  0
  -28.4570  -18.9140   19.3130 C   0  0  0  0  0  2  0  0  0  0  0  0
  -27.0620  -17.3690   20.7980 C   0  0  0  0  0  1  0  0  0  0  0  0
  -28.0090  -17.4450   19.5820 C   0  0  0  0  0  3  0  0  0  0  0  0
  -27.3980  -15.2100   18.5070 C   0  0  0  0  0  1  0  0  0  0  0  0
  -27.3690  -16.7430   18.3690 C   0  0  0  0  0  2  0  0  0  0  0  0
  -30.8000  -17.7710   19.2710 C   0  0  0  0  0  2  0  0  0  0  0  0
  -31.0440  -15.0190   19.4280 C   0  0  0  0  0  0  0  0  0  0  0  0
  -30.6860  -12.6440   18.5880 C   0  0  0  0  0  2  0  0  0  0  0  0
  -29.6300  -12.6100   17.4590 C   0  0  0  0  0  2  0  0  0  0  0  0
  -28.2160  -12.4650   18.0460 C   0  0  0  0  0  2  0  0  0  0  0  0
  -27.9730  -13.4290   19.2370 C   0  0  0  0  0  3  0  0  0  0  0  0
  -29.1510  -13.4530   20.2400 C   0  0  0  0  0  2  0  0  0  0  0  0
  -30.3640  -13.7940   19.4850 N   0  0  0  0  0  0  0  0  0  0  0  0
  -32.1950  -14.9920   18.9860 O   0  0  0  0  0  0  0  0  0  0  0  0
  -30.4000  -16.2730   19.6520 N   0  0  0  0  0  0  0  0  0  0  0  0
  -29.4570  -16.1810   19.9980 H   0  0  0  0  0  0  0  0  0  0  0  0
  -25.7040  -14.1020   20.2060 C   0  0  0  0  0  0  0  0  0  0  0  0
  -24.6600  -13.3740   20.7010 C   0  0  0  0  0  0  0  0  0  0  0  0
  -25.0670  -12.0040   20.6470 C   0  0  0  0  0  0  0  0  0  0  0  0
  -26.6870  -13.1830   19.8800 N   0  0  0  0  0  0  0  0  0  0  0  0
  -26.3190  -11.9160   20.2080 N   0  0  0  0  0  0  0  0  0  0  0  0
  -24.3150  -10.7760   20.9350 C   0  0  0  0  0  0  0  0  0  0  0  0
  -24.7330   -9.8690   21.9340 C   0  0  0  0  0  3  0  0  0  0  0  0
  -23.9790   -8.7080   22.2080 C   0  0  0  0  0  3  0  0  0  0  0  0
  -22.7920   -8.4430   21.4830 C   0  0  0  0  0  0  0  0  0  0  0  0
  -22.3930   -9.3380   20.4740 C   0  0  0  0  0  3  0  0  0  0  0  0
  -23.1470  -10.4900   20.1990 C   0  0  0  0  0  3  0  0  0  0  0  0
  -22.0100   -7.3280   21.6620 O   0  0  0  0  0  0  0  0  0  0  0  0
  -21.8100   -6.7810   22.9040 C   0  0  0  0  0  0  0  0  0  0  0  0
  -21.3090   -7.5430   23.9820 C   0  0  0  0  0  3  0  0  0  0  0  0
  -21.0540   -6.9250   25.2230 C   0  0  0  0  0  3  0  0  0  0  0  0
  -21.2890   -5.5460   25.3840 C   0  0  0  0  0  0  0  0  0  0  0  0
  -21.7820   -4.7850   24.3110 C   0  0  0  0  0  3  0  0  0  0  0  0
  -22.0390   -5.4010   23.0740 C   0  0  0  0  0  0  0  0  0  0  0  0
  -22.4950   -4.6580   22.0350 F   0  0  0  0  0  0  0  0  0  0  0  0
  -21.0370   -4.9490   26.5740 F   0  0  0  0  0  0  0  0  0  0  0  0
  -23.3180  -13.9110   21.1080 C   0  0  0  0  0  0  0  0  0  0  0  0
  -22.6780  -13.2790   22.0850 N   0  0  0  0  0  0  0  0  0  0  0  0
  -22.8510  -14.9260   20.5920 O   0  0  0  0  0  0  0  0  0  0  0  0
  -23.0710  -12.4550   22.5170 H   0  0  0  0  0  0  0  0  0  0  0  0
  -21.7840  -13.6210   22.4070 H   0  0  0  0  0  0  0  0  0  0  0  0
  -25.8900  -15.4610   19.9720 N   0  0  0  0  0  0  0  0  0  0  0  0
  -25.1470  -16.1350   20.1310 H   0  0  0  0  0  0  0  0  0  0  0  0
  -26.6990  -15.8650   19.5220 H   0  0  0  0  0  0  0  0  0  0  0  0
  2  1  1  0
  4  8  1  0
  5  3  1  0
  6  7  1  0
  6 12  1  0
  7  4  1  6
  7  3  1  0
  7  1  1  0
  8 59  1  1
  8  2  1  0
  9  6  1  0
  9  5  1  0
 10  9  1  0
 11  9  1  0
 13 12  1  0
 14 25  2  0
 15 13  1  0
 15 20  1  0
 16 24  1  0
 16 26  1  0
 17 19  1  0
 18 24  1  0
 19 20  2  0
 19 18  1  0
 21 15  2  0
 22 21  1  0
 22 17  2  0
 23 17  1  0
 23 16  1  0
 24 14  1  0
 26 28  2  0
 27 26  1  0
 29 27  1  0
 30 39  2  0
 30 35  1  0
 31 27  1  0
 31 35  1  0
 32 31  1  0
 33 34  1  0
 33 32  1  0
 34 30  1  0
 35 36  2  0
 36 37  1  0
 38 37  2  0
 39 38  1  0
 40 14  1  0
 40 41  1  0
 40 50  1  0
 41 44  1  0
 42 46  1  0
 42 41  1  0
 43 42  2  0
 46 45  1  0
 48 46  1  0
 48 49  1  0
 48 47  1  0
 50 53  1  1
 50 51  1  0
 52 50  1  0
 54 56  1  0
 54  8  1  0
 56 55  1  0
 58 57  1  0
 58 56  1  0
 59 68  1  0
 60 66  1  0
 60 68  1  0
 61 66  1  0
 62 63  1  0
 62 61  1  0
 64 63  1  0
 64 73  1  0
 64 65  1  0
 66 65  1  0
 67 60  2  0
 68 69  1  0
 70 71  2  0
 71 90  1  0
 72 71  1  0
 72 75  1  0
 73 70  1  0
 73 74  1  0
 74 72  2  0
 75 76  1  0
 76 77  2  0
 78 81  1  0
 78 77  1  0
 79 78  2  0
 80 79  1  0
 80 75  2  0
 81 82  1  0
 82 87  2  0
 82 83  1  0
 83 84  2  0
 84 85  1  0
 85 89  1  0
 86 85  2  0
 87 86  1  0
 88 87  1  0
 90 91  1  0
 91 94  1  0
 91 93  1  0
 92 90  2  0
 95 96  1  0
 95 70  1  0
 97 95  1  0
M  ISO  4  12 101  13 101  60 100  68 100
M  END
>  <TORSDO>  (27) 
F 21

>  <SCORE>  (27) 
-9.076

>  <name>  (27) 
27

>  <ligand_id>  (27) 
27

>  <original_smiles>  (27) 
[H]c1c([H])c([H])c2c(c1[H])C([H])([H])C([H])([H])C([H])([H])C2([H])N([H])C(=O)C1([H])N(C(=O)C([H])(N([H])C(=O)C([H])(N([H])C([H])([H])[H])C([H])([H])[H])C(C([H])([H])[H])(C([H])([H])[H])C([H])([H])[H])C([H])([H])c2c([H])c(OC([H])([H])C3([H])C4(C([H])([H])C([H])([H])C(C([H])([H])N([H])C(=O)N5C([H])([H])C([H])([H])C([H])([H])C([H])(n6nc(-c7c([H])c([H])c(Oc8c([H])c([H])c(F)c([H])c8F)c([H])c7[H])c(C(=O)N([H])[H])c6N([H])[H])C5([H])[H])(C([H])([H])C([H])(C([H])([H])[H])C([H])([H])C([H])([H])[H])C4([H])[H])C([H])([H])C([H])([H])[N+]3([H])[H])c([H])c([H])c2C1([H])[H]

>  <smiles>  (27) 
[H]c1c([H])c([H])c2c(c1[H])C([H])([H])C([H])([H])C([H])([H])C2([H])N([H])C(=O)C1([H])N(C(=O)C([H])(N([H])C(=O)C([H])(N([H])C([H])([H])[H])C([H])([H])[H])C(C([H])([H])[H])(C([H])([H])[H])C([H])([H])[H])C([H])([H])c2c([H])c(OC([H])([H])C3([H])C4(C([H])([H])C([H])([H])C(C([H])([H])N([H])C(=O)N5C([H])([H])C([H])([H])C([H])([H])C([H])(n6nc(-c7c([H])c([H])c(Oc8c([H])c([H])c(F)c([H])c8F)c([H])c7[H])c(C(=O)N([H])[H])c6N([H])[H])C5([H])[H])(C([H])([H])C([H])(C([H])([H])[H])C([H])([H])C([H])([H])[H])C4([H])[H])C([H])([H])C([H])([H])[N+]3([H])[H])c([H])c([H])c2C1([H])[H]

$$$$
28:0:0
     RDKit          3D

 92101  0  0  1  0  0  0  0  0999 V2000
  -29.7930  -22.5400   18.8660 C   0  0  0  0  0  2  0  0  0  0  0  0
  -30.7280  -20.1570   19.4930 C   0  0  0  0  0  2  0  0  0  0  0  0
  -28.6960  -22.0170   21.0030 C   0  0  0  0  0  2  0  0  0  0  0  0
  -29.5940  -21.0310   18.9460 C   0  0  0  0  0  3  0  0  0  0  0  0
  -28.7890  -20.7050   20.1990 C   0  0  0  0  0  3  0  0  0  0  0  0
  -29.6670  -23.0220   20.3250 C   0  0  0  0  0  3  0  0  0  0  0  0
  -29.7860  -19.5590   20.5510 C   0  0  0  0  0  3  0  0  0  0  0  0
  -29.4710  -24.5530   20.5560 C   0  0  0  0  0  2  0  0  0  0  0  0
  -28.2380  -25.2520   19.9360 C   0  0  0  0  0  2  0  0  0  0  0  0
  -28.3050  -26.6730   20.1820 O   0  0  0  0  0  0  0  0  0  0  0  0
  -24.5090  -31.8800   23.2150 C   0  0  0  0  0  0  0  0  0  0  0  0
  -27.1310  -27.4060   20.1460 C   0  0  0  0  0  0  0  0  0  0  0  0
  -23.2960  -30.4770   21.5780 C   0  0  0  0  0  3  0  0  0  0  0  0
  -24.7420  -28.9330   20.1530 C   0  0  0  0  0  0  0  0  0  0  0  0
  -25.8240  -30.8270   21.3740 C   0  0  0  0  0  2  0  0  0  0  0  0
  -25.9040  -29.4530   20.7350 C   0  0  0  0  0  0  0  0  0  0  0  0
  -27.1000  -28.6970   20.7270 C   0  0  0  0  0  3  0  0  0  0  0  0
  -25.9480  -26.9070   19.5500 C   0  0  0  0  0  3  0  0  0  0  0  0
  -24.7590  -27.6600   19.5580 C   0  0  0  0  0  3  0  0  0  0  0  0
  -23.5020  -29.7970   20.1980 C   0  0  0  0  0  2  0  0  0  0  0  0
  -24.5610  -31.0760   22.1130 N   0  0  0  0  0  0  0  0  0  0  0  0
  -23.4300  -32.1560   23.7560 O   0  0  0  0  0  0  0  0  0  0  0  0
  -22.6450  -29.4580   22.5420 C   0  0  0  0  0  0  0  0  0  0  0  0
  -21.3220  -29.2740   22.4130 N   0  0  0  0  0  0  0  0  0  0  0  0
  -23.3280  -28.8390   23.3610 O   0  0  0  0  0  0  0  0  0  0  0  0
  -20.8320  -29.8240   21.7210 H   0  0  0  0  0  0  0  0  0  0  0  0
  -17.9500  -28.0700   22.9000 C   0  0  0  0  0  0  0  0  0  0  0  0
  -20.5050  -28.3370   23.1850 C   0  0  0  0  0  3  0  0  0  0  0  0
  -20.6150  -26.9030   22.6190 C   0  0  0  0  0  2  0  0  0  0  0  0
  -19.5200  -26.5690   21.6010 C   0  0  0  0  0  2  0  0  0  0  0  0
  -18.1350  -26.7150   22.2350 C   0  0  0  0  0  2  0  0  0  0  0  0
  -19.0620  -28.8370   23.3320 C   0  0  0  0  0  0  0  0  0  0  0  0
  -18.8370  -30.1050   23.9100 C   0  0  0  0  0  3  0  0  0  0  0  0
  -17.5300  -30.6040   24.0650 C   0  0  0  0  0  3  0  0  0  0  0  0
  -16.4310  -29.8320   23.6520 C   0  0  0  0  0  3  0  0  0  0  0  0
  -16.6410  -28.5670   23.0740 C   0  0  0  0  0  3  0  0  0  0  0  0
  -25.7980  -32.5100   23.8290 C   0  0  0  0  0  3  0  0  0  0  0  0
  -25.4890  -33.9050   24.1690 N   0  0  0  0  0  0  0  0  0  0  0  0
  -25.7990  -34.9610   23.4040 C   0  0  0  0  0  0  0  0  0  0  0  0
  -26.4480  -34.8620   22.3590 O   0  0  0  0  0  0  0  0  0  0  0  0
  -24.9160  -34.0560   24.9860 H   0  0  0  0  0  0  0  0  0  0  0  0
  -24.0470  -36.7370   23.0920 C   0  0  0  0  0  1  0  0  0  0  0  0
  -25.3120  -36.3450   23.8730 C   0  0  0  0  0  3  0  0  0  0  0  0
  -27.4590  -37.2480   24.6470 C   0  0  0  0  0  1  0  0  0  0  0  0
  -26.3320  -37.4070   23.7330 N   0  0  0  0  0  0  0  0  0  0  0  0
  -25.9220  -38.3240   23.8890 H   0  0  0  0  0  0  0  0  0  0  0  0
  -26.3270  -31.7320   25.0960 C   0  0  1  0  0  0  0  0  0  0  0  0
  -25.2430  -31.4850   26.1720 C   0  0  0  0  0  1  0  0  0  0  0  0
  -26.9110  -30.3590   24.6900 C   0  0  0  0  0  1  0  0  0  0  0  0
  -27.4800  -32.5250   25.7560 C   0  0  0  0  0  1  0  0  0  0  0  0
  -29.3850  -18.0570   20.4190 C   0  0  0  0  0  2  0  0  0  0  0  0
  -30.4520  -17.0010   20.8790 C   0  0  0  0  0  3  0  0  0  0  0  0
  -30.6980  -14.4870   20.2910 C   0  0  0  0  0  0  0  0  0  0  0  0
  -30.3470  -12.3040   19.2050 C   0  0  0  0  0  2  0  0  0  0  0  0
  -29.3990  -12.4880   18.0040 C   0  0  0  0  0  2  0  0  0  0  0  0
  -27.9300  -12.3620   18.4520 C   0  0  0  0  0  2  0  0  0  0  0  0
  -27.6070  -13.2270   19.7000 C   0  0  0  0  0  3  0  0  0  0  0  0
  -28.6780  -13.0550   20.8030 C   0  0  0  0  0  2  0  0  0  0  0  0
  -29.9920  -13.3280   20.2010 N   0  0  0  0  0  0  0  0  0  0  0  0
  -31.8560  -14.5610   19.8740 O   0  0  0  0  0  0  0  0  0  0  0  0
  -30.0020  -15.5900   20.6620 N   0  0  0  0  0  0  0  0  0  0  0  0
  -29.0430  -15.4090   20.9080 H   0  0  0  0  0  0  0  0  0  0  0  0
  -25.2310  -13.8460   20.4640 C   0  0  0  0  0  0  0  0  0  0  0  0
  -24.1620  -13.0800   20.8440 C   0  0  0  0  0  0  0  0  0  0  0  0
  -24.6100  -11.7240   20.7930 C   0  0  0  0  0  0  0  0  0  0  0  0
  -26.2630  -12.9580   20.2050 N   0  0  0  0  0  0  0  0  0  0  0  0
  -25.8940  -11.6760   20.4630 N   0  0  0  0  0  0  0  0  0  0  0  0
  -23.8740  -10.4670   20.9820 C   0  0  0  0  0  0  0  0  0  0  0  0
  -24.3130   -9.4830   21.8950 C   0  0  0  0  0  3  0  0  0  0  0  0
  -23.5780   -8.2920   22.0720 C   0  0  0  0  0  3  0  0  0  0  0  0
  -22.3910   -8.0750   21.3350 C   0  0  0  0  0  0  0  0  0  0  0  0
  -21.9700   -9.0460   20.4090 C   0  0  0  0  0  3  0  0  0  0  0  0
  -22.7060  -10.2300   20.2310 C   0  0  0  0  0  3  0  0  0  0  0  0
  -21.6250   -6.9370   21.4220 O   0  0  0  0  0  0  0  0  0  0  0  0
  -21.5940   -6.1770   22.5640 C   0  0  0  0  0  0  0  0  0  0  0  0
  -21.2040   -6.7180   23.8090 C   0  0  0  0  0  3  0  0  0  0  0  0
  -21.1200   -5.8850   24.9430 C   0  0  0  0  0  3  0  0  0  0  0  0
  -21.4140   -4.5120   24.8320 C   0  0  0  0  0  0  0  0  0  0  0  0
  -21.7960   -3.9720   23.5920 C   0  0  0  0  0  3  0  0  0  0  0  0
  -21.8830   -4.8020   22.4610 C   0  0  0  0  0  0  0  0  0  0  0  0
  -22.2320   -4.2720   21.2640 F   0  0  0  0  0  0  0  0  0  0  0  0
  -21.3250   -3.7100   25.9180 F   0  0  0  0  0  0  0  0  0  0  0  0
  -22.7740  -13.5690   21.1420 C   0  0  0  0  0  0  0  0  0  0  0  0
  -22.0510  -12.8730   22.0130 N   0  0  0  0  0  0  0  0  0  0  0  0
  -22.3380  -14.6040   20.6380 O   0  0  0  0  0  0  0  0  0  0  0  0
  -22.4150  -12.0370   22.4440 H   0  0  0  0  0  0  0  0  0  0  0  0
  -21.1200  -13.1850   22.2530 H   0  0  0  0  0  0  0  0  0  0  0  0
  -25.4070  -15.2160   20.2940 N   0  0  0  0  0  0  0  0  0  0  0  0
  -24.6460  -15.8760   20.4150 H   0  0  0  0  0  0  0  0  0  0  0  0
  -26.2460  -15.6450   19.9240 H   0  0  0  0  0  0  0  0  0  0  0  0
  -31.8770  -17.3380   20.3880 C   0  0  0  0  0  3  0  0  0  0  0  0
  -32.7950  -17.7020   21.1270 O   0  0  0  0  0  0  0  0  0  0  0  0
  1  6  1  0
  2  7  1  0
  4  1  1  0
  4  2  1  0
  4  5  1  0
  5  7  1  0
  5  3  1  0
  6  8  1  0
  6  3  1  0
  7 51  1  0
  9 10  1  0
  9  8  1  0
 11 22  2  0
 12 10  1  0
 12 17  1  0
 13 21  1  0
 13 23  1  0
 14 20  1  0
 14 16  1  0
 15 21  1  0
 16 15  1  0
 17 16  2  0
 18 19  1  0
 18 12  2  0
 19 14  2  0
 20 13  1  0
 21 11  1  0
 23 25  2  0
 24 23  1  0
 26 24  1  0
 27 36  2  0
 27 32  1  0
 28 24  1  0
 28 32  1  0
 29 28  1  0
 30 31  1  0
 30 29  1  0
 31 27  1  0
 32 33  2  0
 33 34  1  0
 35 34  2  0
 36 35  1  0
 37 11  1  0
 37 38  1  0
 37 47  1  0
 38 41  1  0
 39 43  1  0
 39 38  1  0
 40 39  2  0
 43 42  1  0
 45 43  1  0
 45 46  1  0
 45 44  1  0
 47 50  1  1
 47 48  1  0
 49 47  1  0
 51 52  1  0
 52 91  1  0
 53 61  1  0
 54 59  1  0
 55 56  1  0
 55 54  1  0
 57 56  1  0
 57 66  1  0
 57 58  1  0
 59 53  1  0
 59 58  1  0
 60 53  2  0
 61 52  1  0
 61 62  1  0
 63 64  2  0
 64 83  1  0
 65 64  1  0
 65 68  1  0
 66 67  1  0
 66 63  1  0
 67 65  2  0
 68 69  1  0
 69 70  2  0
 71 74  1  0
 71 70  1  0
 72 71  2  0
 73 72  1  0
 73 68  2  0
 74 75  1  0
 75 76  1  0
 76 77  2  0
 78 77  1  0
 78 82  1  0
 79 78  2  0
 80 75  2  0
 80 79  1  0
 81 80  1  0
 83 84  1  0
 84 87  1  0
 84 86  1  0
 85 83  2  0
 88 89  1  0
 88 63  1  0
 90 88  1  0
 91 92  2  0
M  ISO  4   9 101  10 101  53 100  61 100
M  END
>  <TORSDO>  (28) 
F 21

>  <SCORE>  (28) 
-13.597

>  <name>  (28) 
28

>  <ligand_id>  (28) 
28

>  <original_smiles>  (28) 
[H]C(=O)C([H])(N([H])C(=O)N1C([H])([H])C([H])([H])C([H])([H])C([H])(n2nc(-c3c([H])c([H])c(Oc4c([H])c([H])c(F)c([H])c4F)c([H])c3[H])c(C(=O)N([H])[H])c2N([H])[H])C1([H])[H])C([H])([H])C1([H])C([H])([H])C2([H])C([H])([H])C([H])(C([H])([H])C([H])([H])Oc3c([H])c([H])c4c(c3[H])C([H])([H])N(C(=O)C([H])(N([H])C(=O)C([H])(N([H])C([H])([H])[H])C([H])([H])[H])C(C([H])([H])[H])(C([H])([H])[H])C([H])([H])[H])C([H])(C(=O)N([H])C3([H])c5c([H])c([H])c([H])c([H])c5C([H])([H])C([H])([H])C3([H])[H])C4([H])[H])C([H])([H])C12[H]

>  <smiles>  (28) 
[H]C(=O)C([H])(N([H])C(=O)N1C([H])([H])C([H])([H])C([H])([H])C([H])(n2nc(-c3c([H])c([H])c(Oc4c([H])c([H])c(F)c([H])c4F)c([H])c3[H])c(C(=O)N([H])[H])c2N([H])[H])C1([H])[H])C([H])([H])C1([H])C([H])([H])C2([H])C([H])([H])C([H])(C([H])([H])C([H])([H])Oc3c([H])c([H])c4c(c3[H])C([H])([H])N(C(=O)C([H])(N([H])C(=O)C([H])(N([H])C([H])([H])[H])C([H])([H])[H])C(C([H])([H])[H])(C([H])([H])[H])C([H])([H])[H])C([H])(C(=O)N([H])C3([H])c5c([H])c([H])c([H])c([H])c5C([H])([H])C([H])([H])C3([H])[H])C4([H])[H])C([H])([H])C12[H]

$$$$
29:0:0
     RDKit          3D

100109  0  0  1  0  0  0  0  0999 V2000
  -30.4050  -22.8350   20.7300 C   0  0  0  0  0  2  0  0  0  0  0  0
  -31.2550  -21.8750   21.5750 C   0  0  0  0  0  2  0  0  0  0  0  0
  -29.0970  -23.5050   22.8010 C   0  0  0  0  0  2  0  0  0  0  0  0
  -29.8300  -24.0170   21.5370 C   0  0  0  0  0  3  0  0  0  0  0  0
  -30.4710  -21.3620   22.8010 C   0  0  0  0  0  3  0  0  0  0  0  0
  -29.9570  -22.5480   23.6610 C   0  0  0  0  0  3  0  0  0  0  0  0
  -31.0490  -23.2770   24.3430 N   0  0  0  0  0  4  0  0  0  0  0  0
  -31.6860  -23.6910   23.6860 H   0  0  0  0  0  0  0  0  0  0  0  0
  -31.5670  -22.6680   24.9480 H   0  0  0  0  0  0  0  0  0  0  0  0
  -30.6680  -24.0110   24.9150 H   0  0  0  0  0  0  0  0  0  0  0  0
  -31.2220  -20.2810   23.6220 C   0  0  0  0  0  2  0  0  0  0  0  0
  -32.2870  -17.7770   20.9250 C   0  0  0  0  0  3  0  0  0  0  0  0
  -32.0960  -18.9660   21.6500 C   0  0  0  0  0  3  0  0  0  0  0  0
  -31.1070  -16.5380   22.6560 C   0  0  0  0  0  3  0  0  0  0  0  0
  -31.7930  -16.5550   21.4240 C   0  0  0  0  0  0  0  0  0  0  0  0
  -31.4050  -18.9590   22.8810 C   0  0  0  0  0  0  0  0  0  0  0  0
  -30.9130  -17.7290   23.3900 C   0  0  0  0  0  0  0  0  0  0  0  0
  -30.1920  -17.6500   24.7260 C   0  0  0  0  0  1  0  0  0  0  0  0
  -32.0710  -15.2710   20.6580 C   0  0  0  0  0  2  0  0  0  0  0  0
  -30.6500  -14.0750   19.0080 C   0  0  0  0  0  0  0  0  0  0  0  0
  -29.9790  -11.9520   17.9550 C   0  0  0  0  0  2  0  0  0  0  0  0
  -28.7720  -12.0470   17.0100 C   0  0  0  0  0  2  0  0  0  0  0  0
  -27.4620  -11.8950   17.7980 C   0  0  0  0  0  2  0  0  0  0  0  0
  -27.3940  -12.8530   19.0140 C   0  0  0  0  0  3  0  0  0  0  0  0
  -28.6800  -12.7700   19.8660 C   0  0  0  0  0  2  0  0  0  0  0  0
  -29.8520  -12.9820   18.9950 N   0  0  0  0  0  0  0  0  0  0  0  0
  -31.3170  -14.4470   18.0370 O   0  0  0  0  0  0  0  0  0  0  0  0
  -30.8800  -14.5340   20.2420 N   0  0  0  0  0  0  0  0  0  0  0  0
  -30.3280  -14.1160   20.9770 H   0  0  0  0  0  0  0  0  0  0  0  0
  -25.3220  -13.5090   20.3950 C   0  0  0  0  0  0  0  0  0  0  0  0
  -24.3300  -12.7590   20.9700 C   0  0  0  0  0  0  0  0  0  0  0  0
  -24.6580  -11.3960   20.6970 C   0  0  0  0  0  0  0  0  0  0  0  0
  -26.1980  -12.6040   19.8160 N   0  0  0  0  0  0  0  0  0  0  0  0
  -25.8140  -11.3220   20.0490 N   0  0  0  0  0  0  0  0  0  0  0  0
  -23.9110  -10.1610   20.9660 C   0  0  0  0  0  0  0  0  0  0  0  0
  -24.4120   -9.1710   21.8390 C   0  0  0  0  0  3  0  0  0  0  0  0
  -23.6670   -8.0000   22.0980 C   0  0  0  0  0  3  0  0  0  0  0  0
  -22.4070   -7.8110   21.4820 C   0  0  0  0  0  0  0  0  0  0  0  0
  -21.9240   -8.7890   20.5950 C   0  0  0  0  0  3  0  0  0  0  0  0
  -22.6690   -9.9510   20.3350 C   0  0  0  0  0  3  0  0  0  0  0  0
  -21.6260   -6.6940   21.6520 O   0  0  0  0  0  0  0  0  0  0  0  0
  -21.5750   -6.0260   22.8500 C   0  0  0  0  0  0  0  0  0  0  0  0
  -21.1410   -6.6560   24.0360 C   0  0  0  0  0  3  0  0  0  0  0  0
  -21.0390   -5.9130   25.2310 C   0  0  0  0  0  3  0  0  0  0  0  0
  -21.3600   -4.5430   25.2380 C   0  0  0  0  0  0  0  0  0  0  0  0
  -21.7880   -3.9130   24.0560 C   0  0  0  0  0  3  0  0  0  0  0  0
  -21.8920   -4.6520   22.8640 C   0  0  0  0  0  0  0  0  0  0  0  0
  -22.2840   -4.0360   21.7230 F   0  0  0  0  0  0  0  0  0  0  0  0
  -21.2550   -3.8280   26.3820 F   0  0  0  0  0  0  0  0  0  0  0  0
  -23.0970  -13.2770   21.6530 C   0  0  0  0  0  0  0  0  0  0  0  0
  -22.5840  -12.5410   22.6320 N   0  0  0  0  0  0  0  0  0  0  0  0
  -22.6100  -14.3660   21.3530 O   0  0  0  0  0  0  0  0  0  0  0  0
  -22.9970  -11.6570   22.8920 H   0  0  0  0  0  0  0  0  0  0  0  0
  -21.7670  -12.8640   23.1290 H   0  0  0  0  0  0  0  0  0  0  0  0
  -25.5400  -14.8800   20.3020 N   0  0  0  0  0  0  0  0  0  0  0  0
  -24.8890  -15.5610   20.6780 H   0  0  0  0  0  0  0  0  0  0  0  0
  -26.3230  -15.3080   19.8190 H   0  0  0  0  0  0  0  0  0  0  0  0
  -28.9150  -24.8600   20.6240 C   0  0  0  0  0  2  0  0  0  0  0  0
  -28.5740  -26.2690   21.1330 C   0  0  0  0  0  2  0  0  0  0  0  0
  -28.1590  -27.0020   19.9920 O   0  0  0  0  0  0  0  0  0  0  0  0
  -24.3920  -32.0850   23.2970 C   0  0  0  0  0  0  0  0  0  0  0  0
  -26.9910  -27.7040   20.1230 C   0  0  0  0  0  0  0  0  0  0  0  0
  -23.1500  -30.6770   21.6840 C   0  0  0  0  0  3  0  0  0  0  0  0
  -24.5760  -29.1510   20.2220 C   0  0  0  0  0  0  0  0  0  0  0  0
  -25.6620  -31.0620   21.4160 C   0  0  0  0  0  2  0  0  0  0  0  0
  -25.7420  -29.6920   20.7830 C   0  0  0  0  0  0  0  0  0  0  0  0
  -26.9540  -28.9710   20.7420 C   0  0  0  0  0  3  0  0  0  0  0  0
  -25.8160  -27.1680   19.5620 C   0  0  0  0  0  3  0  0  0  0  0  0
  -24.6040  -27.8820   19.6170 C   0  0  0  0  0  3  0  0  0  0  0  0
  -23.3260  -29.9970   20.3000 C   0  0  0  0  0  2  0  0  0  0  0  0
  -24.4200  -31.2890   22.1910 N   0  0  0  0  0  0  0  0  0  0  0  0
  -23.3260  -32.3470   23.8680 O   0  0  0  0  0  0  0  0  0  0  0  0
  -22.5360  -29.6480   22.6600 C   0  0  0  0  0  0  0  0  0  0  0  0
  -21.2330  -29.3690   22.4910 N   0  0  0  0  0  0  0  0  0  0  0  0
  -23.2300  -29.1020   23.5220 O   0  0  0  0  0  0  0  0  0  0  0  0
  -20.7340  -29.8630   21.7650 H   0  0  0  0  0  0  0  0  0  0  0  0
  -17.9570  -27.8890   22.8390 C   0  0  0  0  0  0  0  0  0  0  0  0
  -20.4530  -28.4070   23.2670 C   0  0  0  0  0  3  0  0  0  0  0  0
  -20.7280  -26.9600   22.7970 C   0  0  0  0  0  2  0  0  0  0  0  0
  -19.7390  -26.4720   21.7340 C   0  0  0  0  0  2  0  0  0  0  0  0
  -18.3050  -26.5230   22.2720 C   0  0  0  0  0  2  0  0  0  0  0  0
  -18.9660  -28.7800   23.2910 C   0  0  0  0  0  0  0  0  0  0  0  0
  -18.5900  -30.0520   23.7760 C   0  0  0  0  0  3  0  0  0  0  0  0
  -17.2370  -30.4360   23.8160 C   0  0  0  0  0  3  0  0  0  0  0  0
  -16.2410  -29.5440   23.3810 C   0  0  0  0  0  3  0  0  0  0  0  0
  -16.6010  -28.2730   22.8990 C   0  0  0  0  0  3  0  0  0  0  0  0
  -25.6930  -32.7200   23.8800 C   0  0  0  0  0  3  0  0  0  0  0  0
  -25.4120  -34.1380   24.1400 N   0  0  0  0  0  0  0  0  0  0  0  0
  -25.7500  -35.1410   23.3200 C   0  0  0  0  0  0  0  0  0  0  0  0
  -26.4060  -34.9720   22.2860 O   0  0  0  0  0  0  0  0  0  0  0  0
  -24.8320  -34.3440   24.9400 H   0  0  0  0  0  0  0  0  0  0  0  0
  -24.0440  -36.9370   22.8860 C   0  0  0  0  0  1  0  0  0  0  0  0
  -25.2890  -36.5600   23.7050 C   0  0  0  0  0  3  0  0  0  0  0  0
  -27.4490  -37.4510   24.4610 C   0  0  0  0  0  1  0  0  0  0  0  0
  -26.3350  -37.5890   23.5250 N   0  0  0  0  0  0  0  0  0  0  0  0
  -25.9450  -38.5210   23.6340 H   0  0  0  0  0  0  0  0  0  0  0  0
  -26.2040  -32.0010   25.1890 C   0  0  1  0  0  0  0  0  0  0  0  0
  -25.0990  -31.7770   26.2470 C   0  0  0  0  0  1  0  0  0  0  0  0
  -26.8200  -30.6230   24.8500 C   0  0  0  0  0  1  0  0  0  0  0  0
  -27.3290  -32.8380   25.8430 C   0  0  0  0  0  1  0  0  0  0  0  0
  1  4  1  0
  1  2  1  0
  2  5  1  0
  3  6  1  0
  4 58  1  0
  4  3  1  0
  5 11  1  0
  5  6  1  0
  6  7  1  0
  7 10  1  0
  7  9  1  0
  8  7  1  0
 12 15  2  0
 12 13  1  0
 13 16  2  0
 14 17  2  0
 15 14  1  0
 16 17  1  0
 16 11  1  0
 17 18  1  0
 19 15  1  0
 20 28  1  0
 21 26  1  0
 22 23  1  0
 22 21  1  0
 24 23  1  0
 24 33  1  0
 24 25  1  0
 26 20  1  0
 26 25  1  0
 27 20  2  0
 28 19  1  0
 28 29  1  0
 30 31  2  0
 31 50  1  0
 32 35  1  0
 32 31  1  0
 33 34  1  0
 33 30  1  0
 34 32  2  0
 35 36  1  0
 36 37  2  0
 38 41  1  0
 38 37  1  0
 39 38  2  0
 40 39  1  0
 40 35  2  0
 41 42  1  0
 42 47  2  0
 42 43  1  0
 43 44  2  0
 44 45  1  0
 45 49  1  0
 46 45  2  0
 47 46  1  0
 48 47  1  0
 50 51  1  0
 51 53  1  0
 51 54  1  0
 52 50  2  0
 55 30  1  0
 55 56  1  0
 57 55  1  0
 58 59  1  0
 60 62  1  0
 60 59  1  0
 61 72  2  0
 62 67  1  0
 63 71  1  0
 63 73  1  0
 64 70  1  0
 64 66  1  0
 65 71  1  0
 66 65  1  0
 67 66  2  0
 68 69  1  0
 68 62  2  0
 69 64  2  0
 70 63  1  0
 71 61  1  0
 73 75  2  0
 74 73  1  0
 76 74  1  0
 77 86  2  0
 77 82  1  0
 78 74  1  0
 78 82  1  0
 79 78  1  0
 80 81  1  0
 80 79  1  0
 81 77  1  0
 82 83  2  0
 83 84  1  0
 85 84  2  0
 86 85  1  0
 87 61  1  0
 87 88  1  0
 87 97  1  0
 88 91  1  0
 89 93  1  0
 89 88  1  0
 90 89  2  0
 93 92  1  0
 95 96  1  0
 95 93  1  0
 95 94  1  0
 97100  1  1
 97 98  1  0
 99 97  1  0
M  ISO  4  20 100  28 100  59 101  60 101
M  END
>  <TORSDO>  (29) 
F 22

>  <SCORE>  (29) 
-6.717

>  <name>  (29) 
29

>  <ligand_id>  (29) 
29

>  <original_smiles>  (29) 
[H]c1c([H])c([H])c2c(c1[H])C([H])([H])C([H])([H])C([H])([H])C2([H])N([H])C(=O)C1([H])N(C(=O)C([H])(N([H])C(=O)C([H])(N([H])C([H])([H])[H])C([H])([H])[H])C(C([H])([H])[H])(C([H])([H])[H])C([H])([H])[H])C([H])([H])c2c([H])c(OC([H])([H])C([H])([H])C3([H])C([H])([H])C([H])([H])C([H])(C([H])([H])c4c([H])c([H])c(C([H])([H])N([H])C(=O)N5C([H])([H])C([H])([H])C([H])([H])C([H])(n6nc(-c7c([H])c([H])c(Oc8c([H])c([H])c(F)c([H])c8F)c([H])c7[H])c(C(=O)N([H])[H])c6N([H])[H])C5([H])[H])c([H])c4C([H])([H])[H])C([H])([N+]([H])([H])[H])C3([H])[H])c([H])c([H])c2C1([H])[H]

>  <smiles>  (29) 
[H]c1c([H])c([H])c2c(c1[H])C([H])([H])C([H])([H])C([H])([H])C2([H])N([H])C(=O)C1([H])N(C(=O)C([H])(N([H])C(=O)C([H])(N([H])C([H])([H])[H])C([H])([H])[H])C(C([H])([H])[H])(C([H])([H])[H])C([H])([H])[H])C([H])([H])c2c([H])c(OC([H])([H])C([H])([H])C3([H])C([H])([H])C([H])([H])C([H])(C([H])([H])c4c([H])c([H])c(C([H])([H])N([H])C(=O)N5C([H])([H])C([H])([H])C([H])([H])C([H])(n6nc(-c7c([H])c([H])c(Oc8c([H])c([H])c(F)c([H])c8F)c([H])c7[H])c(C(=O)N([H])[H])c6N([H])[H])C5([H])[H])c([H])c4C([H])([H])[H])C([H])([N+]([H])([H])[H])C3([H])[H])c([H])c([H])c2C1([H])[H]

$$$$
30:0:0
     RDKit          3D

 93103  0  0  1  0  0  0  0  0999 V2000
  -28.9110  -22.4670   20.1790 C   0  0  0  0  0  0  0  0  0  0  0  0
  -27.9940  -22.1770   20.9530 O   0  0  0  0  0  0  0  0  0  0  0  0
  -31.3410  -21.6600   20.2980 C   0  0  0  0  0  2  0  0  0  0  0  0
  -31.5340  -20.9230   21.6410 C   0  0  0  0  0  2  0  0  0  0  0  0
  -30.6090  -18.4420   21.7370 C   0  0  0  0  0  2  0  0  0  0  0  0
  -29.9290  -21.3020   19.7690 C   0  0  0  0  0  3  0  0  0  0  0  0
  -30.3670  -19.9470   21.7700 C   0  0  0  0  0  3  0  0  0  0  0  0
  -29.6800  -19.8610   20.4050 C   0  0  0  0  0  3  0  0  0  0  0  0
  -30.5540  -18.5110   20.2100 C   0  0  0  0  0  3  0  0  0  0  0  0
  -30.1410  -17.1950   19.4340 C   0  0  0  0  0  2  0  0  0  0  0  0
  -30.9170  -14.7780   19.9960 C   0  0  0  0  0  0  0  0  0  0  0  0
  -30.6730  -12.4820   19.1070 C   0  0  0  0  0  2  0  0  0  0  0  0
  -29.6930  -12.5590   17.9170 C   0  0  0  0  0  2  0  0  0  0  0  0
  -28.2340  -12.4260   18.3990 C   0  0  0  0  0  2  0  0  0  0  0  0
  -27.9180  -13.3340   19.6190 C   0  0  0  0  0  3  0  0  0  0  0  0
  -29.0200  -13.2520   20.7030 C   0  0  0  0  0  2  0  0  0  0  0  0
  -30.3040  -13.5530   20.0530 N   0  0  0  0  0  0  0  0  0  0  0  0
  -32.0650  -14.9020   19.5700 O   0  0  0  0  0  0  0  0  0  0  0  0
  -30.1080  -15.8710   20.1660 N   0  0  0  0  0  0  0  0  0  0  0  0
  -29.2100  -15.6370   20.5590 H   0  0  0  0  0  0  0  0  0  0  0  0
  -25.5740  -13.9570   20.4690 C   0  0  0  0  0  0  0  0  0  0  0  0
  -24.5120  -13.1930   20.8690 C   0  0  0  0  0  0  0  0  0  0  0  0
  -24.9440  -11.8360   20.7800 C   0  0  0  0  0  0  0  0  0  0  0  0
  -26.5880  -13.0650   20.1620 N   0  0  0  0  0  0  0  0  0  0  0  0
  -26.2160  -11.7810   20.4050 N   0  0  0  0  0  0  0  0  0  0  0  0
  -24.2010  -10.5830   20.9710 C   0  0  0  0  0  0  0  0  0  0  0  0
  -24.6130   -9.6110   21.9090 C   0  0  0  0  0  3  0  0  0  0  0  0
  -23.8660   -8.4260   22.0860 C   0  0  0  0  0  3  0  0  0  0  0  0
  -22.6960   -8.2050   21.3220 C   0  0  0  0  0  0  0  0  0  0  0  0
  -22.3030   -9.1650   20.3740 C   0  0  0  0  0  3  0  0  0  0  0  0
  -23.0500  -10.3400   20.1960 C   0  0  0  0  0  3  0  0  0  0  0  0
  -21.9240   -7.0690   21.4050 O   0  0  0  0  0  0  0  0  0  0  0  0
  -21.8090   -6.3620   22.5750 C   0  0  0  0  0  0  0  0  0  0  0  0
  -21.2850   -6.9470   23.7480 C   0  0  0  0  0  3  0  0  0  0  0  0
  -21.1160   -6.1680   24.9090 C   0  0  0  0  0  3  0  0  0  0  0  0
  -21.4630   -4.8030   24.9000 C   0  0  0  0  0  0  0  0  0  0  0  0
  -21.9830   -4.2180   23.7330 C   0  0  0  0  0  3  0  0  0  0  0  0
  -22.1510   -4.9950   22.5720 C   0  0  0  0  0  0  0  0  0  0  0  0
  -22.6300   -4.4200   21.4420 F   0  0  0  0  0  0  0  0  0  0  0  0
  -21.2970   -4.0530   26.0150 F   0  0  0  0  0  0  0  0  0  0  0  0
  -23.1400  -13.6920   21.2220 C   0  0  0  0  0  0  0  0  0  0  0  0
  -22.4460  -12.9870   22.1070 N   0  0  0  0  0  0  0  0  0  0  0  0
  -22.6990  -14.7410   20.7560 O   0  0  0  0  0  0  0  0  0  0  0  0
  -22.8150  -12.1350   22.5000 H   0  0  0  0  0  0  0  0  0  0  0  0
  -21.5300  -13.3030   22.3900 H   0  0  0  0  0  0  0  0  0  0  0  0
  -25.7530  -15.3300   20.3190 N   0  0  0  0  0  0  0  0  0  0  0  0
  -25.0010  -15.9870   20.4950 H   0  0  0  0  0  0  0  0  0  0  0  0
  -26.5760  -15.7700   19.9280 H   0  0  0  0  0  0  0  0  0  0  0  0
  -28.9070  -24.0960   18.1320 C   0  0  0  0  0  2  0  0  0  0  0  0
  -30.2090  -24.3660   18.8220 C   0  0  0  0  0  2  0  0  0  0  0  0
  -28.9950  -23.9550   19.6440 C   0  0  2  0  0  0  0  0  0  0  0  0
  -28.2420  -25.0500   20.5030 C   0  0  0  0  0  2  0  0  0  0  0  0
  -28.4440  -26.5040   20.2460 O   0  0  0  0  0  0  0  0  0  0  0  0
  -24.6040  -31.8910   23.2060 C   0  0  0  0  0  0  0  0  0  0  0  0
  -27.3180  -27.3420   20.2130 C   0  0  0  0  0  0  0  0  0  0  0  0
  -23.4540  -30.4840   21.5360 C   0  0  0  0  0  3  0  0  0  0  0  0
  -24.9470  -28.9390   20.1520 C   0  0  0  0  0  0  0  0  0  0  0  0
  -25.9980  -30.8110   21.4240 C   0  0  0  0  0  2  0  0  0  0  0  0
  -26.1000  -29.4360   20.7740 C   0  0  0  0  0  0  0  0  0  0  0  0
  -27.2910  -28.6500   20.7900 C   0  0  0  0  0  3  0  0  0  0  0  0
  -26.1440  -26.8980   19.5660 C   0  0  0  0  0  3  0  0  0  0  0  0
  -24.9710  -27.6750   19.5390 C   0  0  0  0  0  3  0  0  0  0  0  0
  -23.7060  -29.8080   20.1660 C   0  0  0  0  0  2  0  0  0  0  0  0
  -24.7030  -31.0810   22.1120 N   0  0  0  0  0  0  0  0  0  0  0  0
  -23.5030  -32.1640   23.7080 O   0  0  0  0  0  0  0  0  0  0  0  0
  -22.7670  -29.4670   22.4780 C   0  0  0  0  0  0  0  0  0  0  0  0
  -21.4390  -29.3130   22.3390 N   0  0  0  0  0  0  0  0  0  0  0  0
  -23.4300  -28.8160   23.2900 O   0  0  0  0  0  0  0  0  0  0  0  0
  -20.9660  -29.8830   21.6530 H   0  0  0  0  0  0  0  0  0  0  0  0
  -18.0340  -28.2110   22.8500 C   0  0  0  0  0  0  0  0  0  0  0  0
  -20.6010  -28.3790   23.0910 C   0  0  0  0  0  3  0  0  0  0  0  0
  -20.6490  -26.9650   22.4680 C   0  0  0  0  0  2  0  0  0  0  0  0
  -19.5250  -26.7120   21.4590 C   0  0  0  0  0  2  0  0  0  0  0  0
  -18.1570  -26.8800   22.1270 C   0  0  0  0  0  2  0  0  0  0  0  0
  -19.1820  -28.9220   23.2880 C   0  0  0  0  0  0  0  0  0  0  0  0
  -19.0100  -30.1730   23.9230 C   0  0  0  0  0  3  0  0  0  0  0  0
  -17.7260  -30.7080   24.1220 C   0  0  0  0  0  3  0  0  0  0  0  0
  -16.5910  -29.9920   23.7010 C   0  0  0  0  0  3  0  0  0  0  0  0
  -16.7460  -28.7450   23.0710 C   0  0  0  0  0  3  0  0  0  0  0  0
  -25.8640  -32.5300   23.8660 C   0  0  0  0  0  3  0  0  0  0  0  0
  -26.3440  -31.7640   25.1590 C   0  0  1  0  0  0  0  0  0  0  0  0
  -25.2180  -31.5150   26.1890 C   0  0  0  0  0  1  0  0  0  0  0  0
  -26.9530  -30.3920   24.7890 C   0  0  0  0  0  1  0  0  0  0  0  0
  -27.4690  -32.5680   25.8550 C   0  0  0  0  0  1  0  0  0  0  0  0
  -25.5380  -33.9280   24.1870 N   0  0  0  0  0  0  0  0  0  0  0  0
  -25.8870  -34.9840   23.4390 C   0  0  0  0  0  0  0  0  0  0  0  0
  -26.5860  -34.8820   22.4280 O   0  0  0  0  0  0  0  0  0  0  0  0
  -24.9180  -34.0800   24.9700 H   0  0  0  0  0  0  0  0  0  0  0  0
  -24.1670  -36.7720   23.0290 C   0  0  0  0  0  1  0  0  0  0  0  0
  -25.3810  -36.3700   23.8830 C   0  0  0  0  0  3  0  0  0  0  0  0
  -27.4780  -37.2580   24.7990 C   0  0  0  0  0  1  0  0  0  0  0  0
  -26.4140  -37.4250   23.8110 N   0  0  0  0  0  0  0  0  0  0  0  0
  -26.0010  -38.3440   23.9430 H   0  0  0  0  0  0  0  0  0  0  0  0
  1  2  2  0
  3  4  1  0
  5  7  1  0
  6  1  1  0
  6  3  1  0
  6  8  1  0
  7  4  1  0
  8  7  1  0
  9  8  1  0
  9  5  1  0
 10 19  1  0
 10  9  1  0
 11 17  1  0
 11 19  1  0
 12 17  1  0
 13 14  1  0
 13 12  1  0
 14 15  1  0
 15 24  1  0
 15 16  1  0
 17 16  1  0
 18 11  2  0
 19 20  1  0
 21 22  2  0
 22 41  1  0
 23 22  1  0
 23 26  1  0
 24 25  1  0
 24 21  1  0
 25 23  2  0
 26 27  1  0
 27 28  2  0
 29 32  1  0
 29 28  1  0
 30 29  2  0
 31 30  1  0
 31 26  2  0
 32 33  1  0
 33 34  1  0
 34 35  2  0
 36 35  1  0
 36 40  1  0
 37 36  2  0
 38 33  2  0
 38 37  1  0
 39 38  1  0
 41 42  1  0
 42 45  1  0
 42 44  1  0
 43 41  2  0
 46 21  1  0
 46 47  1  0
 48 46  1  0
 49 50  1  0
 49 51  1  0
 50 51  1  0
 51  1  1  0
 51 52  1  1
 53 52  1  0
 54 65  2  0
 54 80  1  0
 55 53  1  0
 55 60  1  0
 56 64  1  0
 56 66  1  0
 57 63  1  0
 57 59  1  0
 58 64  1  0
 59 60  2  0
 59 58  1  0
 61 55  2  0
 62 61  1  0
 62 57  2  0
 63 56  1  0
 64 54  1  0
 66 68  2  0
 67 66  1  0
 67 71  1  0
 69 67  1  0
 70 79  2  0
 70 75  1  0
 71 75  1  0
 72 71  1  0
 73 74  1  0
 73 72  1  0
 74 70  1  0
 75 76  2  0
 76 77  1  0
 78 77  2  0
 79 78  1  0
 80 85  1  0
 80 81  1  0
 81 84  1  1
 81 82  1  0
 83 81  1  0
 85 88  1  0
 86 90  1  0
 86 85  1  0
 87 86  2  0
 89 90  1  0
 92 90  1  0
 92 93  1  0
 92 91  1  0
M  ISO  4  11 100  19 100  52 101  53 101
M  END
>  <TORSDO>  (30) 
F 20

>  <SCORE>  (30) 
-13.795

>  <name>  (30) 
30

>  <ligand_id>  (30) 
30

>  <original_smiles>  (30) 
[H]c1c([H])c([H])c2c(c1[H])C([H])([H])C([H])([H])C([H])([H])C2([H])N([H])C(=O)C1([H])N(C(=O)C([H])(N([H])C(=O)C([H])(N([H])C([H])([H])[H])C([H])([H])[H])C(C([H])([H])[H])(C([H])([H])[H])C([H])([H])[H])C([H])([H])c2c([H])c(OC([H])([H])C3(C(=O)C4([H])C([H])([H])C([H])([H])C5([H])C([H])([H])C([H])(C([H])([H])N([H])C(=O)N6C([H])([H])C([H])([H])C([H])([H])C([H])(n7nc(-c8c([H])c([H])c(Oc9c([H])c([H])c(F)c([H])c9F)c([H])c8[H])c(C(=O)N([H])[H])c7N([H])[H])C6([H])[H])C45[H])C([H])([H])C3([H])[H])c([H])c([H])c2C1([H])[H]

>  <smiles>  (30) 
[H]c1c([H])c([H])c2c(c1[H])C([H])([H])C([H])([H])C([H])([H])C2([H])N([H])C(=O)C1([H])N(C(=O)C([H])(N([H])C(=O)C([H])(N([H])C([H])([H])[H])C([H])([H])[H])C(C([H])([H])[H])(C([H])([H])[H])C([H])([H])[H])C([H])([H])c2c([H])c(OC([H])([H])C3(C(=O)C4([H])C([H])([H])C([H])([H])C5([H])C([H])([H])C([H])(C([H])([H])N([H])C(=O)N6C([H])([H])C([H])([H])C([H])([H])C([H])(n7nc(-c8c([H])c([H])c(Oc9c([H])c([H])c(F)c([H])c9F)c([H])c8[H])c(C(=O)N([H])[H])c7N([H])[H])C6([H])[H])C45[H])C([H])([H])C3([H])[H])c([H])c([H])c2C1([H])[H]

$$$$
31:0:0
     RDKit          3D

 92100  0  0  1  0  0  0  0  0999 V2000
  -31.4460  -21.5520   17.1960 C   0  0  0  0  0  2  0  0  0  0  0  0
  -30.4380  -20.3930   17.1850 C   0  0  0  0  0  2  0  0  0  0  0  0
  -32.3060  -21.6030   18.4770 C   0  0  0  0  0  2  0  0  0  0  0  0
  -30.7830  -19.3170   18.2210 C   0  0  0  0  0  2  0  0  0  0  0  0
  -31.5700  -21.2100   19.7780 C   0  0  0  0  0  3  0  0  0  0  0  0
  -30.7270  -19.9030   19.6530 C   0  0  0  0  0  3  0  0  0  0  0  0
  -30.8740  -22.3900   20.5070 C   0  0  0  0  0  2  0  0  0  0  0  0
  -29.8970  -23.2640   19.6950 C   0  0  0  0  0  2  0  0  0  0  0  0
  -29.4350  -24.5220   20.4580 C   0  0  0  0  0  2  0  0  0  0  0  0
  -28.4280  -25.3740   19.6650 C   0  0  0  0  0  2  0  0  0  0  0  0
  -28.3980  -26.7160   20.1710 O   0  0  0  0  0  0  0  0  0  0  0  0
  -24.6240  -31.8970   23.2560 C   0  0  0  0  0  0  0  0  0  0  0  0
  -27.2170  -27.4360   20.1350 C   0  0  0  0  0  0  0  0  0  0  0  0
  -23.3990  -30.5010   21.6250 C   0  0  0  0  0  3  0  0  0  0  0  0
  -24.8320  -28.9690   20.1770 C   0  0  0  0  0  0  0  0  0  0  0  0
  -25.9290  -30.8370   21.4190 C   0  0  0  0  0  2  0  0  0  0  0  0
  -25.9960  -29.4710   20.7670 C   0  0  0  0  0  0  0  0  0  0  0  0
  -27.1870  -28.7100   20.7510 C   0  0  0  0  0  3  0  0  0  0  0  0
  -26.0340  -26.9620   19.5170 C   0  0  0  0  0  3  0  0  0  0  0  0
  -24.8470  -27.7120   19.5500 C   0  0  0  0  0  3  0  0  0  0  0  0
  -23.5890  -29.8260   20.2410 C   0  0  0  0  0  2  0  0  0  0  0  0
  -24.6690  -31.0940   22.1540 N   0  0  0  0  0  0  0  0  0  0  0  0
  -23.5480  -32.1750   23.8020 O   0  0  0  0  0  0  0  0  0  0  0  0
  -22.7570  -29.4770   22.5860 C   0  0  0  0  0  0  0  0  0  0  0  0
  -21.4330  -29.2890   22.4580 N   0  0  0  0  0  0  0  0  0  0  0  0
  -23.4440  -28.8530   23.3990 O   0  0  0  0  0  0  0  0  0  0  0  0
  -20.9410  -29.8450   21.7720 H   0  0  0  0  0  0  0  0  0  0  0  0
  -18.0640  -28.0770   22.9450 C   0  0  0  0  0  0  0  0  0  0  0  0
  -20.6180  -28.3510   23.2300 C   0  0  0  0  0  3  0  0  0  0  0  0
  -20.7320  -26.9170   22.6630 C   0  0  0  0  0  2  0  0  0  0  0  0
  -19.6380  -26.5800   21.6450 C   0  0  0  0  0  2  0  0  0  0  0  0
  -18.2530  -26.7230   22.2820 C   0  0  0  0  0  2  0  0  0  0  0  0
  -19.1760  -28.8490   23.3740 C   0  0  0  0  0  0  0  0  0  0  0  0
  -18.9470  -30.1180   23.9510 C   0  0  0  0  0  3  0  0  0  0  0  0
  -17.6380  -30.6140   24.1010 C   0  0  0  0  0  3  0  0  0  0  0  0
  -16.5420  -29.8390   23.6900 C   0  0  0  0  0  3  0  0  0  0  0  0
  -16.7550  -28.5720   23.1190 C   0  0  0  0  0  3  0  0  0  0  0  0
  -25.9170  -32.5210   23.8650 C   0  0  0  0  0  3  0  0  0  0  0  0
  -25.6190  -33.9190   24.2020 N   0  0  0  0  0  0  0  0  0  0  0  0
  -25.9470  -34.9700   23.4390 C   0  0  0  0  0  0  0  0  0  0  0  0
  -26.6040  -34.8640   22.4000 O   0  0  0  0  0  0  0  0  0  0  0  0
  -25.0350  -34.0770   25.0100 H   0  0  0  0  0  0  0  0  0  0  0  0
  -24.2130  -36.7570   23.1030 C   0  0  0  0  0  1  0  0  0  0  0  0
  -25.4660  -36.3590   23.9000 C   0  0  0  0  0  3  0  0  0  0  0  0
  -27.6140  -37.2360   24.7020 C   0  0  0  0  0  1  0  0  0  0  0  0
  -26.4990  -37.4100   23.7740 N   0  0  0  0  0  0  0  0  0  0  0  0
  -26.0990  -38.3320   23.9280 H   0  0  0  0  0  0  0  0  0  0  0  0
  -26.4460  -31.7420   25.1310 C   0  0  1  0  0  0  0  0  0  0  0  0
  -25.3630  -31.5000   26.2090 C   0  0  0  0  0  1  0  0  0  0  0  0
  -27.0220  -30.3660   24.7280 C   0  0  0  0  0  1  0  0  0  0  0  0
  -27.6100  -32.5310   25.7800 C   0  0  0  0  0  1  0  0  0  0  0  0
  -31.1540  -18.8660   20.7250 C   0  0  0  0  0  2  0  0  0  0  0  0
  -30.3750  -17.5410   20.6640 C   0  0  0  0  0  2  0  0  0  0  0  0
  -30.7580  -16.5350   21.7640 C   0  0  0  0  0  2  0  0  0  0  0  0
  -30.7320  -14.3590   20.5940 C   0  0  0  0  0  0  0  0  0  0  0  0
  -30.3690  -12.2960   19.2990 C   0  0  0  0  0  2  0  0  0  0  0  0
  -29.4260  -12.5740   18.1130 C   0  0  0  0  0  2  0  0  0  0  0  0
  -27.9530  -12.4520   18.5450 C   0  0  0  0  0  2  0  0  0  0  0  0
  -27.6370  -13.2390   19.8450 C   0  0  0  0  0  3  0  0  0  0  0  0
  -28.6880  -12.9300   20.9370 C   0  0  0  0  0  2  0  0  0  0  0  0
  -30.0200  -13.2250   20.3830 N   0  0  0  0  0  0  0  0  0  0  0  0
  -31.7850  -14.6190   19.9980 O   0  0  0  0  0  0  0  0  0  0  0  0
  -30.2000  -15.2210   21.4660 N   0  0  0  0  0  0  0  0  0  0  0  0
  -29.3180  -14.9770   21.8950 H   0  0  0  0  0  0  0  0  0  0  0  0
  -25.2250  -13.8430   20.5140 C   0  0  0  0  0  0  0  0  0  0  0  0
  -24.1560  -13.0680   20.8810 C   0  0  0  0  0  0  0  0  0  0  0  0
  -24.6200  -11.7180   20.8590 C   0  0  0  0  0  0  0  0  0  0  0  0
  -26.2760  -12.9640   20.3070 N   0  0  0  0  0  0  0  0  0  0  0  0
  -25.9120  -11.6790   20.5610 N   0  0  0  0  0  0  0  0  0  0  0  0
  -23.8960  -10.4540   21.0540 C   0  0  0  0  0  0  0  0  0  0  0  0
  -24.3390   -9.4920   21.9860 C   0  0  0  0  0  3  0  0  0  0  0  0
  -23.6220   -8.2890   22.1700 C   0  0  0  0  0  3  0  0  0  0  0  0
  -22.4470   -8.0440   21.4200 C   0  0  0  0  0  0  0  0  0  0  0  0
  -22.0210   -8.9990   20.4790 C   0  0  0  0  0  3  0  0  0  0  0  0
  -22.7390  -10.1920   20.2960 C   0  0  0  0  0  3  0  0  0  0  0  0
  -21.7030   -6.8930   21.5070 O   0  0  0  0  0  0  0  0  0  0  0  0
  -21.6710   -6.1400   22.6540 C   0  0  0  0  0  0  0  0  0  0  0  0
  -21.2730   -6.6880   23.8930 C   0  0  0  0  0  3  0  0  0  0  0  0
  -21.1890   -5.8640   25.0340 C   0  0  0  0  0  3  0  0  0  0  0  0
  -21.4950   -4.4920   24.9350 C   0  0  0  0  0  0  0  0  0  0  0  0
  -21.8860   -3.9440   23.7000 C   0  0  0  0  0  3  0  0  0  0  0  0
  -21.9720   -4.7660   22.5630 C   0  0  0  0  0  0  0  0  0  0  0  0
  -22.3290   -4.2300   21.3720 F   0  0  0  0  0  0  0  0  0  0  0  0
  -21.4090   -3.6980   26.0260 F   0  0  0  0  0  0  0  0  0  0  0  0
  -22.7560  -13.5400   21.1480 C   0  0  0  0  0  0  0  0  0  0  0  0
  -22.0290  -12.8420   22.0130 N   0  0  0  0  0  0  0  0  0  0  0  0
  -22.3130  -14.5610   20.6220 O   0  0  0  0  0  0  0  0  0  0  0  0
  -22.4020  -12.0160   22.4550 H   0  0  0  0  0  0  0  0  0  0  0  0
  -21.0880  -13.1350   22.2360 H   0  0  0  0  0  0  0  0  0  0  0  0
  -25.3870  -15.2130   20.3320 N   0  0  0  0  0  0  0  0  0  0  0  0
  -24.6120  -15.8600   20.4300 H   0  0  0  0  0  0  0  0  0  0  0  0
  -26.2400  -15.6570   20.0180 H   0  0  0  0  0  0  0  0  0  0  0  0
  1  3  1  0
  2  1  1  0
  2  4  1  0
  3  5  1  0
  4  6  1  0
  5  7  1  0
  6  5  1  0
  6 52  1  0
  8  9  1  0
  8  7  1  0
 10 11  1  0
 10  9  1  0
 12 23  2  0
 13 11  1  0
 13 18  1  0
 14 22  1  0
 14 24  1  0
 15 21  1  0
 15 17  1  0
 16 22  1  0
 17 16  1  0
 18 17  2  0
 19 20  1  0
 19 13  2  0
 20 15  2  0
 21 14  1  0
 22 12  1  0
 24 26  2  0
 25 24  1  0
 27 25  1  0
 28 37  2  0
 28 33  1  0
 29 25  1  0
 29 33  1  0
 30 29  1  0
 31 32  1  0
 31 30  1  0
 32 28  1  0
 33 34  2  0
 34 35  1  0
 36 35  2  0
 37 36  1  0
 38 12  1  0
 38 39  1  0
 38 48  1  0
 39 42  1  0
 40 44  1  0
 40 39  1  0
 41 40  2  0
 44 43  1  0
 46 44  1  0
 46 47  1  0
 46 45  1  0
 48 51  1  1
 48 49  1  0
 50 48  1  0
 53 52  1  0
 53 54  1  0
 55 63  1  0
 56 61  1  0
 57 58  1  0
 57 56  1  0
 59 58  1  0
 59 68  1  0
 59 60  1  0
 61 55  1  0
 61 60  1  0
 62 55  2  0
 63 54  1  0
 63 64  1  0
 65 66  2  0
 66 85  1  0
 67 66  1  0
 67 70  1  0
 68 65  1  0
 68 69  1  0
 69 67  2  0
 70 71  1  0
 71 72  2  0
 73 76  1  0
 73 72  1  0
 74 73  2  0
 75 74  1  0
 75 70  2  0
 76 77  1  0
 77 78  1  0
 78 79  2  0
 80 79  1  0
 80 84  1  0
 81 80  2  0
 82 77  2  0
 82 81  1  0
 83 82  1  0
 85 86  1  0
 86 89  1  0
 86 88  1  0
 87 85  2  0
 90 91  1  0
 90 65  1  0
 92 90  1  0
M  ISO  4  10 101  11 101  55 100  63 100
M  END
>  <TORSDO>  (31) 
F 23

>  <SCORE>  (31) 
-12.833

>  <name>  (31) 
31

>  <ligand_id>  (31) 
31

>  <original_smiles>  (31) 
[H]c1c([H])c([H])c2c(c1[H])C([H])([H])C([H])([H])C([H])([H])C2([H])N([H])C(=O)C1([H])N(C(=O)C([H])(N([H])C(=O)C([H])(N([H])C([H])([H])[H])C([H])([H])[H])C(C([H])([H])[H])(C([H])([H])[H])C([H])([H])[H])C([H])([H])c2c([H])c(OC([H])([H])C([H])([H])C([H])([H])C([H])([H])C3([H])C([H])([H])C([H])([H])C([H])([H])C([H])([H])C3([H])C([H])([H])C([H])([H])C([H])([H])N([H])C(=O)N3C([H])([H])C([H])([H])C([H])([H])C([H])(n4nc(-c5c([H])c([H])c(Oc6c([H])c([H])c(F)c([H])c6F)c([H])c5[H])c(C(=O)N([H])[H])c4N([H])[H])C3([H])[H])c([H])c([H])c2C1([H])[H]

>  <smiles>  (31) 
[H]c1c([H])c([H])c2c(c1[H])C([H])([H])C([H])([H])C([H])([H])C2([H])N([H])C(=O)C1([H])N(C(=O)C([H])(N([H])C(=O)C([H])(N([H])C([H])([H])[H])C([H])([H])[H])C(C([H])([H])[H])(C([H])([H])[H])C([H])([H])[H])C([H])([H])c2c([H])c(OC([H])([H])C([H])([H])C([H])([H])C([H])([H])C3([H])C([H])([H])C([H])([H])C([H])([H])C([H])([H])C3([H])C([H])([H])C([H])([H])C([H])([H])N([H])C(=O)N3C([H])([H])C([H])([H])C([H])([H])C([H])(n4nc(-c5c([H])c([H])c(Oc6c([H])c([H])c(F)c([H])c6F)c([H])c5[H])c(C(=O)N([H])[H])c4N([H])[H])C3([H])[H])c([H])c([H])c2C1([H])[H]

$$$$
32:0:0
     RDKit          3D

 95104  0  0  1  0  0  0  0  0999 V2000
  -24.5110  -21.8840   18.7100 C   0  0  0  0  0  2  0  0  0  0  0  0
  -25.3080  -21.1520   19.7880 C   0  0  0  0  0  2  0  0  0  0  0  0
  -25.7800  -21.8040   17.8600 C   0  0  0  0  0  2  0  0  0  0  0  0
  -26.6130  -21.7080   19.1690 C   0  0  2  0  0  0  0  0  0  0  0  0
  -28.0920  -20.1400   20.6140 C   0  0  0  0  0  2  0  0  0  0  0  0
  -27.9100  -19.6470   18.1700 C   0  0  0  0  0  2  0  0  0  0  0  0
  -29.4700  -19.4650   20.6760 C   0  0  0  0  0  2  0  0  0  0  0  0
  -29.2810  -18.9470   18.1920 C   0  0  0  0  0  2  0  0  0  0  0  0
  -27.8590  -20.7690   19.2250 C   0  0  0  0  0  3  0  0  0  0  0  0
  -29.6550  -18.3880   19.5820 C   0  0  0  0  0  3  0  0  0  0  0  0
  -31.1080  -17.8690   19.5790 C   0  0  0  0  0  2  0  0  0  0  0  0
  -31.4610  -16.9140   20.7380 C   0  0  0  0  0  2  0  0  0  0  0  0
  -31.3650  -14.5870   19.8620 C   0  0  0  0  0  0  0  0  0  0  0  0
  -30.9640  -12.3260   18.9670 C   0  0  0  0  0  2  0  0  0  0  0  0
  -29.9960  -12.3920   17.7720 C   0  0  0  0  0  2  0  0  0  0  0  0
  -28.5330  -12.3390   18.2540 C   0  0  0  0  0  2  0  0  0  0  0  0
  -28.2450  -13.3520   19.3930 C   0  0  0  0  0  3  0  0  0  0  0  0
  -29.3190  -13.2570   20.4980 C   0  0  0  0  0  2  0  0  0  0  0  0
  -30.6420  -13.4380   19.8710 N   0  0  0  0  0  0  0  0  0  0  0  0
  -32.4120  -14.7240   19.2200 O   0  0  0  0  0  0  0  0  0  0  0  0
  -30.8550  -15.5920   20.5830 N   0  0  0  0  0  0  0  0  0  0  0  0
  -29.9930  -15.4100   21.0770 H   0  0  0  0  0  0  0  0  0  0  0  0
  -25.9370  -14.1280   20.2280 C   0  0  0  0  0  0  0  0  0  0  0  0
  -24.8340  -13.4310   20.6450 C   0  0  0  0  0  0  0  0  0  0  0  0
  -25.1910  -12.0500   20.5740 C   0  0  0  0  0  0  0  0  0  0  0  0
  -26.9010  -13.1760   19.9350 N   0  0  0  0  0  0  0  0  0  0  0  0
  -26.4560  -11.9200   20.1970 N   0  0  0  0  0  0  0  0  0  0  0  0
  -24.3840  -10.8410   20.7890 C   0  0  0  0  0  0  0  0  0  0  0  0
  -24.7570   -9.8630   21.7380 C   0  0  0  0  0  3  0  0  0  0  0  0
  -23.9540   -8.7190   21.9390 C   0  0  0  0  0  3  0  0  0  0  0  0
  -22.7660   -8.5450   21.1910 C   0  0  0  0  0  0  0  0  0  0  0  0
  -22.4120   -9.5110   20.2310 C   0  0  0  0  0  3  0  0  0  0  0  0
  -23.2130  -10.6460   20.0290 C   0  0  0  0  0  3  0  0  0  0  0  0
  -21.9390   -7.4540   21.2990 O   0  0  0  0  0  0  0  0  0  0  0  0
  -21.7920   -6.7780   22.4850 C   0  0  0  0  0  0  0  0  0  0  0  0
  -21.3500   -7.4220   23.6600 C   0  0  0  0  0  3  0  0  0  0  0  0
  -21.1460   -6.6750   24.8370 C   0  0  0  0  0  3  0  0  0  0  0  0
  -21.3730   -5.2860   24.8390 C   0  0  0  0  0  0  0  0  0  0  0  0
  -21.8070   -4.6420   23.6670 C   0  0  0  0  0  3  0  0  0  0  0  0
  -22.0130   -5.3860   22.4920 C   0  0  0  0  0  0  0  0  0  0  0  0
  -22.4110   -4.7570   21.3600 F   0  0  0  0  0  0  0  0  0  0  0  0
  -21.1700   -4.5660   25.9680 F   0  0  0  0  0  0  0  0  0  0  0  0
  -23.4940  -14.0060   20.9990 C   0  0  0  0  0  0  0  0  0  0  0  0
  -22.7680  -13.3560   21.9030 N   0  0  0  0  0  0  0  0  0  0  0  0
  -23.1000  -15.0640   20.5110 O   0  0  0  0  0  0  0  0  0  0  0  0
  -23.0990  -12.4970   22.3180 H   0  0  0  0  0  0  0  0  0  0  0  0
  -21.8700  -13.7220   22.1860 H   0  0  0  0  0  0  0  0  0  0  0  0
  -26.1960  -15.4840   20.0590 N   0  0  0  0  0  0  0  0  0  0  0  0
  -25.4910  -16.1950   20.2150 H   0  0  0  0  0  0  0  0  0  0  0  0
  -27.0670  -15.8600   19.7050 H   0  0  0  0  0  0  0  0  0  0  0  0
  -27.0640  -23.0700   19.7520 C   0  0  0  0  0  2  0  0  0  0  0  0
  -28.0720  -23.8500   18.8720 C   0  0  0  0  0  2  0  0  0  0  0  0
  -29.1430  -24.5920   19.6930 C   0  0  0  0  0  2  0  0  0  0  0  0
  -28.6260  -25.7980   20.4870 C   0  0  0  0  0  2  0  0  0  0  0  0
  -28.5290  -26.9270   19.6260 O   0  0  0  0  0  0  0  0  0  0  0  0
  -24.6790  -31.7390   23.1660 C   0  0  0  0  0  0  0  0  0  0  0  0
  -27.3490  -27.6120   19.7330 C   0  0  0  0  0  0  0  0  0  0  0  0
  -23.4720  -30.4450   21.4370 C   0  0  0  0  0  3  0  0  0  0  0  0
  -24.9300  -29.0410   19.8900 C   0  0  0  0  0  0  0  0  0  0  0  0
  -25.9850  -30.8700   21.2330 C   0  0  0  0  0  2  0  0  0  0  0  0
  -26.0850  -29.5520   20.4960 C   0  0  0  0  0  0  0  0  0  0  0  0
  -27.3020  -28.8430   20.4170 C   0  0  0  0  0  3  0  0  0  0  0  0
  -26.1800  -27.1010   19.1350 C   0  0  0  0  0  3  0  0  0  0  0  0
  -24.9690  -27.8110   19.2110 C   0  0  0  0  0  3  0  0  0  0  0  0
  -23.6730  -29.8720   20.0080 C   0  0  0  0  0  2  0  0  0  0  0  0
  -24.7320  -31.0260   22.0050 N   0  0  0  0  0  0  0  0  0  0  0  0
  -23.6030  -31.9510   23.7400 O   0  0  0  0  0  0  0  0  0  0  0  0
  -22.8550  -29.3430   22.3250 C   0  0  0  0  0  0  0  0  0  0  0  0
  -21.5300  -29.1600   22.2120 N   0  0  0  0  0  0  0  0  0  0  0  0
  -23.5610  -28.6600   23.0710 O   0  0  0  0  0  0  0  0  0  0  0  0
  -21.0220  -29.7610   21.5770 H   0  0  0  0  0  0  0  0  0  0  0  0
  -18.1750  -27.9070   22.6850 C   0  0  0  0  0  0  0  0  0  0  0  0
  -20.7360  -28.1590   22.9230 C   0  0  0  0  0  3  0  0  0  0  0  0
  -20.8360  -26.7790   22.2320 C   0  0  0  0  0  2  0  0  0  0  0  0
  -19.7130  -26.5310   21.2200 C   0  0  0  0  0  2  0  0  0  0  0  0
  -18.3440  -26.6160   21.9010 C   0  0  0  0  0  2  0  0  0  0  0  0
  -19.2990  -28.6400   23.1510 C   0  0  0  0  0  0  0  0  0  0  0  0
  -19.0870  -29.8520   23.8430 C   0  0  0  0  0  3  0  0  0  0  0  0
  -17.7840  -30.3290   24.0760 C   0  0  0  0  0  3  0  0  0  0  0  0
  -16.6740  -29.5910   23.6260 C   0  0  0  0  0  3  0  0  0  0  0  0
  -16.8710  -28.3820   22.9360 C   0  0  0  0  0  3  0  0  0  0  0  0
  -25.9650  -32.3430   23.8130 C   0  0  0  0  0  3  0  0  0  0  0  0
  -25.6450  -33.7130   24.2330 N   0  0  0  0  0  0  0  0  0  0  0  0
  -25.9600  -34.8160   23.5400 C   0  0  0  0  0  0  0  0  0  0  0  0
  -26.6220  -34.7840   22.4990 O   0  0  0  0  0  0  0  0  0  0  0  0
  -25.0540  -33.8120   25.0470 H   0  0  0  0  0  0  0  0  0  0  0  0
  -24.2040  -36.6020   23.3110 C   0  0  0  0  0  1  0  0  0  0  0  0
  -25.4590  -36.1660   24.0850 C   0  0  0  0  0  3  0  0  0  0  0  0
  -27.5910  -37.0250   24.9480 C   0  0  0  0  0  1  0  0  0  0  0  0
  -26.4770  -37.2380   24.0280 N   0  0  0  0  0  0  0  0  0  0  0  0
  -26.0610  -38.1420   24.2380 H   0  0  0  0  0  0  0  0  0  0  0  0
  -26.5060  -31.4960   25.0290 C   0  0  1  0  0  0  0  0  0  0  0  0
  -25.4320  -31.1790   26.0950 C   0  0  0  0  0  1  0  0  0  0  0  0
  -27.0940  -30.1510   24.5410 C   0  0  0  0  0  1  0  0  0  0  0  0
  -27.6640  -32.2540   25.7210 C   0  0  0  0  0  1  0  0  0  0  0  0
  1  2  1  0
  3  1  1  0
  3  4  1  0
  4  9  1  0
  4 51  1  1
  4  2  1  0
  5  7  1  0
  6  8  1  0
  8 10  1  0
  9  6  1  0
  9  5  1  0
 10 11  1  0
 10  7  1  0
 11 12  1  0
 13 19  1  0
 13 21  1  0
 14 19  1  0
 15 16  1  0
 15 14  1  0
 17 16  1  0
 17 26  1  0
 17 18  1  0
 19 18  1  0
 20 13  2  0
 21 12  1  0
 21 22  1  0
 23 24  2  0
 24 43  1  0
 25 24  1  0
 25 28  1  0
 26 27  1  0
 26 23  1  0
 27 25  2  0
 28 29  1  0
 29 30  2  0
 31 34  1  0
 31 30  1  0
 32 31  2  0
 33 32  1  0
 33 28  2  0
 34 35  1  0
 35 40  2  0
 35 36  1  0
 36 37  2  0
 37 38  1  0
 38 42  1  0
 39 38  2  0
 40 39  1  0
 41 40  1  0
 43 44  1  0
 44 47  1  0
 44 46  1  0
 45 43  2  0
 48 49  1  0
 48 23  1  0
 50 48  1  0
 52 53  1  0
 52 51  1  0
 53 54  1  0
 55 57  1  0
 55 54  1  0
 56 67  2  0
 57 62  1  0
 58 66  1  0
 58 68  1  0
 59 65  1  0
 59 61  1  0
 60 66  1  0
 61 60  1  0
 62 61  2  0
 63 64  1  0
 63 57  2  0
 64 59  2  0
 65 58  1  0
 66 56  1  0
 68 70  2  0
 69 68  1  0
 71 69  1  0
 72 81  2  0
 72 77  1  0
 73 69  1  0
 73 77  1  0
 74 73  1  0
 75 76  1  0
 75 74  1  0
 76 72  1  0
 77 78  2  0
 78 79  1  0
 80 79  2  0
 81 80  1  0
 82 56  1  0
 82 83  1  0
 82 92  1  0
 83 86  1  0
 84 88  1  0
 84 83  1  0
 85 84  2  0
 88 87  1  0
 90 88  1  0
 90 91  1  0
 90 89  1  0
 92 95  1  1
 92 93  1  0
 94 92  1  0
M  ISO  4  13 100  21 100  54 101  55 101
M  END
>  <TORSDO>  (32) 
F 23

>  <SCORE>  (32) 
-10.631

>  <name>  (32) 
32

>  <ligand_id>  (32) 
32

>  <original_smiles>  (32) 
[H]c1c([H])c([H])c2c(c1[H])C([H])([H])C([H])([H])C([H])([H])C2([H])N([H])C(=O)C1([H])N(C(=O)C([H])(N([H])C(=O)C([H])(N([H])C([H])([H])[H])C([H])([H])[H])C(C([H])([H])[H])(C([H])([H])[H])C([H])([H])[H])C([H])([H])c2c([H])c(OC([H])([H])C([H])([H])C([H])([H])C([H])([H])C3(C4([H])C([H])([H])C([H])([H])C([H])(C([H])([H])C([H])([H])N([H])C(=O)N5C([H])([H])C([H])([H])C([H])([H])C([H])(n6nc(-c7c([H])c([H])c(Oc8c([H])c([H])c(F)c([H])c8F)c([H])c7[H])c(C(=O)N([H])[H])c6N([H])[H])C5([H])[H])C([H])([H])C4([H])[H])C([H])([H])C([H])([H])C3([H])[H])c([H])c([H])c2C1([H])[H]

>  <smiles>  (32) 
[H]c1c([H])c([H])c2c(c1[H])C([H])([H])C([H])([H])C([H])([H])C2([H])N([H])C(=O)C1([H])N(C(=O)C([H])(N([H])C(=O)C([H])(N([H])C([H])([H])[H])C([H])([H])[H])C(C([H])([H])[H])(C([H])([H])[H])C([H])([H])[H])C([H])([H])c2c([H])c(OC([H])([H])C([H])([H])C([H])([H])C([H])([H])C3(C4([H])C([H])([H])C([H])([H])C([H])(C([H])([H])C([H])([H])N([H])C(=O)N5C([H])([H])C([H])([H])C([H])([H])C([H])(n6nc(-c7c([H])c([H])c(Oc8c([H])c([H])c(F)c([H])c8F)c([H])c7[H])c(C(=O)N([H])[H])c6N([H])[H])C5([H])[H])C([H])([H])C4([H])[H])C([H])([H])C([H])([H])C3([H])[H])c([H])c([H])c2C1([H])[H]

$$$$
33:0:0
     RDKit          3D

 95104  0  0  1  0  0  0  0  0999 V2000
  -29.8290  -18.0790   20.1700 C   0  0  0  0  0  0  0  0  0  0  0  0
  -29.6930  -16.7310   20.7020 C   0  0  0  0  0  3  0  0  0  0  0  0
  -29.1300  -19.5440   20.6380 C   0  0  0  0  0  2  0  0  0  0  0  0
  -30.0720  -19.4150   18.0140 C   0  0  0  0  0  2  0  0  0  0  0  0
  -29.8140  -23.8870   19.8940 C   0  0  0  0  0  2  0  0  0  0  0  0
  -30.0030  -20.8730   18.5450 C   0  0  0  0  0  2  0  0  0  0  0  0
  -29.8620  -22.3780   20.5720 C   0  0  0  0  0  2  0  0  0  0  0  0
  -27.7800  -21.8940   19.5750 C   0  0  0  0  0  2  0  0  0  0  0  0
  -30.7130  -18.3520   18.9590 C   0  0  0  0  0  3  0  0  0  0  0  0
  -27.4430  -23.4870   19.9810 C   0  0  0  0  0  3  0  0  0  0  0  0
  -28.4500  -24.6710   19.5060 C   0  0  0  0  0  3  0  0  0  0  0  0
  -29.1850  -21.1050   19.8510 C   0  0  2  0  0  0  0  0  0  0  0  0
  -30.4830  -15.3640   20.4700 C   0  0  0  0  0  0  0  0  0  0  0  0
  -30.5030  -12.8770   19.8370 C   0  0  0  0  0  2  0  0  0  0  0  0
  -29.6790  -12.6350   18.5490 C   0  0  0  0  0  2  0  0  0  0  0  0
  -28.2000  -12.3950   18.8980 C   0  0  0  0  0  2  0  0  0  0  0  0
  -27.6720  -13.4330   19.9210 C   0  0  0  0  0  3  0  0  0  0  0  0
  -28.6330  -13.6480   21.1090 C   0  0  0  0  0  2  0  0  0  0  0  0
  -29.9280  -14.0670   20.5580 N   0  0  0  0  0  0  0  0  0  0  0  0
  -31.6830  -15.3610   20.1720 O   0  0  0  0  0  0  0  0  0  0  0  0
  -25.2650  -14.0230   20.5420 C   0  0  0  0  0  0  0  0  0  0  0  0
  -24.1800  -13.2580   20.8680 C   0  0  0  0  0  0  0  0  0  0  0  0
  -24.6380  -11.9040   20.8790 C   0  0  0  0  0  0  0  0  0  0  0  0
  -26.3130  -13.1380   20.3610 N   0  0  0  0  0  0  0  0  0  0  0  0
  -25.9430  -11.8590   20.6310 N   0  0  0  0  0  0  0  0  0  0  0  0
  -23.8950  -10.6480   21.0530 C   0  0  0  0  0  0  0  0  0  0  0  0
  -24.2870   -9.6830   22.0050 C   0  0  0  0  0  3  0  0  0  0  0  0
  -23.5420   -8.4930   22.1670 C   0  0  0  0  0  3  0  0  0  0  0  0
  -22.3930   -8.2620   21.3750 C   0  0  0  0  0  0  0  0  0  0  0  0
  -22.0220   -9.2170   20.4120 C   0  0  0  0  0  3  0  0  0  0  0  0
  -22.7660  -10.3960   20.2470 C   0  0  0  0  0  3  0  0  0  0  0  0
  -21.6240   -7.1250   21.4440 O   0  0  0  0  0  0  0  0  0  0  0  0
  -21.5580   -6.3680   22.5860 C   0  0  0  0  0  0  0  0  0  0  0  0
  -21.1210   -6.9120   23.8150 C   0  0  0  0  0  3  0  0  0  0  0  0
  -20.9990   -6.0810   24.9470 C   0  0  0  0  0  3  0  0  0  0  0  0
  -21.3070   -4.7110   24.8540 C   0  0  0  0  0  0  0  0  0  0  0  0
  -21.7390   -4.1680   23.6300 C   0  0  0  0  0  3  0  0  0  0  0  0
  -21.8600   -4.9940   22.4990 C   0  0  0  0  0  0  0  0  0  0  0  0
  -22.2560   -4.4620   21.3180 F   0  0  0  0  0  0  0  0  0  0  0  0
  -21.1850   -3.9130   25.9400 F   0  0  0  0  0  0  0  0  0  0  0  0
  -22.7730  -13.7460   21.0600 C   0  0  0  0  0  0  0  0  0  0  0  0
  -21.9970  -13.0690   21.8990 N   0  0  0  0  0  0  0  0  0  0  0  0
  -22.3700  -14.7650   20.5020 O   0  0  0  0  0  0  0  0  0  0  0  0
  -22.3370  -12.2480   22.3790 H   0  0  0  0  0  0  0  0  0  0  0  0
  -21.0510  -13.3790   22.0690 H   0  0  0  0  0  0  0  0  0  0  0  0
  -25.4480  -15.3910   20.3590 N   0  0  0  0  0  0  0  0  0  0  0  0
  -24.6850  -16.0560   20.4350 H   0  0  0  0  0  0  0  0  0  0  0  0
  -26.3210  -15.8220   20.0870 H   0  0  0  0  0  0  0  0  0  0  0  0
  -32.1650  -18.6740   19.3580 C   0  0  0  0  0  0  0  0  0  0  0  0
  -33.2120  -18.5990   18.2570 C   0  0  0  0  0  1  0  0  0  0  0  0
  -32.4870  -18.9800   20.5100 O   0  0  0  0  0  0  0  0  0  0  0  0
  -28.4120  -26.2540   19.8250 O   0  0  0  0  0  0  0  0  0  0  0  0
  -24.5700  -31.7620   23.0210 C   0  0  0  0  0  0  0  0  0  0  0  0
  -27.3360  -27.2460   19.7480 C   0  0  0  0  0  0  0  0  0  0  0  0
  -23.4360  -30.4090   21.3000 C   0  0  0  0  0  3  0  0  0  0  0  0
  -24.9540  -28.9640   19.7910 C   0  0  0  0  0  0  0  0  0  0  0  0
  -25.9830  -30.7590   21.1770 C   0  0  0  0  0  2  0  0  0  0  0  0
  -26.1110  -29.4010   20.4440 C   0  0  0  0  0  0  0  0  0  0  0  0
  -27.2940  -28.5550   20.4120 C   0  0  0  0  0  3  0  0  0  0  0  0
  -26.1620  -26.9590   19.0220 C   0  0  0  0  0  3  0  0  0  0  0  0
  -24.9970  -27.7640   19.0620 C   0  0  0  0  0  3  0  0  0  0  0  0
  -23.6930  -29.8160   19.8860 C   0  0  0  0  0  2  0  0  0  0  0  0
  -24.6830  -31.0000   21.8880 N   0  0  0  0  0  0  0  0  0  0  0  0
  -23.4700  -31.9740   23.5560 O   0  0  0  0  0  0  0  0  0  0  0  0
  -22.7900  -29.3300   22.2060 C   0  0  0  0  0  0  0  0  0  0  0  0
  -21.4640  -29.1360   22.0870 N   0  0  0  0  0  0  0  0  0  0  0  0
  -23.4860  -28.6710   22.9820 O   0  0  0  0  0  0  0  0  0  0  0  0
  -20.9550  -29.7220   21.4410 H   0  0  0  0  0  0  0  0  0  0  0  0
  -18.1120  -27.8590   22.6110 C   0  0  0  0  0  0  0  0  0  0  0  0
  -20.6780  -28.1280   22.8060 C   0  0  0  0  0  3  0  0  0  0  0  0
  -20.7690  -26.7500   22.1090 C   0  0  0  0  0  2  0  0  0  0  0  0
  -19.6340  -26.5010   21.1120 C   0  0  0  0  0  2  0  0  0  0  0  0
  -18.2750  -26.5750   21.8150 C   0  0  0  0  0  2  0  0  0  0  0  0
  -19.2390  -28.5950   23.0630 C   0  0  0  0  0  0  0  0  0  0  0  0
  -19.0290  -29.7980   23.7720 C   0  0  0  0  0  3  0  0  0  0  0  0
  -17.7260  -30.2640   24.0310 C   0  0  0  0  0  3  0  0  0  0  0  0
  -16.6150  -29.5240   23.5930 C   0  0  0  0  0  3  0  0  0  0  0  0
  -16.8080  -28.3220   22.8890 C   0  0  0  0  0  3  0  0  0  0  0  0
  -25.8160  -32.4180   23.6920 C   0  0  0  0  0  3  0  0  0  0  0  0
  -26.3390  -31.6140   24.9460 C   0  0  1  0  0  0  0  0  0  0  0  0
  -25.2420  -31.3040   25.9920 C   0  0  0  0  0  1  0  0  0  0  0  0
  -26.9680  -30.2690   24.5170 C   0  0  0  0  0  1  0  0  0  0  0  0
  -27.4590  -32.4160   25.6500 C   0  0  0  0  0  1  0  0  0  0  0  0
  -25.4470  -33.7890   24.0840 N   0  0  0  0  0  0  0  0  0  0  0  0
  -25.7160  -34.8910   23.3700 C   0  0  0  0  0  0  0  0  0  0  0  0
  -26.3640  -34.8620   22.3220 O   0  0  0  0  0  0  0  0  0  0  0  0
  -24.8650  -33.8790   24.9040 H   0  0  0  0  0  0  0  0  0  0  0  0
  -23.8870  -36.6100   23.1620 C   0  0  0  0  0  1  0  0  0  0  0  0
  -25.1830  -36.2370   23.9020 C   0  0  0  0  0  3  0  0  0  0  0  0
  -27.3040  -37.2060   24.6740 C   0  0  0  0  0  1  0  0  0  0  0  0
  -26.1550  -37.3460   23.7830 N   0  0  0  0  0  0  0  0  0  0  0  0
  -25.7090  -38.2390   23.9770 H   0  0  0  0  0  0  0  0  0  0  0  0
  -25.9900  -23.8390   19.5880 C   0  0  0  0  0  2  0  0  0  0  0  0
  -23.4860  -23.5910   20.0390 C   0  0  0  0  0  1  0  0  0  0  0  0
  -24.8910  -23.0310   20.3020 C   0  0  0  0  0  2  0  0  0  0  0  0
  1  3  1  0
  1  2  2  0
  4  6  1  0
  4  9  1  0
  5  7  1  0
 12  8  1  6
  8 10  1  0
  9 49  1  0
  9  1  1  0
 10 93  1  0
 11 52  1  0
 11  5  1  0
 11 10  1  0
 12  6  1  0
 12  7  1  0
 12  3  1  0
 13 19  1  0
 13  2  1  0
 14 19  1  0
 15 16  1  0
 15 14  1  0
 17 16  1  0
 17 24  1  0
 17 18  1  0
 19 18  1  0
 20 13  2  0
 21 22  2  0
 22 23  1  0
 22 41  1  0
 23 26  1  0
 24 21  1  0
 24 25  1  0
 25 23  2  0
 26 27  1  0
 27 28  2  0
 29 32  1  0
 29 28  1  0
 30 29  2  0
 31 30  1  0
 31 26  2  0
 32 33  1  0
 33 34  1  0
 34 35  2  0
 36 35  1  0
 36 40  1  0
 37 36  2  0
 38 33  2  0
 38 37  1  0
 39 38  1  0
 41 42  1  0
 42 45  1  0
 42 44  1  0
 43 41  2  0
 46 47  1  0
 46 21  1  0
 48 46  1  0
 49 51  2  0
 50 49  1  0
 53 64  2  0
 54 52  1  0
 54 59  1  0
 55 63  1  0
 55 65  1  0
 56 62  1  0
 56 58  1  0
 57 63  1  0
 58 57  1  0
 59 58  2  0
 60 61  1  0
 60 54  2  0
 61 56  2  0
 62 55  1  0
 63 53  1  0
 65 67  2  0
 66 65  1  0
 68 66  1  0
 69 78  2  0
 69 74  1  0
 70 66  1  0
 70 74  1  0
 71 70  1  0
 72 73  1  0
 72 71  1  0
 73 69  1  0
 74 75  2  0
 75 76  1  0
 77 76  2  0
 78 77  1  0
 79 53  1  0
 79 84  1  0
 79 80  1  0
 80 83  1  1
 80 81  1  0
 82 80  1  0
 84 87  1  0
 85 89  1  0
 85 84  1  0
 86 85  2  0
 89 88  1  0
 91 89  1  0
 91 92  1  0
 91 90  1  0
 93 95  1  0
 94 95  1  0
M  ISO  4   2 100  11 101  13 100  52 101
M  END
>  <TORSDO>  (33) 
F 19

>  <SCORE>  (33) 
-14.120

>  <name>  (33) 
33

>  <ligand_id>  (33) 
33

>  <original_smiles>  (33) 
[H]C(C(=O)N1C([H])([H])C([H])([H])C([H])([H])C([H])(n2nc(-c3c([H])c([H])c(Oc4c([H])c([H])c(F)c([H])c4F)c([H])c3[H])c(C(=O)N([H])[H])c2N([H])[H])C1([H])[H])=C1C([H])([H])C2(C([H])([H])C([H])([H])C1([H])C(=O)C([H])([H])[H])C([H])([H])C([H])([H])C([H])(Oc1c([H])c([H])c3c(c1[H])C([H])([H])N(C(=O)C([H])(N([H])C(=O)C([H])(N([H])C([H])([H])[H])C([H])([H])[H])C(C([H])([H])[H])(C([H])([H])[H])C([H])([H])[H])C([H])(C(=O)N([H])C1([H])c4c([H])c([H])c([H])c([H])c4C([H])([H])C([H])([H])C1([H])[H])C3([H])[H])C([H])(C([H])([H])C([H])([H])C([H])([H])[H])C2([H])[H]

>  <smiles>  (33) 
[H]C(C(=O)N1C([H])([H])C([H])([H])C([H])([H])C([H])(n2nc(-c3c([H])c([H])c(Oc4c([H])c([H])c(F)c([H])c4F)c([H])c3[H])c(C(=O)N([H])[H])c2N([H])[H])C1([H])[H])=C1C([H])([H])C2(C([H])([H])C([H])([H])C1([H])C(=O)C([H])([H])[H])C([H])([H])C([H])([H])C([H])(Oc1c([H])c([H])c3c(c1[H])C([H])([H])N(C(=O)C([H])(N([H])C(=O)C([H])(N([H])C([H])([H])[H])C([H])([H])[H])C(C([H])([H])[H])(C([H])([H])[H])C([H])([H])[H])C([H])(C(=O)N([H])C1([H])c4c([H])c([H])c([H])c([H])c4C([H])([H])C([H])([H])C1([H])[H])C3([H])[H])C([H])(C([H])([H])C([H])([H])C([H])([H])[H])C2([H])[H]

$$$$
34:0:0
     RDKit          3D

 90 99  0  0  1  0  0  0  0  0999 V2000
  -28.5780  -21.1020   21.4660 C   0  0  0  0  0  2  0  0  0  0  0  0
  -29.5820  -18.4670   21.1900 C   0  0  0  0  0  2  0  0  0  0  0  0
  -29.5810  -19.3190   19.2980 C   0  0  0  0  0  2  0  0  0  0  0  0
  -29.7500  -20.0360   21.3820 C   0  0  0  0  0  3  0  0  0  0  0  0
  -30.0560  -20.6380   20.0510 C   0  0  0  0  0  3  0  0  0  0  0  0
  -29.3790  -22.0690   20.5600 C   0  0  0  0  0  3  0  0  0  0  0  0
  -30.2950  -17.8640   19.8600 C   0  0  1  0  0  0  0  0  0  0  0  0
  -30.8400  -15.1660   20.2160 C   0  0  0  0  0  0  0  0  0  0  0  0
  -30.7150  -12.8440   19.2250 C   0  0  0  0  0  2  0  0  0  0  0  0
  -29.7720  -12.8560   18.0000 C   0  0  0  0  0  2  0  0  0  0  0  0
  -28.3190  -12.6110   18.4480 C   0  0  0  0  0  2  0  0  0  0  0  0
  -27.9180  -13.5140   19.6430 C   0  0  0  0  0  3  0  0  0  0  0  0
  -28.9740  -13.4990   20.7660 C   0  0  0  0  0  2  0  0  0  0  0  0
  -30.2460  -13.9070   20.1600 N   0  0  0  0  0  0  0  0  0  0  0  0
  -32.0430  -15.2340   19.9470 O   0  0  0  0  0  0  0  0  0  0  0  0
  -30.0380  -16.3480   20.3110 N   0  0  0  0  0  0  0  0  0  0  0  0
  -29.0800  -16.1510   20.5550 H   0  0  0  0  0  0  0  0  0  0  0  0
  -25.5430  -14.0820   20.4050 C   0  0  0  0  0  0  0  0  0  0  0  0
  -24.4850  -13.2980   20.7780 C   0  0  0  0  0  0  0  0  0  0  0  0
  -24.9580  -11.9490   20.7360 C   0  0  0  0  0  0  0  0  0  0  0  0
  -26.5840  -13.2090   20.1460 N   0  0  0  0  0  0  0  0  0  0  0  0
  -26.2430  -11.9220   20.4120 N   0  0  0  0  0  0  0  0  0  0  0  0
  -24.2390  -10.6820   20.9230 C   0  0  0  0  0  0  0  0  0  0  0  0
  -24.6330   -9.7470   21.9050 C   0  0  0  0  0  3  0  0  0  0  0  0
  -23.9140   -8.5450   22.0790 C   0  0  0  0  0  3  0  0  0  0  0  0
  -22.7830   -8.2720   21.2710 C   0  0  0  0  0  0  0  0  0  0  0  0
  -22.4070   -9.1960   20.2800 C   0  0  0  0  0  3  0  0  0  0  0  0
  -23.1290  -10.3890   20.1040 C   0  0  0  0  0  3  0  0  0  0  0  0
  -22.0440   -7.1160   21.3500 O   0  0  0  0  0  0  0  0  0  0  0  0
  -21.8740   -6.4490   22.5360 C   0  0  0  0  0  0  0  0  0  0  0  0
  -21.2750   -7.0620   23.6600 C   0  0  0  0  0  3  0  0  0  0  0  0
  -21.0610   -6.3190   24.8360 C   0  0  0  0  0  3  0  0  0  0  0  0
  -21.4340   -4.9640   24.8920 C   0  0  0  0  0  0  0  0  0  0  0  0
  -22.0290   -4.3500   23.7740 C   0  0  0  0  0  3  0  0  0  0  0  0
  -22.2460   -5.0910   22.6010 C   0  0  0  0  0  0  0  0  0  0  0  0
  -22.8010   -4.4900   21.5180 F   0  0  0  0  0  0  0  0  0  0  0  0
  -21.2190   -4.2460   26.0190 F   0  0  0  0  0  0  0  0  0  0  0  0
  -23.0890  -13.7670   21.0600 C   0  0  0  0  0  0  0  0  0  0  0  0
  -22.3720  -13.0720   21.9350 N   0  0  0  0  0  0  0  0  0  0  0  0
  -22.6380  -14.7860   20.5360 O   0  0  0  0  0  0  0  0  0  0  0  0
  -22.7430  -12.2440   22.3800 H   0  0  0  0  0  0  0  0  0  0  0  0
  -21.4380  -13.3730   22.1730 H   0  0  0  0  0  0  0  0  0  0  0  0
  -25.6980  -15.4560   20.2360 N   0  0  0  0  0  0  0  0  0  0  0  0
  -24.9190  -16.0950   20.3530 H   0  0  0  0  0  0  0  0  0  0  0  0
  -26.5180  -15.9080   19.8530 H   0  0  0  0  0  0  0  0  0  0  0  0
  -31.1250  -17.5620   17.4040 C   0  0  0  0  0  1  0  0  0  0  0  0
  -29.9330  -17.3440   18.3640 C   0  0  0  0  0  2  0  0  0  0  0  0
  -28.8340  -23.4730   19.7830 C   0  0  0  0  0  2  0  0  0  0  0  0
  -28.3460  -24.9040   20.5600 C   0  0  0  0  0  2  0  0  0  0  0  0
  -28.4430  -26.3860   20.0940 O   0  0  0  0  0  0  0  0  0  0  0  0
  -24.7160  -31.9650   23.2210 C   0  0  0  0  0  0  0  0  0  0  0  0
  -27.3470  -27.3180   20.1340 C   0  0  0  0  0  0  0  0  0  0  0  0
  -23.5240  -30.5540   21.5900 C   0  0  0  0  0  3  0  0  0  0  0  0
  -24.9780  -28.9950   20.1530 C   0  0  0  0  0  0  0  0  0  0  0  0
  -26.0650  -30.8670   21.3870 C   0  0  0  0  0  2  0  0  0  0  0  0
  -26.1570  -29.4710   20.7410 C   0  0  0  0  0  0  0  0  0  0  0  0
  -27.3440  -28.6480   20.7140 C   0  0  0  0  0  3  0  0  0  0  0  0
  -26.1460  -26.9400   19.5050 C   0  0  0  0  0  3  0  0  0  0  0  0
  -24.9790  -27.7380   19.5260 C   0  0  0  0  0  3  0  0  0  0  0  0
  -23.7520  -29.8930   20.2040 C   0  0  0  0  0  2  0  0  0  0  0  0
  -24.7900  -31.1530   22.1220 N   0  0  0  0  0  0  0  0  0  0  0  0
  -23.6320  -32.2230   23.7650 O   0  0  0  0  0  0  0  0  0  0  0  0
  -22.8730  -29.5310   22.5550 C   0  0  0  0  0  0  0  0  0  0  0  0
  -21.5480  -29.3210   22.4330 N   0  0  0  0  0  0  0  0  0  0  0  0
  -23.5610  -28.9230   23.3790 O   0  0  0  0  0  0  0  0  0  0  0  0
  -21.0440  -29.8710   21.7510 H   0  0  0  0  0  0  0  0  0  0  0  0
  -18.2020  -28.0250   22.9530 C   0  0  0  0  0  0  0  0  0  0  0  0
  -20.7540  -28.3660   23.2120 C   0  0  0  0  0  3  0  0  0  0  0  0
  -20.8960  -26.9340   22.6460 C   0  0  0  0  0  2  0  0  0  0  0  0
  -19.8010  -26.5710   21.6370 C   0  0  0  0  0  2  0  0  0  0  0  0
  -18.4170  -26.6780   22.2820 C   0  0  0  0  0  2  0  0  0  0  0  0
  -19.2990  -28.8210   23.3770 C   0  0  0  0  0  0  0  0  0  0  0  0
  -19.0420  -30.0770   23.9690 C   0  0  0  0  0  3  0  0  0  0  0  0
  -17.7220  -30.5390   24.1340 C   0  0  0  0  0  3  0  0  0  0  0  0
  -16.6410  -29.7410   23.7200 C   0  0  0  0  0  3  0  0  0  0  0  0
  -16.8820  -28.4840   23.1400 C   0  0  0  0  0  3  0  0  0  0  0  0
  -25.9880  -32.6250   23.8360 C   0  0  0  0  0  3  0  0  0  0  0  0
  -26.5210  -31.8610   25.1080 C   0  0  1  0  0  0  0  0  0  0  0  0
  -25.4410  -31.5810   26.1800 C   0  0  0  0  0  1  0  0  0  0  0  0
  -27.1440  -30.5070   24.7030 C   0  0  0  0  0  1  0  0  0  0  0  0
  -27.6510  -32.6840   25.7710 C   0  0  0  0  0  1  0  0  0  0  0  0
  -25.6570  -34.0200   24.1750 N   0  0  0  0  0  0  0  0  0  0  0  0
  -25.9660  -35.0790   23.4160 C   0  0  0  0  0  0  0  0  0  0  0  0
  -26.6270  -34.9870   22.3790 O   0  0  0  0  0  0  0  0  0  0  0  0
  -25.0800  -34.1610   24.9920 H   0  0  0  0  0  0  0  0  0  0  0  0
  -24.2200  -36.8560   23.0710 C   0  0  0  0  0  1  0  0  0  0  0  0
  -25.4660  -36.4630   23.8820 C   0  0  0  0  0  3  0  0  0  0  0  0
  -27.5920  -37.3700   24.7130 C   0  0  0  0  0  1  0  0  0  0  0  0
  -26.4890  -37.5280   23.7700 N   0  0  0  0  0  0  0  0  0  0  0  0
  -26.0750  -38.4470   23.9170 H   0  0  0  0  0  0  0  0  0  0  0  0
  3  7  1  0
  4  2  1  0
  4  1  1  0
  5  3  1  0
  5  6  1  0
  5  4  1  0
  6 48  1  0
  6  1  1  0
  7 47  1  1
  7 16  1  0
  7  2  1  0
  8 16  1  0
  9 14  1  0
 10 11  1  0
 10  9  1  0
 12 11  1  0
 12 21  1  0
 12 13  1  0
 14  8  1  0
 14 13  1  0
 15  8  2  0
 16 17  1  0
 18 19  2  0
 19 38  1  0
 20 19  1  0
 20 23  1  0
 21 18  1  0
 21 22  1  0
 22 20  2  0
 23 24  1  0
 24 25  2  0
 26 29  1  0
 26 25  1  0
 27 26  2  0
 28 27  1  0
 28 23  2  0
 29 30  1  0
 30 35  2  0
 30 31  1  0
 31 32  2  0
 32 33  1  0
 33 37  1  0
 34 33  2  0
 35 34  1  0
 36 35  1  0
 38 39  1  0
 39 42  1  0
 39 41  1  0
 40 38  2  0
 43 44  1  0
 43 18  1  0
 45 43  1  0
 46 47  1  0
 48 49  1  0
 50 52  1  0
 50 49  1  0
 51 62  2  0
 52 57  1  0
 53 61  1  0
 53 63  1  0
 54 60  1  0
 54 56  1  0
 55 61  1  0
 56 55  1  0
 57 56  2  0
 58 59  1  0
 58 52  2  0
 59 54  2  0
 60 53  1  0
 61 51  1  0
 63 65  2  0
 64 63  1  0
 66 64  1  0
 67 76  2  0
 67 72  1  0
 68 64  1  0
 68 72  1  0
 69 68  1  0
 70 71  1  0
 70 69  1  0
 71 67  1  0
 72 73  2  0
 73 74  1  0
 75 74  2  0
 76 75  1  0
 77 51  1  0
 77 82  1  0
 77 78  1  0
 78 81  1  1
 78 79  1  0
 80 78  1  0
 82 85  1  0
 83 87  1  0
 83 82  1  0
 84 83  2  0
 87 86  1  0
 89 87  1  0
 89 90  1  0
 89 88  1  0
M  ISO  4   8 100  16 100  49 101  50 101
M  END
>  <TORSDO>  (34) 
F 19

>  <SCORE>  (34) 
-14.412

>  <name>  (34) 
34

>  <ligand_id>  (34) 
34

>  <original_smiles>  (34) 
[H]c1c([H])c([H])c2c(c1[H])C([H])([H])C([H])([H])C([H])([H])C2([H])N([H])C(=O)C1([H])N(C(=O)C([H])(N([H])C(=O)C([H])(N([H])C([H])([H])[H])C([H])([H])[H])C(C([H])([H])[H])(C([H])([H])[H])C([H])([H])[H])C([H])([H])c2c([H])c(OC([H])([H])C([H])([H])C3([H])C([H])([H])C4([H])C([H])([H])C(N([H])C(=O)N5C([H])([H])C([H])([H])C([H])([H])C([H])(n6nc(-c7c([H])c([H])c(Oc8c([H])c([H])c(F)c([H])c8F)c([H])c7[H])c(C(=O)N([H])[H])c6N([H])[H])C5([H])[H])(C([H])([H])C([H])([H])[H])C([H])([H])C34[H])c([H])c([H])c2C1([H])[H]

>  <smiles>  (34) 
[H]c1c([H])c([H])c2c(c1[H])C([H])([H])C([H])([H])C([H])([H])C2([H])N([H])C(=O)C1([H])N(C(=O)C([H])(N([H])C(=O)C([H])(N([H])C([H])([H])[H])C([H])([H])[H])C(C([H])([H])[H])(C([H])([H])[H])C([H])([H])[H])C([H])([H])c2c([H])c(OC([H])([H])C([H])([H])C3([H])C([H])([H])C4([H])C([H])([H])C(N([H])C(=O)N5C([H])([H])C([H])([H])C([H])([H])C([H])(n6nc(-c7c([H])c([H])c(Oc8c([H])c([H])c(F)c([H])c8F)c([H])c7[H])c(C(=O)N([H])[H])c6N([H])[H])C5([H])[H])(C([H])([H])C([H])([H])[H])C([H])([H])C34[H])c([H])c([H])c2C1([H])[H]

$$$$
35:0:0
     RDKit          3D

 95103  0  0  1  0  0  0  0  0999 V2000
  -29.9360  -22.3960   20.3540 C   0  0  0  0  0  2  0  0  0  0  0  0
  -27.6430  -21.7770   19.5190 C   0  0  0  0  0  2  0  0  0  0  0  0
  -30.1280  -20.9430   20.8610 C   0  0  0  0  0  2  0  0  0  0  0  0
  -27.8470  -20.3460   20.0690 C   0  0  0  0  0  2  0  0  0  0  0  0
  -28.4550  -22.8280   20.3020 C   0  0  0  0  0  3  0  0  0  0  0  0
  -29.3320  -19.8660   20.0580 C   0  0  1  0  0  0  0  0  0  0  0  0
  -29.8760  -19.7180   18.6090 C   0  0  0  0  0  0  0  0  0  0  0  0
  -29.0370  -19.3230   17.6580 N   0  0  0  0  0  0  0  0  0  0  0  0
  -31.0560  -19.9420   18.3400 O   0  0  0  0  0  0  0  0  0  0  0  0
  -28.0700  -19.1440   17.8830 H   0  0  0  0  0  0  0  0  0  0  0  0
  -29.3550  -19.2110   16.7050 H   0  0  0  0  0  0  0  0  0  0  0  0
  -28.2730  -24.2520   19.7030 C   0  0  0  0  0  2  0  0  0  0  0  0
  -28.3750  -25.4030   20.7320 C   0  0  0  0  0  2  0  0  0  0  0  0
  -28.4020  -26.7130   20.1430 O   0  0  0  0  0  0  0  0  0  0  0  0
  -24.5870  -31.8780   23.2310 C   0  0  0  0  0  0  0  0  0  0  0  0
  -27.2240  -27.4270   20.1680 C   0  0  0  0  0  0  0  0  0  0  0  0
  -23.3780  -30.4730   21.5930 C   0  0  0  0  0  3  0  0  0  0  0  0
  -24.8270  -28.9270   20.1770 C   0  0  0  0  0  0  0  0  0  0  0  0
  -25.9020  -30.8320   21.3900 C   0  0  0  0  0  2  0  0  0  0  0  0
  -25.9870  -29.4570   20.7580 C   0  0  0  0  0  0  0  0  0  0  0  0
  -27.1910  -28.7160   20.7460 C   0  0  0  0  0  3  0  0  0  0  0  0
  -26.0470  -26.9090   19.5860 C   0  0  0  0  0  3  0  0  0  0  0  0
  -24.8520  -27.6530   19.5900 C   0  0  0  0  0  3  0  0  0  0  0  0
  -23.5840  -29.7870   20.2170 C   0  0  0  0  0  2  0  0  0  0  0  0
  -24.6410  -31.0760   22.1300 N   0  0  0  0  0  0  0  0  0  0  0  0
  -23.5070  -32.1510   23.7720 O   0  0  0  0  0  0  0  0  0  0  0  0
  -22.7260  -29.4560   22.5570 C   0  0  0  0  0  0  0  0  0  0  0  0
  -21.3990  -29.2800   22.4350 N   0  0  0  0  0  0  0  0  0  0  0  0
  -23.4100  -28.8260   23.3680 O   0  0  0  0  0  0  0  0  0  0  0  0
  -20.9090  -29.8400   21.7520 H   0  0  0  0  0  0  0  0  0  0  0  0
  -18.0190  -28.1210   22.9590 C   0  0  0  0  0  0  0  0  0  0  0  0
  -20.5820  -28.3480   23.2100 C   0  0  0  0  0  3  0  0  0  0  0  0
  -20.6630  -26.9190   22.6270 C   0  0  0  0  0  2  0  0  0  0  0  0
  -19.5500  -26.6140   21.6200 C   0  0  0  0  0  2  0  0  0  0  0  0
  -18.1750  -26.7730   22.2740 C   0  0  0  0  0  2  0  0  0  0  0  0
  -19.1490  -28.8680   23.3830 C   0  0  0  0  0  0  0  0  0  0  0  0
  -18.9510  -30.1310   23.9810 C   0  0  0  0  0  3  0  0  0  0  0  0
  -17.6540  -30.6480   24.1600 C   0  0  0  0  0  3  0  0  0  0  0  0
  -16.5380  -29.8970   23.7530 C   0  0  0  0  0  3  0  0  0  0  0  0
  -16.7210  -28.6360   23.1590 C   0  0  0  0  0  3  0  0  0  0  0  0
  -25.8750  -32.5090   23.8480 C   0  0  0  0  0  3  0  0  0  0  0  0
  -25.5700  -33.9080   24.1750 N   0  0  0  0  0  0  0  0  0  0  0  0
  -25.9040  -34.9560   23.4130 C   0  0  0  0  0  0  0  0  0  0  0  0
  -26.5750  -34.8490   22.3820 O   0  0  0  0  0  0  0  0  0  0  0  0
  -24.9790  -34.0660   24.9780 H   0  0  0  0  0  0  0  0  0  0  0  0
  -24.1830  -36.7520   23.0430 C   0  0  0  0  0  1  0  0  0  0  0  0
  -25.4170  -36.3470   23.8640 C   0  0  0  0  0  3  0  0  0  0  0  0
  -27.5500  -37.2270   24.7060 C   0  0  0  0  0  1  0  0  0  0  0  0
  -26.4530  -37.3980   23.7560 N   0  0  0  0  0  0  0  0  0  0  0  0
  -26.0490  -38.3180   23.9020 H   0  0  0  0  0  0  0  0  0  0  0  0
  -26.3960  -31.7380   25.1230 C   0  0  1  0  0  0  0  0  0  0  0  0
  -25.3050  -31.5010   26.1930 C   0  0  0  0  0  1  0  0  0  0  0  0
  -26.9760  -30.3610   24.7280 C   0  0  0  0  0  1  0  0  0  0  0  0
  -27.5490  -32.5320   25.7810 C   0  0  0  0  0  1  0  0  0  0  0  0
  -29.4140  -18.4690   20.7660 C   0  0  0  0  0  3  0  0  0  0  0  0
  -30.8090  -17.7940   20.8460 C   0  0  0  0  0  3  0  0  0  0  0  0
  -30.8900  -16.5460   21.7570 C   0  0  0  0  0  2  0  0  0  0  0  0
  -30.8120  -14.4470   20.3870 C   0  0  0  0  0  0  0  0  0  0  0  0
  -30.4560  -12.3530   19.1240 C   0  0  0  0  0  2  0  0  0  0  0  0
  -29.4950  -12.5850   17.9420 C   0  0  0  0  0  2  0  0  0  0  0  0
  -28.0280  -12.4460   18.3930 C   0  0  0  0  0  2  0  0  0  0  0  0
  -27.7170  -13.2630   19.6760 C   0  0  0  0  0  3  0  0  0  0  0  0
  -28.7810  -12.9950   20.7620 C   0  0  0  0  0  2  0  0  0  0  0  0
  -30.1030  -13.3030   20.1890 N   0  0  0  0  0  0  0  0  0  0  0  0
  -31.8900  -14.6760   19.8300 O   0  0  0  0  0  0  0  0  0  0  0  0
  -30.2490  -15.3400   21.2190 N   0  0  0  0  0  0  0  0  0  0  0  0
  -29.3540  -15.0850   21.6060 H   0  0  0  0  0  0  0  0  0  0  0  0
  -25.3240  -13.8810   20.3960 C   0  0  0  0  0  0  0  0  0  0  0  0
  -24.2570  -13.1130   20.7790 C   0  0  0  0  0  0  0  0  0  0  0  0
  -24.7170  -11.7610   20.7560 C   0  0  0  0  0  0  0  0  0  0  0  0
  -26.3660  -12.9960   20.1650 N   0  0  0  0  0  0  0  0  0  0  0  0
  -26.0040  -11.7170   20.4380 N   0  0  0  0  0  0  0  0  0  0  0  0
  -23.9910  -10.5000   20.9610 C   0  0  0  0  0  0  0  0  0  0  0  0
  -24.4260   -9.5430   21.9030 C   0  0  0  0  0  3  0  0  0  0  0  0
  -23.7020   -8.3470   22.0960 C   0  0  0  0  0  3  0  0  0  0  0  0
  -22.5270   -8.1010   21.3450 C   0  0  0  0  0  0  0  0  0  0  0  0
  -22.1110   -9.0470   20.3930 C   0  0  0  0  0  3  0  0  0  0  0  0
  -22.8370  -10.2340   20.1990 C   0  0  0  0  0  3  0  0  0  0  0  0
  -21.7740   -6.9560   21.4470 O   0  0  0  0  0  0  0  0  0  0  0  0
  -21.7230   -6.2270   22.6080 C   0  0  0  0  0  0  0  0  0  0  0  0
  -21.2930   -6.7960   23.8260 C   0  0  0  0  0  3  0  0  0  0  0  0
  -21.1910   -5.9930   24.9800 C   0  0  0  0  0  3  0  0  0  0  0  0
  -21.5090   -4.6230   24.9160 C   0  0  0  0  0  0  0  0  0  0  0  0
  -21.9330   -4.0540   23.7030 C   0  0  0  0  0  3  0  0  0  0  0  0
  -22.0370   -4.8540   22.5510 C   0  0  0  0  0  0  0  0  0  0  0  0
  -22.4250   -4.2970   21.3790 F   0  0  0  0  0  0  0  0  0  0  0  0
  -21.4040   -3.8500   26.0230 F   0  0  0  0  0  0  0  0  0  0  0  0
  -22.8630  -13.5940   21.0600 C   0  0  0  0  0  0  0  0  0  0  0  0
  -22.1400  -12.9020   21.9360 N   0  0  0  0  0  0  0  0  0  0  0  0
  -22.4230  -14.6170   20.5390 O   0  0  0  0  0  0  0  0  0  0  0  0
  -22.5090  -12.0740   22.3790 H   0  0  0  0  0  0  0  0  0  0  0  0
  -21.2050  -13.2070   22.1650 H   0  0  0  0  0  0  0  0  0  0  0  0
  -25.4910  -15.2490   20.2060 N   0  0  0  0  0  0  0  0  0  0  0  0
  -24.7300  -15.9110   20.3170 H   0  0  0  0  0  0  0  0  0  0  0  0
  -26.3470  -15.6820   19.8790 H   0  0  0  0  0  0  0  0  0  0  0  0
  1  3  1  0
  2  4  1  0
  2  5  1  0
  5 12  1  0
  5  1  1  0
  6  4  1  0
  6 55  1  1
  6  3  1  0
  7  6  1  0
  8 10  1  0
  8  7  1  0
  9  7  2  0
 11  8  1  0
 12 13  1  0
 14 16  1  0
 14 13  1  0
 15 26  2  0
 16 21  1  0
 17 25  1  0
 17 27  1  0
 18 24  1  0
 18 20  1  0
 19 25  1  0
 20 19  1  0
 21 20  2  0
 22 23  1  0
 22 16  2  0
 23 18  2  0
 24 17  1  0
 25 15  1  0
 27 29  2  0
 28 27  1  0
 30 28  1  0
 31 40  2  0
 31 36  1  0
 32 28  1  0
 32 36  1  0
 33 32  1  0
 34 35  1  0
 34 33  1  0
 35 31  1  0
 36 37  2  0
 37 38  1  0
 39 38  2  0
 40 39  1  0
 41 15  1  0
 41 42  1  0
 41 51  1  0
 42 45  1  0
 43 47  1  0
 43 42  1  0
 44 43  2  0
 47 46  1  0
 49 47  1  0
 49 50  1  0
 49 48  1  0
 51 54  1  1
 51 52  1  0
 53 51  1  0
 55 56  2  0
 56 57  1  0
 58 66  1  0
 59 64  1  0
 60 61  1  0
 60 59  1  0
 62 61  1  0
 62 71  1  0
 62 63  1  0
 64 58  1  0
 64 63  1  0
 65 58  2  0
 66 67  1  0
 66 57  1  0
 68 69  2  0
 69 88  1  0
 70 69  1  0
 70 73  1  0
 71 68  1  0
 71 72  1  0
 72 70  2  0
 73 74  1  0
 74 75  2  0
 76 79  1  0
 76 75  1  0
 77 76  2  0
 78 77  1  0
 78 73  2  0
 79 80  1  0
 80 81  1  0
 81 82  2  0
 83 82  1  0
 83 87  1  0
 84 83  2  0
 85 80  2  0
 85 84  1  0
 86 85  1  0
 88 89  1  0
 89 92  1  0
 89 91  1  0
 90 88  2  0
 93 94  1  0
 93 68  1  0
 95 93  1  0
M  ISO  4  13 101  14 101  58 100  66 100
M  END
>  <TORSDO>  (35) 
F 22

>  <SCORE>  (35) 
-13.307

>  <name>  (35) 
35

>  <ligand_id>  (35) 
35

>  <original_smiles>  (35) 
[H]c1c([H])c([H])c2c(c1[H])C([H])([H])C([H])([H])C([H])([H])C2([H])N([H])C(=O)C1([H])N(C(=O)C([H])(N([H])C(=O)C([H])(N([H])C([H])([H])[H])C([H])([H])[H])C(C([H])([H])[H])(C([H])([H])[H])C([H])([H])[H])C([H])([H])c2c([H])c(OC([H])([H])C([H])([H])C3([H])C([H])([H])C([H])([H])C(C(=O)N([H])[H])(C([H])([H])C([H])([H])C([H])([H])N([H])C(=O)N4C([H])([H])C([H])([H])C([H])([H])C([H])(n5nc(-c6c([H])c([H])c(Oc7c([H])c([H])c(F)c([H])c7F)c([H])c6[H])c(C(=O)N([H])[H])c5N([H])[H])C4([H])[H])C([H])([H])C3([H])[H])c([H])c([H])c2C1([H])[H]

>  <smiles>  (35) 
[H]c1c([H])c([H])c2c(c1[H])C([H])([H])C([H])([H])C([H])([H])C2([H])N([H])C(=O)C1([H])N(C(=O)C([H])(N([H])C(=O)C([H])(N([H])C([H])([H])[H])C([H])([H])[H])C(C([H])([H])[H])(C([H])([H])[H])C([H])([H])[H])C([H])([H])c2c([H])c(OC([H])([H])C([H])([H])C3([H])C([H])([H])C([H])([H])C(C(=O)N([H])[H])(C([H])([H])C([H])([H])C([H])([H])N([H])C(=O)N4C([H])([H])C([H])([H])C([H])([H])C([H])(n5nc(-c6c([H])c([H])c(Oc7c([H])c([H])c(F)c([H])c7F)c([H])c6[H])c(C(=O)N([H])[H])c5N([H])[H])C4([H])[H])C([H])([H])C3([H])[H])c([H])c([H])c2C1([H])[H]

$$$$
36:0:0
     RDKit          3D

 95104  0  0  1  0  0  0  0  0999 V2000
  -32.0320  -21.3920   21.6770 C   0  0  0  0  0  3  0  0  0  0  0  0
  -31.7280  -20.0690   22.0440 C   0  0  0  0  0  3  0  0  0  0  0  0
  -29.9840  -20.0010   20.3410 C   0  0  0  0  0  3  0  0  0  0  0  0
  -31.3110  -22.0370   20.6490 C   0  0  0  0  0  0  0  0  0  0  0  0
  -30.2750  -21.3340   19.9780 C   0  0  0  0  0  0  0  0  0  0  0  0
  -30.7140  -19.3630   21.3660 C   0  0  0  0  0  0  0  0  0  0  0  0
  -31.6710  -23.4360   20.2800 C   0  0  0  0  0  0  0  0  0  0  0  0
  -29.4530  -21.9850   18.8740 C   0  0  0  0  0  2  0  0  0  0  0  0
  -30.1310  -23.2270   18.2760 C   0  0  0  0  0  2  0  0  0  0  0  0
  -30.7100  -24.1790   19.3420 C   0  0  0  0  0  3  0  0  0  0  0  0
  -32.6640  -24.0250   20.7180 O   0  0  0  0  0  0  0  0  0  0  0  0
  -30.4260  -17.9130   21.7200 C   0  0  0  0  0  2  0  0  0  0  0  0
  -31.6330  -17.0080   21.4200 C   0  0  0  0  0  2  0  0  0  0  0  0
  -31.4860  -15.5600   21.9170 C   0  0  0  0  0  2  0  0  0  0  0  0
  -30.5450  -14.2690   20.0130 C   0  0  0  0  0  0  0  0  0  0  0  0
  -30.0170  -12.2530   18.6970 C   0  0  0  0  0  2  0  0  0  0  0  0
  -28.9690  -12.4760   17.5950 C   0  0  0  0  0  2  0  0  0  0  0  0
  -27.5520  -12.3010   18.1640 C   0  0  0  0  0  2  0  0  0  0  0  0
  -27.3210  -13.1340   19.4500 C   0  0  0  0  0  3  0  0  0  0  0  0
  -28.4640  -12.9160   20.4650 C   0  0  0  0  0  2  0  0  0  0  0  0
  -29.7530  -13.1890   19.8000 N   0  0  0  0  0  0  0  0  0  0  0  0
  -31.4290  -14.6300   19.2330 O   0  0  0  0  0  0  0  0  0  0  0  0
  -30.4390  -14.7960   21.2390 N   0  0  0  0  0  0  0  0  0  0  0  0
  -29.6880  -14.4390   21.8120 H   0  0  0  0  0  0  0  0  0  0  0  0
  -24.9730  -13.7050   20.3400 C   0  0  0  0  0  0  0  0  0  0  0  0
  -23.9550  -12.9180   20.8060 C   0  0  0  0  0  0  0  0  0  0  0  0
  -24.4440  -11.5750   20.7640 C   0  0  0  0  0  0  0  0  0  0  0  0
  -26.0170  -12.8440   20.0420 N   0  0  0  0  0  0  0  0  0  0  0  0
  -25.7050  -11.5590   20.3540 N   0  0  0  0  0  0  0  0  0  0  0  0
  -23.7660  -10.3020   21.0340 C   0  0  0  0  0  0  0  0  0  0  0  0
  -24.2610   -9.3870   21.9890 C   0  0  0  0  0  3  0  0  0  0  0  0
  -23.5790   -8.1780   22.2420 C   0  0  0  0  0  3  0  0  0  0  0  0
  -22.3900   -7.8720   21.5390 C   0  0  0  0  0  0  0  0  0  0  0  0
  -21.9140   -8.7750   20.5700 C   0  0  0  0  0  3  0  0  0  0  0  0
  -22.5970   -9.9770   20.3170 C   0  0  0  0  0  3  0  0  0  0  0  0
  -21.6750   -6.7090   21.7000 O   0  0  0  0  0  0  0  0  0  0  0  0
  -21.6640   -6.0300   22.8920 C   0  0  0  0  0  0  0  0  0  0  0  0
  -21.2300   -6.6390   24.0910 C   0  0  0  0  0  3  0  0  0  0  0  0
  -21.1700   -5.8840   25.2800 C   0  0  0  0  0  3  0  0  0  0  0  0
  -21.5330   -4.5240   25.2730 C   0  0  0  0  0  0  0  0  0  0  0  0
  -21.9590   -3.9160   24.0790 C   0  0  0  0  0  3  0  0  0  0  0  0
  -22.0220   -4.6670   22.8910 C   0  0  0  0  0  0  0  0  0  0  0  0
  -22.4130   -4.0720   21.7400 F   0  0  0  0  0  0  0  0  0  0  0  0
  -21.4670   -3.7970   26.4130 F   0  0  0  0  0  0  0  0  0  0  0  0
  -22.5710  -13.3680   21.1800 C   0  0  0  0  0  0  0  0  0  0  0  0
  -21.9310  -12.6730   22.1140 N   0  0  0  0  0  0  0  0  0  0  0  0
  -22.0680  -14.3720   20.6760 O   0  0  0  0  0  0  0  0  0  0  0  0
  -22.3480  -11.8570   22.5360 H   0  0  0  0  0  0  0  0  0  0  0  0
  -21.0060  -12.9560   22.4050 H   0  0  0  0  0  0  0  0  0  0  0  0
  -25.0920  -15.0760   20.1270 N   0  0  0  0  0  0  0  0  0  0  0  0
  -24.3290  -15.7230   20.2960 H   0  0  0  0  0  0  0  0  0  0  0  0
  -25.9150  -15.5240   19.7440 H   0  0  0  0  0  0  0  0  0  0  0  0
  -29.6520  -24.9430   20.1680 C   0  0  0  0  0  2  0  0  0  0  0  0
  -28.7520  -25.8730   19.3440 C   0  0  0  0  0  2  0  0  0  0  0  0
  -28.4470  -26.9760   20.1920 O   0  0  0  0  0  0  0  0  0  0  0  0
  -24.5490  -31.9830   23.3030 C   0  0  0  0  0  0  0  0  0  0  0  0
  -27.2280  -27.6160   20.1610 C   0  0  0  0  0  0  0  0  0  0  0  0
  -23.3430  -30.5870   21.6500 C   0  0  0  0  0  3  0  0  0  0  0  0
  -24.8040  -29.0730   20.2070 C   0  0  0  0  0  0  0  0  0  0  0  0
  -25.8600  -30.9740   21.4450 C   0  0  0  0  0  2  0  0  0  0  0  0
  -25.9520  -29.6080   20.8010 C   0  0  0  0  0  0  0  0  0  0  0  0
  -27.1610  -28.8790   20.7860 C   0  0  0  0  0  3  0  0  0  0  0  0
  -26.0580  -27.0840   19.5730 C   0  0  0  0  0  3  0  0  0  0  0  0
  -24.8510  -27.8070   19.5970 C   0  0  0  0  0  3  0  0  0  0  0  0
  -23.5480  -29.9100   20.2650 C   0  0  0  0  0  2  0  0  0  0  0  0
  -24.6020  -31.1950   22.1920 N   0  0  0  0  0  0  0  0  0  0  0  0
  -23.4700  -32.2390   23.8520 O   0  0  0  0  0  0  0  0  0  0  0  0
  -22.7090  -29.5530   22.6060 C   0  0  0  0  0  0  0  0  0  0  0  0
  -21.3870  -29.3530   22.4730 N   0  0  0  0  0  0  0  0  0  0  0  0
  -23.4010  -28.9340   23.4180 O   0  0  0  0  0  0  0  0  0  0  0  0
  -20.8920  -29.9100   21.7900 H   0  0  0  0  0  0  0  0  0  0  0  0
  -18.0330  -28.1040   22.9540 C   0  0  0  0  0  0  0  0  0  0  0  0
  -20.5840  -28.4000   23.2370 C   0  0  0  0  0  3  0  0  0  0  0  0
  -20.7080  -26.9730   22.6550 C   0  0  0  0  0  2  0  0  0  0  0  0
  -19.6150  -26.6380   21.6360 C   0  0  0  0  0  2  0  0  0  0  0  0
  -18.2290  -26.7580   22.2760 C   0  0  0  0  0  2  0  0  0  0  0  0
  -19.1390  -28.8820   23.3910 C   0  0  0  0  0  0  0  0  0  0  0  0
  -18.9010  -30.1390   23.9850 C   0  0  0  0  0  3  0  0  0  0  0  0
  -17.5900  -30.6240   24.1420 C   0  0  0  0  0  3  0  0  0  0  0  0
  -16.4980  -29.8470   23.7190 C   0  0  0  0  0  3  0  0  0  0  0  0
  -16.7210  -28.5870   23.1370 C   0  0  0  0  0  3  0  0  0  0  0  0
  -25.8330  -32.6200   23.9250 C   0  0  0  0  0  3  0  0  0  0  0  0
  -25.5220  -34.0210   24.2360 N   0  0  0  0  0  0  0  0  0  0  0  0
  -25.8620  -35.0650   23.4680 C   0  0  0  0  0  0  0  0  0  0  0  0
  -26.5400  -34.9530   22.4430 O   0  0  0  0  0  0  0  0  0  0  0  0
  -24.9210  -34.1830   25.0310 H   0  0  0  0  0  0  0  0  0  0  0  0
  -24.1330  -36.8510   23.0880 C   0  0  0  0  0  1  0  0  0  0  0  0
  -25.3710  -36.4570   23.9080 C   0  0  0  0  0  3  0  0  0  0  0  0
  -27.4950  -37.3560   24.7470 C   0  0  0  0  0  1  0  0  0  0  0  0
  -26.4020  -37.5110   23.7890 N   0  0  0  0  0  0  0  0  0  0  0  0
  -25.9940  -38.4310   23.9270 H   0  0  0  0  0  0  0  0  0  0  0  0
  -26.3470  -31.8580   25.2100 C   0  0  1  0  0  0  0  0  0  0  0  0
  -25.2480  -31.6080   26.2690 C   0  0  0  0  0  1  0  0  0  0  0  0
  -26.9510  -30.4890   24.8240 C   0  0  0  0  0  1  0  0  0  0  0  0
  -27.4830  -32.6660   25.8830 C   0  0  0  0  0  1  0  0  0  0  0  0
  1  2  1  0
  3  6  1  0
  4  1  2  0
  5  3  2  0
  5  4  1  0
  6 12  1  0
  6  2  2  0
  7  4  1  0
  7 11  2  0
  8  5  1  0
  9  8  1  0
  9 10  1  0
 10 53  1  0
 10  7  1  0
 13 12  1  0
 13 14  1  0
 15 23  1  0
 16 21  1  0
 17 18  1  0
 17 16  1  0
 19 18  1  0
 19 28  1  0
 19 20  1  0
 21 15  1  0
 21 20  1  0
 22 15  2  0
 23 24  1  0
 23 14  1  0
 25 26  2  0
 26 45  1  0
 27 26  1  0
 27 30  1  0
 28 25  1  0
 28 29  1  0
 29 27  2  0
 30 31  1  0
 31 32  2  0
 33 36  1  0
 33 32  1  0
 34 33  2  0
 35 34  1  0
 35 30  2  0
 36 37  1  0
 37 38  1  0
 38 39  2  0
 40 39  1  0
 40 44  1  0
 41 40  2  0
 42 37  2  0
 42 41  1  0
 43 42  1  0
 45 46  1  0
 46 49  1  0
 46 48  1  0
 47 45  2  0
 50 51  1  0
 50 25  1  0
 52 50  1  0
 54 53  1  0
 54 55  1  0
 56 67  2  0
 57 55  1  0
 57 62  1  0
 58 66  1  0
 58 68  1  0
 59 65  1  0
 59 61  1  0
 60 66  1  0
 61 60  1  0
 62 61  2  0
 63 64  1  0
 63 57  2  0
 64 59  2  0
 65 58  1  0
 66 56  1  0
 68 70  2  0
 69 68  1  0
 71 69  1  0
 72 81  2  0
 72 77  1  0
 73 69  1  0
 73 77  1  0
 74 73  1  0
 75 76  1  0
 75 74  1  0
 76 72  1  0
 77 78  2  0
 78 79  1  0
 80 79  2  0
 81 80  1  0
 82 56  1  0
 82 83  1  0
 82 92  1  0
 83 86  1  0
 84 88  1  0
 84 83  1  0
 85 84  2  0
 88 87  1  0
 90 88  1  0
 90 91  1  0
 90 89  1  0
 92 95  1  1
 92 93  1  0
 94 92  1  0
M  ISO  4  15 100  23 100  54 101  55 101
M  END
>  <TORSDO>  (36) 
F 21

>  <SCORE>  (36) 
-12.105

>  <name>  (36) 
36

>  <ligand_id>  (36) 
36

>  <original_smiles>  (36) 
[H]c1c([H])c([H])c2c(c1[H])C([H])([H])C([H])([H])C([H])([H])C2([H])N([H])C(=O)C1([H])N(C(=O)C([H])(N([H])C(=O)C([H])(N([H])C([H])([H])[H])C([H])([H])[H])C(C([H])([H])[H])(C([H])([H])[H])C([H])([H])[H])C([H])([H])c2c([H])c(OC([H])([H])C([H])([H])C3([H])C(=O)c4c([H])c([H])c(C([H])([H])C([H])([H])C([H])([H])N([H])C(=O)N5C([H])([H])C([H])([H])C([H])([H])C([H])(n6nc(-c7c([H])c([H])c(Oc8c([H])c([H])c(F)c([H])c8F)c([H])c7[H])c(C(=O)N([H])[H])c6N([H])[H])C5([H])[H])c([H])c4C([H])([H])C3([H])[H])c([H])c([H])c2C1([H])[H]

>  <smiles>  (36) 
[H]c1c([H])c([H])c2c(c1[H])C([H])([H])C([H])([H])C([H])([H])C2([H])N([H])C(=O)C1([H])N(C(=O)C([H])(N([H])C(=O)C([H])(N([H])C([H])([H])[H])C([H])([H])[H])C(C([H])([H])[H])(C([H])([H])[H])C([H])([H])[H])C([H])([H])c2c([H])c(OC([H])([H])C([H])([H])C3([H])C(=O)c4c([H])c([H])c(C([H])([H])C([H])([H])C([H])([H])N([H])C(=O)N5C([H])([H])C([H])([H])C([H])([H])C([H])(n6nc(-c7c([H])c([H])c(Oc8c([H])c([H])c(F)c([H])c8F)c([H])c7[H])c(C(=O)N([H])[H])c6N([H])[H])C5([H])[H])c([H])c4C([H])([H])C3([H])[H])c([H])c([H])c2C1([H])[H]

$$$$
37:0:0
     RDKit          3D

 92101  0  0  1  0  0  0  0  0999 V2000
  -29.5710  -20.9770   20.2330 C   0  0  0  0  0  0  0  0  0  0  0  0
  -29.1630  -22.3780   19.7380 C   0  0  0  0  0  3  0  0  0  0  0  0
  -30.1620  -19.4080   19.5460 C   0  0  0  0  0  2  0  0  0  0  0  0
  -30.9210  -20.5870   22.4710 C   0  0  0  0  0  2  0  0  0  0  0  0
  -30.8120  -18.0860   21.5710 C   0  0  0  0  0  2  0  0  0  0  0  0
  -29.6150  -20.6600   21.7090 C   0  0  0  0  0  3  0  0  0  0  0  0
  -30.1380  -19.3040   22.3060 C   0  0  0  0  0  3  0  0  0  0  0  0
  -30.1660  -17.6490   20.2140 C   0  0  2  0  0  0  0  0  0  0  0  0
  -30.9150  -15.9640   19.7570 C   0  0  0  0  0  0  0  0  0  0  0  0
  -30.9060  -13.4650   18.7550 C   0  0  0  0  0  2  0  0  0  0  0  0
  -29.8900  -13.1990   17.6070 C   0  0  0  0  0  2  0  0  0  0  0  0
  -28.5100  -12.8300   18.1620 C   0  0  0  0  0  2  0  0  0  0  0  0
  -28.1290  -13.7540   19.3400 C   0  0  0  0  0  3  0  0  0  0  0  0
  -29.2690  -13.9290   20.3760 C   0  0  0  0  0  2  0  0  0  0  0  0
  -30.4030  -14.5860   19.6730 N   0  0  0  0  0  0  0  0  0  0  0  0
  -32.1020  -15.9100   19.3660 O   0  0  0  0  0  0  0  0  0  0  0  0
  -25.8460  -14.2580   20.3330 C   0  0  0  0  0  0  0  0  0  0  0  0
  -24.8170  -13.4660   20.7550 C   0  0  0  0  0  0  0  0  0  0  0  0
  -25.2680  -12.1180   20.6110 C   0  0  0  0  0  0  0  0  0  0  0  0
  -26.8560  -13.4000   19.9510 N   0  0  0  0  0  0  0  0  0  0  0  0
  -26.5280  -12.0990   20.1840 N   0  0  0  0  0  0  0  0  0  0  0  0
  -24.5450  -10.8580   20.8050 C   0  0  0  0  0  0  0  0  0  0  0  0
  -24.9520   -9.9220   21.7780 C   0  0  0  0  0  3  0  0  0  0  0  0
  -24.2270   -8.7280   21.9640 C   0  0  0  0  0  3  0  0  0  0  0  0
  -23.0770   -8.4620   21.1780 C   0  0  0  0  0  0  0  0  0  0  0  0
  -22.6890   -9.3890   20.1970 C   0  0  0  0  0  3  0  0  0  0  0  0
  -23.4150  -10.5760   20.0110 C   0  0  0  0  0  3  0  0  0  0  0  0
  -22.3260   -7.3160   21.2710 O   0  0  0  0  0  0  0  0  0  0  0  0
  -22.0730   -6.7120   22.4760 C   0  0  0  0  0  0  0  0  0  0  0  0
  -21.4160   -7.3900   23.5290 C   0  0  0  0  0  3  0  0  0  0  0  0
  -21.1210   -6.7110   24.7280 C   0  0  0  0  0  3  0  0  0  0  0  0
  -21.4640   -5.3550   24.8750 C   0  0  0  0  0  0  0  0  0  0  0  0
  -22.1100   -4.6780   23.8230 C   0  0  0  0  0  3  0  0  0  0  0  0
  -22.4110   -5.3550   22.6290 C   0  0  0  0  0  0  0  0  0  0  0  0
  -23.0170   -4.6900   21.6170 F   0  0  0  0  0  0  0  0  0  0  0  0
  -21.1690   -4.6970   26.0200 F   0  0  0  0  0  0  0  0  0  0  0  0
  -23.4590  -13.9370   21.1870 C   0  0  0  0  0  0  0  0  0  0  0  0
  -22.8200  -13.2300   22.1110 N   0  0  0  0  0  0  0  0  0  0  0  0
  -22.9880  -14.9850   20.7410 O   0  0  0  0  0  0  0  0  0  0  0  0
  -23.2140  -12.3780   22.4840 H   0  0  0  0  0  0  0  0  0  0  0  0
  -21.9140  -13.5240   22.4400 H   0  0  0  0  0  0  0  0  0  0  0  0
  -25.9850  -15.6380   20.2400 N   0  0  0  0  0  0  0  0  0  0  0  0
  -25.1110  -16.0270   20.5860 H   0  0  0  0  0  0  0  0  0  0  0  0
  -26.7150  -15.8880   20.8990 H   0  0  0  0  0  0  0  0  0  0  0  0
  -28.3950  -23.9930   20.2550 C   0  0  0  0  0  2  0  0  0  0  0  0
  -28.5150  -25.7170   19.9360 O   0  0  0  0  0  0  0  0  0  0  0  0
  -24.6930  -31.7350   23.0250 C   0  0  0  0  0  0  0  0  0  0  0  0
  -27.4660  -26.8680   19.9270 C   0  0  0  0  0  0  0  0  0  0  0  0
  -23.5600  -30.3010   21.3820 C   0  0  0  0  0  3  0  0  0  0  0  0
  -25.0780  -28.7640   19.9200 C   0  0  0  0  0  0  0  0  0  0  0  0
  -26.1210  -30.5960   21.2200 C   0  0  0  0  0  2  0  0  0  0  0  0
  -26.2600  -29.1790   20.5420 C   0  0  0  0  0  0  0  0  0  0  0  0
  -27.4400  -28.2650   20.5060 C   0  0  0  0  0  3  0  0  0  0  0  0
  -26.2360  -26.6550   19.2500 C   0  0  0  0  0  3  0  0  0  0  0  0
  -25.1050  -27.5280   19.2460 C   0  0  0  0  0  3  0  0  0  0  0  0
  -23.8180  -29.6400   19.9950 C   0  0  0  0  0  2  0  0  0  0  0  0
  -24.8150  -30.9110   21.9290 N   0  0  0  0  0  0  0  0  0  0  0  0
  -23.5930  -31.9650   23.5550 O   0  0  0  0  0  0  0  0  0  0  0  0
  -22.9140  -29.2700   22.3460 C   0  0  0  0  0  0  0  0  0  0  0  0
  -21.5960  -29.0210   22.2210 N   0  0  0  0  0  0  0  0  0  0  0  0
  -23.6190  -28.6840   23.1730 O   0  0  0  0  0  0  0  0  0  0  0  0
  -21.0780  -29.5560   21.5360 H   0  0  0  0  0  0  0  0  0  0  0  0
  -18.3080  -27.5510   22.7090 C   0  0  0  0  0  0  0  0  0  0  0  0
  -20.8380  -28.0230   22.9850 C   0  0  0  0  0  3  0  0  0  0  0  0
  -21.0540  -26.6040   22.4080 C   0  0  0  0  0  2  0  0  0  0  0  0
  -19.9870  -26.1990   21.3840 C   0  0  0  0  0  2  0  0  0  0  0  0
  -18.5960  -26.2260   22.0220 C   0  0  0  0  0  2  0  0  0  0  0  0
  -19.3600  -28.4050   23.1440 C   0  0  0  0  0  0  0  0  0  0  0  0
  -19.0330  -29.6380   23.7490 C   0  0  0  0  0  3  0  0  0  0  0  0
  -17.6900  -30.0210   23.9220 C   0  0  0  0  0  3  0  0  0  0  0  0
  -16.6550  -29.1730   23.4940 C   0  0  0  0  0  3  0  0  0  0  0  0
  -16.9660  -27.9390   22.8950 C   0  0  0  0  0  3  0  0  0  0  0  0
  -25.9250  -32.4440   23.6620 C   0  0  0  0  0  3  0  0  0  0  0  0
  -26.4890  -31.6840   24.9260 C   0  0  1  0  0  0  0  0  0  0  0  0
  -25.4190  -31.3660   25.9990 C   0  0  0  0  0  1  0  0  0  0  0  0
  -27.1470  -30.3480   24.5190 C   0  0  0  0  0  1  0  0  0  0  0  0
  -27.5960  -32.5330   25.5930 C   0  0  0  0  0  1  0  0  0  0  0  0
  -25.5250  -33.8130   24.0420 N   0  0  0  0  0  0  0  0  0  0  0  0
  -25.7870  -34.9200   23.3320 C   0  0  0  0  0  0  0  0  0  0  0  0
  -26.4480  -34.9010   22.2920 O   0  0  0  0  0  0  0  0  0  0  0  0
  -24.9260  -33.8990   24.8510 H   0  0  0  0  0  0  0  0  0  0  0  0
  -23.9570  -36.6350   23.0890 C   0  0  0  0  0  1  0  0  0  0  0  0
  -25.2330  -36.2610   23.8590 C   0  0  0  0  0  3  0  0  0  0  0  0
  -27.3230  -37.2450   24.6940 C   0  0  0  0  0  1  0  0  0  0  0  0
  -26.2030  -37.3750   23.7680 N   0  0  0  0  0  0  0  0  0  0  0  0
  -25.7470  -38.2670   23.9470 H   0  0  0  0  0  0  0  0  0  0  0  0
  -28.6480  -17.3840   20.4950 C   0  0  0  0  0  2  0  0  0  0  0  0
  -27.5890  -17.7940   19.4320 C   0  0  0  0  0  2  0  0  0  0  0  0
  -26.2370  -17.8240   20.0370 N   0  0  0  0  0  4  0  0  0  0  0  0
  -26.0400  -16.9460   20.5000 H   0  0  0  0  0  0  0  0  0  0  0  0
  -25.5290  -18.0030   19.3440 H   0  0  0  0  0  0  0  0  0  0  0  0
  -26.1700  -18.5500   20.7330 H   0  0  0  0  0  0  0  0  0  0  0  0
  1  6  1  0
  2  1  2  0
  2 45  1  0
  3  8  1  0
  3  1  1  0
  6  7  1  0
  6  4  1  0
  7  5  1  0
  7  4  1  0
  8 87  1  1
  8  5  1  0
  9  8  1  0
 10 15  1  0
 11 12  1  0
 11 10  1  0
 13 12  1  0
 13 20  1  0
 13 14  1  0
 15  9  1  0
 15 14  1  0
 16  9  2  0
 17 18  2  0
 18 37  1  0
 19 18  1  0
 19 22  1  0
 20 21  1  0
 20 17  1  0
 21 19  2  0
 22 23  1  0
 23 24  2  0
 25 28  1  0
 25 24  1  0
 26 25  2  0
 27 26  1  0
 27 22  2  0
 28 29  1  0
 29 34  2  0
 29 30  1  0
 30 31  2  0
 31 32  1  0
 32 36  1  0
 33 32  2  0
 34 33  1  0
 35 34  1  0
 37 38  1  0
 38 41  1  0
 38 40  1  0
 39 37  2  0
 42 17  1  0
 42 43  1  0
 42 44  1  0
 46 45  1  0
 47 58  2  0
 48 46  1  0
 48 53  1  0
 49 57  1  0
 49 59  1  0
 50 56  1  0
 50 52  1  0
 51 57  1  0
 52 51  1  0
 53 52  2  0
 54 48  2  0
 55 54  1  0
 55 50  2  0
 56 49  1  0
 57 47  1  0
 59 61  2  0
 60 59  1  0
 62 60  1  0
 63 72  2  0
 63 68  1  0
 64 60  1  0
 64 68  1  0
 65 64  1  0
 66 67  1  0
 66 65  1  0
 67 63  1  0
 68 69  2  0
 69 70  1  0
 71 70  2  0
 72 71  1  0
 73 47  1  0
 73 78  1  0
 73 74  1  0
 74 77  1  1
 74 75  1  0
 76 74  1  0
 78 81  1  0
 79 83  1  0
 79 78  1  0
 80 79  2  0
 83 82  1  0
 85 83  1  0
 85 86  1  0
 85 84  1  0
 88 89  1  0
 88 87  1  0
 89 90  1  0
 89 92  1  0
 91 89  1  0
M  ISO  4   8 100   9 100  45 101  46 101
M  END
>  <TORSDO>  (37) 
F 20

>  <SCORE>  (37) 
-13.608

>  <name>  (37) 
37

>  <ligand_id>  (37) 
37

>  <original_smiles>  (37) 
[H]C(=C1C([H])([H])C(C(=O)N2C([H])([H])C([H])([H])C([H])([H])C([H])(n3nc(-c4c([H])c([H])c(Oc5c([H])c([H])c(F)c([H])c5F)c([H])c4[H])c(C(=O)N([H])[H])c3N([H])[H])C2([H])[H])(C([H])([H])C([H])([H])[N+]([H])([H])[H])C([H])([H])C2([H])C([H])([H])C12[H])C([H])([H])Oc1c([H])c([H])c2c(c1[H])C([H])([H])N(C(=O)C([H])(N([H])C(=O)C([H])(N([H])C([H])([H])[H])C([H])([H])[H])C(C([H])([H])[H])(C([H])([H])[H])C([H])([H])[H])C([H])(C(=O)N([H])C1([H])c3c([H])c([H])c([H])c([H])c3C([H])([H])C([H])([H])C1([H])[H])C2([H])[H]

>  <smiles>  (37) 
[H]C(=C1C([H])([H])C(C(=O)N2C([H])([H])C([H])([H])C([H])([H])C([H])(n3nc(-c4c([H])c([H])c(Oc5c([H])c([H])c(F)c([H])c5F)c([H])c4[H])c(C(=O)N([H])[H])c3N([H])[H])C2([H])[H])(C([H])([H])C([H])([H])[N+]([H])([H])[H])C([H])([H])C2([H])C([H])([H])C12[H])C([H])([H])Oc1c([H])c([H])c2c(c1[H])C([H])([H])N(C(=O)C([H])(N([H])C(=O)C([H])(N([H])C([H])([H])[H])C([H])([H])[H])C(C([H])([H])[H])(C([H])([H])[H])C([H])([H])[H])C([H])(C(=O)N([H])C1([H])c3c([H])c([H])c([H])c([H])c3C([H])([H])C([H])([H])C1([H])[H])C2([H])[H]

$$$$
38:0:0
     RDKit          3D

 93102  0  0  1  0  0  0  0  0999 V2000
  -28.8020  -22.1810   20.9050 N   0  0  0  0  0  4  0  0  0  0  0  0
  -29.1240  -22.5540   21.7830 H   0  0  0  0  0  0  0  0  0  0  0  0
  -27.9950  -21.6160   21.1180 H   0  0  0  0  0  0  0  0  0  0  0  0
  -31.0860  -21.2090   21.2380 C   0  0  0  0  0  2  0  0  0  0  0  0
  -31.6860  -19.8250   20.9850 C   0  0  0  0  0  2  0  0  0  0  0  0
  -30.8400  -17.5940   19.8830 C   0  0  0  0  0  2  0  0  0  0  0  0
  -30.1810  -17.8160   21.8350 C   0  0  0  0  0  2  0  0  0  0  0  0
  -29.3750  -19.7910   20.2780 C   0  0  0  0  0  2  0  0  0  0  0  0
  -29.7820  -16.8490   20.7120 C   0  0  0  0  0  3  0  0  0  0  0  0
  -29.8380  -21.2660   20.3550 C   0  0  0  0  0  3  0  0  0  0  0  0
  -30.5270  -18.8570   20.7310 C   0  0  1  0  0  0  0  0  0  0  0  0
  -30.6610  -14.4680   20.3670 C   0  0  0  0  0  0  0  0  0  0  0  0
  -30.3600  -12.3310   19.1720 C   0  0  0  0  0  2  0  0  0  0  0  0
  -29.3980  -12.5750   17.9900 C   0  0  0  0  0  2  0  0  0  0  0  0
  -27.9290  -12.4390   18.4370 C   0  0  0  0  0  2  0  0  0  0  0  0
  -27.6170  -13.2400   19.7300 C   0  0  0  0  0  3  0  0  0  0  0  0
  -28.6850  -12.9610   20.8140 C   0  0  0  0  0  2  0  0  0  0  0  0
  -30.0110  -13.2770   20.2450 N   0  0  0  0  0  0  0  0  0  0  0  0
  -31.7360  -14.7020   19.8070 O   0  0  0  0  0  0  0  0  0  0  0  0
  -29.9600  -15.4150   21.0190 N   0  0  0  0  0  0  0  0  0  0  0  0
  -29.1890  -15.0230   21.5390 H   0  0  0  0  0  0  0  0  0  0  0  0
  -25.2210  -13.8520   20.4570 C   0  0  0  0  0  0  0  0  0  0  0  0
  -24.1550  -13.0810   20.8350 C   0  0  0  0  0  0  0  0  0  0  0  0
  -24.6130  -11.7280   20.7950 C   0  0  0  0  0  0  0  0  0  0  0  0
  -26.2640  -12.9700   20.2160 N   0  0  0  0  0  0  0  0  0  0  0  0
  -25.8990  -11.6870   20.4720 N   0  0  0  0  0  0  0  0  0  0  0  0
  -23.8880  -10.4660   20.9920 C   0  0  0  0  0  0  0  0  0  0  0  0
  -24.3250   -9.5020   21.9260 C   0  0  0  0  0  3  0  0  0  0  0  0
  -23.6010   -8.3030   22.1110 C   0  0  0  0  0  3  0  0  0  0  0  0
  -22.4260   -8.0630   21.3610 C   0  0  0  0  0  0  0  0  0  0  0  0
  -22.0070   -9.0160   20.4170 C   0  0  0  0  0  3  0  0  0  0  0  0
  -22.7310  -10.2050   20.2300 C   0  0  0  0  0  3  0  0  0  0  0  0
  -21.6740   -6.9160   21.4540 O   0  0  0  0  0  0  0  0  0  0  0  0
  -21.6220   -6.1810   22.6110 C   0  0  0  0  0  0  0  0  0  0  0  0
  -21.1840   -6.7400   23.8310 C   0  0  0  0  0  3  0  0  0  0  0  0
  -21.0810   -5.9300   24.9800 C   0  0  0  0  0  3  0  0  0  0  0  0
  -21.4060   -4.5620   24.9090 C   0  0  0  0  0  0  0  0  0  0  0  0
  -21.8360   -4.0020   23.6930 C   0  0  0  0  0  3  0  0  0  0  0  0
  -21.9410   -4.8090   22.5470 C   0  0  0  0  0  0  0  0  0  0  0  0
  -22.3370   -4.2610   21.3740 F   0  0  0  0  0  0  0  0  0  0  0  0
  -21.3000   -3.7820   26.0100 F   0  0  0  0  0  0  0  0  0  0  0  0
  -22.7610  -13.5600   21.1250 C   0  0  0  0  0  0  0  0  0  0  0  0
  -22.0410  -12.8610   21.9960 N   0  0  0  0  0  0  0  0  0  0  0  0
  -22.3170  -14.5860   20.6120 O   0  0  0  0  0  0  0  0  0  0  0  0
  -22.4120  -12.0320   22.4370 H   0  0  0  0  0  0  0  0  0  0  0  0
  -21.1060  -13.1620   22.2270 H   0  0  0  0  0  0  0  0  0  0  0  0
  -25.3860  -15.2230   20.2820 N   0  0  0  0  0  0  0  0  0  0  0  0
  -24.6240  -15.8800   20.4150 H   0  0  0  0  0  0  0  0  0  0  0  0
  -26.2380  -15.6620   19.9570 H   0  0  0  0  0  0  0  0  0  0  0  0
  -28.3330  -23.2990   20.0450 C   0  0  0  0  0  2  0  0  0  0  0  0
  -29.3280  -24.4780   19.9360 C   0  0  0  0  0  2  0  0  0  0  0  0
  -28.7490  -25.7310   19.2350 C   0  0  0  0  0  2  0  0  0  0  0  0
  -28.4400  -26.7610   20.1880 O   0  0  0  0  0  0  0  0  0  0  0  0
  -24.5860  -31.8870   23.2590 C   0  0  0  0  0  0  0  0  0  0  0  0
  -27.2390  -27.4470   20.1550 C   0  0  0  0  0  0  0  0  0  0  0  0
  -23.3780  -30.4810   21.6210 C   0  0  0  0  0  3  0  0  0  0  0  0
  -24.8290  -28.9450   20.1910 C   0  0  0  0  0  0  0  0  0  0  0  0
  -25.9030  -30.8390   21.4190 C   0  0  0  0  0  2  0  0  0  0  0  0
  -25.9870  -29.4680   20.7800 C   0  0  0  0  0  0  0  0  0  0  0  0
  -27.1860  -28.7220   20.7680 C   0  0  0  0  0  3  0  0  0  0  0  0
  -26.0540  -26.9280   19.5820 C   0  0  0  0  0  3  0  0  0  0  0  0
  -24.8580  -27.6730   19.5940 C   0  0  0  0  0  3  0  0  0  0  0  0
  -23.5830  -29.7980   20.2420 C   0  0  0  0  0  2  0  0  0  0  0  0
  -24.6410  -31.0850   22.1570 N   0  0  0  0  0  0  0  0  0  0  0  0
  -23.5040  -32.1570   23.8010 O   0  0  0  0  0  0  0  0  0  0  0  0
  -22.7320  -29.4590   22.5830 C   0  0  0  0  0  0  0  0  0  0  0  0
  -21.4090  -29.2740   22.4530 N   0  0  0  0  0  0  0  0  0  0  0  0
  -23.4180  -28.8360   23.3970 O   0  0  0  0  0  0  0  0  0  0  0  0
  -20.9200  -29.8270   21.7640 H   0  0  0  0  0  0  0  0  0  0  0  0
  -18.0360  -28.0810   22.9540 C   0  0  0  0  0  0  0  0  0  0  0  0
  -20.5930  -28.3360   23.2230 C   0  0  0  0  0  3  0  0  0  0  0  0
  -20.6950  -26.9070   22.6450 C   0  0  0  0  0  2  0  0  0  0  0  0
  -19.5910  -26.5870   21.6320 C   0  0  0  0  0  2  0  0  0  0  0  0
  -18.2100  -26.7330   22.2770 C   0  0  0  0  0  2  0  0  0  0  0  0
  -19.1550  -28.8420   23.3840 C   0  0  0  0  0  0  0  0  0  0  0  0
  -18.9390  -30.1040   23.9750 C   0  0  0  0  0  3  0  0  0  0  0  0
  -17.6350  -30.6070   24.1430 C   0  0  0  0  0  3  0  0  0  0  0  0
  -16.5290  -29.8430   23.7320 C   0  0  0  0  0  3  0  0  0  0  0  0
  -16.7310  -28.5820   23.1420 C   0  0  0  0  0  3  0  0  0  0  0  0
  -25.8710  -32.5190   23.8770 C   0  0  0  0  0  3  0  0  0  0  0  0
  -26.3870  -31.7540   25.1570 C   0  0  1  0  0  0  0  0  0  0  0  0
  -25.2950  -31.5250   26.2260 C   0  0  0  0  0  1  0  0  0  0  0  0
  -26.9680  -30.3740   24.7720 C   0  0  0  0  0  1  0  0  0  0  0  0
  -27.5400  -32.5500   25.8140 C   0  0  0  0  0  1  0  0  0  0  0  0
  -25.5680  -33.9200   24.1960 N   0  0  0  0  0  0  0  0  0  0  0  0
  -25.9110  -34.9660   23.4310 C   0  0  0  0  0  0  0  0  0  0  0  0
  -26.5890  -34.8520   22.4060 O   0  0  0  0  0  0  0  0  0  0  0  0
  -24.9700  -34.0840   24.9920 H   0  0  0  0  0  0  0  0  0  0  0  0
  -24.1970  -36.7640   23.0420 C   0  0  0  0  0  1  0  0  0  0  0  0
  -25.4250  -36.3590   23.8730 C   0  0  0  0  0  3  0  0  0  0  0  0
  -27.5510  -37.2360   24.7320 C   0  0  0  0  0  1  0  0  0  0  0  0
  -26.4650  -37.4050   23.7700 N   0  0  0  0  0  0  0  0  0  0  0  0
  -26.0630  -38.3290   23.9070 H   0  0  0  0  0  0  0  0  0  0  0  0
  1  3  1  0
  1  2  1  0
  5  4  1  0
  6  9  1  0
  8 10  1  0
 11  8  1  6
  9 20  1  0
  9  7  1  0
 10  1  1  0
 10  4  1  0
 11  6  1  0
 11  5  1  0
 11  7  1  0
 12 20  1  0
 13 18  1  0
 14 15  1  0
 14 13  1  0
 16 15  1  0
 16 25  1  0
 16 17  1  0
 18 12  1  0
 18 17  1  0
 19 12  2  0
 20 21  1  0
 22 23  2  0
 23 42  1  0
 24 23  1  0
 24 27  1  0
 25 22  1  0
 25 26  1  0
 26 24  2  0
 27 28  1  0
 28 29  2  0
 30 33  1  0
 30 29  1  0
 31 30  2  0
 32 31  1  0
 32 27  2  0
 33 34  1  0
 34 35  1  0
 35 36  2  0
 37 36  1  0
 37 41  1  0
 38 37  2  0
 39 34  2  0
 39 38  1  0
 40 39  1  0
 42 43  1  0
 43 46  1  0
 43 45  1  0
 44 42  2  0
 47 48  1  0
 47 22  1  0
 49 47  1  0
 50  1  1  0
 51 50  1  0
 52 51  1  0
 52 53  1  0
 54 65  2  0
 55 53  1  0
 55 60  1  0
 56 64  1  0
 56 66  1  0
 57 63  1  0
 57 59  1  0
 58 64  1  0
 59 58  1  0
 60 59  2  0
 61 62  1  0
 61 55  2  0
 62 57  2  0
 63 56  1  0
 64 54  1  0
 66 68  2  0
 67 66  1  0
 69 67  1  0
 70 79  2  0
 70 75  1  0
 71 67  1  0
 71 75  1  0
 72 71  1  0
 73 74  1  0
 73 72  1  0
 74 70  1  0
 75 76  2  0
 76 77  1  0
 78 77  2  0
 79 78  1  0
 80 54  1  0
 80 85  1  0
 80 81  1  0
 81 84  1  1
 81 82  1  0
 83 81  1  0
 85 88  1  0
 86 90  1  0
 86 85  1  0
 87 86  2  0
 90 89  1  0
 92 90  1  0
 92 93  1  0
 92 91  1  0
M  ISO  4  12 100  20 100  52 101  53 101
M  END
>  <TORSDO>  (38) 
F 20

>  <SCORE>  (38) 
-13.893

>  <name>  (38) 
38

>  <ligand_id>  (38) 
38

>  <original_smiles>  (38) 
[H]c1c([H])c([H])c2c(c1[H])C([H])([H])C([H])([H])C([H])([H])C2([H])N([H])C(=O)C1([H])N(C(=O)C([H])(N([H])C(=O)C([H])(N([H])C([H])([H])[H])C([H])([H])[H])C(C([H])([H])[H])(C([H])([H])[H])C([H])([H])[H])C([H])([H])c2c([H])c(OC([H])([H])C([H])([H])C([H])([H])[N+]([H])([H])C3([H])C([H])([H])C([H])([H])C4(C([H])([H])C([H])(N([H])C(=O)N5C([H])([H])C([H])([H])C([H])([H])C([H])(n6nc(-c7c([H])c([H])c(Oc8c([H])c([H])c(F)c([H])c8F)c([H])c7[H])c(C(=O)N([H])[H])c6N([H])[H])C5([H])[H])C4([H])[H])C3([H])[H])c([H])c([H])c2C1([H])[H]

>  <smiles>  (38) 
[H]c1c([H])c([H])c2c(c1[H])C([H])([H])C([H])([H])C([H])([H])C2([H])N([H])C(=O)C1([H])N(C(=O)C([H])(N([H])C(=O)C([H])(N([H])C([H])([H])[H])C([H])([H])[H])C(C([H])([H])[H])(C([H])([H])[H])C([H])([H])[H])C([H])([H])c2c([H])c(OC([H])([H])C([H])([H])C([H])([H])[N+]([H])([H])C3([H])C([H])([H])C([H])([H])C4(C([H])([H])C([H])(N([H])C(=O)N5C([H])([H])C([H])([H])C([H])([H])C([H])(n6nc(-c7c([H])c([H])c(Oc8c([H])c([H])c(F)c([H])c8F)c([H])c7[H])c(C(=O)N([H])[H])c6N([H])[H])C5([H])[H])C4([H])[H])C3([H])[H])c([H])c([H])c2C1([H])[H]

$$$$
39:0:0
     RDKit          3D

 94103  0  0  1  0  0  0  0  0999 V2000
  -30.2360  -19.8200   23.1220 C   0  0  0  0  0  3  0  0  0  0  0  0
  -30.6210  -18.4770   22.9040 C   0  0  0  0  0  3  0  0  0  0  0  0
  -30.0500  -18.6600   20.5260 C   0  0  0  0  0  3  0  0  0  0  0  0
  -29.8100  -20.5770   22.0160 C   0  0  0  0  0  0  0  0  0  0  0  0
  -30.5490  -17.8940   21.6110 C   0  0  0  0  0  0  0  0  0  0  0  0
  -29.7030  -20.0100   20.7530 C   0  0  0  0  0  0  0  0  0  0  0  0
  -29.4830  -22.0090   21.9500 C   0  0  0  0  0  0  0  0  0  0  0  0
  -29.2820  -21.0300   19.7200 C   0  0  0  0  0  2  0  0  0  0  0  0
  -29.2300  -22.3920   20.4770 C   0  0  0  0  0  3  0  0  0  0  0  0
  -29.4310  -22.8030   22.8930 O   0  0  0  0  0  0  0  0  0  0  0  0
  -30.9570  -14.5870   20.0500 C   0  0  0  0  0  0  0  0  0  0  0  0
  -30.4540  -12.5020   18.8260 C   0  0  0  0  0  2  0  0  0  0  0  0
  -29.4330  -12.7230   17.6960 C   0  0  0  0  0  2  0  0  0  0  0  0
  -28.0030  -12.5830   18.2420 C   0  0  0  0  0  2  0  0  0  0  0  0
  -27.7630  -13.4230   19.5250 C   0  0  0  0  0  3  0  0  0  0  0  0
  -28.8940  -13.2070   20.5560 C   0  0  0  0  0  2  0  0  0  0  0  0
  -30.1730  -13.4860   19.8840 N   0  0  0  0  0  0  0  0  0  0  0  0
  -32.0260  -14.7110   19.4440 O   0  0  0  0  0  0  0  0  0  0  0  0
  -31.1970  -16.5590   21.3650 C   0  0  0  0  0  0  0  0  0  0  0  0
  -30.4550  -15.5900   20.7960 N   0  0  0  0  0  0  0  0  0  0  0  0
  -32.3780  -16.4160   21.7100 O   0  0  0  0  0  0  0  0  0  0  0  0
  -29.4580  -15.6500   20.8950 H   0  0  0  0  0  0  0  0  0  0  0  0
  -25.4330  -14.0370   20.4230 C   0  0  0  0  0  0  0  0  0  0  0  0
  -24.3850  -13.2640   20.8500 C   0  0  0  0  0  0  0  0  0  0  0  0
  -24.8280  -11.9110   20.7570 C   0  0  0  0  0  0  0  0  0  0  0  0
  -26.4480  -13.1510   20.0980 N   0  0  0  0  0  0  0  0  0  0  0  0
  -26.0930  -11.8660   20.3580 N   0  0  0  0  0  0  0  0  0  0  0  0
  -24.1040  -10.6500   20.9680 C   0  0  0  0  0  0  0  0  0  0  0  0
  -24.5510   -9.6890   21.9010 C   0  0  0  0  0  3  0  0  0  0  0  0
  -23.8270   -8.4930   22.0990 C   0  0  0  0  0  3  0  0  0  0  0  0
  -22.6430   -8.2510   21.3650 C   0  0  0  0  0  0  0  0  0  0  0  0
  -22.2140   -9.2010   20.4220 C   0  0  0  0  0  3  0  0  0  0  0  0
  -22.9370  -10.3890   20.2210 C   0  0  0  0  0  3  0  0  0  0  0  0
  -21.8890   -7.1080   21.4740 O   0  0  0  0  0  0  0  0  0  0  0  0
  -21.8210   -6.3990   22.6450 C   0  0  0  0  0  0  0  0  0  0  0  0
  -21.3420   -6.9790   23.8400 C   0  0  0  0  0  3  0  0  0  0  0  0
  -21.2230   -6.1950   25.0060 C   0  0  0  0  0  3  0  0  0  0  0  0
  -21.5740   -4.8320   24.9770 C   0  0  0  0  0  0  0  0  0  0  0  0
  -22.0450   -4.2510   23.7870 C   0  0  0  0  0  3  0  0  0  0  0  0
  -22.1650   -5.0320   22.6240 C   0  0  0  0  0  0  0  0  0  0  0  0
  -22.6000   -4.4620   21.4740 F   0  0  0  0  0  0  0  0  0  0  0  0
  -21.4530   -4.0770   26.0930 F   0  0  0  0  0  0  0  0  0  0  0  0
  -23.0160  -13.7500   21.2290 C   0  0  0  0  0  0  0  0  0  0  0  0
  -22.3430  -13.0400   22.1280 N   0  0  0  0  0  0  0  0  0  0  0  0
  -22.5560  -14.7910   20.7630 O   0  0  0  0  0  0  0  0  0  0  0  0
  -22.7290  -12.1970   22.5260 H   0  0  0  0  0  0  0  0  0  0  0  0
  -21.4260  -13.3470   22.4220 H   0  0  0  0  0  0  0  0  0  0  0  0
  -25.6000  -15.4090   20.2650 N   0  0  0  0  0  0  0  0  0  0  0  0
  -24.8470  -16.0660   20.4400 H   0  0  0  0  0  0  0  0  0  0  0  0
  -26.4280  -15.8490   19.8810 H   0  0  0  0  0  0  0  0  0  0  0  0
  -30.2570  -23.4160   19.9150 C   0  0  0  0  0  2  0  0  0  0  0  0
  -30.0580  -24.9050   20.2990 C   0  0  0  0  0  2  0  0  0  0  0  0
  -28.7760  -25.5460   19.7390 C   0  0  0  0  0  2  0  0  0  0  0  0
  -28.7520  -26.9420   20.0570 O   0  0  0  0  0  0  0  0  0  0  0  0
  -24.6910  -31.8450   23.2170 C   0  0  0  0  0  0  0  0  0  0  0  0
  -27.5390  -27.6020   20.0350 C   0  0  0  0  0  0  0  0  0  0  0  0
  -23.5550  -30.4480   21.5230 C   0  0  0  0  0  3  0  0  0  0  0  0
  -25.0810  -29.0110   20.0690 C   0  0  0  0  0  0  0  0  0  0  0  0
  -26.0670  -30.9120   21.3590 C   0  0  0  0  0  2  0  0  0  0  0  0
  -26.2120  -29.5640   20.6810 C   0  0  0  0  0  0  0  0  0  0  0  0
  -27.4420  -28.8680   20.6600 C   0  0  0  0  0  3  0  0  0  0  0  0
  -26.3840  -27.0620   19.4170 C   0  0  0  0  0  3  0  0  0  0  0  0
  -25.1620  -27.7600   19.4360 C   0  0  0  0  0  3  0  0  0  0  0  0
  -23.8050  -29.8170   20.1260 C   0  0  0  0  0  2  0  0  0  0  0  0
  -24.7880  -31.0820   22.0920 N   0  0  0  0  0  0  0  0  0  0  0  0
  -23.5960  -32.0580   23.7550 O   0  0  0  0  0  0  0  0  0  0  0  0
  -22.9380  -29.3730   22.4460 C   0  0  0  0  0  0  0  0  0  0  0  0
  -21.6270  -29.1290   22.2880 N   0  0  0  0  0  0  0  0  0  0  0  0
  -23.6360  -28.7600   23.2570 O   0  0  0  0  0  0  0  0  0  0  0  0
  -21.1230  -29.6780   21.6040 H   0  0  0  0  0  0  0  0  0  0  0  0
  -18.3080  -27.7570   22.6800 C   0  0  0  0  0  0  0  0  0  0  0  0
  -20.8420  -28.1360   23.0200 C   0  0  0  0  0  3  0  0  0  0  0  0
  -21.0310  -26.7240   22.4180 C   0  0  0  0  0  2  0  0  0  0  0  0
  -19.9710  -26.3680   21.3710 C   0  0  0  0  0  2  0  0  0  0  0  0
  -18.5680  -26.4320   21.9830 C   0  0  0  0  0  2  0  0  0  0  0  0
  -19.3760  -28.5650   23.1530 C   0  0  0  0  0  0  0  0  0  0  0  0
  -19.0810  -29.8030   23.7600 C   0  0  0  0  0  3  0  0  0  0  0  0
  -17.7490  -30.2370   23.9030 C   0  0  0  0  0  3  0  0  0  0  0  0
  -16.6940  -29.4260   23.4480 C   0  0  0  0  0  3  0  0  0  0  0  0
  -16.9750  -28.1880   22.8420 C   0  0  0  0  0  3  0  0  0  0  0  0
  -25.9470  -32.5070   23.8670 C   0  0  0  0  0  3  0  0  0  0  0  0
  -26.4540  -31.7520   25.1570 C   0  0  1  0  0  0  0  0  0  0  0  0
  -25.3400  -31.4660   26.1920 C   0  0  0  0  0  1  0  0  0  0  0  0
  -27.0990  -30.3990   24.7770 C   0  0  0  0  0  1  0  0  0  0  0  0
  -27.5560  -32.5820   25.8550 C   0  0  0  0  0  1  0  0  0  0  0  0
  -25.6000  -33.9000   24.1830 N   0  0  0  0  0  0  0  0  0  0  0  0
  -25.9110  -34.9530   23.4150 C   0  0  0  0  0  0  0  0  0  0  0  0
  -26.5940  -34.8590   22.3930 O   0  0  0  0  0  0  0  0  0  0  0  0
  -24.9990  -34.0470   24.9810 H   0  0  0  0  0  0  0  0  0  0  0  0
  -24.1300  -36.6870   23.0370 C   0  0  0  0  0  1  0  0  0  0  0  0
  -25.3800  -36.3310   23.8560 C   0  0  0  0  0  3  0  0  0  0  0  0
  -27.4800  -37.2920   24.6910 C   0  0  0  0  0  1  0  0  0  0  0  0
  -26.3800  -37.4140   23.7360 N   0  0  0  0  0  0  0  0  0  0  0  0
  -25.9440  -38.3220   23.8700 H   0  0  0  0  0  0  0  0  0  0  0  0
  2  1  1  0
  3  6  2  0
  3  5  1  0
  4  1  2  0
  5  2  2  0
  6  4  1  0
  7  4  1  0
  7 10  2  0
  8  9  1  0
  8  6  1  0
  9 51  1  0
  9  7  1  0
 11 20  1  0
 12 17  1  0
 13 14  1  0
 13 12  1  0
 15 14  1  0
 15 26  1  0
 15 16  1  0
 17 11  1  0
 17 16  1  0
 18 11  2  0
 19  5  1  0
 19 21  2  0
 20 22  1  0
 20 19  1  0
 23 24  2  0
 24 43  1  0
 25 24  1  0
 25 28  1  0
 26 27  1  0
 26 23  1  0
 27 25  2  0
 28 29  1  0
 29 30  2  0
 31 34  1  0
 31 30  1  0
 32 31  2  0
 33 32  1  0
 33 28  2  0
 34 35  1  0
 35 36  1  0
 36 37  2  0
 38 37  1  0
 38 42  1  0
 39 38  2  0
 40 35  2  0
 40 39  1  0
 41 40  1  0
 43 44  1  0
 44 47  1  0
 44 46  1  0
 45 43  2  0
 48 23  1  0
 48 49  1  0
 50 48  1  0
 51 52  1  0
 53 54  1  0
 53 52  1  0
 55 66  2  0
 56 54  1  0
 56 61  1  0
 57 65  1  0
 57 67  1  0
 58 64  1  0
 58 60  1  0
 59 65  1  0
 60 59  1  0
 61 60  2  0
 62 63  1  0
 62 56  2  0
 63 58  2  0
 64 57  1  0
 65 55  1  0
 67 69  2  0
 68 67  1  0
 70 68  1  0
 71 80  2  0
 71 76  1  0
 72 68  1  0
 72 76  1  0
 73 72  1  0
 74 75  1  0
 74 73  1  0
 75 71  1  0
 76 77  2  0
 77 78  1  0
 79 78  2  0
 80 79  1  0
 81 55  1  0
 81 86  1  0
 81 82  1  0
 82 85  1  1
 82 83  1  0
 84 82  1  0
 86 89  1  0
 87 91  1  0
 87 86  1  0
 88 87  2  0
 91 90  1  0
 93 91  1  0
 93 94  1  0
 93 92  1  0
M  ISO  4  11 100  20 100  53 101  54 101
M  END
>  <TORSDO>  (39) 
F 19

>  <SCORE>  (39) 
-11.993

>  <name>  (39) 
39

>  <ligand_id>  (39) 
39

>  <original_smiles>  (39) 
[H]c1c([H])c([H])c2c(c1[H])C([H])([H])C([H])([H])C([H])([H])C2([H])N([H])C(=O)C1([H])N(C(=O)C([H])(N([H])C(=O)C([H])(N([H])C([H])([H])[H])C([H])([H])[H])C(C([H])([H])[H])(C([H])([H])[H])C([H])([H])[H])C([H])([H])c2c([H])c(OC([H])([H])C([H])([H])C([H])([H])C3([H])C(=O)c4c([H])c([H])c(C(=O)N([H])C(=O)N5C([H])([H])C([H])([H])C([H])([H])C([H])(n6nc(-c7c([H])c([H])c(Oc8c([H])c([H])c(F)c([H])c8F)c([H])c7[H])c(C(=O)N([H])[H])c6N([H])[H])C5([H])[H])c([H])c4C3([H])[H])c([H])c([H])c2C1([H])[H]

>  <smiles>  (39) 
[H]c1c([H])c([H])c2c(c1[H])C([H])([H])C([H])([H])C([H])([H])C2([H])N([H])C(=O)C1([H])N(C(=O)C([H])(N([H])C(=O)C([H])(N([H])C([H])([H])[H])C([H])([H])[H])C(C([H])([H])[H])(C([H])([H])[H])C([H])([H])[H])C([H])([H])c2c([H])c(OC([H])([H])C([H])([H])C([H])([H])C3([H])C(=O)c4c([H])c([H])c(C(=O)N([H])C(=O)N5C([H])([H])C([H])([H])C([H])([H])C([H])(n6nc(-c7c([H])c([H])c(Oc8c([H])c([H])c(F)c([H])c8F)c([H])c7[H])c(C(=O)N([H])[H])c6N([H])[H])C5([H])[H])c([H])c4C3([H])[H])c([H])c([H])c2C1([H])[H]

$$$$
40:0:0
     RDKit          3D

 95102  0  0  1  0  0  0  0  0999 V2000
  -29.1450  -21.1700   19.7470 C   0  0  0  0  0  3  0  0  0  0  0  0
  -29.4500  -19.9560   20.7570 C   0  0  0  0  0  3  0  0  0  0  0  0
  -29.7070  -18.4840   20.1610 C   0  0  0  0  0  3  0  0  0  0  0  0
  -30.2940  -17.3200   21.0770 C   0  0  0  0  0  2  0  0  0  0  0  0
  -30.6790  -14.8250   20.3570 C   0  0  0  0  0  0  0  0  0  0  0  0
  -30.4220  -12.6350   19.2000 C   0  0  0  0  0  2  0  0  0  0  0  0
  -29.4510  -12.8120   18.0120 C   0  0  0  0  0  2  0  0  0  0  0  0
  -27.9860  -12.6350   18.4620 C   0  0  0  0  0  2  0  0  0  0  0  0
  -27.6590  -13.4450   19.7440 C   0  0  0  0  0  3  0  0  0  0  0  0
  -28.7400  -13.2670   20.8310 C   0  0  0  0  0  2  0  0  0  0  0  0
  -30.0350  -13.6210   20.2290 N   0  0  0  0  0  0  0  0  0  0  0  0
  -31.8440  -14.9740   19.9830 O   0  0  0  0  0  0  0  0  0  0  0  0
  -29.9160  -15.8960   20.7500 N   0  0  0  0  0  0  0  0  0  0  0  0
  -28.9540  -15.6630   20.9450 H   0  0  0  0  0  0  0  0  0  0  0  0
  -25.2730  -14.0240   20.5070 C   0  0  0  0  0  0  0  0  0  0  0  0
  -24.2180  -13.2380   20.8790 C   0  0  0  0  0  0  0  0  0  0  0  0
  -24.6900  -11.8900   20.8260 C   0  0  0  0  0  0  0  0  0  0  0  0
  -26.3180  -13.1540   20.2440 N   0  0  0  0  0  0  0  0  0  0  0  0
  -25.9730  -11.8640   20.4930 N   0  0  0  0  0  0  0  0  0  0  0  0
  -23.9780  -10.6190   21.0140 C   0  0  0  0  0  0  0  0  0  0  0  0
  -24.4120   -9.6540   21.9510 C   0  0  0  0  0  3  0  0  0  0  0  0
  -23.6950   -8.4490   22.1210 C   0  0  0  0  0  3  0  0  0  0  0  0
  -22.5330   -8.2010   21.3530 C   0  0  0  0  0  0  0  0  0  0  0  0
  -22.1210   -9.1550   20.4030 C   0  0  0  0  0  3  0  0  0  0  0  0
  -22.8390  -10.3500   20.2310 C   0  0  0  0  0  3  0  0  0  0  0  0
  -21.7880   -7.0490   21.4340 O   0  0  0  0  0  0  0  0  0  0  0  0
  -21.7200   -6.3160   22.5920 C   0  0  0  0  0  0  0  0  0  0  0  0
  -21.2130   -6.8620   23.7910 C   0  0  0  0  0  3  0  0  0  0  0  0
  -21.0920   -6.0540   24.9390 C   0  0  0  0  0  3  0  0  0  0  0  0
  -21.4680   -4.6980   24.8890 C   0  0  0  0  0  0  0  0  0  0  0  0
  -21.9680   -4.1500   23.6940 C   0  0  0  0  0  3  0  0  0  0  0  0
  -22.0890   -4.9570   22.5480 C   0  0  0  0  0  0  0  0  0  0  0  0
  -22.5490   -4.4170   21.3940 F   0  0  0  0  0  0  0  0  0  0  0  0
  -21.3430   -3.9150   25.9860 F   0  0  0  0  0  0  0  0  0  0  0  0
  -22.8210  -13.6980   21.1750 C   0  0  0  0  0  0  0  0  0  0  0  0
  -22.1090  -12.9850   22.0410 N   0  0  0  0  0  0  0  0  0  0  0  0
  -22.3670  -14.7310   20.6790 O   0  0  0  0  0  0  0  0  0  0  0  0
  -22.4840  -12.1480   22.4610 H   0  0  0  0  0  0  0  0  0  0  0  0
  -21.1740  -13.2770   22.2870 H   0  0  0  0  0  0  0  0  0  0  0  0
  -25.4210  -15.4000   20.3490 N   0  0  0  0  0  0  0  0  0  0  0  0
  -24.6520  -16.0440   20.4970 H   0  0  0  0  0  0  0  0  0  0  0  0
  -26.2560  -15.8510   19.9970 H   0  0  0  0  0  0  0  0  0  0  0  0
  -28.4520  -22.5150   20.3060 C   0  0  0  0  0  2  0  0  0  0  0  0
  -29.1430  -23.9640   20.2530 C   0  0  0  0  0  3  0  0  0  0  0  0
  -29.2530  -24.4610   22.8130 C   0  0  0  0  0  1  0  0  0  0  0  0
  -30.0210  -24.1750   21.5060 C   0  0  0  0  0  2  0  0  0  0  0  0
  -28.1130  -25.1680   20.0090 C   0  0  0  0  0  2  0  0  0  0  0  0
  -28.4300  -26.6220   20.1420 O   0  0  0  0  0  0  0  0  0  0  0  0
  -24.6520  -31.9750   23.2330 C   0  0  0  0  0  0  0  0  0  0  0  0
  -27.3310  -27.5030   20.0830 C   0  0  0  0  0  0  0  0  0  0  0  0
  -23.4800  -30.5890   21.5660 C   0  0  0  0  0  3  0  0  0  0  0  0
  -24.9520  -29.1010   20.1090 C   0  0  0  0  0  0  0  0  0  0  0  0
  -26.0140  -30.9500   21.3920 C   0  0  0  0  0  2  0  0  0  0  0  0
  -26.1190  -29.5860   20.7170 C   0  0  0  0  0  0  0  0  0  0  0  0
  -27.3150  -28.8010   20.6910 C   0  0  0  0  0  3  0  0  0  0  0  0
  -26.1390  -27.0950   19.4370 C   0  0  0  0  0  3  0  0  0  0  0  0
  -24.9660  -27.8630   19.4600 C   0  0  0  0  0  3  0  0  0  0  0  0
  -23.7050  -29.9530   20.1720 C   0  0  0  0  0  2  0  0  0  0  0  0
  -24.7360  -31.1870   22.1210 N   0  0  0  0  0  0  0  0  0  0  0  0
  -23.5610  -32.2220   23.7680 O   0  0  0  0  0  0  0  0  0  0  0  0
  -22.8340  -29.5380   22.5010 C   0  0  0  0  0  0  0  0  0  0  0  0
  -21.5180  -29.3120   22.3390 N   0  0  0  0  0  0  0  0  0  0  0  0
  -23.5150  -28.9310   23.3350 O   0  0  0  0  0  0  0  0  0  0  0  0
  -21.0250  -29.8530   21.6400 H   0  0  0  0  0  0  0  0  0  0  0  0
  -18.1780  -27.9740   22.7300 C   0  0  0  0  0  0  0  0  0  0  0  0
  -20.7140  -28.3400   23.0810 C   0  0  0  0  0  3  0  0  0  0  0  0
  -20.8960  -26.9150   22.5110 C   0  0  0  0  0  2  0  0  0  0  0  0
  -19.8420  -26.5470   21.4610 C   0  0  0  0  0  2  0  0  0  0  0  0
  -18.4350  -26.6350   22.0590 C   0  0  0  0  0  2  0  0  0  0  0  0
  -19.2500  -28.7810   23.1950 C   0  0  0  0  0  0  0  0  0  0  0  0
  -18.9610  -30.0350   23.7780 C   0  0  0  0  0  3  0  0  0  0  0  0
  -17.6310  -30.4810   23.9010 C   0  0  0  0  0  3  0  0  0  0  0  0
  -16.5740  -29.6720   23.4520 C   0  0  0  0  0  3  0  0  0  0  0  0
  -16.8470  -28.4190   22.8740 C   0  0  0  0  0  3  0  0  0  0  0  0
  -25.9200  -32.6210   23.8720 C   0  0  0  0  0  3  0  0  0  0  0  0
  -26.4180  -31.8590   25.1610 C   0  0  1  0  0  0  0  0  0  0  0  0
  -25.3070  -31.6100   26.2090 C   0  0  0  0  0  1  0  0  0  0  0  0
  -27.0160  -30.4870   24.7800 C   0  0  0  0  0  1  0  0  0  0  0  0
  -27.5490  -32.6630   25.8450 C   0  0  0  0  0  1  0  0  0  0  0  0
  -25.5950  -34.0180   24.1940 N   0  0  0  0  0  0  0  0  0  0  0  0
  -25.9240  -35.0700   23.4320 C   0  0  0  0  0  0  0  0  0  0  0  0
  -26.6010  -34.9650   22.4060 O   0  0  0  0  0  0  0  0  0  0  0  0
  -25.0000  -34.1730   24.9960 H   0  0  0  0  0  0  0  0  0  0  0  0
  -24.1840  -36.8460   23.0480 C   0  0  0  0  0  1  0  0  0  0  0  0
  -25.4180  -36.4550   23.8790 C   0  0  0  0  0  3  0  0  0  0  0  0
  -27.5280  -37.3640   24.7450 C   0  0  0  0  0  1  0  0  0  0  0  0
  -26.4440  -37.5180   23.7770 N   0  0  0  0  0  0  0  0  0  0  0  0
  -26.0270  -38.4350   23.9130 H   0  0  0  0  0  0  0  0  0  0  0  0
  -28.3590  -20.6610   18.5050 C   0  0  0  0  0  2  0  0  0  0  0  0
  -26.8860  -20.2530   18.7680 C   0  0  0  0  0  2  0  0  0  0  0  0
  -26.2610  -19.3920   17.6450 C   0  0  0  0  0  2  0  0  0  0  0  0
  -26.1970  -20.0840   16.3460 N   0  0  0  0  0  4  0  0  0  0  0  0
  -25.6710  -20.9370   16.4100 H   0  0  0  0  0  0  0  0  0  0  0  0
  -25.7460  -19.4880   15.6750 H   0  0  0  0  0  0  0  0  0  0  0  0
  -27.1200  -20.2880   16.0020 H   0  0  0  0  0  0  0  0  0  0  0  0
  1 89  1  0
  1 43  1  0
  1  2  1  0
  3  2  2  0
  3  4  1  0
  5 13  1  0
  6 11  1  0
  7  8  1  0
  7  6  1  0
  9  8  1  0
  9 18  1  0
  9 10  1  0
 11  5  1  0
 11 10  1  0
 12  5  2  0
 13 14  1  0
 13  4  1  0
 15 16  2  0
 16 35  1  0
 17 16  1  0
 17 20  1  0
 18 19  1  0
 18 15  1  0
 19 17  2  0
 20 21  1  0
 21 22  2  0
 23 26  1  0
 23 22  1  0
 24 23  2  0
 25 24  1  0
 25 20  2  0
 26 27  1  0
 27 28  1  0
 28 29  2  0
 30 29  1  0
 30 34  1  0
 31 30  2  0
 32 27  2  0
 32 31  1  0
 33 32  1  0
 35 36  1  0
 36 39  1  0
 36 38  1  0
 37 35  2  0
 40 41  1  0
 40 15  1  0
 42 40  1  0
 44 47  1  0
 44 43  1  0
 44 46  1  0
 46 45  1  0
 47 48  1  0
 49 60  2  0
 50 48  1  0
 50 55  1  0
 51 59  1  0
 51 61  1  0
 52 58  1  0
 52 54  1  0
 53 59  1  0
 54 53  1  0
 55 54  2  0
 56 57  1  0
 56 50  2  0
 57 52  2  0
 58 51  1  0
 59 49  1  0
 61 63  2  0
 62 61  1  0
 64 62  1  0
 65 74  2  0
 65 70  1  0
 66 62  1  0
 66 70  1  0
 67 66  1  0
 68 69  1  0
 68 67  1  0
 69 65  1  0
 70 71  2  0
 71 72  1  0
 73 72  2  0
 74 73  1  0
 75 49  1  0
 75 80  1  0
 75 76  1  0
 76 79  1  1
 76 77  1  0
 78 76  1  0
 80 83  1  0
 81 85  1  0
 81 80  1  0
 82 81  2  0
 85 84  1  0
 87 85  1  0
 87 88  1  0
 87 86  1  0
 89 90  1  0
 91 90  1  0
 92 93  1  0
 92 91  1  0
 94 92  1  0
 95 92  1  0
M  ISO  4   5 100  13 100  47 101  48 101
M  END
>  <TORSDO>  (40) 
F 27

>  <SCORE>  (40) 
-10.784

>  <name>  (40) 
40

>  <ligand_id>  (40) 
40

>  <original_smiles>  (40) 
[H]c1c([H])c([H])c2c(c1[H])C([H])([H])C([H])([H])C([H])([H])C2([H])N([H])C(=O)C1([H])N(C(=O)C([H])(N([H])C(=O)C([H])(N([H])C([H])([H])[H])C([H])([H])[H])C(C([H])([H])[H])(C([H])([H])[H])C([H])([H])[H])C([H])([H])c2c([H])c(OC([H])([H])C([H])(C([H])([H])C([H])([H])[H])C([H])([H])C([H])(C([H])([H])C([H])([H])C([H])([H])N([H])C(=O)N3C([H])([H])C([H])([H])C([H])([H])C([H])(n4nc(-c5c([H])c([H])c(Oc6c([H])c([H])c(F)c([H])c6F)c([H])c5[H])c(C(=O)N([H])[H])c4N([H])[H])C3([H])[H])C([H])([H])C([H])([H])C([H])([H])[N+]([H])([H])[H])c([H])c([H])c2C1([H])[H]

>  <smiles>  (40) 
[H]c1c([H])c([H])c2c(c1[H])C([H])([H])C([H])([H])C([H])([H])C2([H])N([H])C(=O)C1([H])N(C(=O)C([H])(N([H])C(=O)C([H])(N([H])C([H])([H])[H])C([H])([H])[H])C(C([H])([H])[H])(C([H])([H])[H])C([H])([H])[H])C([H])([H])c2c([H])c(OC([H])([H])C([H])(C([H])([H])C([H])([H])[H])C([H])([H])C([H])(C([H])([H])C([H])([H])C([H])([H])N([H])C(=O)N3C([H])([H])C([H])([H])C([H])([H])C([H])(n4nc(-c5c([H])c([H])c(Oc6c([H])c([H])c(F)c([H])c6F)c([H])c5[H])c(C(=O)N([H])[H])c4N([H])[H])C3([H])[H])C([H])([H])C([H])([H])C([H])([H])[N+]([H])([H])[H])c([H])c([H])c2C1([H])[H]

$$$$
41:0:0
     RDKit          3D

 94101  0  0  1  0  0  0  0  0999 V2000
  -28.0960  -21.6450   20.4060 C   0  0  0  0  0  3  0  0  0  0  0  0
  -28.3640  -22.1630   21.8320 C   0  0  0  0  0  0  0  0  0  0  0  0
  -27.3160  -22.2760   22.6380 N   0  0  0  0  0  0  0  0  0  0  0  0
  -29.4960  -22.4540   22.2140 O   0  0  0  0  0  0  0  0  0  0  0  0
  -26.3930  -22.0220   22.3130 H   0  0  0  0  0  0  0  0  0  0  0  0
  -27.4330  -22.5820   23.5940 H   0  0  0  0  0  0  0  0  0  0  0  0
  -28.8300  -22.4470   19.3040 C   0  0  0  0  0  2  0  0  0  0  0  0
  -28.3600  -23.9100   19.1460 C   0  0  0  0  0  2  0  0  0  0  0  0
  -29.2830  -24.7250   18.2200 C   0  0  0  0  0  2  0  0  0  0  0  0
  -28.7240  -26.1070   17.8400 C   0  0  0  0  0  2  0  0  0  0  0  0
  -28.4740  -26.8810   19.0130 O   0  0  0  0  0  0  0  0  0  0  0  0
  -24.6970  -31.4500   22.9060 C   0  0  0  0  0  0  0  0  0  0  0  0
  -27.2650  -27.5290   19.1410 C   0  0  0  0  0  0  0  0  0  0  0  0
  -23.4300  -30.2360   21.1620 C   0  0  0  0  0  3  0  0  0  0  0  0
  -24.8330  -28.9310   19.4800 C   0  0  0  0  0  0  0  0  0  0  0  0
  -25.9300  -30.6870   20.8820 C   0  0  0  0  0  2  0  0  0  0  0  0
  -26.0060  -29.4110   20.0730 C   0  0  0  0  0  0  0  0  0  0  0  0
  -27.2210  -28.7110   19.9110 C   0  0  0  0  0  3  0  0  0  0  0  0
  -26.0660  -27.0410   18.5700 C   0  0  0  0  0  3  0  0  0  0  0  0
  -24.8550  -27.7430   18.7320 C   0  0  0  0  0  3  0  0  0  0  0  0
  -23.5750  -29.7410   19.6980 C   0  0  0  0  0  2  0  0  0  0  0  0
  -24.7070  -30.8000   21.7090 N   0  0  0  0  0  0  0  0  0  0  0  0
  -23.6420  -31.6230   23.5320 O   0  0  0  0  0  0  0  0  0  0  0  0
  -22.8550  -29.0820   22.0160 C   0  0  0  0  0  0  0  0  0  0  0  0
  -21.5310  -28.8760   21.9250 N   0  0  0  0  0  0  0  0  0  0  0  0
  -23.5930  -28.3830   22.7140 O   0  0  0  0  0  0  0  0  0  0  0  0
  -20.9940  -29.4980   21.3370 H   0  0  0  0  0  0  0  0  0  0  0  0
  -18.2200  -27.5090   22.3940 C   0  0  0  0  0  0  0  0  0  0  0  0
  -20.7770  -27.8250   22.6080 C   0  0  0  0  0  3  0  0  0  0  0  0
  -20.9030  -26.4760   21.8650 C   0  0  0  0  0  2  0  0  0  0  0  0
  -19.7750  -26.2330   20.8580 C   0  0  0  0  0  2  0  0  0  0  0  0
  -18.4150  -26.2540   21.5610 C   0  0  0  0  0  2  0  0  0  0  0  0
  -19.3300  -28.2550   22.8720 C   0  0  0  0  0  0  0  0  0  0  0  0
  -19.0930  -29.4350   23.6110 C   0  0  0  0  0  3  0  0  0  0  0  0
  -17.7810  -29.8680   23.8760 C   0  0  0  0  0  3  0  0  0  0  0  0
  -16.6870  -29.1160   23.4160 C   0  0  0  0  0  3  0  0  0  0  0  0
  -16.9070  -27.9380   22.6800 C   0  0  0  0  0  3  0  0  0  0  0  0
  -26.0040  -32.0300   23.5330 C   0  0  0  0  0  3  0  0  0  0  0  0
  -26.6020  -31.1220   24.6770 C   0  0  1  0  0  0  0  0  0  0  0  0
  -25.5740  -30.7370   25.7680 C   0  0  0  0  0  1  0  0  0  0  0  0
  -27.1780  -29.8120   24.0880 C   0  0  0  0  0  1  0  0  0  0  0  0
  -27.7800  -31.8530   25.3640 C   0  0  0  0  0  1  0  0  0  0  0  0
  -25.6910  -33.3720   24.0440 N   0  0  0  0  0  0  0  0  0  0  0  0
  -25.9770  -34.5130   23.4030 C   0  0  0  0  0  0  0  0  0  0  0  0
  -26.6040  -34.5460   22.3410 O   0  0  0  0  0  0  0  0  0  0  0  0
  -25.1320  -33.4170   24.8830 H   0  0  0  0  0  0  0  0  0  0  0  0
  -24.2120  -36.3030   23.3320 C   0  0  0  0  0  1  0  0  0  0  0  0
  -25.4890  -35.8260   24.0430 C   0  0  0  0  0  3  0  0  0  0  0  0
  -27.6410  -36.6450   24.8990 C   0  0  0  0  0  1  0  0  0  0  0  0
  -26.5010  -36.9040   24.0220 N   0  0  0  0  0  0  0  0  0  0  0  0
  -26.0860  -37.7920   24.2940 H   0  0  0  0  0  0  0  0  0  0  0  0
  -28.3650  -20.1210   20.3220 C   0  0  0  0  0  2  0  0  0  0  0  0
  -29.8460  -19.6880   20.3970 C   0  0  0  0  0  2  0  0  0  0  0  0
  -30.0080  -18.1920   20.7230 C   0  0  0  0  0  2  0  0  0  0  0  0
  -31.4820  -17.7480   20.7290 C   0  0  0  0  0  2  0  0  0  0  0  0
  -31.7500  -16.4230   21.4680 C   0  0  0  0  0  2  0  0  0  0  0  0
  -31.2620  -14.4910   19.9610 C   0  0  0  0  0  0  0  0  0  0  0  0
  -30.8340  -12.2880   18.9360 C   0  0  0  0  0  2  0  0  0  0  0  0
  -29.8230  -12.3490   17.7770 C   0  0  0  0  0  2  0  0  0  0  0  0
  -28.3780  -12.2570   18.3030 C   0  0  0  0  0  2  0  0  0  0  0  0
  -28.1050  -13.2440   19.4680 C   0  0  0  0  0  3  0  0  0  0  0  0
  -29.2100  -13.1410   20.5420 C   0  0  0  0  0  2  0  0  0  0  0  0
  -30.5180  -13.3580   19.8920 N   0  0  0  0  0  0  0  0  0  0  0  0
  -32.2190  -14.7250   19.2160 O   0  0  0  0  0  0  0  0  0  0  0  0
  -30.9550  -15.2980   20.9820 N   0  0  0  0  0  0  0  0  0  0  0  0
  -30.1640  -15.0180   21.5450 H   0  0  0  0  0  0  0  0  0  0  0  0
  -25.8070  -13.9660   20.3850 C   0  0  0  0  0  0  0  0  0  0  0  0
  -24.7230  -13.2440   20.8090 C   0  0  0  0  0  0  0  0  0  0  0  0
  -25.0950  -11.8690   20.6890 C   0  0  0  0  0  0  0  0  0  0  0  0
  -26.7750  -13.0340   20.0400 N   0  0  0  0  0  0  0  0  0  0  0  0
  -26.3520  -11.7650   20.2780 N   0  0  0  0  0  0  0  0  0  0  0  0
  -24.3080  -10.6450   20.8880 C   0  0  0  0  0  0  0  0  0  0  0  0
  -24.7050   -9.6540   21.8130 C   0  0  0  0  0  3  0  0  0  0  0  0
  -23.9230   -8.4940   21.9980 C   0  0  0  0  0  3  0  0  0  0  0  0
  -22.7290   -8.3170   21.2590 C   0  0  0  0  0  0  0  0  0  0  0  0
  -22.3510   -9.2970   20.3240 C   0  0  0  0  0  3  0  0  0  0  0  0
  -23.1340  -10.4480   20.1360 C   0  0  0  0  0  3  0  0  0  0  0  0
  -21.9190   -7.2120   21.3550 O   0  0  0  0  0  0  0  0  0  0  0  0
  -21.7880   -6.5150   22.5300 C   0  0  0  0  0  0  0  0  0  0  0  0
  -21.3260   -7.1310   23.7150 C   0  0  0  0  0  3  0  0  0  0  0  0
  -21.1400   -6.3630   24.8810 C   0  0  0  0  0  3  0  0  0  0  0  0
  -21.4040   -4.9800   24.8640 C   0  0  0  0  0  0  0  0  0  0  0  0
  -21.8580   -4.3640   23.6840 C   0  0  0  0  0  3  0  0  0  0  0  0
  -22.0460   -5.1290   22.5200 C   0  0  0  0  0  0  0  0  0  0  0  0
  -22.4630   -4.5270   21.3810 F   0  0  0  0  0  0  0  0  0  0  0  0
  -21.2180   -4.2400   25.9820 F   0  0  0  0  0  0  0  0  0  0  0  0
  -23.3840  -13.7910   21.2110 C   0  0  0  0  0  0  0  0  0  0  0  0
  -22.6890  -13.1110   22.1160 N   0  0  0  0  0  0  0  0  0  0  0  0
  -22.9660  -14.8540   20.7560 O   0  0  0  0  0  0  0  0  0  0  0  0
  -23.0400  -12.2500   22.5060 H   0  0  0  0  0  0  0  0  0  0  0  0
  -21.7910  -13.4590   22.4220 H   0  0  0  0  0  0  0  0  0  0  0  0
  -26.0440  -15.3300   20.2460 N   0  0  0  0  0  0  0  0  0  0  0  0
  -25.3330  -16.0270   20.4380 H   0  0  0  0  0  0  0  0  0  0  0  0
  -26.8990  -15.7270   19.8750 H   0  0  0  0  0  0  0  0  0  0  0  0
  1  7  1  0
  1  2  1  0
  2  4  2  0
  2  3  1  0
  3  6  1  0
  5  3  1  0
  8  7  1  0
  9  8  1  0
 10  9  1  0
 10 11  1  0
 11 13  1  0
 12 23  2  0
 13 18  1  0
 14 22  1  0
 14 24  1  0
 15 21  1  0
 15 17  1  0
 16 22  1  0
 17 16  1  0
 18 17  2  0
 19 20  1  0
 19 13  2  0
 20 15  2  0
 21 14  1  0
 22 12  1  0
 24 26  2  0
 25 24  1  0
 27 25  1  0
 28 37  2  0
 28 33  1  0
 29 25  1  0
 29 33  1  0
 30 29  1  0
 31 32  1  0
 31 30  1  0
 32 28  1  0
 33 34  2  0
 34 35  1  0
 36 35  2  0
 37 36  1  0
 38 12  1  0
 38 43  1  0
 38 39  1  0
 39 42  1  1
 39 40  1  0
 41 39  1  0
 43 46  1  0
 44 48  1  0
 44 43  1  0
 45 44  2  0
 48 47  1  0
 50 48  1  0
 50 51  1  0
 50 49  1  0
 52 53  1  0
 52  1  1  0
 53 54  1  0
 54 55  1  0
 55 56  1  0
 57 65  1  0
 58 63  1  0
 59 60  1  0
 59 58  1  0
 61 60  1  0
 61 70  1  0
 61 62  1  0
 63 57  1  0
 63 62  1  0
 64 57  2  0
 65 56  1  0
 65 66  1  0
 67 68  2  0
 68 87  1  0
 69 68  1  0
 69 72  1  0
 70 71  1  0
 70 67  1  0
 71 69  2  0
 72 73  1  0
 73 74  2  0
 75 78  1  0
 75 74  1  0
 76 75  2  0
 77 76  1  0
 77 72  2  0
 78 79  1  0
 79 80  1  0
 80 81  2  0
 82 81  1  0
 82 86  1  0
 83 82  2  0
 84 79  2  0
 84 83  1  0
 85 84  1  0
 87 88  1  0
 88 91  1  0
 88 90  1  0
 89 87  2  0
 92 67  1  0
 92 93  1  0
 94 92  1  0
M  ISO  4  10 101  11 101  57 100  65 100
M  END
>  <TORSDO>  (41) 
F 26

>  <SCORE>  (41) 
-9.552

>  <name>  (41) 
41

>  <ligand_id>  (41) 
41

>  <original_smiles>  (41) 
[H]c1c([H])c([H])c2c(c1[H])C([H])([H])C([H])([H])C([H])([H])C2([H])N([H])C(=O)C1([H])N(C(=O)C([H])(N([H])C(=O)C([H])(N([H])C([H])([H])[H])C([H])([H])[H])C(C([H])([H])[H])(C([H])([H])[H])C([H])([H])[H])C([H])([H])c2c([H])c(OC([H])([H])C([H])([H])C([H])([H])C([H])([H])C([H])(C(=O)N([H])[H])C([H])([H])C([H])([H])C([H])([H])C([H])([H])C([H])([H])N([H])C(=O)N3C([H])([H])C([H])([H])C([H])([H])C([H])(n4nc(-c5c([H])c([H])c(Oc6c([H])c([H])c(F)c([H])c6F)c([H])c5[H])c(C(=O)N([H])[H])c4N([H])[H])C3([H])[H])c([H])c([H])c2C1([H])[H]

>  <smiles>  (41) 
[H]c1c([H])c([H])c2c(c1[H])C([H])([H])C([H])([H])C([H])([H])C2([H])N([H])C(=O)C1([H])N(C(=O)C([H])(N([H])C(=O)C([H])(N([H])C([H])([H])[H])C([H])([H])[H])C(C([H])([H])[H])(C([H])([H])[H])C([H])([H])[H])C([H])([H])c2c([H])c(OC([H])([H])C([H])([H])C([H])([H])C([H])([H])C([H])(C(=O)N([H])[H])C([H])([H])C([H])([H])C([H])([H])C([H])([H])C([H])([H])N([H])C(=O)N3C([H])([H])C([H])([H])C([H])([H])C([H])(n4nc(-c5c([H])c([H])c(Oc6c([H])c([H])c(F)c([H])c6F)c([H])c5[H])c(C(=O)N([H])[H])c4N([H])[H])C3([H])[H])c([H])c([H])c2C1([H])[H]

$$$$
42:0:0
     RDKit          3D

 95104  0  0  1  0  0  0  0  0999 V2000
  -29.8820  -21.0660   21.9670 C   0  0  0  0  0  2  0  0  0  0  0  0
  -28.9370  -20.5570   19.2230 C   0  0  0  0  0  2  0  0  0  0  0  0
  -31.7560  -19.2530   21.6830 C   0  0  0  0  0  2  0  0  0  0  0  0
  -29.7290  -22.5650   21.5820 C   0  0  0  0  0  2  0  0  0  0  0  0
  -29.3110  -22.0410   19.0780 C   0  0  0  0  0  2  0  0  0  0  0  0
  -31.1840  -17.8270   21.8630 C   0  0  0  0  0  2  0  0  0  0  0  0
  -29.5130  -18.2410   20.0810 C   0  0  0  0  0  2  0  0  0  0  0  0
  -30.8050  -20.2780   21.0020 C   0  0  0  0  0  3  0  0  0  0  0  0
  -30.0590  -19.6650   19.7910 C   0  0  0  0  0  3  0  0  0  0  0  0
  -28.9220  -22.9090   20.2970 C   0  0  0  0  0  3  0  0  0  0  0  0
  -30.5900  -17.2330   20.5610 C   0  0  1  0  0  0  0  0  0  0  0  0
  -31.6450  -17.1560   19.5210 N   0  0  0  0  0  4  0  0  0  0  0  0
  -32.3060  -17.9090   19.6080 H   0  0  0  0  0  0  0  0  0  0  0  0
  -31.2560  -17.1650   18.5950 H   0  0  0  0  0  0  0  0  0  0  0  0
  -32.1350  -16.2730   19.6370 H   0  0  0  0  0  0  0  0  0  0  0  0
  -29.9180  -15.8220   20.8500 C   0  0  0  0  0  2  0  0  0  0  0  0
  -30.6670  -14.5080   20.4730 C   0  0  0  0  0  0  0  0  0  0  0  0
  -30.3490  -12.3400   19.3480 C   0  0  0  0  0  2  0  0  0  0  0  0
  -29.4300  -12.5520   18.1280 C   0  0  0  0  0  2  0  0  0  0  0  0
  -27.9520  -12.4070   18.5400 C   0  0  0  0  0  2  0  0  0  0  0  0
  -27.5980  -13.2640   19.7840 C   0  0  0  0  0  3  0  0  0  0  0  0
  -28.6400  -13.0890   20.9130 C   0  0  0  0  0  2  0  0  0  0  0  0
  -29.9770  -13.3420   20.3610 N   0  0  0  0  0  0  0  0  0  0  0  0
  -31.8400  -14.5920   20.0980 O   0  0  0  0  0  0  0  0  0  0  0  0
  -25.1980  -13.8770   20.4710 C   0  0  0  0  0  0  0  0  0  0  0  0
  -24.1270  -13.1060   20.8370 C   0  0  0  0  0  0  0  0  0  0  0  0
  -24.5890  -11.7550   20.8250 C   0  0  0  0  0  0  0  0  0  0  0  0
  -26.2440  -12.9920   20.2570 N   0  0  0  0  0  0  0  0  0  0  0  0
  -25.8840  -11.7140   20.5330 N   0  0  0  0  0  0  0  0  0  0  0  0
  -23.8620  -10.4940   21.0170 C   0  0  0  0  0  0  0  0  0  0  0  0
  -24.2860   -9.5350   21.9620 C   0  0  0  0  0  3  0  0  0  0  0  0
  -23.5630   -8.3370   22.1410 C   0  0  0  0  0  3  0  0  0  0  0  0
  -22.3990   -8.0900   21.3750 C   0  0  0  0  0  0  0  0  0  0  0  0
  -21.9950   -9.0370   20.4180 C   0  0  0  0  0  3  0  0  0  0  0  0
  -22.7200  -10.2270   20.2380 C   0  0  0  0  0  3  0  0  0  0  0  0
  -21.6480   -6.9440   21.4610 O   0  0  0  0  0  0  0  0  0  0  0  0
  -21.5900   -6.2070   22.6160 C   0  0  0  0  0  0  0  0  0  0  0  0
  -21.1560   -6.7660   23.8390 C   0  0  0  0  0  3  0  0  0  0  0  0
  -21.0470   -5.9530   24.9850 C   0  0  0  0  0  3  0  0  0  0  0  0
  -21.3640   -4.5830   24.9100 C   0  0  0  0  0  0  0  0  0  0  0  0
  -21.7900   -4.0250   23.6920 C   0  0  0  0  0  3  0  0  0  0  0  0
  -21.9000   -4.8340   22.5490 C   0  0  0  0  0  0  0  0  0  0  0  0
  -22.2920   -4.2860   21.3740 F   0  0  0  0  0  0  0  0  0  0  0  0
  -21.2520   -3.8000   26.0080 F   0  0  0  0  0  0  0  0  0  0  0  0
  -22.7260  -13.5830   21.0890 C   0  0  0  0  0  0  0  0  0  0  0  0
  -21.9850  -12.8870   21.9440 N   0  0  0  0  0  0  0  0  0  0  0  0
  -22.2950  -14.6070   20.5600 O   0  0  0  0  0  0  0  0  0  0  0  0
  -22.3440  -12.0580   22.3930 H   0  0  0  0  0  0  0  0  0  0  0  0
  -21.0460  -13.1910   22.1540 H   0  0  0  0  0  0  0  0  0  0  0  0
  -25.3640  -15.2460   20.2880 N   0  0  0  0  0  0  0  0  0  0  0  0
  -24.5940  -15.9010   20.3800 H   0  0  0  0  0  0  0  0  0  0  0  0
  -26.2170  -15.6860   19.9680 H   0  0  0  0  0  0  0  0  0  0  0  0
  -29.0430  -24.4110   19.8980 C   0  0  0  0  0  2  0  0  0  0  0  0
  -28.2840  -25.4230   20.7760 C   0  0  0  0  0  2  0  0  0  0  0  0
  -28.3850  -26.7410   20.2040 O   0  0  0  0  0  0  0  0  0  0  0  0
  -24.5790  -31.9200   23.2410 C   0  0  0  0  0  0  0  0  0  0  0  0
  -27.2200  -27.4770   20.1810 C   0  0  0  0  0  0  0  0  0  0  0  0
  -23.3710  -30.5140   21.6010 C   0  0  0  0  0  3  0  0  0  0  0  0
  -24.8250  -28.9760   20.1760 C   0  0  0  0  0  0  0  0  0  0  0  0
  -25.8950  -30.8780   21.3970 C   0  0  0  0  0  2  0  0  0  0  0  0
  -25.9810  -29.5060   20.7610 C   0  0  0  0  0  0  0  0  0  0  0  0
  -27.1850  -28.7650   20.7540 C   0  0  0  0  0  3  0  0  0  0  0  0
  -26.0520  -26.9630   19.5760 C   0  0  0  0  0  3  0  0  0  0  0  0
  -24.8550  -27.7030   19.5780 C   0  0  0  0  0  3  0  0  0  0  0  0
  -23.5780  -29.8300   20.2240 C   0  0  0  0  0  2  0  0  0  0  0  0
  -24.6340  -31.1180   22.1390 N   0  0  0  0  0  0  0  0  0  0  0  0
  -23.4990  -32.1930   23.7810 O   0  0  0  0  0  0  0  0  0  0  0  0
  -22.7220  -29.4960   22.5650 C   0  0  0  0  0  0  0  0  0  0  0  0
  -21.3960  -29.3150   22.4390 N   0  0  0  0  0  0  0  0  0  0  0  0
  -23.4050  -28.8700   23.3780 O   0  0  0  0  0  0  0  0  0  0  0  0
  -20.9030  -29.8730   21.7540 H   0  0  0  0  0  0  0  0  0  0  0  0
  -18.0200  -28.1360   22.9530 C   0  0  0  0  0  0  0  0  0  0  0  0
  -20.5810  -28.3800   23.2110 C   0  0  0  0  0  3  0  0  0  0  0  0
  -20.6710  -26.9480   22.6300 C   0  0  0  0  0  2  0  0  0  0  0  0
  -19.5640  -26.6380   21.6200 C   0  0  0  0  0  2  0  0  0  0  0  0
  -18.1860  -26.7890   22.2690 C   0  0  0  0  0  2  0  0  0  0  0  0
  -19.1450  -28.8900   23.3800 C   0  0  0  0  0  0  0  0  0  0  0  0
  -18.9360  -30.1540   23.9730 C   0  0  0  0  0  3  0  0  0  0  0  0
  -17.6350  -30.6630   24.1470 C   0  0  0  0  0  3  0  0  0  0  0  0
  -16.5240  -29.9040   23.7370 C   0  0  0  0  0  3  0  0  0  0  0  0
  -16.7180  -28.6430   23.1460 C   0  0  0  0  0  3  0  0  0  0  0  0
  -25.8650  -32.5510   23.8580 C   0  0  0  0  0  3  0  0  0  0  0  0
  -26.3860  -31.7820   25.1330 C   0  0  1  0  0  0  0  0  0  0  0  0
  -25.2940  -31.5410   26.2040 C   0  0  0  0  0  1  0  0  0  0  0  0
  -26.9680  -30.4050   24.7380 C   0  0  0  0  0  1  0  0  0  0  0  0
  -27.5430  -32.5730   25.7880 C   0  0  0  0  0  1  0  0  0  0  0  0
  -25.5600  -33.9510   24.1830 N   0  0  0  0  0  0  0  0  0  0  0  0
  -25.9010  -35.0000   23.4210 C   0  0  0  0  0  0  0  0  0  0  0  0
  -26.5780  -34.8890   22.3950 O   0  0  0  0  0  0  0  0  0  0  0  0
  -24.9610  -34.1110   24.9790 H   0  0  0  0  0  0  0  0  0  0  0  0
  -24.1870  -36.8000   23.0420 C   0  0  0  0  0  1  0  0  0  0  0  0
  -25.4160  -36.3910   23.8690 C   0  0  0  0  0  3  0  0  0  0  0  0
  -27.5470  -37.2640   24.7240 C   0  0  0  0  0  1  0  0  0  0  0  0
  -26.4560  -37.4390   23.7680 N   0  0  0  0  0  0  0  0  0  0  0  0
  -26.0540  -38.3610   23.9120 H   0  0  0  0  0  0  0  0  0  0  0  0
  3  6  1  0
  4  1  1  0
  5  2  1  0
  5 10  1  0
  7 11  1  0
  8  3  1  0
  8  1  1  0
  9  2  1  0
  9  7  1  0
  9  8  1  0
 10 53  1  0
 10  4  1  0
 11 16  1  1
 11  6  1  0
 12 13  1  0
 12 15  1  0
 12 11  1  0
 14 12  1  0
 17 16  1  0
 18 23  1  0
 19 20  1  0
 19 18  1  0
 21 20  1  0
 21 28  1  0
 21 22  1  0
 23 17  1  0
 23 22  1  0
 24 17  2  0
 25 26  2  0
 26 45  1  0
 27 26  1  0
 27 30  1  0
 28 25  1  0
 28 29  1  0
 29 27  2  0
 30 31  1  0
 31 32  2  0
 33 36  1  0
 33 32  1  0
 34 33  2  0
 35 34  1  0
 35 30  2  0
 36 37  1  0
 37 38  1  0
 38 39  2  0
 40 39  1  0
 40 44  1  0
 41 40  2  0
 42 37  2  0
 42 41  1  0
 43 42  1  0
 45 46  1  0
 46 49  1  0
 46 48  1  0
 47 45  2  0
 50 51  1  0
 50 25  1  0
 52 50  1  0
 53 54  1  0
 55 54  1  0
 56 67  2  0
 57 55  1  0
 57 62  1  0
 58 66  1  0
 58 68  1  0
 59 65  1  0
 59 61  1  0
 60 66  1  0
 61 60  1  0
 62 61  2  0
 63 64  1  0
 63 57  2  0
 64 59  2  0
 65 58  1  0
 66 56  1  0
 68 70  2  0
 69 68  1  0
 71 69  1  0
 72 81  2  0
 72 77  1  0
 73 69  1  0
 73 77  1  0
 74 73  1  0
 75 76  1  0
 75 74  1  0
 76 72  1  0
 77 78  2  0
 78 79  1  0
 80 79  2  0
 81 80  1  0
 82 56  1  0
 82 87  1  0
 82 83  1  0
 83 86  1  1
 83 84  1  0
 85 83  1  0
 87 90  1  0
 88 92  1  0
 88 87  1  0
 89 88  2  0
 92 91  1  0
 94 92  1  0
 94 95  1  0
 94 93  1  0
M  ISO  4  16 100  17 100  54 101  55 101
M  END
>  <TORSDO>  (42) 
F 20

>  <SCORE>  (42) 
-14.306

>  <name>  (42) 
42

>  <ligand_id>  (42) 
42

>  <original_smiles>  (42) 
[H]c1c([H])c([H])c2c(c1[H])C([H])([H])C([H])([H])C([H])([H])C2([H])N([H])C(=O)C1([H])N(C(=O)C([H])(N([H])C(=O)C([H])(N([H])C([H])([H])[H])C([H])([H])[H])C(C([H])([H])[H])(C([H])([H])[H])C([H])([H])[H])C([H])([H])c2c([H])c(OC([H])([H])C([H])([H])C3([H])C([H])([H])C([H])([H])C4([H])C([H])([H])C([H])([H])C(C([H])([H])C(=O)N5C([H])([H])C([H])([H])C([H])([H])C([H])(n6nc(-c7c([H])c([H])c(Oc8c([H])c([H])c(F)c([H])c8F)c([H])c7[H])c(C(=O)N([H])[H])c6N([H])[H])C5([H])[H])([N+]([H])([H])[H])C([H])([H])C4([H])C([H])([H])C3([H])[H])c([H])c([H])c2C1([H])[H]

>  <smiles>  (42) 
[H]c1c([H])c([H])c2c(c1[H])C([H])([H])C([H])([H])C([H])([H])C2([H])N([H])C(=O)C1([H])N(C(=O)C([H])(N([H])C(=O)C([H])(N([H])C([H])([H])[H])C([H])([H])[H])C(C([H])([H])[H])(C([H])([H])[H])C([H])([H])[H])C([H])([H])c2c([H])c(OC([H])([H])C([H])([H])C3([H])C([H])([H])C([H])([H])C4([H])C([H])([H])C([H])([H])C(C([H])([H])C(=O)N5C([H])([H])C([H])([H])C([H])([H])C([H])(n6nc(-c7c([H])c([H])c(Oc8c([H])c([H])c(F)c([H])c8F)c([H])c7[H])c(C(=O)N([H])[H])c6N([H])[H])C5([H])[H])([N+]([H])([H])[H])C([H])([H])C4([H])C([H])([H])C3([H])[H])c([H])c([H])c2C1([H])[H]

$$$$
43:0:0
     RDKit          3D

 96104  0  0  1  0  0  0  0  0999 V2000
  -24.5450  -20.9250   20.3960 C   0  0  0  0  0  2  0  0  0  0  0  0
  -24.6130  -21.1160   18.8780 C   0  0  0  0  0  2  0  0  0  0  0  0
  -25.9430  -20.7910   21.0510 C   0  0  0  0  0  2  0  0  0  0  0  0
  -26.6660  -22.5900   19.4210 C   0  0  0  0  0  2  0  0  0  0  0  0
  -25.4320  -22.3770   18.4910 C   0  0  0  0  0  3  0  0  0  0  0  0
  -27.1520  -21.3540   20.2280 C   0  0  1  0  0  0  0  0  0  0  0  0
  -28.2040  -21.7850   21.1640 N   0  0  0  0  0  4  0  0  0  0  0  0
  -27.8370  -22.3950   21.8740 H   0  0  0  0  0  0  0  0  0  0  0  0
  -28.9370  -22.2760   20.6840 H   0  0  0  0  0  0  0  0  0  0  0  0
  -28.5870  -20.9780   21.6130 H   0  0  0  0  0  0  0  0  0  0  0  0
  -25.8120  -22.4250   16.9820 C   0  0  0  0  0  2  0  0  0  0  0  0
  -25.9920  -23.8320   16.3510 C   0  0  0  0  0  3  0  0  0  0  0  0
  -27.3680  -24.5860   16.3780 C   0  0  0  0  0  3  0  0  0  0  0  0
  -27.3700  -26.0330   16.1330 O   0  0  0  0  0  0  0  0  0  0  0  0
  -25.3660  -28.1610   22.6680 C   0  0  0  0  0  0  0  0  0  0  0  0
  -26.5270  -26.8020   16.9130 C   0  0  0  0  0  0  0  0  0  0  0  0
  -23.7370  -28.4910   20.8430 C   0  0  0  0  0  3  0  0  0  0  0  0
  -24.6600  -28.2290   18.4910 C   0  0  0  0  0  0  0  0  0  0  0  0
  -26.2640  -28.5060   20.3710 C   0  0  0  0  0  2  0  0  0  0  0  0
  -25.9470  -27.9760   18.9870 C   0  0  0  0  0  0  0  0  0  0  0  0
  -26.8850  -27.2500   18.2090 C   0  0  0  0  0  3  0  0  0  0  0  0
  -25.2720  -27.1960   16.4050 C   0  0  0  0  0  3  0  0  0  0  0  0
  -24.3150  -27.8350   17.1950 C   0  0  0  0  0  3  0  0  0  0  0  0
  -23.6840  -28.9660   19.3730 C   0  0  0  0  0  2  0  0  0  0  0  0
  -25.1460  -28.3590   21.3370 N   0  0  0  0  0  0  0  0  0  0  0  0
  -24.4280  -28.1200   23.4720 O   0  0  0  0  0  0  0  0  0  0  0  0
  -22.9170  -27.1820   20.9680 C   0  0  0  0  0  0  0  0  0  0  0  0
  -21.5790  -27.2990   20.9660 N   0  0  0  0  0  0  0  0  0  0  0  0
  -23.4790  -26.0870   21.0470 O   0  0  0  0  0  0  0  0  0  0  0  0
  -21.1900  -28.2320   20.9490 H   0  0  0  0  0  0  0  0  0  0  0  0
  -18.0640  -26.5470   20.8210 C   0  0  0  0  0  0  0  0  0  0  0  0
  -20.6130  -26.2030   21.0600 C   0  0  0  0  0  3  0  0  0  0  0  0
  -20.5010  -25.4140   19.7350 C   0  0  0  0  0  2  0  0  0  0  0  0
  -19.4420  -25.9810   18.7880 C   0  0  0  0  0  2  0  0  0  0  0  0
  -18.0510  -25.9330   19.4280 C   0  0  0  0  0  2  0  0  0  0  0  0
  -19.2650  -26.6990   21.5680 C   0  0  0  0  0  0  0  0  0  0  0  0
  -19.2140  -27.3200   22.8350 C   0  0  0  0  0  3  0  0  0  0  0  0
  -18.0000  -27.7920   23.3520 C   0  0  0  0  0  3  0  0  0  0  0  0
  -16.8030  -27.6190   22.6320 C   0  0  0  0  0  3  0  0  0  0  0  0
  -16.8450  -26.9900   21.3740 C   0  0  0  0  0  3  0  0  0  0  0  0
  -26.8090  -28.0030   23.2460 C   0  0  0  0  0  3  0  0  0  0  0  0
  -27.3060  -26.5050   23.2690 C   0  0  1  0  0  0  0  0  0  0  0  0
  -26.3220  -25.5260   23.9530 C   0  0  0  0  0  1  0  0  0  0  0  0
  -27.5670  -25.9920   21.8330 C   0  0  0  0  0  1  0  0  0  0  0  0
  -28.6590  -26.4160   24.0190 C   0  0  0  0  0  1  0  0  0  0  0  0
  -26.8020  -28.5720   24.6020 N   0  0  0  0  0  0  0  0  0  0  0  0
  -27.3300  -29.7580   24.9290 C   0  0  0  0  0  0  0  0  0  0  0  0
  -27.9430  -30.4640   24.1240 O   0  0  0  0  0  0  0  0  0  0  0  0
  -26.2810  -28.0650   25.3020 H   0  0  0  0  0  0  0  0  0  0  0  0
  -26.0490  -31.3070   26.4460 C   0  0  0  0  0  1  0  0  0  0  0  0
  -27.1490  -30.2340   26.3850 C   0  0  0  0  0  3  0  0  0  0  0  0
  -29.4020  -29.7410   27.2240 C   0  0  0  0  0  1  0  0  0  0  0  0
  -28.3890  -30.7660   26.9900 N   0  0  0  0  0  0  0  0  0  0  0  0
  -28.1890  -31.2190   27.8790 H   0  0  0  0  0  0  0  0  0  0  0  0
  -27.8250  -20.3210   19.2450 C   0  0  0  0  0  2  0  0  0  0  0  0
  -28.5020  -19.0330   19.7750 C   0  0  0  0  0  2  0  0  0  0  0  0
  -29.5260  -18.4690   18.7450 C   0  0  0  0  0  2  0  0  0  0  0  0
  -30.7560  -17.7480   19.3650 C   0  0  0  0  0  2  0  0  0  0  0  0
  -32.0970  -15.6580   18.7920 C   0  0  0  0  0  0  0  0  0  0  0  0
  -31.9760  -13.2060   18.5130 C   0  0  0  0  0  2  0  0  0  0  0  0
  -30.9290  -12.9110   17.4170 C   0  0  0  0  0  2  0  0  0  0  0  0
  -29.4890  -12.8970   17.9870 C   0  0  0  0  0  2  0  0  0  0  0  0
  -29.1870  -14.1200   18.8910 C   0  0  0  0  0  3  0  0  0  0  0  0
  -30.3280  -14.3120   19.9140 C   0  0  0  0  0  2  0  0  0  0  0  0
  -31.5760  -14.4590   19.1540 N   0  0  0  0  0  0  0  0  0  0  0  0
  -33.2330  -15.8150   18.3270 O   0  0  0  0  0  0  0  0  0  0  0  0
  -31.1090  -16.5580   18.5840 N   0  0  0  0  0  0  0  0  0  0  0  0
  -30.2710  -16.0410   18.3610 H   0  0  0  0  0  0  0  0  0  0  0  0
  -27.0540  -15.0400   19.9960 C   0  0  0  0  0  0  0  0  0  0  0  0
  -25.9290  -14.4200   20.4500 C   0  0  0  0  0  0  0  0  0  0  0  0
  -26.1400  -13.0220   20.2490 C   0  0  0  0  0  0  0  0  0  0  0  0
  -27.8880  -14.0300   19.5380 N   0  0  0  0  0  0  0  0  0  0  0  0
  -27.3470  -12.8080   19.7450 N   0  0  0  0  0  0  0  0  0  0  0  0
  -25.2410  -11.8800   20.4360 C   0  0  0  0  0  0  0  0  0  0  0  0
  -25.5520  -10.8320   21.3290 C   0  0  0  0  0  3  0  0  0  0  0  0
  -24.6590   -9.7550   21.5060 C   0  0  0  0  0  3  0  0  0  0  0  0
  -23.4400   -9.7180   20.7870 C   0  0  0  0  0  0  0  0  0  0  0  0
  -23.1450  -10.7540   19.8830 C   0  0  0  0  0  3  0  0  0  0  0  0
  -24.0390  -11.8230   19.7040 C   0  0  0  0  0  3  0  0  0  0  0  0
  -22.5250   -8.6980   20.8740 O   0  0  0  0  0  0  0  0  0  0  0  0
  -22.2890   -8.0430   22.0560 C   0  0  0  0  0  0  0  0  0  0  0  0
  -21.8610   -8.7260   23.2150 C   0  0  0  0  0  3  0  0  0  0  0  0
  -21.5630   -8.0040   24.3880 C   0  0  0  0  0  3  0  0  0  0  0  0
  -21.6850   -6.6010   24.4010 C   0  0  0  0  0  0  0  0  0  0  0  0
  -22.1070   -5.9190   23.2460 C   0  0  0  0  0  3  0  0  0  0  0  0
  -22.4050   -6.6380   22.0760 C   0  0  0  0  0  0  0  0  0  0  0  0
  -22.7910   -5.9730   20.9600 F   0  0  0  0  0  0  0  0  0  0  0  0
  -21.3920   -5.9070   25.5260 F   0  0  0  0  0  0  0  0  0  0  0  0
  -24.6840  -15.0860   20.9660 C   0  0  0  0  0  0  0  0  0  0  0  0
  -23.9880  -14.4470   21.8960 N   0  0  0  0  0  0  0  0  0  0  0  0
  -24.3450  -16.2010   20.5700 O   0  0  0  0  0  0  0  0  0  0  0  0
  -24.2810  -13.5410   22.2340 H   0  0  0  0  0  0  0  0  0  0  0  0
  -23.1540  -14.8710   22.2820 H   0  0  0  0  0  0  0  0  0  0  0  0
  -27.4220  -16.3830   19.9170 N   0  0  0  0  0  0  0  0  0  0  0  0
  -26.7800  -17.1150   20.2050 H   0  0  0  0  0  0  0  0  0  0  0  0
  -28.2710  -16.7440   19.5050 H   0  0  0  0  0  0  0  0  0  0  0  0
  1  3  1  0
  2  1  1  0
  4  6  1  0
  5 11  1  0
  5  2  1  0
  5  4  1  0
  6 55  1  6
  6  3  1  0
  6  7  1  0
  7 10  1  0
  7  8  1  0
  9  7  1  0
 12 13  2  0
 12 11  1  0
 14 13  1  0
 14 16  1  0
 15 26  2  0
 16 21  1  0
 17 27  1  0
 17 25  1  0
 18 20  1  0
 18 24  1  0
 19 25  1  0
 20 19  1  0
 21 20  2  0
 22 16  2  0
 22 23  1  0
 23 18  2  0
 24 17  1  0
 25 15  1  0
 27 29  2  0
 28 27  1  0
 30 28  1  0
 31 40  2  0
 31 36  1  0
 32 28  1  0
 32 36  1  0
 33 32  1  0
 34 35  1  0
 34 33  1  0
 35 31  1  0
 36 37  2  0
 37 38  1  0
 39 38  2  0
 40 39  1  0
 41 15  1  0
 41 42  1  0
 41 46  1  0
 42 43  1  1
 42 45  1  0
 44 42  1  0
 46 47  1  0
 46 49  1  0
 47 51  1  0
 48 47  2  0
 51 50  1  0
 51 53  1  0
 53 52  1  0
 53 54  1  0
 55 56  1  0
 57 58  1  0
 57 56  1  0
 59 65  1  0
 60 65  1  0
 61 62  1  0
 61 60  1  0
 63 62  1  0
 63 72  1  0
 63 64  1  0
 65 64  1  0
 66 59  2  0
 67 59  1  0
 67 58  1  0
 68 67  1  0
 69 70  2  0
 70 89  1  0
 71 74  1  0
 71 70  1  0
 72 73  1  0
 72 69  1  0
 73 71  2  0
 74 75  1  0
 75 76  2  0
 77 80  1  0
 77 76  1  0
 78 77  2  0
 79 78  1  0
 79 74  2  0
 80 81  1  0
 81 86  2  0
 81 82  1  0
 82 83  2  0
 83 84  1  0
 84 88  1  0
 85 84  2  0
 86 85  1  0
 87 86  1  0
 89 90  1  0
 90 92  1  0
 90 93  1  0
 91 89  2  0
 94 69  1  0
 94 95  1  0
 96 94  1  0
M  ISO  4  13 101  14 101  59 100  67 100
M  END
>  <TORSDO>  (43) 
F 24

>  <SCORE>  (43) 
2.351

>  <name>  (43) 
43

>  <ligand_id>  (43) 
43

>  <original_smiles>  (43) 
[H]c1c([H])c([H])c2c(c1[H])C([H])([H])C([H])([H])C([H])([H])C2([H])N([H])C(=O)C1([H])N(C(=O)C([H])(N([H])C(=O)C([H])(N([H])C([H])([H])[H])C([H])([H])[H])C(C([H])([H])[H])(C([H])([H])[H])C([H])([H])[H])C([H])([H])c2c([H])c(OC([H])([H])C([H])([H])C([H])([H])C3([H])C([H])([H])C([H])([H])C([H])([H])C(C([H])([H])C([H])([H])C([H])([H])C([H])([H])N([H])C(=O)N4C([H])([H])C([H])([H])C([H])([H])C([H])(n5nc(-c6c([H])c([H])c(Oc7c([H])c([H])c(F)c([H])c7F)c([H])c6[H])c(C(=O)N([H])[H])c5N([H])[H])C4([H])[H])([N+]([H])([H])[H])C3([H])[H])c([H])c([H])c2C1([H])[H]

>  <smiles>  (43) 
[H]c1c([H])c([H])c2c(c1[H])C([H])([H])C([H])([H])C([H])([H])C2([H])N([H])C(=O)C1([H])N(C(=O)C([H])(N([H])C(=O)C([H])(N([H])C([H])([H])[H])C([H])([H])[H])C(C([H])([H])[H])(C([H])([H])[H])C([H])([H])[H])C([H])([H])c2c([H])c(OC([H])([H])C([H])([H])C([H])([H])C3([H])C([H])([H])C([H])([H])C([H])([H])C(C([H])([H])C([H])([H])C([H])([H])C([H])([H])N([H])C(=O)N4C([H])([H])C([H])([H])C([H])([H])C([H])(n5nc(-c6c([H])c([H])c(Oc7c([H])c([H])c(F)c([H])c7F)c([H])c6[H])c(C(=O)N([H])[H])c5N([H])[H])C4([H])[H])([N+]([H])([H])[H])C3([H])[H])c([H])c([H])c2C1([H])[H]

$$$$
44:0:0
     RDKit          3D

 92100  0  0  1  0  0  0  0  0999 V2000
  -27.7510  -21.0750   21.5800 C   0  0  0  0  0  3  0  0  0  0  0  0
  -27.9790  -22.3890   21.1270 C   0  0  0  0  0  3  0  0  0  0  0  0
  -28.5770  -20.0100   21.1730 C   0  0  0  0  0  3  0  0  0  0  0  0
  -29.8700  -21.5740   19.8310 C   0  0  0  0  0  3  0  0  0  0  0  0
  -29.0480  -22.6870   20.2510 C   0  0  0  0  0  0  0  0  0  0  0  0
  -29.6490  -20.2180   20.2790 C   0  0  0  0  0  0  0  0  0  0  0  0
  -29.3030  -24.1820   19.8080 C   0  0  0  0  0  3  0  0  0  0  0  0
  -28.2260  -25.3000   20.1900 C   0  0  0  0  0  3  0  0  0  0  0  0
  -28.4480  -26.7330   19.8690 O   0  0  0  0  0  0  0  0  0  0  0  0
  -24.6550  -31.9100   23.1890 C   0  0  0  0  0  0  0  0  0  0  0  0
  -27.3200  -27.5690   19.8830 C   0  0  0  0  0  0  0  0  0  0  0  0
  -23.4610  -30.5750   21.4900 C   0  0  0  0  0  3  0  0  0  0  0  0
  -24.9260  -29.1330   19.9700 C   0  0  0  0  0  0  0  0  0  0  0  0
  -25.9920  -30.9510   21.3030 C   0  0  0  0  0  2  0  0  0  0  0  0
  -26.0910  -29.6110   20.5840 C   0  0  0  0  0  0  0  0  0  0  0  0
  -27.2920  -28.8410   20.5330 C   0  0  0  0  0  3  0  0  0  0  0  0
  -26.1360  -27.1530   19.2330 C   0  0  0  0  0  3  0  0  0  0  0  0
  -24.9510  -27.9100   19.2830 C   0  0  0  0  0  3  0  0  0  0  0  0
  -23.6740  -29.9780   20.0740 C   0  0  0  0  0  2  0  0  0  0  0  0
  -24.7210  -31.1600   22.0510 N   0  0  0  0  0  0  0  0  0  0  0  0
  -23.5730  -32.1400   23.7470 O   0  0  0  0  0  0  0  0  0  0  0  0
  -22.8270  -29.4970   22.4010 C   0  0  0  0  0  0  0  0  0  0  0  0
  -21.5080  -29.2800   22.2560 N   0  0  0  0  0  0  0  0  0  0  0  0
  -23.5210  -28.8600   23.1990 O   0  0  0  0  0  0  0  0  0  0  0  0
  -21.0080  -29.8490   21.5870 H   0  0  0  0  0  0  0  0  0  0  0  0
  -18.1780  -27.9240   22.6460 C   0  0  0  0  0  0  0  0  0  0  0  0
  -20.7160  -28.2860   22.9800 C   0  0  0  0  0  3  0  0  0  0  0  0
  -20.8920  -26.8770   22.3670 C   0  0  0  0  0  2  0  0  0  0  0  0
  -19.8270  -26.5370   21.3190 C   0  0  0  0  0  2  0  0  0  0  0  0
  -18.4270  -26.6040   21.9360 C   0  0  0  0  0  2  0  0  0  0  0  0
  -19.2520  -28.7210   23.1220 C   0  0  0  0  0  0  0  0  0  0  0  0
  -18.9660  -29.9550   23.7450 C   0  0  0  0  0  3  0  0  0  0  0  0
  -17.6380  -30.3950   23.8950 C   0  0  0  0  0  3  0  0  0  0  0  0
  -16.5770  -29.5960   23.4360 C   0  0  0  0  0  3  0  0  0  0  0  0
  -16.8470  -28.3620   22.8170 C   0  0  0  0  0  3  0  0  0  0  0  0
  -25.9330  -32.5320   23.8320 C   0  0  0  0  0  3  0  0  0  0  0  0
  -25.6090  -33.9150   24.2130 N   0  0  0  0  0  0  0  0  0  0  0  0
  -25.9470  -35.0000   23.5030 C   0  0  0  0  0  0  0  0  0  0  0  0
  -26.6360  -34.9410   22.4810 O   0  0  0  0  0  0  0  0  0  0  0  0
  -24.9990  -34.0330   25.0090 H   0  0  0  0  0  0  0  0  0  0  0  0
  -24.2240  -36.8020   23.1840 C   0  0  0  0  0  1  0  0  0  0  0  0
  -25.4460  -36.3660   24.0090 C   0  0  0  0  0  3  0  0  0  0  0  0
  -27.5580  -37.2120   24.9300 C   0  0  0  0  0  1  0  0  0  0  0  0
  -26.4780  -37.4240   23.9700 N   0  0  0  0  0  0  0  0  0  0  0  0
  -26.0670  -38.3350   24.1510 H   0  0  0  0  0  0  0  0  0  0  0  0
  -26.4600  -31.7220   25.0790 C   0  0  1  0  0  0  0  0  0  0  0  0
  -25.3690  -31.4210   26.1330 C   0  0  0  0  0  1  0  0  0  0  0  0
  -27.0720  -30.3720   24.6370 C   0  0  0  0  0  1  0  0  0  0  0  0
  -27.5950  -32.5120   25.7750 C   0  0  0  0  0  1  0  0  0  0  0  0
  -30.5700  -18.9900   19.9200 C   0  0  0  0  0  2  0  0  0  0  0  0
  -29.8950  -17.5440   19.6870 C   0  0  0  0  0  3  0  0  0  0  0  0
  -28.9340  -18.3090   17.4070 C   0  0  0  0  0  1  0  0  0  0  0  0
  -29.7270  -17.2420   18.1780 C   0  0  0  0  0  2  0  0  0  0  0  0
  -30.3460  -16.2290   20.5320 C   0  0  0  0  0  3  0  0  0  0  0  0
  -31.0460  -14.9730   19.8240 C   0  0  0  0  0  0  0  0  0  0  0  0
  -30.7630  -12.7620   18.6900 C   0  0  0  0  0  2  0  0  0  0  0  0
  -29.7260  -12.9140   17.5540 C   0  0  0  0  0  2  0  0  0  0  0  0
  -28.2840  -12.7560   18.0860 C   0  0  0  0  0  2  0  0  0  0  0  0
  -28.0310  -13.5850   19.3730 C   0  0  0  0  0  3  0  0  0  0  0  0
  -29.1680  -13.3610   20.3920 C   0  0  0  0  0  2  0  0  0  0  0  0
  -30.4280  -13.7470   19.7390 N   0  0  0  0  0  0  0  0  0  0  0  0
  -32.1470  -15.1390   19.2900 O   0  0  0  0  0  0  0  0  0  0  0  0
  -25.7120  -14.2000   20.2920 C   0  0  0  0  0  0  0  0  0  0  0  0
  -24.6640  -13.4320   20.7210 C   0  0  0  0  0  0  0  0  0  0  0  0
  -25.0990  -12.0750   20.6140 C   0  0  0  0  0  0  0  0  0  0  0  0
  -26.7180  -13.3110   19.9500 N   0  0  0  0  0  0  0  0  0  0  0  0
  -26.3600  -12.0250   20.2020 N   0  0  0  0  0  0  0  0  0  0  0  0
  -24.3690  -10.8180   20.8240 C   0  0  0  0  0  0  0  0  0  0  0  0
  -24.7870   -9.8700   21.7850 C   0  0  0  0  0  3  0  0  0  0  0  0
  -24.0560   -8.6790   21.9790 C   0  0  0  0  0  3  0  0  0  0  0  0
  -22.8930   -8.4270   21.2130 C   0  0  0  0  0  0  0  0  0  0  0  0
  -22.4950   -9.3620   20.2410 C   0  0  0  0  0  3  0  0  0  0  0  0
  -23.2260  -10.5450   20.0450 C   0  0  0  0  0  3  0  0  0  0  0  0
  -22.1370   -7.2850   21.3160 O   0  0  0  0  0  0  0  0  0  0  0  0
  -21.9890   -6.6240   22.5080 C   0  0  0  0  0  0  0  0  0  0  0  0
  -21.4620   -7.2620   23.6530 C   0  0  0  0  0  3  0  0  0  0  0  0
  -21.2600   -6.5280   24.8380 C   0  0  0  0  0  3  0  0  0  0  0  0
  -21.5750   -5.1570   24.8800 C   0  0  0  0  0  0  0  0  0  0  0  0
  -22.0950   -4.5180   23.7410 C   0  0  0  0  0  3  0  0  0  0  0  0
  -22.2970   -5.2500   22.5580 C   0  0  0  0  0  0  0  0  0  0  0  0
  -22.7790   -4.6240   21.4550 F   0  0  0  0  0  0  0  0  0  0  0  0
  -21.3740   -4.4490   26.0170 F   0  0  0  0  0  0  0  0  0  0  0  0
  -23.3010  -13.9210   21.1180 C   0  0  0  0  0  0  0  0  0  0  0  0
  -22.6510  -13.2370   22.0520 N   0  0  0  0  0  0  0  0  0  0  0  0
  -22.8230  -14.9460   20.6340 O   0  0  0  0  0  0  0  0  0  0  0  0
  -23.0520  -12.4070   22.4650 H   0  0  0  0  0  0  0  0  0  0  0  0
  -21.7410  -13.5480   22.3620 H   0  0  0  0  0  0  0  0  0  0  0  0
  -25.8860  -15.5730   20.1410 N   0  0  0  0  0  0  0  0  0  0  0  0
  -25.1410  -16.2350   20.3210 H   0  0  0  0  0  0  0  0  0  0  0  0
  -26.7120  -16.0050   19.7500 H   0  0  0  0  0  0  0  0  0  0  0  0
  -31.2420  -15.4390   22.8510 C   0  0  0  0  0  1  0  0  0  0  0  0
  -31.0670  -16.5970   21.8530 C   0  0  0  0  0  2  0  0  0  0  0  0
  2  1  2  0
  3  1  1  0
  4  5  2  0
  4  6  1  0
  5  2  1  0
  6  3  2  0
  7  8  2  0
  7  5  1  0
  9 11  1  0
  9  8  1  0
 10 21  2  0
 11 16  1  0
 12 20  1  0
 12 22  1  0
 13 19  1  0
 13 15  1  0
 14 20  1  0
 15 14  1  0
 16 15  2  0
 17 18  1  0
 17 11  2  0
 18 13  2  0
 19 12  1  0
 20 10  1  0
 22 24  2  0
 23 22  1  0
 25 23  1  0
 26 35  2  0
 26 31  1  0
 27 23  1  0
 27 31  1  0
 28 27  1  0
 29 30  1  0
 29 28  1  0
 30 26  1  0
 31 32  2  0
 32 33  1  0
 34 33  2  0
 35 34  1  0
 36 10  1  0
 36 37  1  0
 36 46  1  0
 37 40  1  0
 38 42  1  0
 38 37  1  0
 39 38  2  0
 42 41  1  0
 44 42  1  0
 44 45  1  0
 44 43  1  0
 46 49  1  1
 46 47  1  0
 48 46  1  0
 50  6  1  0
 51 53  1  0
 51 50  1  0
 51 54  1  0
 52 53  1  0
 54 92  1  0
 55 54  1  0
 56 61  1  0
 57 58  1  0
 57 56  1  0
 59 58  1  0
 59 66  1  0
 59 60  1  0
 61 55  1  0
 61 60  1  0
 62 55  2  0
 63 64  2  0
 64 83  1  0
 65 64  1  0
 65 68  1  0
 66 67  1  0
 66 63  1  0
 67 65  2  0
 68 69  1  0
 69 70  2  0
 71 74  1  0
 71 70  1  0
 72 71  2  0
 73 72  1  0
 73 68  2  0
 74 75  1  0
 75 80  2  0
 75 76  1  0
 76 77  2  0
 77 78  1  0
 78 82  1  0
 79 78  2  0
 80 79  1  0
 81 80  1  0
 83 84  1  0
 84 87  1  0
 84 86  1  0
 85 83  2  0
 88 63  1  0
 88 89  1  0
 90 88  1  0
 92 91  1  0
M  ISO  4   8 101   9 101  54 100  55 100
M  END
>  <TORSDO>  (44) 
F 23

>  <SCORE>  (44) 
-9.560

>  <name>  (44) 
44

>  <ligand_id>  (44) 
44

>  <original_smiles>  (44) 
[H]c1c([H])c([H])c2c(c1[H])C([H])([H])C([H])([H])C([H])([H])C2([H])N([H])C(=O)C1([H])N(C(=O)C([H])(N([H])C(=O)C([H])(N([H])C([H])([H])[H])C([H])([H])[H])C(C([H])([H])[H])(C([H])([H])[H])C([H])([H])[H])C([H])([H])c2c([H])c(OC([H])([H])C([H])([H])c3c([H])c([H])c([H])c(C([H])([H])C([H])(C([H])([H])C([H])([H])[H])C([H])(C(=O)N4C([H])([H])C([H])([H])C([H])([H])C([H])(n5nc(-c6c([H])c([H])c(Oc7c([H])c([H])c(F)c([H])c7F)c([H])c6[H])c(C(=O)N([H])[H])c5N([H])[H])C4([H])[H])C([H])([H])C([H])([H])[H])c3[H])c([H])c([H])c2C1([H])[H]

>  <smiles>  (44) 
[H]c1c([H])c([H])c2c(c1[H])C([H])([H])C([H])([H])C([H])([H])C2([H])N([H])C(=O)C1([H])N(C(=O)C([H])(N([H])C(=O)C([H])(N([H])C([H])([H])[H])C([H])([H])[H])C(C([H])([H])[H])(C([H])([H])[H])C([H])([H])[H])C([H])([H])c2c([H])c(OC([H])([H])C([H])([H])c3c([H])c([H])c([H])c(C([H])([H])C([H])(C([H])([H])C([H])([H])[H])C([H])(C(=O)N4C([H])([H])C([H])([H])C([H])([H])C([H])(n5nc(-c6c([H])c([H])c(Oc7c([H])c([H])c(F)c([H])c7F)c([H])c6[H])c(C(=O)N([H])[H])c5N([H])[H])C4([H])[H])C([H])([H])C([H])([H])[H])c3[H])c([H])c([H])c2C1([H])[H]

$$$$
45:0:0
     RDKit          3D

 94103  0  0  1  0  0  0  0  0999 V2000
  -28.3990  -21.5980   21.5010 C   0  0  0  0  0  2  0  0  0  0  0  0
  -28.6940  -19.6210   18.0620 C   0  0  0  0  0  2  0  0  0  0  0  0
  -28.6600  -18.2040   18.6370 C   0  0  0  0  0  2  0  0  0  0  0  0
  -28.7430  -19.0030   21.1620 C   0  0  0  0  0  2  0  0  0  0  0  0
  -29.2050  -20.1270   19.4130 C   0  0  0  0  0  3  0  0  0  0  0  0
  -28.2610  -20.3530   20.6090 C   0  0  0  0  0  3  0  0  0  0  0  0
  -29.4850  -18.6730   19.8540 C   0  0  2  0  0  0  0  0  0  0  0  0
  -30.9470  -18.1940   19.9450 C   0  0  0  0  0  2  0  0  0  0  0  0
  -31.2410  -17.1640   21.0620 C   0  0  0  0  0  2  0  0  0  0  0  0
  -31.2980  -14.8290   20.1520 C   0  0  0  0  0  0  0  0  0  0  0  0
  -30.9470  -12.6330   19.0900 C   0  0  0  0  0  2  0  0  0  0  0  0
  -30.0110  -12.7970   17.8770 C   0  0  0  0  0  2  0  0  0  0  0  0
  -28.5360  -12.7030   18.3120 C   0  0  0  0  0  2  0  0  0  0  0  0
  -28.2130  -13.6040   19.5310 C   0  0  0  0  0  3  0  0  0  0  0  0
  -29.2640  -13.4220   20.6490 C   0  0  0  0  0  2  0  0  0  0  0  0
  -30.5960  -13.6690   20.0700 N   0  0  0  0  0  0  0  0  0  0  0  0
  -32.3910  -14.9970   19.6030 O   0  0  0  0  0  0  0  0  0  0  0  0
  -30.6900  -15.8270   20.8140 N   0  0  0  0  0  0  0  0  0  0  0  0
  -29.7870  -15.6210   21.2170 H   0  0  0  0  0  0  0  0  0  0  0  0
  -25.8490  -14.2990   20.2810 C   0  0  0  0  0  0  0  0  0  0  0  0
  -24.7570  -13.5670   20.6590 C   0  0  0  0  0  0  0  0  0  0  0  0
  -25.1630  -12.1980   20.6120 C   0  0  0  0  0  0  0  0  0  0  0  0
  -26.8560  -13.3810   20.0260 N   0  0  0  0  0  0  0  0  0  0  0  0
  -26.4450  -12.1110   20.2790 N   0  0  0  0  0  0  0  0  0  0  0  0
  -24.3930  -10.9640   20.8070 C   0  0  0  0  0  0  0  0  0  0  0  0
  -24.7630  -10.0110   21.7810 C   0  0  0  0  0  3  0  0  0  0  0  0
  -23.9960   -8.8410   21.9640 C   0  0  0  0  0  3  0  0  0  0  0  0
  -22.8460   -8.6160   21.1700 C   0  0  0  0  0  0  0  0  0  0  0  0
  -22.4930   -9.5600   20.1880 C   0  0  0  0  0  3  0  0  0  0  0  0
  -23.2610  -10.7210   20.0060 C   0  0  0  0  0  3  0  0  0  0  0  0
  -22.0540   -7.4960   21.2580 O   0  0  0  0  0  0  0  0  0  0  0  0
  -21.8830   -6.8260   22.4430 C   0  0  0  0  0  0  0  0  0  0  0  0
  -21.3580   -7.4610   23.5880 C   0  0  0  0  0  3  0  0  0  0  0  0
  -21.1340   -6.7200   24.7650 C   0  0  0  0  0  3  0  0  0  0  0  0
  -21.4250   -5.3430   24.7960 C   0  0  0  0  0  0  0  0  0  0  0  0
  -21.9390   -4.7060   23.6520 C   0  0  0  0  0  3  0  0  0  0  0  0
  -22.1670   -5.4460   22.4790 C   0  0  0  0  0  0  0  0  0  0  0  0
  -22.6460   -4.8240   21.3750 F   0  0  0  0  0  0  0  0  0  0  0  0
  -21.2010   -4.6290   25.9210 F   0  0  0  0  0  0  0  0  0  0  0  0
  -23.3860  -14.0980   20.9600 C   0  0  0  0  0  0  0  0  0  0  0  0
  -22.6490  -13.4340   21.8410 N   0  0  0  0  0  0  0  0  0  0  0  0
  -22.9790  -15.1410   20.4470 O   0  0  0  0  0  0  0  0  0  0  0  0
  -22.9910  -12.5930   22.2790 H   0  0  0  0  0  0  0  0  0  0  0  0
  -21.7300  -13.7760   22.0820 H   0  0  0  0  0  0  0  0  0  0  0  0
  -26.0630  -15.6650   20.1200 N   0  0  0  0  0  0  0  0  0  0  0  0
  -25.3170  -16.3410   20.2410 H   0  0  0  0  0  0  0  0  0  0  0  0
  -26.9330  -16.0820   19.8150 H   0  0  0  0  0  0  0  0  0  0  0  0
  -27.6980  -22.7890   20.9580 N   0  0  0  0  0  4  0  0  0  0  0  0
  -27.4740  -23.3960   21.7280 H   0  0  0  0  0  0  0  0  0  0  0  0
  -26.8210  -22.4740   20.5730 H   0  0  0  0  0  0  0  0  0  0  0  0
  -28.4090  -23.5790   19.9220 C   0  0  0  0  0  2  0  0  0  0  0  0
  -29.4040  -24.6080   20.5040 C   0  0  0  0  0  2  0  0  0  0  0  0
  -28.7500  -25.8670   21.1160 C   0  0  0  0  0  2  0  0  0  0  0  0
  -28.5990  -26.8960   20.1420 O   0  0  0  0  0  0  0  0  0  0  0  0
  -24.7050  -31.9720   23.3170 C   0  0  0  0  0  0  0  0  0  0  0  0
  -27.4230  -27.5950   20.2180 C   0  0  0  0  0  0  0  0  0  0  0  0
  -23.5190  -30.5570   21.6660 C   0  0  0  0  0  3  0  0  0  0  0  0
  -25.0010  -29.0410   20.2420 C   0  0  0  0  0  0  0  0  0  0  0  0
  -26.0380  -30.9520   21.4760 C   0  0  0  0  0  2  0  0  0  0  0  0
  -26.1460  -29.5820   20.8410 C   0  0  0  0  0  0  0  0  0  0  0  0
  -27.3620  -28.8640   20.8330 C   0  0  0  0  0  3  0  0  0  0  0  0
  -26.2680  -27.0610   19.6130 C   0  0  0  0  0  3  0  0  0  0  0  0
  -25.0550  -27.7760   19.6260 C   0  0  0  0  0  3  0  0  0  0  0  0
  -23.7450  -29.8820   20.2850 C   0  0  0  0  0  2  0  0  0  0  0  0
  -24.7710  -31.1760   22.2130 N   0  0  0  0  0  0  0  0  0  0  0  0
  -23.6190  -32.2330   23.8520 O   0  0  0  0  0  0  0  0  0  0  0  0
  -22.8800  -29.5270   22.6230 C   0  0  0  0  0  0  0  0  0  0  0  0
  -21.5590  -29.3270   22.4890 N   0  0  0  0  0  0  0  0  0  0  0  0
  -23.5650  -28.9140   23.4430 O   0  0  0  0  0  0  0  0  0  0  0  0
  -21.0660  -29.8870   21.8090 H   0  0  0  0  0  0  0  0  0  0  0  0
  -18.2020  -28.0650   22.9500 C   0  0  0  0  0  0  0  0  0  0  0  0
  -20.7520  -28.3670   23.2420 C   0  0  0  0  0  3  0  0  0  0  0  0
  -20.8860  -26.9460   22.6510 C   0  0  0  0  0  2  0  0  0  0  0  0
  -19.7960  -26.6160   21.6270 C   0  0  0  0  0  2  0  0  0  0  0  0
  -18.4080  -26.7270   22.2610 C   0  0  0  0  0  2  0  0  0  0  0  0
  -19.3040  -28.8420   23.3950 C   0  0  0  0  0  0  0  0  0  0  0  0
  -19.0630  -30.0990   23.9930 C   0  0  0  0  0  3  0  0  0  0  0  0
  -17.7510  -30.5840   24.1460 C   0  0  0  0  0  3  0  0  0  0  0  0
  -16.6620  -29.8030   23.7170 C   0  0  0  0  0  3  0  0  0  0  0  0
  -16.8880  -28.5460   23.1280 C   0  0  0  0  0  3  0  0  0  0  0  0
  -25.9850  -32.6110   23.9430 C   0  0  0  0  0  3  0  0  0  0  0  0
  -25.6800  -34.0190   24.2330 N   0  0  0  0  0  0  0  0  0  0  0  0
  -26.0400  -35.0500   23.4530 C   0  0  0  0  0  0  0  0  0  0  0  0
  -26.7400  -34.9160   22.4490 O   0  0  0  0  0  0  0  0  0  0  0  0
  -25.0680  -34.2000   25.0150 H   0  0  0  0  0  0  0  0  0  0  0  0
  -24.3480  -36.8500   22.9840 C   0  0  0  0  0  1  0  0  0  0  0  0
  -25.5460  -36.4500   23.8600 C   0  0  0  0  0  3  0  0  0  0  0  0
  -27.6490  -37.3330   24.7700 C   0  0  0  0  0  1  0  0  0  0  0  0
  -26.5940  -37.4890   23.7710 N   0  0  0  0  0  0  0  0  0  0  0  0
  -26.1910  -38.4160   23.8820 H   0  0  0  0  0  0  0  0  0  0  0  0
  -26.4790  -31.8710   25.2450 C   0  0  1  0  0  0  0  0  0  0  0  0
  -25.3640  -31.6550   26.2950 C   0  0  0  0  0  1  0  0  0  0  0  0
  -27.0780  -30.4890   24.8910 C   0  0  0  0  0  1  0  0  0  0  0  0
  -27.6160  -32.6840   25.9100 C   0  0  0  0  0  1  0  0  0  0  0  0
  2  3  1  0
  3  7  1  0
  5  2  1  0
  5  7  1  0
  5  6  1  0
  6  4  1  0
  6  1  1  0
  7  8  1  1
  7  4  1  0
  8  9  1  0
 10 18  1  0
 11 16  1  0
 12 13  1  0
 12 11  1  0
 14 13  1  0
 14 23  1  0
 14 15  1  0
 16 10  1  0
 16 15  1  0
 17 10  2  0
 18  9  1  0
 18 19  1  0
 20 21  2  0
 21 40  1  0
 22 21  1  0
 22 25  1  0
 23 24  1  0
 23 20  1  0
 24 22  2  0
 25 26  1  0
 26 27  2  0
 28 31  1  0
 28 27  1  0
 29 28  2  0
 30 29  1  0
 30 25  2  0
 31 32  1  0
 32 37  2  0
 32 33  1  0
 33 34  2  0
 34 35  1  0
 35 39  1  0
 36 35  2  0
 37 36  1  0
 38 37  1  0
 40 41  1  0
 41 44  1  0
 41 43  1  0
 42 40  2  0
 45 46  1  0
 45 20  1  0
 47 45  1  0
 48  1  1  0
 48 49  1  0
 50 48  1  0
 51 52  1  0
 51 48  1  0
 52 53  1  0
 54 56  1  0
 54 53  1  0
 55 66  2  0
 56 61  1  0
 57 65  1  0
 57 67  1  0
 58 64  1  0
 58 60  1  0
 59 65  1  0
 60 59  1  0
 61 60  2  0
 62 63  1  0
 62 56  2  0
 63 58  2  0
 64 57  1  0
 65 55  1  0
 67 69  2  0
 68 67  1  0
 70 68  1  0
 71 80  2  0
 71 76  1  0
 72 68  1  0
 72 76  1  0
 73 72  1  0
 74 75  1  0
 74 73  1  0
 75 71  1  0
 76 77  2  0
 77 78  1  0
 79 78  2  0
 80 79  1  0
 81 55  1  0
 81 82  1  0
 81 91  1  0
 82 85  1  0
 83 87  1  0
 83 82  1  0
 84 83  2  0
 87 86  1  0
 89 87  1  0
 89 90  1  0
 89 88  1  0
 91 94  1  1
 91 92  1  0
 93 91  1  0
M  ISO  4  10 100  18 100  53 101  54 101
M  END
>  <TORSDO>  (45) 
F 23

>  <SCORE>  (45) 
-11.928

>  <name>  (45) 
45

>  <ligand_id>  (45) 
45

>  <original_smiles>  (45) 
[H]c1c([H])c([H])c2c(c1[H])C([H])([H])C([H])([H])C([H])([H])C2([H])N([H])C(=O)C1([H])N(C(=O)C([H])(N([H])C(=O)C([H])(N([H])C([H])([H])[H])C([H])([H])[H])C(C([H])([H])[H])(C([H])([H])[H])C([H])([H])[H])C([H])([H])c2c([H])c(OC([H])([H])C([H])([H])C([H])([H])[N+]([H])([H])C([H])([H])C3([H])C([H])([H])C4(C([H])([H])C([H])([H])N([H])C(=O)N5C([H])([H])C([H])([H])C([H])([H])C([H])(n6nc(-c7c([H])c([H])c(Oc8c([H])c([H])c(F)c([H])c8F)c([H])c7[H])c(C(=O)N([H])[H])c6N([H])[H])C5([H])[H])C([H])([H])C([H])([H])C34[H])c([H])c([H])c2C1([H])[H]

>  <smiles>  (45) 
[H]c1c([H])c([H])c2c(c1[H])C([H])([H])C([H])([H])C([H])([H])C2([H])N([H])C(=O)C1([H])N(C(=O)C([H])(N([H])C(=O)C([H])(N([H])C([H])([H])[H])C([H])([H])[H])C(C([H])([H])[H])(C([H])([H])[H])C([H])([H])[H])C([H])([H])c2c([H])c(OC([H])([H])C([H])([H])C([H])([H])[N+]([H])([H])C([H])([H])C3([H])C([H])([H])C4(C([H])([H])C([H])([H])N([H])C(=O)N5C([H])([H])C([H])([H])C([H])([H])C([H])(n6nc(-c7c([H])c([H])c(Oc8c([H])c([H])c(F)c([H])c8F)c([H])c7[H])c(C(=O)N([H])[H])c6N([H])[H])C5([H])[H])C([H])([H])C([H])([H])C34[H])c([H])c([H])c2C1([H])[H]

$$$$
46:0:0
     RDKit          3D

 90 98  0  0  1  0  0  0  0  0999 V2000
  -30.2840  -21.0080   19.9890 C   0  0  0  0  0  3  0  0  0  0  0  0
  -28.9550  -21.1590   20.1880 C   0  0  0  0  0  0  0  0  0  0  0  0
  -30.9520  -19.6720   19.9420 C   0  0  0  0  0  0  0  0  0  0  0  0
  -28.0610  -19.9240   20.3590 C   0  0  0  0  0  2  0  0  0  0  0  0
  -28.8170  -18.6340   20.7890 C   0  0  0  0  0  2  0  0  0  0  0  0
  -30.1110  -18.3530   19.9920 C   0  0  0  0  0  3  0  0  0  0  0  0
  -32.1810  -19.6010   19.8510 O   0  0  0  0  0  0  0  0  0  0  0  0
  -28.1990  -22.5160   20.2860 C   0  0  0  0  0  2  0  0  0  0  0  0
  -28.8840  -23.8980   19.9570 C   0  0  0  0  0  2  0  0  0  0  0  0
  -28.0100  -25.1160   20.4490 C   0  0  0  0  0  2  0  0  0  0  0  0
  -28.3170  -26.4830   20.0140 O   0  0  0  0  0  0  0  0  0  0  0  0
  -24.6180  -31.7600   23.1950 C   0  0  0  0  0  0  0  0  0  0  0  0
  -27.2140  -27.3340   19.9940 C   0  0  0  0  0  0  0  0  0  0  0  0
  -23.4030  -30.4010   21.5290 C   0  0  0  0  0  3  0  0  0  0  0  0
  -24.8450  -28.9040   20.0460 C   0  0  0  0  0  0  0  0  0  0  0  0
  -25.9360  -30.7450   21.3300 C   0  0  0  0  0  2  0  0  0  0  0  0
  -26.0150  -29.3880   20.6460 C   0  0  0  0  0  0  0  0  0  0  0  0
  -27.2050  -28.6130   20.6150 C   0  0  0  0  0  3  0  0  0  0  0  0
  -26.0330  -26.8990   19.3550 C   0  0  0  0  0  3  0  0  0  0  0  0
  -24.8520  -27.6610   19.3950 C   0  0  0  0  0  3  0  0  0  0  0  0
  -23.6050  -29.7680   20.1290 C   0  0  0  0  0  2  0  0  0  0  0  0
  -24.6710  -30.9830   22.0750 N   0  0  0  0  0  0  0  0  0  0  0  0
  -23.5400  -32.0210   23.7460 O   0  0  0  0  0  0  0  0  0  0  0  0
  -22.7540  -29.3550   22.4650 C   0  0  0  0  0  0  0  0  0  0  0  0
  -21.4250  -29.1890   22.3550 N   0  0  0  0  0  0  0  0  0  0  0  0
  -23.4440  -28.6990   23.2490 O   0  0  0  0  0  0  0  0  0  0  0  0
  -20.9290  -29.7730   21.6960 H   0  0  0  0  0  0  0  0  0  0  0  0
  -18.0460  -28.0160   22.8780 C   0  0  0  0  0  0  0  0  0  0  0  0
  -20.6120  -28.2350   23.1090 C   0  0  0  0  0  3  0  0  0  0  0  0
  -20.6850  -26.8220   22.4830 C   0  0  0  0  0  2  0  0  0  0  0  0
  -19.5610  -26.5480   21.4790 C   0  0  0  0  0  2  0  0  0  0  0  0
  -18.1930  -26.6870   22.1540 C   0  0  0  0  0  2  0  0  0  0  0  0
  -19.1820  -28.7500   23.3120 C   0  0  0  0  0  0  0  0  0  0  0  0
  -18.9900  -29.9950   23.9490 C   0  0  0  0  0  3  0  0  0  0  0  0
  -17.6950  -30.5050   24.1560 C   0  0  0  0  0  3  0  0  0  0  0  0
  -16.5750  -29.7680   23.7380 C   0  0  0  0  0  3  0  0  0  0  0  0
  -16.7500  -28.5250   23.1050 C   0  0  0  0  0  3  0  0  0  0  0  0
  -25.9070  -32.3770   23.8210 C   0  0  0  0  0  3  0  0  0  0  0  0
  -26.4140  -31.5960   25.0960 C   0  0  1  0  0  0  0  0  0  0  0  0
  -25.3140  -31.3570   26.1560 C   0  0  0  0  0  1  0  0  0  0  0  0
  -26.9910  -30.2170   24.6990 C   0  0  0  0  0  1  0  0  0  0  0  0
  -27.5650  -32.3800   25.7680 C   0  0  0  0  0  1  0  0  0  0  0  0
  -25.6120  -33.7770   24.1540 N   0  0  0  0  0  0  0  0  0  0  0  0
  -25.9550  -34.8280   23.3970 C   0  0  0  0  0  0  0  0  0  0  0  0
  -26.6260  -34.7200   22.3680 O   0  0  0  0  0  0  0  0  0  0  0  0
  -25.0150  -33.9360   24.9530 H   0  0  0  0  0  0  0  0  0  0  0  0
  -24.2440  -36.6370   23.0430 C   0  0  0  0  0  1  0  0  0  0  0  0
  -25.4790  -36.2200   23.8560 C   0  0  0  0  0  3  0  0  0  0  0  0
  -27.6150  -37.0890   24.7000 C   0  0  0  0  0  1  0  0  0  0  0  0
  -26.5220  -37.2640   23.7470 N   0  0  0  0  0  0  0  0  0  0  0  0
  -26.1230  -38.1870   23.8890 H   0  0  0  0  0  0  0  0  0  0  0  0
  -30.9230  -17.0930   20.5180 C   0  0  0  0  0  2  0  0  0  0  0  0
  -30.9610  -14.6080   20.0000 C   0  0  0  0  0  0  0  0  0  0  0  0
  -30.5810  -12.4060   18.9380 C   0  0  0  0  0  2  0  0  0  0  0  0
  -29.5710  -12.5610   17.7830 C   0  0  0  0  0  2  0  0  0  0  0  0
  -28.1260  -12.4320   18.3030 C   0  0  0  0  0  2  0  0  0  0  0  0
  -27.8600  -13.3040   19.5590 C   0  0  0  0  0  3  0  0  0  0  0  0
  -28.9830  -13.1460   20.6090 C   0  0  0  0  0  2  0  0  0  0  0  0
  -30.2600  -13.4370   19.9430 N   0  0  0  0  0  0  0  0  0  0  0  0
  -32.1010  -14.6940   19.5380 O   0  0  0  0  0  0  0  0  0  0  0  0
  -30.3080  -15.7280   20.4180 N   0  0  0  0  0  0  0  0  0  0  0  0
  -29.3570  -15.6140   20.7360 H   0  0  0  0  0  0  0  0  0  0  0  0
  -25.5350  -13.9300   20.4560 C   0  0  0  0  0  0  0  0  0  0  0  0
  -24.4790  -13.1670   20.8730 C   0  0  0  0  0  0  0  0  0  0  0  0
  -24.9060  -11.8080   20.7730 C   0  0  0  0  0  0  0  0  0  0  0  0
  -26.5430  -13.0350   20.1280 N   0  0  0  0  0  0  0  0  0  0  0  0
  -26.1730  -11.7530   20.3780 N   0  0  0  0  0  0  0  0  0  0  0  0
  -24.1640  -10.5550   20.9730 C   0  0  0  0  0  0  0  0  0  0  0  0
  -24.6030   -9.5750   21.8900 C   0  0  0  0  0  3  0  0  0  0  0  0
  -23.8630   -8.3880   22.0790 C   0  0  0  0  0  3  0  0  0  0  0  0
  -22.6690   -8.1720   21.3500 C   0  0  0  0  0  0  0  0  0  0  0  0
  -22.2500   -9.1410   20.4200 C   0  0  0  0  0  3  0  0  0  0  0  0
  -22.9900  -10.3190   20.2310 C   0  0  0  0  0  3  0  0  0  0  0  0
  -21.8990   -7.0390   21.4500 O   0  0  0  0  0  0  0  0  0  0  0  0
  -21.8340   -6.3130   22.6120 C   0  0  0  0  0  0  0  0  0  0  0  0
  -21.3800   -6.8820   23.8230 C   0  0  0  0  0  3  0  0  0  0  0  0
  -21.2630   -6.0820   24.9770 C   0  0  0  0  0  3  0  0  0  0  0  0
  -21.5900   -4.7140   24.9220 C   0  0  0  0  0  0  0  0  0  0  0  0
  -22.0360   -4.1440   23.7150 C   0  0  0  0  0  3  0  0  0  0  0  0
  -22.1550   -4.9420   22.5640 C   0  0  0  0  0  0  0  0  0  0  0  0
  -22.5660   -4.3840   21.3990 F   0  0  0  0  0  0  0  0  0  0  0  0
  -21.4690   -3.9420   26.0280 F   0  0  0  0  0  0  0  0  0  0  0  0
  -23.1120  -13.6640   21.2500 C   0  0  0  0  0  0  0  0  0  0  0  0
  -22.4310  -12.9660   22.1530 N   0  0  0  0  0  0  0  0  0  0  0  0
  -22.6600  -14.7070   20.7790 O   0  0  0  0  0  0  0  0  0  0  0  0
  -22.8100  -12.1240   22.5580 H   0  0  0  0  0  0  0  0  0  0  0  0
  -21.5180  -13.2850   22.4460 H   0  0  0  0  0  0  0  0  0  0  0  0
  -25.7180  -15.3000   20.3030 N   0  0  0  0  0  0  0  0  0  0  0  0
  -24.9700  -15.9630   20.4790 H   0  0  0  0  0  0  0  0  0  0  0  0
  -26.5410  -15.7290   19.9000 H   0  0  0  0  0  0  0  0  0  0  0  0
  1  2  2  0
  2  8  1  0
  2  4  1  0
  3  1  1  0
  3  6  1  0
  4  5  1  0
  6 52  1  0
  6  5  1  0
  7  3  2  0
  9  8  1  0
  9 10  1  0
 11 10  1  0
 12 23  2  0
 13 11  1  0
 13 18  1  0
 14 22  1  0
 14 24  1  0
 15 21  1  0
 15 17  1  0
 16 22  1  0
 17 16  1  0
 18 17  2  0
 19 20  1  0
 19 13  2  0
 20 15  2  0
 21 14  1  0
 22 12  1  0
 24 26  2  0
 25 24  1  0
 27 25  1  0
 28 37  2  0
 28 33  1  0
 29 25  1  0
 29 33  1  0
 30 29  1  0
 31 32  1  0
 31 30  1  0
 32 28  1  0
 33 34  2  0
 34 35  1  0
 36 35  2  0
 37 36  1  0
 38 12  1  0
 38 43  1  0
 38 39  1  0
 39 42  1  1
 39 40  1  0
 41 39  1  0
 43 46  1  0
 44 48  1  0
 44 43  1  0
 45 44  2  0
 48 47  1  0
 50 48  1  0
 50 51  1  0
 50 49  1  0
 53 61  1  0
 54 59  1  0
 55 56  1  0
 55 54  1  0
 57 56  1  0
 57 66  1  0
 57 58  1  0
 59 53  1  0
 59 58  1  0
 60 53  2  0
 61 52  1  0
 61 62  1  0
 63 64  2  0
 64 83  1  0
 65 64  1  0
 65 68  1  0
 66 67  1  0
 66 63  1  0
 67 65  2  0
 68 69  1  0
 69 70  2  0
 71 74  1  0
 71 70  1  0
 72 71  2  0
 73 72  1  0
 73 68  2  0
 74 75  1  0
 75 76  1  0
 76 77  2  0
 78 77  1  0
 78 82  1  0
 79 78  2  0
 80 75  2  0
 80 79  1  0
 81 80  1  0
 83 84  1  0
 84 87  1  0
 84 86  1  0
 85 83  2  0
 88 63  1  0
 88 89  1  0
 90 88  1  0
M  ISO  4  10 101  11 101  53 100  61 100
M  END
>  <TORSDO>  (46) 
F 20

>  <SCORE>  (46) 
-13.299

>  <name>  (46) 
46

>  <ligand_id>  (46) 
46

>  <original_smiles>  (46) 
[H]C1=C(C([H])([H])C([H])([H])C([H])([H])Oc2c([H])c([H])c3c(c2[H])C([H])([H])N(C(=O)C([H])(N([H])C(=O)C([H])(N([H])C([H])([H])[H])C([H])([H])[H])C(C([H])([H])[H])(C([H])([H])[H])C([H])([H])[H])C([H])(C(=O)N([H])C2([H])c4c([H])c([H])c([H])c([H])c4C([H])([H])C([H])([H])C2([H])[H])C3([H])[H])C([H])([H])C([H])([H])C([H])(C([H])([H])N([H])C(=O)N2C([H])([H])C([H])([H])C([H])([H])C([H])(n3nc(-c4c([H])c([H])c(Oc5c([H])c([H])c(F)c([H])c5F)c([H])c4[H])c(C(=O)N([H])[H])c3N([H])[H])C2([H])[H])C1=O

>  <smiles>  (46) 
[H]C1=C(C([H])([H])C([H])([H])C([H])([H])Oc2c([H])c([H])c3c(c2[H])C([H])([H])N(C(=O)C([H])(N([H])C(=O)C([H])(N([H])C([H])([H])[H])C([H])([H])[H])C(C([H])([H])[H])(C([H])([H])[H])C([H])([H])[H])C([H])(C(=O)N([H])C2([H])c4c([H])c([H])c([H])c([H])c4C([H])([H])C([H])([H])C2([H])[H])C3([H])[H])C([H])([H])C([H])([H])C([H])(C([H])([H])N([H])C(=O)N2C([H])([H])C([H])([H])C([H])([H])C([H])(n3nc(-c4c([H])c([H])c(Oc5c([H])c([H])c(F)c([H])c5F)c([H])c4[H])c(C(=O)N([H])[H])c3N([H])[H])C2([H])[H])C1=O

$$$$
47:0:0
     RDKit          3D

 90 99  0  0  1  0  0  0  0  0999 V2000
  -28.8260  -19.0260   20.3800 C   0  0  0  0  0  0  0  0  0  0  0  0
  -31.1310  -20.7730   19.0830 C   0  0  0  0  0  2  0  0  0  0  0  0
  -30.3150  -22.0790   19.0450 C   0  0  0  0  0  2  0  0  0  0  0  0
  -31.1770  -18.6200   20.5910 C   0  0  0  0  0  2  0  0  0  0  0  0
  -29.4240  -20.4820   20.7370 C   0  0  0  0  0  3  0  0  0  0  0  0
  -29.9060  -17.8480   20.1720 C   0  0  0  0  0  3  0  0  0  0  0  0
  -30.9070  -20.1700   20.4760 C   0  0  0  0  0  3  0  0  0  0  0  0
  -29.0550  -21.9070   19.9290 C   0  0  0  0  0  3  0  0  0  0  0  0
  -27.5860  -18.8180   20.2590 N   0  0  0  0  0  0  0  0  0  0  0  0
  -27.0440  -19.6630   20.4100 H   0  0  0  0  0  0  0  0  0  0  0  0
  -29.6750  -16.2980   20.7720 C   0  0  0  0  0  2  0  0  0  0  0  0
  -30.5070  -14.9310   20.3750 C   0  0  0  0  0  0  0  0  0  0  0  0
  -30.3920  -12.6030   19.3800 C   0  0  0  0  0  2  0  0  0  0  0  0
  -29.4630  -12.6480   18.1460 C   0  0  0  0  0  2  0  0  0  0  0  0
  -27.9920  -12.4460   18.5600 C   0  0  0  0  0  2  0  0  0  0  0  0
  -27.5970  -13.3290   19.7730 C   0  0  0  0  0  3  0  0  0  0  0  0
  -28.6490  -13.2660   20.9000 C   0  0  0  0  0  2  0  0  0  0  0  0
  -29.9410  -13.6610   20.3240 N   0  0  0  0  0  0  0  0  0  0  0  0
  -31.6860  -15.0320   20.0150 O   0  0  0  0  0  0  0  0  0  0  0  0
  -25.2090  -13.9120   20.4920 C   0  0  0  0  0  0  0  0  0  0  0  0
  -24.1420  -13.1380   20.8570 C   0  0  0  0  0  0  0  0  0  0  0  0
  -24.6080  -11.7880   20.8360 C   0  0  0  0  0  0  0  0  0  0  0  0
  -26.2540  -13.0340   20.2610 N   0  0  0  0  0  0  0  0  0  0  0  0
  -25.9020  -11.7520   20.5340 N   0  0  0  0  0  0  0  0  0  0  0  0
  -23.8800  -10.5260   21.0270 C   0  0  0  0  0  0  0  0  0  0  0  0
  -24.3100   -9.5620   21.9660 C   0  0  0  0  0  3  0  0  0  0  0  0
  -23.5840   -8.3660   22.1460 C   0  0  0  0  0  3  0  0  0  0  0  0
  -22.4110   -8.1250   21.3890 C   0  0  0  0  0  0  0  0  0  0  0  0
  -22.0030   -9.0780   20.4390 C   0  0  0  0  0  3  0  0  0  0  0  0
  -22.7300  -10.2650   20.2570 C   0  0  0  0  0  3  0  0  0  0  0  0
  -21.6570   -6.9800   21.4800 O   0  0  0  0  0  0  0  0  0  0  0  0
  -21.6070   -6.2390   22.6340 C   0  0  0  0  0  0  0  0  0  0  0  0
  -21.1750   -6.7950   23.8590 C   0  0  0  0  0  3  0  0  0  0  0  0
  -21.0730   -5.9810   25.0040 C   0  0  0  0  0  3  0  0  0  0  0  0
  -21.3900   -4.6120   24.9260 C   0  0  0  0  0  0  0  0  0  0  0  0
  -21.8100   -4.0540   23.7060 C   0  0  0  0  0  3  0  0  0  0  0  0
  -21.9160   -4.8670   22.5630 C   0  0  0  0  0  0  0  0  0  0  0  0
  -22.3030   -4.3190   21.3850 F   0  0  0  0  0  0  0  0  0  0  0  0
  -21.2820   -3.8270   26.0240 F   0  0  0  0  0  0  0  0  0  0  0  0
  -22.7420  -13.6150   21.1160 C   0  0  0  0  0  0  0  0  0  0  0  0
  -22.0070  -12.9190   21.9770 N   0  0  0  0  0  0  0  0  0  0  0  0
  -22.3090  -14.6400   20.5920 O   0  0  0  0  0  0  0  0  0  0  0  0
  -22.3700  -12.0910   22.4260 H   0  0  0  0  0  0  0  0  0  0  0  0
  -21.0670  -13.2190   22.1910 H   0  0  0  0  0  0  0  0  0  0  0  0
  -25.3730  -15.2830   20.3110 N   0  0  0  0  0  0  0  0  0  0  0  0
  -24.6080  -15.9390   20.4270 H   0  0  0  0  0  0  0  0  0  0  0  0
  -26.2320  -15.7310   20.0160 H   0  0  0  0  0  0  0  0  0  0  0  0
  -28.7140  -23.3990   20.6370 C   0  0  0  0  0  3  0  0  0  0  0  0
  -28.2960  -24.7940   19.8030 C   0  0  0  0  0  3  0  0  0  0  0  0
  -28.2700  -26.2550   20.3290 O   0  0  0  0  0  0  0  0  0  0  0  0
  -24.6060  -31.9200   23.2260 C   0  0  0  0  0  0  0  0  0  0  0  0
  -27.1830  -27.1970   20.2210 C   0  0  0  0  0  0  0  0  0  0  0  0
  -23.4030  -30.5130   21.5980 C   0  0  0  0  0  3  0  0  0  0  0  0
  -24.8460  -28.9280   20.1820 C   0  0  0  0  0  0  0  0  0  0  0  0
  -25.9540  -30.7770   21.4280 C   0  0  0  0  0  2  0  0  0  0  0  0
  -26.0240  -29.3810   20.7890 C   0  0  0  0  0  0  0  0  0  0  0  0
  -27.1880  -28.5280   20.7970 C   0  0  0  0  0  3  0  0  0  0  0  0
  -25.9790  -26.8420   19.5690 C   0  0  0  0  0  3  0  0  0  0  0  0
  -24.8370  -27.6710   19.5580 C   0  0  0  0  0  3  0  0  0  0  0  0
  -23.6170  -29.8210   20.2260 C   0  0  0  0  0  2  0  0  0  0  0  0
  -24.6750  -31.0920   22.1390 N   0  0  0  0  0  0  0  0  0  0  0  0
  -23.5200  -32.2110   23.7500 O   0  0  0  0  0  0  0  0  0  0  0  0
  -22.7230  -29.5150   22.5690 C   0  0  0  0  0  0  0  0  0  0  0  0
  -21.3930  -29.3510   22.4460 N   0  0  0  0  0  0  0  0  0  0  0  0
  -23.3930  -28.8920   23.3960 O   0  0  0  0  0  0  0  0  0  0  0  0
  -20.9100  -29.9070   21.7550 H   0  0  0  0  0  0  0  0  0  0  0  0
  -18.0050  -28.1810   22.9650 C   0  0  0  0  0  0  0  0  0  0  0  0
  -20.5670  -28.4220   23.2220 C   0  0  0  0  0  3  0  0  0  0  0  0
  -20.6540  -26.9860   22.6530 C   0  0  0  0  0  2  0  0  0  0  0  0
  -19.5460  -26.6680   21.6430 C   0  0  0  0  0  2  0  0  0  0  0  0
  -18.1680  -26.8280   22.2920 C   0  0  0  0  0  2  0  0  0  0  0  0
  -19.1310  -28.9360   23.3870 C   0  0  0  0  0  0  0  0  0  0  0  0
  -18.9240  -30.2020   23.9750 C   0  0  0  0  0  3  0  0  0  0  0  0
  -17.6230  -30.7120   24.1470 C   0  0  0  0  0  3  0  0  0  0  0  0
  -16.5120  -29.9550   23.7400 C   0  0  0  0  0  3  0  0  0  0  0  0
  -16.7030  -28.6900   23.1550 C   0  0  0  0  0  3  0  0  0  0  0  0
  -25.8840  -32.5560   23.8500 C   0  0  0  0  0  3  0  0  0  0  0  0
  -26.3930  -31.7930   25.1340 C   0  0  1  0  0  0  0  0  0  0  0  0
  -25.2950  -31.5680   26.2010 C   0  0  0  0  0  1  0  0  0  0  0  0
  -26.9740  -30.4100   24.7560 C   0  0  0  0  0  1  0  0  0  0  0  0
  -27.5440  -32.5890   25.7950 C   0  0  0  0  0  1  0  0  0  0  0  0
  -25.5740  -33.9570   24.1790 N   0  0  0  0  0  0  0  0  0  0  0  0
  -25.9060  -35.0110   23.4220 C   0  0  0  0  0  0  0  0  0  0  0  0
  -26.5730  -34.9060   22.3890 O   0  0  0  0  0  0  0  0  0  0  0  0
  -24.9810  -34.1120   24.9810 H   0  0  0  0  0  0  0  0  0  0  0  0
  -24.1820  -36.8120   23.0780 C   0  0  0  0  0  1  0  0  0  0  0  0
  -25.4260  -36.4020   23.8840 C   0  0  0  0  0  3  0  0  0  0  0  0
  -27.5650  -37.2820   24.7080 C   0  0  0  0  0  1  0  0  0  0  0  0
  -26.4600  -37.4530   23.7680 N   0  0  0  0  0  0  0  0  0  0  0  0
  -26.0570  -38.3740   23.9120 H   0  0  0  0  0  0  0  0  0  0  0  0
  3  2  1  0
  3  8  1  0
  5  1  1  0
  6  1  1  0
  6  4  1  0
  6 11  1  0
  7  2  1  0
  7  4  1  0
  7  5  1  0
  8 48  1  0
  8  5  1  0
  9  1  2  0
  9 10  1  0
 12 11  1  0
 13 18  1  0
 14 15  1  0
 14 13  1  0
 16 15  1  0
 16 23  1  0
 16 17  1  0
 18 12  1  0
 18 17  1  0
 19 12  2  0
 20 21  2  0
 21 40  1  0
 22 21  1  0
 22 25  1  0
 23 20  1  0
 23 24  1  0
 24 22  2  0
 25 26  1  0
 26 27  2  0
 28 31  1  0
 28 27  1  0
 29 28  2  0
 30 29  1  0
 30 25  2  0
 31 32  1  0
 32 33  1  0
 33 34  2  0
 35 34  1  0
 35 39  1  0
 36 35  2  0
 37 32  2  0
 37 36  1  0
 38 37  1  0
 40 41  1  0
 41 44  1  0
 41 43  1  0
 42 40  2  0
 45 46  1  0
 45 20  1  0
 47 45  1  0
 49 50  1  0
 49 48  2  0
 51 62  2  0
 52 50  1  0
 52 57  1  0
 53 61  1  0
 53 63  1  0
 54 60  1  0
 54 56  1  0
 55 61  1  0
 56 57  2  0
 56 55  1  0
 58 52  2  0
 59 58  1  0
 59 54  2  0
 60 53  1  0
 61 51  1  0
 63 65  2  0
 64 63  1  0
 66 64  1  0
 67 76  2  0
 67 72  1  0
 68 64  1  0
 68 72  1  0
 69 68  1  0
 70 71  1  0
 70 69  1  0
 71 67  1  0
 72 73  2  0
 73 74  1  0
 75 74  2  0
 76 75  1  0
 77 51  1  0
 77 82  1  0
 77 78  1  0
 78 81  1  1
 78 79  1  0
 80 78  1  0
 82 85  1  0
 83 87  1  0
 83 82  1  0
 84 83  2  0
 87 86  1  0
 89 87  1  0
 89 90  1  0
 89 88  1  0
M  ISO  4  11 100  12 100  49 101  50 101
M  END
>  <TORSDO>  (47) 
F 19

>  <SCORE>  (47) 
-14.514

>  <name>  (47) 
47

>  <ligand_id>  (47) 
47

>  <original_smiles>  (47) 
[H]N=C1C([H])(C([H])([H])C(=O)N2C([H])([H])C([H])([H])C([H])([H])C([H])(n3nc(-c4c([H])c([H])c(Oc5c([H])c([H])c(F)c([H])c5F)c([H])c4[H])c(C(=O)N([H])[H])c3N([H])[H])C2([H])[H])C([H])([H])C2([H])C([H])([H])C([H])([H])C([H])(C([H])([H])C([H])([H])Oc3c([H])c([H])c4c(c3[H])C([H])([H])N(C(=O)C([H])(N([H])C(=O)C([H])(N([H])C([H])([H])[H])C([H])([H])[H])C(C([H])([H])[H])(C([H])([H])[H])C([H])([H])[H])C([H])(C(=O)N([H])C3([H])c5c([H])c([H])c([H])c([H])c5C([H])([H])C([H])([H])C3([H])[H])C4([H])[H])C12[H]

>  <smiles>  (47) 
[H]N=C1C([H])(C([H])([H])C(=O)N2C([H])([H])C([H])([H])C([H])([H])C([H])(n3nc(-c4c([H])c([H])c(Oc5c([H])c([H])c(F)c([H])c5F)c([H])c4[H])c(C(=O)N([H])[H])c3N([H])[H])C2([H])[H])C([H])([H])C2([H])C([H])([H])C([H])([H])C([H])(C([H])([H])C([H])([H])Oc3c([H])c([H])c4c(c3[H])C([H])([H])N(C(=O)C([H])(N([H])C(=O)C([H])(N([H])C([H])([H])[H])C([H])([H])[H])C(C([H])([H])[H])(C([H])([H])[H])C([H])([H])[H])C([H])(C(=O)N([H])C3([H])c5c([H])c([H])c([H])c([H])c5C([H])([H])C([H])([H])C3([H])[H])C4([H])[H])C12[H]

$$$$
48:0:0
     RDKit          3D

 94104  0  0  1  0  0  0  0  0999 V2000
  -31.4650  -21.3760   17.6180 C   0  0  0  0  0  3  0  0  0  0  0  0
  -31.4510  -22.7380   17.8790 C   0  0  0  0  0  3  0  0  0  0  0  0
  -30.7790  -20.5150   18.4720 C   0  0  0  0  0  3  0  0  0  0  0  0
  -30.7020  -23.2580   18.9460 C   0  0  0  0  0  0  0  0  0  0  0  0
  -29.9910  -20.9280   19.5810 C   0  0  0  0  0  0  0  0  0  0  0  0
  -29.8420  -22.4340   19.7510 C   0  0  0  0  0  0  0  0  0  0  0  0
  -30.6340  -14.9480   20.4520 C   0  0  0  0  0  0  0  0  0  0  0  0
  -30.4300  -12.6240   19.4840 C   0  0  0  0  0  2  0  0  0  0  0  0
  -29.5310  -12.5870   18.2300 C   0  0  0  0  0  2  0  0  0  0  0  0
  -28.0620  -12.3790   18.6350 C   0  0  0  0  0  2  0  0  0  0  0  0
  -27.6300  -13.3140   19.7940 C   0  0  0  0  0  3  0  0  0  0  0  0
  -28.6620  -13.3640   20.9420 C   0  0  0  0  0  2  0  0  0  0  0  0
  -29.9490  -13.7400   20.3460 N   0  0  0  0  0  0  0  0  0  0  0  0
  -31.8530  -14.9080   20.2570 O   0  0  0  0  0  0  0  0  0  0  0  0
  -28.8850  -18.3830   19.5510 C   0  0  0  0  0  2  0  0  0  0  0  0
  -30.7880  -18.7730   21.0040 C   0  0  0  0  0  2  0  0  0  0  0  0
  -28.8110  -16.8550   20.0830 C   0  0  0  0  0  2  0  0  0  0  0  0
  -30.6220  -17.2820   21.5670 C   0  0  0  0  0  2  0  0  0  0  0  0
  -29.5530  -19.5700   20.3990 C   0  0  0  0  0  3  0  0  0  0  0  0
  -30.0200  -16.2130   20.7010 N   0  0  0  0  0  0  0  0  0  0  0  0
  -25.2340  -13.8990   20.4650 C   0  0  0  0  0  0  0  0  0  0  0  0
  -24.1620  -13.1260   20.8150 C   0  0  0  0  0  0  0  0  0  0  0  0
  -24.6330  -11.7770   20.8210 C   0  0  0  0  0  0  0  0  0  0  0  0
  -26.2850  -13.0200   20.2700 N   0  0  0  0  0  0  0  0  0  0  0  0
  -25.9330  -11.7400   20.5520 N   0  0  0  0  0  0  0  0  0  0  0  0
  -23.9080  -10.5140   21.0070 C   0  0  0  0  0  0  0  0  0  0  0  0
  -24.3020   -9.5720   21.9810 C   0  0  0  0  0  3  0  0  0  0  0  0
  -23.5740   -8.3740   22.1550 C   0  0  0  0  0  3  0  0  0  0  0  0
  -22.4380   -8.1120   21.3530 C   0  0  0  0  0  0  0  0  0  0  0  0
  -22.0630   -9.0440   20.3690 C   0  0  0  0  0  3  0  0  0  0  0  0
  -22.7910  -10.2320   20.1930 C   0  0  0  0  0  3  0  0  0  0  0  0
  -21.6850   -6.9660   21.4340 O   0  0  0  0  0  0  0  0  0  0  0  0
  -21.5820   -6.2540   22.6020 C   0  0  0  0  0  0  0  0  0  0  0  0
  -21.0760   -6.8340   23.7870 C   0  0  0  0  0  3  0  0  0  0  0  0
  -20.9230   -6.0470   24.9460 C   0  0  0  0  0  3  0  0  0  0  0  0
  -21.2640   -4.6820   24.9210 C   0  0  0  0  0  0  0  0  0  0  0  0
  -21.7630   -4.1020   23.7410 C   0  0  0  0  0  3  0  0  0  0  0  0
  -21.9180   -4.8860   22.5850 C   0  0  0  0  0  0  0  0  0  0  0  0
  -22.3790   -4.3170   21.4440 F   0  0  0  0  0  0  0  0  0  0  0  0
  -21.1100   -3.9230   26.0310 F   0  0  0  0  0  0  0  0  0  0  0  0
  -22.7560  -13.6010   21.0320 C   0  0  0  0  0  0  0  0  0  0  0  0
  -22.0000  -12.9110   21.8790 N   0  0  0  0  0  0  0  0  0  0  0  0
  -22.3340  -14.6210   20.4880 O   0  0  0  0  0  0  0  0  0  0  0  0
  -22.3530  -12.0860   22.3400 H   0  0  0  0  0  0  0  0  0  0  0  0
  -21.0550  -13.2110   22.0690 H   0  0  0  0  0  0  0  0  0  0  0  0
  -25.3960  -15.2680   20.2690 N   0  0  0  0  0  0  0  0  0  0  0  0
  -24.6230  -15.9190   20.3470 H   0  0  0  0  0  0  0  0  0  0  0  0
  -26.2540  -15.7040   19.9620 H   0  0  0  0  0  0  0  0  0  0  0  0
  -32.3240  -25.3220   19.1230 C   0  0  0  0  0  2  0  0  0  0  0  0
  -31.5930  -25.2490   20.4360 C   0  0  0  0  0  2  0  0  0  0  0  0
  -30.9260  -24.7330   19.1770 C   0  0  0  0  0  3  0  0  0  0  0  0
  -28.9140  -23.3480   20.7140 C   0  0  0  0  0  2  0  0  0  0  0  0
  -28.0810  -24.7320   20.2250 C   0  0  0  0  0  2  0  0  0  0  0  0
  -28.3730  -26.2440   20.4010 O   0  0  0  0  0  0  0  0  0  0  0  0
  -24.6660  -31.8980   23.2740 C   0  0  0  0  0  0  0  0  0  0  0  0
  -27.3130  -27.2110   20.2990 C   0  0  0  0  0  0  0  0  0  0  0  0
  -23.4940  -30.4800   21.6360 C   0  0  0  0  0  3  0  0  0  0  0  0
  -24.9690  -28.9180   20.2320 C   0  0  0  0  0  0  0  0  0  0  0  0
  -26.0450  -30.7750   21.4900 C   0  0  0  0  0  2  0  0  0  0  0  0
  -26.1360  -29.3830   20.8480 C   0  0  0  0  0  0  0  0  0  0  0  0
  -27.3110  -28.5440   20.8680 C   0  0  0  0  0  3  0  0  0  0  0  0
  -26.1220  -26.8490   19.6290 C   0  0  0  0  0  3  0  0  0  0  0  0
  -24.9730  -27.6650   19.6050 C   0  0  0  0  0  3  0  0  0  0  0  0
  -23.7310  -29.8000   20.2630 C   0  0  0  0  0  2  0  0  0  0  0  0
  -24.7540  -31.0730   22.1880 N   0  0  0  0  0  0  0  0  0  0  0  0
  -23.5740  -32.1760   23.7910 O   0  0  0  0  0  0  0  0  0  0  0  0
  -22.8190  -29.4700   22.5980 C   0  0  0  0  0  0  0  0  0  0  0  0
  -21.4940  -29.2840   22.4600 N   0  0  0  0  0  0  0  0  0  0  0  0
  -23.4890  -28.8580   23.4330 O   0  0  0  0  0  0  0  0  0  0  0  0
  -21.0100  -29.8300   21.7610 H   0  0  0  0  0  0  0  0  0  0  0  0
  -18.1200  -28.0560   22.9380 C   0  0  0  0  0  0  0  0  0  0  0  0
  -20.6730  -28.3480   23.2320 C   0  0  0  0  0  3  0  0  0  0  0  0
  -20.7960  -26.9100   22.6750 C   0  0  0  0  0  2  0  0  0  0  0  0
  -19.7110  -26.5650   21.6520 C   0  0  0  0  0  2  0  0  0  0  0  0
  -18.3190  -26.7020   22.2770 C   0  0  0  0  0  2  0  0  0  0  0  0
  -19.2260  -28.8350   23.3710 C   0  0  0  0  0  0  0  0  0  0  0  0
  -18.9850  -30.1010   23.9490 C   0  0  0  0  0  3  0  0  0  0  0  0
  -17.6720  -30.5880   24.0970 C   0  0  0  0  0  3  0  0  0  0  0  0
  -16.5810  -29.8060   23.6790 C   0  0  0  0  0  3  0  0  0  0  0  0
  -16.8070  -28.5420   23.1040 C   0  0  0  0  0  3  0  0  0  0  0  0
  -25.9330  -32.5510   23.9060 C   0  0  0  0  0  3  0  0  0  0  0  0
  -26.4220  -31.8130   25.2140 C   0  0  1  0  0  0  0  0  0  0  0  0
  -25.3070  -31.6020   26.2640 C   0  0  0  0  0  1  0  0  0  0  0  0
  -27.0140  -30.4250   24.8750 C   0  0  0  0  0  1  0  0  0  0  0  0
  -27.5600  -32.6240   25.8780 C   0  0  0  0  0  1  0  0  0  0  0  0
  -25.6140  -33.9560   24.1990 N   0  0  0  0  0  0  0  0  0  0  0  0
  -25.9610  -34.9950   23.4280 C   0  0  0  0  0  0  0  0  0  0  0  0
  -26.6510  -34.8710   22.4120 O   0  0  0  0  0  0  0  0  0  0  0  0
  -25.0020  -34.1250   24.9840 H   0  0  0  0  0  0  0  0  0  0  0  0
  -24.2490  -36.7910   22.9980 C   0  0  0  0  0  1  0  0  0  0  0  0
  -25.4670  -36.3940   23.8490 C   0  0  0  0  0  3  0  0  0  0  0  0
  -27.5800  -37.2900   24.7230 C   0  0  0  0  0  1  0  0  0  0  0  0
  -26.5060  -37.4420   23.7450 N   0  0  0  0  0  0  0  0  0  0  0  0
  -26.1000  -38.3660   23.8610 H   0  0  0  0  0  0  0  0  0  0  0  0
  1  2  2  0
  1  3  1  0
  2  4  1  0
  3  5  2  0
  4 51  1  0
  4  6  2  0
  5  6  1  0
  6 52  1  0
  7 20  1  0
  8 13  1  0
  9 10  1  0
  9  8  1  0
 11 10  1  0
 11 24  1  0
 11 12  1  0
 13  7  1  0
 13 12  1  0
 14  7  2  0
 15 17  1  0
 15 19  1  0
 16 18  1  0
 17 20  1  0
 19  5  1  0
 19 16  1  0
 20 18  1  0
 21 22  2  0
 22 23  1  0
 22 41  1  0
 23 26  1  0
 24 21  1  0
 24 25  1  0
 25 23  2  0
 26 27  1  0
 27 28  2  0
 29 32  1  0
 29 28  1  0
 30 29  2  0
 31 30  1  0
 31 26  2  0
 32 33  1  0
 33 34  1  0
 34 35  2  0
 36 35  1  0
 36 40  1  0
 37 36  2  0
 38 33  2  0
 38 37  1  0
 39 38  1  0
 41 42  1  0
 42 45  1  0
 42 44  1  0
 43 41  2  0
 46 47  1  0
 46 21  1  0
 48 46  1  0
 49 51  1  0
 49 50  1  0
 51 50  1  0
 53 54  1  0
 53 52  1  0
 55 66  2  0
 56 54  1  0
 56 61  1  0
 57 65  1  0
 57 67  1  0
 58 64  1  0
 58 60  1  0
 59 65  1  0
 60 61  2  0
 60 59  1  0
 62 56  2  0
 63 62  1  0
 63 58  2  0
 64 57  1  0
 65 55  1  0
 67 69  2  0
 68 67  1  0
 70 68  1  0
 71 80  2  0
 71 76  1  0
 72 68  1  0
 72 76  1  0
 73 72  1  0
 74 75  1  0
 74 73  1  0
 75 71  1  0
 76 77  2  0
 77 78  1  0
 79 78  2  0
 80 79  1  0
 81 55  1  0
 81 86  1  0
 81 82  1  0
 82 85  1  1
 82 83  1  0
 84 82  1  0
 86 89  1  0
 87 91  1  0
 87 86  1  0
 88 87  2  0
 91 90  1  0
 93 91  1  0
 93 94  1  0
 93 92  1  0
M  ISO  4   7 100  20 100  53 101  54 101
M  END
>  <TORSDO>  (48) 
F 19

>  <SCORE>  (48) 
-14.369

>  <name>  (48) 
48

>  <ligand_id>  (48) 
48

>  <original_smiles>  (48) 
[H]c1c([H])c([H])c2c(c1[H])C([H])([H])C([H])([H])C([H])([H])C2([H])N([H])C(=O)C1([H])N(C(=O)C([H])(N([H])C(=O)C([H])(N([H])C([H])([H])[H])C([H])([H])[H])C(C([H])([H])[H])(C([H])([H])[H])C([H])([H])[H])C([H])([H])c2c([H])c(OC([H])([H])C([H])([H])c3c(C4([H])C([H])([H])C([H])([H])N(C(=O)N5C([H])([H])C([H])([H])C([H])([H])C([H])(n6nc(-c7c([H])c([H])c(Oc8c([H])c([H])c(F)c([H])c8F)c([H])c7[H])c(C(=O)N([H])[H])c6N([H])[H])C5([H])[H])C([H])([H])C4([H])[H])c([H])c([H])c([H])c3C3([H])C([H])([H])C3([H])[H])c([H])c([H])c2C1([H])[H]

>  <smiles>  (48) 
[H]c1c([H])c([H])c2c(c1[H])C([H])([H])C([H])([H])C([H])([H])C2([H])N([H])C(=O)C1([H])N(C(=O)C([H])(N([H])C(=O)C([H])(N([H])C([H])([H])[H])C([H])([H])[H])C(C([H])([H])[H])(C([H])([H])[H])C([H])([H])[H])C([H])([H])c2c([H])c(OC([H])([H])C([H])([H])c3c(C4([H])C([H])([H])C([H])([H])N(C(=O)N5C([H])([H])C([H])([H])C([H])([H])C([H])(n6nc(-c7c([H])c([H])c(Oc8c([H])c([H])c(F)c([H])c8F)c([H])c7[H])c(C(=O)N([H])[H])c6N([H])[H])C5([H])[H])C([H])([H])C4([H])[H])c([H])c([H])c([H])c3C3([H])C([H])([H])C3([H])[H])c([H])c([H])c2C1([H])[H]

$$$$
49:0:0
     RDKit          3D

 96105  0  0  1  0  0  0  0  0999 V2000
  -27.1190  -19.6940   18.8920 C   0  0  0  0  0  2  0  0  0  0  0  0
  -30.1020  -20.8550   20.1620 C   0  0  0  0  0  2  0  0  0  0  0  0
  -27.9630  -19.8080   20.1710 C   0  0  0  0  0  3  0  0  0  0  0  0
  -27.8010  -21.3660   19.9930 C   0  0  0  0  0  3  0  0  0  0  0  0
  -29.4450  -19.3530   20.1360 C   0  0  0  0  0  3  0  0  0  0  0  0
  -29.1270  -21.9920   19.5010 C   0  0  0  0  0  3  0  0  0  0  0  0
  -26.5610  -21.1250   19.0850 C   0  0  1  0  0  0  0  0  0  0  0  0
  -25.4240  -21.4720   16.7650 C   0  0  0  0  0  1  0  0  0  0  0  0
  -26.4550  -21.9720   17.7920 C   0  0  0  0  0  2  0  0  0  0  0  0
  -29.3540  -23.6690   19.6340 C   0  0  0  0  0  3  0  0  0  0  0  0
  -28.3400  -24.9050   19.1000 C   0  0  0  0  0  3  0  0  0  0  0  0
  -28.5320  -26.4420   19.2680 O   0  0  0  0  0  0  0  0  0  0  0  0
  -24.6430  -31.5720   22.8370 C   0  0  0  0  0  0  0  0  0  0  0  0
  -27.4220  -27.3620   19.3010 C   0  0  0  0  0  0  0  0  0  0  0  0
  -23.4950  -30.2930   21.0690 C   0  0  0  0  0  3  0  0  0  0  0  0
  -25.0000  -28.9650   19.4660 C   0  0  0  0  0  0  0  0  0  0  0  0
  -26.0250  -30.7240   20.9020 C   0  0  0  0  0  2  0  0  0  0  0  0
  -26.1640  -29.4110   20.1090 C   0  0  0  0  0  0  0  0  0  0  0  0
  -27.3710  -28.6270   20.0120 C   0  0  0  0  0  3  0  0  0  0  0  0
  -26.2300  -27.0210   18.6210 C   0  0  0  0  0  3  0  0  0  0  0  0
  -25.0450  -27.7860   18.7070 C   0  0  0  0  0  3  0  0  0  0  0  0
  -23.7300  -29.7850   19.6220 C   0  0  0  0  0  2  0  0  0  0  0  0
  -24.7420  -30.8800   21.6610 N   0  0  0  0  0  0  0  0  0  0  0  0
  -23.5540  -31.7330   23.4060 O   0  0  0  0  0  0  0  0  0  0  0  0
  -22.8900  -29.1510   21.9270 C   0  0  0  0  0  0  0  0  0  0  0  0
  -21.5690  -28.9240   21.8060 N   0  0  0  0  0  0  0  0  0  0  0  0
  -23.6100  -28.4790   22.6690 O   0  0  0  0  0  0  0  0  0  0  0  0
  -21.0390  -29.5300   21.1960 H   0  0  0  0  0  0  0  0  0  0  0  0
  -18.2640  -27.4960   22.2290 C   0  0  0  0  0  0  0  0  0  0  0  0
  -20.8130  -27.8690   22.4860 C   0  0  0  0  0  3  0  0  0  0  0  0
  -20.9790  -26.5130   21.7640 C   0  0  0  0  0  2  0  0  0  0  0  0
  -19.8750  -26.2360   20.7380 C   0  0  0  0  0  2  0  0  0  0  0  0
  -18.4990  -26.2390   21.4090 C   0  0  0  0  0  2  0  0  0  0  0  0
  -19.3500  -28.2690   22.7200 C   0  0  0  0  0  0  0  0  0  0  0  0
  -19.0740  -29.4490   23.4460 C   0  0  0  0  0  3  0  0  0  0  0  0
  -17.7460  -29.8540   23.6850 C   0  0  0  0  0  3  0  0  0  0  0  0
  -16.6770  -29.0800   23.2070 C   0  0  0  0  0  3  0  0  0  0  0  0
  -16.9370  -27.9010   22.4850 C   0  0  0  0  0  3  0  0  0  0  0  0
  -25.8950  -32.2110   23.5130 C   0  0  0  0  0  3  0  0  0  0  0  0
  -25.5050  -33.5330   24.0250 N   0  0  0  0  0  0  0  0  0  0  0  0
  -25.7590  -34.6970   23.4120 C   0  0  0  0  0  0  0  0  0  0  0  0
  -26.4160  -34.7730   22.3700 O   0  0  0  0  0  0  0  0  0  0  0  0
  -24.9280  -33.5460   24.8530 H   0  0  0  0  0  0  0  0  0  0  0  0
  -23.9110  -36.4020   23.3160 C   0  0  0  0  0  1  0  0  0  0  0  0
  -25.1910  -35.9790   24.0550 C   0  0  0  0  0  3  0  0  0  0  0  0
  -27.2880  -36.8760   24.9610 C   0  0  0  0  0  1  0  0  0  0  0  0
  -26.1490  -37.1060   24.0770 N   0  0  0  0  0  0  0  0  0  0  0  0
  -25.6860  -37.9610   24.3730 H   0  0  0  0  0  0  0  0  0  0  0  0
  -26.4900  -31.3260   24.6760 C   0  0  1  0  0  0  0  0  0  0  0  0
  -25.4460  -30.8960   25.7330 C   0  0  0  0  0  1  0  0  0  0  0  0
  -27.1430  -30.0460   24.1080 C   0  0  0  0  0  1  0  0  0  0  0  0
  -27.6120  -32.1030   25.4040 C   0  0  0  0  0  1  0  0  0  0  0  0
  -29.9890  -18.0830   21.1170 C   0  0  0  0  0  2  0  0  0  0  0  0
  -30.5590  -15.3880   21.0630 C   0  0  0  0  0  0  0  0  0  0  0  0
  -30.6720  -12.9660   20.3220 C   0  0  0  0  0  2  0  0  0  0  0  0
  -29.9060  -12.7480   18.9970 C   0  0  0  0  0  2  0  0  0  0  0  0
  -28.4130  -12.4890   19.2740 C   0  0  0  0  0  2  0  0  0  0  0  0
  -27.8130  -13.5010   20.2840 C   0  0  0  0  0  3  0  0  0  0  0  0
  -28.7120  -13.6800   21.5260 C   0  0  0  0  0  2  0  0  0  0  0  0
  -30.0280  -14.1030   21.0370 N   0  0  0  0  0  0  0  0  0  0  0  0
  -31.7860  -15.4950   20.9800 O   0  0  0  0  0  0  0  0  0  0  0  0
  -29.7150  -16.5320   20.9830 N   0  0  0  0  0  0  0  0  0  0  0  0
  -28.7350  -16.2940   20.9450 H   0  0  0  0  0  0  0  0  0  0  0  0
  -25.3540  -14.0270   20.7650 C   0  0  0  0  0  0  0  0  0  0  0  0
  -24.2760  -13.2260   21.0170 C   0  0  0  0  0  0  0  0  0  0  0  0
  -24.7710  -11.8860   21.0330 C   0  0  0  0  0  0  0  0  0  0  0  0
  -26.4370  -13.1730   20.6380 N   0  0  0  0  0  0  0  0  0  0  0  0
  -26.0880  -11.8820   20.8670 N   0  0  0  0  0  0  0  0  0  0  0  0
  -24.0590  -10.6060   21.1380 C   0  0  0  0  0  0  0  0  0  0  0  0
  -24.4440   -9.6190   22.0700 C   0  0  0  0  0  3  0  0  0  0  0  0
  -23.7280   -8.4050   22.1630 C   0  0  0  0  0  3  0  0  0  0  0  0
  -22.6150   -8.1700   21.3210 C   0  0  0  0  0  0  0  0  0  0  0  0
  -22.2520   -9.1470   20.3770 C   0  0  0  0  0  3  0  0  0  0  0  0
  -22.9690  -10.3520   20.2820 C   0  0  0  0  0  3  0  0  0  0  0  0
  -21.8770   -7.0120   21.3240 O   0  0  0  0  0  0  0  0  0  0  0  0
  -21.8030   -6.2070   22.4340 C   0  0  0  0  0  0  0  0  0  0  0  0
  -21.3480   -6.6930   23.6780 C   0  0  0  0  0  3  0  0  0  0  0  0
  -21.2260   -5.8160   24.7740 C   0  0  0  0  0  3  0  0  0  0  0  0
  -21.5480   -4.4530   24.6260 C   0  0  0  0  0  0  0  0  0  0  0  0
  -21.9970   -3.9660   23.3850 C   0  0  0  0  0  3  0  0  0  0  0  0
  -22.1220   -4.8410   22.2910 C   0  0  0  0  0  0  0  0  0  0  0  0
  -22.5340   -4.3630   21.0930 F   0  0  0  0  0  0  0  0  0  0  0  0
  -21.4240   -3.6080   25.6740 F   0  0  0  0  0  0  0  0  0  0  0  0
  -22.8470  -13.6680   21.1370 C   0  0  0  0  0  0  0  0  0  0  0  0
  -22.0490  -12.9540   21.9220 N   0  0  0  0  0  0  0  0  0  0  0  0
  -22.4430  -14.6800   20.5660 O   0  0  0  0  0  0  0  0  0  0  0  0
  -22.3870  -12.1320   22.4010 H   0  0  0  0  0  0  0  0  0  0  0  0
  -21.0860  -13.2310   22.0460 H   0  0  0  0  0  0  0  0  0  0  0  0
  -25.5020  -15.4020   20.6080 N   0  0  0  0  0  0  0  0  0  0  0  0
  -24.7070  -16.0310   20.6210 H   0  0  0  0  0  0  0  0  0  0  0  0
  -26.3630  -15.8660   20.3540 H   0  0  0  0  0  0  0  0  0  0  0  0
  -25.2000  -21.1680   19.8270 C   0  0  0  0  0  2  0  0  0  0  0  0
  -24.7090  -22.5380   20.0640 N   0  0  0  0  0  4  0  0  0  0  0  0
  -25.2870  -23.0090   20.7370 H   0  0  0  0  0  0  0  0  0  0  0  0
  -23.7700  -22.5060   20.4220 H   0  0  0  0  0  0  0  0  0  0  0  0
  -24.6970  -23.0660   19.2090 H   0  0  0  0  0  0  0  0  0  0  0  0
  1  7  1  0
  3  1  1  0
  4  3  1  0
  5  2  1  0
  5  3  1  0
  5 53  1  0
  6 10  1  0
  6  4  1  0
  6  2  1  0
  7 92  1  1
  7  4  1  0
  8  9  1  0
  9  7  1  0
 11 12  1  0
 11 10  2  0
 12 14  1  0
 13 24  2  0
 13 39  1  0
 14 19  1  0
 15 23  1  0
 15 25  1  0
 16 22  1  0
 16 18  1  0
 17 23  1  0
 18 17  1  0
 19 18  2  0
 20 21  1  0
 20 14  2  0
 21 16  2  0
 22 15  1  0
 23 13  1  0
 25 27  2  0
 26 25  1  0
 26 30  1  0
 28 26  1  0
 29 38  2  0
 29 34  1  0
 30 34  1  0
 31 30  1  0
 32 33  1  0
 32 31  1  0
 33 29  1  0
 34 35  2  0
 35 36  1  0
 37 36  2  0
 38 37  1  0
 39 40  1  0
 39 49  1  0
 40 43  1  0
 41 40  1  0
 41 45  1  0
 42 41  2  0
 44 45  1  0
 45 47  1  0
 47 48  1  0
 47 46  1  0
 49 52  1  1
 49 50  1  0
 51 49  1  0
 55 60  1  0
 56 57  1  0
 56 55  1  0
 57 58  1  0
 58 67  1  0
 58 59  1  0
 60 54  1  0
 60 59  1  0
 61 54  2  0
 62 54  1  0
 62 53  1  0
 63 62  1  0
 64 65  2  0
 65 66  1  0
 65 84  1  0
 66 69  1  0
 67 64  1  0
 67 68  1  0
 68 66  2  0
 69 70  1  0
 70 71  2  0
 72 75  1  0
 72 71  1  0
 73 72  2  0
 74 73  1  0
 74 69  2  0
 75 76  1  0
 76 77  1  0
 77 78  2  0
 79 78  1  0
 79 83  1  0
 80 79  2  0
 81 76  2  0
 81 80  1  0
 82 81  1  0
 84 85  1  0
 85 88  1  0
 85 87  1  0
 86 84  2  0
 89 90  1  0
 89 64  1  0
 91 89  1  0
 92 93  1  0
 93 95  1  0
 93 94  1  0
 96 93  1  0
M  ISO  4  11 101  12 101  54 100  62 100
M  END
>  <TORSDO>  (49) 
F 22

>  <SCORE>  (49) 
-10.256

>  <name>  (49) 
49

>  <ligand_id>  (49) 
49

>  <original_smiles>  (49) 
[H]c1c([H])c([H])c2c(c1[H])C([H])([H])C([H])([H])C([H])([H])C2([H])N([H])C(=O)C1([H])N(C(=O)C([H])(N([H])C(=O)C([H])(N([H])C([H])([H])[H])C([H])([H])[H])C(C([H])([H])[H])(C([H])([H])[H])C([H])([H])[H])C([H])([H])c2c([H])c(OC([H])([H])C([H])([H])C3([H])C([H])([H])C([H])(C([H])([H])N([H])C(=O)N4C([H])([H])C([H])([H])C([H])([H])C([H])(n5nc(-c6c([H])c([H])c(Oc7c([H])c([H])c(F)c([H])c7F)c([H])c6[H])c(C(=O)N([H])[H])c5N([H])[H])C4([H])[H])C4([H])C([H])([H])C(C([H])([H])C([H])([H])[H])(C([H])([H])[N+]([H])([H])[H])C34[H])c([H])c([H])c2C1([H])[H]

>  <smiles>  (49) 
[H]c1c([H])c([H])c2c(c1[H])C([H])([H])C([H])([H])C([H])([H])C2([H])N([H])C(=O)C1([H])N(C(=O)C([H])(N([H])C(=O)C([H])(N([H])C([H])([H])[H])C([H])([H])[H])C(C([H])([H])[H])(C([H])([H])[H])C([H])([H])[H])C([H])([H])c2c([H])c(OC([H])([H])C([H])([H])C3([H])C([H])([H])C([H])(C([H])([H])N([H])C(=O)N4C([H])([H])C([H])([H])C([H])([H])C([H])(n5nc(-c6c([H])c([H])c(Oc7c([H])c([H])c(F)c([H])c7F)c([H])c6[H])c(C(=O)N([H])[H])c5N([H])[H])C4([H])[H])C4([H])C([H])([H])C(C([H])([H])C([H])([H])[H])(C([H])([H])[N+]([H])([H])[H])C34[H])c([H])c([H])c2C1([H])[H]

$$$$
50:0:0
     RDKit          3D

 92100  0  0  1  0  0  0  0  0999 V2000
  -27.4990  -23.4120   19.4560 C   0  0  0  0  0  2  0  0  0  0  0  0
  -29.4430  -22.8840   20.7070 C   0  0  0  0  0  2  0  0  0  0  0  0
  -28.0030  -21.9550   19.1490 C   0  0  0  0  0  3  0  0  0  0  0  0
  -28.3850  -24.0830   20.5540 C   0  0  2  0  0  0  0  0  0  0  0  0
  -28.8090  -21.4580   20.3770 C   0  0  2  0  0  0  0  0  0  0  0  0
  -26.8920  -21.0090   18.6600 C   0  0  0  0  0  1  0  0  0  0  0  0
  -27.8780  -21.0030   21.5270 C   0  0  0  0  0  1  0  0  0  0  0  0
  -26.2270  -24.6240   22.0700 C   0  0  0  0  0  1  0  0  0  0  0  0
  -27.7200  -24.2700   21.9680 C   0  0  0  0  0  2  0  0  0  0  0  0
  -29.8560  -20.2470   20.0940 C   0  0  0  0  0  2  0  0  0  0  0  0
  -29.4410  -18.6830   20.1740 C   0  0  0  0  0  3  0  0  0  0  0  0
  -30.5690  -17.5380   20.0880 C   0  0  0  0  0  3  0  0  0  0  0  0
  -30.9260  -14.9550   19.9890 C   0  0  0  0  0  0  0  0  0  0  0  0
  -30.7250  -12.6350   19.0940 C   0  0  0  0  0  2  0  0  0  0  0  0
  -29.7460  -12.6100   17.9010 C   0  0  0  0  0  2  0  0  0  0  0  0
  -28.2890  -12.4600   18.3800 C   0  0  0  0  0  2  0  0  0  0  0  0
  -27.9420  -13.4250   19.5470 C   0  0  0  0  0  3  0  0  0  0  0  0
  -29.0280  -13.4070   20.6430 C   0  0  0  0  0  2  0  0  0  0  0  0
  -30.3070  -13.7300   20.0000 N   0  0  0  0  0  0  0  0  0  0  0  0
  -32.0870  -15.0630   19.5810 O   0  0  0  0  0  0  0  0  0  0  0  0
  -30.1650  -16.0780   20.2460 N   0  0  0  0  0  0  0  0  0  0  0  0
  -29.2190  -15.9040   20.5540 H   0  0  0  0  0  0  0  0  0  0  0  0
  -25.6060  -14.0580   20.3910 C   0  0  0  0  0  0  0  0  0  0  0  0
  -24.5350  -13.3050   20.7870 C   0  0  0  0  0  0  0  0  0  0  0  0
  -24.9590  -11.9430   20.7000 C   0  0  0  0  0  0  0  0  0  0  0  0
  -26.6130  -13.1590   20.0870 N   0  0  0  0  0  0  0  0  0  0  0  0
  -26.2340  -11.8780   20.3360 N   0  0  0  0  0  0  0  0  0  0  0  0
  -24.2060  -10.6970   20.8890 C   0  0  0  0  0  0  0  0  0  0  0  0
  -24.5910   -9.7460   21.8580 C   0  0  0  0  0  3  0  0  0  0  0  0
  -23.8440   -8.5610   22.0350 C   0  0  0  0  0  3  0  0  0  0  0  0
  -22.6960   -8.3220   21.2440 C   0  0  0  0  0  0  0  0  0  0  0  0
  -22.3300   -9.2620   20.2650 C   0  0  0  0  0  3  0  0  0  0  0  0
  -23.0750  -10.4380   20.0870 C   0  0  0  0  0  3  0  0  0  0  0  0
  -21.9210   -7.1920   21.3310 O   0  0  0  0  0  0  0  0  0  0  0  0
  -21.7330   -6.5360   22.5210 C   0  0  0  0  0  0  0  0  0  0  0  0
  -21.1370   -7.1660   23.6350 C   0  0  0  0  0  3  0  0  0  0  0  0
  -20.9030   -6.4340   24.8160 C   0  0  0  0  0  3  0  0  0  0  0  0
  -21.2520   -5.0710   24.8820 C   0  0  0  0  0  0  0  0  0  0  0  0
  -21.8390   -4.4410   23.7710 C   0  0  0  0  0  3  0  0  0  0  0  0
  -22.0770   -5.1700   22.5930 C   0  0  0  0  0  0  0  0  0  0  0  0
  -22.6250   -4.5520   21.5190 F   0  0  0  0  0  0  0  0  0  0  0  0
  -21.0190   -4.3660   26.0130 F   0  0  0  0  0  0  0  0  0  0  0  0
  -23.1650  -13.8120   21.1290 C   0  0  0  0  0  0  0  0  0  0  0  0
  -22.4580  -13.1170   22.0130 N   0  0  0  0  0  0  0  0  0  0  0  0
  -22.7330  -14.8580   20.6460 O   0  0  0  0  0  0  0  0  0  0  0  0
  -22.8210  -12.2710   22.4270 H   0  0  0  0  0  0  0  0  0  0  0  0
  -21.5350  -13.4340   22.2790 H   0  0  0  0  0  0  0  0  0  0  0  0
  -25.8010  -15.4290   20.2380 N   0  0  0  0  0  0  0  0  0  0  0  0
  -25.0530  -16.0960   20.3850 H   0  0  0  0  0  0  0  0  0  0  0  0
  -26.6410  -15.8530   19.8680 H   0  0  0  0  0  0  0  0  0  0  0  0
  -29.0650  -25.5080   20.1680 C   0  0  0  0  0  2  0  0  0  0  0  0
  -28.5540  -26.7350   19.4920 O   0  0  0  0  0  0  0  0  0  0  0  0
  -24.5670  -31.6860   23.0460 C   0  0  0  0  0  0  0  0  0  0  0  0
  -27.3680  -27.4390   19.7300 C   0  0  0  0  0  0  0  0  0  0  0  0
  -23.4140  -30.3230   21.3390 C   0  0  0  0  0  3  0  0  0  0  0  0
  -24.9250  -28.9250   19.8210 C   0  0  0  0  0  0  0  0  0  0  0  0
  -25.9290  -30.7890   21.1400 C   0  0  0  0  0  2  0  0  0  0  0  0
  -26.0750  -29.4470   20.4280 C   0  0  0  0  0  0  0  0  0  0  0  0
  -27.3040  -28.7200   20.3650 C   0  0  0  0  0  3  0  0  0  0  0  0
  -26.2010  -26.9710   19.0990 C   0  0  0  0  0  3  0  0  0  0  0  0
  -24.9890  -27.6910   19.1500 C   0  0  0  0  0  3  0  0  0  0  0  0
  -23.6460  -29.7340   19.9210 C   0  0  0  0  0  2  0  0  0  0  0  0
  -24.6560  -30.9470   21.9000 N   0  0  0  0  0  0  0  0  0  0  0  0
  -23.4810  -31.8700   23.6110 O   0  0  0  0  0  0  0  0  0  0  0  0
  -22.8260  -29.2180   22.2470 C   0  0  0  0  0  0  0  0  0  0  0  0
  -21.5070  -28.9860   22.1430 N   0  0  0  0  0  0  0  0  0  0  0  0
  -23.5550  -28.5740   23.0060 O   0  0  0  0  0  0  0  0  0  0  0  0
  -20.9690  -29.5730   21.5210 H   0  0  0  0  0  0  0  0  0  0  0  0
  -18.2070  -27.5960   22.6490 C   0  0  0  0  0  0  0  0  0  0  0  0
  -20.7570  -27.9560   22.8630 C   0  0  0  0  0  3  0  0  0  0  0  0
  -20.9080  -26.5770   22.1760 C   0  0  0  0  0  2  0  0  0  0  0  0
  -19.7840  -26.2700   21.1820 C   0  0  0  0  0  2  0  0  0  0  0  0
  -18.4200  -26.3060   21.8760 C   0  0  0  0  0  2  0  0  0  0  0  0
  -19.3020  -28.3770   23.1010 C   0  0  0  0  0  0  0  0  0  0  0  0
  -19.0440  -29.5840   23.7900 C   0  0  0  0  0  3  0  0  0  0  0  0
  -17.7240  -30.0090   24.0270 C   0  0  0  0  0  3  0  0  0  0  0  0
  -16.6430  -29.2260   23.5850 C   0  0  0  0  0  3  0  0  0  0  0  0
  -16.8860  -28.0220   22.9010 C   0  0  0  0  0  3  0  0  0  0  0  0
  -25.8250  -32.3530   23.6850 C   0  0  0  0  0  3  0  0  0  0  0  0
  -25.4540  -33.7210   24.0740 N   0  0  0  0  0  0  0  0  0  0  0  0
  -25.7230  -34.8160   23.3530 C   0  0  0  0  0  0  0  0  0  0  0  0
  -26.3780  -34.7850   22.3090 O   0  0  0  0  0  0  0  0  0  0  0  0
  -24.8710  -33.8140   24.8920 H   0  0  0  0  0  0  0  0  0  0  0  0
  -23.9030  -36.5340   23.1000 C   0  0  0  0  0  1  0  0  0  0  0  0
  -25.1790  -36.1620   23.8710 C   0  0  0  0  0  3  0  0  0  0  0  0
  -27.2770  -37.1290   24.7030 C   0  0  0  0  0  1  0  0  0  0  0  0
  -26.1560  -37.2680   23.7790 N   0  0  0  0  0  0  0  0  0  0  0  0
  -25.7050  -38.1620   23.9610 H   0  0  0  0  0  0  0  0  0  0  0  0
  -26.3850  -31.5540   24.9260 C   0  0  1  0  0  0  0  0  0  0  0  0
  -25.3150  -31.2230   25.9910 C   0  0  0  0  0  1  0  0  0  0  0  0
  -27.0240  -30.2180   24.4760 C   0  0  0  0  0  1  0  0  0  0  0  0
  -27.5040  -32.3720   25.6120 C   0  0  0  0  0  1  0  0  0  0  0  0
  1  4  1  0
  3  6  1  0
  3  1  1  0
  3  5  1  0
  4 51  1  6
  4  2  1  0
  4  9  1  0
  5  2  1  0
  5  7  1  1
  9  8  1  0
 10 11  1  0
 10  5  1  0
 12 11  2  0
 12 21  1  0
 13 19  1  0
 13 21  1  0
 14 19  1  0
 15 16  1  0
 15 14  1  0
 17 16  1  0
 17 26  1  0
 17 18  1  0
 19 18  1  0
 20 13  2  0
 21 22  1  0
 23 24  2  0
 24 43  1  0
 25 24  1  0
 25 28  1  0
 26 27  1  0
 26 23  1  0
 27 25  2  0
 28 29  1  0
 29 30  2  0
 31 34  1  0
 31 30  1  0
 32 31  2  0
 33 32  1  0
 33 28  2  0
 34 35  1  0
 35 40  2  0
 35 36  1  0
 36 37  2  0
 37 38  1  0
 38 42  1  0
 39 38  2  0
 40 39  1  0
 41 40  1  0
 43 44  1  0
 44 47  1  0
 44 46  1  0
 45 43  2  0
 48 49  1  0
 48 23  1  0
 50 48  1  0
 52 54  1  0
 52 51  1  0
 53 64  2  0
 54 59  1  0
 55 63  1  0
 55 65  1  0
 56 62  1  0
 56 58  1  0
 57 63  1  0
 58 57  1  0
 59 58  2  0
 60 61  1  0
 60 54  2  0
 61 56  2  0
 62 55  1  0
 63 53  1  0
 65 67  2  0
 66 65  1  0
 68 66  1  0
 69 78  2  0
 69 74  1  0
 70 66  1  0
 70 74  1  0
 71 70  1  0
 72 73  1  0
 72 71  1  0
 73 69  1  0
 74 75  2  0
 75 76  1  0
 77 76  2  0
 78 77  1  0
 79 53  1  0
 79 80  1  0
 79 89  1  0
 80 83  1  0
 81 85  1  0
 81 80  1  0
 82 81  2  0
 85 84  1  0
 87 85  1  0
 87 88  1  0
 87 86  1  0
 89 92  1  1
 89 90  1  0
 91 89  1  0
M  ISO  4  13 100  21 100  51 101  52 101
M  END
>  <TORSDO>  (50) 
F 21

>  <SCORE>  (50) 
-12.097

>  <name>  (50) 
50

>  <ligand_id>  (50) 
50

>  <original_smiles>  (50) 
[H]c1c([H])c([H])c2c(c1[H])C([H])([H])C([H])([H])C([H])([H])C2([H])N([H])C(=O)C1([H])N(C(=O)C([H])(N([H])C(=O)C([H])(N([H])C([H])([H])[H])C([H])([H])[H])C(C([H])([H])[H])(C([H])([H])[H])C([H])([H])[H])C([H])([H])c2c([H])c(OC([H])([H])C3(C([H])([H])C([H])([H])[H])C([H])([H])C([H])(C([H])([H])[H])C(C([H])([H])[H])(C([H])([H])C([H])([H])C([H])([H])N([H])C(=O)N4C([H])([H])C([H])([H])C([H])([H])C([H])(n5nc(-c6c([H])c([H])c(Oc7c([H])c([H])c(F)c([H])c7F)c([H])c6[H])c(C(=O)N([H])[H])c5N([H])[H])C4([H])[H])C3([H])[H])c([H])c([H])c2C1([H])[H]

>  <smiles>  (50) 
[H]c1c([H])c([H])c2c(c1[H])C([H])([H])C([H])([H])C([H])([H])C2([H])N([H])C(=O)C1([H])N(C(=O)C([H])(N([H])C(=O)C([H])(N([H])C([H])([H])[H])C([H])([H])[H])C(C([H])([H])[H])(C([H])([H])[H])C([H])([H])[H])C([H])([H])c2c([H])c(OC([H])([H])C3(C([H])([H])C([H])([H])[H])C([H])([H])C([H])(C([H])([H])[H])C(C([H])([H])[H])(C([H])([H])C([H])([H])C([H])([H])N([H])C(=O)N4C([H])([H])C([H])([H])C([H])([H])C([H])(n5nc(-c6c([H])c([H])c(Oc7c([H])c([H])c(F)c([H])c7F)c([H])c6[H])c(C(=O)N([H])[H])c5N([H])[H])C4([H])[H])C3([H])[H])c([H])c([H])c2C1([H])[H]

$$$$
51:0:0
     RDKit          3D

 96104  0  0  1  0  0  0  0  0999 V2000
  -29.9610  -20.5640   21.3100 C   0  0  0  0  0  3  0  0  0  0  0  0
  -29.9920  -21.9820   21.1800 C   0  0  0  0  0  3  0  0  0  0  0  0
  -28.4090  -20.4470   19.4710 C   0  0  0  0  0  3  0  0  0  0  0  0
  -29.1620  -19.7600   20.4590 C   0  0  0  0  0  0  0  0  0  0  0  0
  -29.2420  -22.6720   20.1930 C   0  0  0  0  0  0  0  0  0  0  0  0
  -28.4580  -21.8650   19.3190 C   0  0  0  0  0  0  0  0  0  0  0  0
  -27.6770  -22.4930   18.1740 C   0  0  0  0  0  1  0  0  0  0  0  0
  -29.0030  -18.2160   20.6720 C   0  0  0  0  0  2  0  0  0  0  0  0
  -30.1470  -17.2140   20.2290 C   0  0  0  0  0  3  0  0  0  0  0  0
  -30.5990  -14.6640   20.2870 C   0  0  0  0  0  0  0  0  0  0  0  0
  -30.3410  -12.4380   19.2390 C   0  0  0  0  0  2  0  0  0  0  0  0
  -29.3890  -12.5900   18.0340 C   0  0  0  0  0  2  0  0  0  0  0  0
  -27.9230  -12.4300   18.4830 C   0  0  0  0  0  2  0  0  0  0  0  0
  -27.5840  -13.2920   19.7280 C   0  0  0  0  0  3  0  0  0  0  0  0
  -28.6560  -13.1450   20.8310 C   0  0  0  0  0  2  0  0  0  0  0  0
  -29.9570  -13.4590   20.2290 N   0  0  0  0  0  0  0  0  0  0  0  0
  -31.7750  -14.7910   19.9390 O   0  0  0  0  0  0  0  0  0  0  0  0
  -29.8090  -15.7650   20.4800 N   0  0  0  0  0  0  0  0  0  0  0  0
  -28.8530  -15.5670   20.7300 H   0  0  0  0  0  0  0  0  0  0  0  0
  -25.2090  -13.8960   20.4970 C   0  0  0  0  0  0  0  0  0  0  0  0
  -24.1450  -13.1250   20.8760 C   0  0  0  0  0  0  0  0  0  0  0  0
  -24.6010  -11.7720   20.8240 C   0  0  0  0  0  0  0  0  0  0  0  0
  -26.2440  -13.0140   20.2340 N   0  0  0  0  0  0  0  0  0  0  0  0
  -25.8850  -11.7310   20.4930 N   0  0  0  0  0  0  0  0  0  0  0  0
  -23.8730  -10.5110   21.0140 C   0  0  0  0  0  0  0  0  0  0  0  0
  -24.3030   -9.5450   21.9510 C   0  0  0  0  0  3  0  0  0  0  0  0
  -23.5780   -8.3470   22.1270 C   0  0  0  0  0  3  0  0  0  0  0  0
  -22.4070   -8.1080   21.3690 C   0  0  0  0  0  0  0  0  0  0  0  0
  -21.9980   -9.0620   20.4210 C   0  0  0  0  0  3  0  0  0  0  0  0
  -22.7230  -10.2520   20.2430 C   0  0  0  0  0  3  0  0  0  0  0  0
  -21.6530   -6.9630   21.4550 O   0  0  0  0  0  0  0  0  0  0  0  0
  -21.5830   -6.2330   22.6140 C   0  0  0  0  0  0  0  0  0  0  0  0
  -21.1020   -6.7920   23.8190 C   0  0  0  0  0  3  0  0  0  0  0  0
  -20.9830   -5.9860   24.9680 C   0  0  0  0  0  3  0  0  0  0  0  0
  -21.3330   -4.6240   24.9150 C   0  0  0  0  0  0  0  0  0  0  0  0
  -21.8050   -4.0650   23.7150 C   0  0  0  0  0  3  0  0  0  0  0  0
  -21.9270   -4.8670   22.5680 C   0  0  0  0  0  0  0  0  0  0  0  0
  -22.3640   -4.3200   21.4060 F   0  0  0  0  0  0  0  0  0  0  0  0
  -21.2100   -3.8470   26.0170 F   0  0  0  0  0  0  0  0  0  0  0  0
  -22.7570  -13.6060   21.1760 C   0  0  0  0  0  0  0  0  0  0  0  0
  -22.0370  -12.9010   22.0430 N   0  0  0  0  0  0  0  0  0  0  0  0
  -22.3160  -14.6400   20.6740 O   0  0  0  0  0  0  0  0  0  0  0  0
  -22.4090  -12.0660   22.4730 H   0  0  0  0  0  0  0  0  0  0  0  0
  -21.1030  -13.2040   22.2820 H   0  0  0  0  0  0  0  0  0  0  0  0
  -25.3770  -15.2670   20.3270 N   0  0  0  0  0  0  0  0  0  0  0  0
  -24.6070  -15.9180   20.4380 H   0  0  0  0  0  0  0  0  0  0  0  0
  -26.2110  -15.7060   19.9620 H   0  0  0  0  0  0  0  0  0  0  0  0
  -30.5360  -17.4510   18.7400 C   0  0  0  0  0  2  0  0  0  0  0  0
  -31.9570  -18.0220   18.5390 C   0  0  0  0  0  2  0  0  0  0  0  0
  -32.0380  -19.4810   18.7390 N   0  0  0  0  0  4  0  0  0  0  0  0
  -31.5470  -19.9640   18.0070 H   0  0  0  0  0  0  0  0  0  0  0  0
  -32.9990  -19.7740   18.7110 H   0  0  0  0  0  0  0  0  0  0  0  0
  -31.6420  -19.7610   19.6210 H   0  0  0  0  0  0  0  0  0  0  0  0
  -29.3940  -24.2250   20.0210 C   0  0  0  0  0  3  0  0  0  0  0  0
  -28.2560  -25.1770   20.5530 C   0  0  0  0  0  3  0  0  0  0  0  0
  -28.4180  -26.6140   20.2680 O   0  0  0  0  0  0  0  0  0  0  0  0
  -24.6190  -31.9430   23.2730 C   0  0  0  0  0  0  0  0  0  0  0  0
  -27.2760  -27.4170   20.2440 C   0  0  0  0  0  0  0  0  0  0  0  0
  -23.4300  -30.5360   21.6280 C   0  0  0  0  0  3  0  0  0  0  0  0
  -24.8970  -28.9940   20.2140 C   0  0  0  0  0  0  0  0  0  0  0  0
  -25.9660  -30.8720   21.4580 C   0  0  0  0  0  2  0  0  0  0  0  0
  -26.0560  -29.4950   20.8190 C   0  0  0  0  0  0  0  0  0  0  0  0
  -27.2470  -28.7170   20.8270 C   0  0  0  0  0  3  0  0  0  0  0  0
  -26.1000  -26.9660   19.6030 C   0  0  0  0  0  3  0  0  0  0  0  0
  -24.9220  -27.7360   19.5940 C   0  0  0  0  0  3  0  0  0  0  0  0
  -23.6530  -29.8580   20.2520 C   0  0  0  0  0  2  0  0  0  0  0  0
  -24.6890  -31.1350   22.1770 N   0  0  0  0  0  0  0  0  0  0  0  0
  -23.5330  -32.2160   23.8030 O   0  0  0  0  0  0  0  0  0  0  0  0
  -22.7690  -29.5160   22.5860 C   0  0  0  0  0  0  0  0  0  0  0  0
  -21.4440  -29.3290   22.4510 N   0  0  0  0  0  0  0  0  0  0  0  0
  -23.4470  -28.8960   23.4080 O   0  0  0  0  0  0  0  0  0  0  0  0
  -20.9550  -29.8810   21.7600 H   0  0  0  0  0  0  0  0  0  0  0  0
  -18.0680  -28.1410   22.9520 C   0  0  0  0  0  0  0  0  0  0  0  0
  -20.6260  -28.3910   23.2210 C   0  0  0  0  0  3  0  0  0  0  0  0
  -20.7230  -26.9600   22.6440 C   0  0  0  0  0  2  0  0  0  0  0  0
  -19.6200  -26.6440   21.6290 C   0  0  0  0  0  2  0  0  0  0  0  0
  -18.2390  -26.7930   22.2720 C   0  0  0  0  0  2  0  0  0  0  0  0
  -19.1890  -28.8990   23.3830 C   0  0  0  0  0  0  0  0  0  0  0  0
  -18.9740  -30.1610   23.9750 C   0  0  0  0  0  3  0  0  0  0  0  0
  -17.6700  -30.6660   24.1430 C   0  0  0  0  0  3  0  0  0  0  0  0
  -16.5630  -29.9050   23.7270 C   0  0  0  0  0  3  0  0  0  0  0  0
  -16.7640  -28.6450   23.1370 C   0  0  0  0  0  3  0  0  0  0  0  0
  -25.8970  -32.5830   23.8990 C   0  0  0  0  0  3  0  0  0  0  0  0
  -26.3990  -31.8290   25.1910 C   0  0  1  0  0  0  0  0  0  0  0  0
  -25.2950  -31.6020   26.2500 C   0  0  0  0  0  1  0  0  0  0  0  0
  -26.9900  -30.4480   24.8230 C   0  0  0  0  0  1  0  0  0  0  0  0
  -27.5430  -32.6330   25.8540 C   0  0  0  0  0  1  0  0  0  0  0  0
  -25.5880  -33.9860   24.2040 N   0  0  0  0  0  0  0  0  0  0  0  0
  -25.9360  -35.0270   23.4350 C   0  0  0  0  0  0  0  0  0  0  0  0
  -26.6200  -34.9050   22.4150 O   0  0  0  0  0  0  0  0  0  0  0  0
  -24.9890  -34.1570   24.9980 H   0  0  0  0  0  0  0  0  0  0  0  0
  -24.2310  -36.8270   23.0110 C   0  0  0  0  0  1  0  0  0  0  0  0
  -25.4450  -36.4230   23.8630 C   0  0  0  0  0  3  0  0  0  0  0  0
  -27.5580  -37.3030   24.7510 C   0  0  0  0  0  1  0  0  0  0  0  0
  -26.4870  -37.4690   23.7700 N   0  0  0  0  0  0  0  0  0  0  0  0
  -26.0830  -38.3930   23.8950 H   0  0  0  0  0  0  0  0  0  0  0  0
  2  1  1  0
  3  4  1  0
  4  8  1  0
  4  1  2  0
  5  2  2  0
  6  3  2  0
  6  5  1  0
  7  6  1  0
  9 48  1  0
  9 18  1  0
  9  8  1  0
 10 18  1  0
 11 16  1  0
 12 13  1  0
 12 11  1  0
 14 13  1  0
 14 23  1  0
 14 15  1  0
 16 10  1  0
 16 15  1  0
 17 10  2  0
 18 19  1  0
 20 21  2  0
 21 40  1  0
 22 21  1  0
 22 25  1  0
 23 24  1  0
 23 20  1  0
 24 22  2  0
 25 26  1  0
 26 27  2  0
 28 31  1  0
 28 27  1  0
 29 28  2  0
 30 29  1  0
 30 25  2  0
 31 32  1  0
 32 33  1  0
 33 34  2  0
 35 34  1  0
 35 39  1  0
 36 35  2  0
 37 32  2  0
 37 36  1  0
 38 37  1  0
 40 41  1  0
 41 44  1  0
 41 43  1  0
 42 40  2  0
 45 46  1  0
 45 20  1  0
 47 45  1  0
 49 50  1  0
 49 48  1  0
 50 53  1  0
 51 50  1  0
 52 50  1  0
 54  5  1  0
 54 55  2  0
 56 55  1  0
 57 68  2  0
 58 56  1  0
 58 63  1  0
 59 67  1  0
 59 69  1  0
 60 66  1  0
 60 62  1  0
 61 67  1  0
 62 63  2  0
 62 61  1  0
 64 58  2  0
 65 64  1  0
 65 60  2  0
 66 59  1  0
 67 57  1  0
 69 71  2  0
 70 69  1  0
 72 70  1  0
 73 82  2  0
 73 78  1  0
 74 70  1  0
 74 78  1  0
 75 74  1  0
 76 77  1  0
 76 75  1  0
 77 73  1  0
 78 79  2  0
 79 80  1  0
 81 80  2  0
 82 81  1  0
 83 57  1  0
 83 88  1  0
 83 84  1  0
 84 87  1  1
 84 85  1  0
 86 84  1  0
 88 91  1  0
 89 93  1  0
 89 88  1  0
 90 89  2  0
 93 92  1  0
 95 93  1  0
 95 96  1  0
 95 94  1  0
M  ISO  4  10 100  18 100  55 101  56 101
M  END
>  <TORSDO>  (51) 
F 23

>  <SCORE>  (51) 
-13.175

>  <name>  (51) 
51

>  <ligand_id>  (51) 
51

>  <original_smiles>  (51) 
[H]c1c([H])c([H])c2c(c1[H])C([H])([H])C([H])([H])C([H])([H])C2([H])N([H])C(=O)C1([H])N(C(=O)C([H])(N([H])C(=O)C([H])(N([H])C([H])([H])[H])C([H])([H])[H])C(C([H])([H])[H])(C([H])([H])[H])C([H])([H])[H])C([H])([H])c2c([H])c(OC([H])([H])C([H])([H])c3c([H])c([H])c(C([H])([H])C([H])(N([H])C(=O)N4C([H])([H])C([H])([H])C([H])([H])C([H])(n5nc(-c6c([H])c([H])c(Oc7c([H])c([H])c(F)c([H])c7F)c([H])c6[H])c(C(=O)N([H])[H])c5N([H])[H])C4([H])[H])C([H])([H])C([H])([H])[N+]([H])([H])[H])c([H])c3C([H])([H])[H])c([H])c([H])c2C1([H])[H]

>  <smiles>  (51) 
[H]c1c([H])c([H])c2c(c1[H])C([H])([H])C([H])([H])C([H])([H])C2([H])N([H])C(=O)C1([H])N(C(=O)C([H])(N([H])C(=O)C([H])(N([H])C([H])([H])[H])C([H])([H])[H])C(C([H])([H])[H])(C([H])([H])[H])C([H])([H])[H])C([H])([H])c2c([H])c(OC([H])([H])C([H])([H])c3c([H])c([H])c(C([H])([H])C([H])(N([H])C(=O)N4C([H])([H])C([H])([H])C([H])([H])C([H])(n5nc(-c6c([H])c([H])c(Oc7c([H])c([H])c(F)c([H])c7F)c([H])c6[H])c(C(=O)N([H])[H])c5N([H])[H])C4([H])[H])C([H])([H])C([H])([H])[N+]([H])([H])[H])c([H])c3C([H])([H])[H])c([H])c([H])c2C1([H])[H]

$$$$
52:0:0
     RDKit          3D

 91100  0  0  1  0  0  0  0  0999 V2000
  -28.7510  -22.2360   18.9350 C   0  0  0  0  0  2  0  0  0  0  0  0
  -29.8720  -19.8400   19.0890 C   0  0  0  0  0  2  0  0  0  0  0  0
  -28.1330  -21.3400   21.1270 C   0  0  0  0  0  2  0  0  0  0  0  0
  -28.6300  -20.7190   18.8390 C   0  0  0  0  0  3  0  0  0  0  0  0
  -28.0450  -20.1580   20.1360 C   0  0  0  0  0  3  0  0  0  0  0  0
  -28.0500  -22.6420   20.2490 C   0  0  0  0  0  3  0  0  0  0  0  0
  -29.0110  -18.9280   19.9700 C   0  0  0  0  0  3  0  0  0  0  0  0
  -29.8430  -23.9370   21.5740 C   0  0  0  0  0  1  0  0  0  0  0  0
  -28.4900  -24.0380   20.8440 C   0  0  0  0  0  3  0  0  0  0  0  0
  -28.5220  -25.1850   19.7660 C   0  0  0  0  0  2  0  0  0  0  0  0
  -28.4500  -26.5630   20.2420 O   0  0  0  0  0  0  0  0  0  0  0  0
  -24.5680  -31.8090   23.1600 C   0  0  0  0  0  0  0  0  0  0  0  0
  -27.2730  -27.3040   20.1700 C   0  0  0  0  0  0  0  0  0  0  0  0
  -23.4110  -30.4100   21.4850 C   0  0  0  0  0  3  0  0  0  0  0  0
  -24.8960  -28.8700   20.1030 C   0  0  0  0  0  0  0  0  0  0  0  0
  -25.9490  -30.7520   21.3620 C   0  0  0  0  0  2  0  0  0  0  0  0
  -26.0440  -29.3770   20.7200 C   0  0  0  0  0  0  0  0  0  0  0  0
  -27.2340  -28.6050   20.7430 C   0  0  0  0  0  3  0  0  0  0  0  0
  -26.0910  -26.8240   19.5540 C   0  0  0  0  0  3  0  0  0  0  0  0
  -24.9180  -27.5950   19.5180 C   0  0  0  0  0  3  0  0  0  0  0  0
  -23.6610  -29.7400   20.1100 C   0  0  0  0  0  2  0  0  0  0  0  0
  -24.6600  -31.0060   22.0600 N   0  0  0  0  0  0  0  0  0  0  0  0
  -23.4690  -32.0780   23.6660 O   0  0  0  0  0  0  0  0  0  0  0  0
  -22.7310  -29.3840   22.4240 C   0  0  0  0  0  0  0  0  0  0  0  0
  -21.4080  -29.2140   22.2730 N   0  0  0  0  0  0  0  0  0  0  0  0
  -23.3950  -28.7490   23.2470 O   0  0  0  0  0  0  0  0  0  0  0  0
  -20.9320  -29.7800   21.5840 H   0  0  0  0  0  0  0  0  0  0  0  0
  -18.0140  -28.0550   22.7260 C   0  0  0  0  0  0  0  0  0  0  0  0
  -20.5720  -28.2750   23.0220 C   0  0  0  0  0  3  0  0  0  0  0  0
  -20.6600  -26.8510   22.4280 C   0  0  0  0  0  2  0  0  0  0  0  0
  -19.5660  -26.5560   21.3990 C   0  0  0  0  0  2  0  0  0  0  0  0
  -18.1790  -26.7120   22.0310 C   0  0  0  0  0  2  0  0  0  0  0  0
  -19.1390  -28.7960   23.1760 C   0  0  0  0  0  0  0  0  0  0  0  0
  -18.9330  -30.0520   23.7850 C   0  0  0  0  0  3  0  0  0  0  0  0
  -17.6340  -30.5710   23.9470 C   0  0  0  0  0  3  0  0  0  0  0  0
  -16.5220  -29.8260   23.5130 C   0  0  0  0  0  3  0  0  0  0  0  0
  -16.7140  -28.5690   22.9110 C   0  0  0  0  0  3  0  0  0  0  0  0
  -25.8320  -32.4460   23.8180 C   0  0  0  0  0  3  0  0  0  0  0  0
  -26.3280  -31.6660   25.0990 C   0  0  1  0  0  0  0  0  0  0  0  0
  -25.2120  -31.4090   26.1390 C   0  0  0  0  0  1  0  0  0  0  0  0
  -26.9320  -30.2990   24.7080 C   0  0  0  0  0  1  0  0  0  0  0  0
  -27.4560  -32.4620   25.7960 C   0  0  0  0  0  1  0  0  0  0  0  0
  -25.5060  -33.8390   24.1510 N   0  0  0  0  0  0  0  0  0  0  0  0
  -25.8380  -34.9000   23.4030 C   0  0  0  0  0  0  0  0  0  0  0  0
  -26.5260  -34.8060   22.3830 O   0  0  0  0  0  0  0  0  0  0  0  0
  -24.9100  -33.9850   24.9530 H   0  0  0  0  0  0  0  0  0  0  0  0
  -24.1020  -36.6800   23.0190 C   0  0  0  0  0  1  0  0  0  0  0  0
  -25.3290  -36.2810   23.8560 C   0  0  0  0  0  3  0  0  0  0  0  0
  -27.4350  -37.1800   24.7440 C   0  0  0  0  0  1  0  0  0  0  0  0
  -26.3550  -37.3450   23.7760 N   0  0  0  0  0  0  0  0  0  0  0  0
  -25.9370  -38.2600   23.9230 H   0  0  0  0  0  0  0  0  0  0  0  0
  -29.6370  -18.0840   21.1180 C   0  0  0  0  0  2  0  0  0  0  0  0
  -30.6610  -16.9780   20.6630 C   0  0  0  0  0  2  0  0  0  0  0  0
  -30.8390  -14.5110   20.1220 C   0  0  0  0  0  0  0  0  0  0  0  0
  -30.4780  -12.3310   19.0030 C   0  0  0  0  0  2  0  0  0  0  0  0
  -29.4990  -12.5330   17.8250 C   0  0  0  0  0  2  0  0  0  0  0  0
  -28.0350  -12.4310   18.2990 C   0  0  0  0  0  2  0  0  0  0  0  0
  -27.7580  -13.2620   19.5830 C   0  0  0  0  0  3  0  0  0  0  0  0
  -28.8530  -13.0480   20.6530 C   0  0  0  0  0  2  0  0  0  0  0  0
  -30.1490  -13.3370   20.0300 N   0  0  0  0  0  0  0  0  0  0  0  0
  -31.9640  -14.6480   19.6360 O   0  0  0  0  0  0  0  0  0  0  0  0
  -30.1660  -15.5750   20.6320 N   0  0  0  0  0  0  0  0  0  0  0  0
  -29.2430  -15.3970   20.9970 H   0  0  0  0  0  0  0  0  0  0  0  0
  -25.4100  -13.9070   20.4080 C   0  0  0  0  0  0  0  0  0  0  0  0
  -24.3420  -13.1550   20.8130 C   0  0  0  0  0  0  0  0  0  0  0  0
  -24.7710  -11.7940   20.7510 C   0  0  0  0  0  0  0  0  0  0  0  0
  -26.4230  -13.0060   20.1170 N   0  0  0  0  0  0  0  0  0  0  0  0
  -26.0440  -11.7280   20.3830 N   0  0  0  0  0  0  0  0  0  0  0  0
  -24.0250  -10.5460   20.9620 C   0  0  0  0  0  0  0  0  0  0  0  0
  -24.4680   -9.5660   21.8780 C   0  0  0  0  0  3  0  0  0  0  0  0
  -23.7240   -8.3850   22.0790 C   0  0  0  0  0  3  0  0  0  0  0  0
  -22.5220   -8.1720   21.3610 C   0  0  0  0  0  0  0  0  0  0  0  0
  -22.0960   -9.1400   20.4360 C   0  0  0  0  0  3  0  0  0  0  0  0
  -22.8410  -10.3150   20.2340 C   0  0  0  0  0  3  0  0  0  0  0  0
  -21.7480   -7.0410   21.4700 O   0  0  0  0  0  0  0  0  0  0  0  0
  -21.7110   -6.3010   22.6230 C   0  0  0  0  0  0  0  0  0  0  0  0
  -21.3190   -6.8630   23.8570 C   0  0  0  0  0  3  0  0  0  0  0  0
  -21.2310   -6.0510   25.0050 C   0  0  0  0  0  3  0  0  0  0  0  0
  -21.5220   -4.6760   24.9200 C   0  0  0  0  0  0  0  0  0  0  0  0
  -21.9060   -4.1120   23.6890 C   0  0  0  0  0  3  0  0  0  0  0  0
  -21.9970   -4.9230   22.5440 C   0  0  0  0  0  0  0  0  0  0  0  0
  -22.3490   -4.3710   21.3590 F   0  0  0  0  0  0  0  0  0  0  0  0
  -21.4270   -3.8930   26.0200 F   0  0  0  0  0  0  0  0  0  0  0  0
  -22.9680  -13.6620   21.1490 C   0  0  0  0  0  0  0  0  0  0  0  0
  -22.2660  -12.9760   22.0430 N   0  0  0  0  0  0  0  0  0  0  0  0
  -22.5320  -14.7010   20.6540 O   0  0  0  0  0  0  0  0  0  0  0  0
  -22.6330  -12.1290   22.4500 H   0  0  0  0  0  0  0  0  0  0  0  0
  -21.3480  -13.2950   22.3220 H   0  0  0  0  0  0  0  0  0  0  0  0
  -25.6030  -15.2760   20.2430 N   0  0  0  0  0  0  0  0  0  0  0  0
  -24.8610  -15.9470   20.4110 H   0  0  0  0  0  0  0  0  0  0  0  0
  -26.4520  -15.6980   19.8910 H   0  0  0  0  0  0  0  0  0  0  0  0
  1  6  1  0
  2  7  1  0
  4  1  1  0
  4  2  1  0
  4  5  1  0
  5  3  1  0
  6  9  1  0
  6  3  1  0
  7  5  1  0
  7 52  1  0
  9  8  1  0
 10 11  1  0
 10  9  1  0
 12 23  2  0
 13 11  1  0
 13 18  1  0
 14 22  1  0
 14 24  1  0
 15 21  1  0
 15 17  1  0
 16 22  1  0
 17 18  2  0
 17 16  1  0
 19 13  2  0
 20 19  1  0
 20 15  2  0
 21 14  1  0
 22 12  1  0
 24 26  2  0
 25 24  1  0
 27 25  1  0
 28 37  2  0
 28 33  1  0
 29 25  1  0
 29 33  1  0
 30 29  1  0
 31 32  1  0
 31 30  1  0
 32 28  1  0
 33 34  2  0
 34 35  1  0
 36 35  2  0
 37 36  1  0
 38 12  1  0
 38 43  1  0
 38 39  1  0
 39 42  1  1
 39 40  1  0
 41 39  1  0
 43 46  1  0
 44 48  1  0
 44 43  1  0
 45 44  2  0
 48 47  1  0
 50 48  1  0
 50 51  1  0
 50 49  1  0
 53 52  1  0
 54 62  1  0
 55 60  1  0
 56 57  1  0
 56 55  1  0
 58 57  1  0
 58 67  1  0
 58 59  1  0
 60 54  1  0
 60 59  1  0
 61 54  2  0
 62 53  1  0
 62 63  1  0
 64 65  2  0
 65 84  1  0
 66 65  1  0
 66 69  1  0
 67 68  1  0
 67 64  1  0
 68 66  2  0
 69 70  1  0
 70 71  2  0
 72 75  1  0
 72 71  1  0
 73 72  2  0
 74 73  1  0
 74 69  2  0
 75 76  1  0
 76 77  1  0
 77 78  2  0
 79 78  1  0
 79 83  1  0
 80 79  2  0
 81 76  2  0
 81 80  1  0
 82 81  1  0
 84 85  1  0
 85 88  1  0
 85 87  1  0
 86 84  2  0
 89 64  1  0
 89 90  1  0
 91 89  1  0
M  ISO  4  10 101  11 101  54 100  62 100
M  END
>  <TORSDO>  (52) 
F 20

>  <SCORE>  (52) 
-13.734

>  <name>  (52) 
52

>  <ligand_id>  (52) 
52

>  <original_smiles>  (52) 
[H]c1c([H])c([H])c2c(c1[H])C([H])([H])C([H])([H])C([H])([H])C2([H])N([H])C(=O)C1([H])N(C(=O)C([H])(N([H])C(=O)C([H])(N([H])C([H])([H])[H])C([H])([H])[H])C(C([H])([H])[H])(C([H])([H])[H])C([H])([H])[H])C([H])([H])c2c([H])c(OC([H])([H])C([H])(C([H])([H])[H])C3([H])C([H])([H])C4([H])C([H])([H])C([H])(C([H])([H])C([H])([H])N([H])C(=O)N5C([H])([H])C([H])([H])C([H])([H])C([H])(n6nc(-c7c([H])c([H])c(Oc8c([H])c([H])c(F)c([H])c8F)c([H])c7[H])c(C(=O)N([H])[H])c6N([H])[H])C5([H])[H])C4([H])C3([H])[H])c([H])c([H])c2C1([H])[H]

>  <smiles>  (52) 
[H]c1c([H])c([H])c2c(c1[H])C([H])([H])C([H])([H])C([H])([H])C2([H])N([H])C(=O)C1([H])N(C(=O)C([H])(N([H])C(=O)C([H])(N([H])C([H])([H])[H])C([H])([H])[H])C(C([H])([H])[H])(C([H])([H])[H])C([H])([H])[H])C([H])([H])c2c([H])c(OC([H])([H])C([H])(C([H])([H])[H])C3([H])C([H])([H])C4([H])C([H])([H])C([H])(C([H])([H])C([H])([H])N([H])C(=O)N5C([H])([H])C([H])([H])C([H])([H])C([H])(n6nc(-c7c([H])c([H])c(Oc8c([H])c([H])c(F)c([H])c8F)c([H])c7[H])c(C(=O)N([H])[H])c6N([H])[H])C5([H])[H])C4([H])C3([H])[H])c([H])c([H])c2C1([H])[H]

$$$$
53:0:0
     RDKit          3D

 92 95  0  0  1  0  0  0  0  0999 V2000
  -26.9050  -19.3820   19.0630 C   0  0  0  0  0  3  0  0  0  0  0  0
  -26.9860  -17.8680   19.7030 C   0  0  0  0  0  3  0  0  0  0  0  0
  -26.1410  -16.7420   19.0560 N   0  0  0  0  0  4  0  0  0  0  0  0
  -26.3310  -16.7540   18.0680 H   0  0  0  0  0  0  0  0  0  0  0  0
  -25.1880  -17.0570   19.1520 H   0  0  0  0  0  0  0  0  0  0  0  0
  -26.0880  -15.2450   19.5030 C   0  0  0  0  0  2  0  0  0  0  0  0
  -27.1620  -14.2600   18.8480 C   0  0  0  0  0  2  0  0  0  0  0  0
  -27.3460  -12.5830   18.5280 C   0  0  0  0  0  2  0  0  0  0  0  0
  -28.7370  -11.4720   18.5710 C   0  0  0  0  0  2  0  0  0  0  0  0
  -31.2310  -11.7550   20.5180 C   0  0  2  0  0  0  0  0  0  0  0  0
  -32.1600  -11.0200   19.4320 C   0  0  0  0  0  1  0  0  0  0  0  0
  -31.5000  -12.3750   18.2790 C   0  0  0  0  0  1  0  0  0  0  0  0
  -30.2630  -13.4770   19.0280 C   0  0  0  0  0  1  0  0  0  0  0  0
  -29.3790  -13.1840   20.7650 C   0  0  0  0  0  1  0  0  0  0  0  0
  -30.2760  -11.9080   21.7980 C   0  0  0  0  0  1  0  0  0  0  0  0
  -31.4930  -10.9300   21.0500 N   0  0  0  0  0  1  0  0  0  0  0  0
  -32.0840  -12.8430   20.7300 O   0  0  0  0  0  1  0  0  0  0  0  0
  -29.9010  -11.0830   19.6930 N   0  0  0  0  0  2  0  0  0  0  0  0
  -29.7660  -10.1380   20.0210 H   0  0  0  0  0  0  0  0  0  0  0  0
  -26.9100  -13.6900   21.3920 C   0  0  0  0  0  0  0  0  0  0  0  0
  -25.7130  -13.0350   21.5040 C   0  0  0  0  0  0  0  0  0  0  0  0
  -25.9510  -11.6630   21.1980 C   0  0  0  0  0  0  0  0  0  0  0  0
  -27.8830  -12.8000   21.0160 N   0  0  0  0  0  0  0  0  0  0  0  0
  -27.2830  -11.5220   21.0060 N   0  0  0  0  0  0  0  0  0  0  0  0
  -24.9600  -10.5390   21.0910 C   0  0  0  0  0  0  0  0  0  0  0  0
  -25.0740   -9.3450   21.8450 C   0  0  0  0  0  3  0  0  0  0  0  0
  -24.0810   -8.3350   21.7820 C   0  0  0  0  0  3  0  0  0  0  0  0
  -22.9370   -8.4960   20.9620 C   0  0  0  0  0  0  0  0  0  0  0  0
  -22.8280   -9.6720   20.1960 C   0  0  0  0  0  3  0  0  0  0  0  0
  -23.8220  -10.6720   20.2580 C   0  0  0  0  0  3  0  0  0  0  0  0
  -21.9410   -7.5520   20.8160 O   0  0  0  0  0  0  0  0  0  0  0  0
  -21.5780   -6.7040   21.8360 C   0  0  0  0  0  0  0  0  0  0  0  0
  -21.0990   -7.1900   23.0720 C   0  0  0  0  0  3  0  0  0  0  0  0
  -20.6740   -6.2890   24.0710 C   0  0  0  0  0  3  0  0  0  0  0  0
  -20.7200   -4.9020   23.8350 C   0  0  0  0  0  0  0  0  0  0  0  0
  -21.1850   -4.4140   22.6030 C   0  0  0  0  0  3  0  0  0  0  0  0
  -21.6080   -5.3110   21.6050 C   0  0  0  0  0  0  0  0  0  0  0  0
  -22.0350   -4.8310   20.4120 F   0  0  0  0  0  0  0  0  0  0  0  0
  -20.3100   -4.0370   24.7940 F   0  0  0  0  0  0  0  0  0  0  0  0
  -24.4080  -13.6880   21.8490 C   0  0  0  0  0  0  0  0  0  0  0  0
  -23.5450  -12.9940   22.5830 N   0  0  0  0  0  0  0  0  0  0  0  0
  -24.1810  -14.8530   21.5280 O   0  0  0  0  0  0  0  0  0  0  0  0
  -23.7460  -12.0470   22.8700 H   0  0  0  0  0  0  0  0  0  0  0  0
  -22.6700  -13.4160   22.8620 H   0  0  0  0  0  0  0  0  0  0  0  0
  -27.2800  -15.0050   21.6160 N   0  0  0  0  0  0  0  0  0  0  0  0
  -26.6180  -15.6350   22.0550 H   0  0  0  0  0  0  0  0  0  0  0  0
  -28.2400  -15.2400   21.8250 H   0  0  0  0  0  0  0  0  0  0  0  0
  -27.9210  -20.6090   19.4560 C   0  0  0  0  0  3  0  0  0  0  0  0
  -27.6810  -22.1280   18.8910 C   0  0  0  0  0  3  0  0  0  0  0  0
  -28.7710  -23.3610   18.9440 C   0  0  0  0  0  3  0  0  0  0  0  0
  -28.1830  -24.8680   18.7870 C   0  0  0  0  0  3  0  0  0  0  0  0
  -28.7780  -26.2850   18.9150 O   0  0  0  0  0  0  0  0  0  0  0  0
  -25.4030  -31.0570   23.4230 C   0  0  0  0  0  0  0  0  0  0  0  0
  -27.8280  -27.3190   19.1780 C   0  0  0  0  0  0  0  0  0  0  0  0
  -24.1660  -30.1100   21.5290 C   0  0  0  0  0  3  0  0  0  0  0  0
  -25.5610  -29.0010   19.7160 C   0  0  0  0  0  0  0  0  0  0  0  0
  -26.7240  -30.4110   21.3830 C   0  0  0  0  0  2  0  0  0  0  0  0
  -26.7640  -29.2440   20.3920 C   0  0  0  0  0  0  0  0  0  0  0  0
  -27.9090  -28.4030   20.1350 C   0  0  0  0  0  3  0  0  0  0  0  0
  -26.6150  -27.2470   18.4580 C   0  0  0  0  0  3  0  0  0  0  0  0
  -25.4940  -28.0090   18.7490 C   0  0  0  0  0  3  0  0  0  0  0  0
  -24.3460  -29.8430   20.0220 C   0  0  0  0  0  2  0  0  0  0  0  0
  -25.4530  -30.5310   22.1660 N   0  0  0  0  0  0  0  0  0  0  0  0
  -24.3270  -31.1950   24.0250 O   0  0  0  0  0  0  0  0  0  0  0  0
  -23.5260  -28.8690   22.2010 C   0  0  0  0  0  0  0  0  0  0  0  0
  -22.2080  -28.6860   22.0110 N   0  0  0  0  0  0  0  0  0  0  0  0
  -24.2140  -28.0880   22.8630 O   0  0  0  0  0  0  0  0  0  0  0  0
  -21.7080  -29.3750   21.4650 H   0  0  0  0  0  0  0  0  0  0  0  0
  -18.8920  -27.2330   22.0500 C   0  0  0  0  0  0  0  0  0  0  0  0
  -21.4090  -27.5760   22.5350 C   0  0  0  0  0  3  0  0  0  0  0  0
  -21.6370  -26.2870   21.7120 C   0  0  0  0  0  2  0  0  0  0  0  0
  -20.6170  -26.1030   20.5830 C   0  0  0  0  0  2  0  0  0  0  0  0
  -19.1940  -26.0470   21.1490 C   0  0  0  0  0  2  0  0  0  0  0  0
  -19.9320  -27.9590   22.6880 C   0  0  0  0  0  0  0  0  0  0  0  0
  -19.5960  -29.0720   23.4890 C   0  0  0  0  0  3  0  0  0  0  0  0
  -18.2540  -29.4610   23.6570 C   0  0  0  0  0  3  0  0  0  0  0  0
  -17.2270  -28.7290   23.0350 C   0  0  0  0  0  3  0  0  0  0  0  0
  -17.5470  -27.6160   22.2370 C   0  0  0  0  0  3  0  0  0  0  0  0
  -26.6930  -31.5300   24.1530 C   0  0  0  0  0  3  0  0  0  0  0  0
  -27.2530  -30.4620   25.1710 C   0  0  1  0  0  0  0  0  0  0  0  0
  -26.1940  -29.9410   26.1720 C   0  0  0  0  0  1  0  0  0  0  0  0
  -27.8320  -29.2380   24.4250 C   0  0  0  0  0  1  0  0  0  0  0  0
  -28.4190  -31.0750   25.9810 C   0  0  0  0  0  1  0  0  0  0  0  0
  -26.3710  -32.7850   24.8490 N   0  0  0  0  0  0  0  0  0  0  0  0
  -26.8010  -33.9980   24.4760 C   0  0  0  0  0  0  0  0  0  0  0  0
  -27.5810  -34.1690   23.5360 O   0  0  0  0  0  0  0  0  0  0  0  0
  -25.6930  -32.7270   25.5950 H   0  0  0  0  0  0  0  0  0  0  0  0
  -25.2240  -35.9590   24.4540 C   0  0  0  0  0  1  0  0  0  0  0  0
  -26.2890  -35.2120   25.2740 C   0  0  0  0  0  3  0  0  0  0  0  0
  -28.2820  -35.5950   26.6550 C   0  0  0  0  0  1  0  0  0  0  0  0
  -27.3610  -36.1530   25.6690 N   0  0  0  0  0  0  0  0  0  0  0  0
  -26.9670  -37.0080   26.0500 H   0  0  0  0  0  0  0  0  0  0  0  0
  1 48  1  0
  1  2  2  0
  3  5  1  0
  3  6  1  0
  3  2  1  0
  4  3  1  0
  7  6  1  0
  8  9  1  0
  8  7  1  0
  9 18  1  0
 10 17  1  0
 10 16  1  0
 10 15  1  6
 11 10  1  0
 12 13  1  0
 14 23  1  0
 18 19  1  0
 20 21  2  0
 20 45  1  0
 21 40  1  0
 22 21  1  0
 23 20  1  0
 24 23  1  0
 24 22  2  0
 25 22  1  0
 25 26  1  0
 27 26  2  0
 28 27  1  0
 29 30  1  0
 29 28  2  0
 30 25  2  0
 31 28  1  0
 31 32  1  0
 32 33  1  0
 33 34  2  0
 35 34  1  0
 35 39  1  0
 36 35  2  0
 37 32  2  0
 37 36  1  0
 38 37  1  0
 40 41  1  0
 41 44  1  0
 41 43  1  0
 42 40  2  0
 45 47  1  0
 45 46  1  0
 49 50  1  0
 49 48  2  0
 51 52  1  0
 51 50  2  0
 52 54  1  0
 53 64  2  0
 54 59  1  0
 55 63  1  0
 55 65  1  0
 56 62  1  0
 56 58  1  0
 57 63  1  0
 58 57  1  0
 59 58  2  0
 60 61  1  0
 60 54  2  0
 61 56  2  0
 62 55  1  0
 63 53  1  0
 65 67  2  0
 66 65  1  0
 68 66  1  0
 69 78  2  0
 69 74  1  0
 70 66  1  0
 70 74  1  0
 71 70  1  0
 72 73  1  0
 72 71  1  0
 73 69  1  0
 74 75  2  0
 75 76  1  0
 77 76  2  0
 78 77  1  0
 79 53  1  0
 79 84  1  0
 79 80  1  0
 80 83  1  1
 80 81  1  0
 82 80  1  0
 84 87  1  0
 85 84  1  0
 85 89  1  0
 86 85  2  0
 89 88  1  0
 89 91  1  0
 91 92  1  0
 91 90  1  0
M  ISO  4  10 100  18 100  51 101  52 101
M  END
>  <TORSDO>  (53) 
F 26

>  <SCORE>  (53) 
-6.655

>  <name>  (53) 
53

>  <ligand_id>  (53) 
53

>  <original_smiles>  (53) 
[H]c1c([H])c([H])c2c(c1[H])C([H])([H])C([H])([H])C([H])([H])C2([H])N([H])C(=O)C1([H])N(C(=O)C([H])(N([H])C(=O)C([H])(N([H])C([H])([H])[H])C([H])([H])[H])C(C([H])([H])[H])(C([H])([H])[H])C([H])([H])[H])C([H])([H])c2c([H])c(OC([H])([H])C([H])([H])C([H])([H])C([H])([H])C([H])([H])C([H])([H])[N+]([H])([H])C([H])([H])C([H])([H])C([H])([H])C([H])([H])N([H])C(=O)N3C([H])([H])C([H])([H])C([H])([H])C([H])(n4nc(-c5c([H])c([H])c(Oc6c([H])c([H])c(F)c([H])c6F)c([H])c5[H])c(C(=O)N([H])[H])c4N([H])[H])C3([H])[H])c([H])c([H])c2C1([H])[H]

>  <smiles>  (53) 
[H]c1c([H])c([H])c2c(c1[H])C([H])([H])C([H])([H])C([H])([H])C2([H])N([H])C(=O)C1([H])N(C(=O)C([H])(N([H])C(=O)C([H])(N([H])C([H])([H])[H])C([H])([H])[H])C(C([H])([H])[H])(C([H])([H])[H])C([H])([H])[H])C([H])([H])c2c([H])c(OC([H])([H])C([H])([H])C([H])([H])C([H])([H])C([H])([H])C([H])([H])[N+]([H])([H])C([H])([H])C([H])([H])C([H])([H])C([H])([H])N([H])C(=O)N3C([H])([H])C([H])([H])C([H])([H])C([H])(n4nc(-c5c([H])c([H])c(Oc6c([H])c([H])c(F)c([H])c6F)c([H])c5[H])c(C(=O)N([H])[H])c4N([H])[H])C3([H])[H])c([H])c([H])c2C1([H])[H]

$$$$
54:0:0
     RDKit          3D

 93102  0  0  1  0  0  0  0  0999 V2000
  -30.6870  -22.4920   20.8530 C   0  0  0  0  0  2  0  0  0  0  0  0
  -32.3380  -19.0050   20.3400 C   0  0  0  0  0  2  0  0  0  0  0  0
  -31.4870  -19.5600   22.0790 C   0  0  0  0  0  2  0  0  0  0  0  0
  -30.0880  -20.0480   20.0790 C   0  0  0  0  0  2  0  0  0  0  0  0
  -32.1620  -20.3950   20.9700 C   0  0  0  0  0  3  0  0  0  0  0  0
  -31.1300  -21.1780   20.1680 C   0  0  0  0  0  3  0  0  0  0  0  0
  -30.8660  -18.9470   20.8070 C   0  0  1  0  0  0  0  0  0  0  0  0
  -30.1340  -17.5990   20.8320 C   0  0  0  0  0  2  0  0  0  0  0  0
  -30.7740  -16.5420   21.7580 C   0  0  0  0  0  2  0  0  0  0  0  0
  -30.7290  -14.3860   20.5360 C   0  0  0  0  0  0  0  0  0  0  0  0
  -30.3490  -12.3270   19.2400 C   0  0  0  0  0  2  0  0  0  0  0  0
  -29.4020  -12.6050   18.0590 C   0  0  0  0  0  2  0  0  0  0  0  0
  -27.9290  -12.4750   18.4960 C   0  0  0  0  0  2  0  0  0  0  0  0
  -27.6190  -13.2610   19.7980 C   0  0  0  0  0  3  0  0  0  0  0  0
  -28.6750  -12.9660   20.8840 C   0  0  0  0  0  2  0  0  0  0  0  0
  -30.0110  -13.2540   20.3290 N   0  0  0  0  0  0  0  0  0  0  0  0
  -31.7490  -14.6680   19.9000 O   0  0  0  0  0  0  0  0  0  0  0  0
  -30.2480  -15.2080   21.4780 N   0  0  0  0  0  0  0  0  0  0  0  0
  -29.4330  -14.9010   21.9880 H   0  0  0  0  0  0  0  0  0  0  0  0
  -25.2140  -13.8670   20.4990 C   0  0  0  0  0  0  0  0  0  0  0  0
  -24.1490  -13.0930   20.8720 C   0  0  0  0  0  0  0  0  0  0  0  0
  -24.6140  -11.7430   20.8450 C   0  0  0  0  0  0  0  0  0  0  0  0
  -26.2630  -12.9880   20.2730 N   0  0  0  0  0  0  0  0  0  0  0  0
  -25.9020  -11.7050   20.5340 N   0  0  0  0  0  0  0  0  0  0  0  0
  -23.8920  -10.4780   21.0420 C   0  0  0  0  0  0  0  0  0  0  0  0
  -24.3340   -9.5110   21.9720 C   0  0  0  0  0  3  0  0  0  0  0  0
  -23.6110   -8.3120   22.1560 C   0  0  0  0  0  3  0  0  0  0  0  0
  -22.4340   -8.0710   21.4090 C   0  0  0  0  0  0  0  0  0  0  0  0
  -22.0120   -9.0260   20.4680 C   0  0  0  0  0  3  0  0  0  0  0  0
  -22.7340  -10.2170   20.2820 C   0  0  0  0  0  3  0  0  0  0  0  0
  -21.6840   -6.9230   21.5010 O   0  0  0  0  0  0  0  0  0  0  0  0
  -21.6560   -6.1720   22.6490 C   0  0  0  0  0  0  0  0  0  0  0  0
  -21.2530   -6.7180   23.8880 C   0  0  0  0  0  3  0  0  0  0  0  0
  -21.1710   -5.8940   25.0270 C   0  0  0  0  0  3  0  0  0  0  0  0
  -21.4830   -4.5230   24.9300 C   0  0  0  0  0  0  0  0  0  0  0  0
  -21.8800   -3.9770   23.6970 C   0  0  0  0  0  3  0  0  0  0  0  0
  -21.9640   -4.7990   22.5590 C   0  0  0  0  0  0  0  0  0  0  0  0
  -22.3250   -4.2640   21.3690 F   0  0  0  0  0  0  0  0  0  0  0  0
  -21.3990   -3.7300   26.0220 F   0  0  0  0  0  0  0  0  0  0  0  0
  -22.7500  -13.5660   21.1480 C   0  0  0  0  0  0  0  0  0  0  0  0
  -22.0270  -12.8720   22.0190 N   0  0  0  0  0  0  0  0  0  0  0  0
  -22.3080  -14.5890   20.6260 O   0  0  0  0  0  0  0  0  0  0  0  0
  -22.3970  -12.0450   22.4650 H   0  0  0  0  0  0  0  0  0  0  0  0
  -21.0890  -13.1710   22.2440 H   0  0  0  0  0  0  0  0  0  0  0  0
  -25.3740  -15.2370   20.3150 N   0  0  0  0  0  0  0  0  0  0  0  0
  -24.6050  -15.8890   20.4200 H   0  0  0  0  0  0  0  0  0  0  0  0
  -26.2250  -15.6770   19.9900 H   0  0  0  0  0  0  0  0  0  0  0  0
  -29.6890  -23.2540   20.0650 N   0  0  0  0  0  4  0  0  0  0  0  0
  -28.7770  -22.8910   20.2960 H   0  0  0  0  0  0  0  0  0  0  0  0
  -29.8400  -23.0800   19.0820 H   0  0  0  0  0  0  0  0  0  0  0  0
  -29.7090  -24.7230   20.3030 C   0  0  0  0  0  2  0  0  0  0  0  0
  -28.4660  -25.4250   19.7260 C   0  0  0  0  0  2  0  0  0  0  0  0
  -28.4300  -26.7900   20.1510 O   0  0  0  0  0  0  0  0  0  0  0  0
  -24.5650  -31.8830   23.2400 C   0  0  0  0  0  0  0  0  0  0  0  0
  -27.2250  -27.4650   20.1340 C   0  0  0  0  0  0  0  0  0  0  0  0
  -23.3600  -30.4880   21.5910 C   0  0  0  0  0  3  0  0  0  0  0  0
  -24.8140  -28.9540   20.1610 C   0  0  0  0  0  0  0  0  0  0  0  0
  -25.8870  -30.8410   21.4030 C   0  0  0  0  0  2  0  0  0  0  0  0
  -25.9690  -29.4790   20.7540 C   0  0  0  0  0  0  0  0  0  0  0  0
  -27.1710  -28.7400   20.7400 C   0  0  0  0  0  3  0  0  0  0  0  0
  -26.0470  -26.9500   19.5360 C   0  0  0  0  0  3  0  0  0  0  0  0
  -24.8470  -27.6870   19.5530 C   0  0  0  0  0  3  0  0  0  0  0  0
  -23.5700  -29.8110   20.2100 C   0  0  0  0  0  2  0  0  0  0  0  0
  -24.6220  -31.0850   22.1360 N   0  0  0  0  0  0  0  0  0  0  0  0
  -23.4830  -32.1560   23.7760 O   0  0  0  0  0  0  0  0  0  0  0  0
  -22.7040  -29.4660   22.5460 C   0  0  0  0  0  0  0  0  0  0  0  0
  -21.3820  -29.2810   22.4060 N   0  0  0  0  0  0  0  0  0  0  0  0
  -23.3830  -28.8420   23.3640 O   0  0  0  0  0  0  0  0  0  0  0  0
  -20.8970  -29.8360   21.7170 H   0  0  0  0  0  0  0  0  0  0  0  0
  -18.0060  -28.0800   22.8740 C   0  0  0  0  0  0  0  0  0  0  0  0
  -20.5610  -28.3410   23.1700 C   0  0  0  0  0  3  0  0  0  0  0  0
  -20.6710  -26.9110   22.5940 C   0  0  0  0  0  2  0  0  0  0  0  0
  -19.5790  -26.5870   21.5700 C   0  0  0  0  0  2  0  0  0  0  0  0
  -18.1910  -26.7310   22.2020 C   0  0  0  0  0  2  0  0  0  0  0  0
  -19.1200  -28.8440   23.3140 C   0  0  0  0  0  0  0  0  0  0  0  0
  -18.8940  -30.1080   23.9020 C   0  0  0  0  0  3  0  0  0  0  0  0
  -17.5870  -30.6080   24.0560 C   0  0  0  0  0  3  0  0  0  0  0  0
  -16.4880  -29.8410   23.6320 C   0  0  0  0  0  3  0  0  0  0  0  0
  -16.6980  -28.5800   23.0460 C   0  0  0  0  0  3  0  0  0  0  0  0
  -25.8520  -32.5070   23.8660 C   0  0  0  0  0  3  0  0  0  0  0  0
  -25.5480  -33.9060   24.1920 N   0  0  0  0  0  0  0  0  0  0  0  0
  -25.8890  -34.9560   23.4310 C   0  0  0  0  0  0  0  0  0  0  0  0
  -26.5630  -34.8460   22.4030 O   0  0  0  0  0  0  0  0  0  0  0  0
  -24.9500  -34.0660   24.9900 H   0  0  0  0  0  0  0  0  0  0  0  0
  -24.1700  -36.7550   23.0630 C   0  0  0  0  0  1  0  0  0  0  0  0
  -25.4060  -36.3470   23.8810 C   0  0  0  0  0  3  0  0  0  0  0  0
  -27.5420  -37.2210   24.7180 C   0  0  0  0  0  1  0  0  0  0  0  0
  -26.4430  -37.3950   23.7710 N   0  0  0  0  0  0  0  0  0  0  0  0
  -26.0420  -38.3170   23.9140 H   0  0  0  0  0  0  0  0  0  0  0  0
  -26.3640  -31.7340   25.1440 C   0  0  1  0  0  0  0  0  0  0  0  0
  -25.2670  -31.4960   26.2080 C   0  0  0  0  0  1  0  0  0  0  0  0
  -26.9510  -30.3570   24.7540 C   0  0  0  0  0  1  0  0  0  0  0  0
  -27.5110  -32.5280   25.8100 C   0  0  0  0  0  1  0  0  0  0  0  0
  2  7  1  0
  4  6  1  0
  4  7  1  0
  5  2  1  0
  5  3  1  0
  6  1  1  0
  6  5  1  0
  7  8  1  1
  7  3  1  0
  8  9  1  0
 10 18  1  0
 11 16  1  0
 12 13  1  0
 12 11  1  0
 14 13  1  0
 14 23  1  0
 14 15  1  0
 16 10  1  0
 16 15  1  0
 17 10  2  0
 18  9  1  0
 18 19  1  0
 20 21  2  0
 21 40  1  0
 22 21  1  0
 22 25  1  0
 23 20  1  0
 23 24  1  0
 24 22  2  0
 25 26  1  0
 26 27  2  0
 28 31  1  0
 28 27  1  0
 29 28  2  0
 30 29  1  0
 30 25  2  0
 31 32  1  0
 32 33  1  0
 33 34  2  0
 35 34  1  0
 35 39  1  0
 36 35  2  0
 37 32  2  0
 37 36  1  0
 38 37  1  0
 40 41  1  0
 41 44  1  0
 41 43  1  0
 42 40  2  0
 45 46  1  0
 45 20  1  0
 47 45  1  0
 48 49  1  0
 48 51  1  0
 48  1  1  0
 50 48  1  0
 52 53  1  0
 52 51  1  0
 54 65  2  0
 55 53  1  0
 55 60  1  0
 56 64  1  0
 56 66  1  0
 57 63  1  0
 57 59  1  0
 58 64  1  0
 59 58  1  0
 60 59  2  0
 61 62  1  0
 61 55  2  0
 62 57  2  0
 63 56  1  0
 64 54  1  0
 66 68  2  0
 67 66  1  0
 69 67  1  0
 70 79  2  0
 70 75  1  0
 71 67  1  0
 71 75  1  0
 72 71  1  0
 73 74  1  0
 73 72  1  0
 74 70  1  0
 75 76  2  0
 76 77  1  0
 78 77  2  0
 79 78  1  0
 80 54  1  0
 80 81  1  0
 80 90  1  0
 81 84  1  0
 82 86  1  0
 82 81  1  0
 83 82  2  0
 86 85  1  0
 88 86  1  0
 88 89  1  0
 88 87  1  0
 90 93  1  1
 90 91  1  0
 92 90  1  0
M  ISO  4  10 100  18 100  52 101  53 101
M  END
>  <TORSDO>  (54) 
F 22

>  <SCORE>  (54) 
-13.407

>  <name>  (54) 
54

>  <ligand_id>  (54) 
54

>  <original_smiles>  (54) 
[H]c1c([H])c([H])c2c(c1[H])C([H])([H])C([H])([H])C([H])([H])C2([H])N([H])C(=O)C1([H])N(C(=O)C([H])(N([H])C(=O)C([H])(N([H])C([H])([H])[H])C([H])([H])[H])C(C([H])([H])[H])(C([H])([H])[H])C([H])([H])[H])C([H])([H])c2c([H])c(OC([H])([H])C([H])([H])[N+]([H])([H])C([H])([H])C3([H])C([H])([H])C4(C([H])([H])C([H])([H])N([H])C(=O)N5C([H])([H])C([H])([H])C([H])([H])C([H])(n6nc(-c7c([H])c([H])c(Oc8c([H])c([H])c(F)c([H])c8F)c([H])c7[H])c(C(=O)N([H])[H])c6N([H])[H])C5([H])[H])C([H])([H])C3([H])C4([H])[H])c([H])c([H])c2C1([H])[H]

>  <smiles>  (54) 
[H]c1c([H])c([H])c2c(c1[H])C([H])([H])C([H])([H])C([H])([H])C2([H])N([H])C(=O)C1([H])N(C(=O)C([H])(N([H])C(=O)C([H])(N([H])C([H])([H])[H])C([H])([H])[H])C(C([H])([H])[H])(C([H])([H])[H])C([H])([H])[H])C([H])([H])c2c([H])c(OC([H])([H])C([H])([H])[N+]([H])([H])C([H])([H])C3([H])C([H])([H])C4(C([H])([H])C([H])([H])N([H])C(=O)N5C([H])([H])C([H])([H])C([H])([H])C([H])(n6nc(-c7c([H])c([H])c(Oc8c([H])c([H])c(F)c([H])c8F)c([H])c7[H])c(C(=O)N([H])[H])c6N([H])[H])C5([H])[H])C([H])([H])C3([H])C4([H])[H])c([H])c([H])c2C1([H])[H]

$$$$
55:0:0
     RDKit          3D

 93 94  0  0  1  0  0  0  0  0999 V2000
  -24.8140  -23.2210   22.7940 N   0  0  0  0  0  2  0  0  0  0  0  0
  -24.1040  -22.5490   23.0370 H   0  0  0  0  0  0  0  0  0  0  0  0
  -24.5570  -23.5450   21.8790 H   0  0  0  0  0  0  0  0  0  0  0  0
  -26.1980  -21.7100   22.3610 C   0  0  0  0  0 15  0  0  0  0  0  0
  -29.3560  -24.2450   21.0160 C   0  0  0  0  0  2  0  0  0  0  0  0
  -28.4280  -24.0040   22.1690 C   0  0  0  0  0  2  0  0  0  0  0  0
  -27.3140  -22.9700   19.9900 C   0  0  0  0  0  2  0  0  0  0  0  0
  -27.1260  -21.4730   19.6610 C   0  0  0  0  0  2  0  0  0  0  0  0
  -28.9240  -21.5950   21.2340 C   0  0  0  0  0  2  0  0  0  0  0  0
  -28.4540  -23.0360   20.9990 C   0  0  1  0  0  0  0  0  0  0  0  0
  -27.7380  -20.6960   20.8270 C   0  0  0  0  0  2  0  0  0  0  0  0
  -29.7290  -17.8260   18.9330 C   0  0  0  0  0  0  0  0  0  0  0  0
  -31.7040  -16.4470   17.1900 C   0  0  0  0  0  2  0  0  0  0  0  0
  -33.0960  -16.9900   16.5940 C   0  0  0  0  0  2  0  0  0  0  0  0
  -32.8930  -18.0330   15.4970 C   0  0  0  0  0  2  0  0  0  0  0  0
  -31.6460  -18.8240   15.9050 C   0  0  0  0  0  3  0  0  0  0  0  0
  -30.3800  -17.9900   16.2210 C   0  0  0  0  0  2  0  0  0  0  0  0
  -30.5250  -17.4980   17.6000 N   0  0  0  0  0  0  0  0  0  0  0  0
  -30.1050  -16.7150   19.4690 O   0  0  0  0  0  0  0  0  0  0  0  0
  -28.7450  -19.1980   19.6200 N   0  0  0  0  0  2  0  0  0  0  0  0
  -28.7340  -19.7170   18.7490 H   0  0  0  0  0  0  0  0  0  0  0  0
  -30.6210  -21.0220   15.4380 C   0  0  0  0  0  0  0  0  0  0  0  0
  -30.4850  -21.7660   14.3100 C   0  0  0  0  0  0  0  0  0  0  0  0
  -31.0800  -21.0050   13.2570 C   0  0  0  0  0  0  0  0  0  0  0  0
  -31.2840  -19.8900   15.0380 N   0  0  0  0  0  0  0  0  0  0  0  0
  -31.5080  -19.8340   13.7080 N   0  0  0  0  0  0  0  0  0  0  0  0
  -31.3250  -21.3590   11.8570 C   0  0  0  0  0  0  0  0  0  0  0  0
  -30.8810  -20.5410   10.7960 C   0  0  0  0  0  3  0  0  0  0  0  0
  -31.1140  -20.9260    9.4580 C   0  0  0  0  0  3  0  0  0  0  0  0
  -31.7940  -22.1350    9.1770 C   0  0  0  0  0  0  0  0  0  0  0  0
  -32.2540  -22.9310   10.2400 C   0  0  0  0  0  3  0  0  0  0  0  0
  -32.0280  -22.5440   11.5700 C   0  0  0  0  0  3  0  0  0  0  0  0
  -32.0860  -22.5790    7.9110 O   0  0  0  0  0  0  0  0  0  0  0  0
  -31.3360  -22.1990    6.8280 C   0  0  0  0  0  0  0  0  0  0  0  0
  -29.9420  -22.4190    6.7700 C   0  0  0  0  0  3  0  0  0  0  0  0
  -29.2250  -22.0780    5.6060 C   0  0  0  0  0  3  0  0  0  0  0  0
  -29.8980  -21.5240    4.5010 C   0  0  0  0  0  0  0  0  0  0  0  0
  -31.2860  -21.3070    4.5570 C   0  0  0  0  0  3  0  0  0  0  0  0
  -32.0040  -21.6480    5.7160 C   0  0  0  0  0  0  0  0  0  0  0  0
  -33.3440  -21.4580    5.7580 F   0  0  0  0  0  0  0  0  0  0  0  0
  -29.2110  -21.2020    3.3790 F   0  0  0  0  0  0  0  0  0  0  0  0
  -29.9240  -23.1500   14.2470 C   0  0  0  0  0  0  0  0  0  0  0  0
  -29.5340  -23.5990   13.0600 N   0  0  0  0  0  0  0  0  0  0  0  0
  -29.7790  -23.8210   15.2680 O   0  0  0  0  0  0  0  0  0  0  0  0
  -29.6370  -23.0320   12.2300 H   0  0  0  0  0  0  0  0  0  0  0  0
  -29.1290  -24.5220   12.9810 H   0  0  0  0  0  0  0  0  0  0  0  0
  -30.2620  -21.2190   16.7730 N   0  0  0  0  0  0  0  0  0  0  0  0
  -29.9120  -22.1210   17.0840 H   0  0  0  0  0  0  0  0  0  0  0  0
  -30.6390  -20.6600   17.5270 H   0  0  0  0  0  0  0  0  0  0  0  0
  -24.0030  -24.7150   24.0240 C   0  0  0  0  0 15  0  0  0  0  0  0
  -22.6710  -26.6700   24.6380 C   0  0  0  0  0 15  0  0  0  0  0  0
  -22.4030  -28.7950   22.7920 C   0  0  0  0  0 15  0  0  0  0  0  0
  -23.7590  -28.2500   21.0720 O   0  0  0  0  0  1  0  0  0  0  0  0
  -25.4420  -31.7790   23.9930 C   0  0  0  0  0  0  0  0  0  0  0  0
  -25.2470  -27.6780   20.7460 C   0  0  0  0  0  3  0  0  0  0  0  0
  -24.6000  -29.8020   22.7860 C   0  0  0  0  0  3  0  0  0  0  0  0
  -25.1720  -30.0620   20.2200 C   0  0  0  0  0  3  0  0  0  0  0  0
  -26.6940  -30.7120   22.1020 C   0  0  0  0  0  2  0  0  0  0  0  0
  -26.3270  -29.7720   20.9610 C   0  0  0  0  0  3  0  0  0  0  0  0
  -26.4810  -28.3820   21.1220 C   0  0  0  0  0  2  0  0  0  0  0  0
  -25.2970  -27.7170   19.3930 C   0  0  0  0  0  2  0  0  0  0  0  0
  -24.8630  -29.0530   19.1980 C   0  0  0  0  0  2  0  0  0  0  0  0
  -24.1450  -30.5440   21.3010 C   0  0  0  0  0  2  0  0  0  0  0  0
  -25.6230  -30.7510   23.1160 N   0  0  0  0  0  0  0  0  0  0  0  0
  -24.3500  -32.1320   24.4880 O   0  0  0  0  0  0  0  0  0  0  0  0
  -24.5300  -27.9680   23.2390 C   0  0  0  0  0  0  0  0  0  0  0  0
  -23.4100  -26.7750   22.4030 N   0  0  0  0  0  2  0  0  0  0  0  0
  -24.9240  -27.9150   24.3600 O   0  0  0  0  0  0  0  0  0  0  0  0
  -23.7600  -25.8260   22.4080 H   0  0  0  0  0  0  0  0  0  0  0  0
  -18.5520  -27.9130   22.6370 C   0  0  0  0  0  0  0  0  0  0  0  0
  -21.3000  -26.8640   22.5230 C   0  0  0  0  0  2  0  0  0  0  0  0
  -20.8080  -26.6660   21.1890 C   0  0  0  0  0  2  0  0  0  0  0  0
  -19.4700  -26.0270   21.1670 C   0  0  0  0  0  3  0  0  0  0  0  0
  -18.2710  -26.7180   21.7920 C   0  0  0  0  0  3  0  0  0  0  0  0
  -19.9340  -28.1280   23.0540 C   0  0  0  0  0  0  0  0  0  0  0  0
  -19.8260  -29.4550   23.7660 C   0  0  0  0  0  3  0  0  0  0  0  0
  -18.6260  -30.2830   23.9860 C   0  0  0  0  0  3  0  0  0  0  0  0
  -17.3500  -29.9070   23.5270 C   0  0  0  0  0  3  0  0  0  0  0  0
  -17.3510  -28.6930   22.8580 C   0  0  0  0  0  3  0  0  0  0  0  0
  -26.7410  -32.3250   24.5730 C   0  0  0  0  0  3  0  0  0  0  0  0
  -26.4870  -33.6620   25.1070 N   0  0  0  0  0  0  0  0  0  0  0  0
  -26.7300  -34.7830   24.4240 C   0  0  0  0  0  0  0  0  0  0  0  0
  -27.2250  -34.7880   23.2960 O   0  0  0  0  0  0  0  0  0  0  0  0
  -26.0120  -33.7270   25.9970 H   0  0  0  0  0  0  0  0  0  0  0  0
  -25.0730  -36.6650   24.5690 C   0  0  0  0  0  1  0  0  0  0  0  0
  -26.3950  -36.1120   25.1230 C   0  0  0  0  0  3  0  0  0  0  0  0
  -28.6820  -36.7560   25.7210 C   0  0  0  0  0  1  0  0  0  0  0  0
  -27.4680  -37.1170   24.9920 N   0  0  0  0  0  0  0  0  0  0  0  0
  -27.1550  -38.0220   25.3300 H   0  0  0  0  0  0  0  0  0  0  0  0
  -27.2780  -31.3410   25.6780 C   0  0  1  0  0  0  0  0  0  0  0  0
  -26.2470  -31.0320   26.7910 C   0  0  0  0  0  1  0  0  0  0  0  0
  -27.7540  -29.9840   25.1040 C   0  0  0  0  0  1  0  0  0  0  0  0
  -28.5310  -31.9710   26.3110 C   0  0  0  0  0  1  0  0  0  0  0  0
  1  2  1  0
  3  1  1  0
  5  6  1  0
 10  7  1  6
  8  7  1  0
  8 11  1  0
 10  5  1  0
 10  9  1  0
 10  6  1  0
 11  9  1  0
 12 19  2  0
 12 20  1  0
 13 18  1  0
 14 13  1  0
 15 16  1  0
 15 14  1  0
 16 25  1  0
 16 17  1  0
 17 18  1  0
 18 12  1  0
 21 20  1  0
 22 47  1  0
 23 22  2  0
 24 26  2  0
 24 23  1  0
 25 22  1  0
 26 25  1  0
 27 24  1  0
 28 27  2  0
 29 28  1  0
 30 29  2  0
 30 31  1  0
 31 32  2  0
 32 27  1  0
 33 30  1  0
 34 33  1  0
 35 34  1  0
 36 35  2  0
 37 38  2  0
 37 36  1  0
 38 39  1  0
 39 40  1  0
 39 34  2  0
 41 37  1  0
 42 23  1  0
 42 44  2  0
 43 42  1  0
 45 43  1  0
 46 43  1  0
 47 48  1  0
 47 49  1  0
 54 65  2  0
 55 53  1  0
 55 60  1  0
 56 64  1  0
 56 66  1  0
 57 62  1  0
 57 59  1  0
 57 63  1  0
 58 64  1  0
 59 60  1  0
 59 58  1  0
 61 55  1  0
 62 61  1  0
 63 56  1  0
 64 54  1  0
 66 68  2  0
 67 69  1  0
 67 66  1  0
 70 79  2  0
 70 75  1  0
 71 75  1  0
 72 71  1  0
 73 72  1  0
 73 74  2  0
 74 70  1  0
 75 76  2  0
 76 77  1  0
 78 77  2  0
 79 78  1  0
 80 54  1  0
 80 81  1  0
 80 90  1  0
 81 84  1  0
 82 81  1  0
 82 86  1  0
 83 82  2  0
 86 85  1  0
 88 86  1  0
 88 89  1  0
 88 87  1  0
 90 93  1  1
 90 91  1  0
 92 90  1  0
M  ISO  4  12 100  20 100  52 101  53 101
M  END
>  <TORSDO>  (55) 
F 21

>  <SCORE>  (55) 
-1.662

>  <name>  (55) 
55

>  <ligand_id>  (55) 
55

>  <original_smiles>  (55) 
[H]c1c([H])c([H])c2c(c1[H])C([H])([H])C([H])([H])C([H])([H])C2([H])N([H])C(=O)C1([H])N(C(=O)C([H])(N([H])C(=O)C([H])(N([H])C([H])([H])[H])C([H])([H])[H])C(C([H])([H])[H])(C([H])([H])[H])C([H])([H])[H])C([H])([H])c2c([H])c(OC([H])([H])C([H])([H])C([H])([H])[N+]([H])([H])C([H])([H])C3(N([H])C(=O)N4C([H])([H])C([H])([H])C([H])([H])C([H])(n5nc(-c6c([H])c([H])c(Oc7c([H])c([H])c(F)c([H])c7F)c([H])c6[H])c(C(=O)N([H])[H])c5N([H])[H])C4([H])[H])C([H])([H])C([H])([H])C4(C([H])([H])C4([H])[H])C3([H])[H])c([H])c([H])c2C1([H])[H]

>  <smiles>  (55) 
[H]c1c([H])c([H])c2c(c1[H])C([H])([H])C([H])([H])C([H])([H])C2([H])N([H])C(=O)C1([H])N(C(=O)C([H])(N([H])C(=O)C([H])(N([H])C([H])([H])[H])C([H])([H])[H])C(C([H])([H])[H])(C([H])([H])[H])C([H])([H])[H])C([H])([H])c2c([H])c(OC([H])([H])C([H])([H])C([H])([H])[N+]([H])([H])C([H])([H])C3(N([H])C(=O)N4C([H])([H])C([H])([H])C([H])([H])C([H])(n5nc(-c6c([H])c([H])c(Oc7c([H])c([H])c(F)c([H])c7F)c([H])c6[H])c(C(=O)N([H])[H])c5N([H])[H])C4([H])[H])C([H])([H])C([H])([H])C4(C([H])([H])C4([H])[H])C3([H])[H])c([H])c([H])c2C1([H])[H]

$$$$
56:0:0
     RDKit          3D

100107  0  0  1  0  0  0  0  0999 V2000
  -31.0040  -22.9700   17.6810 C   0  0  0  0  0  2  0  0  0  0  0  0
  -30.9530  -23.2170   16.1520 C   0  0  0  0  0  2  0  0  0  0  0  0
  -31.0900  -24.6860   15.7270 C   0  0  0  0  0  2  0  0  0  0  0  0
  -30.0580  -25.5300   16.3520 N   0  0  0  0  0  4  0  0  0  0  0  0
  -29.9410  -25.2080   17.2990 H   0  0  0  0  0  0  0  0  0  0  0  0
  -29.1700  -25.4060   15.8860 H   0  0  0  0  0  0  0  0  0  0  0  0
  -30.4090  -26.9620   16.4060 C   0  0  0  0  0  2  0  0  0  0  0  0
  -29.8090  -27.6050   17.6570 C   0  0  0  0  0  2  0  0  0  0  0  0
  -30.3960  -27.0210   18.9580 C   0  0  0  0  0  2  0  0  0  0  0  0
  -29.5780  -27.4330   20.1790 C   0  0  0  0  0  2  0  0  0  0  0  0
  -28.3120  -26.7860   20.0570 O   0  0  0  0  0  0  0  0  0  0  0  0
  -24.5180  -31.9110   23.2470 C   0  0  0  0  0  0  0  0  0  0  0  0
  -27.1610  -27.5370   20.1290 C   0  0  0  0  0  0  0  0  0  0  0  0
  -23.2900  -30.4990   21.6210 C   0  0  0  0  0  3  0  0  0  0  0  0
  -24.7320  -28.9790   20.1640 C   0  0  0  0  0  0  0  0  0  0  0  0
  -25.7990  -30.8880   21.3860 C   0  0  0  0  0  2  0  0  0  0  0  0
  -25.8820  -29.5230   20.7470 C   0  0  0  0  0  0  0  0  0  0  0  0
  -27.0880  -28.8080   20.7440 C   0  0  0  0  0  3  0  0  0  0  0  0
  -25.9930  -26.9870   19.5630 C   0  0  0  0  0  3  0  0  0  0  0  0
  -24.7790  -27.7030   19.5760 C   0  0  0  0  0  3  0  0  0  0  0  0
  -23.4750  -29.8170   20.2360 C   0  0  0  0  0  2  0  0  0  0  0  0
  -24.5520  -31.1160   22.1410 N   0  0  0  0  0  0  0  0  0  0  0  0
  -23.4480  -32.1750   23.8100 O   0  0  0  0  0  0  0  0  0  0  0  0
  -22.6700  -29.4700   22.5930 C   0  0  0  0  0  0  0  0  0  0  0  0
  -21.3470  -29.2730   22.4810 N   0  0  0  0  0  0  0  0  0  0  0  0
  -23.3740  -28.8540   23.3960 O   0  0  0  0  0  0  0  0  0  0  0  0
  -20.8420  -29.8230   21.8020 H   0  0  0  0  0  0  0  0  0  0  0  0
  -17.9960  -28.0400   22.9910 C   0  0  0  0  0  0  0  0  0  0  0  0
  -20.5500  -28.3270   23.2560 C   0  0  0  0  0  3  0  0  0  0  0  0
  -20.6690  -26.8960   22.6800 C   0  0  0  0  0  2  0  0  0  0  0  0
  -19.5660  -26.5590   21.6730 C   0  0  0  0  0  2  0  0  0  0  0  0
  -18.1850  -26.6920   22.3220 C   0  0  0  0  0  2  0  0  0  0  0  0
  -19.1080  -28.8170   23.4120 C   0  0  0  0  0  0  0  0  0  0  0  0
  -18.8750  -30.0850   23.9900 C   0  0  0  0  0  3  0  0  0  0  0  0
  -17.5650  -30.5710   24.1590 C   0  0  0  0  0  3  0  0  0  0  0  0
  -16.4680  -29.7870   23.7590 C   0  0  0  0  0  3  0  0  0  0  0  0
  -16.6860  -28.5260   23.1760 C   0  0  0  0  0  3  0  0  0  0  0  0
  -25.8180  -32.5390   23.8470 C   0  0  0  0  0  3  0  0  0  0  0  0
  -25.5180  -33.9380   24.1770 N   0  0  0  0  0  0  0  0  0  0  0  0
  -25.8540  -34.9860   23.4130 C   0  0  0  0  0  0  0  0  0  0  0  0
  -26.5200  -34.8800   22.3810 O   0  0  0  0  0  0  0  0  0  0  0  0
  -24.9300  -34.0970   24.9830 H   0  0  0  0  0  0  0  0  0  0  0  0
  -24.1260  -36.7760   23.0570 C   0  0  0  0  0  1  0  0  0  0  0  0
  -25.3680  -36.3770   23.8690 C   0  0  0  0  0  3  0  0  0  0  0  0
  -27.5090  -37.2520   24.6940 C   0  0  0  0  0  1  0  0  0  0  0  0
  -26.4030  -37.4270   23.7550 N   0  0  0  0  0  0  0  0  0  0  0  0
  -26.0020  -38.3480   23.9080 H   0  0  0  0  0  0  0  0  0  0  0  0
  -26.3600  -31.7670   25.1120 C   0  0  1  0  0  0  0  0  0  0  0  0
  -25.2880  -31.5290   26.1970 C   0  0  0  0  0  1  0  0  0  0  0  0
  -26.9340  -30.3880   24.7080 C   0  0  0  0  0  1  0  0  0  0  0  0
  -27.5180  -32.5610   25.7600 C   0  0  0  0  0  1  0  0  0  0  0  0
  -30.4360  -21.5780   18.0050 C   0  0  0  0  0  2  0  0  0  0  0  0
  -30.9660  -20.8850   19.2770 C   0  0  0  0  0  2  0  0  0  0  0  0
  -30.6490  -19.3870   19.1430 C   0  0  0  0  0  2  0  0  0  0  0  0
  -31.1270  -18.4020   20.2350 C   0  0  0  0  0  2  0  0  0  0  0  0
  -31.4170  -16.9730   19.6700 C   0  0  0  0  0  3  0  0  0  0  0  0
  -31.7700  -14.7280   20.7300 C   0  0  0  0  0  0  0  0  0  0  0  0
  -31.3220  -12.6140   19.6040 C   0  0  0  0  0  2  0  0  0  0  0  0
  -30.4850  -12.9740   18.3630 C   0  0  0  0  0  2  0  0  0  0  0  0
  -28.9810  -12.9720   18.6910 C   0  0  0  0  0  2  0  0  0  0  0  0
  -28.6430  -13.7480   19.9930 C   0  0  0  0  0  3  0  0  0  0  0  0
  -29.6320  -13.4400   21.1450 C   0  0  0  0  0  2  0  0  0  0  0  0
  -31.0020  -13.6110   20.6350 N   0  0  0  0  0  0  0  0  0  0  0  0
  -32.9860  -14.7310   20.5330 O   0  0  0  0  0  0  0  0  0  0  0  0
  -31.0750  -15.8820   20.6240 N   0  0  0  0  0  0  0  0  0  0  0  0
  -30.1080  -15.8210   20.9060 H   0  0  0  0  0  0  0  0  0  0  0  0
  -26.2860  -14.5460   20.6190 C   0  0  0  0  0  0  0  0  0  0  0  0
  -25.1230  -13.8680   20.8570 C   0  0  0  0  0  0  0  0  0  0  0  0
  -25.4450  -12.4810   20.7370 C   0  0  0  0  0  0  0  0  0  0  0  0
  -27.2460  -13.5770   20.3780 N   0  0  0  0  0  0  0  0  0  0  0  0
  -26.7420  -12.3270   20.5040 N   0  0  0  0  0  0  0  0  0  0  0  0
  -24.5860  -11.2940   20.7750 C   0  0  0  0  0  0  0  0  0  0  0  0
  -24.8990  -10.1820   21.5920 C   0  0  0  0  0  3  0  0  0  0  0  0
  -24.0460   -9.0580   21.6260 C   0  0  0  0  0  3  0  0  0  0  0  0
  -22.8670   -9.0360   20.8450 C   0  0  0  0  0  0  0  0  0  0  0  0
  -22.5720  -10.1350   20.0190 C   0  0  0  0  0  3  0  0  0  0  0  0
  -23.4220  -11.2510   19.9820 C   0  0  0  0  0  3  0  0  0  0  0  0
  -21.9930   -7.9780   20.8000 O   0  0  0  0  0  0  0  0  0  0  0  0
  -21.8620   -7.1070   21.8530 C   0  0  0  0  0  0  0  0  0  0  0  0
  -21.5280   -7.5500   23.1510 C   0  0  0  0  0  3  0  0  0  0  0  0
  -21.3330   -6.6130   24.1860 C   0  0  0  0  0  3  0  0  0  0  0  0
  -21.4650   -5.2370   23.9260 C   0  0  0  0  0  0  0  0  0  0  0  0
  -21.7930   -4.7940   22.6350 C   0  0  0  0  0  3  0  0  0  0  0  0
  -21.9910   -5.7260   21.6000 C   0  0  0  0  0  0  0  0  0  0  0  0
  -22.2870   -5.2930   20.3510 F   0  0  0  0  0  0  0  0  0  0  0  0
  -21.2720   -4.3370   24.9190 F   0  0  0  0  0  0  0  0  0  0  0  0
  -23.7680  -14.4680   21.0950 C   0  0  0  0  0  0  0  0  0  0  0  0
  -22.9290  -13.7980   21.8770 N   0  0  0  0  0  0  0  0  0  0  0  0
  -23.4660  -15.5650   20.6240 O   0  0  0  0  0  0  0  0  0  0  0  0
  -23.1890  -12.9100   22.2760 H   0  0  0  0  0  0  0  0  0  0  0  0
  -22.0170  -14.1800   22.0840 H   0  0  0  0  0  0  0  0  0  0  0  0
  -26.6000  -15.9030   20.5700 N   0  0  0  0  0  0  0  0  0  0  0  0
  -25.8790  -16.6100   20.6740 H   0  0  0  0  0  0  0  0  0  0  0  0
  -27.5030  -16.2890   20.3290 H   0  0  0  0  0  0  0  0  0  0  0  0
  -30.7550  -16.6850   18.2750 C   0  0  0  0  0  2  0  0  0  0  0  0
  -31.5730  -17.0090   17.0090 C   0  0  0  0  0  0  0  0  0  0  0  0
  -31.0070  -16.7010   15.8440 N   0  0  0  0  0  0  0  0  0  0  0  0
  -32.6950  -17.5110   17.0530 O   0  0  0  0  0  0  0  0  0  0  0  0
  -30.0740  -16.3150   15.8060 H   0  0  0  0  0  0  0  0  0  0  0  0
  -31.4990  -16.8550   14.9740 H   0  0  0  0  0  0  0  0  0  0  0  0
  1 52  1  0
  2  1  1  0
  3  2  1  0
  3  4  1  0
  4  7  1  0
  4  5  1  0
  6  4  1  0
  7  8  1  0
  8  9  1  0
  9 10  1  0
 11 13  1  0
 11 10  1  0
 12 23  2  0
 13 18  1  0
 14 22  1  0
 14 24  1  0
 15 21  1  0
 15 17  1  0
 16 22  1  0
 17 16  1  0
 18 17  2  0
 19 20  1  0
 19 13  2  0
 20 15  2  0
 21 14  1  0
 22 12  1  0
 24 26  2  0
 25 24  1  0
 27 25  1  0
 28 37  2  0
 28 33  1  0
 29 25  1  0
 29 33  1  0
 30 29  1  0
 31 32  1  0
 31 30  1  0
 32 28  1  0
 33 34  2  0
 34 35  1  0
 36 35  2  0
 37 36  1  0
 38 12  1  0
 38 39  1  0
 38 48  1  0
 39 42  1  0
 40 44  1  0
 40 39  1  0
 41 40  2  0
 44 43  1  0
 46 44  1  0
 46 47  1  0
 46 45  1  0
 48 51  1  1
 48 49  1  0
 50 48  1  0
 52 53  1  0
 54 53  1  0
 54 55  1  0
 56 95  1  0
 56 55  1  0
 56 65  1  0
 58 63  1  0
 59 60  1  0
 59 58  1  0
 61 60  1  0
 61 70  1  0
 61 62  1  0
 63 57  1  0
 63 62  1  0
 64 57  2  0
 65 57  1  0
 65 66  1  0
 67 68  2  0
 68 87  1  0
 69 72  1  0
 69 68  1  0
 70 71  1  0
 70 67  1  0
 71 69  2  0
 72 73  1  0
 73 74  2  0
 75 74  1  0
 76 75  2  0
 77 76  1  0
 77 72  2  0
 78 75  1  0
 78 79  1  0
 79 80  1  0
 80 81  2  0
 82 81  1  0
 82 86  1  0
 83 82  2  0
 84 79  2  0
 84 83  1  0
 85 84  1  0
 87 88  1  0
 88 91  1  0
 88 90  1  0
 89 87  2  0
 92 67  1  0
 92 93  1  0
 94 92  1  0
 96 98  2  0
 96 95  1  0
 97 96  1  0
 99 97  1  0
100 97  1  0
M  ISO  4  10 101  11 101  57 100  65 100
M  END
>  <TORSDO>  (56) 
F 30

>  <SCORE>  (56) 
-8.819

>  <name>  (56) 
56

>  <ligand_id>  (56) 
56

>  <original_smiles>  (56) 
[H]c1c([H])c([H])c2c(c1[H])C([H])([H])C([H])([H])C([H])([H])C2([H])N([H])C(=O)C1([H])N(C(=O)C([H])(N([H])C(=O)C([H])(N([H])C([H])([H])[H])C([H])([H])[H])C(C([H])([H])[H])(C([H])([H])[H])C([H])([H])[H])C([H])([H])c2c([H])c(OC([H])([H])C([H])([H])C([H])([H])C([H])([H])[N+]([H])([H])C([H])([H])C([H])([H])C([H])([H])C([H])([H])C([H])([H])C([H])([H])C([H])([H])C([H])(N([H])C(=O)N3C([H])([H])C([H])([H])C([H])([H])C([H])(n4nc(-c5c([H])c([H])c(Oc6c([H])c([H])c(F)c([H])c6F)c([H])c5[H])c(C(=O)N([H])[H])c4N([H])[H])C3([H])[H])C([H])([H])C(=O)N([H])[H])c([H])c([H])c2C1([H])[H]

>  <smiles>  (56) 
[H]c1c([H])c([H])c2c(c1[H])C([H])([H])C([H])([H])C([H])([H])C2([H])N([H])C(=O)C1([H])N(C(=O)C([H])(N([H])C(=O)C([H])(N([H])C([H])([H])[H])C([H])([H])[H])C(C([H])([H])[H])(C([H])([H])[H])C([H])([H])[H])C([H])([H])c2c([H])c(OC([H])([H])C([H])([H])C([H])([H])C([H])([H])[N+]([H])([H])C([H])([H])C([H])([H])C([H])([H])C([H])([H])C([H])([H])C([H])([H])C([H])([H])C([H])(N([H])C(=O)N3C([H])([H])C([H])([H])C([H])([H])C([H])(n4nc(-c5c([H])c([H])c(Oc6c([H])c([H])c(F)c([H])c6F)c([H])c5[H])c(C(=O)N([H])[H])c4N([H])[H])C3([H])[H])C([H])([H])C(=O)N([H])[H])c([H])c([H])c2C1([H])[H]

$$$$
57:0:0
     RDKit          3D

 97105  0  0  1  0  0  0  0  0999 V2000
  -29.4180  -21.7840   20.0000 C   0  0  0  0  0  2  0  0  0  0  0  0
  -30.2080  -21.0660   17.7120 C   0  0  0  0  0  2  0  0  0  0  0  0
  -29.7820  -20.3910   20.5520 C   0  0  0  0  0  2  0  0  0  0  0  0
  -30.5720  -19.6800   18.2740 C   0  0  0  0  0  2  0  0  0  0  0  0
  -30.2820  -22.1790   18.7810 C   0  0  0  0  0  3  0  0  0  0  0  0
  -29.6650  -19.3000   19.4620 C   0  0  0  0  0  3  0  0  0  0  0  0
  -29.8590  -23.5380   18.1690 C   0  0  0  0  0  2  0  0  0  0  0  0
  -30.3080  -24.7150   18.9480 N   0  0  0  0  0  4  0  0  0  0  0  0
  -31.3070  -24.6640   19.0710 H   0  0  0  0  0  0  0  0  0  0  0  0
  -29.8720  -24.6770   19.8560 H   0  0  0  0  0  0  0  0  0  0  0  0
  -29.9510  -26.0050   18.3110 C   0  0  0  0  0  2  0  0  0  0  0  0
  -30.4450  -27.2590   19.0720 C   0  0  0  0  0  2  0  0  0  0  0  0
  -29.9920  -27.3660   20.5400 C   0  0  0  0  0  2  0  0  0  0  0  0
  -28.7080  -26.7730   20.6800 O   0  0  0  0  0  0  0  0  0  0  0  0
  -24.7000  -32.0230   23.3960 C   0  0  0  0  0  0  0  0  0  0  0  0
  -27.5800  -27.5530   20.6080 C   0  0  0  0  0  0  0  0  0  0  0  0
  -23.5950  -30.5290   21.7620 C   0  0  0  0  0  3  0  0  0  0  0  0
  -25.1440  -28.9730   20.4650 C   0  0  0  0  0  0  0  0  0  0  0  0
  -26.1140  -30.9480   21.6530 C   0  0  0  0  0  2  0  0  0  0  0  0
  -26.2610  -29.5570   21.0750 C   0  0  0  0  0  0  0  0  0  0  0  0
  -27.4830  -28.8560   21.1500 C   0  0  0  0  0  3  0  0  0  0  0  0
  -26.4420  -26.9700   20.0170 C   0  0  0  0  0  3  0  0  0  0  0  0
  -25.2270  -27.6740   19.9350 C   0  0  0  0  0  3  0  0  0  0  0  0
  -23.8770  -29.7980   20.4230 C   0  0  0  0  0  2  0  0  0  0  0  0
  -24.8180  -31.1830   22.3300 N   0  0  0  0  0  0  0  0  0  0  0  0
  -23.5920  -32.2930   23.8800 O   0  0  0  0  0  0  0  0  0  0  0  0
  -22.9240  -29.5350   22.7360 C   0  0  0  0  0  0  0  0  0  0  0  0
  -21.6200  -29.2870   22.5310 N   0  0  0  0  0  0  0  0  0  0  0  0
  -23.5760  -28.9850   23.6270 O   0  0  0  0  0  0  0  0  0  0  0  0
  -21.1550  -29.7830   21.7850 H   0  0  0  0  0  0  0  0  0  0  0  0
  -18.2810  -27.9430   22.8430 C   0  0  0  0  0  0  0  0  0  0  0  0
  -20.7910  -28.3580   23.2990 C   0  0  0  0  0  3  0  0  0  0  0  0
  -21.0120  -26.9000   22.8330 C   0  0  0  0  0  2  0  0  0  0  0  0
  -20.0150  -26.4520   21.7590 C   0  0  0  0  0  2  0  0  0  0  0  0
  -18.5800  -26.5630   22.2790 C   0  0  0  0  0  2  0  0  0  0  0  0
  -19.3210  -28.7910   23.3060 C   0  0  0  0  0  0  0  0  0  0  0  0
  -18.9920  -30.0780   23.7870 C   0  0  0  0  0  3  0  0  0  0  0  0
  -17.6550  -30.5170   23.8110 C   0  0  0  0  0  3  0  0  0  0  0  0
  -16.6280  -29.6680   23.3650 C   0  0  0  0  0  3  0  0  0  0  0  0
  -16.9410  -28.3830   22.8870 C   0  0  0  0  0  3  0  0  0  0  0  0
  -25.9460  -32.7040   24.0440 C   0  0  0  0  0  3  0  0  0  0  0  0
  -26.4270  -31.9940   25.3680 C   0  0  1  0  0  0  0  0  0  0  0  0
  -25.2910  -31.7460   26.3870 C   0  0  0  0  0  1  0  0  0  0  0  0
  -27.0790  -30.6280   25.0470 C   0  0  0  0  0  1  0  0  0  0  0  0
  -27.5120  -32.8510   26.0600 C   0  0  0  0  0  1  0  0  0  0  0  0
  -25.5990  -34.1080   24.3030 N   0  0  0  0  0  0  0  0  0  0  0  0
  -25.9440  -35.1340   23.5130 C   0  0  0  0  0  0  0  0  0  0  0  0
  -26.6590  -35.0000   22.5160 O   0  0  0  0  0  0  0  0  0  0  0  0
  -24.9690  -34.2830   25.0720 H   0  0  0  0  0  0  0  0  0  0  0  0
  -24.1950  -36.8680   23.0140 C   0  0  0  0  0  1  0  0  0  0  0  0
  -25.4110  -36.5290   23.8890 C   0  0  0  0  0  3  0  0  0  0  0  0
  -27.4980  -37.4890   24.7530 C   0  0  0  0  0  1  0  0  0  0  0  0
  -26.4260  -37.5980   23.7680 N   0  0  0  0  0  0  0  0  0  0  0  0
  -25.9970  -38.5150   23.8670 H   0  0  0  0  0  0  0  0  0  0  0  0
  -29.8700  -17.8370   19.9690 C   0  0  0  0  0  3  0  0  0  0  0  0
  -27.3200  -17.4020   20.2800 C   0  0  0  0  0  1  0  0  0  0  0  0
  -28.7240  -17.3570   20.8990 C   0  0  0  0  0  2  0  0  0  0  0  0
  -31.2650  -17.6110   20.6150 C   0  0  0  0  0  2  0  0  0  0  0  0
  -31.4140  -16.3860   21.5470 C   0  0  0  0  0  2  0  0  0  0  0  0
  -31.0830  -14.3490   20.1380 C   0  0  0  0  0  0  0  0  0  0  0  0
  -30.6250  -12.2060   19.0010 C   0  0  0  0  0  2  0  0  0  0  0  0
  -29.6580  -12.3910   17.8170 C   0  0  0  0  0  2  0  0  0  0  0  0
  -28.1950  -12.3160   18.2910 C   0  0  0  0  0  2  0  0  0  0  0  0
  -27.9200  -13.2310   19.5140 C   0  0  0  0  0  3  0  0  0  0  0  0
  -28.9890  -13.0180   20.6080 C   0  0  0  0  0  2  0  0  0  0  0  0
  -30.3190  -13.2330   20.0090 N   0  0  0  0  0  0  0  0  0  0  0  0
  -32.0970  -14.5600   19.4670 O   0  0  0  0  0  0  0  0  0  0  0  0
  -30.6870  -15.2000   21.0940 N   0  0  0  0  0  0  0  0  0  0  0  0
  -29.8540  -14.9460   21.6030 H   0  0  0  0  0  0  0  0  0  0  0  0
  -25.5940  -13.9720   20.3340 C   0  0  0  0  0  0  0  0  0  0  0  0
  -24.4890  -13.2590   20.7180 C   0  0  0  0  0  0  0  0  0  0  0  0
  -24.8560  -11.8820   20.6210 C   0  0  0  0  0  0  0  0  0  0  0  0
  -26.5680  -13.0320   20.0340 N   0  0  0  0  0  0  0  0  0  0  0  0
  -26.1280  -11.7680   20.2610 N   0  0  0  0  0  0  0  0  0  0  0  0
  -24.0540  -10.6640   20.7970 C   0  0  0  0  0  0  0  0  0  0  0  0
  -24.4510   -9.6380   21.6830 C   0  0  0  0  0  3  0  0  0  0  0  0
  -23.6540   -8.4850   21.8470 C   0  0  0  0  0  3  0  0  0  0  0  0
  -22.4440   -8.3510   21.1250 C   0  0  0  0  0  0  0  0  0  0  0  0
  -22.0640   -9.3640   20.2290 C   0  0  0  0  0  3  0  0  0  0  0  0
  -22.8610  -10.5080   20.0620 C   0  0  0  0  0  3  0  0  0  0  0  0
  -21.6190   -7.2550   21.2020 O   0  0  0  0  0  0  0  0  0  0  0  0
  -21.5500   -6.4820   22.3340 C   0  0  0  0  0  0  0  0  0  0  0  0
  -21.2070   -7.0300   23.5890 C   0  0  0  0  0  3  0  0  0  0  0  0
  -21.0800   -6.1890   24.7140 C   0  0  0  0  0  3  0  0  0  0  0  0
  -21.2860   -4.8020   24.5830 C   0  0  0  0  0  0  0  0  0  0  0  0
  -21.6220   -4.2540   23.3320 C   0  0  0  0  0  3  0  0  0  0  0  0
  -21.7510   -5.0930   22.2100 C   0  0  0  0  0  0  0  0  0  0  0  0
  -22.0540   -4.5580   21.0030 F   0  0  0  0  0  0  0  0  0  0  0  0
  -21.1570   -3.9930   25.6590 F   0  0  0  0  0  0  0  0  0  0  0  0
  -23.1400  -13.8170   21.0660 C   0  0  0  0  0  0  0  0  0  0  0  0
  -22.4080  -13.1470   21.9500 N   0  0  0  0  0  0  0  0  0  0  0  0
  -22.7450  -14.8810   20.5880 O   0  0  0  0  0  0  0  0  0  0  0  0
  -22.7400  -12.2860   22.3570 H   0  0  0  0  0  0  0  0  0  0  0  0
  -21.5030  -13.5020   22.2240 H   0  0  0  0  0  0  0  0  0  0  0  0
  -25.8440  -15.3330   20.1950 N   0  0  0  0  0  0  0  0  0  0  0  0
  -25.1330  -16.0350   20.3650 H   0  0  0  0  0  0  0  0  0  0  0  0
  -26.7200  -15.7230   19.8730 H   0  0  0  0  0  0  0  0  0  0  0  0
  1  3  1  0
  2  4  1  0
  2  5  1  0
  4  6  1  0
  5  7  1  0
  5  1  1  0
  6 55  1  0
  6  3  1  0
  7  8  1  0
  8  9  1  0
  8 10  1  0
 11  8  1  0
 11 12  1  0
 12 13  1  0
 13 14  1  0
 15 26  2  0
 16 14  1  0
 16 21  1  0
 17 25  1  0
 17 27  1  0
 18 20  1  0
 19 25  1  0
 20 21  2  0
 20 19  1  0
 22 16  2  0
 23 22  1  0
 23 18  2  0
 24 18  1  0
 24 17  1  0
 25 15  1  0
 27 29  2  0
 28 27  1  0
 30 28  1  0
 31 40  2  0
 31 36  1  0
 32 28  1  0
 32 36  1  0
 33 32  1  0
 34 35  1  0
 34 33  1  0
 35 31  1  0
 36 37  2  0
 37 38  1  0
 39 38  2  0
 40 39  1  0
 41 15  1  0
 41 46  1  0
 41 42  1  0
 42 45  1  1
 42 43  1  0
 44 42  1  0
 46 49  1  0
 47 51  1  0
 47 46  1  0
 48 47  2  0
 51 50  1  0
 53 54  1  0
 53 51  1  0
 53 52  1  0
 55 58  1  0
 55 57  1  0
 56 57  1  0
 58 59  1  0
 60 68  1  0
 61 66  1  0
 62 63  1  0
 62 61  1  0
 64 63  1  0
 64 73  1  0
 64 65  1  0
 66 60  1  0
 66 65  1  0
 67 60  2  0
 68 59  1  0
 68 69  1  0
 70 71  2  0
 71 90  1  0
 72 71  1  0
 72 75  1  0
 73 74  1  0
 73 70  1  0
 74 72  2  0
 75 76  1  0
 76 77  2  0
 78 81  1  0
 78 77  1  0
 79 78  2  0
 80 79  1  0
 80 75  2  0
 81 82  1  0
 82 83  1  0
 83 84  2  0
 85 84  1  0
 85 89  1  0
 86 85  2  0
 87 82  2  0
 87 86  1  0
 88 87  1  0
 90 91  1  0
 91 94  1  0
 91 93  1  0
 92 90  2  0
 95 70  1  0
 95 96  1  0
 97 95  1  0
M  ISO  4  13 101  14 101  60 100  68 100
M  END
>  <TORSDO>  (57) 
F 25

>  <SCORE>  (57) 
-11.892

>  <name>  (57) 
57

>  <ligand_id>  (57) 
57

>  <original_smiles>  (57) 
[H]c1c([H])c([H])c2c(c1[H])C([H])([H])C([H])([H])C([H])([H])C2([H])N([H])C(=O)C1([H])N(C(=O)C([H])(N([H])C(=O)C([H])(N([H])C([H])([H])[H])C([H])([H])[H])C(C([H])([H])[H])(C([H])([H])[H])C([H])([H])[H])C([H])([H])c2c([H])c(OC([H])([H])C([H])([H])C([H])([H])[N+]([H])([H])C([H])([H])C3([H])C([H])([H])C([H])([H])C([H])(C([H])(C([H])([H])C([H])([H])[H])C([H])([H])C([H])([H])N([H])C(=O)N4C([H])([H])C([H])([H])C([H])([H])C([H])(n5nc(-c6c([H])c([H])c(Oc7c([H])c([H])c(F)c([H])c7F)c([H])c6[H])c(C(=O)N([H])[H])c5N([H])[H])C4([H])[H])C([H])([H])C3([H])[H])c([H])c([H])c2C1([H])[H]

>  <smiles>  (57) 
[H]c1c([H])c([H])c2c(c1[H])C([H])([H])C([H])([H])C([H])([H])C2([H])N([H])C(=O)C1([H])N(C(=O)C([H])(N([H])C(=O)C([H])(N([H])C([H])([H])[H])C([H])([H])[H])C(C([H])([H])[H])(C([H])([H])[H])C([H])([H])[H])C([H])([H])c2c([H])c(OC([H])([H])C([H])([H])C([H])([H])[N+]([H])([H])C([H])([H])C3([H])C([H])([H])C([H])([H])C([H])(C([H])(C([H])([H])C([H])([H])[H])C([H])([H])C([H])([H])N([H])C(=O)N4C([H])([H])C([H])([H])C([H])([H])C([H])(n5nc(-c6c([H])c([H])c(Oc7c([H])c([H])c(F)c([H])c7F)c([H])c6[H])c(C(=O)N([H])[H])c5N([H])[H])C4([H])[H])C([H])([H])C3([H])[H])c([H])c([H])c2C1([H])[H]

$$$$
58:0:0
     RDKit          3D

 92100  0  0  1  0  0  0  0  0999 V2000
  -28.9830  -21.8910   20.6210 C   0  0  0  0  0  3  0  0  0  0  0  0
  -29.0930  -20.3050   20.0410 C   0  0  0  0  0  3  0  0  0  0  0  0
  -29.4040  -18.9960   20.9260 C   0  0  0  0  0  2  0  0  0  0  0  0
  -29.1870  -18.4090   18.6890 C   0  0  0  0  0  2  0  0  0  0  0  0
  -29.8800  -17.7880   19.9500 C   0  0  0  0  0  3  0  0  0  0  0  0
  -29.0190  -19.8980   18.8320 N   0  0  0  0  0  2  0  0  0  0  0  0
  -30.4460  -15.0580   19.9660 C   0  0  0  0  0  0  0  0  0  0  0  0
  -30.3180  -12.7010   19.0290 C   0  0  0  0  0  2  0  0  0  0  0  0
  -29.3200  -12.6450   17.8470 C   0  0  0  0  0  2  0  0  0  0  0  0
  -27.8870  -12.4040   18.3560 C   0  0  0  0  0  2  0  0  0  0  0  0
  -27.5290  -13.3120   19.5630 C   0  0  0  0  0  3  0  0  0  0  0  0
  -28.6460  -13.3440   20.6300 C   0  0  0  0  0  2  0  0  0  0  0  0
  -29.8740  -13.7840   19.9550 N   0  0  0  0  0  0  0  0  0  0  0  0
  -31.6140  -15.1470   19.5740 O   0  0  0  0  0  0  0  0  0  0  0  0
  -29.6660  -16.2280   20.2110 N   0  0  0  0  0  0  0  0  0  0  0  0
  -28.7390  -16.0050   20.5390 H   0  0  0  0  0  0  0  0  0  0  0  0
  -25.1960  -13.8410   20.4640 C   0  0  0  0  0  0  0  0  0  0  0  0
  -24.1640  -13.0440   20.8780 C   0  0  0  0  0  0  0  0  0  0  0  0
  -24.6390  -11.6990   20.7790 C   0  0  0  0  0  0  0  0  0  0  0  0
  -26.2280  -12.9820   20.1330 N   0  0  0  0  0  0  0  0  0  0  0  0
  -25.9080  -11.6860   20.3860 N   0  0  0  0  0  0  0  0  0  0  0  0
  -23.9370  -10.4250   20.9760 C   0  0  0  0  0  0  0  0  0  0  0  0
  -24.4020   -9.4560   21.8940 C   0  0  0  0  0  3  0  0  0  0  0  0
  -23.6940   -8.2500   22.0800 C   0  0  0  0  0  3  0  0  0  0  0  0
  -22.5080   -8.0010   21.3500 C   0  0  0  0  0  0  0  0  0  0  0  0
  -22.0620   -8.9570   20.4210 C   0  0  0  0  0  3  0  0  0  0  0  0
  -22.7720  -10.1560   20.2310 C   0  0  0  0  0  3  0  0  0  0  0  0
  -21.7700   -6.8470   21.4460 O   0  0  0  0  0  0  0  0  0  0  0  0
  -21.7170   -6.1220   22.6100 C   0  0  0  0  0  0  0  0  0  0  0  0
  -21.2160   -6.6710   23.8080 C   0  0  0  0  0  3  0  0  0  0  0  0
  -21.1130   -5.8690   24.9630 C   0  0  0  0  0  3  0  0  0  0  0  0
  -21.5060   -4.5170   24.9190 C   0  0  0  0  0  0  0  0  0  0  0  0
  -22.0010   -3.9670   23.7240 C   0  0  0  0  0  3  0  0  0  0  0  0
  -22.1040   -4.7660   22.5710 C   0  0  0  0  0  0  0  0  0  0  0  0
  -22.5630   -4.2240   21.4180 F   0  0  0  0  0  0  0  0  0  0  0  0
  -21.4010   -3.7450   26.0250 F   0  0  0  0  0  0  0  0  0  0  0  0
  -22.7820  -13.4990   21.2470 C   0  0  0  0  0  0  0  0  0  0  0  0
  -22.1110  -12.7730   22.1340 N   0  0  0  0  0  0  0  0  0  0  0  0
  -22.3070  -14.5350   20.7840 O   0  0  0  0  0  0  0  0  0  0  0  0
  -22.5070  -11.9350   22.5350 H   0  0  0  0  0  0  0  0  0  0  0  0
  -21.1870  -13.0650   22.4190 H   0  0  0  0  0  0  0  0  0  0  0  0
  -25.3320  -15.2190   20.3180 N   0  0  0  0  0  0  0  0  0  0  0  0
  -24.5610  -15.8570   20.4910 H   0  0  0  0  0  0  0  0  0  0  0  0
  -26.1360  -15.6770   19.9090 H   0  0  0  0  0  0  0  0  0  0  0  0
  -30.3830  -22.1610   21.0370 N   0  0  0  0  0  4  0  0  0  0  0  0
  -30.6430  -21.3930   21.6340 H   0  0  0  0  0  0  0  0  0  0  0  0
  -30.9830  -22.1030   20.2300 H   0  0  0  0  0  0  0  0  0  0  0  0
  -31.1240  -24.5730   20.9130 C   0  0  0  0  0  1  0  0  0  0  0  0
  -30.6810  -23.3940   21.8030 C   0  0  0  0  0  2  0  0  0  0  0  0
  -28.3850  -23.2660   19.8070 C   0  0  0  0  0  2  0  0  0  0  0  0
  -27.8070  -24.7070   20.5090 C   0  0  0  0  0  2  0  0  0  0  0  0
  -28.0250  -26.1960   20.0900 O   0  0  0  0  0  0  0  0  0  0  0  0
  -24.5050  -31.8930   23.2120 C   0  0  0  0  0  0  0  0  0  0  0  0
  -26.9670  -27.1750   20.1120 C   0  0  0  0  0  0  0  0  0  0  0  0
  -23.2550  -30.5140   21.5940 C   0  0  0  0  0  3  0  0  0  0  0  0
  -24.6570  -28.9370   20.1280 C   0  0  0  0  0  0  0  0  0  0  0  0
  -25.8050  -30.7650   21.3680 C   0  0  0  0  0  2  0  0  0  0  0  0
  -25.8530  -29.3740   20.7090 C   0  0  0  0  0  0  0  0  0  0  0  0
  -27.0120  -28.5120   20.6790 C   0  0  0  0  0  3  0  0  0  0  0  0
  -25.7470  -26.8320   19.4960 C   0  0  0  0  0  3  0  0  0  0  0  0
  -24.6160  -27.6780   19.5050 C   0  0  0  0  0  3  0  0  0  0  0  0
  -23.4380  -29.8430   20.2060 C   0  0  0  0  0  2  0  0  0  0  0  0
  -24.5440  -31.0790   22.1110 N   0  0  0  0  0  0  0  0  0  0  0  0
  -23.4360  -32.1820   23.7670 O   0  0  0  0  0  0  0  0  0  0  0  0
  -22.5950  -29.5060   22.5660 C   0  0  0  0  0  0  0  0  0  0  0  0
  -21.2680  -29.3180   22.4470 N   0  0  0  0  0  0  0  0  0  0  0  0
  -23.2790  -28.8930   23.3910 O   0  0  0  0  0  0  0  0  0  0  0  0
  -20.7740  -29.8630   21.7540 H   0  0  0  0  0  0  0  0  0  0  0  0
  -17.9110  -28.0580   22.9490 C   0  0  0  0  0  0  0  0  0  0  0  0
  -20.4620  -28.3780   23.2300 C   0  0  0  0  0  3  0  0  0  0  0  0
  -20.5980  -26.9390   22.6820 C   0  0  0  0  0  2  0  0  0  0  0  0
  -19.5110  -26.5760   21.6660 C   0  0  0  0  0  2  0  0  0  0  0  0
  -18.1210  -26.7030   22.2960 C   0  0  0  0  0  2  0  0  0  0  0  0
  -19.0100  -28.8520   23.3720 C   0  0  0  0  0  0  0  0  0  0  0  0
  -18.7580  -30.1180   23.9430 C   0  0  0  0  0  3  0  0  0  0  0  0
  -17.4410  -30.5920   24.0920 C   0  0  0  0  0  3  0  0  0  0  0  0
  -16.3570  -29.7970   23.6840 C   0  0  0  0  0  3  0  0  0  0  0  0
  -16.5920  -28.5310   23.1180 C   0  0  0  0  0  3  0  0  0  0  0  0
  -25.8030  -32.5140   23.8110 C   0  0  0  0  0  3  0  0  0  0  0  0
  -25.5140  -33.9170   24.1460 N   0  0  0  0  0  0  0  0  0  0  0  0
  -25.8540  -34.9700   23.3910 C   0  0  0  0  0  0  0  0  0  0  0  0
  -26.5140  -34.8620   22.3540 O   0  0  0  0  0  0  0  0  0  0  0  0
  -24.9230  -34.0780   24.9500 H   0  0  0  0  0  0  0  0  0  0  0  0
  -24.1690  -36.8080   23.0430 C   0  0  0  0  0  1  0  0  0  0  0  0
  -25.3930  -36.3640   23.8600 C   0  0  0  0  0  3  0  0  0  0  0  0
  -27.5310  -37.2020   24.7310 C   0  0  0  0  0  1  0  0  0  0  0  0
  -26.4480  -37.3960   23.7700 N   0  0  0  0  0  0  0  0  0  0  0  0
  -26.0580  -38.3240   23.9150 H   0  0  0  0  0  0  0  0  0  0  0  0
  -26.3300  -31.7440   25.0850 C   0  0  1  0  0  0  0  0  0  0  0  0
  -25.2490  -31.5240   26.1690 C   0  0  0  0  0  1  0  0  0  0  0  0
  -26.8960  -30.3580   24.6960 C   0  0  0  0  0  1  0  0  0  0  0  0
  -27.4960  -32.5320   25.7270 C   0  0  0  0  0  1  0  0  0  0  0  0
  1 50  1  0
  1 45  1  0
  2  1  1  0
  2  3  1  0
  4  6  1  0
  4  5  1  0
  5 15  1  0
  5  3  1  0
  6  2  1  0
  7 15  1  0
  8 13  1  0
  9 10  1  0
  9  8  1  0
 11 10  1  0
 11 20  1  0
 11 12  1  0
 13  7  1  0
 13 12  1  0
 14  7  2  0
 15 16  1  0
 17 18  2  0
 18 37  1  0
 19 18  1  0
 19 22  1  0
 20 21  1  0
 20 17  1  0
 21 19  2  0
 22 23  1  0
 23 24  2  0
 25 28  1  0
 25 24  1  0
 26 25  2  0
 27 26  1  0
 27 22  2  0
 28 29  1  0
 29 30  1  0
 30 31  2  0
 32 31  1  0
 32 36  1  0
 33 32  2  0
 34 29  2  0
 34 33  1  0
 35 34  1  0
 37 38  1  0
 38 41  1  0
 38 40  1  0
 39 37  2  0
 42 17  1  0
 42 43  1  0
 44 42  1  0
 45 46  1  0
 45 49  1  0
 47 45  1  0
 48 49  1  0
 50 51  1  0
 52 54  1  0
 52 51  1  0
 53 64  2  0
 54 59  1  0
 55 63  1  0
 55 65  1  0
 56 62  1  0
 56 58  1  0
 57 63  1  0
 58 57  1  0
 59 58  2  0
 60 61  1  0
 60 54  2  0
 61 56  2  0
 62 55  1  0
 63 53  1  0
 65 67  2  0
 66 65  1  0
 68 66  1  0
 69 78  2  0
 69 74  1  0
 70 66  1  0
 70 74  1  0
 71 70  1  0
 72 73  1  0
 72 71  1  0
 73 69  1  0
 74 75  2  0
 75 76  1  0
 77 76  2  0
 78 77  1  0
 79 53  1  0
 79 80  1  0
 79 89  1  0
 80 83  1  0
 81 85  1  0
 81 80  1  0
 82 81  2  0
 85 84  1  0
 87 85  1  0
 87 88  1  0
 87 86  1  0
 89 92  1  1
 89 90  1  0
 91 89  1  0
M  ISO  4   7 100  15 100  51 101  52 101
M  END
>  <TORSDO>  (58) 
F 21

>  <SCORE>  (58) 
-14.182

>  <name>  (58) 
58

>  <ligand_id>  (58) 
58

>  <original_smiles>  (58) 
[H]c1c([H])c([H])c2c(c1[H])C([H])([H])C([H])([H])C([H])([H])C2([H])N([H])C(=O)C1([H])N(C(=O)C([H])(N([H])C(=O)C([H])(N([H])C([H])([H])[H])C([H])([H])[H])C(C([H])([H])[H])(C([H])([H])[H])C([H])([H])[H])C([H])([H])c2c([H])c(OC([H])([H])C([H])([H])C([H])(C3=NC([H])([H])C([H])(N([H])C(=O)N4C([H])([H])C([H])([H])C([H])([H])C([H])(n5nc(-c6c([H])c([H])c(Oc7c([H])c([H])c(F)c([H])c7F)c([H])c6[H])c(C(=O)N([H])[H])c5N([H])[H])C4([H])[H])C3([H])[H])[N+]([H])([H])C([H])([H])C([H])([H])[H])c([H])c([H])c2C1([H])[H]

>  <smiles>  (58) 
[H]c1c([H])c([H])c2c(c1[H])C([H])([H])C([H])([H])C([H])([H])C2([H])N([H])C(=O)C1([H])N(C(=O)C([H])(N([H])C(=O)C([H])(N([H])C([H])([H])[H])C([H])([H])[H])C(C([H])([H])[H])(C([H])([H])[H])C([H])([H])[H])C([H])([H])c2c([H])c(OC([H])([H])C([H])([H])C([H])(C3=NC([H])([H])C([H])(N([H])C(=O)N4C([H])([H])C([H])([H])C([H])([H])C([H])(n5nc(-c6c([H])c([H])c(Oc7c([H])c([H])c(F)c([H])c7F)c([H])c6[H])c(C(=O)N([H])[H])c5N([H])[H])C4([H])[H])C3([H])[H])[N+]([H])([H])C([H])([H])C([H])([H])[H])c([H])c([H])c2C1([H])[H]

$$$$
59:0:0
     RDKit          3D

 98 97  0  0  1  0  0  0  0  0999 V2000
  -24.7930  -23.9230   20.2960 C   0  0  0  0  0 15  0  0  0  0  0  0
  -23.8370  -25.6590   19.6940 C   0  0  0  0  0  1  0  0  0  0  0  0
  -22.6510  -27.0520   20.1080 N   0  0  0  0  0  0  0  0  0  0  0  0
  -22.1240  -26.6240   20.8440 H   0  0  0  0  0  0  0  0  0  0  0  0
  -22.0770  -26.9480   19.2850 H   0  0  0  0  0  0  0  0  0  0  0  0
  -22.2630  -28.9230   20.4700 C   0  0  0  0  0 15  0  0  0  0  0  0
  -22.4370  -30.1600   22.2570 C   0  0  0  0  0 15  0  0  0  0  0  0
  -23.5270  -29.6260   24.0230 C   0  0  0  0  0 15  0  0  0  0  0  0
  -25.4940  -28.8970   24.2120 C   0  0  0  0  0  1  0  0  0  0  0  0
  -26.8440  -27.9040   23.4230 O   0  0  0  0  0  0  0  0  0  0  0  0
  -25.0590  -31.8450   23.2450 C   0  0  0  0  0  0  0  0  0  0  0  0
  -27.5330  -27.7120   22.1600 C   0  0  0  0  0  3  0  0  0  0  0  0
  -24.5570  -29.5630   21.6640 C   0  0  0  0  0  3  0  0  0  0  0  0
  -26.1900  -28.8520   20.3270 C   0  0  0  0  0  3  0  0  0  0  0  0
  -26.6760  -30.9160   21.7080 C   0  0  0  0  0  2  0  0  0  0  0  0
  -27.0830  -29.5850   21.1380 C   0  0  0  0  0  3  0  0  0  0  0  0
  -28.0970  -28.8930   21.7690 C   0  0  0  0  0  2  0  0  0  0  0  0
  -27.0860  -26.8400   21.1110 C   0  0  0  0  0  2  0  0  0  0  0  0
  -26.3580  -27.4850   20.0990 C   0  0  0  0  0  2  0  0  0  0  0  0
  -24.8790  -29.4030   20.1980 C   0  0  0  0  0  2  0  0  0  0  0  0
  -25.3700  -30.7990   22.3280 N   0  0  0  0  0  0  0  0  0  0  0  0
  -23.8990  -32.2640   23.4100 O   0  0  0  0  0  0  0  0  0  0  0  0
  -24.0300  -27.9390   22.4360 C   0  0  0  0  0  0  0  0  0  0  0  0
  -22.7950  -27.5050   23.1770 N   0  0  0  0  0  0  0  0  0  0  0  0
  -24.7160  -27.0520   22.7190 O   0  0  0  0  0  0  0  0  0  0  0  0
  -23.1430  -26.7430   23.7460 H   0  0  0  0  0  0  0  0  0  0  0  0
  -18.6390  -27.8620   22.5720 C   0  0  0  0  0  0  0  0  0  0  0  0
  -21.1910  -27.5800   23.4980 C   0  0  0  0  0  3  0  0  0  0  0  0
  -20.8680  -26.1620   23.0680 C   0  0  0  0  0  2  0  0  0  0  0  0
  -20.0190  -25.9330   21.7980 C   0  0  0  0  0  2  0  0  0  0  0  0
  -18.6400  -26.4470   22.0480 C   0  0  0  0  0  2  0  0  0  0  0  0
  -19.7880  -28.4600   23.2150 C   0  0  0  0  0  0  0  0  0  0  0  0
  -19.4420  -29.7240   23.8250 C   0  0  0  0  0  3  0  0  0  0  0  0
  -18.1770  -30.3710   23.6850 C   0  0  0  0  0  3  0  0  0  0  0  0
  -17.1140  -29.7320   23.0260 C   0  0  0  0  0  3  0  0  0  0  0  0
  -17.3620  -28.4690   22.4810 C   0  0  0  0  0  3  0  0  0  0  0  0
  -26.1250  -32.5680   24.1950 C   0  0  0  0  0  3  0  0  0  0  0  0
  -25.6800  -33.9570   24.3970 N   0  0  0  0  0  0  0  0  0  0  0  0
  -26.0470  -34.9830   23.6240 C   0  0  0  0  0  0  0  0  0  0  0  0
  -26.8280  -34.8480   22.6800 O   0  0  0  0  0  0  0  0  0  0  0  0
  -24.9590  -34.1110   25.0870 H   0  0  0  0  0  0  0  0  0  0  0  0
  -24.2320  -36.6310   23.0880 C   0  0  0  0  0  1  0  0  0  0  0  0
  -25.4760  -36.3790   23.9520 C   0  0  0  0  0  3  0  0  0  0  0  0
  -27.5200  -37.4610   24.7690 C   0  0  0  0  0  1  0  0  0  0  0  0
  -26.4570  -37.4700   23.7660 N   0  0  0  0  0  0  0  0  0  0  0  0
  -26.0020  -38.3790   23.8070 H   0  0  0  0  0  0  0  0  0  0  0  0
  -26.4520  -31.9630   25.6410 C   0  0  1  0  0  0  0  0  0  0  0  0
  -25.2040  -31.4440   26.4230 C   0  0  0  0  0  1  0  0  0  0  0  0
  -27.6240  -30.9590   25.5220 C   0  0  0  0  0  1  0  0  0  0  0  0
  -27.0490  -33.0240   26.6050 C   0  0  0  0  0  1  0  0  0  0  0  0
  -25.9840  -22.3450   19.6710 C   0  0  0  0  0 15  0  0  0  0  0  0
  -27.2830  -20.7360   20.0480 C   0  0  0  0  0 15  0  0  0  0  0  0
  -28.4220  -19.0700   19.4460 C   0  0  0  0  0  2  0  0  0  0  0  0
  -30.2600  -16.1990   19.7370 C   0  0  0  0  0  0  0  0  0  0  0  0
  -30.8590  -13.6110   19.0300 C   0  0  0  0  0  2  0  0  0  0  0  0
  -30.0080  -13.0780   17.8310 C   0  0  0  0  0  2  0  0  0  0  0  0
  -28.5940  -12.7090   18.3030 C   0  0  0  0  0  2  0  0  0  0  0  0
  -28.0860  -13.7340   19.3390 C   0  0  0  0  0  3  0  0  0  0  0  0
  -29.0680  -14.0070   20.4730 C   0  0  0  0  0  2  0  0  0  0  0  0
  -30.1180  -14.7360   19.8010 N   0  0  0  0  0  0  0  0  0  0  0  0
  -31.4780  -16.3160   19.4030 O   0  0  0  0  0  0  0  0  0  0  0  0
  -29.1310  -17.3740   19.9050 N   0  0  0  0  0  0  0  0  0  0  0  0
  -28.3620  -16.8970   20.3530 H   0  0  0  0  0  0  0  0  0  0  0  0
  -25.8350  -14.3900   20.2220 C   0  0  0  0  0  0  0  0  0  0  0  0
  -24.7680  -13.6560   20.6440 C   0  0  0  0  0  0  0  0  0  0  0  0
  -25.1740  -12.2860   20.5720 C   0  0  0  0  0  0  0  0  0  0  0  0
  -26.7930  -13.4580   19.8860 N   0  0  0  0  0  0  0  0  0  0  0  0
  -26.4350  -12.1900   20.1760 N   0  0  0  0  0  0  0  0  0  0  0  0
  -24.4090  -11.0550   20.7760 C   0  0  0  0  0  0  0  0  0  0  0  0
  -24.8180  -10.0770   21.7080 C   0  0  0  0  0  3  0  0  0  0  0  0
  -24.0500   -8.9080   21.8960 C   0  0  0  0  0  3  0  0  0  0  0  0
  -22.8630   -8.7140   21.1500 C   0  0  0  0  0  0  0  0  0  0  0  0
  -22.4800   -9.6780   20.2030 C   0  0  0  0  0  3  0  0  0  0  0  0
  -23.2470  -10.8380   20.0140 C   0  0  0  0  0  3  0  0  0  0  0  0
  -22.0680   -7.5980   21.2470 O   0  0  0  0  0  0  0  0  0  0  0  0
  -21.8900   -6.9450   22.4380 C   0  0  0  0  0  0  0  0  0  0  0  0
  -21.2710   -7.5680   23.5460 C   0  0  0  0  0  3  0  0  0  0  0  0
  -21.0470   -6.8360   24.7290 C   0  0  0  0  0  3  0  0  0  0  0  0
  -21.4320   -5.4840   24.8060 C   0  0  0  0  0  0  0  0  0  0  0  0
  -22.0430   -4.8620   23.7030 C   0  0  0  0  0  3  0  0  0  0  0  0
  -22.2690   -5.5900   22.5230 C   0  0  0  0  0  0  0  0  0  0  0  0
  -22.8400   -4.9830   21.4560 F   0  0  0  0  0  0  0  0  0  0  0  0
  -21.2100   -4.7780   25.9390 F   0  0  0  0  0  0  0  0  0  0  0  0
  -23.4120  -14.1940   20.9800 C   0  0  0  0  0  0  0  0  0  0  0  0
  -22.6990  -13.5320   21.8830 N   0  0  0  0  0  0  0  0  0  0  0  0
  -22.9950  -15.2310   20.4660 O   0  0  0  0  0  0  0  0  0  0  0  0
  -23.0510  -12.6910   22.3140 H   0  0  0  0  0  0  0  0  0  0  0  0
  -21.7870  -13.8760   22.1480 H   0  0  0  0  0  0  0  0  0  0  0  0
  -26.0610  -15.7570   20.0540 N   0  0  0  0  0  0  0  0  0  0  0  0
  -25.2810  -16.3890   20.2040 H   0  0  0  0  0  0  0  0  0  0  0  0
  -26.6800  -16.0840   19.3290 H   0  0  0  0  0  0  0  0  0  0  0  0
  -27.7010  -18.6510   18.1120 C   0  0  0  0  0  2  0  0  0  0  0  0
  -26.9880  -19.7070   17.1800 C   0  0  0  0  0  2  0  0  0  0  0  0
  -25.7200  -20.5740   17.5000 C   0  0  0  0  0  2  0  0  0  0  0  0
  -24.5620  -20.2620   16.6420 N   0  0  0  0  0  4  0  0  0  0  0  0
  -24.7990  -20.3620   15.6710 H   0  0  0  0  0  0  0  0  0  0  0  0
  -23.8030  -20.8890   16.8510 H   0  0  0  0  0  0  0  0  0  0  0  0
  -24.2420  -19.3260   16.8130 H   0  0  0  0  0  0  0  0  0  0  0  0
  2  3  1  0
  3  4  1  0
  5  3  1  0
 10  9  1  0
 11 22  2  0
 12 10  1  0
 13 21  1  0
 13 23  1  0
 14 19  1  0
 14 16  1  0
 15 21  1  0
 16 15  1  0
 16 17  1  0
 17 12  1  0
 18 12  1  0
 19 18  1  0
 20 14  1  0
 20 13  1  0
 21 11  1  0
 23 25  2  0
 23 24  1  0
 24 26  1  0
 27 32  1  0
 28 24  1  0
 29 28  1  0
 30 31  1  0
 30 29  1  0
 31 27  1  0
 32 28  1  0
 32 33  2  0
 34 33  1  0
 35 34  2  0
 36 27  2  0
 36 35  1  0
 37 11  1  0
 37 38  1  0
 37 47  1  0
 38 41  1  0
 39 43  1  0
 39 38  1  0
 40 39  2  0
 43 42  1  0
 45 46  1  0
 45 43  1  0
 45 44  1  0
 47 48  1  1
 47 50  1  0
 49 47  1  0
 53 62  1  0
 54 60  1  0
 54 62  1  0
 55 60  1  0
 56 57  1  0
 56 55  1  0
 58 57  1  0
 58 67  1  0
 58 59  1  0
 60 59  1  0
 61 54  2  0
 62 63  1  0
 64 65  2  0
 65 84  1  0
 66 65  1  0
 66 69  1  0
 67 68  1  0
 67 64  1  0
 68 66  2  0
 69 70  1  0
 70 71  2  0
 72 75  1  0
 72 71  1  0
 73 72  2  0
 74 73  1  0
 74 69  2  0
 75 76  1  0
 76 81  2  0
 76 77  1  0
 77 78  2  0
 78 79  1  0
 79 83  1  0
 80 79  2  0
 81 80  1  0
 82 81  1  0
 84 85  1  0
 85 88  1  0
 85 87  1  0
 86 84  2  0
 89 90  1  0
 89 64  1  0
 91 89  1  0
 92 53  1  0
 93 94  1  0
 93 92  1  0
 95 98  1  0
 95 97  1  0
 95 94  1  0
 96 95  1  0
M  ISO  4   9 101  10 101  54 100  62 100
M  END
>  <TORSDO>  (59) 
F 29

>  <SCORE>  (59) 
-12.530

>  <name>  (59) 
59

>  <ligand_id>  (59) 
59

>  <original_smiles>  (59) 
[H]c1c([H])c([H])c2c(c1[H])C([H])([H])C([H])([H])C([H])([H])C2([H])N([H])C(=O)C1([H])N(C(=O)C([H])(N([H])C(=O)C([H])(N([H])C([H])([H])[H])C([H])([H])[H])C(C([H])([H])[H])(C([H])([H])[H])C([H])([H])[H])C([H])([H])c2c([H])c(OC([H])([H])C([H])([H])C([H])([H])C([H])([H])[N+]([H])([H])C([H])([H])C([H])([H])C([H])([H])C([H])([H])C([H])(N([H])C(=O)N3C([H])([H])C([H])([H])C([H])([H])C([H])(n4nc(-c5c([H])c([H])c(Oc6c([H])c([H])c(F)c([H])c6F)c([H])c5[H])c(C(=O)N([H])[H])c4N([H])[H])C3([H])[H])C([H])([H])C([H])([H])C([H])([H])[N+]([H])([H])[H])c([H])c([H])c2C1([H])[H]

>  <smiles>  (59) 
[H]c1c([H])c([H])c2c(c1[H])C([H])([H])C([H])([H])C([H])([H])C2([H])N([H])C(=O)C1([H])N(C(=O)C([H])(N([H])C(=O)C([H])(N([H])C([H])([H])[H])C([H])([H])[H])C(C([H])([H])[H])(C([H])([H])[H])C([H])([H])[H])C([H])([H])c2c([H])c(OC([H])([H])C([H])([H])C([H])([H])C([H])([H])[N+]([H])([H])C([H])([H])C([H])([H])C([H])([H])C([H])([H])C([H])(N([H])C(=O)N3C([H])([H])C([H])([H])C([H])([H])C([H])(n4nc(-c5c([H])c([H])c(Oc6c([H])c([H])c(F)c([H])c6F)c([H])c5[H])c(C(=O)N([H])[H])c4N([H])[H])C3([H])[H])C([H])([H])C([H])([H])C([H])([H])[N+]([H])([H])[H])c([H])c([H])c2C1([H])[H]

$$$$
60:0:0
     RDKit          3D

 99100  0  0  1  0  0  0  0  0999 V2000
  -24.7670  -18.3530   20.6730 C   0  0  0  0  0  2  0  0  0  0  0  0
  -25.8210  -18.6000   19.5310 C   0  0  0  0  0  3  0  0  0  0  0  0
  -24.9500  -19.3050   18.4800 C   0  0  0  0  0  1  0  0  0  0  0  0
  -23.6760  -17.5790   18.6190 C   0  0  0  0  0  1  0  0  0  0  0  0
  -23.4900  -17.7760   20.0790 N   0  0  0  0  0  4  0  0  0  0  0  0
  -22.7160  -18.3950   20.2560 H   0  0  0  0  0  0  0  0  0  0  0  0
  -23.2920  -16.8720   20.4940 H   0  0  0  0  0  0  0  0  0  0  0  0
  -22.7560  -15.7610   17.8850 C   0  0  0  0  0 15  0  0  0  0  0  0
  -21.5370   -9.9760   17.6340 C   0  0  0  0  0  1  0  0  0  0  0  0
  -21.8340  -11.2000   16.3990 C   0  0  0  0  0  2  0  0  0  0  0  0
  -21.3160  -11.2110   20.0100 C   0  0  0  0  0  1  0  0  0  0  0  0
  -21.9750  -12.9050   16.7450 C   0  0  0  0  0  3  0  0  0  0  0  0
  -21.4660  -13.0350   19.6890 C   0  0  0  0  0  2  0  0  0  0  0  0
  -21.9640  -13.8750   18.1690 C   0  0  0  0  0  3  0  0  0  0  0  0
  -27.3440  -18.8750   19.7460 C   0  0  0  0  0  2  0  0  0  0  0  0
  -28.1160  -17.8100   20.6440 C   0  0  0  0  0  3  0  0  0  0  0  0
  -29.0910  -16.8040   19.9390 C   0  0  0  0  0  3  0  0  0  0  0  0
  -29.7250  -15.6830   20.8410 C   0  0  0  0  0  2  0  0  0  0  0  0
  -31.6170  -13.8810   20.4550 C   0  0  0  0  0  0  0  0  0  0  0  0
  -31.5790  -11.4020   20.2710 C   0  0  0  0  0  2  0  0  0  0  0  0
  -30.7260  -10.9520   19.0620 C   0  0  0  0  0  2  0  0  0  0  0  0
  -29.2230  -10.9350   19.3970 C   0  0  0  0  0  2  0  0  0  0  0  0
  -28.8270  -12.2390   20.1220 C   0  0  0  0  0  3  0  0  0  0  0  0
  -29.7320  -12.4750   21.3340 C   0  0  0  0  0  2  0  0  0  0  0  0
  -31.0460  -12.6890   20.7670 N   0  0  0  0  0  0  0  0  0  0  0  0
  -32.7850  -13.9370   20.0630 O   0  0  0  0  0  0  0  0  0  0  0  0
  -30.8350  -14.9660   20.1670 N   0  0  0  0  0  0  0  0  0  0  0  0
  -31.3860  -15.6100   19.6210 H   0  0  0  0  0  0  0  0  0  0  0  0
  -26.6480  -13.3260   20.7740 C   0  0  0  0  0  0  0  0  0  0  0  0
  -25.5450  -12.8990   21.4320 C   0  0  0  0  0  0  0  0  0  0  0  0
  -25.7950  -11.5390   21.2800 C   0  0  0  0  0  3  0  0  0  0  0  0
  -27.4860  -12.2540   20.5880 N   0  0  0  0  0  0  0  0  0  0  0  0
  -27.0050  -11.1330   21.0750 N   0  0  0  0  0  2  0  0  0  0  0  0
  -24.8820  -10.6150   21.0290 C   0  0  0  0  0  2  0  0  0  0  0  0
  -24.9030   -9.5680   22.3880 C   0  0  0  0  0  2  0  0  0  0  0  0
  -23.9400   -8.2410   22.5110 C   0  0  0  0  0  3  0  0  0  0  0  0
  -22.8180   -7.6800   21.4330 C   0  0  0  0  0  0  0  0  0  0  0  0
  -22.4320   -8.3630   19.8960 C   0  0  0  0  0  2  0  0  0  0  0  0
  -23.2380   -9.8340   19.2590 C   0  0  0  0  0  1  0  0  0  0  0  0
  -22.1570   -6.4940   21.8050 O   0  0  0  0  0  0  0  0  0  0  0  0
  -22.1520   -5.8560   23.0610 C   0  0  0  0  0  0  0  0  0  0  0  0
  -21.6500   -6.4520   24.2490 C   0  0  0  0  0  3  0  0  0  0  0  0
  -21.5110   -5.7050   25.4460 C   0  0  0  0  0  3  0  0  0  0  0  0
  -21.8590   -4.3410   25.4820 C   0  0  0  0  0  0  0  0  0  0  0  0
  -22.3630   -3.7350   24.3200 C   0  0  0  0  0  3  0  0  0  0  0  0
  -22.5060   -4.4810   23.1300 C   0  0  0  0  0  0  0  0  0  0  0  0
  -22.9570   -3.8450   22.0230 F   0  0  0  0  0  0  0  0  0  0  0  0
  -21.7040   -3.6150   26.6190 F   0  0  0  0  0  0  0  0  0  0  0  0
  -24.2090  -13.5750   21.7310 C   0  0  0  0  0  0  0  0  0  0  0  0
  -23.2880  -12.8240   22.3520 N   0  0  0  0  0  0  0  0  0  0  0  0
  -23.8270  -14.6150   21.1860 O   0  0  0  0  0  0  0  0  0  0  0  0
  -23.5240  -11.9070   22.6980 H   0  0  0  0  0  0  0  0  0  0  0  0
  -22.3400  -13.1540   22.4400 H   0  0  0  0  0  0  0  0  0  0  0  0
  -27.0910  -14.5200   20.3300 N   0  0  0  0  0  0  0  0  0  0  0  0
  -26.7870  -15.3500   20.8100 H   0  0  0  0  0  0  0  0  0  0  0  0
  -28.0000  -14.6260   19.9040 H   0  0  0  0  0  0  0  0  0  0  0  0
  -25.6320  -21.3360   18.2490 C   0  0  0  0  0 15  0  0  0  0  0  0
  -26.0740  -23.3100   18.9640 C   0  0  0  0  0 15  0  0  0  0  0  0
  -26.7410  -25.1150   18.7380 O   0  0  0  0  0  1  0  0  0  0  0  0
  -26.8720  -31.4290   23.6260 C   0  0  0  0  0  0  0  0  0  0  0  0
  -26.3580  -26.5670   19.3010 C   0  0  0  0  0  0  0  0  0  0  0  0
  -24.9840  -29.9650   23.1710 C   0  0  0  0  0  3  0  0  0  0  0  0
  -24.9200  -28.6620   20.9330 C   0  0  0  0  0  0  0  0  0  0  0  0
  -26.6640  -30.3720   21.2470 C   0  0  0  0  0  2  0  0  0  0  0  0
  -26.2310  -28.9800   20.5760 C   0  0  0  0  0  0  0  0  0  0  0  0
  -26.9460  -27.9470   19.7260 C   0  0  0  0  0  3  0  0  0  0  0  0
  -24.9950  -26.6270   19.5300 C   0  0  0  0  0  3  0  0  0  0  0  0
  -24.3190  -27.5590   20.3370 C   0  0  0  0  0  3  0  0  0  0  0  0
  -24.1450  -29.4780   21.9670 C   0  0  0  0  0  2  0  0  0  0  0  0
  -26.2290  -30.6380   22.6930 N   0  0  0  0  0  0  0  0  0  0  0  0
  -26.4720  -31.5170   24.8020 O   0  0  0  0  0  0  0  0  0  0  0  0
  -25.2880  -28.7950   24.1460 C   0  0  0  0  0  0  0  0  0  0  0  0
  -25.1570  -29.0230   25.4670 N   0  0  0  0  0  0  0  0  0  0  0  0
  -25.6360  -27.6960   23.7040 O   0  0  0  0  0  0  0  0  0  0  0  0
  -24.8880  -29.9490   25.7670 H   0  0  0  0  0  0  0  0  0  0  0  0
  -26.3750  -28.5280   28.8530 C   0  0  0  0  0  0  0  0  0  0  0  0
  -25.3550  -28.0270   26.5270 C   0  0  0  0  0  3  0  0  0  0  0  0
  -24.0350  -27.7520   27.2850 C   0  0  0  0  0  2  0  0  0  0  0  0
  -23.8670  -28.6210   28.5350 C   0  0  0  0  0  2  0  0  0  0  0  0
  -25.0170  -28.3770   29.5160 C   0  0  0  0  0  2  0  0  0  0  0  0
  -26.5320  -28.3780   27.4490 C   0  0  0  0  0  0  0  0  0  0  0  0
  -27.8130  -28.5570   26.8810 C   0  0  0  0  0  3  0  0  0  0  0  0
  -28.9200  -28.8790   27.6880 C   0  0  0  0  0  3  0  0  0  0  0  0
  -28.7610  -29.0140   29.0780 C   0  0  0  0  0  3  0  0  0  0  0  0
  -27.4930  -28.8320   29.6580 C   0  0  0  0  0  3  0  0  0  0  0  0
  -28.1300  -32.2740   23.2730 C   0  0  0  0  0  3  0  0  0  0  0  0
  -28.0190  -33.5790   23.9660 N   0  0  0  0  0  0  0  0  0  0  0  0
  -27.4880  -34.6950   23.4480 C   0  0  0  0  0  0  0  0  0  0  0  0
  -27.0710  -34.7510   22.2890 O   0  0  0  0  0  0  0  0  0  0  0  0
  -28.2840  -33.5890   24.9390 H   0  0  0  0  0  0  0  0  0  0  0  0
  -26.0560  -35.9810   25.0830 C   0  0  0  0  0  1  0  0  0  0  0  0
  -27.4080  -35.9490   24.3490 C   0  0  0  0  0  3  0  0  0  0  0  0
  -28.9800  -37.4540   23.2070 C   0  0  0  0  0  1  0  0  0  0  0  0
  -27.5980  -37.2210   23.6150 N   0  0  0  0  0  0  0  0  0  0  0  0
  -27.2980  -38.0110   24.1790 H   0  0  0  0  0  0  0  0  0  0  0  0
  -29.4780  -31.5710   23.7010 C   0  0  1  0  0  0  0  0  0  0  0  0
  -29.5750  -31.2670   25.2170 C   0  0  0  0  0  1  0  0  0  0  0  0
  -29.6700  -30.2350   22.9530 C   0  0  0  0  0  1  0  0  0  0  0  0
  -30.6800  -32.4630   23.3140 C   0  0  0  0  0  1  0  0  0  0  0  0
  2  3  1  0
  2 15  1  0
  2  1  1  0
  4  5  1  0
  5  6  1  0
  5  7  1  0
  5  1  1  0
 10 12  1  0
 10  9  1  0
 12 14  2  0
 13 11  1  0
 14 13  1  0
 15 16  1  0
 17 16  2  0
 17 18  1  0
 19 25  1  0
 20 25  1  0
 21 22  1  0
 21 20  1  0
 23 22  1  0
 23 32  1  0
 23 24  1  0
 25 24  1  0
 26 19  2  0
 27 19  1  0
 27 18  1  0
 28 27  1  0
 29 30  2  0
 30 49  1  0
 31 34  1  0
 31 30  1  0
 32 29  1  0
 32 33  1  0
 33 31  1  0
 34 35  1  0
 35 36  1  0
 37 40  1  0
 37 36  2  0
 38 37  1  0
 39 38  1  0
 40 41  1  0
 41 46  2  0
 41 42  1  0
 42 43  2  0
 43 44  1  0
 44 48  1  0
 45 44  2  0
 46 45  1  0
 47 46  1  0
 49 50  1  0
 50 53  1  0
 50 52  1  0
 51 49  2  0
 54 29  1  0
 54 55  1  0
 56 54  1  0
 59 61  1  0
 60 71  2  0
 61 67  2  0
 61 66  1  0
 62 72  1  0
 63 69  1  0
 64 70  1  0
 65 63  1  0
 65 64  1  0
 66 65  2  0
 67 68  1  0
 68 63  2  0
 69 62  1  0
 70 62  1  0
 70 60  1  0
 72 73  1  0
 73 75  1  0
 74 72  2  0
 76 80  1  0
 76 85  1  0
 77 73  1  0
 77 78  1  0
 77 81  1  0
 78 79  1  0
 79 80  1  0
 81 76  2  0
 82 81  1  0
 82 83  2  0
 83 84  1  0
 84 85  2  0
 86 60  1  0
 86 96  1  0
 86 87  1  0
 87 90  1  0
 88 87  1  0
 88 92  1  0
 89 88  2  0
 92 91  1  0
 93 94  1  0
 94 95  1  0
 94 92  1  0
 96 97  1  1
 98 96  1  0
 99 96  1  0
M  ISO  4  19 100  27 100  58 101  59 101
M  END
>  <TORSDO>  (60) 
F 24

>  <SCORE>  (60) 
16.273

>  <name>  (60) 
60

>  <ligand_id>  (60) 
60

>  <original_smiles>  (60) 
[H]c1c([H])c([H])c(C([H])([H])C2([H])C([H])(C([H])([H])C([H])([H])Oc3c([H])c([H])c4c(c3[H])C([H])([H])N(C(=O)C([H])(N([H])C(=O)C([H])(N([H])C([H])([H])[H])C([H])([H])[H])C(C([H])([H])[H])(C([H])([H])[H])C([H])([H])[H])C([H])(C(=O)N([H])C3([H])c5c([H])c([H])c([H])c([H])c5C([H])([H])C([H])([H])C3([H])[H])C4([H])[H])C([H])(C([H])([H])C([H])([H])C([H])([H])C([H])([H])N([H])C(=O)N3C([H])([H])C([H])([H])C([H])([H])C([H])(n4nc(-c5c([H])c([H])c(Oc6c([H])c([H])c(F)c([H])c6F)c([H])c5[H])c(C(=O)N([H])[H])c4N([H])[H])C3([H])[H])C([H])([H])[N+]2([H])[H])c([H])c1[H]

>  <smiles>  (60) 
[H]c1c([H])c([H])c(C([H])([H])C2([H])C([H])(C([H])([H])C([H])([H])Oc3c([H])c([H])c4c(c3[H])C([H])([H])N(C(=O)C([H])(N([H])C(=O)C([H])(N([H])C([H])([H])[H])C([H])([H])[H])C(C([H])([H])[H])(C([H])([H])[H])C([H])([H])[H])C([H])(C(=O)N([H])C3([H])c5c([H])c([H])c([H])c([H])c5C([H])([H])C([H])([H])C3([H])[H])C4([H])[H])C([H])(C([H])([H])C([H])([H])C([H])([H])C([H])([H])N([H])C(=O)N3C([H])([H])C([H])([H])C([H])([H])C([H])(n4nc(-c5c([H])c([H])c(Oc6c([H])c([H])c(F)c([H])c6F)c([H])c5[H])c(C(=O)N([H])[H])c4N([H])[H])C3([H])[H])C([H])([H])[N+]2([H])[H])c([H])c1[H]

$$$$
61:0:0
     RDKit          3D

 95103  0  0  1  0  0  0  0  0999 V2000
  -27.3310  -21.5990   20.7180 C   0  0  0  0  0  2  0  0  0  0  0  0
  -27.4110  -20.2010   20.0800 C   0  0  0  0  0  2  0  0  0  0  0  0
  -29.6280  -20.9620   20.6930 C   0  0  0  0  0  2  0  0  0  0  0  0
  -28.7280  -22.2050   20.5850 C   0  0  0  0  0  3  0  0  0  0  0  0
  -28.9080  -19.7990   19.9650 C   0  0  2  0  0  0  0  0  0  0  0  0
  -29.0690  -23.2760   21.6490 C   0  0  0  0  0  2  0  0  0  0  0  0
  -28.3830  -24.6730   21.5410 C   0  0  0  0  0  3  0  0  0  0  0  0
  -27.4890  -26.0760   23.5210 C   0  0  0  0  0  1  0  0  0  0  0  0
  -28.7250  -25.4970   22.8150 C   0  0  0  0  0  2  0  0  0  0  0  0
  -28.7620  -25.4210   20.2260 C   0  0  0  0  0  2  0  0  0  0  0  0
  -28.6540  -26.8520   20.2820 O   0  0  0  0  0  0  0  0  0  0  0  0
  -24.5980  -31.8770   23.2280 C   0  0  0  0  0  0  0  0  0  0  0  0
  -27.4300  -27.4880   20.2440 C   0  0  0  0  0  0  0  0  0  0  0  0
  -23.4680  -30.4400   21.5610 C   0  0  0  0  0  3  0  0  0  0  0  0
  -24.9920  -28.9250   20.1870 C   0  0  0  0  0  0  0  0  0  0  0  0
  -25.9860  -30.8610   21.4230 C   0  0  0  0  0  2  0  0  0  0  0  0
  -26.1200  -29.4890   20.7950 C   0  0  0  0  0  0  0  0  0  0  0  0
  -27.3400  -28.7790   20.8120 C   0  0  0  0  0  3  0  0  0  0  0  0
  -26.2820  -26.9270   19.6420 C   0  0  0  0  0  3  0  0  0  0  0  0
  -25.0680  -27.6440   19.6080 C   0  0  0  0  0  3  0  0  0  0  0  0
  -23.7280  -29.7540   20.1920 C   0  0  0  0  0  2  0  0  0  0  0  0
  -24.7000  -31.0750   22.1300 N   0  0  0  0  0  0  0  0  0  0  0  0
  -23.4970  -32.1270   23.7390 O   0  0  0  0  0  0  0  0  0  0  0  0
  -22.8160  -29.4100   22.5110 C   0  0  0  0  0  0  0  0  0  0  0  0
  -21.5040  -29.1840   22.3390 N   0  0  0  0  0  0  0  0  0  0  0  0
  -23.4890  -28.8160   23.3580 O   0  0  0  0  0  0  0  0  0  0  0  0
  -21.0220  -29.7170   21.6290 H   0  0  0  0  0  0  0  0  0  0  0  0
  -18.1490  -27.9030   22.7400 C   0  0  0  0  0  0  0  0  0  0  0  0
  -20.6890  -28.2290   23.0880 C   0  0  0  0  0  3  0  0  0  0  0  0
  -20.8470  -26.7980   22.5220 C   0  0  0  0  0  2  0  0  0  0  0  0
  -19.7860  -26.4440   21.4760 C   0  0  0  0  0  2  0  0  0  0  0  0
  -18.3810  -26.5570   22.0750 C   0  0  0  0  0  2  0  0  0  0  0  0
  -19.2340  -28.6960   23.2010 C   0  0  0  0  0  0  0  0  0  0  0  0
  -18.9650  -29.9550   23.7780 C   0  0  0  0  0  3  0  0  0  0  0  0
  -17.6440  -30.4250   23.8990 C   0  0  0  0  0  3  0  0  0  0  0  0
  -16.5720  -29.6300   23.4570 C   0  0  0  0  0  3  0  0  0  0  0  0
  -16.8260  -28.3710   22.8820 C   0  0  0  0  0  3  0  0  0  0  0  0
  -25.8530  -32.5400   23.8790 C   0  0  0  0  0  3  0  0  0  0  0  0
  -26.3600  -31.7810   25.1670 C   0  0  1  0  0  0  0  0  0  0  0  0
  -25.2450  -31.5010   26.2030 C   0  0  0  0  0  1  0  0  0  0  0  0
  -26.9990  -30.4260   24.7850 C   0  0  0  0  0  1  0  0  0  0  0  0
  -27.4640  -32.6100   25.8640 C   0  0  0  0  0  1  0  0  0  0  0  0
  -25.5050  -33.9300   24.1980 N   0  0  0  0  0  0  0  0  0  0  0  0
  -25.8450  -34.9900   23.4520 C   0  0  0  0  0  0  0  0  0  0  0  0
  -26.5580  -34.9020   22.4480 O   0  0  0  0  0  0  0  0  0  0  0  0
  -24.8780  -34.0730   24.9770 H   0  0  0  0  0  0  0  0  0  0  0  0
  -24.1090  -36.7560   23.0140 C   0  0  0  0  0  1  0  0  0  0  0  0
  -25.3100  -36.3680   23.8890 C   0  0  0  0  0  3  0  0  0  0  0  0
  -27.3800  -37.2850   24.8420 C   0  0  0  0  0  1  0  0  0  0  0  0
  -26.3290  -37.4390   23.8390 N   0  0  0  0  0  0  0  0  0  0  0  0
  -25.8990  -38.3510   23.9680 H   0  0  0  0  0  0  0  0  0  0  0  0
  -29.3490  -19.7770   18.4740 C   0  0  0  0  0  2  0  0  0  0  0  0
  -29.0730  -18.8380   16.1150 C   0  0  0  0  0  1  0  0  0  0  0  0
  -28.6820  -18.7020   17.5910 C   0  0  0  0  0  2  0  0  0  0  0  0
  -29.1790  -18.4290   20.6680 C   0  0  0  0  0  2  0  0  0  0  0  0
  -30.6500  -17.9450   20.6380 C   0  0  0  0  0  2  0  0  0  0  0  0
  -30.9760  -16.7830   21.6070 C   0  0  0  0  0  2  0  0  0  0  0  0
  -31.0030  -14.5480   20.4760 C   0  0  0  0  0  0  0  0  0  0  0  0
  -30.7010  -12.3810   19.3290 C   0  0  0  0  0  2  0  0  0  0  0  0
  -29.7780  -12.5530   18.1070 C   0  0  0  0  0  2  0  0  0  0  0  0
  -28.2970  -12.4320   18.5160 C   0  0  0  0  0  2  0  0  0  0  0  0
  -27.9440  -13.3100   19.7470 C   0  0  0  0  0  3  0  0  0  0  0  0
  -28.9740  -13.1020   20.8780 C   0  0  0  0  0  2  0  0  0  0  0  0
  -30.3130  -13.3860   20.3300 N   0  0  0  0  0  0  0  0  0  0  0  0
  -32.0950  -14.7530   19.9370 O   0  0  0  0  0  0  0  0  0  0  0  0
  -30.3990  -15.4920   21.2170 N   0  0  0  0  0  0  0  0  0  0  0  0
  -29.4980  -15.2520   21.6020 H   0  0  0  0  0  0  0  0  0  0  0  0
  -25.5450  -13.9580   20.4170 C   0  0  0  0  0  0  0  0  0  0  0  0
  -24.4600  -13.2040   20.7750 C   0  0  0  0  0  0  0  0  0  0  0  0
  -24.9010  -11.8440   20.7560 C   0  0  0  0  0  0  0  0  0  0  0  0
  -26.5790  -13.0600   20.2060 N   0  0  0  0  0  0  0  0  0  0  0  0
  -26.1940  -11.7840   20.4650 N   0  0  0  0  0  0  0  0  0  0  0  0
  -24.1530  -10.5940   20.9420 C   0  0  0  0  0  0  0  0  0  0  0  0
  -24.5190   -9.6540   21.9310 C   0  0  0  0  0  3  0  0  0  0  0  0
  -23.7730   -8.4670   22.1020 C   0  0  0  0  0  3  0  0  0  0  0  0
  -22.6470   -8.2130   21.2830 C   0  0  0  0  0  0  0  0  0  0  0  0
  -22.3020   -9.1410   20.2860 C   0  0  0  0  0  3  0  0  0  0  0  0
  -23.0480  -10.3180   20.1130 C   0  0  0  0  0  3  0  0  0  0  0  0
  -21.8800   -7.0770   21.3600 O   0  0  0  0  0  0  0  0  0  0  0  0
  -21.7040   -6.4050   22.5440 C   0  0  0  0  0  0  0  0  0  0  0  0
  -21.1270   -7.0250   23.6730 C   0  0  0  0  0  3  0  0  0  0  0  0
  -20.9020   -6.2780   24.8470 C   0  0  0  0  0  3  0  0  0  0  0  0
  -21.2440   -4.9140   24.8910 C   0  0  0  0  0  0  0  0  0  0  0  0
  -21.8130   -4.2940   23.7650 C   0  0  0  0  0  3  0  0  0  0  0  0
  -22.0400   -5.0380   22.5940 C   0  0  0  0  0  0  0  0  0  0  0  0
  -22.5700   -4.4300   21.5050 F   0  0  0  0  0  0  0  0  0  0  0  0
  -21.0200   -4.1940   26.0150 F   0  0  0  0  0  0  0  0  0  0  0  0
  -23.0670  -13.7030   21.0290 C   0  0  0  0  0  0  0  0  0  0  0  0
  -22.3210  -13.0260   21.8960 N   0  0  0  0  0  0  0  0  0  0  0  0
  -22.6470  -14.7280   20.4930 O   0  0  0  0  0  0  0  0  0  0  0  0
  -22.6720  -12.1950   22.3490 H   0  0  0  0  0  0  0  0  0  0  0  0
  -21.3860  -13.3420   22.1080 H   0  0  0  0  0  0  0  0  0  0  0  0
  -25.7340  -15.3240   20.2360 N   0  0  0  0  0  0  0  0  0  0  0  0
  -24.9790  -15.9940   20.3290 H   0  0  0  0  0  0  0  0  0  0  0  0
  -26.6000  -15.7460   19.9230 H   0  0  0  0  0  0  0  0  0  0  0  0
  2  1  1  0
  4  3  1  0
  4  1  1  0
  4  6  1  0
  5 52  1  6
  5  2  1  0
  5 55  1  0
  5  3  1  0
  7 10  1  0
  7  6  1  0
  7  9  1  0
  9  8  1  0
 10 11  1  0
 12 23  2  0
 13 11  1  0
 13 18  1  0
 14 22  1  0
 14 24  1  0
 15 21  1  0
 15 17  1  0
 16 22  1  0
 17 18  2  0
 17 16  1  0
 19 13  2  0
 20 19  1  0
 20 15  2  0
 21 14  1  0
 22 12  1  0
 24 26  2  0
 25 24  1  0
 27 25  1  0
 28 37  2  0
 28 33  1  0
 29 25  1  0
 29 33  1  0
 30 29  1  0
 31 32  1  0
 31 30  1  0
 32 28  1  0
 33 34  2  0
 34 35  1  0
 36 35  2  0
 37 36  1  0
 38 12  1  0
 38 43  1  0
 38 39  1  0
 39 42  1  1
 39 40  1  0
 41 39  1  0
 43 46  1  0
 44 48  1  0
 44 43  1  0
 45 44  2  0
 48 47  1  0
 50 48  1  0
 50 51  1  0
 50 49  1  0
 53 54  1  0
 54 52  1  0
 56 55  1  0
 56 57  1  0
 58 66  1  0
 59 64  1  0
 60 61  1  0
 60 59  1  0
 62 61  1  0
 62 71  1  0
 62 63  1  0
 64 58  1  0
 64 63  1  0
 65 58  2  0
 66 67  1  0
 66 57  1  0
 68 69  2  0
 69 88  1  0
 70 69  1  0
 70 73  1  0
 71 68  1  0
 71 72  1  0
 72 70  2  0
 73 74  1  0
 74 75  2  0
 76 79  1  0
 76 75  1  0
 77 76  2  0
 78 77  1  0
 78 73  2  0
 79 80  1  0
 80 85  2  0
 80 81  1  0
 81 82  2  0
 82 83  1  0
 83 87  1  0
 84 83  2  0
 85 84  1  0
 86 85  1  0
 88 89  1  0
 89 92  1  0
 89 91  1  0
 90 88  2  0
 93 94  1  0
 93 68  1  0
 95 93  1  0
M  ISO  4  10 101  11 101  58 100  66 100
M  END
>  <TORSDO>  (61) 
F 25

>  <SCORE>  (61) 
-12.029

>  <name>  (61) 
61

>  <ligand_id>  (61) 
61

>  <original_smiles>  (61) 
[H]c1c([H])c([H])c2c(c1[H])C([H])([H])C([H])([H])C([H])([H])C2([H])N([H])C(=O)C1([H])N(C(=O)C([H])(N([H])C(=O)C([H])(N([H])C([H])([H])[H])C([H])([H])[H])C(C([H])([H])[H])(C([H])([H])[H])C([H])([H])[H])C([H])([H])c2c([H])c(OC([H])([H])C([H])(C([H])([H])C([H])([H])[H])C([H])([H])C3([H])C([H])([H])C([H])([H])C(C([H])([H])C([H])([H])C([H])([H])[H])(C([H])([H])C([H])([H])C([H])([H])N([H])C(=O)N4C([H])([H])C([H])([H])C([H])([H])C([H])(n5nc(-c6c([H])c([H])c(Oc7c([H])c([H])c(F)c([H])c7F)c([H])c6[H])c(C(=O)N([H])[H])c5N([H])[H])C4([H])[H])C3([H])[H])c([H])c([H])c2C1([H])[H]

>  <smiles>  (61) 
[H]c1c([H])c([H])c2c(c1[H])C([H])([H])C([H])([H])C([H])([H])C2([H])N([H])C(=O)C1([H])N(C(=O)C([H])(N([H])C(=O)C([H])(N([H])C([H])([H])[H])C([H])([H])[H])C(C([H])([H])[H])(C([H])([H])[H])C([H])([H])[H])C([H])([H])c2c([H])c(OC([H])([H])C([H])(C([H])([H])C([H])([H])[H])C([H])([H])C3([H])C([H])([H])C([H])([H])C(C([H])([H])C([H])([H])C([H])([H])[H])(C([H])([H])C([H])([H])C([H])([H])N([H])C(=O)N4C([H])([H])C([H])([H])C([H])([H])C([H])(n5nc(-c6c([H])c([H])c(Oc7c([H])c([H])c(F)c([H])c7F)c([H])c6[H])c(C(=O)N([H])[H])c5N([H])[H])C4([H])[H])C3([H])[H])c([H])c([H])c2C1([H])[H]

$$$$
62:0:0
     RDKit          3D

 95104  0  0  1  0  0  0  0  0999 V2000
  -31.9460  -19.6790   20.5550 C   0  0  0  0  0  3  0  0  0  0  0  0
  -32.1300  -18.3260   20.8950 C   0  0  0  0  0  3  0  0  0  0  0  0
  -30.4750  -18.5480   22.6660 C   0  0  0  0  0  3  0  0  0  0  0  0
  -31.0350  -20.4890   21.2740 C   0  0  0  0  0  0  0  0  0  0  0  0
  -30.2910  -19.9080   22.3350 C   0  0  0  0  0  0  0  0  0  0  0  0
  -31.4060  -17.7590   21.9620 C   0  0  0  0  0  0  0  0  0  0  0  0
  -30.9020  -21.9370   20.9210 C   0  0  0  0  0  0  0  0  0  0  0  0
  -29.3050  -20.7340   23.1410 C   0  0  0  0  0  2  0  0  0  0  0  0
  -29.6620  -22.2260   23.1260 C   0  0  0  0  0  2  0  0  0  0  0  0
  -29.8570  -22.7670   21.6960 C   0  0  0  0  0  3  0  0  0  0  0  0
  -31.5790  -22.4750   20.0390 O   0  0  0  0  0  0  0  0  0  0  0  0
  -31.6590  -16.3190   22.3760 C   0  0  0  0  0  2  0  0  0  0  0  0
  -31.0560  -14.7840   20.5150 C   0  0  0  0  0  0  0  0  0  0  0  0
  -30.6140  -12.7990   19.1190 C   0  0  0  0  0  2  0  0  0  0  0  0
  -29.6340  -13.0790   17.9660 C   0  0  0  0  0  2  0  0  0  0  0  0
  -28.1800  -12.9100   18.4390 C   0  0  0  0  0  2  0  0  0  0  0  0
  -27.8880  -13.6910   19.7460 C   0  0  0  0  0  3  0  0  0  0  0  0
  -28.9670  -13.4020   20.8130 C   0  0  0  0  0  2  0  0  0  0  0  0
  -30.2930  -13.6970   20.2380 N   0  0  0  0  0  0  0  0  0  0  0  0
  -32.0050  -15.1480   19.8120 O   0  0  0  0  0  0  0  0  0  0  0  0
  -30.8020  -15.3540   21.6980 N   0  0  0  0  0  0  0  0  0  0  0  0
  -30.0300  -14.9750   22.2260 H   0  0  0  0  0  0  0  0  0  0  0  0
  -25.5130  -14.2810   20.5510 C   0  0  0  0  0  0  0  0  0  0  0  0
  -24.4490  -13.4970   20.9110 C   0  0  0  0  0  0  0  0  0  0  0  0
  -24.8980  -12.1460   20.7990 C   0  0  0  0  0  0  0  0  0  0  0  0
  -26.5450  -13.4040   20.2470 N   0  0  0  0  0  0  0  0  0  0  0  0
  -26.1790  -12.1140   20.4510 N   0  0  0  0  0  0  0  0  0  0  0  0
  -24.1680  -10.8800   20.9470 C   0  0  0  0  0  0  0  0  0  0  0  0
  -24.5780   -9.8950   21.8720 C   0  0  0  0  0  3  0  0  0  0  0  0
  -23.8490   -8.6940   22.0080 C   0  0  0  0  0  3  0  0  0  0  0  0
  -22.6960   -8.4700   21.2180 C   0  0  0  0  0  0  0  0  0  0  0  0
  -22.3060   -9.4440   20.2830 C   0  0  0  0  0  3  0  0  0  0  0  0
  -23.0360  -10.6360   20.1450 C   0  0  0  0  0  3  0  0  0  0  0  0
  -21.9420   -7.3230   21.2650 O   0  0  0  0  0  0  0  0  0  0  0  0
  -21.8030   -6.5970   22.4210 C   0  0  0  0  0  0  0  0  0  0  0  0
  -21.2790   -7.1700   23.6010 C   0  0  0  0  0  3  0  0  0  0  0  0
  -21.0900   -6.3710   24.7460 C   0  0  0  0  0  3  0  0  0  0  0  0
  -21.4130   -5.0020   24.7120 C   0  0  0  0  0  0  0  0  0  0  0  0
  -21.9280   -4.4280   23.5360 C   0  0  0  0  0  3  0  0  0  0  0  0
  -22.1200   -5.2240   22.3930 C   0  0  0  0  0  0  0  0  0  0  0  0
  -22.5980   -4.6630   21.2560 F   0  0  0  0  0  0  0  0  0  0  0  0
  -21.2220   -4.2320   25.8090 F   0  0  0  0  0  0  0  0  0  0  0  0
  -23.0650  -13.9690   21.2510 C   0  0  0  0  0  0  0  0  0  0  0  0
  -22.3640  -13.2420   22.1150 N   0  0  0  0  0  0  0  0  0  0  0  0
  -22.6130  -15.0150   20.7860 O   0  0  0  0  0  0  0  0  0  0  0  0
  -22.7430  -12.3950   22.5110 H   0  0  0  0  0  0  0  0  0  0  0  0
  -21.4360  -13.5380   22.3830 H   0  0  0  0  0  0  0  0  0  0  0  0
  -25.6850  -15.6560   20.4380 N   0  0  0  0  0  0  0  0  0  0  0  0
  -24.9330  -16.3160   20.6060 H   0  0  0  0  0  0  0  0  0  0  0  0
  -26.5400  -16.1030   20.1310 H   0  0  0  0  0  0  0  0  0  0  0  0
  -30.2200  -24.2770   21.7290 C   0  0  0  0  0  2  0  0  0  0  0  0
  -29.4920  -25.1360   20.6870 C   0  0  0  0  0  0  0  0  0  0  0  0
  -28.8550  -24.6280   19.7580 O   0  0  0  0  0  0  0  0  0  0  0  0
  -29.6010  -26.6570   20.8570 C   0  0  0  0  0  2  0  0  0  0  0  0
  -29.1120  -27.3230   19.6930 O   0  0  0  0  0  0  0  0  0  0  0  0
  -24.7300  -31.6010   23.3380 C   0  0  0  0  0  0  0  0  0  0  0  0
  -27.8650  -27.8720   19.8350 C   0  0  0  0  0  0  0  0  0  0  0  0
  -23.6810  -30.2120   21.5780 C   0  0  0  0  0  3  0  0  0  0  0  0
  -25.2950  -29.0120   20.0090 C   0  0  0  0  0  0  0  0  0  0  0  0
  -26.1300  -30.9200   21.3960 C   0  0  0  0  0  2  0  0  0  0  0  0
  -26.3810  -29.6340   20.6390 C   0  0  0  0  0  0  0  0  0  0  0  0
  -27.6700  -29.0650   20.5590 C   0  0  0  0  0  3  0  0  0  0  0  0
  -26.7700  -27.2540   19.2020 C   0  0  0  0  0  3  0  0  0  0  0  0
  -25.4810  -27.8150   19.2930 C   0  0  0  0  0  3  0  0  0  0  0  0
  -23.9510  -29.6910   20.1400 C   0  0  0  0  0  2  0  0  0  0  0  0
  -24.8640  -30.9230   22.1640 N   0  0  0  0  0  0  0  0  0  0  0  0
  -23.6350  -31.6800   23.9110 O   0  0  0  0  0  0  0  0  0  0  0  0
  -23.1870  -29.0310   22.4430 C   0  0  0  0  0  0  0  0  0  0  0  0
  -21.9150  -28.6450   22.2550 N   0  0  0  0  0  0  0  0  0  0  0  0
  -23.9450  -28.4690   23.2390 O   0  0  0  0  0  0  0  0  0  0  0  0
  -21.3560  -29.1630   21.5920 H   0  0  0  0  0  0  0  0  0  0  0  0
  -18.8090  -26.8110   22.4560 C   0  0  0  0  0  0  0  0  0  0  0  0
  -21.2450  -27.5330   22.9290 C   0  0  0  0  0  3  0  0  0  0  0  0
  -21.6600  -26.1780   22.3110 C   0  0  0  0  0  2  0  0  0  0  0  0
  -20.7110  -25.7030   21.2060 C   0  0  0  0  0  2  0  0  0  0  0  0
  -19.2870  -25.5530   21.7490 C   0  0  0  0  0  2  0  0  0  0  0  0
  -19.7290  -27.7480   22.9960 C   0  0  0  0  0  0  0  0  0  0  0  0
  -19.2350  -28.9180   23.6110 C   0  0  0  0  0  3  0  0  0  0  0  0
  -17.8500  -29.1570   23.6940 C   0  0  0  0  0  3  0  0  0  0  0  0
  -16.9420  -28.2190   23.1720 C   0  0  0  0  0  3  0  0  0  0  0  0
  -17.4230  -27.0470   22.5600 C   0  0  0  0  0  3  0  0  0  0  0  0
  -25.9400  -32.3310   24.0040 C   0  0  0  0  0  3  0  0  0  0  0  0
  -26.4610  -31.6100   25.3070 C   0  0  1  0  0  0  0  0  0  0  0  0
  -25.3500  -31.3080   26.3380 C   0  0  0  0  0  1  0  0  0  0  0  0
  -27.1520  -30.2730   24.9480 C   0  0  0  0  0  1  0  0  0  0  0  0
  -27.5310  -32.4880   26.0000 C   0  0  0  0  0  1  0  0  0  0  0  0
  -25.5160  -33.7050   24.3030 N   0  0  0  0  0  0  0  0  0  0  0  0
  -25.8170  -34.7740   23.5530 C   0  0  0  0  0  0  0  0  0  0  0  0
  -26.5510  -34.7120   22.5630 O   0  0  0  0  0  0  0  0  0  0  0  0
  -24.8670  -33.8230   25.0670 H   0  0  0  0  0  0  0  0  0  0  0  0
  -23.9870  -36.4320   23.0830 C   0  0  0  0  0  1  0  0  0  0  0  0
  -25.2050  -36.1260   23.9670 C   0  0  0  0  0  3  0  0  0  0  0  0
  -27.2230  -37.1680   24.9000 C   0  0  0  0  0  1  0  0  0  0  0  0
  -26.1640  -37.2510   23.8980 N   0  0  0  0  0  0  0  0  0  0  0  0
  -25.6860  -38.1400   24.0140 H   0  0  0  0  0  0  0  0  0  0  0  0
  1  2  2  0
  1  4  1  0
  2  6  1  0
  4  5  2  0
  5  3  1  0
  5  8  1  0
  6 12  1  0
  6  3  2  0
  7  4  1  0
  7 10  1  0
  9  8  1  0
 10 51  1  0
 10  9  1  0
 11  7  2  0
 13 21  1  0
 14 19  1  0
 15 16  1  0
 15 14  1  0
 17 16  1  0
 17 26  1  0
 17 18  1  0
 19 13  1  0
 19 18  1  0
 20 13  2  0
 21 22  1  0
 21 12  1  0
 23 24  2  0
 24 43  1  0
 25 24  1  0
 25 28  1  0
 26 27  1  0
 26 23  1  0
 27 25  2  0
 28 29  1  0
 29 30  2  0
 31 34  1  0
 31 30  1  0
 32 31  2  0
 33 32  1  0
 33 28  2  0
 34 35  1  0
 35 36  1  0
 36 37  2  0
 38 37  1  0
 38 42  1  0
 39 38  2  0
 40 35  2  0
 40 39  1  0
 41 40  1  0
 43 44  1  0
 44 47  1  0
 44 46  1  0
 45 43  2  0
 48 23  1  0
 48 49  1  0
 50 48  1  0
 52 54  1  0
 52 51  1  0
 53 52  2  0
 55 57  1  0
 55 54  1  0
 56 67  2  0
 57 62  1  0
 58 66  1  0
 58 68  1  0
 59 65  1  0
 59 61  1  0
 60 66  1  0
 61 60  1  0
 62 61  2  0
 63 64  1  0
 63 57  2  0
 64 59  2  0
 65 58  1  0
 66 56  1  0
 68 70  2  0
 69 68  1  0
 71 69  1  0
 72 81  2  0
 72 77  1  0
 73 69  1  0
 73 77  1  0
 74 73  1  0
 75 76  1  0
 75 74  1  0
 76 72  1  0
 77 78  2  0
 78 79  1  0
 80 79  2  0
 81 80  1  0
 82 56  1  0
 82 87  1  0
 82 83  1  0
 83 86  1  1
 83 84  1  0
 85 83  1  0
 87 90  1  0
 88 92  1  0
 88 87  1  0
 89 88  2  0
 92 91  1  0
 94 92  1  0
 94 95  1  0
 94 93  1  0
M  ISO  4  13 100  21 100  54 101  55 101
M  END
>  <TORSDO>  (62) 
F 20

>  <SCORE>  (62) 
-9.417

>  <name>  (62) 
62

>  <ligand_id>  (62) 
62

>  <original_smiles>  (62) 
[H]c1c([H])c([H])c2c(c1[H])C([H])([H])C([H])([H])C([H])([H])C2([H])N([H])C(=O)C1([H])N(C(=O)C([H])(N([H])C(=O)C([H])(N([H])C([H])([H])[H])C([H])([H])[H])C(C([H])([H])[H])(C([H])([H])[H])C([H])([H])[H])C([H])([H])c2c([H])c(OC([H])([H])C(=O)C([H])([H])C3([H])C(=O)c4c([H])c([H])c(C([H])([H])N([H])C(=O)N5C([H])([H])C([H])([H])C([H])([H])C([H])(n6nc(-c7c([H])c([H])c(Oc8c([H])c([H])c(F)c([H])c8F)c([H])c7[H])c(C(=O)N([H])[H])c6N([H])[H])C5([H])[H])c([H])c4C([H])([H])C3([H])[H])c([H])c([H])c2C1([H])[H]

>  <smiles>  (62) 
[H]c1c([H])c([H])c2c(c1[H])C([H])([H])C([H])([H])C([H])([H])C2([H])N([H])C(=O)C1([H])N(C(=O)C([H])(N([H])C(=O)C([H])(N([H])C([H])([H])[H])C([H])([H])[H])C(C([H])([H])[H])(C([H])([H])[H])C([H])([H])[H])C([H])([H])c2c([H])c(OC([H])([H])C(=O)C([H])([H])C3([H])C(=O)c4c([H])c([H])c(C([H])([H])N([H])C(=O)N5C([H])([H])C([H])([H])C([H])([H])C([H])(n6nc(-c7c([H])c([H])c(Oc8c([H])c([H])c(F)c([H])c8F)c([H])c7[H])c(C(=O)N([H])[H])c6N([H])[H])C5([H])[H])c([H])c4C([H])([H])C3([H])[H])c([H])c([H])c2C1([H])[H]

$$$$
63:0:0
     RDKit          3D

 93100  0  0  1  0  0  0  0  0999 V2000
  -29.7040  -21.0440   24.2190 C   0  0  0  0  0  2  0  0  0  0  0  0
  -31.2240  -20.8690   24.1050 C   0  0  0  0  0  0  0  0  0  0  0  0
  -32.0130  -21.7750   24.3840 O   0  0  0  0  0  0  0  0  0  0  0  0
  -31.7350  -19.5110   23.6230 C   0  0  0  0  0  2  0  0  0  0  0  0
  -32.3470  -19.5710   22.2090 C   0  0  0  0  0  2  0  0  0  0  0  0
  -31.2980  -19.5080   21.0860 C   0  0  0  0  0  2  0  0  0  0  0  0
  -30.7480  -18.0920   20.8330 C   0  0  0  0  0  2  0  0  0  0  0  0
  -29.3290  -18.1140   20.2440 C   0  0  0  0  0  2  0  0  0  0  0  0
  -28.9660  -16.8730   19.4190 C   0  0  0  0  0  2  0  0  0  0  0  0
  -29.9100  -14.6300   19.8230 C   0  0  0  0  0  0  0  0  0  0  0  0
  -29.7640  -12.3620   18.9140 C   0  0  0  0  0  2  0  0  0  0  0  0
  -28.7020  -12.3840   17.7930 C   0  0  0  0  0  2  0  0  0  0  0  0
  -27.2930  -12.1390   18.3710 C   0  0  0  0  0  2  0  0  0  0  0  0
  -26.9830  -13.0350   19.6000 C   0  0  0  0  0  3  0  0  0  0  0  0
  -28.1520  -13.0100   20.6130 C   0  0  0  0  0  2  0  0  0  0  0  0
  -29.3870  -13.3820   19.9010 N   0  0  0  0  0  0  0  0  0  0  0  0
  -30.9740  -14.8860   19.2540 O   0  0  0  0  0  0  0  0  0  0  0  0
  -29.0520  -15.6060   20.1530 N   0  0  0  0  0  0  0  0  0  0  0  0
  -28.2210  -15.3110   20.6420 H   0  0  0  0  0  0  0  0  0  0  0  0
  -24.6620  -13.4700   20.6290 C   0  0  0  0  0  0  0  0  0  0  0  0
  -23.6930  -12.6180   21.0900 C   0  0  0  0  0  0  0  0  0  0  0  0
  -24.2190  -11.3000   20.9330 C   0  0  0  0  0  0  0  0  0  0  0  0
  -25.7160  -12.6630   20.2270 N   0  0  0  0  0  0  0  0  0  0  0  0
  -25.4590  -11.3520   20.4630 N   0  0  0  0  0  0  0  0  0  0  0  0
  -23.5940   -9.9890   21.1490 C   0  0  0  0  0  0  0  0  0  0  0  0
  -24.1430   -9.0490   22.0490 C   0  0  0  0  0  3  0  0  0  0  0  0
  -23.5140   -7.8020   22.2520 C   0  0  0  0  0  3  0  0  0  0  0  0
  -22.3230   -7.4850   21.5550 C   0  0  0  0  0  0  0  0  0  0  0  0
  -21.7950   -8.4160   20.6440 C   0  0  0  0  0  3  0  0  0  0  0  0
  -22.4240   -9.6540   20.4390 C   0  0  0  0  0  3  0  0  0  0  0  0
  -21.6580   -6.2890   21.6680 O   0  0  0  0  0  0  0  0  0  0  0  0
  -21.6600   -5.5740   22.8390 C   0  0  0  0  0  0  0  0  0  0  0  0
  -21.1830   -6.1240   24.0480 C   0  0  0  0  0  3  0  0  0  0  0  0
  -21.1350   -5.3320   25.2120 C   0  0  0  0  0  3  0  0  0  0  0  0
  -21.5560   -3.9890   25.1670 C   0  0  0  0  0  0  0  0  0  0  0  0
  -22.0270   -3.4380   23.9620 C   0  0  0  0  0  3  0  0  0  0  0  0
  -22.0750   -4.2280   22.8010 C   0  0  0  0  0  0  0  0  0  0  0  0
  -22.5090   -3.6870   21.6380 F   0  0  0  0  0  0  0  0  0  0  0  0
  -21.5030   -3.2240   26.2830 F   0  0  0  0  0  0  0  0  0  0  0  0
  -22.3180  -12.9980   21.5580 C   0  0  0  0  0  0  0  0  0  0  0  0
  -21.7540  -12.2360   22.4880 N   0  0  0  0  0  0  0  0  0  0  0  0
  -21.7530  -14.0070   21.1350 O   0  0  0  0  0  0  0  0  0  0  0  0
  -22.2270  -11.4240   22.8560 H   0  0  0  0  0  0  0  0  0  0  0  0
  -20.8370  -12.4710   22.8430 H   0  0  0  0  0  0  0  0  0  0  0  0
  -24.7290  -14.8540   20.5000 N   0  0  0  0  0  0  0  0  0  0  0  0
  -23.9430  -15.4540   20.7290 H   0  0  0  0  0  0  0  0  0  0  0  0
  -25.4990  -15.3560   20.0790 H   0  0  0  0  0  0  0  0  0  0  0  0
  -29.2080  -22.4980   24.0650 C   0  0  0  0  0  2  0  0  0  0  0  0
  -29.2300  -23.0160   22.6160 C   0  0  0  0  0  2  0  0  0  0  0  0
  -29.1350  -24.5490   22.5440 C   0  0  0  0  0  2  0  0  0  0  0  0
  -28.8530  -25.0790   21.1300 C   0  0  0  0  0  2  0  0  0  0  0  0
  -28.9740  -26.6070   21.0380 C   0  0  0  0  0  2  0  0  0  0  0  0
  -28.4100  -27.0460   19.8050 O   0  0  0  0  0  0  0  0  0  0  0  0
  -24.7830  -31.9440   23.4840 C   0  0  0  0  0  0  0  0  0  0  0  0
  -27.2670  -27.7910   19.9380 C   0  0  0  0  0  0  0  0  0  0  0  0
  -23.4990  -30.7010   21.7680 C   0  0  0  0  0  3  0  0  0  0  0  0
  -24.8860  -29.2810   20.1650 C   0  0  0  0  0  0  0  0  0  0  0  0
  -26.0170  -31.0610   21.5110 C   0  0  0  0  0  2  0  0  0  0  0  0
  -26.0640  -29.7500   20.7590 C   0  0  0  0  0  0  0  0  0  0  0  0
  -27.2580  -29.0090   20.6520 C   0  0  0  0  0  3  0  0  0  0  0  0
  -26.0810  -27.3320   19.3330 C   0  0  0  0  0  3  0  0  0  0  0  0
  -24.8860  -28.0660   19.4530 C   0  0  0  0  0  3  0  0  0  0  0  0
  -23.6520  -30.1390   20.3290 C   0  0  0  0  0  2  0  0  0  0  0  0
  -24.7870  -31.2450   22.3140 N   0  0  0  0  0  0  0  0  0  0  0  0
  -23.7250  -32.1780   24.0860 O   0  0  0  0  0  0  0  0  0  0  0  0
  -22.8710  -29.6070   22.6600 C   0  0  0  0  0  0  0  0  0  0  0  0
  -21.5540  -29.4000   22.5110 N   0  0  0  0  0  0  0  0  0  0  0  0
  -23.5670  -28.9480   23.4390 O   0  0  0  0  0  0  0  0  0  0  0  0
  -21.0530  -29.9860   21.8570 H   0  0  0  0  0  0  0  0  0  0  0  0
  -18.2210  -28.0500   22.8480 C   0  0  0  0  0  0  0  0  0  0  0  0
  -20.7550  -28.3980   23.2150 C   0  0  0  0  0  3  0  0  0  0  0  0
  -20.9360  -26.9990   22.5820 C   0  0  0  0  0  2  0  0  0  0  0  0
  -19.8810  -26.6770   21.5190 C   0  0  0  0  0  2  0  0  0  0  0  0
  -18.4740  -26.7390   22.1240 C   0  0  0  0  0  2  0  0  0  0  0  0
  -19.2930  -28.8370   23.3470 C   0  0  0  0  0  0  0  0  0  0  0  0
  -19.0050  -30.0640   23.9820 C   0  0  0  0  0  3  0  0  0  0  0  0
  -17.6760  -30.5070   24.1240 C   0  0  0  0  0  3  0  0  0  0  0  0
  -16.6190  -29.7160   23.6430 C   0  0  0  0  0  3  0  0  0  0  0  0
  -16.8910  -28.4900   23.0120 C   0  0  0  0  0  3  0  0  0  0  0  0
  -26.1000  -32.5020   24.1080 C   0  0  0  0  0  3  0  0  0  0  0  0
  -26.6510  -31.6180   25.2930 C   0  0  1  0  0  0  0  0  0  0  0  0
  -25.5920  -31.3000   26.3750 C   0  0  0  0  0  1  0  0  0  0  0  0
  -27.2010  -30.2740   24.7600 C   0  0  0  0  0  1  0  0  0  0  0  0
  -27.8350  -32.3390   25.9810 C   0  0  0  0  0  1  0  0  0  0  0  0
  -25.8260  -33.8720   24.5640 N   0  0  0  0  0  0  0  0  0  0  0  0
  -26.1660  -34.9770   23.8890 C   0  0  0  0  0  0  0  0  0  0  0  0
  -26.8140  -34.9500   22.8390 O   0  0  0  0  0  0  0  0  0  0  0  0
  -25.2510  -33.9680   25.3880 H   0  0  0  0  0  0  0  0  0  0  0  0
  -24.4720  -36.8270   23.7130 C   0  0  0  0  0  1  0  0  0  0  0  0
  -25.7140  -36.3300   24.4710 C   0  0  0  0  0  3  0  0  0  0  0  0
  -27.8750  -37.0950   25.3470 C   0  0  0  0  0  1  0  0  0  0  0  0
  -26.7670  -37.3680   24.4350 N   0  0  0  0  0  0  0  0  0  0  0  0
  -26.3830  -38.2790   24.6680 H   0  0  0  0  0  0  0  0  0  0  0  0
  2  1  1  0
  2  3  2  0
  4  2  1  0
  5  4  1  0
  6  5  1  0
  7  6  1  0
  8  7  1  0
  9 18  1  0
  9  8  1  0
 10 16  1  0
 10 18  1  0
 11 16  1  0
 12 13  1  0
 12 11  1  0
 14 13  1  0
 14 23  1  0
 14 15  1  0
 16 15  1  0
 17 10  2  0
 18 19  1  0
 20 21  2  0
 21 40  1  0
 22 21  1  0
 22 25  1  0
 23 24  1  0
 23 20  1  0
 24 22  2  0
 25 26  1  0
 26 27  2  0
 28 31  1  0
 28 27  1  0
 29 28  2  0
 30 29  1  0
 30 25  2  0
 31 32  1  0
 32 33  1  0
 33 34  2  0
 35 34  1  0
 35 39  1  0
 36 35  2  0
 37 32  2  0
 37 36  1  0
 38 37  1  0
 40 41  1  0
 41 44  1  0
 41 43  1  0
 42 40  2  0
 45 20  1  0
 45 46  1  0
 47 45  1  0
 48  1  1  0
 49 48  1  0
 50 49  1  0
 51 50  1  0
 52 51  1  0
 53 55  1  0
 53 52  1  0
 54 65  2  0
 55 60  1  0
 56 64  1  0
 56 66  1  0
 57 63  1  0
 57 59  1  0
 58 64  1  0
 59 58  1  0
 60 59  2  0
 61 62  1  0
 61 55  2  0
 62 57  2  0
 63 56  1  0
 64 54  1  0
 66 68  2  0
 67 66  1  0
 69 67  1  0
 70 79  2  0
 70 75  1  0
 71 67  1  0
 71 75  1  0
 72 71  1  0
 73 74  1  0
 73 72  1  0
 74 70  1  0
 75 76  2  0
 76 77  1  0
 78 77  2  0
 79 78  1  0
 80 54  1  0
 80 85  1  0
 80 81  1  0
 81 84  1  1
 81 82  1  0
 83 81  1  0
 85 88  1  0
 86 90  1  0
 86 85  1  0
 87 86  2  0
 90 89  1  0
 92 90  1  0
 92 93  1  0
 92 91  1  0
M  ISO  4  10 100  18 100  52 101  53 101
M  END
>  <TORSDO>  (63) 
F 28

>  <SCORE>  (63) 
-9.482

>  <name>  (63) 
63

>  <ligand_id>  (63) 
63

>  <original_smiles>  (63) 
[H]c1c([H])c([H])c2c(c1[H])C([H])([H])C([H])([H])C([H])([H])C2([H])N([H])C(=O)C1([H])N(C(=O)C([H])(N([H])C(=O)C([H])(N([H])C([H])([H])[H])C([H])([H])[H])C(C([H])([H])[H])(C([H])([H])[H])C([H])([H])[H])C([H])([H])c2c([H])c(OC([H])([H])C([H])([H])C([H])([H])C([H])([H])C([H])([H])C([H])([H])C(=O)C([H])([H])C([H])([H])C([H])([H])C([H])([H])C([H])([H])C([H])([H])N([H])C(=O)N3C([H])([H])C([H])([H])C([H])([H])C([H])(n4nc(-c5c([H])c([H])c(Oc6c([H])c([H])c(F)c([H])c6F)c([H])c5[H])c(C(=O)N([H])[H])c4N([H])[H])C3([H])[H])c([H])c([H])c2C1([H])[H]

>  <smiles>  (63) 
[H]c1c([H])c([H])c2c(c1[H])C([H])([H])C([H])([H])C([H])([H])C2([H])N([H])C(=O)C1([H])N(C(=O)C([H])(N([H])C(=O)C([H])(N([H])C([H])([H])[H])C([H])([H])[H])C(C([H])([H])[H])(C([H])([H])[H])C([H])([H])[H])C([H])([H])c2c([H])c(OC([H])([H])C([H])([H])C([H])([H])C([H])([H])C([H])([H])C([H])([H])C(=O)C([H])([H])C([H])([H])C([H])([H])C([H])([H])C([H])([H])C([H])([H])N([H])C(=O)N3C([H])([H])C([H])([H])C([H])([H])C([H])(n4nc(-c5c([H])c([H])c(Oc6c([H])c([H])c(F)c([H])c6F)c([H])c5[H])c(C(=O)N([H])[H])c4N([H])[H])C3([H])[H])c([H])c([H])c2C1([H])[H]

$$$$
64:0:0
     RDKit          3D

 95103  0  0  1  0  0  0  0  0999 V2000
  -27.0140  -22.1010   21.2350 C   0  0  0  0  0  2  0  0  0  0  0  0
  -27.1420  -23.5750   20.8010 C   0  0  0  0  0  2  0  0  0  0  0  0
  -27.6570  -21.1890   20.1820 C   0  0  0  0  0  2  0  0  0  0  0  0
  -29.6150  -22.7770   20.6680 C   0  0  0  0  0  2  0  0  0  0  0  0
  -28.6100  -24.0420   20.7510 C   0  0  0  0  0  3  0  0  0  0  0  0
  -29.2010  -21.3450   20.0410 C   0  0  2  0  0  0  0  0  0  0  0  0
  -29.6390  -21.4490   18.5410 C   0  0  0  0  0  2  0  0  0  0  0  0
  -29.2900  -20.2990   17.5860 C   0  0  0  0  0  0  0  0  0  0  0  0
  -28.0670  -20.2700   17.0720 N   0  0  0  0  0  0  0  0  0  0  0  0
  -30.1350  -19.4710   17.2510 O   0  0  0  0  0  0  0  0  0  0  0  0
  -27.3820  -20.9550   17.3590 H   0  0  0  0  0  0  0  0  0  0  0  0
  -27.7990  -19.5460   16.4210 H   0  0  0  0  0  0  0  0  0  0  0  0
  -28.8240  -25.3300   19.8180 C   0  0  0  0  0  2  0  0  0  0  0  0
  -28.6490  -26.7100   20.3480 O   0  0  0  0  0  0  0  0  0  0  0  0
  -24.6820  -31.9670   23.2720 C   0  0  0  0  0  0  0  0  0  0  0  0
  -27.4720  -27.4770   20.2590 C   0  0  0  0  0  0  0  0  0  0  0  0
  -23.5400  -30.5350   21.6120 C   0  0  0  0  0  3  0  0  0  0  0  0
  -25.0540  -29.0150   20.2080 C   0  0  0  0  0  0  0  0  0  0  0  0
  -26.0650  -30.9260   21.4550 C   0  0  0  0  0  2  0  0  0  0  0  0
  -26.1940  -29.5440   20.8220 C   0  0  0  0  0  0  0  0  0  0  0  0
  -27.4020  -28.7850   20.8350 C   0  0  0  0  0  3  0  0  0  0  0  0
  -26.3050  -26.9950   19.6300 C   0  0  0  0  0  3  0  0  0  0  0  0
  -25.1110  -27.7500   19.6000 C   0  0  0  0  0  3  0  0  0  0  0  0
  -23.7890  -29.8540   20.2400 C   0  0  0  0  0  2  0  0  0  0  0  0
  -24.7820  -31.1620   22.1730 N   0  0  0  0  0  0  0  0  0  0  0  0
  -23.5870  -32.2170   23.7920 O   0  0  0  0  0  0  0  0  0  0  0  0
  -22.8870  -29.5070   22.5660 C   0  0  0  0  0  0  0  0  0  0  0  0
  -21.5660  -29.3050   22.4240 N   0  0  0  0  0  0  0  0  0  0  0  0
  -23.5690  -28.8920   23.3890 O   0  0  0  0  0  0  0  0  0  0  0  0
  -21.0760  -29.8570   21.7360 H   0  0  0  0  0  0  0  0  0  0  0  0
  -18.2000  -28.0720   22.9120 C   0  0  0  0  0  0  0  0  0  0  0  0
  -20.7570  -28.3480   23.1790 C   0  0  0  0  0  3  0  0  0  0  0  0
  -20.8690  -26.9260   22.5790 C   0  0  0  0  0  2  0  0  0  0  0  0
  -19.7650  -26.6130   21.5620 C   0  0  0  0  0  2  0  0  0  0  0  0
  -18.3850  -26.7350   22.2130 C   0  0  0  0  0  2  0  0  0  0  0  0
  -19.3140  -28.8370   23.3510 C   0  0  0  0  0  0  0  0  0  0  0  0
  -19.0860  -30.0880   23.9640 C   0  0  0  0  0  3  0  0  0  0  0  0
  -17.7780  -30.5730   24.1430 C   0  0  0  0  0  3  0  0  0  0  0  0
  -16.6790  -29.8070   23.7210 C   0  0  0  0  0  3  0  0  0  0  0  0
  -16.8910  -28.5570   23.1110 C   0  0  0  0  0  3  0  0  0  0  0  0
  -25.9390  -32.6310   23.9180 C   0  0  0  0  0  3  0  0  0  0  0  0
  -25.5990  -34.0300   24.2200 N   0  0  0  0  0  0  0  0  0  0  0  0
  -25.9360  -35.0810   23.4590 C   0  0  0  0  0  0  0  0  0  0  0  0
  -26.6360  -34.9770   22.4490 O   0  0  0  0  0  0  0  0  0  0  0  0
  -24.9880  -34.1850   25.0080 H   0  0  0  0  0  0  0  0  0  0  0  0
  -24.1980  -36.8520   23.0240 C   0  0  0  0  0  1  0  0  0  0  0  0
  -25.4110  -36.4660   23.8860 C   0  0  0  0  0  3  0  0  0  0  0  0
  -27.4930  -37.3930   24.7990 C   0  0  0  0  0  1  0  0  0  0  0  0
  -26.4320  -37.5320   23.8070 N   0  0  0  0  0  0  0  0  0  0  0  0
  -26.0060  -38.4490   23.9270 H   0  0  0  0  0  0  0  0  0  0  0  0
  -26.4370  -31.8890   25.2190 C   0  0  1  0  0  0  0  0  0  0  0  0
  -25.3170  -31.6350   26.2540 C   0  0  0  0  0  1  0  0  0  0  0  0
  -27.0690  -30.5240   24.8560 C   0  0  0  0  0  1  0  0  0  0  0  0
  -27.5400  -32.7240   25.9120 C   0  0  0  0  0  1  0  0  0  0  0  0
  -29.9650  -20.0920   20.7380 C   0  0  0  0  0  2  0  0  0  0  0  0
  -29.5270  -18.5540   20.5550 C   0  0  0  0  0  3  0  0  0  0  0  0
  -30.6120  -17.4130   20.8410 C   0  0  0  0  0  3  0  0  0  0  0  0
  -30.9040  -14.8570   20.5050 C   0  0  0  0  0  0  0  0  0  0  0  0
  -30.6690  -12.6420   19.4020 C   0  0  0  0  0  2  0  0  0  0  0  0
  -29.7640  -12.7890   18.1600 C   0  0  0  0  0  2  0  0  0  0  0  0
  -28.2850  -12.6210   18.5510 C   0  0  0  0  0  2  0  0  0  0  0  0
  -27.8960  -13.4790   19.7820 C   0  0  0  0  0  3  0  0  0  0  0  0
  -28.9230  -13.3290   20.9270 C   0  0  0  0  0  2  0  0  0  0  0  0
  -30.2470  -13.6610   20.3840 N   0  0  0  0  0  0  0  0  0  0  0  0
  -32.0860  -14.9710   20.1710 O   0  0  0  0  0  0  0  0  0  0  0  0
  -30.1600  -15.9690   20.8160 N   0  0  0  0  0  0  0  0  0  0  0  0
  -29.1970  -15.7970   21.0580 H   0  0  0  0  0  0  0  0  0  0  0  0
  -25.4830  -14.0750   20.4200 C   0  0  0  0  0  0  0  0  0  0  0  0
  -24.4090  -13.3010   20.7700 C   0  0  0  0  0  0  0  0  0  0  0  0
  -24.8790  -11.9530   20.7740 C   0  0  0  0  0  0  0  0  0  0  0  0
  -26.5360  -13.1970   20.2290 N   0  0  0  0  0  0  0  0  0  0  0  0
  -26.1790  -11.9170   20.5070 N   0  0  0  0  0  0  0  0  0  0  0  0
  -24.1540  -10.6870   20.9560 C   0  0  0  0  0  0  0  0  0  0  0  0
  -24.5320   -9.7600   21.9510 C   0  0  0  0  0  3  0  0  0  0  0  0
  -23.8090   -8.5600   22.1220 C   0  0  0  0  0  3  0  0  0  0  0  0
  -22.6940   -8.2790   21.2980 C   0  0  0  0  0  0  0  0  0  0  0  0
  -22.3360   -9.1950   20.2930 C   0  0  0  0  0  3  0  0  0  0  0  0
  -23.0600  -10.3870   20.1210 C   0  0  0  0  0  3  0  0  0  0  0  0
  -21.9490   -7.1260   21.3760 O   0  0  0  0  0  0  0  0  0  0  0  0
  -21.7920   -6.4500   22.5600 C   0  0  0  0  0  0  0  0  0  0  0  0
  -21.1910   -7.0490   23.6890 C   0  0  0  0  0  3  0  0  0  0  0  0
  -20.9890   -6.2940   24.8620 C   0  0  0  0  0  3  0  0  0  0  0  0
  -21.3750   -4.9420   24.9060 C   0  0  0  0  0  0  0  0  0  0  0  0
  -21.9630   -4.3410   23.7780 C   0  0  0  0  0  3  0  0  0  0  0  0
  -22.1690   -5.0930   22.6080 C   0  0  0  0  0  0  0  0  0  0  0  0
  -22.7210   -4.5050   21.5210 F   0  0  0  0  0  0  0  0  0  0  0  0
  -21.1700   -4.2140   26.0280 F   0  0  0  0  0  0  0  0  0  0  0  0
  -23.0030  -13.7710   20.9940 C   0  0  0  0  0  0  0  0  0  0  0  0
  -22.2550  -13.0870   21.8510 N   0  0  0  0  0  0  0  0  0  0  0  0
  -22.5740  -14.7830   20.4390 O   0  0  0  0  0  0  0  0  0  0  0  0
  -22.6150  -12.2690   22.3220 H   0  0  0  0  0  0  0  0  0  0  0  0
  -21.3070  -13.3820   22.0390 H   0  0  0  0  0  0  0  0  0  0  0  0
  -25.6510  -15.4420   20.2220 N   0  0  0  0  0  0  0  0  0  0  0  0
  -24.8780  -16.0980   20.2730 H   0  0  0  0  0  0  0  0  0  0  0  0
  -26.5080  -15.8670   19.8880 H   0  0  0  0  0  0  0  0  0  0  0  0
  2  1  1  0
  3  1  1  0
  4  5  1  0
  5 13  1  0
  5  2  1  0
  6  7  1  6
  6  3  1  0
  6  4  1  0
  6 55  1  0
  8  7  1  0
  9 11  1  0
  9  8  1  0
 10  8  2  0
 12  9  1  0
 13 14  1  0
 15 26  2  0
 16 14  1  0
 16 21  1  0
 17 25  1  0
 17 27  1  0
 18 24  1  0
 18 20  1  0
 19 25  1  0
 20 21  2  0
 20 19  1  0
 22 16  2  0
 23 22  1  0
 23 18  2  0
 24 17  1  0
 25 15  1  0
 27 29  2  0
 28 27  1  0
 30 28  1  0
 31 40  2  0
 31 36  1  0
 32 28  1  0
 32 36  1  0
 33 32  1  0
 34 35  1  0
 34 33  1  0
 35 31  1  0
 36 37  2  0
 37 38  1  0
 39 38  2  0
 40 39  1  0
 41 15  1  0
 41 42  1  0
 41 51  1  0
 42 45  1  0
 43 47  1  0
 43 42  1  0
 44 43  2  0
 47 46  1  0
 49 47  1  0
 49 50  1  0
 49 48  1  0
 51 54  1  1
 51 52  1  0
 53 51  1  0
 56 55  1  0
 56 57  2  0
 58 66  1  0
 59 64  1  0
 60 61  1  0
 60 59  1  0
 62 61  1  0
 62 71  1  0
 62 63  1  0
 64 58  1  0
 64 63  1  0
 65 58  2  0
 66 57  1  0
 66 67  1  0
 68 69  2  0
 69 70  1  0
 69 88  1  0
 70 73  1  0
 71 68  1  0
 71 72  1  0
 72 70  2  0
 73 74  1  0
 74 75  2  0
 76 79  1  0
 76 75  1  0
 77 76  2  0
 78 77  1  0
 78 73  2  0
 79 80  1  0
 80 85  2  0
 80 81  1  0
 81 82  2  0
 82 83  1  0
 83 87  1  0
 84 83  2  0
 85 84  1  0
 86 85  1  0
 88 89  1  0
 89 92  1  0
 89 91  1  0
 90 88  2  0
 93 94  1  0
 93 68  1  0
 95 93  1  0
M  ISO  4  13 101  14 101  58 100  66 100
M  END
>  <TORSDO>  (64) 
F 22

>  <SCORE>  (64) 
-12.664

>  <name>  (64) 
64

>  <ligand_id>  (64) 
64

>  <original_smiles>  (64) 
[H]c1c([H])c([H])c2c(c1[H])C([H])([H])C([H])([H])C([H])([H])C2([H])N([H])C(=O)C1([H])N(C(=O)C([H])(N([H])C(=O)C([H])(N([H])C([H])([H])[H])C([H])([H])[H])C(C([H])([H])[H])(C([H])([H])[H])C([H])([H])[H])C([H])([H])c2c([H])c(OC([H])([H])C3([H])C([H])([H])C([H])([H])C([H])([H])C(C([H])([H])C(=O)N([H])[H])(C([H])([H])C([H])([H])C([H])([H])N([H])C(=O)N4C([H])([H])C([H])([H])C([H])([H])C([H])(n5nc(-c6c([H])c([H])c(Oc7c([H])c([H])c(F)c([H])c7F)c([H])c6[H])c(C(=O)N([H])[H])c5N([H])[H])C4([H])[H])C3([H])[H])c([H])c([H])c2C1([H])[H]

>  <smiles>  (64) 
[H]c1c([H])c([H])c2c(c1[H])C([H])([H])C([H])([H])C([H])([H])C2([H])N([H])C(=O)C1([H])N(C(=O)C([H])(N([H])C(=O)C([H])(N([H])C([H])([H])[H])C([H])([H])[H])C(C([H])([H])[H])(C([H])([H])[H])C([H])([H])[H])C([H])([H])c2c([H])c(OC([H])([H])C3([H])C([H])([H])C([H])([H])C([H])([H])C(C([H])([H])C(=O)N([H])[H])(C([H])([H])C([H])([H])C([H])([H])N([H])C(=O)N4C([H])([H])C([H])([H])C([H])([H])C([H])(n5nc(-c6c([H])c([H])c(Oc7c([H])c([H])c(F)c([H])c7F)c([H])c6[H])c(C(=O)N([H])[H])c5N([H])[H])C4([H])[H])C3([H])[H])c([H])c([H])c2C1([H])[H]

$$$$
65:0:0
     RDKit          3D

 93102  0  0  1  0  0  0  0  0999 V2000
  -30.7100  -14.8030   20.3410 C   0  0  0  0  0  0  0  0  0  0  0  0
  -30.4150  -12.5020   19.4000 C   0  0  0  0  0  2  0  0  0  0  0  0
  -29.5060  -12.5090   18.1570 C   0  0  0  0  0  2  0  0  0  0  0  0
  -28.0350  -12.3560   18.5790 C   0  0  0  0  0  2  0  0  0  0  0  0
  -27.6450  -13.2950   19.7550 C   0  0  0  0  0  3  0  0  0  0  0  0
  -28.6940  -13.2960   20.8860 C   0  0  0  0  0  2  0  0  0  0  0  0
  -29.9790  -13.6310   20.2660 N   0  0  0  0  0  0  0  0  0  0  0  0
  -31.9150  -14.6950   20.1200 O   0  0  0  0  0  0  0  0  0  0  0  0
  -28.1840  -19.2980   20.4870 C   0  0  0  0  0  2  0  0  0  0  0  0
  -30.4010  -20.0530   19.9190 C   0  0  0  0  0  2  0  0  0  0  0  0
  -29.1090  -16.7020   21.2120 C   0  0  0  0  0  2  0  0  0  0  0  0
  -30.6550  -17.3170   19.5640 C   0  0  0  0  0  3  0  0  0  0  0  0
  -29.1940  -18.3030   21.1840 C   0  0  0  0  0  3  0  0  0  0  0  0
  -30.4900  -18.5780   20.4890 C   0  0  0  0  0  3  0  0  0  0  0  0
  -28.9310  -20.5950   19.9330 C   0  0  0  0  0  3  0  0  0  0  0  0
  -30.1310  -16.0970   20.2990 N   0  0  0  0  0  0  0  0  0  0  0  0
  -25.2640  -13.9030   20.4650 C   0  0  0  0  0  0  0  0  0  0  0  0
  -24.1890  -13.1400   20.8300 C   0  0  0  0  0  0  0  0  0  0  0  0
  -24.6430  -11.7850   20.8190 C   0  0  0  0  0  0  0  0  0  0  0  0
  -26.3020  -13.0150   20.2470 N   0  0  0  0  0  0  0  0  0  0  0  0
  -25.9380  -11.7360   20.5280 N   0  0  0  0  0  0  0  0  0  0  0  0
  -23.9040  -10.5300   21.0120 C   0  0  0  0  0  0  0  0  0  0  0  0
  -24.3300   -9.5550   21.9400 C   0  0  0  0  0  3  0  0  0  0  0  0
  -23.5900   -8.3680   22.1220 C   0  0  0  0  0  3  0  0  0  0  0  0
  -22.4080   -8.1460   21.3740 C   0  0  0  0  0  0  0  0  0  0  0  0
  -22.0020   -9.1080   20.4350 C   0  0  0  0  0  3  0  0  0  0  0  0
  -22.7420  -10.2880   20.2510 C   0  0  0  0  0  3  0  0  0  0  0  0
  -21.6390   -7.0120   21.4660 O   0  0  0  0  0  0  0  0  0  0  0  0
  -21.6010   -6.2580   22.6120 C   0  0  0  0  0  0  0  0  0  0  0  0
  -21.2200   -6.8090   23.8550 C   0  0  0  0  0  3  0  0  0  0  0  0
  -21.1290   -5.9820   24.9920 C   0  0  0  0  0  3  0  0  0  0  0  0
  -21.4100   -4.6060   24.8880 C   0  0  0  0  0  0  0  0  0  0  0  0
  -21.7840   -4.0550   23.6500 C   0  0  0  0  0  3  0  0  0  0  0  0
  -21.8760   -4.8790   22.5150 C   0  0  0  0  0  0  0  0  0  0  0  0
  -22.2160   -4.3390   21.3200 F   0  0  0  0  0  0  0  0  0  0  0  0
  -21.3150   -3.8100   25.9790 F   0  0  0  0  0  0  0  0  0  0  0  0
  -22.7930  -13.6320   21.0740 C   0  0  0  0  0  0  0  0  0  0  0  0
  -22.0520  -12.9580   21.9470 N   0  0  0  0  0  0  0  0  0  0  0  0
  -22.3700  -14.6490   20.5290 O   0  0  0  0  0  0  0  0  0  0  0  0
  -22.4050  -12.1350   22.4110 H   0  0  0  0  0  0  0  0  0  0  0  0
  -21.1140  -13.2710   22.1540 H   0  0  0  0  0  0  0  0  0  0  0  0
  -25.4420  -15.2700   20.2740 N   0  0  0  0  0  0  0  0  0  0  0  0
  -24.6820  -15.9340   20.3750 H   0  0  0  0  0  0  0  0  0  0  0  0
  -26.2990  -15.6940   19.9460 H   0  0  0  0  0  0  0  0  0  0  0  0
  -32.0490  -17.2520   18.9050 C   0  0  0  0  0  0  0  0  0  0  0  0
  -32.1110  -16.7940   17.6580 N   0  0  0  0  0  0  0  0  0  0  0  0
  -33.0610  -17.6110   19.5030 O   0  0  0  0  0  0  0  0  0  0  0  0
  -31.2750  -16.4960   17.1750 H   0  0  0  0  0  0  0  0  0  0  0  0
  -33.0010  -16.7280   17.1850 H   0  0  0  0  0  0  0  0  0  0  0  0
  -28.6020  -22.0740   20.5810 C   0  0  0  0  0  2  0  0  0  0  0  0
  -28.7750  -23.5230   19.8190 C   0  0  0  0  0  3  0  0  0  0  0  0
  -28.1010  -24.8920   20.4310 C   0  0  0  0  0  3  0  0  0  0  0  0
  -28.3260  -26.3120   19.9280 O   0  0  0  0  0  0  0  0  0  0  0  0
  -24.6580  -31.7900   23.0790 C   0  0  0  0  0  0  0  0  0  0  0  0
  -27.2450  -27.2330   19.9320 C   0  0  0  0  0  0  0  0  0  0  0  0
  -23.4500  -30.4190   21.4220 C   0  0  0  0  0  3  0  0  0  0  0  0
  -24.8960  -28.8950   19.9550 C   0  0  0  0  0  0  0  0  0  0  0  0
  -25.9950  -30.7310   21.2330 C   0  0  0  0  0  2  0  0  0  0  0  0
  -26.0730  -29.3610   20.5560 C   0  0  0  0  0  0  0  0  0  0  0  0
  -27.2540  -28.5440   20.5280 C   0  0  0  0  0  3  0  0  0  0  0  0
  -26.0490  -26.8470   19.2940 C   0  0  0  0  0  3  0  0  0  0  0  0
  -24.8910  -27.6490   19.3090 C   0  0  0  0  0  3  0  0  0  0  0  0
  -23.6590  -29.7720   20.0290 C   0  0  0  0  0  2  0  0  0  0  0  0
  -24.7200  -30.9980   21.9680 N   0  0  0  0  0  0  0  0  0  0  0  0
  -23.5760  -32.0520   23.6260 O   0  0  0  0  0  0  0  0  0  0  0  0
  -22.7940  -29.3830   22.3690 C   0  0  0  0  0  0  0  0  0  0  0  0
  -21.4620  -29.2210   22.2680 N   0  0  0  0  0  0  0  0  0  0  0  0
  -23.4830  -28.7280   23.1550 O   0  0  0  0  0  0  0  0  0  0  0  0
  -20.9630  -29.7990   21.6070 H   0  0  0  0  0  0  0  0  0  0  0  0
  -18.0840  -28.0520   22.8340 C   0  0  0  0  0  0  0  0  0  0  0  0
  -20.6540  -28.2680   23.0320 C   0  0  0  0  0  3  0  0  0  0  0  0
  -20.7180  -26.8570   22.4060 C   0  0  0  0  0  2  0  0  0  0  0  0
  -19.5820  -26.5840   21.4160 C   0  0  0  0  0  2  0  0  0  0  0  0
  -18.2220  -26.7250   22.1050 C   0  0  0  0  0  2  0  0  0  0  0  0
  -19.2260  -28.7840   23.2550 C   0  0  0  0  0  0  0  0  0  0  0  0
  -19.0430  -30.0270   23.8990 C   0  0  0  0  0  3  0  0  0  0  0  0
  -17.7520  -30.5380   24.1230 C   0  0  0  0  0  3  0  0  0  0  0  0
  -16.6250  -29.8020   23.7190 C   0  0  0  0  0  3  0  0  0  0  0  0
  -16.7910  -28.5610   23.0790 C   0  0  0  0  0  3  0  0  0  0  0  0
  -25.9390  -32.4200   23.7050 C   0  0  0  0  0  3  0  0  0  0  0  0
  -26.4890  -31.6090   24.9440 C   0  0  1  0  0  0  0  0  0  0  0  0
  -25.4180  -31.3200   26.0220 C   0  0  0  0  0  1  0  0  0  0  0  0
  -27.0790  -30.2530   24.4970 C   0  0  0  0  0  1  0  0  0  0  0  0
  -27.6430  -32.3930   25.6120 C   0  0  0  0  0  1  0  0  0  0  0  0
  -25.6130  -33.8000   24.0960 N   0  0  0  0  0  0  0  0  0  0  0  0
  -25.9120  -34.8880   23.3730 C   0  0  0  0  0  0  0  0  0  0  0  0
  -26.5610  -34.8370   22.3260 O   0  0  0  0  0  0  0  0  0  0  0  0
  -25.0340  -33.9120   24.9140 H   0  0  0  0  0  0  0  0  0  0  0  0
  -24.1520  -36.6710   23.1270 C   0  0  0  0  0  1  0  0  0  0  0  0
  -25.4140  -36.2490   23.8980 C   0  0  0  0  0  3  0  0  0  0  0  0
  -27.5510  -37.1310   24.7250 C   0  0  0  0  0  1  0  0  0  0  0  0
  -26.4290  -37.3230   23.8100 N   0  0  0  0  0  0  0  0  0  0  0  0
  -26.0110  -38.2290   24.0040 H   0  0  0  0  0  0  0  0  0  0  0  0
  2  7  1  0
  3  4  1  0
  3  2  1  0
  5  4  1  0
  5 20  1  0
  5  6  1  0
  7  1  1  0
  7  6  1  0
  8  1  2  0
 10 15  1  0
 12 45  1  0
 12 16  1  0
 12 14  1  0
 13  9  1  0
 13 11  1  0
 14 10  1  0
 14 13  1  0
 15  9  1  0
 15 50  1  0
 16  1  1  0
 16 11  1  0
 17 18  2  0
 18 37  1  0
 19 18  1  0
 19 22  1  0
 20 17  1  0
 20 21  1  0
 21 19  2  0
 22 23  1  0
 23 24  2  0
 25 28  1  0
 25 24  1  0
 26 25  2  0
 27 26  1  0
 27 22  2  0
 28 29  1  0
 29 30  1  0
 30 31  2  0
 32 31  1  0
 32 36  1  0
 33 32  2  0
 34 29  2  0
 34 33  1  0
 35 34  1  0
 37 38  1  0
 38 41  1  0
 38 40  1  0
 39 37  2  0
 42 43  1  0
 42 17  1  0
 44 42  1  0
 45 47  2  0
 46 45  1  0
 48 46  1  0
 49 46  1  0
 51 52  2  0
 51 50  1  0
 53 55  1  0
 53 52  1  0
 54 65  2  0
 55 60  1  0
 56 64  1  0
 56 66  1  0
 57 63  1  0
 57 59  1  0
 58 64  1  0
 59 58  1  0
 60 59  2  0
 61 62  1  0
 61 55  2  0
 62 57  2  0
 63 56  1  0
 64 54  1  0
 66 68  2  0
 67 66  1  0
 69 67  1  0
 70 79  2  0
 70 75  1  0
 71 67  1  0
 71 75  1  0
 72 71  1  0
 73 74  1  0
 73 72  1  0
 74 70  1  0
 75 76  2  0
 76 77  1  0
 78 77  2  0
 79 78  1  0
 80 54  1  0
 80 85  1  0
 80 81  1  0
 81 84  1  1
 81 82  1  0
 83 81  1  0
 85 88  1  0
 86 90  1  0
 86 85  1  0
 87 86  2  0
 90 89  1  0
 92 90  1  0
 92 93  1  0
 92 91  1  0
M  ISO  4   1 100  16 100  52 101  53 101
M  END
>  <TORSDO>  (65) 
F 19

>  <SCORE>  (65) 
-13.874

>  <name>  (65) 
65

>  <ligand_id>  (65) 
65

>  <original_smiles>  (65) 
[H]c1c([H])c([H])c2c(c1[H])C([H])([H])C([H])([H])C([H])([H])C2([H])N([H])C(=O)C1([H])N(C(=O)C([H])(N([H])C(=O)C([H])(N([H])C([H])([H])[H])C([H])([H])[H])C(C([H])([H])[H])(C([H])([H])[H])C([H])([H])[H])C([H])([H])c2c([H])c(OC([H])([H])C([H])([H])C([H])([H])C3([H])C([H])([H])C4([H])C([H])([H])N(C(=O)N5C([H])([H])C([H])([H])C([H])([H])C([H])(n6nc(-c7c([H])c([H])c(Oc8c([H])c([H])c(F)c([H])c8F)c([H])c7[H])c(C(=O)N([H])[H])c6N([H])[H])C5([H])[H])C([H])(C(=O)N([H])[H])C4([H])C3([H])[H])c([H])c([H])c2C1([H])[H]

>  <smiles>  (65) 
[H]c1c([H])c([H])c2c(c1[H])C([H])([H])C([H])([H])C([H])([H])C2([H])N([H])C(=O)C1([H])N(C(=O)C([H])(N([H])C(=O)C([H])(N([H])C([H])([H])[H])C([H])([H])[H])C(C([H])([H])[H])(C([H])([H])[H])C([H])([H])[H])C([H])([H])c2c([H])c(OC([H])([H])C([H])([H])C([H])([H])C3([H])C([H])([H])C4([H])C([H])([H])N(C(=O)N5C([H])([H])C([H])([H])C([H])([H])C([H])(n6nc(-c7c([H])c([H])c(Oc8c([H])c([H])c(F)c([H])c8F)c([H])c7[H])c(C(=O)N([H])[H])c6N([H])[H])C5([H])[H])C([H])(C(=O)N([H])[H])C4([H])C3([H])[H])c([H])c([H])c2C1([H])[H]

$$$$
66:0:0
     RDKit          3D

 94102  0  0  1  0  0  0  0  0999 V2000
  -28.8880  -22.5720   19.5440 C   0  0  0  0  0  3  0  0  0  0  0  0
  -28.3270  -22.4910   18.1750 N   0  0  0  0  0  4  0  0  0  0  0  0
  -27.3260  -22.4080   18.1930 H   0  0  0  0  0  0  0  0  0  0  0  0
  -28.6890  -21.6890   17.6900 H   0  0  0  0  0  0  0  0  0  0  0  0
  -28.5680  -23.2980   17.6270 H   0  0  0  0  0  0  0  0  0  0  0  0
  -28.6880  -21.1450   20.2840 C   0  0  0  0  0  2  0  0  0  0  0  0
  -32.2620  -20.3060   20.2010 C   0  0  0  0  0  2  0  0  0  0  0  0
  -31.7530  -20.5460   18.7850 C   0  0  0  0  0  2  0  0  0  0  0  0
  -31.0010  -20.3720   21.0760 C   0  0  0  0  0  2  0  0  0  0  0  0
  -30.3790  -19.8760   18.7600 C   0  0  0  0  0  2  0  0  0  0  0  0
  -29.7900  -19.9590   20.1930 C   0  0  2  0  0  0  0  0  0  0  0  0
  -29.2770  -18.4690   20.5850 C   0  0  0  0  0  3  0  0  0  0  0  0
  -30.3320  -17.2570   20.7330 C   0  0  0  0  0  3  0  0  0  0  0  0
  -30.6140  -14.6960   20.4280 C   0  0  0  0  0  0  0  0  0  0  0  0
  -30.4030  -12.4440   19.3720 C   0  0  0  0  0  2  0  0  0  0  0  0
  -29.4770  -12.5530   18.1370 C   0  0  0  0  0  2  0  0  0  0  0  0
  -28.0060  -12.3760   18.5610 C   0  0  0  0  0  2  0  0  0  0  0  0
  -27.6260  -13.2540   19.7850 C   0  0  0  0  0  3  0  0  0  0  0  0
  -28.6740  -13.1330   20.9150 C   0  0  0  0  0  2  0  0  0  0  0  0
  -29.9790  -13.4820   20.3380 N   0  0  0  0  0  0  0  0  0  0  0  0
  -31.7920  -14.8140   20.0700 O   0  0  0  0  0  0  0  0  0  0  0  0
  -29.8650  -15.8110   20.7370 N   0  0  0  0  0  0  0  0  0  0  0  0
  -28.9050  -15.6390   21.0040 H   0  0  0  0  0  0  0  0  0  0  0  0
  -25.2320  -13.8370   20.5010 C   0  0  0  0  0  0  0  0  0  0  0  0
  -24.1700  -13.0580   20.8690 C   0  0  0  0  0  0  0  0  0  0  0  0
  -24.6410  -11.7090   20.8430 C   0  0  0  0  0  0  0  0  0  0  0  0
  -26.2810  -12.9620   20.2680 N   0  0  0  0  0  0  0  0  0  0  0  0
  -25.9320  -11.6770   20.5360 N   0  0  0  0  0  0  0  0  0  0  0  0
  -23.9220  -10.4450   21.0360 C   0  0  0  0  0  0  0  0  0  0  0  0
  -24.3580   -9.4830   21.9750 C   0  0  0  0  0  3  0  0  0  0  0  0
  -23.6380   -8.2810   22.1550 C   0  0  0  0  0  3  0  0  0  0  0  0
  -22.4700   -8.0350   21.3960 C   0  0  0  0  0  0  0  0  0  0  0  0
  -22.0550   -8.9840   20.4430 C   0  0  0  0  0  3  0  0  0  0  0  0
  -22.7740  -10.1770   20.2630 C   0  0  0  0  0  3  0  0  0  0  0  0
  -21.7220   -6.8880   21.4810 O   0  0  0  0  0  0  0  0  0  0  0  0
  -21.6700   -6.1480   22.6350 C   0  0  0  0  0  0  0  0  0  0  0  0
  -21.2260   -6.7010   23.8570 C   0  0  0  0  0  3  0  0  0  0  0  0
  -21.1250   -5.8870   25.0010 C   0  0  0  0  0  3  0  0  0  0  0  0
  -21.4550   -4.5200   24.9270 C   0  0  0  0  0  0  0  0  0  0  0  0
  -21.8920   -3.9670   23.7100 C   0  0  0  0  0  3  0  0  0  0  0  0
  -21.9970   -4.7790   22.5680 C   0  0  0  0  0  0  0  0  0  0  0  0
  -22.3970   -4.2380   21.3940 F   0  0  0  0  0  0  0  0  0  0  0  0
  -21.3510   -3.7350   26.0240 F   0  0  0  0  0  0  0  0  0  0  0  0
  -22.7700  -13.5270   21.1350 C   0  0  0  0  0  0  0  0  0  0  0  0
  -22.0470  -12.8270   22.0000 N   0  0  0  0  0  0  0  0  0  0  0  0
  -22.3270  -14.5490   20.6120 O   0  0  0  0  0  0  0  0  0  0  0  0
  -22.4240  -12.0050   22.4470 H   0  0  0  0  0  0  0  0  0  0  0  0
  -21.1060  -13.1170   22.2190 H   0  0  0  0  0  0  0  0  0  0  0  0
  -25.3870  -15.2090   20.3250 N   0  0  0  0  0  0  0  0  0  0  0  0
  -24.6120  -15.8530   20.4360 H   0  0  0  0  0  0  0  0  0  0  0  0
  -26.2280  -15.6550   19.9830 H   0  0  0  0  0  0  0  0  0  0  0  0
  -28.3560  -23.9140   20.2570 C   0  0  0  0  0  3  0  0  0  0  0  0
  -28.5840  -25.3100   19.5100 C   0  0  0  0  0  3  0  0  0  0  0  0
  -28.4010  -26.5890   20.2130 O   0  0  0  0  0  0  0  0  0  0  0  0
  -24.5980  -31.8780   23.2260 C   0  0  0  0  0  0  0  0  0  0  0  0
  -27.2330  -27.3580   20.1490 C   0  0  0  0  0  0  0  0  0  0  0  0
  -23.3940  -30.4770   21.5860 C   0  0  0  0  0  3  0  0  0  0  0  0
  -24.8450  -28.9280   20.1560 C   0  0  0  0  0  0  0  0  0  0  0  0
  -25.9290  -30.8070   21.3990 C   0  0  0  0  0  2  0  0  0  0  0  0
  -26.0080  -29.4330   20.7480 C   0  0  0  0  0  0  0  0  0  0  0  0
  -27.1990  -28.6560   20.7390 C   0  0  0  0  0  3  0  0  0  0  0  0
  -26.0440  -26.8870   19.5480 C   0  0  0  0  0  3  0  0  0  0  0  0
  -24.8620  -27.6590   19.5500 C   0  0  0  0  0  3  0  0  0  0  0  0
  -23.6060  -29.7970   20.2050 C   0  0  0  0  0  2  0  0  0  0  0  0
  -24.6580  -31.0730   22.1250 N   0  0  0  0  0  0  0  0  0  0  0  0
  -23.5160  -32.1530   23.7610 O   0  0  0  0  0  0  0  0  0  0  0  0
  -22.7370  -29.4600   22.5460 C   0  0  0  0  0  0  0  0  0  0  0  0
  -21.4110  -29.2840   22.4230 N   0  0  0  0  0  0  0  0  0  0  0  0
  -23.4170  -28.8330   23.3620 O   0  0  0  0  0  0  0  0  0  0  0  0
  -20.9210  -29.8460   21.7400 H   0  0  0  0  0  0  0  0  0  0  0  0
  -18.0310  -28.0970   22.9220 C   0  0  0  0  0  0  0  0  0  0  0  0
  -20.5910  -28.3460   23.1900 C   0  0  0  0  0  3  0  0  0  0  0  0
  -20.6880  -26.9170   22.6090 C   0  0  0  0  0  2  0  0  0  0  0  0
  -19.5830  -26.6010   21.5960 C   0  0  0  0  0  2  0  0  0  0  0  0
  -18.2030  -26.7480   22.2430 C   0  0  0  0  0  2  0  0  0  0  0  0
  -19.1530  -28.8530   23.3530 C   0  0  0  0  0  0  0  0  0  0  0  0
  -18.9400  -30.1160   23.9470 C   0  0  0  0  0  3  0  0  0  0  0  0
  -17.6370  -30.6200   24.1180 C   0  0  0  0  0  3  0  0  0  0  0  0
  -16.5280  -29.8610   23.7030 C   0  0  0  0  0  3  0  0  0  0  0  0
  -16.7270  -28.6000   23.1110 C   0  0  0  0  0  3  0  0  0  0  0  0
  -25.8820  -32.5090   23.8510 C   0  0  0  0  0  3  0  0  0  0  0  0
  -26.3960  -31.7380   25.1280 C   0  0  1  0  0  0  0  0  0  0  0  0
  -25.3030  -31.5050   26.1970 C   0  0  0  0  0  1  0  0  0  0  0  0
  -26.9760  -30.3580   24.7400 C   0  0  0  0  0  1  0  0  0  0  0  0
  -27.5470  -32.5330   25.7910 C   0  0  0  0  0  1  0  0  0  0  0  0
  -25.5700  -33.9080   24.1790 N   0  0  0  0  0  0  0  0  0  0  0  0
  -25.9050  -34.9610   23.4230 C   0  0  0  0  0  0  0  0  0  0  0  0
  -26.5760  -34.8600   22.3920 O   0  0  0  0  0  0  0  0  0  0  0  0
  -24.9690  -34.0620   24.9740 H   0  0  0  0  0  0  0  0  0  0  0  0
  -24.1770  -36.7570   23.0760 C   0  0  0  0  0  1  0  0  0  0  0  0
  -25.4190  -36.3500   23.8840 C   0  0  0  0  0  3  0  0  0  0  0  0
  -27.5540  -37.2330   24.7130 C   0  0  0  0  0  1  0  0  0  0  0  0
  -26.4510  -37.4020   23.7720 N   0  0  0  0  0  0  0  0  0  0  0  0
  -26.0450  -38.3230   23.9210 H   0  0  0  0  0  0  0  0  0  0  0  0
  1 52  1  0
  1  6  1  0
  2  3  1  0
  2  1  1  0
  4  2  1  0
  5  2  1  0
  7  9  1  0
  8  7  1  0
 10  8  1  0
 10 11  1  0
 11  6  1  6
 11 12  1  0
 11  9  1  0
 12 13  2  0
 13 22  1  0
 14 22  1  0
 15 20  1  0
 16 17  1  0
 16 15  1  0
 18 17  1  0
 18 27  1  0
 18 19  1  0
 20 14  1  0
 20 19  1  0
 21 14  2  0
 22 23  1  0
 24 25  2  0
 25 44  1  0
 26 25  1  0
 26 29  1  0
 27 24  1  0
 27 28  1  0
 28 26  2  0
 29 30  1  0
 30 31  2  0
 32 35  1  0
 32 31  1  0
 33 32  2  0
 34 33  1  0
 34 29  2  0
 35 36  1  0
 36 37  1  0
 37 38  2  0
 39 38  1  0
 39 43  1  0
 40 39  2  0
 41 36  2  0
 41 40  1  0
 42 41  1  0
 44 45  1  0
 45 48  1  0
 45 47  1  0
 46 44  2  0
 49 50  1  0
 49 24  1  0
 51 49  1  0
 53 54  1  0
 53 52  2  0
 55 66  2  0
 56 54  1  0
 56 61  1  0
 57 65  1  0
 57 67  1  0
 58 64  1  0
 58 60  1  0
 59 65  1  0
 60 59  1  0
 61 60  2  0
 62 63  1  0
 62 56  2  0
 63 58  2  0
 64 57  1  0
 65 55  1  0
 67 69  2  0
 68 67  1  0
 70 68  1  0
 71 80  2  0
 71 76  1  0
 72 68  1  0
 72 76  1  0
 73 72  1  0
 74 75  1  0
 74 73  1  0
 75 71  1  0
 76 77  2  0
 77 78  1  0
 79 78  2  0
 80 79  1  0
 81 55  1  0
 81 86  1  0
 81 82  1  0
 82 85  1  1
 82 83  1  0
 84 82  1  0
 86 89  1  0
 87 91  1  0
 87 86  1  0
 88 87  2  0
 91 90  1  0
 93 91  1  0
 93 94  1  0
 93 92  1  0
M  ISO  4  14 100  22 100  53 101  54 101
M  END
>  <TORSDO>  (66) 
F 23

>  <SCORE>  (66) 
-13.014

>  <name>  (66) 
66

>  <ligand_id>  (66) 
66

>  <original_smiles>  (66) 
[H]c1c([H])c([H])c2c(c1[H])C([H])([H])C([H])([H])C([H])([H])C2([H])N([H])C(=O)C1([H])N(C(=O)C([H])(N([H])C(=O)C([H])(N([H])C([H])([H])[H])C([H])([H])[H])C(C([H])([H])[H])(C([H])([H])[H])C([H])([H])[H])C([H])([H])c2c([H])c(OC([H])([H])C([H])([H])C([H])(C([H])([H])C3(C([H])([H])C([H])([H])N([H])C(=O)N4C([H])([H])C([H])([H])C([H])([H])C([H])(n5nc(-c6c([H])c([H])c(Oc7c([H])c([H])c(F)c([H])c7F)c([H])c6[H])c(C(=O)N([H])[H])c5N([H])[H])C4([H])[H])C([H])([H])C([H])([H])C([H])([H])C3([H])[H])[N+]([H])([H])[H])c([H])c([H])c2C1([H])[H]

>  <smiles>  (66) 
[H]c1c([H])c([H])c2c(c1[H])C([H])([H])C([H])([H])C([H])([H])C2([H])N([H])C(=O)C1([H])N(C(=O)C([H])(N([H])C(=O)C([H])(N([H])C([H])([H])[H])C([H])([H])[H])C(C([H])([H])[H])(C([H])([H])[H])C([H])([H])[H])C([H])([H])c2c([H])c(OC([H])([H])C([H])([H])C([H])(C([H])([H])C3(C([H])([H])C([H])([H])N([H])C(=O)N4C([H])([H])C([H])([H])C([H])([H])C([H])(n5nc(-c6c([H])c([H])c(Oc7c([H])c([H])c(F)c([H])c7F)c([H])c6[H])c(C(=O)N([H])[H])c5N([H])[H])C4([H])[H])C([H])([H])C([H])([H])C([H])([H])C3([H])[H])[N+]([H])([H])[H])c([H])c([H])c2C1([H])[H]

$$$$
67:0:0
     RDKit          3D

 97106  0  0  1  0  0  0  0  0999 V2000
  -27.6970  -20.1960   21.1070 C   0  0  0  0  0  2  0  0  0  0  0  0
  -27.8320  -21.7370   21.0790 C   0  0  0  0  0  2  0  0  0  0  0  0
  -29.0980  -17.9710   21.0450 C   0  0  0  0  0  2  0  0  0  0  0  0
  -30.1100  -18.6420   19.0470 C   0  0  0  0  0  2  0  0  0  0  0  0
  -29.4950  -21.4490   19.1920 C   0  0  0  0  0  2  0  0  0  0  0  0
  -29.0820  -19.5380   21.0580 C   0  0  0  0  0  3  0  0  0  0  0  0
  -29.8820  -20.0070   19.8410 C   0  0  0  0  0  3  0  0  0  0  0  0
  -30.2600  -17.4670   20.1250 C   0  0  2  0  0  0  0  0  0  0  0  0
  -28.2470  -22.3450   19.7050 C   0  0  1  0  0  0  0  0  0  0  0  0
  -30.8410  -14.9270   19.4590 C   0  0  0  0  0  0  0  0  0  0  0  0
  -30.6040  -12.6190   18.5270 C   0  0  0  0  0  2  0  0  0  0  0  0
  -29.5420  -12.6260   17.4050 C   0  0  0  0  0  2  0  0  0  0  0  0
  -28.1260  -12.4510   17.9910 C   0  0  0  0  0  2  0  0  0  0  0  0
  -27.8580  -13.3940   19.1930 C   0  0  0  0  0  3  0  0  0  0  0  0
  -29.0180  -13.3430   20.2090 C   0  0  0  0  0  2  0  0  0  0  0  0
  -30.2450  -13.6910   19.4790 N   0  0  0  0  0  0  0  0  0  0  0  0
  -31.9940  -15.0570   19.0380 O   0  0  0  0  0  0  0  0  0  0  0  0
  -30.0230  -16.0060   19.7440 N   0  0  0  0  0  0  0  0  0  0  0  0
  -29.0820  -15.7090   19.9400 H   0  0  0  0  0  0  0  0  0  0  0  0
  -25.5860  -14.0290   20.1990 C   0  0  0  0  0  0  0  0  0  0  0  0
  -24.5440  -13.2730   20.6600 C   0  0  0  0  0  0  0  0  0  0  0  0
  -24.9590  -11.9110   20.5360 C   0  0  0  0  0  0  0  0  0  0  0  0
  -26.5690  -13.1290   19.8210 N   0  0  0  0  0  0  0  0  0  0  0  0
  -26.2070  -11.8490   20.0850 N   0  0  0  0  0  0  0  0  0  0  0  0
  -24.2220  -10.6620   20.7640 C   0  0  0  0  0  0  0  0  0  0  0  0
  -24.6510   -9.7170   21.7200 C   0  0  0  0  0  3  0  0  0  0  0  0
  -23.9150   -8.5320   21.9350 C   0  0  0  0  0  3  0  0  0  0  0  0
  -22.7360   -8.2850   21.1930 C   0  0  0  0  0  0  0  0  0  0  0  0
  -22.3270   -9.2190   20.2260 C   0  0  0  0  0  3  0  0  0  0  0  0
  -23.0630  -10.3950   20.0100 C   0  0  0  0  0  3  0  0  0  0  0  0
  -21.9700   -7.1500   21.3150 O   0  0  0  0  0  0  0  0  0  0  0  0
  -21.8230   -6.5080   22.5190 C   0  0  0  0  0  0  0  0  0  0  0  0
  -21.2860   -7.1610   23.6500 C   0  0  0  0  0  3  0  0  0  0  0  0
  -21.0870   -6.4440   24.8470 C   0  0  0  0  0  3  0  0  0  0  0  0
  -21.4160   -5.0760   24.9130 C   0  0  0  0  0  0  0  0  0  0  0  0
  -21.9440   -4.4240   23.7860 C   0  0  0  0  0  3  0  0  0  0  0  0
  -22.1460   -5.1380   22.5910 C   0  0  0  0  0  0  0  0  0  0  0  0
  -22.6370   -4.5000   21.5010 F   0  0  0  0  0  0  0  0  0  0  0  0
  -21.2180   -4.3870   26.0600 F   0  0  0  0  0  0  0  0  0  0  0  0
  -23.1990  -13.7750   21.0970 C   0  0  0  0  0  0  0  0  0  0  0  0
  -22.5560  -13.0780   22.0260 N   0  0  0  0  0  0  0  0  0  0  0  0
  -22.7310  -14.8220   20.6470 O   0  0  0  0  0  0  0  0  0  0  0  0
  -22.9490  -12.2320   22.4120 H   0  0  0  0  0  0  0  0  0  0  0  0
  -21.6580  -13.3970   22.3600 H   0  0  0  0  0  0  0  0  0  0  0  0
  -25.7680  -15.4000   20.0430 N   0  0  0  0  0  0  0  0  0  0  0  0
  -25.0280  -16.0610   20.2510 H   0  0  0  0  0  0  0  0  0  0  0  0
  -26.5610  -15.8280   19.5860 H   0  0  0  0  0  0  0  0  0  0  0  0
  -31.5920  -17.5220   20.9180 C   0  0  0  0  0  0  0  0  0  0  0  0
  -32.6700  -18.0100   20.3240 N   0  0  0  0  0  0  0  0  0  0  0  0
  -31.6610  -17.0610   22.0570 O   0  0  0  0  0  0  0  0  0  0  0  0
  -32.6100  -18.3570   19.3780 H   0  0  0  0  0  0  0  0  0  0  0  0
  -33.5570  -18.0300   20.8060 H   0  0  0  0  0  0  0  0  0  0  0  0
  -25.7020  -22.6770   19.0960 C   0  0  0  0  0  1  0  0  0  0  0  0
  -27.0930  -22.1530   18.6790 C   0  0  0  0  0  2  0  0  0  0  0  0
  -28.4840  -23.9520   19.9580 C   0  0  0  0  0  3  0  0  0  0  0  0
  -28.2250  -25.1310   18.8870 C   0  0  0  0  0  3  0  0  0  0  0  0
  -28.2350  -26.5710   19.3180 O   0  0  0  0  0  0  0  0  0  0  0  0
  -24.6790  -31.6930   23.0070 C   0  0  0  0  0  0  0  0  0  0  0  0
  -27.0860  -27.3900   19.4070 C   0  0  0  0  0  0  0  0  0  0  0  0
  -23.3660  -30.4120   21.3530 C   0  0  0  0  0  3  0  0  0  0  0  0
  -24.7170  -28.9930   19.7030 C   0  0  0  0  0  0  0  0  0  0  0  0
  -25.8850  -30.7660   21.0110 C   0  0  0  0  0  2  0  0  0  0  0  0
  -25.9230  -29.4390   20.2530 C   0  0  0  0  0  0  0  0  0  0  0  0
  -27.1040  -28.6480   20.0980 C   0  0  0  0  0  3  0  0  0  0  0  0
  -25.8480  -27.0060   18.8420 C   0  0  0  0  0  3  0  0  0  0  0  0
  -24.6830  -27.7860   18.9880 C   0  0  0  0  0  3  0  0  0  0  0  0
  -23.4820  -29.8470   19.9110 C   0  0  0  0  0  2  0  0  0  0  0  0
  -24.6660  -30.9720   21.8460 N   0  0  0  0  0  0  0  0  0  0  0  0
  -23.6360  -31.9120   23.6400 O   0  0  0  0  0  0  0  0  0  0  0  0
  -22.7840  -29.3170   22.2770 C   0  0  0  0  0  0  0  0  0  0  0  0
  -21.4620  -29.0930   22.1940 N   0  0  0  0  0  0  0  0  0  0  0  0
  -23.5190  -28.6710   23.0280 O   0  0  0  0  0  0  0  0  0  0  0  0
  -20.9220  -29.6710   21.5650 H   0  0  0  0  0  0  0  0  0  0  0  0
  -18.1740  -27.6690   22.6980 C   0  0  0  0  0  0  0  0  0  0  0  0
  -20.7150  -28.0770   22.9390 C   0  0  0  0  0  3  0  0  0  0  0  0
  -20.8940  -26.6780   22.3050 C   0  0  0  0  0  2  0  0  0  0  0  0
  -19.7960  -26.3220   21.2980 C   0  0  0  0  0  2  0  0  0  0  0  0
  -18.4190  -26.3570   21.9720 C   0  0  0  0  0  2  0  0  0  0  0  0
  -19.2510  -28.4820   23.1400 C   0  0  0  0  0  0  0  0  0  0  0  0
  -18.9670  -29.7050   23.7830 C   0  0  0  0  0  3  0  0  0  0  0  0
  -17.6380  -30.1190   23.9880 C   0  0  0  0  0  3  0  0  0  0  0  0
  -16.5750  -29.3030   23.5630 C   0  0  0  0  0  3  0  0  0  0  0  0
  -16.8440  -28.0800   22.9250 C   0  0  0  0  0  3  0  0  0  0  0  0
  -25.9990  -32.2930   23.5810 C   0  0  0  0  0  3  0  0  0  0  0  0
  -26.6290  -31.4170   24.7330 C   0  0  1  0  0  0  0  0  0  0  0  0
  -25.6330  -31.0590   25.8610 C   0  0  0  0  0  1  0  0  0  0  0  0
  -27.1960  -30.0940   24.1680 C   0  0  0  0  0  1  0  0  0  0  0  0
  -27.8210  -32.1710   25.3710 C   0  0  0  0  0  1  0  0  0  0  0  0
  -25.6950  -33.6450   24.0710 N   0  0  0  0  0  0  0  0  0  0  0  0
  -25.9740  -34.7760   23.4100 C   0  0  0  0  0  0  0  0  0  0  0  0
  -26.5840  -34.7900   22.3380 O   0  0  0  0  0  0  0  0  0  0  0  0
  -25.1450  -33.7050   24.9150 H   0  0  0  0  0  0  0  0  0  0  0  0
  -24.2170  -36.5760   23.3390 C   0  0  0  0  0  1  0  0  0  0  0  0
  -25.5020  -36.1040   24.0370 C   0  0  0  0  0  3  0  0  0  0  0  0
  -27.6710  -36.9240   24.8450 C   0  0  0  0  0  1  0  0  0  0  0  0
  -26.5210  -37.1750   23.9820 N   0  0  0  0  0  0  0  0  0  0  0  0
  -26.1160  -38.0710   24.2410 H   0  0  0  0  0  0  0  0  0  0  0  0
  2  1  1  0
  4  8  1  0
  5  9  1  0
  5  7  1  0
  6  3  1  0
  6  1  1  0
  7  4  1  0
  7  6  1  0
  8 48  1  0
  8  3  1  0
  9 54  1  6
  9 55  1  0
  9  2  1  0
 10 16  1  0
 10 18  1  0
 11 16  1  0
 12 13  1  0
 12 11  1  0
 14 13  1  0
 14 23  1  0
 14 15  1  0
 16 15  1  0
 17 10  2  0
 18 19  1  0
  8 18  1  6
 20 21  2  0
 21 40  1  0
 22 21  1  0
 22 25  1  0
 23 24  1  0
 23 20  1  0
 24 22  2  0
 25 26  1  0
 26 27  2  0
 28 31  1  0
 28 27  1  0
 29 28  2  0
 30 29  1  0
 30 25  2  0
 31 32  1  0
 32 37  2  0
 32 33  1  0
 33 34  2  0
 34 35  1  0
 35 39  1  0
 36 35  2  0
 37 36  1  0
 38 37  1  0
 40 41  1  0
 41 44  1  0
 41 43  1  0
 42 40  2  0
 45 20  1  0
 45 46  1  0
 47 45  1  0
 48 50  2  0
 49 52  1  0
 49 48  1  0
 51 49  1  0
 54 53  1  0
 56 57  1  0
 56 55  2  0
 57 59  1  0
 58 69  2  0
 59 64  1  0
 60 68  1  0
 60 70  1  0
 61 67  1  0
 61 63  1  0
 62 68  1  0
 63 62  1  0
 64 63  2  0
 65 66  1  0
 65 59  2  0
 66 61  2  0
 67 60  1  0
 68 58  1  0
 70 72  2  0
 71 70  1  0
 73 71  1  0
 74 83  2  0
 74 79  1  0
 75 71  1  0
 75 79  1  0
 76 75  1  0
 77 78  1  0
 77 76  1  0
 78 74  1  0
 79 80  2  0
 80 81  1  0
 82 81  2  0
 83 82  1  0
 84 58  1  0
 84 89  1  0
 84 85  1  0
 85 88  1  1
 85 86  1  0
 87 85  1  0
 89 92  1  0
 90 94  1  0
 90 89  1  0
 91 90  2  0
 94 93  1  0
 96 94  1  0
 96 97  1  0
 96 95  1  0
M  ISO  4  10 100  18 100  56 101  57 101
M  END
>  <TORSDO>  (67) 
F 20

>  <SCORE>  (67) 
-11.245

>  <name>  (67) 
67

>  <ligand_id>  (67) 
67

>  <original_smiles>  (67) 
[H]c1c([H])c([H])c2c(c1[H])C([H])([H])C([H])([H])C([H])([H])C2([H])N([H])C(=O)C1([H])N(C(=O)C([H])(N([H])C(=O)C([H])(N([H])C([H])([H])[H])C([H])([H])[H])C(C([H])([H])[H])(C([H])([H])[H])C([H])([H])[H])C([H])([H])c2c([H])c(OC([H])([H])C([H])([H])C3(C([H])([H])C([H])([H])[H])C([H])([H])C([H])([H])C4([H])C([H])([H])C(C(=O)N([H])[H])(N([H])C(=O)N5C([H])([H])C([H])([H])C([H])([H])C([H])(n6nc(-c7c([H])c([H])c(Oc8c([H])c([H])c(F)c([H])c8F)c([H])c7[H])c(C(=O)N([H])[H])c6N([H])[H])C5([H])[H])C([H])([H])C4([H])C3([H])[H])c([H])c([H])c2C1([H])[H]

>  <smiles>  (67) 
[H]c1c([H])c([H])c2c(c1[H])C([H])([H])C([H])([H])C([H])([H])C2([H])N([H])C(=O)C1([H])N(C(=O)C([H])(N([H])C(=O)C([H])(N([H])C([H])([H])[H])C([H])([H])[H])C(C([H])([H])[H])(C([H])([H])[H])C([H])([H])[H])C([H])([H])c2c([H])c(OC([H])([H])C([H])([H])C3(C([H])([H])C([H])([H])[H])C([H])([H])C([H])([H])C4([H])C([H])([H])C(C(=O)N([H])[H])(N([H])C(=O)N5C([H])([H])C([H])([H])C([H])([H])C([H])(n6nc(-c7c([H])c([H])c(Oc8c([H])c([H])c(F)c([H])c8F)c([H])c7[H])c(C(=O)N([H])[H])c6N([H])[H])C5([H])[H])C([H])([H])C4([H])C3([H])[H])c([H])c([H])c2C1([H])[H]

$$$$
68:0:0
     RDKit          3D

 96105  0  0  1  0  0  0  0  0999 V2000
  -29.6790  -19.7940   18.0190 C   0  0  0  0  0  3  0  0  0  0  0  0
  -29.8360  -19.4710   19.3230 C   0  0  0  0  0  0  0  0  0  0  0  0
  -29.2410  -17.4980   17.2530 C   0  0  0  0  0  2  0  0  0  0  0  0
  -31.5490  -18.3930   17.2920 C   0  0  0  0  0  2  0  0  0  0  0  0
  -29.3490  -17.0830   18.7390 C   0  0  0  0  0  2  0  0  0  0  0  0
  -31.6950  -17.9350   18.7680 C   0  0  0  0  0  2  0  0  0  0  0  0
  -30.0780  -18.7640   16.9780 C   0  0  2  0  0  0  0  0  0  0  0  0
  -30.3380  -17.9950   19.5310 C   0  0  1  0  0  0  0  0  0  0  0  0
  -30.6960  -20.4700   15.1050 C   0  0  0  0  0  1  0  0  0  0  0  0
  -29.8560  -19.2530   15.5310 C   0  0  0  0  0  2  0  0  0  0  0  0
  -29.5930  -20.5010   20.4540 C   0  0  0  0  0  2  0  0  0  0  0  0
  -29.3760  -21.8870   19.9120 N   0  0  0  0  0  4  0  0  0  0  0  0
  -28.6230  -21.8310   19.2460 H   0  0  0  0  0  0  0  0  0  0  0  0
  -30.2120  -22.1410   19.4090 H   0  0  0  0  0  0  0  0  0  0  0  0
  -29.0530  -23.0040   20.8480 C   0  0  0  0  0  2  0  0  0  0  0  0
  -28.9390  -24.3860   20.1140 C   0  0  0  0  0  2  0  0  0  0  0  0
  -28.4850  -25.5830   21.0010 C   0  0  0  0  0  2  0  0  0  0  0  0
  -28.5400  -26.8630   20.3290 O   0  0  0  0  0  0  0  0  0  0  0  0
  -24.5950  -31.9890   23.3500 C   0  0  0  0  0  0  0  0  0  0  0  0
  -27.3680  -27.5920   20.3130 C   0  0  0  0  0  0  0  0  0  0  0  0
  -23.4430  -30.5720   21.6830 C   0  0  0  0  0  3  0  0  0  0  0  0
  -24.9500  -29.0670   20.2750 C   0  0  0  0  0  0  0  0  0  0  0  0
  -25.9640  -30.9810   21.5260 C   0  0  0  0  0  2  0  0  0  0  0  0
  -26.0890  -29.6110   20.8830 C   0  0  0  0  0  0  0  0  0  0  0  0
  -27.3040  -28.8830   20.8910 C   0  0  0  0  0  3  0  0  0  0  0  0
  -26.2120  -27.0650   19.6970 C   0  0  0  0  0  3  0  0  0  0  0  0
  -25.0080  -27.7950   19.6760 C   0  0  0  0  0  3  0  0  0  0  0  0
  -23.6870  -29.9020   20.3040 C   0  0  0  0  0  2  0  0  0  0  0  0
  -24.6840  -31.1960   22.2460 N   0  0  0  0  0  0  0  0  0  0  0  0
  -23.5000  -32.2370   23.8750 O   0  0  0  0  0  0  0  0  0  0  0  0
  -22.7960  -29.5350   22.6280 C   0  0  0  0  0  0  0  0  0  0  0  0
  -21.4780  -29.3250   22.4760 N   0  0  0  0  0  0  0  0  0  0  0  0
  -23.4780  -28.9200   23.4540 O   0  0  0  0  0  0  0  0  0  0  0  0
  -20.9890  -29.8760   21.7850 H   0  0  0  0  0  0  0  0  0  0  0  0
  -18.1190  -28.0660   22.9060 C   0  0  0  0  0  0  0  0  0  0  0  0
  -20.6660  -28.3670   23.2270 C   0  0  0  0  0  3  0  0  0  0  0  0
  -20.8050  -26.9420   22.6440 C   0  0  0  0  0  2  0  0  0  0  0  0
  -19.7280  -26.6060   21.6070 C   0  0  0  0  0  2  0  0  0  0  0  0
  -18.3320  -26.7230   22.2260 C   0  0  0  0  0  2  0  0  0  0  0  0
  -19.2140  -28.8450   23.3610 C   0  0  0  0  0  0  0  0  0  0  0  0
  -18.9620  -30.1020   23.9510 C   0  0  0  0  0  3  0  0  0  0  0  0
  -17.6450  -30.5790   24.0970 C   0  0  0  0  0  3  0  0  0  0  0  0
  -16.5630  -29.7940   23.6610 C   0  0  0  0  0  3  0  0  0  0  0  0
  -16.8010  -28.5410   23.0700 C   0  0  0  0  0  3  0  0  0  0  0  0
  -25.8570  -32.6430   23.9930 C   0  0  0  0  0  3  0  0  0  0  0  0
  -25.5340  -34.0470   24.2800 N   0  0  0  0  0  0  0  0  0  0  0  0
  -25.8870  -35.0820   23.5070 C   0  0  0  0  0  0  0  0  0  0  0  0
  -26.5910  -34.9550   22.5010 O   0  0  0  0  0  0  0  0  0  0  0  0
  -24.9130  -34.2170   25.0560 H   0  0  0  0  0  0  0  0  0  0  0  0
  -24.1730  -36.8640   23.0430 C   0  0  0  0  0  1  0  0  0  0  0  0
  -25.3810  -36.4780   23.9140 C   0  0  0  0  0  3  0  0  0  0  0  0
  -27.4760  -37.3880   24.8140 C   0  0  0  0  0  1  0  0  0  0  0  0
  -26.4150  -37.5310   23.8210 N   0  0  0  0  0  0  0  0  0  0  0  0
  -26.0010  -38.4530   23.9300 H   0  0  0  0  0  0  0  0  0  0  0  0
  -26.3400  -31.9040   25.3010 C   0  0  1  0  0  0  0  0  0  0  0  0
  -25.2150  -31.6790   26.3390 C   0  0  0  0  0  1  0  0  0  0  0  0
  -26.9480  -30.5240   24.9560 C   0  0  0  0  0  1  0  0  0  0  0  0
  -27.4570  -32.7240   25.9870 C   0  0  0  0  0  1  0  0  0  0  0  0
  -30.5380  -17.4690   21.0040 C   0  0  0  0  0  2  0  0  0  0  0  0
  -30.2080  -15.9640   21.3710 C   0  0  0  0  0  2  0  0  0  0  0  0
  -30.9630  -14.7640   20.7060 C   0  0  0  0  0  0  0  0  0  0  0  0
  -30.7220  -12.6250   19.4590 C   0  0  0  0  0  2  0  0  0  0  0  0
  -29.8150  -12.8510   18.2300 C   0  0  0  0  0  2  0  0  0  0  0  0
  -28.3270  -12.7000   18.6080 C   0  0  0  0  0  2  0  0  0  0  0  0
  -27.9530  -13.5040   19.8810 C   0  0  0  0  0  3  0  0  0  0  0  0
  -28.9730  -13.2520   21.0150 C   0  0  0  0  0  2  0  0  0  0  0  0
  -30.3100  -13.5810   20.5000 N   0  0  0  0  0  0  0  0  0  0  0  0
  -32.1120  -14.9380   20.2910 O   0  0  0  0  0  0  0  0  0  0  0  0
  -25.5310  -14.1100   20.4990 C   0  0  0  0  0  0  0  0  0  0  0  0
  -24.4500  -13.3410   20.8330 C   0  0  0  0  0  0  0  0  0  0  0  0
  -24.9130  -11.9880   20.8320 C   0  0  0  0  0  0  0  0  0  0  0  0
  -26.5840  -13.2290   20.3130 N   0  0  0  0  0  0  0  0  0  0  0  0
  -26.2130  -11.9490   20.5710 N   0  0  0  0  0  0  0  0  0  0  0  0
  -24.1820  -10.7270   21.0100 C   0  0  0  0  0  0  0  0  0  0  0  0
  -24.5580   -9.7850   21.9910 C   0  0  0  0  0  3  0  0  0  0  0  0
  -23.8300   -8.5870   22.1520 C   0  0  0  0  0  3  0  0  0  0  0  0
  -22.7100   -8.3210   21.3290 C   0  0  0  0  0  0  0  0  0  0  0  0
  -22.3520   -9.2530   20.3380 C   0  0  0  0  0  3  0  0  0  0  0  0
  -23.0820  -10.4430   20.1780 C   0  0  0  0  0  3  0  0  0  0  0  0
  -21.9560   -7.1750   21.3940 O   0  0  0  0  0  0  0  0  0  0  0  0
  -21.8030   -6.4810   22.5670 C   0  0  0  0  0  0  0  0  0  0  0  0
  -21.2360   -7.0780   23.7160 C   0  0  0  0  0  3  0  0  0  0  0  0
  -21.0400   -6.3100   24.8810 C   0  0  0  0  0  3  0  0  0  0  0  0
  -21.3930   -4.9470   24.8970 C   0  0  0  0  0  0  0  0  0  0  0  0
  -21.9490   -4.3500   23.7520 C   0  0  0  0  0  3  0  0  0  0  0  0
  -22.1530   -5.1160   22.5890 C   0  0  0  0  0  0  0  0  0  0  0  0
  -22.6720   -4.5320   21.4830 F   0  0  0  0  0  0  0  0  0  0  0  0
  -21.1950   -4.2070   26.0130 F   0  0  0  0  0  0  0  0  0  0  0  0
  -23.0440  -13.8180   21.0540 C   0  0  0  0  0  0  0  0  0  0  0  0
  -22.2890  -13.1250   21.9000 N   0  0  0  0  0  0  0  0  0  0  0  0
  -22.6220  -14.8380   20.5120 O   0  0  0  0  0  0  0  0  0  0  0  0
  -22.6480  -12.2990   22.3580 H   0  0  0  0  0  0  0  0  0  0  0  0
  -21.3460  -13.4250   22.0960 H   0  0  0  0  0  0  0  0  0  0  0  0
  -25.7040  -15.4810   20.3190 N   0  0  0  0  0  0  0  0  0  0  0  0
  -24.9350  -16.1390   20.3810 H   0  0  0  0  0  0  0  0  0  0  0  0
  -26.5730  -15.9060   20.0240 H   0  0  0  0  0  0  0  0  0  0  0  0
  1  2  2  0
  2  8  1  0
  2 11  1  0
  3  5  1  0
  4  6  1  0
  5  8  1  0
  6  8  1  0
  7 10  1  6
  7  3  1  0
  7  4  1  0
  7  1  1  0
  8 59  1  1
  9 10  1  0
 12 11  1  0
 12 15  1  0
 13 12  1  0
 14 12  1  0
 16 15  1  0
 16 17  1  0
 18 17  1  0
 19 30  2  0
 20 18  1  0
 20 25  1  0
 21 29  1  0
 21 31  1  0
 22 28  1  0
 22 24  1  0
 23 29  1  0
 24 25  2  0
 24 23  1  0
 26 20  2  0
 27 26  1  0
 27 22  2  0
 28 21  1  0
 29 19  1  0
 31 33  2  0
 32 31  1  0
 34 32  1  0
 35 44  2  0
 35 40  1  0
 36 32  1  0
 36 40  1  0
 37 36  1  0
 38 39  1  0
 38 37  1  0
 39 35  1  0
 40 41  2  0
 41 42  1  0
 43 42  2  0
 44 43  1  0
 45 19  1  0
 45 46  1  0
 45 55  1  0
 46 49  1  0
 47 51  1  0
 47 46  1  0
 48 47  2  0
 51 50  1  0
 53 51  1  0
 53 54  1  0
 53 52  1  0
 55 58  1  1
 55 56  1  0
 57 55  1  0
 59 60  1  0
 61 60  1  0
 62 67  1  0
 63 64  1  0
 63 62  1  0
 65 64  1  0
 65 72  1  0
 65 66  1  0
 67 61  1  0
 67 66  1  0
 68 61  2  0
 69 70  2  0
 70 89  1  0
 71 70  1  0
 71 74  1  0
 72 69  1  0
 72 73  1  0
 73 71  2  0
 74 75  1  0
 75 76  2  0
 77 80  1  0
 77 76  1  0
 78 77  2  0
 79 78  1  0
 79 74  2  0
 80 81  1  0
 81 86  2  0
 81 82  1  0
 82 83  2  0
 83 84  1  0
 84 88  1  0
 85 84  2  0
 86 85  1  0
 87 86  1  0
 89 90  1  0
 90 93  1  0
 90 92  1  0
 91 89  2  0
 94 95  1  0
 94 69  1  0
 96 94  1  0
M  ISO  4  17 101  18 101  60 100  61 100
M  END
>  <TORSDO>  (68) 
F 24

>  <SCORE>  (68) 
-11.880

>  <name>  (68) 
68

>  <ligand_id>  (68) 
68

>  <original_smiles>  (68) 
[H]C1=C(C([H])([H])[N+]([H])([H])C([H])([H])C([H])([H])C([H])([H])Oc2c([H])c([H])c3c(c2[H])C([H])([H])N(C(=O)C([H])(N([H])C(=O)C([H])(N([H])C([H])([H])[H])C([H])([H])[H])C(C([H])([H])[H])(C([H])([H])[H])C([H])([H])[H])C([H])(C(=O)N([H])C2([H])c4c([H])c([H])c([H])c([H])c4C([H])([H])C([H])([H])C2([H])[H])C3([H])[H])C2(C([H])([H])C([H])([H])C(=O)N3C([H])([H])C([H])([H])C([H])([H])C([H])(n4nc(-c5c([H])c([H])c(Oc6c([H])c([H])c(F)c([H])c6F)c([H])c5[H])c(C(=O)N([H])[H])c4N([H])[H])C3([H])[H])C([H])([H])C([H])([H])C1(C([H])([H])C([H])([H])[H])C([H])([H])C2([H])[H]

>  <smiles>  (68) 
[H]C1=C(C([H])([H])[N+]([H])([H])C([H])([H])C([H])([H])C([H])([H])Oc2c([H])c([H])c3c(c2[H])C([H])([H])N(C(=O)C([H])(N([H])C(=O)C([H])(N([H])C([H])([H])[H])C([H])([H])[H])C(C([H])([H])[H])(C([H])([H])[H])C([H])([H])[H])C([H])(C(=O)N([H])C2([H])c4c([H])c([H])c([H])c([H])c4C([H])([H])C([H])([H])C2([H])[H])C3([H])[H])C2(C([H])([H])C([H])([H])C(=O)N3C([H])([H])C([H])([H])C([H])([H])C([H])(n4nc(-c5c([H])c([H])c(Oc6c([H])c([H])c(F)c([H])c6F)c([H])c5[H])c(C(=O)N([H])[H])c4N([H])[H])C3([H])[H])C([H])([H])C([H])([H])C1(C([H])([H])C([H])([H])[H])C([H])([H])C2([H])[H]

$$$$
69:0:0
     RDKit          3D

 89 98  0  0  1  0  0  0  0  0999 V2000
  -28.4750  -20.1830   19.2630 C   0  0  0  0  0  2  0  0  0  0  0  0
  -29.8190  -19.8740   21.2950 C   0  0  0  0  0  2  0  0  0  0  0  0
  -29.8900  -17.8970   18.8620 C   0  0  0  0  0  2  0  0  0  0  0  0
  -28.7030  -18.6660   19.4970 C   0  0  0  0  0  3  0  0  0  0  0  0
  -29.3550  -18.4410   20.8510 C   0  0  0  0  0  3  0  0  0  0  0  0
  -29.3560  -20.9890   20.2620 C   0  0  0  0  0  3  0  0  0  0  0  0
  -30.2920  -17.3120   20.2340 C   0  0  0  0  0  3  0  0  0  0  0  0
  -30.6620  -14.7300   20.1400 C   0  0  0  0  0  0  0  0  0  0  0  0
  -30.4250  -12.4800   19.1020 C   0  0  0  0  0  2  0  0  0  0  0  0
  -29.4490  -12.5870   17.9100 C   0  0  0  0  0  2  0  0  0  0  0  0
  -27.9930  -12.4090   18.3820 C   0  0  0  0  0  2  0  0  0  0  0  0
  -27.6590  -13.2810   19.6240 C   0  0  0  0  0  3  0  0  0  0  0  0
  -28.7490  -13.1650   20.7120 C   0  0  0  0  0  2  0  0  0  0  0  0
  -30.0290  -13.5120   20.0860 N   0  0  0  0  0  0  0  0  0  0  0  0
  -31.8380  -14.8390   19.7810 O   0  0  0  0  0  0  0  0  0  0  0  0
  -29.8940  -15.8510   20.3860 N   0  0  0  0  0  0  0  0  0  0  0  0
  -28.9270  -15.6740   20.6140 H   0  0  0  0  0  0  0  0  0  0  0  0
  -25.2930  -13.8720   20.4190 C   0  0  0  0  0  0  0  0  0  0  0  0
  -24.2360  -13.0960   20.8110 C   0  0  0  0  0  0  0  0  0  0  0  0
  -24.6960  -11.7440   20.7550 C   0  0  0  0  0  0  0  0  0  0  0  0
  -26.3280  -12.9920   20.1470 N   0  0  0  0  0  0  0  0  0  0  0  0
  -25.9780  -11.7080   20.4140 N   0  0  0  0  0  0  0  0  0  0  0  0
  -23.9740  -10.4820   20.9550 C   0  0  0  0  0  0  0  0  0  0  0  0
  -24.4150   -9.5180   21.8880 C   0  0  0  0  0  3  0  0  0  0  0  0
  -23.6940   -8.3210   22.0760 C   0  0  0  0  0  3  0  0  0  0  0  0
  -22.5160   -8.0770   21.3310 C   0  0  0  0  0  0  0  0  0  0  0  0
  -22.0930   -9.0280   20.3870 C   0  0  0  0  0  3  0  0  0  0  0  0
  -22.8150  -10.2180   20.1970 C   0  0  0  0  0  3  0  0  0  0  0  0
  -21.7650   -6.9310   21.4290 O   0  0  0  0  0  0  0  0  0  0  0  0
  -21.7060   -6.2070   22.5940 C   0  0  0  0  0  0  0  0  0  0  0  0
  -21.2380   -6.7710   23.7990 C   0  0  0  0  0  3  0  0  0  0  0  0
  -21.1280   -5.9690   24.9540 C   0  0  0  0  0  3  0  0  0  0  0  0
  -21.4770   -4.6070   24.9030 C   0  0  0  0  0  0  0  0  0  0  0  0
  -21.9400   -4.0440   23.7010 C   0  0  0  0  0  3  0  0  0  0  0  0
  -22.0520   -4.8420   22.5490 C   0  0  0  0  0  0  0  0  0  0  0  0
  -22.4780   -4.2890   21.3880 F   0  0  0  0  0  0  0  0  0  0  0  0
  -21.3620   -3.8360   26.0100 F   0  0  0  0  0  0  0  0  0  0  0  0
  -22.8490  -13.5710   21.1250 C   0  0  0  0  0  0  0  0  0  0  0  0
  -22.1450  -12.8660   22.0030 N   0  0  0  0  0  0  0  0  0  0  0  0
  -22.3990  -14.6040   20.6280 O   0  0  0  0  0  0  0  0  0  0  0  0
  -22.5220  -12.0290   22.4210 H   0  0  0  0  0  0  0  0  0  0  0  0
  -21.2140  -13.1660   22.2560 H   0  0  0  0  0  0  0  0  0  0  0  0
  -25.4500  -15.2440   20.2480 N   0  0  0  0  0  0  0  0  0  0  0  0
  -24.6770  -15.8870   20.3870 H   0  0  0  0  0  0  0  0  0  0  0  0
  -26.2740  -15.6960   19.8710 H   0  0  0  0  0  0  0  0  0  0  0  0
  -28.7410  -22.3590   20.8580 C   0  0  0  0  0  2  0  0  0  0  0  0
  -28.9200  -23.7930   20.1380 C   0  0  0  0  0  3  0  0  0  0  0  0
  -28.1950  -25.0710   20.7890 C   0  0  0  0  0  3  0  0  0  0  0  0
  -28.4440  -26.4610   20.2990 O   0  0  0  0  0  0  0  0  0  0  0  0
  -24.6660  -31.8920   23.2340 C   0  0  0  0  0  0  0  0  0  0  0  0
  -27.3430  -27.3340   20.2440 C   0  0  0  0  0  0  0  0  0  0  0  0
  -23.4950  -30.4830   21.5780 C   0  0  0  0  0  3  0  0  0  0  0  0
  -24.9770  -28.9370   20.1810 C   0  0  0  0  0  0  0  0  0  0  0  0
  -26.0360  -30.8170   21.4350 C   0  0  0  0  0  2  0  0  0  0  0  0
  -26.1350  -29.4380   20.7910 C   0  0  0  0  0  0  0  0  0  0  0  0
  -27.3260  -28.6470   20.8100 C   0  0  0  0  0  3  0  0  0  0  0  0
  -26.1700  -26.8970   19.5970 C   0  0  0  0  0  3  0  0  0  0  0  0
  -24.9960  -27.6730   19.5710 C   0  0  0  0  0  3  0  0  0  0  0  0
  -23.7330  -29.8020   20.2050 C   0  0  0  0  0  2  0  0  0  0  0  0
  -24.7500  -31.0820   22.1390 N   0  0  0  0  0  0  0  0  0  0  0  0
  -23.5750  -32.1620   23.7540 O   0  0  0  0  0  0  0  0  0  0  0  0
  -22.8230  -29.4670   22.5320 C   0  0  0  0  0  0  0  0  0  0  0  0
  -21.4950  -29.3030   22.4030 N   0  0  0  0  0  0  0  0  0  0  0  0
  -23.4940  -28.8280   23.3470 O   0  0  0  0  0  0  0  0  0  0  0  0
  -21.0150  -29.8690   21.7200 H   0  0  0  0  0  0  0  0  0  0  0  0
  -18.1040  -28.1520   22.9150 C   0  0  0  0  0  0  0  0  0  0  0  0
  -20.6670  -28.3690   23.1660 C   0  0  0  0  0  3  0  0  0  0  0  0
  -20.7450  -26.9430   22.5730 C   0  0  0  0  0  2  0  0  0  0  0  0
  -19.6310  -26.6490   21.5630 C   0  0  0  0  0  2  0  0  0  0  0  0
  -18.2560  -26.8080   22.2190 C   0  0  0  0  0  2  0  0  0  0  0  0
  -19.2370  -28.8910   23.3440 C   0  0  0  0  0  0  0  0  0  0  0  0
  -19.0450  -30.1480   23.9570 C   0  0  0  0  0  3  0  0  0  0  0  0
  -17.7500  -30.6670   24.1440 C   0  0  0  0  0  3  0  0  0  0  0  0
  -16.6300  -29.9250   23.7290 C   0  0  0  0  0  3  0  0  0  0  0  0
  -16.8080  -28.6690   23.1220 C   0  0  0  0  0  3  0  0  0  0  0  0
  -25.9370  -32.5350   23.8710 C   0  0  0  0  0  3  0  0  0  0  0  0
  -26.4380  -31.7750   25.1610 C   0  0  1  0  0  0  0  0  0  0  0  0
  -25.3300  -31.5370   26.2130 C   0  0  0  0  0  1  0  0  0  0  0  0
  -27.0400  -30.3980   24.7910 C   0  0  0  0  0  1  0  0  0  0  0  0
  -27.5700  -32.5830   25.8360 C   0  0  0  0  0  1  0  0  0  0  0  0
  -25.6120  -33.9330   24.1910 N   0  0  0  0  0  0  0  0  0  0  0  0
  -25.9420  -34.9860   23.4300 C   0  0  0  0  0  0  0  0  0  0  0  0
  -26.6200  -34.8830   22.4040 O   0  0  0  0  0  0  0  0  0  0  0  0
  -25.0170  -34.0820   24.9920 H   0  0  0  0  0  0  0  0  0  0  0  0
  -24.2030  -36.7660   23.0590 C   0  0  0  0  0  1  0  0  0  0  0  0
  -25.4420  -36.3730   23.8800 C   0  0  0  0  0  3  0  0  0  0  0  0
  -27.5620  -37.2800   24.7260 C   0  0  0  0  0  1  0  0  0  0  0  0
  -26.4680  -37.4340   23.7720 N   0  0  0  0  0  0  0  0  0  0  0  0
  -26.0520  -38.3510   23.9150 H   0  0  0  0  0  0  0  0  0  0  0  0
  1  4  1  0
  1  6  1  0
  3  7  1  0
  4  3  1  0
  4  5  1  0
  5  2  1  0
  6 46  1  0
  6  2  1  0
  7 16  1  0
  7  5  1  0
  8 16  1  0
  9 14  1  0
 10 11  1  0
 10  9  1  0
 12 11  1  0
 12 21  1  0
 12 13  1  0
 14  8  1  0
 14 13  1  0
 15  8  2  0
 16 17  1  0
 18 19  2  0
 19 38  1  0
 20 19  1  0
 20 23  1  0
 21 22  1  0
 21 18  1  0
 22 20  2  0
 23 24  1  0
 24 25  2  0
 26 29  1  0
 26 25  1  0
 27 26  2  0
 28 27  1  0
 28 23  2  0
 29 30  1  0
 30 31  1  0
 31 32  2  0
 33 32  1  0
 33 37  1  0
 34 33  2  0
 35 30  2  0
 35 34  1  0
 36 35  1  0
 38 39  1  0
 39 42  1  0
 39 41  1  0
 40 38  2  0
 43 44  1  0
 43 18  1  0
 45 43  1  0
 47 48  2  0
 47 46  1  0
 49 48  1  0
 50 61  2  0
 51 49  1  0
 51 56  1  0
 52 60  1  0
 52 62  1  0
 53 59  1  0
 53 55  1  0
 54 60  1  0
 55 56  2  0
 55 54  1  0
 57 51  2  0
 58 57  1  0
 58 53  2  0
 59 52  1  0
 60 50  1  0
 62 64  2  0
 63 62  1  0
 65 63  1  0
 66 75  2  0
 66 71  1  0
 67 63  1  0
 67 71  1  0
 68 67  1  0
 69 70  1  0
 69 68  1  0
 70 66  1  0
 71 72  2  0
 72 73  1  0
 74 73  2  0
 75 74  1  0
 76 50  1  0
 76 81  1  0
 76 77  1  0
 77 80  1  1
 77 78  1  0
 79 77  1  0
 81 84  1  0
 82 86  1  0
 82 81  1  0
 83 82  2  0
 86 85  1  0
 88 86  1  0
 88 89  1  0
 88 87  1  0
M  ISO  4   8 100  16 100  48 101  49 101
M  END
>  <TORSDO>  (69) 
F 19

>  <SCORE>  (69) 
-14.110

>  <name>  (69) 
69

>  <ligand_id>  (69) 
69

>  <original_smiles>  (69) 
[H]c1c([H])c([H])c2c(c1[H])C([H])([H])C([H])([H])C([H])([H])C2([H])N([H])C(=O)C1([H])N(C(=O)C([H])(N([H])C(=O)C([H])(N([H])C([H])([H])[H])C([H])([H])[H])C(C([H])([H])[H])(C([H])([H])[H])C([H])([H])[H])C([H])([H])c2c([H])c(OC([H])([H])C([H])([H])C([H])([H])C3([H])C([H])([H])C4([H])C([H])([H])C([H])(N([H])C(=O)N5C([H])([H])C([H])([H])C([H])([H])C([H])(n6nc(-c7c([H])c([H])c(Oc8c([H])c([H])c(F)c([H])c8F)c([H])c7[H])c(C(=O)N([H])[H])c6N([H])[H])C5([H])[H])C4([H])C3([H])[H])c([H])c([H])c2C1([H])[H]

>  <smiles>  (69) 
[H]c1c([H])c([H])c2c(c1[H])C([H])([H])C([H])([H])C([H])([H])C2([H])N([H])C(=O)C1([H])N(C(=O)C([H])(N([H])C(=O)C([H])(N([H])C([H])([H])[H])C([H])([H])[H])C(C([H])([H])[H])(C([H])([H])[H])C([H])([H])[H])C([H])([H])c2c([H])c(OC([H])([H])C([H])([H])C([H])([H])C3([H])C([H])([H])C4([H])C([H])([H])C([H])(N([H])C(=O)N5C([H])([H])C([H])([H])C([H])([H])C([H])(n6nc(-c7c([H])c([H])c(Oc8c([H])c([H])c(F)c([H])c8F)c([H])c7[H])c(C(=O)N([H])[H])c6N([H])[H])C5([H])[H])C4([H])C3([H])[H])c([H])c([H])c2C1([H])[H]

$$$$
70:0:0
     RDKit          3D

 92100  0  0  1  0  0  0  0  0999 V2000
  -29.4380  -22.3900   22.9560 C   0  0  0  0  0  2  0  0  0  0  0  0
  -28.6480  -23.6820   22.7150 C   0  0  0  0  0  2  0  0  0  0  0  0
  -29.0980  -21.3280   21.9070 C   0  0  0  0  0  2  0  0  0  0  0  0
  -28.5480  -23.2340   20.2750 C   0  0  0  0  0  2  0  0  0  0  0  0
  -28.9360  -24.3130   21.3330 C   0  0  0  0  0  3  0  0  0  0  0  0
  -29.2890  -21.8620   20.4760 C   0  0  0  0  0  3  0  0  0  0  0  0
  -28.1470  -25.6590   21.2590 C   0  0  0  0  0  2  0  0  0  0  0  0
  -28.4130  -26.6280   20.2170 O   0  0  0  0  0  0  0  0  0  0  0  0
  -24.6370  -31.8880   23.1910 C   0  0  0  0  0  0  0  0  0  0  0  0
  -27.3290  -27.4750   20.1000 C   0  0  0  0  0  0  0  0  0  0  0  0
  -23.4600  -30.4870   21.5320 C   0  0  0  0  0  3  0  0  0  0  0  0
  -24.9420  -28.9870   20.0860 C   0  0  0  0  0  0  0  0  0  0  0  0
  -25.9870  -30.8670   21.3580 C   0  0  0  0  0  2  0  0  0  0  0  0
  -26.0910  -29.5060   20.6970 C   0  0  0  0  0  0  0  0  0  0  0  0
  -27.2930  -28.7560   20.7050 C   0  0  0  0  0  3  0  0  0  0  0  0
  -26.1700  -26.9830   19.4670 C   0  0  0  0  0  3  0  0  0  0  0  0
  -24.9790  -27.7300   19.4590 C   0  0  0  0  0  3  0  0  0  0  0  0
  -23.6840  -29.8270   20.1440 C   0  0  0  0  0  2  0  0  0  0  0  0
  -24.7130  -31.0950   22.0840 N   0  0  0  0  0  0  0  0  0  0  0  0
  -23.5470  -32.1410   23.7240 O   0  0  0  0  0  0  0  0  0  0  0  0
  -22.8110  -29.4480   22.4760 C   0  0  0  0  0  0  0  0  0  0  0  0
  -21.4850  -29.2740   22.3580 N   0  0  0  0  0  0  0  0  0  0  0  0
  -23.4990  -28.8030   23.2710 O   0  0  0  0  0  0  0  0  0  0  0  0
  -20.9830  -29.8570   21.7060 H   0  0  0  0  0  0  0  0  0  0  0  0
  -18.1060  -28.1110   22.8810 C   0  0  0  0  0  0  0  0  0  0  0  0
  -20.6700  -28.3240   23.1170 C   0  0  0  0  0  3  0  0  0  0  0  0
  -20.7400  -26.9090   22.5050 C   0  0  0  0  0  2  0  0  0  0  0  0
  -19.6210  -26.6290   21.4950 C   0  0  0  0  0  2  0  0  0  0  0  0
  -18.2490  -26.7820   22.1590 C   0  0  0  0  0  2  0  0  0  0  0  0
  -19.2420  -28.8450   23.3140 C   0  0  0  0  0  0  0  0  0  0  0  0
  -19.0520  -30.0940   23.9400 C   0  0  0  0  0  3  0  0  0  0  0  0
  -17.7580  -30.6070   24.1430 C   0  0  0  0  0  3  0  0  0  0  0  0
  -16.6360  -29.8700   23.7290 C   0  0  0  0  0  3  0  0  0  0  0  0
  -16.8100  -28.6240   23.1010 C   0  0  0  0  0  3  0  0  0  0  0  0
  -25.9080  -32.5290   23.8260 C   0  0  0  0  0  3  0  0  0  0  0  0
  -25.5810  -33.9200   24.1590 N   0  0  0  0  0  0  0  0  0  0  0  0
  -25.9140  -34.9820   23.4120 C   0  0  0  0  0  0  0  0  0  0  0  0
  -26.5980  -34.8920   22.3880 O   0  0  0  0  0  0  0  0  0  0  0  0
  -24.9750  -34.0640   24.9530 H   0  0  0  0  0  0  0  0  0  0  0  0
  -24.1740  -36.7620   23.0430 C   0  0  0  0  0  1  0  0  0  0  0  0
  -25.4060  -36.3610   23.8730 C   0  0  0  0  0  3  0  0  0  0  0  0
  -27.5190  -37.2620   24.7400 C   0  0  0  0  0  1  0  0  0  0  0  0
  -26.4290  -37.4270   23.7820 N   0  0  0  0  0  0  0  0  0  0  0  0
  -26.0100  -38.3410   23.9290 H   0  0  0  0  0  0  0  0  0  0  0  0
  -26.4240  -31.7550   25.1010 C   0  0  1  0  0  0  0  0  0  0  0  0
  -25.3270  -31.4970   26.1590 C   0  0  0  0  0  1  0  0  0  0  0  0
  -27.0280  -30.3890   24.7030 C   0  0  0  0  0  1  0  0  0  0  0  0
  -27.5570  -32.5600   25.7790 C   0  0  0  0  0  1  0  0  0  0  0  0
  -28.9930  -20.7620   19.3970 C   0  0  0  0  0  3  0  0  0  0  0  0
  -26.8140  -21.2610   18.0970 C   0  0  0  0  0  1  0  0  0  0  0  0
  -27.5010  -20.4170   19.1840 C   0  0  0  0  0  2  0  0  0  0  0  0
  -29.9210  -19.4980   19.4820 C   0  0  0  0  0  2  0  0  0  0  0  0
  -29.4600  -18.1980   20.2260 C   0  0  0  0  0  2  0  0  0  0  0  0
  -30.6060  -17.1450   20.3290 C   0  0  0  0  0  2  0  0  0  0  0  0
  -30.9390  -14.6690   20.4720 C   0  0  0  0  0  0  0  0  0  0  0  0
  -30.6610  -12.4550   19.4470 C   0  0  0  0  0  2  0  0  0  0  0  0
  -29.7760  -12.6160   18.1960 C   0  0  0  0  0  2  0  0  0  0  0  0
  -28.2880  -12.5110   18.5790 C   0  0  0  0  0  2  0  0  0  0  0  0
  -27.9110  -13.4080   19.7860 C   0  0  0  0  0  3  0  0  0  0  0  0
  -28.9180  -13.2280   20.9420 C   0  0  0  0  0  2  0  0  0  0  0  0
  -30.2590  -13.4920   20.4050 N   0  0  0  0  0  0  0  0  0  0  0  0
  -32.1200  -14.7740   20.1320 O   0  0  0  0  0  0  0  0  0  0  0  0
  -30.1820  -15.7710   20.6780 N   0  0  0  0  0  0  0  0  0  0  0  0
  -29.2130  -15.6280   20.9170 H   0  0  0  0  0  0  0  0  0  0  0  0
  -25.5110  -14.0760   20.4080 C   0  0  0  0  0  0  0  0  0  0  0  0
  -24.4170  -13.3400   20.7590 C   0  0  0  0  0  0  0  0  0  0  0  0
  -24.8460  -11.9770   20.7700 C   0  0  0  0  0  0  0  0  0  0  0  0
  -26.5410  -13.1700   20.2250 N   0  0  0  0  0  0  0  0  0  0  0  0
  -26.1430  -11.9010   20.4990 N   0  0  0  0  0  0  0  0  0  0  0  0
  -24.0860  -10.7370   20.9550 C   0  0  0  0  0  0  0  0  0  0  0  0
  -24.4640   -9.7710   21.9140 C   0  0  0  0  0  3  0  0  0  0  0  0
  -23.6980   -8.5970   22.0870 C   0  0  0  0  0  3  0  0  0  0  0  0
  -22.5450   -8.3820   21.2950 C   0  0  0  0  0  0  0  0  0  0  0  0
  -22.1890   -9.3340   20.3230 C   0  0  0  0  0  3  0  0  0  0  0  0
  -22.9540  -10.4980   20.1480 C   0  0  0  0  0  3  0  0  0  0  0  0
  -21.7560   -7.2600   21.3760 O   0  0  0  0  0  0  0  0  0  0  0  0
  -21.6510   -6.5390   22.5380 C   0  0  0  0  0  0  0  0  0  0  0  0
  -21.2070   -7.1270   23.7410 C   0  0  0  0  0  3  0  0  0  0  0  0
  -21.0480   -6.3350   24.8960 C   0  0  0  0  0  3  0  0  0  0  0  0
  -21.3220   -4.9560   24.8490 C   0  0  0  0  0  0  0  0  0  0  0  0
  -21.7550   -4.3660   23.6480 C   0  0  0  0  0  3  0  0  0  0  0  0
  -21.9180   -5.1550   22.4960 C   0  0  0  0  0  0  0  0  0  0  0  0
  -22.3180   -4.5790   21.3370 F   0  0  0  0  0  0  0  0  0  0  0  0
  -21.1620   -4.1920   25.9550 F   0  0  0  0  0  0  0  0  0  0  0  0
  -23.0240  -13.8530   20.9810 C   0  0  0  0  0  0  0  0  0  0  0  0
  -22.2620  -13.2000   21.8500 N   0  0  0  0  0  0  0  0  0  0  0  0
  -22.6240  -14.8700   20.4160 O   0  0  0  0  0  0  0  0  0  0  0  0
  -22.6090  -12.3770   22.3190 H   0  0  0  0  0  0  0  0  0  0  0  0
  -21.3240  -13.5190   22.0450 H   0  0  0  0  0  0  0  0  0  0  0  0
  -25.7110  -15.4420   20.2140 N   0  0  0  0  0  0  0  0  0  0  0  0
  -24.9400  -16.0970   20.2700 H   0  0  0  0  0  0  0  0  0  0  0  0
  -26.5730  -15.8660   19.8990 H   0  0  0  0  0  0  0  0  0  0  0  0
  2  1  1  0
  3  1  1  0
  4  6  1  0
  4  5  1  0
  5  7  1  0
  5  2  1  0
  6 49  1  0
  6  3  1  0
  8  7  1  0
  9 20  2  0
 10  8  1  0
 10 15  1  0
 11 19  1  0
 11 21  1  0
 12 18  1  0
 12 14  1  0
 13 19  1  0
 14 15  2  0
 14 13  1  0
 16 10  2  0
 17 16  1  0
 17 12  2  0
 18 11  1  0
 19  9  1  0
 21 23  2  0
 22 21  1  0
 24 22  1  0
 25 34  2  0
 25 30  1  0
 26 22  1  0
 26 30  1  0
 27 26  1  0
 28 29  1  0
 28 27  1  0
 29 25  1  0
 30 31  2  0
 31 32  1  0
 33 32  2  0
 34 33  1  0
 35  9  1  0
 35 36  1  0
 35 45  1  0
 36 39  1  0
 37 41  1  0
 37 36  1  0
 38 37  2  0
 41 40  1  0
 43 41  1  0
 43 44  1  0
 43 42  1  0
 45 48  1  1
 45 46  1  0
 47 45  1  0
 49 51  1  0
 49 52  1  0
 50 51  1  0
 52 53  1  0
 53 54  1  0
 54 63  1  0
 55 63  1  0
 56 61  1  0
 57 58  1  0
 57 56  1  0
 59 58  1  0
 59 68  1  0
 59 60  1  0
 61 55  1  0
 61 60  1  0
 62 55  2  0
 63 64  1  0
 65 66  2  0
 66 67  1  0
 66 85  1  0
 67 70  1  0
 68 65  1  0
 68 69  1  0
 69 67  2  0
 70 71  1  0
 71 72  2  0
 73 76  1  0
 73 72  1  0
 74 73  2  0
 75 74  1  0
 75 70  2  0
 76 77  1  0
 77 78  1  0
 78 79  2  0
 80 79  1  0
 80 84  1  0
 81 80  2  0
 82 77  2  0
 82 81  1  0
 83 82  1  0
 85 86  1  0
 86 89  1  0
 86 88  1  0
 87 85  2  0
 90 91  1  0
 90 65  1  0
 92 90  1  0
M  ISO  4   7 101   8 101  55 100  63 100
M  END
>  <TORSDO>  (70) 
F 22

>  <SCORE>  (70) 
-12.858

>  <name>  (70) 
70

>  <ligand_id>  (70) 
70

>  <original_smiles>  (70) 
[H]c1c([H])c([H])c2c(c1[H])C([H])([H])C([H])([H])C([H])([H])C2([H])N([H])C(=O)C1([H])N(C(=O)C([H])(N([H])C(=O)C([H])(N([H])C([H])([H])[H])C([H])([H])[H])C(C([H])([H])[H])(C([H])([H])[H])C([H])([H])[H])C([H])([H])c2c([H])c(OC([H])([H])C3([H])C([H])([H])C([H])([H])C([H])([H])C([H])(C([H])(C([H])([H])C([H])([H])[H])C([H])([H])C([H])([H])C([H])([H])N([H])C(=O)N4C([H])([H])C([H])([H])C([H])([H])C([H])(n5nc(-c6c([H])c([H])c(Oc7c([H])c([H])c(F)c([H])c7F)c([H])c6[H])c(C(=O)N([H])[H])c5N([H])[H])C4([H])[H])C3([H])[H])c([H])c([H])c2C1([H])[H]

>  <smiles>  (70) 
[H]c1c([H])c([H])c2c(c1[H])C([H])([H])C([H])([H])C([H])([H])C2([H])N([H])C(=O)C1([H])N(C(=O)C([H])(N([H])C(=O)C([H])(N([H])C([H])([H])[H])C([H])([H])[H])C(C([H])([H])[H])(C([H])([H])[H])C([H])([H])[H])C([H])([H])c2c([H])c(OC([H])([H])C3([H])C([H])([H])C([H])([H])C([H])([H])C([H])(C([H])(C([H])([H])C([H])([H])[H])C([H])([H])C([H])([H])C([H])([H])N([H])C(=O)N4C([H])([H])C([H])([H])C([H])([H])C([H])(n5nc(-c6c([H])c([H])c(Oc7c([H])c([H])c(F)c([H])c7F)c([H])c6[H])c(C(=O)N([H])[H])c5N([H])[H])C4([H])[H])C3([H])[H])c([H])c([H])c2C1([H])[H]

$$$$
71:0:0
     RDKit          3D

 99107  0  0  1  0  0  0  0  0999 V2000
  -27.8650  -22.5580   18.2860 C   0  0  0  0  0  2  0  0  0  0  0  0
  -26.3480  -22.3950   18.5160 C   0  0  0  0  0  2  0  0  0  0  0  0
  -26.6070  -24.2000   20.3790 C   0  0  0  0  0  2  0  0  0  0  0  0
  -28.1510  -24.2090   20.1690 C   0  0  0  0  0  3  0  0  0  0  0  0
  -28.6450  -22.7720   19.6120 C   0  0  2  0  0  0  0  0  0  0  0  0
  -25.6620  -23.5560   19.2950 C   0  0  2  0  0  0  0  0  0  0  0  0
  -30.1840  -22.8600   19.4280 C   0  0  0  0  0  0  0  0  0  0  0  0
  -30.7240  -22.5970   18.2450 N   0  0  0  0  0  0  0  0  0  0  0  0
  -30.9020  -23.1800   20.3740 O   0  0  0  0  0  0  0  0  0  0  0  0
  -30.1480  -22.3170   17.4650 H   0  0  0  0  0  0  0  0  0  0  0  0
  -31.7250  -22.6610   18.1230 H   0  0  0  0  0  0  0  0  0  0  0  0
  -23.1880  -22.6420   19.2080 C   0  0  0  0  0  1  0  0  0  0  0  0
  -24.4200  -22.9940   20.0640 C   0  0  0  0  0  2  0  0  0  0  0  0
  -24.1630  -25.6320   18.7040 C   0  0  0  0  0  1  0  0  0  0  0  0
  -25.1900  -24.5850   18.2300 C   0  0  0  0  0  2  0  0  0  0  0  0
  -28.6700  -25.5430   19.4170 C   0  0  0  0  0  2  0  0  0  0  0  0
  -28.6350  -26.8780   20.0660 O   0  0  0  0  0  0  0  0  0  0  0  0
  -24.7670  -31.9480   23.4190 C   0  0  0  0  0  0  0  0  0  0  0  0
  -27.5140  -27.7170   20.0320 C   0  0  0  0  0  0  0  0  0  0  0  0
  -23.6320  -30.6860   21.6280 C   0  0  0  0  0  3  0  0  0  0  0  0
  -25.1410  -29.3110   20.0950 C   0  0  0  0  0  0  0  0  0  0  0  0
  -26.1690  -31.0490   21.5560 C   0  0  0  0  0  2  0  0  0  0  0  0
  -26.2800  -29.7350   20.7910 C   0  0  0  0  0  0  0  0  0  0  0  0
  -27.4650  -28.9430   20.7670 C   0  0  0  0  0  3  0  0  0  0  0  0
  -26.3670  -27.3830   19.2840 C   0  0  0  0  0  3  0  0  0  0  0  0
  -25.1890  -28.1430   19.3280 C   0  0  0  0  0  3  0  0  0  0  0  0
  -23.8920  -30.1580   20.1930 C   0  0  0  0  0  2  0  0  0  0  0  0
  -24.8720  -31.2390   22.2590 N   0  0  0  0  0  0  0  0  0  0  0  0
  -23.6660  -32.1600   23.9460 O   0  0  0  0  0  0  0  0  0  0  0  0
  -22.9650  -29.5700   22.4690 C   0  0  0  0  0  0  0  0  0  0  0  0
  -21.6450  -29.3920   22.3050 N   0  0  0  0  0  0  0  0  0  0  0  0
  -23.6400  -28.8740   23.2330 O   0  0  0  0  0  0  0  0  0  0  0  0
  -21.1630  -30.0100   21.6670 H   0  0  0  0  0  0  0  0  0  0  0  0
  -18.2550  -28.2070   22.7020 C   0  0  0  0  0  0  0  0  0  0  0  0
  -20.8190  -28.3890   22.9760 C   0  0  0  0  0  3  0  0  0  0  0  0
  -20.8860  -27.0240   22.2440 C   0  0  0  0  0  2  0  0  0  0  0  0
  -19.7760  -26.8460   21.2050 C   0  0  0  0  0  2  0  0  0  0  0  0
  -18.4040  -26.9410   21.8730 C   0  0  0  0  0  2  0  0  0  0  0  0
  -19.3890  -28.8970   23.2060 C   0  0  0  0  0  0  0  0  0  0  0  0
  -19.1900  -30.0860   23.9450 C   0  0  0  0  0  3  0  0  0  0  0  0
  -17.8930  -30.5790   24.1860 C   0  0  0  0  0  3  0  0  0  0  0  0
  -16.7760  -29.8810   23.6960 C   0  0  0  0  0  3  0  0  0  0  0  0
  -16.9570  -28.7000   22.9540 C   0  0  0  0  0  3  0  0  0  0  0  0
  -26.0230  -32.5440   24.1260 C   0  0  0  0  0  3  0  0  0  0  0  0
  -25.7220  -33.9410   24.4660 N   0  0  0  0  0  0  0  0  0  0  0  0
  -26.0940  -35.0000   23.7330 C   0  0  0  0  0  0  0  0  0  0  0  0
  -26.7960  -34.9010   22.7250 O   0  0  0  0  0  0  0  0  0  0  0  0
  -25.0990  -34.0930   25.2460 H   0  0  0  0  0  0  0  0  0  0  0  0
  -24.3890  -36.8130   23.3590 C   0  0  0  0  0  1  0  0  0  0  0  0
  -25.6080  -36.3870   24.1950 C   0  0  0  0  0  3  0  0  0  0  0  0
  -27.7290  -37.2420   25.0950 C   0  0  0  0  0  1  0  0  0  0  0  0
  -26.6550  -37.4310   24.1220 N   0  0  0  0  0  0  0  0  0  0  0  0
  -26.2560  -38.3560   24.2700 H   0  0  0  0  0  0  0  0  0  0  0  0
  -26.4530  -31.7400   25.4150 C   0  0  1  0  0  0  0  0  0  0  0  0
  -25.2940  -31.4870   26.4030 C   0  0  0  0  0  1  0  0  0  0  0  0
  -27.0270  -30.3610   25.0300 C   0  0  0  0  0  1  0  0  0  0  0  0
  -27.5820  -32.4930   26.1610 C   0  0  0  0  0  1  0  0  0  0  0  0
  -28.3960  -21.4640   20.5270 C   0  0  0  0  0  3  0  0  0  0  0  0
  -29.3000  -20.1600   20.2940 C   0  0  0  0  0  3  0  0  0  0  0  0
  -28.9700  -18.7890   21.0320 C   0  0  0  0  0  3  0  0  0  0  0  0
  -30.1160  -17.6860   21.0360 C   0  0  0  0  0  3  0  0  0  0  0  0
  -30.5800  -15.1770   21.1630 C   0  0  0  0  0  0  0  0  0  0  0  0
  -30.5580  -12.9010   20.1850 C   0  0  0  0  0  2  0  0  0  0  0  0
  -29.7490  -12.9390   18.8690 C   0  0  0  0  0  2  0  0  0  0  0  0
  -28.2420  -12.7330   19.1280 C   0  0  0  0  0  2  0  0  0  0  0  0
  -27.7180  -13.5950   20.3070 C   0  0  0  0  0  3  0  0  0  0  0  0
  -28.6620  -13.5580   21.5320 C   0  0  0  0  0  2  0  0  0  0  0  0
  -30.0020  -13.9390   21.0760 N   0  0  0  0  0  0  0  0  0  0  0  0
  -31.7680  -15.3460   20.8750 O   0  0  0  0  0  0  0  0  0  0  0  0
  -29.7570  -16.2590   21.3570 N   0  0  0  0  0  0  0  0  0  0  0  0
  -28.7960  -16.0650   21.5940 H   0  0  0  0  0  0  0  0  0  0  0  0
  -25.2580  -14.0780   20.8500 C   0  0  0  0  0  0  0  0  0  0  0  0
  -24.1920  -13.2520   21.0870 C   0  0  0  0  0  0  0  0  0  0  0  0
  -24.7000  -11.9190   21.0260 C   0  0  0  0  0  0  0  0  0  0  0  0
  -26.3460  -13.2420   20.6620 N   0  0  0  0  0  0  0  0  0  0  0  0
  -26.0120  -11.9350   20.8240 N   0  0  0  0  0  0  0  0  0  0  0  0
  -24.0010  -10.6290   21.0820 C   0  0  0  0  0  0  0  0  0  0  0  0
  -24.4300   -9.5920   21.9410 C   0  0  0  0  0  3  0  0  0  0  0  0
  -23.7250   -8.3690   21.9930 C   0  0  0  0  0  3  0  0  0  0  0  0
  -22.5800   -8.1760   21.1840 C   0  0  0  0  0  0  0  0  0  0  0  0
  -22.1730   -9.2020   20.3140 C   0  0  0  0  0  3  0  0  0  0  0  0
  -22.8810  -10.4140   20.2580 C   0  0  0  0  0  3  0  0  0  0  0  0
  -21.8480   -7.0120   21.1550 O   0  0  0  0  0  0  0  0  0  0  0  0
  -21.8400   -6.1370   22.2110 C   0  0  0  0  0  0  0  0  0  0  0  0
  -21.4060   -6.5230   23.4980 C   0  0  0  0  0  3  0  0  0  0  0  0
  -21.3450   -5.5730   24.5360 C   0  0  0  0  0  3  0  0  0  0  0  0
  -21.7150   -4.2360   24.2910 C   0  0  0  0  0  0  0  0  0  0  0  0
  -22.1480   -3.8500   23.0100 C   0  0  0  0  0  3  0  0  0  0  0  0
  -22.2050   -4.7950   21.9730 C   0  0  0  0  0  0  0  0  0  0  0  0
  -22.6010   -4.4120   20.7340 F   0  0  0  0  0  0  0  0  0  0  0  0
  -21.6500   -3.3240   25.2840 F   0  0  0  0  0  0  0  0  0  0  0  0
  -22.7650  -13.6760   21.2650 C   0  0  0  0  0  0  0  0  0  0  0  0
  -21.9930  -12.9220   22.0420 N   0  0  0  0  0  0  0  0  0  0  0  0
  -22.3350  -14.7100   20.7540 O   0  0  0  0  0  0  0  0  0  0  0  0
  -22.3520  -12.0840   22.4770 H   0  0  0  0  0  0  0  0  0  0  0  0
  -21.0330  -13.1850   22.2020 H   0  0  0  0  0  0  0  0  0  0  0  0
  -25.3890  -15.4590   20.7610 N   0  0  0  0  0  0  0  0  0  0  0  0
  -24.5870  -16.0750   20.8300 H   0  0  0  0  0  0  0  0  0  0  0  0
  -26.2410  -15.9480   20.5210 H   0  0  0  0  0  0  0  0  0  0  0  0
  1  2  1  0
  1  5  1  0
  2  6  1  0
  4 16  1  0
  4  3  1  0
  5  4  1  0
  5 58  1  1
  6 13  1  1
  6  3  1  0
  7  5  1  0
  7  9  2  0
  8  7  1  0
 10  8  1  0
 11  8  1  0
 12 13  1  0
 15 14  1  0
 15  6  1  0
 16 17  1  0
 18 29  2  0
 19 17  1  0
 19 24  1  0
 20 28  1  0
 20 30  1  0
 21 27  1  0
 21 23  1  0
 22 28  1  0
 23 22  1  0
 24 23  2  0
 25 26  1  0
 25 19  2  0
 26 21  2  0
 27 20  1  0
 28 18  1  0
 30 32  2  0
 31 30  1  0
 33 31  1  0
 34 43  2  0
 34 39  1  0
 35 31  1  0
 35 39  1  0
 36 35  1  0
 37 38  1  0
 37 36  1  0
 38 34  1  0
 39 40  2  0
 40 41  1  0
 42 41  2  0
 43 42  1  0
 44 18  1  0
 44 45  1  0
 44 54  1  0
 45 48  1  0
 46 50  1  0
 46 45  1  0
 47 46  2  0
 50 49  1  0
 52 50  1  0
 52 53  1  0
 52 51  1  0
 54 57  1  1
 54 55  1  0
 56 54  1  0
 59 58  2  0
 59 60  1  0
 60 61  2  0
 61 70  1  0
 62 70  1  0
 63 68  1  0
 64 65  1  0
 64 63  1  0
 66 65  1  0
 66 75  1  0
 66 67  1  0
 68 62  1  0
 68 67  1  0
 69 62  2  0
 70 71  1  0
 72 73  2  0
 73 92  1  0
 74 77  1  0
 74 73  1  0
 75 76  1  0
 75 72  1  0
 76 74  2  0
 77 78  1  0
 78 79  2  0
 80 79  1  0
 81 80  2  0
 82 81  1  0
 82 77  2  0
 83 80  1  0
 83 84  1  0
 84 85  1  0
 85 86  2  0
 87 86  1  0
 87 91  1  0
 88 87  2  0
 89 84  2  0
 89 88  1  0
 90 89  1  0
 92 93  1  0
 93 96  1  0
 93 95  1  0
 94 92  2  0
 97 98  1  0
 97 72  1  0
 99 97  1  0
M  ISO  4  16 101  17 101  62 100  70 100
M  END
>  <TORSDO>  (71) 
F 24

>  <SCORE>  (71) 
-11.799

>  <name>  (71) 
71

>  <ligand_id>  (71) 
71

>  <original_smiles>  (71) 
[H]c1c([H])c([H])c2c(c1[H])C([H])([H])C([H])([H])C([H])([H])C2([H])N([H])C(=O)C1([H])N(C(=O)C([H])(N([H])C(=O)C([H])(N([H])C([H])([H])[H])C([H])([H])[H])C(C([H])([H])[H])(C([H])([H])[H])C([H])([H])[H])C([H])([H])c2c([H])c(OC([H])([H])C3([H])C([H])([H])C(C([H])([H])C([H])([H])[H])(C([H])([H])C([H])([H])[H])C([H])([H])C([H])([H])C3(C(=O)N([H])[H])C([H])([H])C([H])([H])C([H])([H])C([H])([H])N([H])C(=O)N3C([H])([H])C([H])([H])C([H])([H])C([H])(n4nc(-c5c([H])c([H])c(Oc6c([H])c([H])c(F)c([H])c6F)c([H])c5[H])c(C(=O)N([H])[H])c4N([H])[H])C3([H])[H])c([H])c([H])c2C1([H])[H]

>  <smiles>  (71) 
[H]c1c([H])c([H])c2c(c1[H])C([H])([H])C([H])([H])C([H])([H])C2([H])N([H])C(=O)C1([H])N(C(=O)C([H])(N([H])C(=O)C([H])(N([H])C([H])([H])[H])C([H])([H])[H])C(C([H])([H])[H])(C([H])([H])[H])C([H])([H])[H])C([H])([H])c2c([H])c(OC([H])([H])C3([H])C([H])([H])C(C([H])([H])C([H])([H])[H])(C([H])([H])C([H])([H])[H])C([H])([H])C([H])([H])C3(C(=O)N([H])[H])C([H])([H])C([H])([H])C([H])([H])C([H])([H])N([H])C(=O)N3C([H])([H])C([H])([H])C([H])([H])C([H])(n4nc(-c5c([H])c([H])c(Oc6c([H])c([H])c(F)c([H])c6F)c([H])c5[H])c(C(=O)N([H])[H])c4N([H])[H])C3([H])[H])c([H])c([H])c2C1([H])[H]

$$$$
72:0:0
     RDKit          3D

 99108  0  0  1  0  0  0  0  0999 V2000
  -27.9310  -19.5750   18.1080 C   0  0  0  0  0  3  0  0  0  0  0  0
  -30.1580  -18.8260   17.4860 C   0  0  0  0  0  3  0  0  0  0  0  0
  -28.5000  -17.2090   18.2520 C   0  0  0  0  0  3  0  0  0  0  0  0
  -29.2420  -19.8770   17.6660 C   0  0  0  0  0  0  0  0  0  0  0  0
  -27.5540  -18.2430   18.3770 C   0  0  0  0  0  0  0  0  0  0  0  0
  -29.8090  -17.5080   17.8270 C   0  0  0  0  0  0  0  0  0  0  0  0
  -26.1410  -17.9300   18.8250 C   0  0  0  0  0  1  0  0  0  0  0  0
  -30.6400  -21.6490   18.7270 C   0  0  0  0  0  2  0  0  0  0  0  0
  -28.6440  -22.3430   17.2300 C   0  0  0  0  0  2  0  0  0  0  0  0
  -31.0640  -23.1250   18.7850 C   0  0  0  0  0  2  0  0  0  0  0  0
  -29.1640  -23.7820   17.3260 C   0  0  0  0  0  2  0  0  0  0  0  0
  -29.7580  -21.3020   17.5020 C   0  0  0  0  0  3  0  0  0  0  0  0
  -29.8030  -23.9930   18.7150 C   0  0  0  0  0  3  0  0  0  0  0  0
  -30.0010  -25.4690   19.1050 C   0  0  0  0  0  2  0  0  0  0  0  0
  -28.6280  -26.1000   19.3620 C   0  0  0  0  0  2  0  0  0  0  0  0
  -28.6640  -27.3420   20.0490 O   0  0  0  0  0  0  0  0  0  0  0  0
  -24.8010  -32.1400   23.6000 C   0  0  0  0  0  0  0  0  0  0  0  0
  -27.4580  -28.0100   20.1360 C   0  0  0  0  0  0  0  0  0  0  0  0
  -23.5940  -30.8830   21.8470 C   0  0  0  0  0  3  0  0  0  0  0  0
  -25.0470  -29.4850   20.2980 C   0  0  0  0  0  0  0  0  0  0  0  0
  -26.1210  -31.2650   21.6800 C   0  0  0  0  0  2  0  0  0  0  0  0
  -26.2050  -29.9590   20.9260 C   0  0  0  0  0  0  0  0  0  0  0  0
  -27.4100  -29.2260   20.8480 C   0  0  0  0  0  3  0  0  0  0  0  0
  -26.2640  -27.5390   19.5270 C   0  0  0  0  0  3  0  0  0  0  0  0
  -25.0690  -28.2690   19.6020 C   0  0  0  0  0  3  0  0  0  0  0  0
  -23.8010  -30.3310   20.4140 C   0  0  0  0  0  2  0  0  0  0  0  0
  -24.8560  -31.4390   22.4340 N   0  0  0  0  0  0  0  0  0  0  0  0
  -23.7200  -32.3610   24.1630 O   0  0  0  0  0  0  0  0  0  0  0  0
  -22.9510  -29.7750   22.7130 C   0  0  0  0  0  0  0  0  0  0  0  0
  -21.6410  -29.5540   22.5200 N   0  0  0  0  0  0  0  0  0  0  0  0
  -23.6290  -29.1230   23.5100 O   0  0  0  0  0  0  0  0  0  0  0  0
  -21.1580  -30.1330   21.8480 H   0  0  0  0  0  0  0  0  0  0  0  0
  -18.3160  -28.1640   22.7420 C   0  0  0  0  0  0  0  0  0  0  0  0
  -20.8310  -28.5430   23.1970 C   0  0  0  0  0  3  0  0  0  0  0  0
  -21.0520  -27.1450   22.5750 C   0  0  0  0  0  2  0  0  0  0  0  0
  -20.0390  -26.8080   21.4770 C   0  0  0  0  0  2  0  0  0  0  0  0
  -18.6110  -26.8550   22.0290 C   0  0  0  0  0  2  0  0  0  0  0  0
  -19.3600  -28.9650   23.2760 C   0  0  0  0  0  0  0  0  0  0  0  0
  -19.0340  -30.1890   23.8980 C   0  0  0  0  0  3  0  0  0  0  0  0
  -17.6960  -30.6150   23.9920 C   0  0  0  0  0  3  0  0  0  0  0  0
  -16.6660  -29.8100   23.4780 C   0  0  0  0  0  3  0  0  0  0  0  0
  -16.9750  -28.5870   22.8580 C   0  0  0  0  0  3  0  0  0  0  0  0
  -26.0880  -32.7160   24.2680 C   0  0  0  0  0  3  0  0  0  0  0  0
  -25.8190  -34.1220   24.5960 N   0  0  0  0  0  0  0  0  0  0  0  0
  -26.2330  -35.1650   23.8660 C   0  0  0  0  0  0  0  0  0  0  0  0
  -26.9560  -35.0440   22.8720 O   0  0  0  0  0  0  0  0  0  0  0  0
  -25.1920  -34.2940   25.3680 H   0  0  0  0  0  0  0  0  0  0  0  0
  -24.6080  -37.0310   23.4200 C   0  0  0  0  0  1  0  0  0  0  0  0
  -25.7740  -36.5680   24.3070 C   0  0  0  0  0  3  0  0  0  0  0  0
  -27.8880  -37.3490   25.2850 C   0  0  0  0  0  1  0  0  0  0  0  0
  -26.8550  -37.5780   24.2770 N   0  0  0  0  0  0  0  0  0  0  0  0
  -26.4780  -38.5110   24.4190 H   0  0  0  0  0  0  0  0  0  0  0  0
  -26.5300  -31.9170   25.5550 C   0  0  1  0  0  0  0  0  0  0  0  0
  -25.3880  -31.7090   26.5750 C   0  0  0  0  0  1  0  0  0  0  0  0
  -27.0830  -30.5240   25.1730 C   0  0  0  0  0  1  0  0  0  0  0  0
  -27.6800  -32.6670   26.2670 C   0  0  0  0  0  1  0  0  0  0  0  0
  -30.8580  -16.4230   17.7730 C   0  0  0  0  0  2  0  0  0  0  0  0
  -31.6160  -16.2240   19.1170 C   0  0  0  0  0  3  0  0  0  0  0  0
  -31.0990  -14.7850   21.0460 C   0  0  0  0  0  0  0  0  0  0  0  0
  -30.7700  -12.6690   19.9460 C   0  0  0  0  0  2  0  0  0  0  0  0
  -29.9850  -12.9620   18.6530 C   0  0  0  0  0  2  0  0  0  0  0  0
  -28.4640  -12.9800   18.9100 C   0  0  0  0  0  2  0  0  0  0  0  0
  -28.0230  -13.7270   20.2020 C   0  0  0  0  0  3  0  0  0  0  0  0
  -28.9740  -13.4580   21.3890 C   0  0  0  0  0  2  0  0  0  0  0  0
  -30.3530  -13.6630   20.9340 N   0  0  0  0  0  0  0  0  0  0  0  0
  -32.2870  -14.7820   21.3440 O   0  0  0  0  0  0  0  0  0  0  0  0
  -30.7010  -15.7300   20.1760 N   0  0  0  0  0  0  0  0  0  0  0  0
  -29.7270  -15.7000   19.9160 H   0  0  0  0  0  0  0  0  0  0  0  0
  -25.5380  -14.2780   20.5890 C   0  0  0  0  0  0  0  0  0  0  0  0
  -24.4500  -13.4840   20.8360 C   0  0  0  0  0  0  0  0  0  0  0  0
  -24.9470  -12.1490   20.9260 C   0  0  0  0  0  0  0  0  0  0  0  0
  -26.6280  -13.4260   20.5330 N   0  0  0  0  0  0  0  0  0  0  0  0
  -26.2700  -12.1430   20.8040 N   0  0  0  0  0  0  0  0  0  0  0  0
  -24.2370  -10.8720   21.0650 C   0  0  0  0  0  0  0  0  0  0  0  0
  -24.5890   -9.9330   22.0590 C   0  0  0  0  0  3  0  0  0  0  0  0
  -23.8750   -8.7230   22.1850 C   0  0  0  0  0  3  0  0  0  0  0  0
  -22.7960   -8.4370   21.3150 C   0  0  0  0  0  0  0  0  0  0  0  0
  -22.4640   -9.3650   20.3110 C   0  0  0  0  0  3  0  0  0  0  0  0
  -23.1790  -10.5690   20.1830 C   0  0  0  0  0  3  0  0  0  0  0  0
  -22.0670   -7.2730   21.3460 O   0  0  0  0  0  0  0  0  0  0  0  0
  -21.8980   -6.5600   22.5050 C   0  0  0  0  0  0  0  0  0  0  0  0
  -21.3380   -7.1420   23.6640 C   0  0  0  0  0  3  0  0  0  0  0  0
  -21.1170   -6.3540   24.8100 C   0  0  0  0  0  3  0  0  0  0  0  0
  -21.4480   -4.9870   24.8020 C   0  0  0  0  0  0  0  0  0  0  0  0
  -22.0050   -4.4030   23.6510 C   0  0  0  0  0  3  0  0  0  0  0  0
  -22.2250   -5.1880   22.5030 C   0  0  0  0  0  0  0  0  0  0  0  0
  -22.7410   -4.6160   21.3900 F   0  0  0  0  0  0  0  0  0  0  0  0
  -21.2320   -4.2280   25.9030 F   0  0  0  0  0  0  0  0  0  0  0  0
  -23.0150  -13.9240   20.8980 C   0  0  0  0  0  0  0  0  0  0  0  0
  -22.2120  -13.2580   21.7200 N   0  0  0  0  0  0  0  0  0  0  0  0
  -22.6130  -14.8910   20.2530 O   0  0  0  0  0  0  0  0  0  0  0  0
  -22.5490  -12.4710   22.2530 H   0  0  0  0  0  0  0  0  0  0  0  0
  -21.2470  -13.5390   21.8190 H   0  0  0  0  0  0  0  0  0  0  0  0
  -25.6880  -15.6470   20.3900 N   0  0  0  0  0  0  0  0  0  0  0  0
  -24.8990  -16.2840   20.3890 H   0  0  0  0  0  0  0  0  0  0  0  0
  -26.5710  -16.1100   20.2210 H   0  0  0  0  0  0  0  0  0  0  0  0
  -32.4670  -17.4500   19.5550 C   0  0  0  0  0  2  0  0  0  0  0  0
  -34.3410  -19.0850   18.9230 C   0  0  0  0  0  1  0  0  0  0  0  0
  -33.5760  -17.8120   18.5450 C   0  0  0  0  0  2  0  0  0  0  0  0
  1  5  1  0
  2  4  1  0
  2  6  2  0
  3  5  2  0
  4  1  2  0
  5  7  1  0
  6  3  1  0
  8 10  1  0
  9 11  1  0
  9 12  1  0
 11 13  1  0
 12  4  1  0
 12  8  1  0
 13 10  1  0
 13 14  1  0
 14 15  1  0
 15 16  1  0
 16 18  1  0
 17 28  2  0
 18 23  1  0
 19 27  1  0
 19 29  1  0
 20 26  1  0
 20 22  1  0
 21 27  1  0
 22 21  1  0
 23 22  2  0
 24 25  1  0
 24 18  2  0
 25 20  2  0
 26 19  1  0
 27 17  1  0
 29 31  2  0
 30 29  1  0
 32 30  1  0
 33 42  2  0
 33 38  1  0
 34 30  1  0
 34 38  1  0
 35 34  1  0
 36 37  1  0
 36 35  1  0
 37 33  1  0
 38 39  2  0
 39 40  1  0
 41 40  2  0
 42 41  1  0
 43 17  1  0
 43 44  1  0
 43 53  1  0
 44 47  1  0
 45 49  1  0
 45 44  1  0
 46 45  2  0
 49 48  1  0
 51 49  1  0
 51 52  1  0
 51 50  1  0
 53 56  1  1
 53 54  1  0
 55 53  1  0
 57  6  1  0
 58 57  1  0
 58 97  1  0
 58 67  1  0
 59 66  2  0
 60 65  1  0
 61 62  1  0
 61 60  1  0
 63 62  1  0
 63 72  1  0
 63 64  1  0
 65 59  1  0
 65 64  1  0
 67 59  1  0
 68 67  1  0
 69 70  2  0
 70 89  1  0
 70 71  1  0
 71 74  1  0
 72 69  1  0
 72 73  1  0
 73 71  2  0
 74 75  1  0
 75 76  2  0
 77 80  1  0
 77 76  1  0
 78 77  2  0
 79 78  1  0
 79 74  2  0
 80 81  1  0
 81 82  1  0
 82 83  2  0
 84 83  1  0
 84 88  1  0
 85 84  2  0
 86 81  2  0
 86 85  1  0
 87 86  1  0
 89 90  1  0
 90 93  1  0
 90 92  1  0
 91 89  2  0
 94 69  1  0
 95 94  1  0
 96 94  1  0
 99 98  1  0
 99 97  1  0
M  ISO  4  15 101  16 101  59 100  67 100
M  END
>  <TORSDO>  (72) 
F 23

>  <SCORE>  (72) 
-10.358

>  <name>  (72) 
72

>  <ligand_id>  (72) 
72

>  <original_smiles>  (72) 
[H]c1c([H])c([H])c2c(c1[H])C([H])([H])C([H])([H])C([H])([H])C2([H])N([H])C(=O)C1([H])N(C(=O)C([H])(N([H])C(=O)C([H])(N([H])C([H])([H])[H])C([H])([H])[H])C(C([H])([H])[H])(C([H])([H])[H])C([H])([H])[H])C([H])([H])c2c([H])c(OC([H])([H])C([H])([H])C3([H])C([H])([H])C([H])([H])C([H])(c4c([H])c(C([H])([H])[H])c([H])c(C([H])([H])C([H])(N([H])C(=O)N5C([H])([H])C([H])([H])C([H])([H])C([H])(n6nc(-c7c([H])c([H])c(Oc8c([H])c([H])c(F)c([H])c8F)c([H])c7[H])c(C(=O)N([H])[H])c6N([H])[H])C5([H])[H])C([H])([H])C([H])([H])C([H])([H])[H])c4[H])C([H])([H])C3([H])[H])c([H])c([H])c2C1([H])[H]

>  <smiles>  (72) 
[H]c1c([H])c([H])c2c(c1[H])C([H])([H])C([H])([H])C([H])([H])C2([H])N([H])C(=O)C1([H])N(C(=O)C([H])(N([H])C(=O)C([H])(N([H])C([H])([H])[H])C([H])([H])[H])C(C([H])([H])[H])(C([H])([H])[H])C([H])([H])[H])C([H])([H])c2c([H])c(OC([H])([H])C([H])([H])C3([H])C([H])([H])C([H])([H])C([H])(c4c([H])c(C([H])([H])[H])c([H])c(C([H])([H])C([H])(N([H])C(=O)N5C([H])([H])C([H])([H])C([H])([H])C([H])(n6nc(-c7c([H])c([H])c(Oc8c([H])c([H])c(F)c([H])c8F)c([H])c7[H])c(C(=O)N([H])[H])c6N([H])[H])C5([H])[H])C([H])([H])C([H])([H])C([H])([H])[H])c4[H])C([H])([H])C3([H])[H])c([H])c([H])c2C1([H])[H]

$$$$
73:0:0
     RDKit          3D

 90 97  0  0  1  0  0  0  0  0999 V2000
  -29.0280  -22.6010   20.2230 C   0  0  0  0  0  2  0  0  0  0  0  0
  -28.6790  -21.1490   19.8900 N   0  0  0  0  0  4  0  0  0  0  0  0
  -27.7670  -20.9610   20.2700 H   0  0  0  0  0  0  0  0  0  0  0  0
  -28.6060  -21.0860   18.8850 H   0  0  0  0  0  0  0  0  0  0  0  0
  -29.6210  -20.0360   20.3660 C   0  0  0  0  0  2  0  0  0  0  0  0
  -29.2960  -18.5040   19.9710 C   0  0  0  0  0  3  0  0  0  0  0  0
  -30.2400  -17.3350   20.5540 C   0  0  0  0  0  3  0  0  0  0  0  0
  -30.5630  -14.7350   20.3490 C   0  0  0  0  0  0  0  0  0  0  0  0
  -30.3450  -12.4730   19.3380 C   0  0  0  0  0  2  0  0  0  0  0  0
  -29.3900  -12.5290   18.1290 C   0  0  0  0  0  2  0  0  0  0  0  0
  -27.9260  -12.3490   18.5770 C   0  0  0  0  0  2  0  0  0  0  0  0
  -27.5600  -13.2610   19.7800 C   0  0  0  0  0  3  0  0  0  0  0  0
  -28.6270  -13.1840   20.8910 C   0  0  0  0  0  2  0  0  0  0  0  0
  -29.9190  -13.5250   20.2810 N   0  0  0  0  0  0  0  0  0  0  0  0
  -31.7660  -14.8120   20.0920 O   0  0  0  0  0  0  0  0  0  0  0  0
  -29.7970  -15.8790   20.4720 N   0  0  0  0  0  0  0  0  0  0  0  0
  -28.8070  -15.7100   20.5680 H   0  0  0  0  0  0  0  0  0  0  0  0
  -25.1750  -13.8640   20.5090 C   0  0  0  0  0  0  0  0  0  0  0  0
  -24.1060  -13.0960   20.8860 C   0  0  0  0  0  0  0  0  0  0  0  0
  -24.5650  -11.7440   20.8600 C   0  0  0  0  0  0  0  0  0  0  0  0
  -26.2170  -12.9810   20.2820 N   0  0  0  0  0  0  0  0  0  0  0  0
  -25.8570  -11.7000   20.5540 N   0  0  0  0  0  0  0  0  0  0  0  0
  -23.8370  -10.4850   21.0530 C   0  0  0  0  0  0  0  0  0  0  0  0
  -24.2810   -9.5150   21.9760 C   0  0  0  0  0  3  0  0  0  0  0  0
  -23.5570   -8.3160   22.1580 C   0  0  0  0  0  3  0  0  0  0  0  0
  -22.3710   -8.0830   21.4190 C   0  0  0  0  0  0  0  0  0  0  0  0
  -21.9480   -9.0430   20.4850 C   0  0  0  0  0  3  0  0  0  0  0  0
  -22.6730  -10.2330   20.3020 C   0  0  0  0  0  3  0  0  0  0  0  0
  -21.6140   -6.9390   21.5110 O   0  0  0  0  0  0  0  0  0  0  0  0
  -21.5950   -6.1810   22.6550 C   0  0  0  0  0  0  0  0  0  0  0  0
  -21.2160   -6.7250   23.9030 C   0  0  0  0  0  3  0  0  0  0  0  0
  -21.1460   -5.8920   25.0390 C   0  0  0  0  0  3  0  0  0  0  0  0
  -21.4360   -4.5200   24.9270 C   0  0  0  0  0  0  0  0  0  0  0  0
  -21.8070   -3.9770   23.6820 C   0  0  0  0  0  3  0  0  0  0  0  0
  -21.8820   -4.8060   22.5490 C   0  0  0  0  0  0  0  0  0  0  0  0
  -22.2180   -4.2770   21.3480 F   0  0  0  0  0  0  0  0  0  0  0  0
  -21.3640   -3.7160   26.0140 F   0  0  0  0  0  0  0  0  0  0  0  0
  -22.7080  -13.5760   21.1450 C   0  0  0  0  0  0  0  0  0  0  0  0
  -21.9720  -12.8930   22.0110 N   0  0  0  0  0  0  0  0  0  0  0  0
  -22.2760  -14.5980   20.6100 O   0  0  0  0  0  0  0  0  0  0  0  0
  -22.3230  -12.0650   22.4700 H   0  0  0  0  0  0  0  0  0  0  0  0
  -21.0330  -13.2040   22.2160 H   0  0  0  0  0  0  0  0  0  0  0  0
  -25.3410  -15.2330   20.3190 N   0  0  0  0  0  0  0  0  0  0  0  0
  -24.5560  -15.8750   20.3890 H   0  0  0  0  0  0  0  0  0  0  0  0
  -26.1710  -15.6690   19.9460 H   0  0  0  0  0  0  0  0  0  0  0  0
  -27.9620  -23.7440   19.8220 C   0  0  0  0  0  3  0  0  0  0  0  0
  -25.4050  -23.2720   20.0050 C   0  0  0  0  0  1  0  0  0  0  0  0
  -26.6970  -23.7250   20.7220 C   0  0  0  0  0  2  0  0  0  0  0  0
  -28.4730  -25.2380   19.4530 C   0  0  0  0  0  2  0  0  0  0  0  0
  -28.3280  -26.4860   20.2480 O   0  0  0  0  0  0  0  0  0  0  0  0
  -24.6190  -31.8920   23.2410 C   0  0  0  0  0  0  0  0  0  0  0  0
  -27.2080  -27.3310   20.1630 C   0  0  0  0  0  0  0  0  0  0  0  0
  -23.4110  -30.4980   21.6030 C   0  0  0  0  0  3  0  0  0  0  0  0
  -24.8470  -28.9480   20.1650 C   0  0  0  0  0  0  0  0  0  0  0  0
  -25.9440  -30.8110   21.4110 C   0  0  0  0  0  2  0  0  0  0  0  0
  -26.0150  -29.4310   20.7670 C   0  0  0  0  0  0  0  0  0  0  0  0
  -27.1910  -28.6260   20.7720 C   0  0  0  0  0  3  0  0  0  0  0  0
  -26.0210  -26.9050   19.5330 C   0  0  0  0  0  3  0  0  0  0  0  0
  -24.8480  -27.6850   19.5480 C   0  0  0  0  0  3  0  0  0  0  0  0
  -23.6220  -29.8390   20.2140 C   0  0  0  0  0  2  0  0  0  0  0  0
  -24.6780  -31.0850   22.1420 N   0  0  0  0  0  0  0  0  0  0  0  0
  -23.5390  -32.1700   23.7810 O   0  0  0  0  0  0  0  0  0  0  0  0
  -22.7540  -29.4760   22.5620 C   0  0  0  0  0  0  0  0  0  0  0  0
  -21.4260  -29.2970   22.4420 N   0  0  0  0  0  0  0  0  0  0  0  0
  -23.4350  -28.8490   23.3770 O   0  0  0  0  0  0  0  0  0  0  0  0
  -20.9320  -29.8590   21.7640 H   0  0  0  0  0  0  0  0  0  0  0  0
  -18.0550  -28.0950   22.9540 C   0  0  0  0  0  0  0  0  0  0  0  0
  -20.6140  -28.3600   23.2170 C   0  0  0  0  0  3  0  0  0  0  0  0
  -20.7180  -26.9290   22.6430 C   0  0  0  0  0  2  0  0  0  0  0  0
  -19.6130  -26.6010   21.6330 C   0  0  0  0  0  2  0  0  0  0  0  0
  -18.2320  -26.7460   22.2780 C   0  0  0  0  0  2  0  0  0  0  0  0
  -19.1730  -28.8610   23.3810 C   0  0  0  0  0  0  0  0  0  0  0  0
  -18.9520  -30.1240   23.9690 C   0  0  0  0  0  3  0  0  0  0  0  0
  -17.6430  -30.6240   24.1340 C   0  0  0  0  0  3  0  0  0  0  0  0
  -16.5430  -29.8560   23.7190 C   0  0  0  0  0  3  0  0  0  0  0  0
  -16.7490  -28.5940   23.1360 C   0  0  0  0  0  3  0  0  0  0  0  0
  -25.9060  -32.5240   23.8560 C   0  0  0  0  0  3  0  0  0  0  0  0
  -26.4300  -31.7510   25.1280 C   0  0  1  0  0  0  0  0  0  0  0  0
  -25.3440  -31.5150   26.2030 C   0  0  0  0  0  1  0  0  0  0  0  0
  -27.0080  -30.3740   24.7290 C   0  0  0  0  0  1  0  0  0  0  0  0
  -27.5850  -32.5420   25.7860 C   0  0  0  0  0  1  0  0  0  0  0  0
  -25.5990  -33.9220   24.1910 N   0  0  0  0  0  0  0  0  0  0  0  0
  -25.9220  -34.9770   23.4310 C   0  0  0  0  0  0  0  0  0  0  0  0
  -26.5820  -34.8770   22.3930 O   0  0  0  0  0  0  0  0  0  0  0  0
  -25.0140  -34.0740   24.9990 H   0  0  0  0  0  0  0  0  0  0  0  0
  -24.1850  -36.7690   23.1030 C   0  0  0  0  0  1  0  0  0  0  0  0
  -25.4370  -36.3640   23.8970 C   0  0  0  0  0  3  0  0  0  0  0  0
  -27.5850  -37.2490   24.7000 C   0  0  0  0  0  1  0  0  0  0  0  0
  -26.4660  -37.4190   23.7750 N   0  0  0  0  0  0  0  0  0  0  0  0
  -26.0580  -38.3360   23.9370 H   0  0  0  0  0  0  0  0  0  0  0  0
  2  1  1  0
  2  3  1  0
  2  5  1  0
  4  2  1  0
  6  5  1  0
  6  7  2  0
  8 16  1  0
  9 14  1  0
 10 11  1  0
 10  9  1  0
 12 11  1  0
 12 21  1  0
 12 13  1  0
 14  8  1  0
 14 13  1  0
 15  8  2  0
 16  7  1  0
 16 17  1  0
 18 19  2  0
 19 38  1  0
 20 19  1  0
 20 23  1  0
 21 18  1  0
 21 22  1  0
 22 20  2  0
 23 24  1  0
 24 25  2  0
 26 29  1  0
 26 25  1  0
 27 26  2  0
 28 27  1  0
 28 23  2  0
 29 30  1  0
 30 31  1  0
 31 32  2  0
 33 32  1  0
 33 37  1  0
 34 33  2  0
 35 30  2  0
 35 34  1  0
 36 35  1  0
 38 39  1  0
 39 42  1  0
 39 41  1  0
 40 38  2  0
 43 44  1  0
 43 18  1  0
 45 43  1  0
 46 49  1  0
 46  1  1  0
 46 48  1  0
 47 48  1  0
 49 50  1  0
 51 62  2  0
 52 50  1  0
 52 57  1  0
 53 61  1  0
 53 63  1  0
 54 60  1  0
 54 56  1  0
 55 61  1  0
 56 57  2  0
 56 55  1  0
 58 59  1  0
 58 52  2  0
 59 54  2  0
 60 53  1  0
 61 51  1  0
 63 65  2  0
 64 63  1  0
 66 64  1  0
 67 76  2  0
 67 72  1  0
 68 64  1  0
 68 72  1  0
 69 68  1  0
 70 71  1  0
 70 69  1  0
 71 67  1  0
 72 73  2  0
 73 74  1  0
 75 74  2  0
 76 75  1  0
 77 51  1  0
 77 82  1  0
 77 78  1  0
 78 81  1  1
 78 79  1  0
 80 78  1  0
 82 85  1  0
 83 87  1  0
 83 82  1  0
 84 83  2  0
 87 86  1  0
 89 87  1  0
 89 90  1  0
 89 88  1  0
M  ISO  4   8 100  16 100  49 101  50 101
M  END
>  <TORSDO>  (73) 
F 23

>  <SCORE>  (73) 
-12.643

>  <name>  (73) 
73

>  <ligand_id>  (73) 
73

>  <original_smiles>  (73) 
[H]c1c([H])c([H])c2c(c1[H])C([H])([H])C([H])([H])C([H])([H])C2([H])N([H])C(=O)C1([H])N(C(=O)C([H])(N([H])C(=O)C([H])(N([H])C([H])([H])[H])C([H])([H])[H])C(C([H])([H])[H])(C([H])([H])[H])C([H])([H])[H])C([H])([H])c2c([H])c(OC([H])([H])C([H])(C([H])([H])C([H])([H])[H])C([H])([H])[N+]([H])([H])C([H])([H])C([H])([H])C([H])([H])N([H])C(=O)N3C([H])([H])C([H])([H])C([H])([H])C([H])(n4nc(-c5c([H])c([H])c(Oc6c([H])c([H])c(F)c([H])c6F)c([H])c5[H])c(C(=O)N([H])[H])c4N([H])[H])C3([H])[H])c([H])c([H])c2C1([H])[H]

>  <smiles>  (73) 
[H]c1c([H])c([H])c2c(c1[H])C([H])([H])C([H])([H])C([H])([H])C2([H])N([H])C(=O)C1([H])N(C(=O)C([H])(N([H])C(=O)C([H])(N([H])C([H])([H])[H])C([H])([H])[H])C(C([H])([H])[H])(C([H])([H])[H])C([H])([H])[H])C([H])([H])c2c([H])c(OC([H])([H])C([H])(C([H])([H])C([H])([H])[H])C([H])([H])[N+]([H])([H])C([H])([H])C([H])([H])C([H])([H])N([H])C(=O)N3C([H])([H])C([H])([H])C([H])([H])C([H])(n4nc(-c5c([H])c([H])c(Oc6c([H])c([H])c(F)c([H])c6F)c([H])c5[H])c(C(=O)N([H])[H])c4N([H])[H])C3([H])[H])c([H])c([H])c2C1([H])[H]

$$$$
74:0:0
     RDKit          3D

 97104  0  0  1  0  0  0  0  0999 V2000
  -27.0400  -21.1590   20.1740 C   0  0  0  0  0  2  0  0  0  0  0  0
  -27.3450  -22.1670   21.2110 N   0  0  0  0  0  4  0  0  0  0  0  0
  -27.2770  -21.7400   22.1190 H   0  0  0  0  0  0  0  0  0  0  0  0
  -26.6150  -22.8610   21.1650 H   0  0  0  0  0  0  0  0  0  0  0  0
  -28.6350  -22.8850   21.0840 C   0  0  0  0  0  2  0  0  0  0  0  0
  -28.4100  -24.4000   20.9070 C   0  0  0  0  0  2  0  0  0  0  0  0
  -29.6860  -25.2510   21.0440 C   0  0  0  0  0  2  0  0  0  0  0  0
  -29.3940  -26.7650   21.0680 C   0  0  0  0  0  2  0  0  0  0  0  0
  -28.8200  -27.1640   19.8250 O   0  0  0  0  0  0  0  0  0  0  0  0
  -24.7290  -31.8220   23.3610 C   0  0  0  0  0  0  0  0  0  0  0  0
  -27.6320  -27.8490   19.9200 C   0  0  0  0  0  0  0  0  0  0  0  0
  -23.6080  -30.5020   21.5930 C   0  0  0  0  0  3  0  0  0  0  0  0
  -25.1500  -29.1790   20.0510 C   0  0  0  0  0  0  0  0  0  0  0  0
  -26.1050  -31.0240   21.4460 C   0  0  0  0  0  2  0  0  0  0  0  0
  -26.2710  -29.7220   20.6940 C   0  0  0  0  0  0  0  0  0  0  0  0
  -27.5130  -29.0560   20.6410 C   0  0  0  0  0  3  0  0  0  0  0  0
  -26.5070  -27.3230   19.2580 C   0  0  0  0  0  3  0  0  0  0  0  0
  -25.2590  -27.9730   19.3350 C   0  0  0  0  0  3  0  0  0  0  0  0
  -23.8560  -29.9500   20.1630 C   0  0  0  0  0  2  0  0  0  0  0  0
  -24.8320  -31.1250   22.1940 N   0  0  0  0  0  0  0  0  0  0  0  0
  -23.6340  -31.9830   23.9170 O   0  0  0  0  0  0  0  0  0  0  0  0
  -23.0140  -29.3660   22.4570 C   0  0  0  0  0  0  0  0  0  0  0  0
  -21.7070  -29.1090   22.2870 N   0  0  0  0  0  0  0  0  0  0  0  0
  -23.7260  -28.7240   23.2320 O   0  0  0  0  0  0  0  0  0  0  0  0
  -21.1880  -29.6880   21.6410 H   0  0  0  0  0  0  0  0  0  0  0  0
  -18.4230  -27.6350   22.5910 C   0  0  0  0  0  0  0  0  0  0  0  0
  -20.9440  -28.0570   22.9600 C   0  0  0  0  0  3  0  0  0  0  0  0
  -21.1700  -26.6860   22.2820 C   0  0  0  0  0  2  0  0  0  0  0  0
  -20.1210  -26.3610   21.2140 C   0  0  0  0  0  2  0  0  0  0  0  0
  -18.7170  -26.3570   21.8250 C   0  0  0  0  0  2  0  0  0  0  0  0
  -19.4700  -28.4430   23.1080 C   0  0  0  0  0  0  0  0  0  0  0  0
  -19.1430  -29.6420   23.7790 C   0  0  0  0  0  3  0  0  0  0  0  0
  -17.8010  -30.0350   23.9390 C   0  0  0  0  0  3  0  0  0  0  0  0
  -16.7690  -29.2230   23.4360 C   0  0  0  0  0  3  0  0  0  0  0  0
  -17.0800  -28.0260   22.7660 C   0  0  0  0  0  3  0  0  0  0  0  0
  -25.9780  -32.4630   24.0420 C   0  0  0  0  0  3  0  0  0  0  0  0
  -25.6170  -33.8350   24.4260 N   0  0  0  0  0  0  0  0  0  0  0  0
  -25.9270  -34.9280   23.7160 C   0  0  0  0  0  0  0  0  0  0  0  0
  -26.6180  -34.8890   22.6940 O   0  0  0  0  0  0  0  0  0  0  0  0
  -25.0000  -33.9320   25.2190 H   0  0  0  0  0  0  0  0  0  0  0  0
  -24.1310  -36.6620   23.4080 C   0  0  0  0  0  1  0  0  0  0  0  0
  -25.3810  -36.2780   24.2170 C   0  0  0  0  0  3  0  0  0  0  0  0
  -27.4680  -37.2180   25.1040 C   0  0  0  0  0  1  0  0  0  0  0  0
  -26.3730  -37.3730   24.1500 N   0  0  0  0  0  0  0  0  0  0  0  0
  -25.9310  -38.2740   24.3170 H   0  0  0  0  0  0  0  0  0  0  0  0
  -26.4890  -31.6520   25.2960 C   0  0  1  0  0  0  0  0  0  0  0  0
  -25.3810  -31.3350   26.3280 C   0  0  0  0  0  1  0  0  0  0  0  0
  -27.1240  -30.3140   24.8550 C   0  0  0  0  0  1  0  0  0  0  0  0
  -27.6010  -32.4510   26.0180 C   0  0  0  0  0  1  0  0  0  0  0  0
  -27.4180  -19.7150   20.5700 C   0  0  0  0  0  2  0  0  0  0  0  0
  -28.8980  -19.3200   20.3840 C   0  0  0  0  0  2  0  0  0  0  0  0
  -29.1350  -17.8350   20.7520 C   0  0  0  0  0  2  0  0  0  0  0  0
  -30.5510  -17.2430   20.4730 C   0  0  0  0  0  3  0  0  0  0  0  0
  -31.2610  -14.7760   20.2270 C   0  0  0  0  0  0  0  0  0  0  0  0
  -31.0160  -12.5430   19.2200 C   0  0  0  0  0  2  0  0  0  0  0  0
  -30.0470  -12.6670   18.0240 C   0  0  0  0  0  2  0  0  0  0  0  0
  -28.5850  -12.5290   18.4900 C   0  0  0  0  0  2  0  0  0  0  0  0
  -28.2560  -13.4560   19.6890 C   0  0  0  0  0  3  0  0  0  0  0  0
  -29.3180  -13.2890   20.7970 C   0  0  0  0  0  2  0  0  0  0  0  0
  -30.6380  -13.5700   20.2010 N   0  0  0  0  0  0  0  0  0  0  0  0
  -32.3870  -14.9660   19.7570 O   0  0  0  0  0  0  0  0  0  0  0  0
  -30.4610  -15.7760   20.6370 N   0  0  0  0  0  0  0  0  0  0  0  0
  -29.5720  -15.4490   20.9840 H   0  0  0  0  0  0  0  0  0  0  0  0
  -25.9030  -14.1280   20.4900 C   0  0  0  0  0  0  0  0  0  0  0  0
  -24.8180  -13.3830   20.8620 C   0  0  0  0  0  0  0  0  0  0  0  0
  -25.2280  -12.0180   20.7680 C   0  0  0  0  0  0  0  0  0  0  0  0
  -26.9070  -13.2190   20.1950 N   0  0  0  0  0  0  0  0  0  0  0  0
  -26.5060  -11.9430   20.4220 N   0  0  0  0  0  0  0  0  0  0  0  0
  -24.4660  -10.7760   20.9370 C   0  0  0  0  0  0  0  0  0  0  0  0
  -24.8180   -9.8200   21.9160 C   0  0  0  0  0  3  0  0  0  0  0  0
  -24.0570   -8.6420   22.0690 C   0  0  0  0  0  3  0  0  0  0  0  0
  -22.9340   -8.4090   21.2430 C   0  0  0  0  0  0  0  0  0  0  0  0
  -22.6010   -9.3530   20.2570 C   0  0  0  0  0  3  0  0  0  0  0  0
  -23.3610  -10.5240   20.1010 C   0  0  0  0  0  3  0  0  0  0  0  0
  -22.1510   -7.2810   21.3050 O   0  0  0  0  0  0  0  0  0  0  0  0
  -21.8970   -6.6440   22.4920 C   0  0  0  0  0  0  0  0  0  0  0  0
  -21.2530   -7.3000   23.5640 C   0  0  0  0  0  3  0  0  0  0  0  0
  -20.9490   -6.5900   24.7420 C   0  0  0  0  0  3  0  0  0  0  0  0
  -21.2790   -5.2250   24.8480 C   0  0  0  0  0  0  0  0  0  0  0  0
  -21.9150   -4.5690   23.7800 C   0  0  0  0  0  3  0  0  0  0  0  0
  -22.2200   -5.2770   22.6050 C   0  0  0  0  0  0  0  0  0  0  0  0
  -22.8140   -4.6350   21.5670 F   0  0  0  0  0  0  0  0  0  0  0  0
  -20.9820   -4.5410   25.9780 F   0  0  0  0  0  0  0  0  0  0  0  0
  -23.4470  -13.8940   21.1940 C   0  0  0  0  0  0  0  0  0  0  0  0
  -22.7270  -13.1970   22.0650 N   0  0  0  0  0  0  0  0  0  0  0  0
  -23.0260  -14.9480   20.7160 O   0  0  0  0  0  0  0  0  0  0  0  0
  -23.0810  -12.3410   22.4690 H   0  0  0  0  0  0  0  0  0  0  0  0
  -21.8090  -13.5230   22.3340 H   0  0  0  0  0  0  0  0  0  0  0  0
  -26.1150  -15.4980   20.3590 N   0  0  0  0  0  0  0  0  0  0  0  0
  -25.3770  -16.1700   20.5300 H   0  0  0  0  0  0  0  0  0  0  0  0
  -26.9650  -15.9140   20.0020 H   0  0  0  0  0  0  0  0  0  0  0  0
  -31.1440  -17.7200   19.1060 C   0  0  0  0  0  2  0  0  0  0  0  0
  -30.2010  -17.6770   17.8930 C   0  0  0  0  0  0  0  0  0  0  0  0
  -30.4190  -18.5550   16.9190 N   0  0  0  0  0  0  0  0  0  0  0  0
  -29.2750  -16.8740   17.8170 O   0  0  0  0  0  0  0  0  0  0  0  0
  -31.1840  -19.2130   16.9760 H   0  0  0  0  0  0  0  0  0  0  0  0
  -29.8180  -18.5690   16.1070 H   0  0  0  0  0  0  0  0  0  0  0  0
  1 50  1  0
  1  2  1  0
  2  3  1  0
  4  2  1  0
  5  2  1  0
  6  7  1  0
  6  5  1  0
  7  8  1  0
  9 11  1  0
  9  8  1  0
 10 21  2  0
 11 16  1  0
 12 20  1  0
 12 22  1  0
 13 19  1  0
 13 15  1  0
 14 20  1  0
 15 14  1  0
 16 15  2  0
 17 18  1  0
 17 11  2  0
 18 13  2  0
 19 12  1  0
 20 10  1  0
 22 24  2  0
 23 22  1  0
 25 23  1  0
 26 35  2  0
 26 31  1  0
 27 23  1  0
 27 31  1  0
 28 27  1  0
 29 30  1  0
 29 28  1  0
 30 26  1  0
 31 32  2  0
 32 33  1  0
 34 33  2  0
 35 34  1  0
 36 10  1  0
 36 37  1  0
 36 46  1  0
 37 40  1  0
 38 42  1  0
 38 37  1  0
 39 38  2  0
 42 41  1  0
 44 42  1  0
 44 45  1  0
 44 43  1  0
 46 49  1  1
 46 47  1  0
 48 46  1  0
 51 50  1  0
 51 52  1  0
 53 92  1  0
 53 62  1  0
 53 52  1  0
 54 62  1  0
 55 60  1  0
 56 57  1  0
 56 55  1  0
 58 57  1  0
 58 67  1  0
 58 59  1  0
 60 54  1  0
 60 59  1  0
 61 54  2  0
 62 63  1  0
 64 65  2  0
 65 84  1  0
 66 65  1  0
 66 69  1  0
 67 68  1  0
 67 64  1  0
 68 66  2  0
 69 70  1  0
 70 71  2  0
 72 75  1  0
 72 71  1  0
 73 72  2  0
 74 73  1  0
 74 69  2  0
 75 76  1  0
 76 81  2  0
 76 77  1  0
 77 78  2  0
 78 79  1  0
 79 83  1  0
 80 79  2  0
 81 80  1  0
 82 81  1  0
 84 85  1  0
 85 88  1  0
 85 87  1  0
 86 84  2  0
 89 64  1  0
 89 90  1  0
 91 89  1  0
 93 92  1  0
 94 96  1  0
 94 93  1  0
 95 93  2  0
 97 94  1  0
M  ISO  4   8 101   9 101  54 100  62 100
M  END
>  <TORSDO>  (74) 
F 27

>  <SCORE>  (74) 
-9.332

>  <name>  (74) 
74

>  <ligand_id>  (74) 
74

>  <original_smiles>  (74) 
[H]c1c([H])c([H])c2c(c1[H])C([H])([H])C([H])([H])C([H])([H])C2([H])N([H])C(=O)C1([H])N(C(=O)C([H])(N([H])C(=O)C([H])(N([H])C([H])([H])[H])C([H])([H])[H])C(C([H])([H])[H])(C([H])([H])[H])C([H])([H])[H])C([H])([H])c2c([H])c(OC([H])([H])C([H])([H])C([H])([H])C([H])([H])[N+]([H])([H])C([H])([H])C([H])([H])C([H])([H])C([H])([H])C([H])(N([H])C(=O)N3C([H])([H])C([H])([H])C([H])([H])C([H])(n4nc(-c5c([H])c([H])c(Oc6c([H])c([H])c(F)c([H])c6F)c([H])c5[H])c(C(=O)N([H])[H])c4N([H])[H])C3([H])[H])C([H])([H])C(=O)N([H])[H])c([H])c([H])c2C1([H])[H]

>  <smiles>  (74) 
[H]c1c([H])c([H])c2c(c1[H])C([H])([H])C([H])([H])C([H])([H])C2([H])N([H])C(=O)C1([H])N(C(=O)C([H])(N([H])C(=O)C([H])(N([H])C([H])([H])[H])C([H])([H])[H])C(C([H])([H])[H])(C([H])([H])[H])C([H])([H])[H])C([H])([H])c2c([H])c(OC([H])([H])C([H])([H])C([H])([H])C([H])([H])[N+]([H])([H])C([H])([H])C([H])([H])C([H])([H])C([H])([H])C([H])(N([H])C(=O)N3C([H])([H])C([H])([H])C([H])([H])C([H])(n4nc(-c5c([H])c([H])c(Oc6c([H])c([H])c(F)c([H])c6F)c([H])c5[H])c(C(=O)N([H])[H])c4N([H])[H])C3([H])[H])C([H])([H])C(=O)N([H])[H])c([H])c([H])c2C1([H])[H]

$$$$
75:0:0
     RDKit          3D

 94101  0  0  1  0  0  0  0  0999 V2000
  -29.9910  -21.7490   20.3990 C   0  0  0  0  0  3  0  0  0  0  0  0
  -30.3550  -21.9390   18.9200 C   0  0  0  0  0  0  0  0  0  0  0  0
  -31.5360  -21.5060   18.5000 N   0  0  0  0  0  0  0  0  0  0  0  0
  -29.5860  -22.5120   18.1550 O   0  0  0  0  0  0  0  0  0  0  0  0
  -32.1820  -21.0800   19.1500 H   0  0  0  0  0  0  0  0  0  0  0  0
  -31.8060  -21.6120   17.5330 H   0  0  0  0  0  0  0  0  0  0  0  0
  -30.6080  -22.9160   21.2160 C   0  0  0  0  0  2  0  0  0  0  0  0
  -29.6260  -24.0600   21.5000 C   0  0  0  0  0  0  0  0  0  0  0  0
  -28.4590  -23.8360   21.8330 O   0  0  0  0  0  0  0  0  0  0  0  0
  -30.1850  -25.4860   21.4160 C   0  0  0  0  0  2  0  0  0  0  0  0
  -29.1320  -26.6130   21.4360 C   0  0  0  0  0  2  0  0  0  0  0  0
  -28.3950  -26.6600   20.2090 O   0  0  0  0  0  0  0  0  0  0  0  0
  -24.5700  -31.8630   23.2350 C   0  0  0  0  0  0  0  0  0  0  0  0
  -27.2580  -27.4330   20.2140 C   0  0  0  0  0  0  0  0  0  0  0  0
  -23.3730  -30.4520   21.5880 C   0  0  0  0  0  3  0  0  0  0  0  0
  -24.8460  -28.9090   20.1800 C   0  0  0  0  0  0  0  0  0  0  0  0
  -25.8920  -30.8260   21.4010 C   0  0  0  0  0  2  0  0  0  0  0  0
  -25.9890  -29.4490   20.7810 C   0  0  0  0  0  0  0  0  0  0  0  0
  -27.1940  -28.7160   20.8110 C   0  0  0  0  0  3  0  0  0  0  0  0
  -26.1050  -26.9140   19.5910 C   0  0  0  0  0  3  0  0  0  0  0  0
  -24.8960  -27.6360   19.5810 C   0  0  0  0  0  3  0  0  0  0  0  0
  -23.5930  -29.7570   20.2140 C   0  0  0  0  0  2  0  0  0  0  0  0
  -24.6270  -31.0620   22.1330 N   0  0  0  0  0  0  0  0  0  0  0  0
  -23.4870  -32.1380   23.7700 O   0  0  0  0  0  0  0  0  0  0  0  0
  -22.7180  -29.4390   22.5500 C   0  0  0  0  0  0  0  0  0  0  0  0
  -21.3930  -29.2630   22.4210 N   0  0  0  0  0  0  0  0  0  0  0  0
  -23.3960  -28.8110   23.3680 O   0  0  0  0  0  0  0  0  0  0  0  0
  -20.9070  -29.8160   21.7290 H   0  0  0  0  0  0  0  0  0  0  0  0
  -18.0100  -28.1060   22.9210 C   0  0  0  0  0  0  0  0  0  0  0  0
  -20.5710  -28.3340   23.1920 C   0  0  0  0  0  3  0  0  0  0  0  0
  -20.6580  -26.9030   22.6100 C   0  0  0  0  0  2  0  0  0  0  0  0
  -19.5540  -26.5980   21.5930 C   0  0  0  0  0  2  0  0  0  0  0  0
  -18.1740  -26.7600   22.2340 C   0  0  0  0  0  2  0  0  0  0  0  0
  -19.1380  -28.8530   23.3540 C   0  0  0  0  0  0  0  0  0  0  0  0
  -18.9360  -30.1190   23.9480 C   0  0  0  0  0  3  0  0  0  0  0  0
  -17.6370  -30.6340   24.1160 C   0  0  0  0  0  3  0  0  0  0  0  0
  -16.5230  -29.8830   23.7010 C   0  0  0  0  0  3  0  0  0  0  0  0
  -16.7110  -28.6200   23.1100 C   0  0  0  0  0  3  0  0  0  0  0  0
  -25.8560  -32.4920   23.8570 C   0  0  0  0  0  3  0  0  0  0  0  0
  -26.3770  -31.7180   25.1290 C   0  0  1  0  0  0  0  0  0  0  0  0
  -25.2870  -31.4810   26.1990 C   0  0  0  0  0  1  0  0  0  0  0  0
  -26.9550  -30.3400   24.7270 C   0  0  0  0  0  1  0  0  0  0  0  0
  -27.5310  -32.5120   25.7830 C   0  0  0  0  0  1  0  0  0  0  0  0
  -25.5540  -33.8920   24.1860 N   0  0  0  0  0  0  0  0  0  0  0  0
  -25.8870  -34.9410   23.4230 C   0  0  0  0  0  0  0  0  0  0  0  0
  -26.5560  -34.8340   22.3900 O   0  0  0  0  0  0  0  0  0  0  0  0
  -24.9660  -34.0490   24.9920 H   0  0  0  0  0  0  0  0  0  0  0  0
  -24.1620  -36.7310   23.0580 C   0  0  0  0  0  1  0  0  0  0  0  0
  -25.4000  -36.3300   23.8770 C   0  0  0  0  0  3  0  0  0  0  0  0
  -27.5350  -37.2130   24.7070 C   0  0  0  0  0  1  0  0  0  0  0  0
  -26.4340  -37.3820   23.7640 N   0  0  0  0  0  0  0  0  0  0  0  0
  -26.0270  -38.3020   23.9100 H   0  0  0  0  0  0  0  0  0  0  0  0
  -30.3380  -20.3370   20.9500 C   0  0  0  0  0  2  0  0  0  0  0  0
  -29.2570  -19.2800   20.6420 C   0  0  0  0  0  2  0  0  0  0  0  0
  -29.5400  -17.8730   21.2200 C   0  0  0  0  0  2  0  0  0  0  0  0
  -30.0010  -16.8560   20.1560 C   0  0  0  0  0  2  0  0  0  0  0  0
  -30.6470  -14.4480   20.1870 C   0  0  0  0  0  0  0  0  0  0  0  0
  -30.3210  -12.3090   19.0260 C   0  0  0  0  0  2  0  0  0  0  0  0
  -29.3390  -12.5470   17.8580 C   0  0  0  0  0  2  0  0  0  0  0  0
  -27.8760  -12.4110   18.3370 C   0  0  0  0  0  2  0  0  0  0  0  0
  -27.5850  -13.2480   19.6140 C   0  0  0  0  0  3  0  0  0  0  0  0
  -28.6710  -12.9750   20.6840 C   0  0  0  0  0  2  0  0  0  0  0  0
  -29.9880  -13.2690   20.0880 N   0  0  0  0  0  0  0  0  0  0  0  0
  -31.7670  -14.6440   19.7050 O   0  0  0  0  0  0  0  0  0  0  0  0
  -29.8820  -15.4670   20.6150 N   0  0  0  0  0  0  0  0  0  0  0  0
  -28.9880  -15.1940   20.9980 H   0  0  0  0  0  0  0  0  0  0  0  0
  -25.2190  -13.8900   20.4070 C   0  0  0  0  0  0  0  0  0  0  0  0
  -24.1560  -13.1280   20.8140 C   0  0  0  0  0  0  0  0  0  0  0  0
  -24.5990  -11.7720   20.7650 C   0  0  0  0  0  0  0  0  0  0  0  0
  -26.2440  -12.9940   20.1350 N   0  0  0  0  0  0  0  0  0  0  0  0
  -25.8760  -11.7180   20.4110 N   0  0  0  0  0  0  0  0  0  0  0  0
  -23.8690  -10.5170   20.9740 C   0  0  0  0  0  0  0  0  0  0  0  0
  -24.3260   -9.5450   21.8890 C   0  0  0  0  0  3  0  0  0  0  0  0
  -23.6030   -8.3480   22.0880 C   0  0  0  0  0  3  0  0  0  0  0  0
  -22.4060   -8.1160   21.3660 C   0  0  0  0  0  0  0  0  0  0  0  0
  -21.9690   -9.0750   20.4350 C   0  0  0  0  0  3  0  0  0  0  0  0
  -22.6950  -10.2620   20.2360 C   0  0  0  0  0  3  0  0  0  0  0  0
  -21.6440   -6.9760   21.4810 O   0  0  0  0  0  0  0  0  0  0  0  0
  -21.6220   -6.2350   22.6350 C   0  0  0  0  0  0  0  0  0  0  0  0
  -21.2330   -6.7910   23.8740 C   0  0  0  0  0  3  0  0  0  0  0  0
  -21.1630   -5.9750   25.0210 C   0  0  0  0  0  3  0  0  0  0  0  0
  -21.4640   -4.6030   24.9280 C   0  0  0  0  0  0  0  0  0  0  0  0
  -21.8430   -4.0450   23.6940 C   0  0  0  0  0  3  0  0  0  0  0  0
  -21.9200   -4.8590   22.5500 C   0  0  0  0  0  0  0  0  0  0  0  0
  -22.2650   -4.3140   21.3590 F   0  0  0  0  0  0  0  0  0  0  0  0
  -21.3870   -3.8140   26.0240 F   0  0  0  0  0  0  0  0  0  0  0  0
  -22.7710  -13.6140   21.1340 C   0  0  0  0  0  0  0  0  0  0  0  0
  -22.0680  -12.9230   22.0240 N   0  0  0  0  0  0  0  0  0  0  0  0
  -22.3200  -14.6410   20.6260 O   0  0  0  0  0  0  0  0  0  0  0  0
  -22.4400  -12.0930   22.4620 H   0  0  0  0  0  0  0  0  0  0  0  0
  -21.1340  -13.2230   22.2690 H   0  0  0  0  0  0  0  0  0  0  0  0
  -25.3900  -15.2590   20.2230 N   0  0  0  0  0  0  0  0  0  0  0  0
  -24.6280  -15.9200   20.3410 H   0  0  0  0  0  0  0  0  0  0  0  0
  -26.2230  -15.6890   19.8450 H   0  0  0  0  0  0  0  0  0  0  0  0
  1 53  1  0
  1  7  1  0
  2  1  1  0
  3  2  1  0
  3  5  1  0
  4  2  2  0
  6  3  1  0
  7  8  1  0
  8  9  2  0
 10 11  1  0
 10  8  1  0
 12 14  1  0
 12 11  1  0
 13 24  2  0
 14 19  1  0
 15 23  1  0
 15 25  1  0
 16 22  1  0
 16 18  1  0
 17 23  1  0
 18 19  2  0
 18 17  1  0
 20 14  2  0
 21 20  1  0
 21 16  2  0
 22 15  1  0
 23 13  1  0
 25 27  2  0
 26 25  1  0
 28 26  1  0
 29 38  2  0
 29 34  1  0
 30 26  1  0
 30 34  1  0
 31 30  1  0
 32 33  1  0
 32 31  1  0
 33 29  1  0
 34 35  2  0
 35 36  1  0
 37 36  2  0
 38 37  1  0
 39 13  1  0
 39 44  1  0
 39 40  1  0
 40 43  1  1
 40 41  1  0
 42 40  1  0
 44 47  1  0
 45 49  1  0
 45 44  1  0
 46 45  2  0
 49 48  1  0
 51 49  1  0
 51 52  1  0
 51 50  1  0
 54 53  1  0
 54 55  1  0
 56 65  1  0
 56 55  1  0
 57 65  1  0
 58 63  1  0
 59 60  1  0
 59 58  1  0
 61 60  1  0
 61 70  1  0
 61 62  1  0
 63 57  1  0
 63 62  1  0
 64 57  2  0
 65 66  1  0
 67 68  2  0
 68 87  1  0
 69 68  1  0
 69 72  1  0
 70 67  1  0
 70 71  1  0
 71 69  2  0
 72 73  1  0
 73 74  2  0
 75 78  1  0
 75 74  1  0
 76 75  2  0
 77 76  1  0
 77 72  2  0
 78 79  1  0
 79 80  1  0
 80 81  2  0
 82 81  1  0
 82 86  1  0
 83 82  2  0
 84 79  2  0
 84 83  1  0
 85 84  1  0
 87 88  1  0
 88 91  1  0
 88 90  1  0
 89 87  2  0
 92 93  1  0
 92 67  1  0
 94 92  1  0
M  ISO  4  11 101  12 101  57 100  65 100
M  END
>  <TORSDO>  (75) 
F 25

>  <SCORE>  (75) 
-12.157

>  <name>  (75) 
75

>  <ligand_id>  (75) 
75

>  <original_smiles>  (75) 
[H]c1c([H])c([H])c2c(c1[H])C([H])([H])C([H])([H])C([H])([H])C2([H])N([H])C(=O)C1([H])N(C(=O)C([H])(N([H])C(=O)C([H])(N([H])C([H])([H])[H])C([H])([H])[H])C(C([H])([H])[H])(C([H])([H])[H])C([H])([H])[H])C([H])([H])c2c([H])c(OC([H])([H])C([H])([H])C(=O)C([H])([H])C([H])(C(=O)N([H])[H])C([H])([H])C([H])([H])C([H])([H])C([H])([H])N([H])C(=O)N3C([H])([H])C([H])([H])C([H])([H])C([H])(n4nc(-c5c([H])c([H])c(Oc6c([H])c([H])c(F)c([H])c6F)c([H])c5[H])c(C(=O)N([H])[H])c4N([H])[H])C3([H])[H])c([H])c([H])c2C1([H])[H]

>  <smiles>  (75) 
[H]c1c([H])c([H])c2c(c1[H])C([H])([H])C([H])([H])C([H])([H])C2([H])N([H])C(=O)C1([H])N(C(=O)C([H])(N([H])C(=O)C([H])(N([H])C([H])([H])[H])C([H])([H])[H])C(C([H])([H])[H])(C([H])([H])[H])C([H])([H])[H])C([H])([H])c2c([H])c(OC([H])([H])C([H])([H])C(=O)C([H])([H])C([H])(C(=O)N([H])[H])C([H])([H])C([H])([H])C([H])([H])C([H])([H])N([H])C(=O)N3C([H])([H])C([H])([H])C([H])([H])C([H])(n4nc(-c5c([H])c([H])c(Oc6c([H])c([H])c(F)c([H])c6F)c([H])c5[H])c(C(=O)N([H])[H])c4N([H])[H])C3([H])[H])c([H])c([H])c2C1([H])[H]

$$$$
76:0:0
     RDKit          3D

 89 98  0  0  1  0  0  0  0  0999 V2000
  -28.1880  -18.9100   20.5570 C   0  0  0  0  0  2  0  0  0  0  0  0
  -27.8170  -20.3710   20.1640 C   0  0  0  0  0  2  0  0  0  0  0  0
  -30.1720  -20.2020   20.5030 C   0  0  0  0  0  2  0  0  0  0  0  0
  -29.1920  -22.4960   19.3020 C   0  0  0  0  0  2  0  0  0  0  0  0
  -28.8710  -22.5190   21.3520 C   0  0  0  0  0  2  0  0  0  0  0  0
  -29.6560  -18.7200   20.1760 C   0  0  0  0  0  3  0  0  0  0  0  0
  -29.0960  -23.6860   20.3230 C   0  0  0  0  0  3  0  0  0  0  0  0
  -29.0320  -21.3150   20.3360 C   0  0  1  0  0  0  0  0  0  0  0  0
  -30.4360  -17.4190   20.7740 C   0  0  0  0  0  2  0  0  0  0  0  0
  -30.6910  -14.8310   20.2990 C   0  0  0  0  0  0  0  0  0  0  0  0
  -30.4620  -12.5800   19.2290 C   0  0  0  0  0  2  0  0  0  0  0  0
  -29.4990  -12.6670   18.0240 C   0  0  0  0  0  2  0  0  0  0  0  0
  -28.0410  -12.4730   18.4840 C   0  0  0  0  0  2  0  0  0  0  0  0
  -27.6860  -13.3380   19.7210 C   0  0  0  0  0  3  0  0  0  0  0  0
  -28.7680  -13.2440   20.8190 C   0  0  0  0  0  2  0  0  0  0  0  0
  -30.0470  -13.6170   20.2020 N   0  0  0  0  0  0  0  0  0  0  0  0
  -31.8770  -14.9200   19.9710 O   0  0  0  0  0  0  0  0  0  0  0  0
  -29.9500  -15.9760   20.5720 N   0  0  0  0  0  0  0  0  0  0  0  0
  -28.9710  -15.8170   20.7510 H   0  0  0  0  0  0  0  0  0  0  0  0
  -25.3070  -13.8990   20.4960 C   0  0  0  0  0  0  0  0  0  0  0  0
  -24.2540  -13.1120   20.8730 C   0  0  0  0  0  0  0  0  0  0  0  0
  -24.7280  -11.7650   20.8200 C   0  0  0  0  0  0  0  0  0  0  0  0
  -26.3550  -13.0320   20.2340 N   0  0  0  0  0  0  0  0  0  0  0  0
  -26.0140  -11.7420   20.4920 N   0  0  0  0  0  0  0  0  0  0  0  0
  -24.0160  -10.4940   21.0040 C   0  0  0  0  0  0  0  0  0  0  0  0
  -24.4480   -9.5330   21.9450 C   0  0  0  0  0  3  0  0  0  0  0  0
  -23.7350   -8.3280   22.1170 C   0  0  0  0  0  3  0  0  0  0  0  0
  -22.5740   -8.0750   21.3490 C   0  0  0  0  0  0  0  0  0  0  0  0
  -22.1610   -9.0230   20.3970 C   0  0  0  0  0  3  0  0  0  0  0  0
  -22.8750  -10.2200   20.2230 C   0  0  0  0  0  3  0  0  0  0  0  0
  -21.8310   -6.9210   21.4300 O   0  0  0  0  0  0  0  0  0  0  0  0
  -21.7400   -6.2040   22.5970 C   0  0  0  0  0  0  0  0  0  0  0  0
  -21.1980   -6.7640   23.7760 C   0  0  0  0  0  3  0  0  0  0  0  0
  -21.0600   -5.9720   24.9320 C   0  0  0  0  0  3  0  0  0  0  0  0
  -21.4540   -4.6200   24.9120 C   0  0  0  0  0  0  0  0  0  0  0  0
  -21.9880   -4.0590   23.7380 C   0  0  0  0  0  3  0  0  0  0  0  0
  -22.1280   -4.8490   22.5830 C   0  0  0  0  0  0  0  0  0  0  0  0
  -22.6250   -4.2990   21.4490 F   0  0  0  0  0  0  0  0  0  0  0  0
  -21.3130   -3.8550   26.0200 F   0  0  0  0  0  0  0  0  0  0  0  0
  -22.8560  -13.5730   21.1680 C   0  0  0  0  0  0  0  0  0  0  0  0
  -22.1420  -12.8560   22.0280 N   0  0  0  0  0  0  0  0  0  0  0  0
  -22.4070  -14.6060   20.6720 O   0  0  0  0  0  0  0  0  0  0  0  0
  -22.5180  -12.0190   22.4490 H   0  0  0  0  0  0  0  0  0  0  0  0
  -21.2070  -13.1480   22.2710 H   0  0  0  0  0  0  0  0  0  0  0  0
  -25.4560  -15.2730   20.3290 N   0  0  0  0  0  0  0  0  0  0  0  0
  -24.6820  -15.9170   20.4500 H   0  0  0  0  0  0  0  0  0  0  0  0
  -26.2870  -15.7190   19.9620 H   0  0  0  0  0  0  0  0  0  0  0  0
  -28.0710  -24.9230   20.0850 C   0  0  0  0  0  2  0  0  0  0  0  0
  -28.3380  -26.3900   20.3520 O   0  0  0  0  0  0  0  0  0  0  0  0
  -24.6380  -31.9520   23.2650 C   0  0  0  0  0  0  0  0  0  0  0  0
  -27.2550  -27.3080   20.2700 C   0  0  0  0  0  0  0  0  0  0  0  0
  -23.4480  -30.5500   21.6220 C   0  0  0  0  0  3  0  0  0  0  0  0
  -24.9090  -28.9840   20.2190 C   0  0  0  0  0  0  0  0  0  0  0  0
  -25.9980  -30.8380   21.4740 C   0  0  0  0  0  2  0  0  0  0  0  0
  -26.0790  -29.4520   20.8310 C   0  0  0  0  0  0  0  0  0  0  0  0
  -27.2550  -28.6290   20.8440 C   0  0  0  0  0  3  0  0  0  0  0  0
  -26.0560  -26.9190   19.6250 C   0  0  0  0  0  3  0  0  0  0  0  0
  -24.9050  -27.7270   19.6050 C   0  0  0  0  0  3  0  0  0  0  0  0
  -23.6780  -29.8680   20.2490 C   0  0  0  0  0  2  0  0  0  0  0  0
  -24.7130  -31.1330   22.1750 N   0  0  0  0  0  0  0  0  0  0  0  0
  -23.5480  -32.2400   23.7840 O   0  0  0  0  0  0  0  0  0  0  0  0
  -22.7680  -29.5420   22.5800 C   0  0  0  0  0  0  0  0  0  0  0  0
  -21.4440  -29.3650   22.4340 N   0  0  0  0  0  0  0  0  0  0  0  0
  -23.4320  -28.9240   23.4160 O   0  0  0  0  0  0  0  0  0  0  0  0
  -20.9680  -29.9140   21.7320 H   0  0  0  0  0  0  0  0  0  0  0  0
  -18.0480  -28.2210   22.9420 C   0  0  0  0  0  0  0  0  0  0  0  0
  -20.6110  -28.4360   23.2020 C   0  0  0  0  0  3  0  0  0  0  0  0
  -20.6870  -27.0080   22.6130 C   0  0  0  0  0  2  0  0  0  0  0  0
  -19.5750  -26.7120   21.6010 C   0  0  0  0  0  2  0  0  0  0  0  0
  -18.1980  -26.8740   22.2520 C   0  0  0  0  0  2  0  0  0  0  0  0
  -19.1810  -28.9610   23.3720 C   0  0  0  0  0  0  0  0  0  0  0  0
  -18.9850  -30.2220   23.9760 C   0  0  0  0  0  3  0  0  0  0  0  0
  -17.6890  -30.7420   24.1540 C   0  0  0  0  0  3  0  0  0  0  0  0
  -16.5710  -29.9990   23.7400 C   0  0  0  0  0  3  0  0  0  0  0  0
  -16.7510  -28.7400   23.1400 C   0  0  0  0  0  3  0  0  0  0  0  0
  -25.9140  -32.5850   23.9000 C   0  0  0  0  0  3  0  0  0  0  0  0
  -25.6090  -33.9910   24.2050 N   0  0  0  0  0  0  0  0  0  0  0  0
  -25.9540  -35.0320   23.4340 C   0  0  0  0  0  0  0  0  0  0  0  0
  -26.6300  -34.9090   22.4100 O   0  0  0  0  0  0  0  0  0  0  0  0
  -25.0150  -34.1610   25.0030 H   0  0  0  0  0  0  0  0  0  0  0  0
  -24.2560  -36.8420   23.0240 C   0  0  0  0  0  1  0  0  0  0  0  0
  -25.4720  -36.4300   23.8690 C   0  0  0  0  0  3  0  0  0  0  0  0
  -27.5850  -37.3100   24.7580 C   0  0  0  0  0  1  0  0  0  0  0  0
  -26.5190  -37.4700   23.7730 N   0  0  0  0  0  0  0  0  0  0  0  0
  -26.1180  -38.3970   23.8870 H   0  0  0  0  0  0  0  0  0  0  0  0
  -26.4040  -31.8310   25.1960 C   0  0  1  0  0  0  0  0  0  0  0  0
  -25.2870  -31.6030   26.2420 C   0  0  0  0  0  1  0  0  0  0  0  0
  -26.9980  -30.4500   24.8360 C   0  0  0  0  0  1  0  0  0  0  0  0
  -27.5390  -32.6340   25.8730 C   0  0  0  0  0  1  0  0  0  0  0  0
  8  2  1  6
  2  1  1  0
  4  7  1  0
  6  3  1  0
  6  1  1  0
  6  9  1  0
  7 48  1  0
  7  5  1  0
  8  4  1  0
  8  3  1  0
  8  5  1  0
 10 18  1  0
 11 16  1  0
 12 13  1  0
 12 11  1  0
 14 13  1  0
 14 23  1  0
 14 15  1  0
 16 10  1  0
 16 15  1  0
 17 10  2  0
 18 19  1  0
 18  9  1  0
 20 21  2  0
 21 40  1  0
 22 21  1  0
 22 25  1  0
 23 24  1  0
 23 20  1  0
 24 22  2  0
 25 26  1  0
 26 27  2  0
 28 31  1  0
 28 27  1  0
 29 28  2  0
 30 29  1  0
 30 25  2  0
 31 32  1  0
 32 33  1  0
 33 34  2  0
 35 34  1  0
 35 39  1  0
 36 35  2  0
 37 32  2  0
 37 36  1  0
 38 37  1  0
 40 41  1  0
 41 44  1  0
 41 43  1  0
 42 40  2  0
 45 46  1  0
 45 20  1  0
 47 45  1  0
 48 49  1  0
 50 61  2  0
 51 49  1  0
 51 56  1  0
 52 60  1  0
 52 62  1  0
 53 59  1  0
 53 55  1  0
 54 60  1  0
 55 56  2  0
 55 54  1  0
 57 51  2  0
 58 57  1  0
 58 53  2  0
 59 52  1  0
 60 50  1  0
 62 64  2  0
 63 62  1  0
 65 63  1  0
 66 75  2  0
 66 71  1  0
 67 63  1  0
 67 71  1  0
 68 67  1  0
 69 70  1  0
 69 68  1  0
 70 66  1  0
 71 72  2  0
 72 73  1  0
 74 73  2  0
 75 74  1  0
 76 50  1  0
 76 77  1  0
 76 86  1  0
 77 80  1  0
 78 82  1  0
 78 77  1  0
 79 78  2  0
 82 81  1  0
 84 82  1  0
 84 85  1  0
 84 83  1  0
 86 89  1  1
 86 87  1  0
 88 86  1  0
M  ISO  4  10 100  18 100  48 101  49 101
M  END
>  <TORSDO>  (76) 
F 18

>  <SCORE>  (76) 
-14.477

>  <name>  (76) 
76

>  <ligand_id>  (76) 
76

>  <original_smiles>  (76) 
[H]c1c([H])c([H])c2c(c1[H])C([H])([H])C([H])([H])C([H])([H])C2([H])N([H])C(=O)C1([H])N(C(=O)C([H])(N([H])C(=O)C([H])(N([H])C([H])([H])[H])C([H])([H])[H])C(C([H])([H])[H])(C([H])([H])[H])C([H])([H])[H])C([H])([H])c2c([H])c(OC([H])([H])C3([H])C([H])([H])C4(C([H])([H])C([H])([H])C([H])(C([H])([H])N([H])C(=O)N5C([H])([H])C([H])([H])C([H])([H])C([H])(n6nc(-c7c([H])c([H])c(Oc8c([H])c([H])c(F)c([H])c8F)c([H])c7[H])c(C(=O)N([H])[H])c6N([H])[H])C5([H])[H])C4([H])[H])C3([H])[H])c([H])c([H])c2C1([H])[H]

>  <smiles>  (76) 
[H]c1c([H])c([H])c2c(c1[H])C([H])([H])C([H])([H])C([H])([H])C2([H])N([H])C(=O)C1([H])N(C(=O)C([H])(N([H])C(=O)C([H])(N([H])C([H])([H])[H])C([H])([H])[H])C(C([H])([H])[H])(C([H])([H])[H])C([H])([H])[H])C([H])([H])c2c([H])c(OC([H])([H])C3([H])C([H])([H])C4(C([H])([H])C([H])([H])C([H])(C([H])([H])N([H])C(=O)N5C([H])([H])C([H])([H])C([H])([H])C([H])(n6nc(-c7c([H])c([H])c(Oc8c([H])c([H])c(F)c([H])c8F)c([H])c7[H])c(C(=O)N([H])[H])c6N([H])[H])C5([H])[H])C4([H])[H])C3([H])[H])c([H])c([H])c2C1([H])[H]

$$$$
77:0:0
     RDKit          3D

 93102  0  0  1  0  0  0  0  0999 V2000
  -29.0460  -17.7180   20.4950 C   0  0  0  0  0  0  0  0  0  0  0  0
  -28.9960  -20.3090   20.7430 C   0  0  0  0  0  2  0  0  0  0  0  0
  -31.2530  -17.5600   21.5130 C   0  0  0  0  0  2  0  0  0  0  0  0
  -31.2650  -20.1840   21.4430 C   0  0  0  0  0  2  0  0  0  0  0  0
  -29.1750  -18.9210   21.4130 C   0  0  0  0  0  3  0  0  0  0  0  0
  -30.3520  -16.9460   20.4240 C   0  0  0  0  0  3  0  0  0  0  0  0
  -30.6090  -18.8890   21.9580 C   0  0  0  0  0  3  0  0  0  0  0  0
  -30.1010  -21.1810   21.3610 C   0  0  0  0  0  3  0  0  0  0  0  0
  -27.9840  -17.3730   19.8980 N   0  0  0  0  0  0  0  0  0  0  0  0
  -27.2270  -18.0240   20.0820 H   0  0  0  0  0  0  0  0  0  0  0  0
  -30.7910  -14.5080   20.0370 C   0  0  0  0  0  0  0  0  0  0  0  0
  -30.4390  -12.3400   18.9140 C   0  0  0  0  0  2  0  0  0  0  0  0
  -29.4310  -12.5420   17.7620 C   0  0  0  0  0  2  0  0  0  0  0  0
  -27.9800  -12.4210   18.2730 C   0  0  0  0  0  2  0  0  0  0  0  0
  -27.7210  -13.2680   19.5490 C   0  0  0  0  0  3  0  0  0  0  0  0
  -28.8310  -13.0270   20.5970 C   0  0  0  0  0  2  0  0  0  0  0  0
  -30.1260  -13.3240   19.9610 N   0  0  0  0  0  0  0  0  0  0  0  0
  -31.8770  -14.7090   19.4850 O   0  0  0  0  0  0  0  0  0  0  0  0
  -30.1030  -15.5080   20.6100 N   0  0  0  0  0  0  0  0  0  0  0  0
  -29.1970  -15.2700   20.9800 H   0  0  0  0  0  0  0  0  0  0  0  0
  -25.3790  -13.9020   20.4110 C   0  0  0  0  0  0  0  0  0  0  0  0
  -24.3210  -13.1380   20.8280 C   0  0  0  0  0  0  0  0  0  0  0  0
  -24.7570  -11.7800   20.7460 C   0  0  0  0  0  0  0  0  0  0  0  0
  -26.3930  -13.0070   20.1020 N   0  0  0  0  0  0  0  0  0  0  0  0
  -26.0260  -11.7260   20.3610 N   0  0  0  0  0  0  0  0  0  0  0  0
  -24.0240  -10.5250   20.9590 C   0  0  0  0  0  0  0  0  0  0  0  0
  -24.4810   -9.5480   21.8700 C   0  0  0  0  0  3  0  0  0  0  0  0
  -23.7490   -8.3590   22.0700 C   0  0  0  0  0  3  0  0  0  0  0  0
  -22.5450   -8.1380   21.3600 C   0  0  0  0  0  0  0  0  0  0  0  0
  -22.1070   -9.1030   20.4370 C   0  0  0  0  0  3  0  0  0  0  0  0
  -22.8400  -10.2840   20.2350 C   0  0  0  0  0  3  0  0  0  0  0  0
  -21.7810   -7.0010   21.4720 O   0  0  0  0  0  0  0  0  0  0  0  0
  -21.7470   -6.2680   22.6300 C   0  0  0  0  0  0  0  0  0  0  0  0
  -21.3210   -6.8270   23.8560 C   0  0  0  0  0  3  0  0  0  0  0  0
  -21.2340   -6.0190   25.0060 C   0  0  0  0  0  3  0  0  0  0  0  0
  -21.5640   -4.6510   24.9330 C   0  0  0  0  0  0  0  0  0  0  0  0
  -21.9830   -4.0910   23.7150 C   0  0  0  0  0  3  0  0  0  0  0  0
  -22.0710   -4.8970   22.5650 C   0  0  0  0  0  0  0  0  0  0  0  0
  -22.4550   -4.3480   21.3880 F   0  0  0  0  0  0  0  0  0  0  0  0
  -21.4740   -3.8720   26.0370 F   0  0  0  0  0  0  0  0  0  0  0  0
  -22.9520  -13.6320   21.1960 C   0  0  0  0  0  0  0  0  0  0  0  0
  -22.2680  -12.9270   22.0910 N   0  0  0  0  0  0  0  0  0  0  0  0
  -22.4990  -14.6730   20.7250 O   0  0  0  0  0  0  0  0  0  0  0  0
  -22.6490  -12.0830   22.4920 H   0  0  0  0  0  0  0  0  0  0  0  0
  -21.3500  -13.2360   22.3790 H   0  0  0  0  0  0  0  0  0  0  0  0
  -25.5600  -15.2730   20.2540 N   0  0  0  0  0  0  0  0  0  0  0  0
  -24.8220  -15.9400   20.4420 H   0  0  0  0  0  0  0  0  0  0  0  0
  -26.4220  -15.7170   19.9450 H   0  0  0  0  0  0  0  0  0  0  0  0
  -30.4520  -22.5060   20.6340 C   0  0  0  0  0  2  0  0  0  0  0  0
  -29.4270  -23.6590   20.8090 C   0  0  0  0  0  2  0  0  0  0  0  0
  -30.0780  -25.0630   20.7110 C   0  0  0  0  0  2  0  0  0  0  0  0
  -29.1320  -26.2710   20.9180 C   0  0  0  0  0  2  0  0  0  0  0  0
  -28.5800  -26.7000   19.6760 O   0  0  0  0  0  0  0  0  0  0  0  0
  -24.6060  -31.6400   23.0090 C   0  0  0  0  0  0  0  0  0  0  0  0
  -27.4180  -27.4310   19.7640 C   0  0  0  0  0  0  0  0  0  0  0  0
  -23.4580  -30.2650   21.3020 C   0  0  0  0  0  3  0  0  0  0  0  0
  -24.9740  -28.8430   19.8230 C   0  0  0  0  0  0  0  0  0  0  0  0
  -25.9670  -30.7220   21.1350 C   0  0  0  0  0  2  0  0  0  0  0  0
  -26.1080  -29.3800   20.4470 C   0  0  0  0  0  0  0  0  0  0  0  0
  -27.3350  -28.6780   20.4260 C   0  0  0  0  0  3  0  0  0  0  0  0
  -26.2750  -26.9080   19.1300 C   0  0  0  0  0  3  0  0  0  0  0  0
  -25.0500  -27.6030   19.1630 C   0  0  0  0  0  3  0  0  0  0  0  0
  -23.6980  -29.6510   19.8960 C   0  0  0  0  0  2  0  0  0  0  0  0
  -24.6940  -30.8880   21.8760 N   0  0  0  0  0  0  0  0  0  0  0  0
  -23.5130  -31.8500   23.5550 O   0  0  0  0  0  0  0  0  0  0  0  0
  -22.8400  -29.1820   22.2150 C   0  0  0  0  0  0  0  0  0  0  0  0
  -21.5150  -28.9920   22.1040 N   0  0  0  0  0  0  0  0  0  0  0  0
  -23.5480  -28.5180   22.9760 O   0  0  0  0  0  0  0  0  0  0  0  0
  -21.0050  -29.5840   21.4630 H   0  0  0  0  0  0  0  0  0  0  0  0
  -18.1580  -27.7630   22.6320 C   0  0  0  0  0  0  0  0  0  0  0  0
  -20.7240  -28.0020   22.8340 C   0  0  0  0  0  3  0  0  0  0  0  0
  -20.8050  -26.6150   22.1540 C   0  0  0  0  0  2  0  0  0  0  0  0
  -19.6690  -26.3650   21.1580 C   0  0  0  0  0  2  0  0  0  0  0  0
  -18.3100  -26.4640   21.8560 C   0  0  0  0  0  2  0  0  0  0  0  0
  -19.2920  -28.4920   23.0770 C   0  0  0  0  0  0  0  0  0  0  0  0
  -19.0970  -29.7130   23.7590 C   0  0  0  0  0  3  0  0  0  0  0  0
  -17.8000  -30.2020   24.0040 C   0  0  0  0  0  3  0  0  0  0  0  0
  -16.6790  -29.4680   23.5760 C   0  0  0  0  0  3  0  0  0  0  0  0
  -16.8600  -28.2500   22.8960 C   0  0  0  0  0  3  0  0  0  0  0  0
  -25.8670  -32.2870   23.6610 C   0  0  0  0  0  3  0  0  0  0  0  0
  -26.4070  -31.4800   24.9050 C   0  0  1  0  0  0  0  0  0  0  0  0
  -25.3240  -31.1700   25.9620 C   0  0  0  0  0  1  0  0  0  0  0  0
  -27.0310  -30.1390   24.4530 C   0  0  0  0  0  1  0  0  0  0  0  0
  -27.5330  -32.2820   25.6020 C   0  0  0  0  0  1  0  0  0  0  0  0
  -25.5120  -33.6600   24.0460 N   0  0  0  0  0  0  0  0  0  0  0  0
  -25.8060  -34.7500   23.3250 C   0  0  0  0  0  0  0  0  0  0  0  0
  -26.4740  -34.7090   22.2880 O   0  0  0  0  0  0  0  0  0  0  0  0
  -24.9240  -33.7640   24.8590 H   0  0  0  0  0  0  0  0  0  0  0  0
  -24.0130  -36.4890   23.0420 C   0  0  0  0  0  1  0  0  0  0  0  0
  -25.2700  -36.1010   23.8360 C   0  0  0  0  0  3  0  0  0  0  0  0
  -27.3720  -37.0350   24.6990 C   0  0  0  0  0  1  0  0  0  0  0  0
  -26.2640  -37.1950   23.7600 N   0  0  0  0  0  0  0  0  0  0  0  0
  -25.8230  -38.0920   23.9430 H   0  0  0  0  0  0  0  0  0  0  0  0
  1  5  1  0
  2  8  1  0
  3  7  1  0
  5  2  1  0
  5  7  1  0
  6  1  1  0
  6 19  1  0
  6  3  1  0
  7  4  1  0
  8 49  1  0
  8  4  1  0
  9 10  1  0
  9  1  2  0
 11 19  1  0
 12 17  1  0
 13 14  1  0
 13 12  1  0
 15 14  1  0
 15 24  1  0
 15 16  1  0
 17 11  1  0
 17 16  1  0
 18 11  2  0
 19 20  1  0
 21 22  2  0
 22 41  1  0
 23 22  1  0
 23 26  1  0
 24 25  1  0
 24 21  1  0
 25 23  2  0
 26 27  1  0
 27 28  2  0
 29 32  1  0
 29 28  1  0
 30 29  2  0
 31 30  1  0
 31 26  2  0
 32 33  1  0
 33 34  1  0
 34 35  2  0
 36 35  1  0
 36 40  1  0
 37 36  2  0
 38 33  2  0
 38 37  1  0
 39 38  1  0
 41 42  1  0
 42 45  1  0
 42 44  1  0
 43 41  2  0
 46 21  1  0
 46 47  1  0
 48 46  1  0
 49 50  1  0
 51 50  1  0
 51 52  1  0
 53 55  1  0
 53 52  1  0
 54 65  2  0
 55 60  1  0
 56 64  1  0
 56 66  1  0
 57 63  1  0
 57 59  1  0
 58 64  1  0
 59 58  1  0
 60 59  2  0
 61 62  1  0
 61 55  2  0
 62 57  2  0
 63 56  1  0
 64 54  1  0
 66 68  2  0
 67 66  1  0
 69 67  1  0
 70 79  2  0
 70 75  1  0
 71 67  1  0
 71 75  1  0
 72 71  1  0
 73 74  1  0
 73 72  1  0
 74 70  1  0
 75 76  2  0
 76 77  1  0
 78 77  2  0
 79 78  1  0
 80 54  1  0
 80 85  1  0
 80 81  1  0
 81 84  1  1
 81 82  1  0
 83 81  1  0
 85 88  1  0
 86 90  1  0
 86 85  1  0
 87 86  2  0
 90 89  1  0
 92 90  1  0
 92 93  1  0
 92 91  1  0
M  ISO  4  11 100  19 100  52 101  53 101
M  END
>  <TORSDO>  (77) 
F 20

>  <SCORE>  (77) 
-12.923

>  <name>  (77) 
77

>  <ligand_id>  (77) 
77

>  <original_smiles>  (77) 
[H]N=C1C([H])(N([H])C(=O)N2C([H])([H])C([H])([H])C([H])([H])C([H])(n3nc(-c4c([H])c([H])c(Oc5c([H])c([H])c(F)c([H])c5F)c([H])c4[H])c(C(=O)N([H])[H])c3N([H])[H])C2([H])[H])C([H])([H])C2([H])C([H])([H])C([H])(C([H])([H])C([H])([H])C([H])([H])C([H])([H])Oc3c([H])c([H])c4c(c3[H])C([H])([H])N(C(=O)C([H])(N([H])C(=O)C([H])(N([H])C([H])([H])[H])C([H])([H])[H])C(C([H])([H])[H])(C([H])([H])[H])C([H])([H])[H])C([H])(C(=O)N([H])C3([H])c5c([H])c([H])c([H])c([H])c5C([H])([H])C([H])([H])C3([H])[H])C4([H])[H])C([H])([H])C12[H]

>  <smiles>  (77) 
[H]N=C1C([H])(N([H])C(=O)N2C([H])([H])C([H])([H])C([H])([H])C([H])(n3nc(-c4c([H])c([H])c(Oc5c([H])c([H])c(F)c([H])c5F)c([H])c4[H])c(C(=O)N([H])[H])c3N([H])[H])C2([H])[H])C([H])([H])C2([H])C([H])([H])C([H])(C([H])([H])C([H])([H])C([H])([H])C([H])([H])Oc3c([H])c([H])c4c(c3[H])C([H])([H])N(C(=O)C([H])(N([H])C(=O)C([H])(N([H])C([H])([H])[H])C([H])([H])[H])C(C([H])([H])[H])(C([H])([H])[H])C([H])([H])[H])C([H])(C(=O)N([H])C3([H])c5c([H])c([H])c([H])c([H])c5C([H])([H])C([H])([H])C3([H])[H])C4([H])[H])C([H])([H])C12[H]

$$$$
78:0:0
     RDKit          3D

 97106  0  0  1  0  0  0  0  0999 V2000
  -29.3320  -15.8430   18.4590 C   0  0  0  0  0  0  0  0  0  0  0  0
  -30.4600  -16.3350   17.5590 C   0  0  0  0  0  2  0  0  0  0  0  0
  -31.1580  -17.5570   18.1600 C   0  0  0  0  0  2  0  0  0  0  0  0
  -30.7830  -19.7980   19.2680 C   0  0  0  0  0  2  0  0  0  0  0  0
  -29.2970  -16.3810   19.9190 C   0  0  0  0  0  3  0  0  0  0  0  0
  -30.1160  -18.5570   18.6910 C   0  0  0  0  0  3  0  0  0  0  0  0
  -29.2360  -17.9510   19.8230 C   0  0  0  0  0  3  0  0  0  0  0  0
  -30.0850  -20.0330   20.6050 C   0  0  0  0  0  3  0  0  0  0  0  0
  -29.6000  -18.7020   21.0450 N   0  0  0  0  0  4  0  0  0  0  0  0
  -28.4240  -15.2000   17.9430 O   0  0  0  0  0  0  0  0  0  0  0  0
  -30.3470  -18.2150   21.5050 H   0  0  0  0  0  0  0  0  0  0  0  0
  -28.8290  -18.7700   21.6980 H   0  0  0  0  0  0  0  0  0  0  0  0
  -30.9070  -14.6250   20.9980 C   0  0  0  0  0  0  0  0  0  0  0  0
  -30.6550  -12.3700   20.0580 C   0  0  0  0  0  2  0  0  0  0  0  0
  -29.8270  -12.4060   18.7660 C   0  0  0  0  0  2  0  0  0  0  0  0
  -28.3120  -12.3320   19.0840 C   0  0  0  0  0  2  0  0  0  0  0  0
  -27.8480  -13.1900   20.3000 C   0  0  0  0  0  3  0  0  0  0  0  0
  -28.8550  -13.2020   21.4610 C   0  0  0  0  0  2  0  0  0  0  0  0
  -30.1820  -13.4780   20.9000 N   0  0  0  0  0  0  0  0  0  0  0  0
  -32.1330  -14.6170   21.0160 O   0  0  0  0  0  0  0  0  0  0  0  0
  -30.3220  -15.8470   20.8680 N   0  0  0  0  0  0  0  0  0  0  0  0
  -31.0410  -16.5370   21.0390 H   0  0  0  0  0  0  0  0  0  0  0  0
  -25.4060  -13.7770   20.8370 C   0  0  0  0  0  0  0  0  0  0  0  0
  -24.3310  -12.9880   21.1280 C   0  0  0  0  0  0  0  0  0  0  0  0
  -24.8250  -11.6480   21.1660 C   0  0  0  0  0  0  0  0  0  0  0  0
  -26.4840  -12.9090   20.7090 N   0  0  0  0  0  0  0  0  0  0  0  0
  -26.1350  -11.6290   20.9710 N   0  0  0  0  0  0  0  0  0  0  0  0
  -24.1200  -10.3790   21.3200 C   0  0  0  0  0  0  0  0  0  0  0  0
  -24.4800   -9.4620   22.3310 C   0  0  0  0  0  3  0  0  0  0  0  0
  -23.7810   -8.2440   22.4730 C   0  0  0  0  0  3  0  0  0  0  0  0
  -22.7090   -7.9400   21.6010 C   0  0  0  0  0  0  0  0  0  0  0  0
  -22.3700   -8.8470   20.5840 C   0  0  0  0  0  3  0  0  0  0  0  0
  -23.0650  -10.0560   20.4450 C   0  0  0  0  0  3  0  0  0  0  0  0
  -21.9780   -6.7750   21.6480 O   0  0  0  0  0  0  0  0  0  0  0  0
  -21.7890   -6.0910   22.8210 C   0  0  0  0  0  0  0  0  0  0  0  0
  -21.1530   -6.6770   23.9400 C   0  0  0  0  0  3  0  0  0  0  0  0
  -20.9300   -5.9130   25.1020 C   0  0  0  0  0  3  0  0  0  0  0  0
  -21.3230   -4.5610   25.1440 C   0  0  0  0  0  0  0  0  0  0  0  0
  -21.9410   -3.9730   24.0260 C   0  0  0  0  0  3  0  0  0  0  0  0
  -22.1740   -4.7360   22.8720 C   0  0  0  0  0  0  0  0  0  0  0  0
  -22.7640   -4.1630   21.7960 F   0  0  0  0  0  0  0  0  0  0  0  0
  -21.0980   -3.8250   26.2560 F   0  0  0  0  0  0  0  0  0  0  0  0
  -22.9030  -13.4330   21.2570 C   0  0  0  0  0  0  0  0  0  0  0  0
  -22.1110  -12.7480   22.0680 N   0  0  0  0  0  0  0  0  0  0  0  0
  -22.4940  -14.4360   20.6690 O   0  0  0  0  0  0  0  0  0  0  0  0
  -22.4520  -11.9480   22.5840 H   0  0  0  0  0  0  0  0  0  0  0  0
  -21.1440  -13.0310   22.1750 H   0  0  0  0  0  0  0  0  0  0  0  0
  -25.5390  -15.1500   20.6440 N   0  0  0  0  0  0  0  0  0  0  0  0
  -24.7180  -15.7420   20.6370 H   0  0  0  0  0  0  0  0  0  0  0  0
  -26.3890  -15.6410   20.4020 H   0  0  0  0  0  0  0  0  0  0  0  0
  -31.0360  -20.7110   21.6080 C   0  0  0  0  0  2  0  0  0  0  0  0
  -31.7950  -21.9330   21.0150 C   0  0  0  0  0  2  0  0  0  0  0  0
  -31.6770  -23.2010   21.8530 C   0  0  0  0  0  2  0  0  0  0  0  0
  -30.2190  -23.7080   21.8890 C   0  0  0  0  0  2  0  0  0  0  0  0
  -30.0150  -25.0330   21.1500 C   0  0  0  0  0  2  0  0  0  0  0  0
  -28.5760  -25.5290   21.2840 C   0  0  0  0  0  2  0  0  0  0  0  0
  -28.5210  -26.8010   20.6730 O   0  0  0  0  0  0  0  0  0  0  0  0
  -24.4520  -31.9160   23.3980 C   0  0  0  0  0  0  0  0  0  0  0  0
  -27.3000  -27.4190   20.6560 C   0  0  0  0  0  0  0  0  0  0  0  0
  -23.3370  -30.4310   21.7630 C   0  0  0  0  0  3  0  0  0  0  0  0
  -24.8680  -28.8310   20.5070 C   0  0  0  0  0  0  0  0  0  0  0  0
  -25.8600  -30.8230   21.6610 C   0  0  0  0  0  2  0  0  0  0  0  0
  -25.9890  -29.4250   21.1020 C   0  0  0  0  0  0  0  0  0  0  0  0
  -27.2090  -28.7270   21.1660 C   0  0  0  0  0  3  0  0  0  0  0  0
  -26.1610  -26.8160   20.0770 C   0  0  0  0  0  3  0  0  0  0  0  0
  -24.9400  -27.5160   20.0100 C   0  0  0  0  0  3  0  0  0  0  0  0
  -23.6180  -29.6760   20.4380 C   0  0  0  0  0  2  0  0  0  0  0  0
  -24.5650  -31.0690   22.3400 N   0  0  0  0  0  0  0  0  0  0  0  0
  -23.3420  -32.2030   23.8700 O   0  0  0  0  0  0  0  0  0  0  0  0
  -22.6370  -29.4540   22.7350 C   0  0  0  0  0  0  0  0  0  0  0  0
  -21.3330  -29.2220   22.5180 N   0  0  0  0  0  0  0  0  0  0  0  0
  -23.2710  -28.8970   23.6350 O   0  0  0  0  0  0  0  0  0  0  0  0
  -20.8750  -29.7280   21.7720 H   0  0  0  0  0  0  0  0  0  0  0  0
  -17.9660  -27.9490   22.8210 C   0  0  0  0  0  0  0  0  0  0  0  0
  -20.4860  -28.3050   23.2790 C   0  0  0  0  0  3  0  0  0  0  0  0
  -20.6710  -26.8450   22.8070 C   0  0  0  0  0  2  0  0  0  0  0  0
  -19.6660  -26.4290   21.7290 C   0  0  0  0  0  2  0  0  0  0  0  0
  -18.2330  -26.5660   22.2510 C   0  0  0  0  0  2  0  0  0  0  0  0
  -19.0260  -28.7700   23.2920 C   0  0  0  0  0  0  0  0  0  0  0  0
  -18.7260  -30.0610   23.7790 C   0  0  0  0  0  3  0  0  0  0  0  0
  -17.4020  -30.5330   23.8030 C   0  0  0  0  0  3  0  0  0  0  0  0
  -16.3550  -29.7110   23.3490 C   0  0  0  0  0  3  0  0  0  0  0  0
  -16.6380  -28.4210   22.8650 C   0  0  0  0  0  3  0  0  0  0  0  0
  -25.7000  -32.5780   24.0580 C   0  0  0  0  0  3  0  0  0  0  0  0
  -25.3860  -33.9960   24.2740 N   0  0  0  0  0  0  0  0  0  0  0  0
  -25.7980  -34.9930   23.4770 C   0  0  0  0  0  0  0  0  0  0  0  0
  -26.5480  -34.8150   22.5150 O   0  0  0  0  0  0  0  0  0  0  0  0
  -24.7150  -34.2080   24.9970 H   0  0  0  0  0  0  0  0  0  0  0  0
  -24.1330  -36.7720   22.8640 C   0  0  0  0  0  1  0  0  0  0  0  0
  -25.2970  -36.4140   23.8000 C   0  0  0  0  0  3  0  0  0  0  0  0
  -27.3720  -37.3270   24.7420 C   0  0  0  0  0  1  0  0  0  0  0  0
  -26.3530  -37.4470   23.7030 N   0  0  0  0  0  0  0  0  0  0  0  0
  -25.9520  -38.3790   23.7600 H   0  0  0  0  0  0  0  0  0  0  0  0
  -26.1210  -31.8850   25.4100 C   0  0  1  0  0  0  0  0  0  0  0  0
  -24.9500  -31.7160   26.4080 C   0  0  0  0  0  1  0  0  0  0  0  0
  -26.7190  -30.4830   25.1410 C   0  0  0  0  0  1  0  0  0  0  0  0
  -27.2290  -32.7110   26.1020 C   0  0  0  0  0  1  0  0  0  0  0  0
  1  5  1  0
  2  3  1  0
  2  1  1  0
  4  8  1  0
  5 21  1  0
  6  3  1  0
  6  4  1  0
  6  7  1  0
  7  5  1  0
  7  9  1  0
  8  9  1  0
  8 51  1  0
  9 11  1  0
  9 12  1  0
 10  1  2  0
 13 20  2  0
 14 19  1  0
 15 16  1  0
 15 14  1  0
 17 16  1  0
 17 26  1  0
 17 18  1  0
 19 13  1  0
 19 18  1  0
 21 13  1  0
 21 22  1  0
 23 24  2  0
 24 25  1  0
 24 43  1  0
 25 28  1  0
 26 23  1  0
 26 27  1  0
 27 25  2  0
 28 29  1  0
 29 30  2  0
 31 34  1  0
 31 30  1  0
 32 31  2  0
 33 32  1  0
 33 28  2  0
 34 35  1  0
 35 40  2  0
 35 36  1  0
 36 37  2  0
 37 38  1  0
 38 42  1  0
 39 38  2  0
 40 39  1  0
 41 40  1  0
 43 44  1  0
 44 47  1  0
 44 46  1  0
 45 43  2  0
 48 23  1  0
 49 48  1  0
 50 48  1  0
 52 51  1  0
 52 53  1  0
 53 54  1  0
 55 56  1  0
 55 54  1  0
 57 56  1  0
 58 69  2  0
 59 57  1  0
 59 64  1  0
 60 68  1  0
 60 70  1  0
 61 63  1  0
 62 68  1  0
 63 64  2  0
 63 62  1  0
 65 59  2  0
 66 65  1  0
 66 61  2  0
 67 61  1  0
 67 60  1  0
 68 58  1  0
 70 72  2  0
 71 70  1  0
 73 71  1  0
 74 83  2  0
 74 79  1  0
 75 71  1  0
 75 79  1  0
 76 75  1  0
 77 78  1  0
 77 76  1  0
 78 74  1  0
 79 80  2  0
 80 81  1  0
 82 81  2  0
 83 82  1  0
 84 58  1  0
 84 85  1  0
 84 94  1  0
 85 88  1  0
 86 90  1  0
 86 85  1  0
 87 86  2  0
 90 89  1  0
 92 93  1  0
 92 90  1  0
 92 91  1  0
 94 97  1  1
 94 95  1  0
 96 94  1  0
M  ISO  4  13 100  21 100  56 101  57 101
M  END
>  <TORSDO>  (78) 
F 22

>  <SCORE>  (78) 
-9.253

>  <name>  (78) 
78

>  <ligand_id>  (78) 
78

>  <original_smiles>  (78) 
[H]c1c([H])c([H])c2c(c1[H])C([H])([H])C([H])([H])C([H])([H])C2([H])N([H])C(=O)C1([H])N(C(=O)C([H])(N([H])C(=O)C([H])(N([H])C([H])([H])[H])C([H])([H])[H])C(C([H])([H])[H])(C([H])([H])[H])C([H])([H])[H])C([H])([H])c2c([H])c(OC([H])([H])C([H])([H])C([H])([H])C([H])([H])C([H])([H])C([H])([H])C3([H])C([H])([H])C4([H])C([H])([H])C([H])([H])C(=O)C([H])(N([H])C(=O)N5C([H])([H])C([H])([H])C([H])([H])C([H])(n6nc(-c7c([H])c([H])c(Oc8c([H])c([H])c(F)c([H])c8F)c([H])c7[H])c(C(=O)N([H])[H])c6N([H])[H])C5([H])[H])C4([H])[N+]3([H])[H])c([H])c([H])c2C1([H])[H]

>  <smiles>  (78) 
[H]c1c([H])c([H])c2c(c1[H])C([H])([H])C([H])([H])C([H])([H])C2([H])N([H])C(=O)C1([H])N(C(=O)C([H])(N([H])C(=O)C([H])(N([H])C([H])([H])[H])C([H])([H])[H])C(C([H])([H])[H])(C([H])([H])[H])C([H])([H])[H])C([H])([H])c2c([H])c(OC([H])([H])C([H])([H])C([H])([H])C([H])([H])C([H])([H])C([H])([H])C3([H])C([H])([H])C4([H])C([H])([H])C([H])([H])C(=O)C([H])(N([H])C(=O)N5C([H])([H])C([H])([H])C([H])([H])C([H])(n6nc(-c7c([H])c([H])c(Oc8c([H])c([H])c(F)c([H])c8F)c([H])c7[H])c(C(=O)N([H])[H])c6N([H])[H])C5([H])[H])C4([H])[N+]3([H])[H])c([H])c([H])c2C1([H])[H]

$$$$
79:0:0
     RDKit          3D

 95102  0  0  1  0  0  0  0  0999 V2000
  -28.9570  -21.8230   21.5180 N   0  0  0  0  0  4  0  0  0  0  0  0
  -28.8740  -22.3190   22.3910 H   0  0  0  0  0  0  0  0  0  0  0  0
  -28.3970  -20.9870   21.5810 H   0  0  0  0  0  0  0  0  0  0  0  0
  -30.3770  -21.4480   21.3350 C   0  0  0  0  0  2  0  0  0  0  0  0
  -30.9680  -20.7590   22.5870 C   0  0  0  0  0  2  0  0  0  0  0  0
  -32.4820  -20.5450   22.5430 C   0  0  0  0  0  0  0  0  0  0  0  0
  -33.2010  -20.7310   23.5670 N   0  0  0  0  0  0  0  0  0  0  0  0
  -34.1820  -20.5540   23.3750 H   0  0  0  0  0  0  0  0  0  0  0  0
  -33.1000  -20.1070   21.2260 C   0  0  0  0  0  2  0  0  0  0  0  0
  -34.0030  -21.2010   20.6230 C   0  0  0  0  0  2  0  0  0  0  0  0
  -35.0300  -20.6380   19.6360 C   0  0  0  0  0  2  0  0  0  0  0  0
  -36.4590  -21.1320   19.9180 C   0  0  0  0  0  2  0  0  0  0  0  0
  -38.0210  -19.2910   20.5340 C   0  0  0  0  0  0  0  0  0  0  0  0
  -37.9360  -16.9940   21.4040 C   0  0  0  0  0  2  0  0  0  0  0  0
  -37.7650  -16.0130   20.2270 C   0  0  0  0  0  2  0  0  0  0  0  0
  -36.2770  -15.8340   19.8600 C   0  0  0  0  0  2  0  0  0  0  0  0
  -35.5180  -17.1840   19.7360 C   0  0  0  0  0  3  0  0  0  0  0  0
  -35.8280  -18.0880   20.9500 C   0  0  0  0  0  2  0  0  0  0  0  0
  -37.2880  -18.2580   21.0260 N   0  0  0  0  0  0  0  0  0  0  0  0
  -39.2480  -19.3530   20.6250 O   0  0  0  0  0  0  0  0  0  0  0  0
  -37.4240  -20.0760   19.6320 N   0  0  0  0  0  0  0  0  0  0  0  0
  -38.1060  -20.3940   18.9590 H   0  0  0  0  0  0  0  0  0  0  0  0
  -33.1310  -17.8060   18.9850 C   0  0  0  0  0  0  0  0  0  0  0  0
  -31.9520  -17.1100   19.0160 C   0  0  0  0  0  0  0  0  0  0  0  0
  -32.2550  -15.8500   19.6160 C   0  0  0  0  0  0  0  0  0  0  0  0
  -34.0800  -16.9760   19.5640 N   0  0  0  0  0  0  0  0  0  0  0  0
  -33.5270  -15.8100   19.9890 N   0  0  0  0  0  0  0  0  0  0  0  0
  -31.4190  -14.6570   19.8070 C   0  0  0  0  0  0  0  0  0  0  0  0
  -30.6850  -14.4530   20.9970 C   0  0  0  0  0  3  0  0  0  0  0  0
  -29.8750  -13.3080   21.1510 C   0  0  0  0  0  3  0  0  0  0  0  0
  -29.7870  -12.3550   20.1080 C   0  0  0  0  0  0  0  0  0  0  0  0
  -30.5370  -12.5520   18.9340 C   0  0  0  0  0  3  0  0  0  0  0  0
  -31.3470  -13.6890   18.7850 C   0  0  0  0  0  3  0  0  0  0  0  0
  -29.0470  -11.1990   20.1780 O   0  0  0  0  0  0  0  0  0  0  0  0
  -27.6970  -11.2240   20.4250 C   0  0  0  0  0  0  0  0  0  0  0  0
  -26.7890  -11.8430   19.5360 C   0  0  0  0  0  3  0  0  0  0  0  0
  -25.4050  -11.7850   19.7930 C   0  0  0  0  0  3  0  0  0  0  0  0
  -24.9270  -11.1030   20.9270 C   0  0  0  0  0  0  0  0  0  0  0  0
  -25.8290  -10.4830   21.8110 C   0  0  0  0  0  3  0  0  0  0  0  0
  -27.2110  -10.5420   21.5560 C   0  0  0  0  0  0  0  0  0  0  0  0
  -28.0750   -9.9240   22.3980 F   0  0  0  0  0  0  0  0  0  0  0  0
  -23.5970  -11.0400   21.1710 F   0  0  0  0  0  0  0  0  0  0  0  0
  -30.6390  -17.5480   18.4330 C   0  0  0  0  0  0  0  0  0  0  0  0
  -29.5310  -17.1540   19.0500 N   0  0  0  0  0  0  0  0  0  0  0  0
  -30.5900  -18.2870   17.4500 O   0  0  0  0  0  0  0  0  0  0  0  0
  -29.5670  -16.5650   19.8680 H   0  0  0  0  0  0  0  0  0  0  0  0
  -28.6310  -17.4460   18.6960 H   0  0  0  0  0  0  0  0  0  0  0  0
  -33.4760  -19.0620   18.4930 N   0  0  0  0  0  0  0  0  0  0  0  0
  -32.8070  -19.6570   18.0200 H   0  0  0  0  0  0  0  0  0  0  0  0
  -34.4130  -19.4420   18.5020 H   0  0  0  0  0  0  0  0  0  0  0  0
  -28.4090  -22.6630   20.4300 C   0  0  0  0  0  2  0  0  0  0  0  0
  -27.7050  -23.9220   20.9680 C   0  0  0  0  0  2  0  0  0  0  0  0
  -27.7390  -25.0900   19.9670 C   0  0  0  0  0  2  0  0  0  0  0  0
  -28.0160  -26.4480   20.6340 C   0  0  0  0  0  2  0  0  0  0  0  0
  -27.8280  -27.5050   19.6940 O   0  0  0  0  0  0  0  0  0  0  0  0
  -24.7430  -32.2430   23.9890 C   0  0  0  0  0  0  0  0  0  0  0  0
  -26.7180  -28.2640   19.9620 C   0  0  0  0  0  0  0  0  0  0  0  0
  -23.2520  -31.1380   22.3520 C   0  0  0  0  0  3  0  0  0  0  0  0
  -24.4190  -29.7880   20.5270 C   0  0  0  0  0  0  0  0  0  0  0  0
  -25.7380  -31.4570   21.8470 C   0  0  0  0  0  2  0  0  0  0  0  0
  -25.6670  -30.1940   21.0170 C   0  0  0  0  0  0  0  0  0  0  0  0
  -26.8210  -29.4360   20.7380 C   0  0  0  0  0  3  0  0  0  0  0  0
  -25.4620  -27.8660   19.4620 C   0  0  0  0  0  3  0  0  0  0  0  0
  -24.3080  -28.6210   19.7490 C   0  0  0  0  0  3  0  0  0  0  0  0
  -23.2350  -30.6620   20.8730 C   0  0  0  0  0  2  0  0  0  0  0  0
  -24.6050  -31.6170   22.7870 N   0  0  0  0  0  0  0  0  0  0  0  0
  -23.7620  -32.4640   24.7130 O   0  0  0  0  0  0  0  0  0  0  0  0
  -22.6890  -30.0050   23.2390 C   0  0  0  0  0  0  0  0  0  0  0  0
  -21.4340  -29.6060   22.9730 N   0  0  0  0  0  0  0  0  0  0  0  0
  -23.3810  -29.4880   24.1200 O   0  0  0  0  0  0  0  0  0  0  0  0
  -20.9320  -30.0850   22.2390 H   0  0  0  0  0  0  0  0  0  0  0  0
  -18.4390  -27.5920   22.8590 C   0  0  0  0  0  0  0  0  0  0  0  0
  -20.7120  -28.5330   23.6520 C   0  0  0  0  0  3  0  0  0  0  0  0
  -21.2980  -27.1500   23.2850 C   0  0  0  0  0  2  0  0  0  0  0  0
  -20.5870  -26.4890   22.1010 C   0  0  0  0  0  2  0  0  0  0  0  0
  -19.0980  -26.3010   22.4040 C   0  0  0  0  0  2  0  0  0  0  0  0
  -19.1990  -28.6460   23.4300 C   0  0  0  0  0  0  0  0  0  0  0  0
  -18.5440  -29.8390   23.8030 C   0  0  0  0  0  3  0  0  0  0  0  0
  -17.1570  -29.9870   23.6170 C   0  0  0  0  0  3  0  0  0  0  0  0
  -16.4060  -28.9340   23.0660 C   0  0  0  0  0  3  0  0  0  0  0  0
  -17.0460  -27.7400   22.6920 C   0  0  0  0  0  3  0  0  0  0  0  0
  -26.1330  -32.7340   24.5020 C   0  0  0  0  0  3  0  0  0  0  0  0
  -26.0440  -34.1870   24.7000 N   0  0  0  0  0  0  0  0  0  0  0  0
  -26.4960  -35.1010   23.8310 C   0  0  0  0  0  0  0  0  0  0  0  0
  -27.1040  -34.8020   22.7990 O   0  0  0  0  0  0  0  0  0  0  0  0
  -25.5120  -34.5030   25.4970 H   0  0  0  0  0  0  0  0  0  0  0  0
  -25.0210  -37.0810   23.3510 C   0  0  0  0  0  1  0  0  0  0  0  0
  -26.2310  -36.5820   24.1570 C   0  0  0  0  0  3  0  0  0  0  0  0
  -28.5010  -37.2350   24.8280 C   0  0  0  0  0  1  0  0  0  0  0  0
  -27.3950  -37.4590   23.9020 N   0  0  0  0  0  0  0  0  0  0  0  0
  -27.1270  -38.4380   23.9580 H   0  0  0  0  0  0  0  0  0  0  0  0
  -26.5960  -32.0160   25.8290 C   0  0  1  0  0  0  0  0  0  0  0  0
  -25.5080  -31.9730   26.9250 C   0  0  0  0  0  1  0  0  0  0  0  0
  -27.0310  -30.5610   25.5380 C   0  0  0  0  0  1  0  0  0  0  0  0
  -27.8340  -32.7380   26.4120 C   0  0  0  0  0  1  0  0  0  0  0  0
  1  3  1  0
  1  2  1  0
  4  1  1  0
  4  5  1  0
  6  5  1  0
  6  7  2  0
  8  7  1  0
  9  6  1  0
 10  9  1  0
 11 12  1  0
 11 10  1  0
 13 20  2  0
 13 19  1  0
 15 14  1  0
 16 15  1  0
 17 26  1  0
 17 16  1  0
 17 18  1  0
 18 19  1  0
 19 14  1  0
 21 12  1  0
 21 13  1  0
 22 21  1  0
 23 24  2  0
 23 26  1  0
 24 25  1  0
 25 28  1  0
 25 27  2  0
 26 27  1  0
 28 29  1  0
 29 30  2  0
 31 34  1  0
 31 30  1  0
 32 31  2  0
 33 32  1  0
 33 28  2  0
 34 35  1  0
 35 40  1  0
 36 37  1  0
 36 35  2  0
 37 38  2  0
 38 42  1  0
 38 39  1  0
 40 39  2  0
 40 41  1  0
 43 24  1  0
 43 44  1  0
 44 46  1  0
 45 43  2  0
 47 44  1  0
 48 50  1  0
 48 23  1  0
 49 48  1  0
 51 52  1  0
 51  1  1  0
 53 54  1  0
 53 52  1  0
 55 57  1  0
 55 54  1  0
 56 67  2  0
 57 62  1  0
 58 66  1  0
 58 68  1  0
 59 65  1  0
 59 61  1  0
 60 66  1  0
 61 60  1  0
 62 61  2  0
 63 64  1  0
 63 57  2  0
 64 59  2  0
 65 58  1  0
 66 56  1  0
 68 70  2  0
 69 68  1  0
 71 69  1  0
 72 77  1  0
 73 69  1  0
 74 73  1  0
 75 76  1  0
 75 74  1  0
 76 72  1  0
 77 73  1  0
 77 78  2  0
 79 78  1  0
 80 79  2  0
 81 72  2  0
 81 80  1  0
 82 56  1  0
 82 83  1  0
 82 92  1  0
 83 86  1  0
 84 88  1  0
 84 83  1  0
 85 84  2  0
 88 87  1  0
 90 91  1  0
 90 88  1  0
 90 89  1  0
 92 95  1  1
 92 93  1  0
 94 92  1  0
M  ISO  4  13 100  21 100  54 101  55 101
M  END
>  <TORSDO>  (79) 
F 27

>  <SCORE>  (79) 
-5.646

>  <name>  (79) 
79

>  <ligand_id>  (79) 
79

>  <original_smiles>  (79) 
[H]N=C(C([H])([H])C([H])([H])C([H])([H])C([H])([H])N([H])C(=O)N1C([H])([H])C([H])([H])C([H])([H])C([H])(n2nc(-c3c([H])c([H])c(Oc4c([H])c([H])c(F)c([H])c4F)c([H])c3[H])c(C(=O)N([H])[H])c2N([H])[H])C1([H])[H])C([H])([H])C([H])([H])[N+]([H])([H])C([H])([H])C([H])([H])C([H])([H])C([H])([H])Oc1c([H])c([H])c2c(c1[H])C([H])([H])N(C(=O)C([H])(N([H])C(=O)C([H])(N([H])C([H])([H])[H])C([H])([H])[H])C(C([H])([H])[H])(C([H])([H])[H])C([H])([H])[H])C([H])(C(=O)N([H])C1([H])c3c([H])c([H])c([H])c([H])c3C([H])([H])C([H])([H])C1([H])[H])C2([H])[H]

>  <smiles>  (79) 
[H]N=C(C([H])([H])C([H])([H])C([H])([H])C([H])([H])N([H])C(=O)N1C([H])([H])C([H])([H])C([H])([H])C([H])(n2nc(-c3c([H])c([H])c(Oc4c([H])c([H])c(F)c([H])c4F)c([H])c3[H])c(C(=O)N([H])[H])c2N([H])[H])C1([H])[H])C([H])([H])C([H])([H])[N+]([H])([H])C([H])([H])C([H])([H])C([H])([H])C([H])([H])Oc1c([H])c([H])c2c(c1[H])C([H])([H])N(C(=O)C([H])(N([H])C(=O)C([H])(N([H])C([H])([H])[H])C([H])([H])[H])C(C([H])([H])[H])(C([H])([H])[H])C([H])([H])[H])C([H])(C(=O)N([H])C1([H])c3c([H])c([H])c([H])c([H])c3C([H])([H])C([H])([H])C1([H])[H])C2([H])[H]

$$$$
80:0:0
     RDKit          3D

 94103  0  0  1  0  0  0  0  0999 V2000
  -29.3900  -21.9290   16.0090 C   0  0  0  0  0  2  0  0  0  0  0  0
  -28.1760  -22.8300   16.2370 C   0  0  0  0  0  2  0  0  0  0  0  0
  -30.1650  -21.8720   17.3310 C   0  0  0  0  0  2  0  0  0  0  0  0
  -28.3920  -23.4710   17.6010 C   0  0  0  0  0  2  0  0  0  0  0  0
  -28.3930  -21.4170   19.1660 C   0  0  0  0  0  2  0  0  0  0  0  0
  -30.0900  -23.1870   19.5020 C   0  0  0  0  0  2  0  0  0  0  0  0
  -28.9110  -21.3080   20.6160 C   0  0  0  0  0  3  0  0  0  0  0  0
  -29.2770  -23.0490   20.7760 C   0  0  0  0  0  3  0  0  0  0  0  0
  -29.2590  -22.4790   18.4130 C   0  0  1  0  0  0  0  0  0  0  0  0
  -29.8790  -19.7810   20.7480 C   0  0  0  0  0  2  0  0  0  0  0  0
  -30.6350  -15.4480   20.5890 C   0  0  0  0  0  0  0  0  0  0  0  0
  -30.7420  -13.0390   19.5920 C   0  0  0  0  0  2  0  0  0  0  0  0
  -29.8560  -12.9620   18.3220 C   0  0  0  0  0  2  0  0  0  0  0  0
  -28.3770  -12.6970   18.6730 C   0  0  0  0  0  2  0  0  0  0  0  0
  -27.9110  -13.5120   19.9050 C   0  0  0  0  0  3  0  0  0  0  0  0
  -28.9380  -13.5250   21.0540 C   0  0  0  0  0  2  0  0  0  0  0  0
  -30.1700  -14.1020   20.4930 N   0  0  0  0  0  0  0  0  0  0  0  0
  -31.8530  -15.5850   20.3780 O   0  0  0  0  0  0  0  0  0  0  0  0
  -29.2580  -18.1790   20.7480 C   0  0  0  0  0  0  0  0  0  0  0  0
  -29.6000  -16.7040   20.7160 N   0  0  0  0  0  0  0  0  0  0  0  0
  -27.9180  -18.3440   20.8030 N   0  0  0  0  0  4  0  0  0  0  0  0
  -28.6870  -16.3060   20.7950 H   0  0  0  0  0  0  0  0  0  0  0  0
  -27.5480  -19.2780   20.6850 H   0  0  0  0  0  0  0  0  0  0  0  0
  -27.2330  -17.6300   21.0130 H   0  0  0  0  0  0  0  0  0  0  0  0
  -25.5130  -14.0120   20.5940 C   0  0  0  0  0  0  0  0  0  0  0  0
  -24.4560  -13.2090   20.9320 C   0  0  0  0  0  0  0  0  0  0  0  0
  -24.9480  -11.8700   20.8840 C   0  0  0  0  0  0  0  0  0  0  0  0
  -26.5730  -13.1600   20.3540 N   0  0  0  0  0  0  0  0  0  0  0  0
  -26.2480  -11.8650   20.6000 N   0  0  0  0  0  0  0  0  0  0  0  0
  -24.2410  -10.5900   21.0290 C   0  0  0  0  0  0  0  0  0  0  0  0
  -24.6090   -9.6470   22.0130 C   0  0  0  0  0  3  0  0  0  0  0  0
  -23.8980   -8.4340   22.1480 C   0  0  0  0  0  3  0  0  0  0  0  0
  -22.8010   -8.1570   21.2990 C   0  0  0  0  0  0  0  0  0  0  0  0
  -22.4520   -9.0870   20.3050 C   0  0  0  0  0  3  0  0  0  0  0  0
  -23.1660  -10.2920   20.1700 C   0  0  0  0  0  3  0  0  0  0  0  0
  -22.0740   -6.9910   21.3370 O   0  0  0  0  0  0  0  0  0  0  0  0
  -21.8750   -6.3050   22.5130 C   0  0  0  0  0  0  0  0  0  0  0  0
  -21.1840   -6.8720   23.6040 C   0  0  0  0  0  3  0  0  0  0  0  0
  -20.9420   -6.1070   24.7590 C   0  0  0  0  0  3  0  0  0  0  0  0
  -21.3890   -4.7740   24.8300 C   0  0  0  0  0  0  0  0  0  0  0  0
  -22.0780   -4.2080   23.7450 C   0  0  0  0  0  3  0  0  0  0  0  0
  -22.3200   -4.9720   22.5900 C   0  0  0  0  0  0  0  0  0  0  0  0
  -22.9630   -4.4120   21.5370 F   0  0  0  0  0  0  0  0  0  0  0  0
  -21.1560   -4.0380   25.9400 F   0  0  0  0  0  0  0  0  0  0  0  0
  -23.0440  -13.6590   21.1600 C   0  0  0  0  0  0  0  0  0  0  0  0
  -22.3010  -12.9450   21.9960 N   0  0  0  0  0  0  0  0  0  0  0  0
  -22.6090  -14.6800   20.6290 O   0  0  0  0  0  0  0  0  0  0  0  0
  -22.6600  -12.1150   22.4440 H   0  0  0  0  0  0  0  0  0  0  0  0
  -21.3490  -13.2260   22.1860 H   0  0  0  0  0  0  0  0  0  0  0  0
  -25.6550  -15.3850   20.4150 N   0  0  0  0  0  0  0  0  0  0  0  0
  -24.7700  -15.8760   20.5040 H   0  0  0  0  0  0  0  0  0  0  0  0
  -26.0600  -15.5820   19.5080 H   0  0  0  0  0  0  0  0  0  0  0  0
  -28.2420  -24.5110   20.8030 C   0  0  0  0  0  2  0  0  0  0  0  0
  -28.5170  -26.1160   20.7230 O   0  0  0  0  0  0  0  0  0  0  0  0
  -24.8250  -32.0230   23.5140 C   0  0  0  0  0  0  0  0  0  0  0  0
  -27.4960  -27.1840   20.6110 C   0  0  0  0  0  0  0  0  0  0  0  0
  -23.6980  -30.6390   21.8210 C   0  0  0  0  0  3  0  0  0  0  0  0
  -25.2030  -29.0410   20.4580 C   0  0  0  0  0  0  0  0  0  0  0  0
  -26.2710  -30.8500   21.7880 C   0  0  0  0  0  2  0  0  0  0  0  0
  -26.3630  -29.4490   21.1300 C   0  0  0  0  0  0  0  0  0  0  0  0
  -27.5090  -28.5440   21.1760 C   0  0  0  0  0  3  0  0  0  0  0  0
  -26.3100  -26.9140   19.8920 C   0  0  0  0  0  3  0  0  0  0  0  0
  -25.2000  -27.7940   19.8170 C   0  0  0  0  0  3  0  0  0  0  0  0
  -23.9820  -29.9590   20.4540 C   0  0  0  0  0  2  0  0  0  0  0  0
  -24.9490  -31.1980   22.4280 N   0  0  0  0  0  0  0  0  0  0  0  0
  -23.7150  -32.3190   23.9860 O   0  0  0  0  0  0  0  0  0  0  0  0
  -22.9640  -29.6390   22.7530 C   0  0  0  0  0  0  0  0  0  0  0  0
  -21.6440  -29.4660   22.5570 N   0  0  0  0  0  0  0  0  0  0  0  0
  -23.5880  -29.0170   23.6160 O   0  0  0  0  0  0  0  0  0  0  0  0
  -21.2000  -30.0110   21.8310 H   0  0  0  0  0  0  0  0  0  0  0  0
  -18.2310  -28.2950   22.9220 C   0  0  0  0  0  0  0  0  0  0  0  0
  -20.7810  -28.5330   23.2880 C   0  0  0  0  0  3  0  0  0  0  0  0
  -20.8930  -27.1070   22.7040 C   0  0  0  0  0  2  0  0  0  0  0  0
  -19.8290  -26.8040   21.6450 C   0  0  0  0  0  2  0  0  0  0  0  0
  -18.4230  -26.9530   22.2340 C   0  0  0  0  0  2  0  0  0  0  0  0
  -19.3380  -29.0430   23.4030 C   0  0  0  0  0  0  0  0  0  0  0  0
  -19.1050  -30.2970   24.0090 C   0  0  0  0  0  3  0  0  0  0  0  0
  -17.7990  -30.8030   24.1390 C   0  0  0  0  0  3  0  0  0  0  0  0
  -16.7070  -30.0520   23.6750 C   0  0  0  0  0  3  0  0  0  0  0  0
  -16.9220  -28.7980   23.0750 C   0  0  0  0  0  3  0  0  0  0  0  0
  -26.0690  -32.6590   24.2070 C   0  0  0  0  0  3  0  0  0  0  0  0
  -25.7680  -34.0760   24.4710 N   0  0  0  0  0  0  0  0  0  0  0  0
  -26.1120  -35.0960   23.6730 C   0  0  0  0  0  0  0  0  0  0  0  0
  -26.7820  -34.9420   22.6480 O   0  0  0  0  0  0  0  0  0  0  0  0
  -25.1760  -34.2700   25.2650 H   0  0  0  0  0  0  0  0  0  0  0  0
  -24.3700  -36.8690   23.2940 C   0  0  0  0  0  1  0  0  0  0  0  0
  -25.6430  -36.5100   24.0760 C   0  0  0  0  0  3  0  0  0  0  0  0
  -27.7970  -37.4470   24.7900 C   0  0  0  0  0  1  0  0  0  0  0  0
  -26.6710  -37.5540   23.8650 N   0  0  0  0  0  0  0  0  0  0  0  0
  -26.2690  -38.4830   23.9640 H   0  0  0  0  0  0  0  0  0  0  0  0
  -26.4680  -31.9290   25.5470 C   0  0  1  0  0  0  0  0  0  0  0  0
  -25.2850  -31.7420   26.5280 C   0  0  0  0  0  1  0  0  0  0  0  0
  -27.0580  -30.5300   25.2600 C   0  0  0  0  0  1  0  0  0  0  0  0
  -27.5780  -32.7320   26.2650 C   0  0  0  0  0  1  0  0  0  0  0  0
  1  2  1  0
  1  3  1  0
  2  4  1  0
  9  3  1  6
  4  9  1  0
  5  7  1  0
  6  8  1  0
  7 10  1  0
  7  8  1  0
  8 53  1  0
  9  5  1  0
  9  6  1  0
 10 19  1  0
 11 20  1  0
 12 17  1  0
 13 14  1  0
 13 12  1  0
 15 14  1  0
 15 28  1  0
 15 16  1  0
 17 11  1  0
 17 16  1  0
 18 11  2  0
 19 21  2  0
 20 19  1  0
 20 22  1  0
 21 24  1  0
 23 21  1  0
 25 26  2  0
 26 45  1  0
 27 26  1  0
 27 30  1  0
 28 25  1  0
 28 29  1  0
 29 27  2  0
 30 31  1  0
 31 32  2  0
 33 36  1  0
 33 32  1  0
 34 33  2  0
 35 34  1  0
 35 30  2  0
 36 37  1  0
 37 42  2  0
 37 38  1  0
 38 39  2  0
 39 40  1  0
 40 44  1  0
 41 40  2  0
 42 41  1  0
 43 42  1  0
 45 46  1  0
 46 49  1  0
 46 48  1  0
 47 45  2  0
 50 51  1  0
 50 25  1  0
 52 50  1  0
 54 53  1  0
 55 66  2  0
 56 54  1  0
 56 61  1  0
 57 65  1  0
 57 67  1  0
 58 60  1  0
 59 65  1  0
 60 61  2  0
 60 59  1  0
 62 56  2  0
 63 62  1  0
 63 58  2  0
 64 58  1  0
 64 57  1  0
 65 55  1  0
 67 69  2  0
 68 67  1  0
 70 68  1  0
 71 80  2  0
 71 76  1  0
 72 68  1  0
 72 76  1  0
 73 72  1  0
 74 75  1  0
 74 73  1  0
 75 71  1  0
 76 77  2  0
 77 78  1  0
 79 78  2  0
 80 79  1  0
 81 55  1  0
 81 82  1  0
 81 91  1  0
 82 85  1  0
 83 87  1  0
 83 82  1  0
 84 83  2  0
 87 86  1  0
 89 90  1  0
 89 87  1  0
 89 88  1  0
 91 94  1  1
 91 92  1  0
 93 91  1  0
M  ISO  4  11 100  20 100  53 101  54 101
M  END
>  <TORSDO>  (80) 
F 18

>  <SCORE>  (80) 
-14.154

>  <name>  (80) 
80

>  <ligand_id>  (80) 
80

>  <original_smiles>  (80) 
[H]c1c([H])c([H])c2c(c1[H])C([H])([H])C([H])([H])C([H])([H])C2([H])N([H])C(=O)C1([H])N(C(=O)C([H])(N([H])C(=O)C([H])(N([H])C([H])([H])[H])C([H])([H])[H])C(C([H])([H])[H])(C([H])([H])[H])C([H])([H])[H])C([H])([H])c2c([H])c(OC([H])([H])C3([H])C([H])([H])C4(C([H])([H])C([H])([H])C([H])([H])C4([H])[H])C([H])([H])C3([H])C([H])([H])C(N([H])C(=O)N3C([H])([H])C([H])([H])C([H])([H])C([H])(n4nc(-c5c([H])c([H])c(Oc6c([H])c([H])c(F)c([H])c6F)c([H])c5[H])c(C(=O)N([H])[H])c4N([H])[H])C3([H])[H])=[N+]([H])[H])c([H])c([H])c2C1([H])[H]

>  <smiles>  (80) 
[H]c1c([H])c([H])c2c(c1[H])C([H])([H])C([H])([H])C([H])([H])C2([H])N([H])C(=O)C1([H])N(C(=O)C([H])(N([H])C(=O)C([H])(N([H])C([H])([H])[H])C([H])([H])[H])C(C([H])([H])[H])(C([H])([H])[H])C([H])([H])[H])C([H])([H])c2c([H])c(OC([H])([H])C3([H])C([H])([H])C4(C([H])([H])C([H])([H])C([H])([H])C4([H])[H])C([H])([H])C3([H])C([H])([H])C(N([H])C(=O)N3C([H])([H])C([H])([H])C([H])([H])C([H])(n4nc(-c5c([H])c([H])c(Oc6c([H])c([H])c(F)c([H])c6F)c([H])c5[H])c(C(=O)N([H])[H])c4N([H])[H])C3([H])[H])=[N+]([H])[H])c([H])c([H])c2C1([H])[H]

$$$$
81:0:0
     RDKit          3D

 88 97  0  0  1  0  0  0  0  0999 V2000
  -30.4360  -15.4420   20.3380 C   0  0  0  0  0  0  0  0  0  0  0  0
  -30.4040  -12.9410   19.5380 C   0  0  0  0  0  2  0  0  0  0  0  0
  -29.5360  -12.6140   18.2970 C   0  0  0  0  0  2  0  0  0  0  0  0
  -28.0840  -12.3330   18.7110 C   0  0  0  0  0  2  0  0  0  0  0  0
  -27.5830  -13.3490   19.7670 C   0  0  0  0  0  3  0  0  0  0  0  0
  -28.5960  -13.6160   20.9050 C   0  0  0  0  0  2  0  0  0  0  0  0
  -29.8140  -14.1430   20.2630 N   0  0  0  0  0  0  0  0  0  0  0  0
  -31.6620  -15.3150   20.1750 O   0  0  0  0  0  0  0  0  0  0  0  0
  -28.5470  -18.7900   18.7470 C   0  0  0  0  0  2  0  0  0  0  0  0
  -29.6700  -19.4110   19.1260 C   0  0  0  0  0  3  0  0  0  0  0  0
  -30.5550  -18.2020   19.8300 C   0  0  0  0  0  2  0  0  0  0  0  0
  -28.6520  -17.6640   20.8760 C   0  0  0  0  0  2  0  0  0  0  0  0
  -28.0670  -19.1240   20.1690 C   0  0  0  0  0  3  0  0  0  0  0  0
  -28.6200  -20.6500   19.6300 C   0  0  2  0  0  0  0  0  0  0  0  0
  -29.8420  -16.8510   20.2470 N   0  0  0  0  0  0  0  0  0  0  0  0
  -25.2070  -13.9090   20.4690 C   0  0  0  0  0  0  0  0  0  0  0  0
  -24.1360  -13.1410   20.8240 C   0  0  0  0  0  0  0  0  0  0  0  0
  -24.6000  -11.7890   20.8280 C   0  0  0  0  0  0  0  0  0  0  0  0
  -26.2520  -13.0310   20.2630 N   0  0  0  0  0  0  0  0  0  0  0  0
  -25.9010  -11.7500   20.5490 N   0  0  0  0  0  0  0  0  0  0  0  0
  -23.8620  -10.5340   21.0190 C   0  0  0  0  0  0  0  0  0  0  0  0
  -24.2760   -9.5690   21.9630 C   0  0  0  0  0  3  0  0  0  0  0  0
  -23.5350   -8.3800   22.1450 C   0  0  0  0  0  3  0  0  0  0  0  0
  -22.3670   -8.1480   21.3820 C   0  0  0  0  0  0  0  0  0  0  0  0
  -21.9710   -9.1000   20.4260 C   0  0  0  0  0  3  0  0  0  0  0  0
  -22.7130  -10.2800   20.2430 C   0  0  0  0  0  3  0  0  0  0  0  0
  -21.6000   -7.0120   21.4710 O   0  0  0  0  0  0  0  0  0  0  0  0
  -21.5440   -6.2700   22.6240 C   0  0  0  0  0  0  0  0  0  0  0  0
  -21.1470   -6.8340   23.8550 C   0  0  0  0  0  3  0  0  0  0  0  0
  -21.0360   -6.0200   24.9990 C   0  0  0  0  0  3  0  0  0  0  0  0
  -21.3150   -4.6430   24.9140 C   0  0  0  0  0  0  0  0  0  0  0  0
  -21.7060   -4.0780   23.6880 C   0  0  0  0  0  3  0  0  0  0  0  0
  -21.8190   -4.8890   22.5460 C   0  0  0  0  0  0  0  0  0  0  0  0
  -22.1740   -4.3370   21.3610 F   0  0  0  0  0  0  0  0  0  0  0  0
  -21.2030   -3.8570   26.0110 F   0  0  0  0  0  0  0  0  0  0  0  0
  -22.7340  -13.6260   21.0450 C   0  0  0  0  0  0  0  0  0  0  0  0
  -21.9830  -12.9600   21.9120 N   0  0  0  0  0  0  0  0  0  0  0  0
  -22.3130  -14.6360   20.4830 O   0  0  0  0  0  0  0  0  0  0  0  0
  -22.3340  -12.1430   22.3910 H   0  0  0  0  0  0  0  0  0  0  0  0
  -21.0390  -13.2670   22.0990 H   0  0  0  0  0  0  0  0  0  0  0  0
  -25.3770  -15.2770   20.2700 N   0  0  0  0  0  0  0  0  0  0  0  0
  -24.6050  -15.9300   20.3440 H   0  0  0  0  0  0  0  0  0  0  0  0
  -26.2230  -15.6940   19.9060 H   0  0  0  0  0  0  0  0  0  0  0  0
  -28.4880  -21.7180   17.2190 C   0  0  0  0  0  1  0  0  0  0  0  0
  -27.7120  -21.1980   18.4430 C   0  0  0  0  0  2  0  0  0  0  0  0
  -28.9010  -22.3950   20.2420 C   0  0  0  0  0  3  0  0  0  0  0  0
  -28.0620  -24.0450   19.8850 C   0  0  0  0  0  3  0  0  0  0  0  0
  -28.2490  -25.7080   20.1680 O   0  0  0  0  0  0  0  0  0  0  0  0
  -24.7080  -31.8090   23.1040 C   0  0  0  0  0  0  0  0  0  0  0  0
  -27.2600  -26.8570   20.0890 C   0  0  0  0  0  0  0  0  0  0  0  0
  -23.5210  -30.4090   21.4660 C   0  0  0  0  0  3  0  0  0  0  0  0
  -24.9710  -28.7940   20.0420 C   0  0  0  0  0  0  0  0  0  0  0  0
  -26.0910  -30.5990   21.3290 C   0  0  0  0  0  2  0  0  0  0  0  0
  -26.1600  -29.1800   20.6710 C   0  0  0  0  0  0  0  0  0  0  0  0
  -27.2950  -28.2350   20.6670 C   0  0  0  0  0  3  0  0  0  0  0  0
  -26.0410  -26.6480   19.4030 C   0  0  0  0  0  3  0  0  0  0  0  0
  -24.9420  -27.5530   19.3840 C   0  0  0  0  0  3  0  0  0  0  0  0
  -23.7540  -29.7240   20.0900 C   0  0  0  0  0  2  0  0  0  0  0  0
  -24.7960  -30.9690   22.0200 N   0  0  0  0  0  0  0  0  0  0  0  0
  -23.6170  -32.1000   23.6210 O   0  0  0  0  0  0  0  0  0  0  0  0
  -22.8220  -29.4190   22.4360 C   0  0  0  0  0  0  0  0  0  0  0  0
  -21.4860  -29.2770   22.3310 N   0  0  0  0  0  0  0  0  0  0  0  0
  -23.4880  -28.7780   23.2520 O   0  0  0  0  0  0  0  0  0  0  0  0
  -20.9990  -29.8420   21.6490 H   0  0  0  0  0  0  0  0  0  0  0  0
  -18.0940  -28.1050   22.8910 C   0  0  0  0  0  0  0  0  0  0  0  0
  -20.6630  -28.3400   23.1070 C   0  0  0  0  0  3  0  0  0  0  0  0
  -20.7360  -26.9150   22.5120 C   0  0  0  0  0  2  0  0  0  0  0  0
  -19.6110  -26.6180   21.5160 C   0  0  0  0  0  2  0  0  0  0  0  0
  -18.2430  -26.7660   22.1880 C   0  0  0  0  0  2  0  0  0  0  0  0
  -19.2300  -28.8510   23.3080 C   0  0  0  0  0  0  0  0  0  0  0  0
  -19.0330  -30.1030   23.9320 C   0  0  0  0  0  3  0  0  0  0  0  0
  -17.7360  -30.6100   24.1370 C   0  0  0  0  0  3  0  0  0  0  0  0
  -16.6160  -29.8620   23.7330 C   0  0  0  0  0  3  0  0  0  0  0  0
  -16.7960  -28.6110   23.1170 C   0  0  0  0  0  3  0  0  0  0  0  0
  -25.9740  -32.4600   23.7390 C   0  0  0  0  0  3  0  0  0  0  0  0
  -25.6400  -33.8480   24.1100 N   0  0  0  0  0  0  0  0  0  0  0  0
  -25.9420  -34.9320   23.3830 C   0  0  0  0  0  0  0  0  0  0  0  0
  -26.5910  -34.8700   22.3360 O   0  0  0  0  0  0  0  0  0  0  0  0
  -25.0570  -33.9680   24.9250 H   0  0  0  0  0  0  0  0  0  0  0  0
  -24.1740  -36.7110   23.1410 C   0  0  0  0  0  1  0  0  0  0  0  0
  -25.4480  -36.3030   23.8950 C   0  0  0  0  0  3  0  0  0  0  0  0
  -27.5950  -37.2060   24.6770 C   0  0  0  0  0  1  0  0  0  0  0  0
  -26.4580  -37.3770   23.7760 N   0  0  0  0  0  0  0  0  0  0  0  0
  -26.0400  -38.2860   23.9600 H   0  0  0  0  0  0  0  0  0  0  0  0
  -26.5000  -31.6780   25.0070 C   0  0  1  0  0  0  0  0  0  0  0  0
  -25.4120  -31.4200   26.0770 C   0  0  0  0  0  1  0  0  0  0  0  0
  -27.0910  -30.3080   24.6060 C   0  0  0  0  0  1  0  0  0  0  0  0
  -27.6480  -32.4730   25.6740 C   0  0  0  0  0  1  0  0  0  0  0  0
  2  7  1  0
  3  4  1  0
  3  2  1  0
  5  4  1  0
  5 19  1  0
  5  6  1  0
  7  1  1  0
  7  6  1  0
  8  1  2  0
 10  9  1  0
 10 14  1  0
 10 11  1  0
 11 15  1  0
 13  9  1  0
 13 12  1  0
 14 45  1  6
 14 13  1  0
 14 46  1  0
 15  1  1  0
 15 12  1  0
 16 17  2  0
 17 18  1  0
 17 36  1  0
 18 21  1  0
 19 16  1  0
 19 20  1  0
 20 18  2  0
 21 22  1  0
 22 23  2  0
 24 27  1  0
 24 23  1  0
 25 24  2  0
 26 25  1  0
 26 21  2  0
 27 28  1  0
 28 29  1  0
 29 30  2  0
 31 30  1  0
 31 35  1  0
 32 31  2  0
 33 28  2  0
 33 32  1  0
 34 33  1  0
 36 37  1  0
 37 40  1  0
 37 39  1  0
 38 36  2  0
 41 42  1  0
 41 16  1  0
 43 41  1  0
 44 45  1  0
 47 48  1  0
 47 46  2  0
 49 60  2  0
 50 48  1  0
 50 55  1  0
 51 59  1  0
 51 61  1  0
 52 58  1  0
 52 54  1  0
 53 59  1  0
 54 53  1  0
 55 54  2  0
 56 50  2  0
 57 56  1  0
 57 52  2  0
 58 51  1  0
 59 49  1  0
 61 63  2  0
 62 61  1  0
 64 62  1  0
 65 74  2  0
 65 70  1  0
 66 62  1  0
 66 70  1  0
 67 66  1  0
 68 69  1  0
 68 67  1  0
 69 65  1  0
 70 71  2  0
 71 72  1  0
 73 72  2  0
 74 73  1  0
 75 49  1  0
 75 76  1  0
 75 85  1  0
 76 79  1  0
 77 81  1  0
 77 76  1  0
 78 77  2  0
 81 80  1  0
 83 81  1  0
 83 84  1  0
 83 82  1  0
 85 88  1  1
 85 86  1  0
 87 85  1  0
M  ISO  4   1 100  15 100  47 101  48 101
M  END
>  <TORSDO>  (81) 
F 18

>  <SCORE>  (81) 
-16.118

>  <name>  (81) 
81

>  <ligand_id>  (81) 
81

>  <original_smiles>  (81) 
[H]C1=C2C([H])([H])N(C(=O)N3C([H])([H])C([H])([H])C([H])([H])C([H])(n4nc(-c5c([H])c([H])c(Oc6c([H])c([H])c(F)c([H])c6F)c([H])c5[H])c(C(=O)N([H])[H])c4N([H])[H])C3([H])[H])C([H])([H])C1([H])C2(C([H])([H])C([H])([H])[H])C([H])([H])C([H])([H])Oc1c([H])c([H])c2c(c1[H])C([H])([H])N(C(=O)C([H])(N([H])C(=O)C([H])(N([H])C([H])([H])[H])C([H])([H])[H])C(C([H])([H])[H])(C([H])([H])[H])C([H])([H])[H])C([H])(C(=O)N([H])C1([H])c3c([H])c([H])c([H])c([H])c3C([H])([H])C([H])([H])C1([H])[H])C2([H])[H]

>  <smiles>  (81) 
[H]C1=C2C([H])([H])N(C(=O)N3C([H])([H])C([H])([H])C([H])([H])C([H])(n4nc(-c5c([H])c([H])c(Oc6c([H])c([H])c(F)c([H])c6F)c([H])c5[H])c(C(=O)N([H])[H])c4N([H])[H])C3([H])[H])C([H])([H])C1([H])C2(C([H])([H])C([H])([H])[H])C([H])([H])C([H])([H])Oc1c([H])c([H])c2c(c1[H])C([H])([H])N(C(=O)C([H])(N([H])C(=O)C([H])(N([H])C([H])([H])[H])C([H])([H])[H])C(C([H])([H])[H])(C([H])([H])[H])C([H])([H])[H])C([H])(C(=O)N([H])C1([H])c3c([H])c([H])c([H])c([H])c3C([H])([H])C([H])([H])C1([H])[H])C2([H])[H]

$$$$
82:0:0
     RDKit          3D

 89 98  0  0  1  0  0  0  0  0999 V2000
  -28.4140  -20.0470   19.2130 C   0  0  0  0  0  2  0  0  0  0  0  0
  -29.8970  -17.7880   18.9090 C   0  0  0  0  0  2  0  0  0  0  0  0
  -29.8880  -18.3820   21.3040 C   0  0  0  0  0  2  0  0  0  0  0  0
  -29.7810  -19.3320   19.0500 C   0  0  0  0  0  3  0  0  0  0  0  0
  -30.0400  -19.7360   20.4930 C   0  0  0  0  0  3  0  0  0  0  0  0
  -28.9790  -20.9340   20.3490 C   0  0  0  0  0  3  0  0  0  0  0  0
  -29.5450  -17.2100   20.2970 C   0  0  0  0  0  3  0  0  0  0  0  0
  -30.5750  -14.7020   20.2130 C   0  0  0  0  0  0  0  0  0  0  0  0
  -30.3860  -12.4570   19.1360 C   0  0  0  0  0  2  0  0  0  0  0  0
  -29.4070  -12.5900   17.9440 C   0  0  0  0  0  2  0  0  0  0  0  0
  -27.9470  -12.4160   18.4060 C   0  0  0  0  0  2  0  0  0  0  0  0
  -27.6180  -13.2580   19.6670 C   0  0  0  0  0  3  0  0  0  0  0  0
  -28.7040  -13.0820   20.7540 C   0  0  0  0  0  2  0  0  0  0  0  0
  -29.9960  -13.4550   20.1560 N   0  0  0  0  0  0  0  0  0  0  0  0
  -31.7030  -14.8970   19.7500 O   0  0  0  0  0  0  0  0  0  0  0  0
  -29.7460  -15.7280   20.6210 N   0  0  0  0  0  0  0  0  0  0  0  0
  -28.9290  -15.3420   21.0720 H   0  0  0  0  0  0  0  0  0  0  0  0
  -25.2430  -13.8540   20.4430 C   0  0  0  0  0  0  0  0  0  0  0  0
  -24.1830  -13.0810   20.8330 C   0  0  0  0  0  0  0  0  0  0  0  0
  -24.6420  -11.7300   20.7820 C   0  0  0  0  0  0  0  0  0  0  0  0
  -26.2810  -12.9750   20.1780 N   0  0  0  0  0  0  0  0  0  0  0  0
  -25.9250  -11.6900   20.4420 N   0  0  0  0  0  0  0  0  0  0  0  0
  -23.9190  -10.4670   20.9800 C   0  0  0  0  0  0  0  0  0  0  0  0
  -24.3600   -9.5010   21.9100 C   0  0  0  0  0  3  0  0  0  0  0  0
  -23.6370   -8.3030   22.0960 C   0  0  0  0  0  3  0  0  0  0  0  0
  -22.4570   -8.0630   21.3520 C   0  0  0  0  0  0  0  0  0  0  0  0
  -22.0350   -9.0180   20.4110 C   0  0  0  0  0  3  0  0  0  0  0  0
  -22.7580  -10.2080   20.2240 C   0  0  0  0  0  3  0  0  0  0  0  0
  -21.7050   -6.9180   21.4480 O   0  0  0  0  0  0  0  0  0  0  0  0
  -21.6510   -6.1870   22.6070 C   0  0  0  0  0  0  0  0  0  0  0  0
  -21.1970   -6.7460   23.8210 C   0  0  0  0  0  3  0  0  0  0  0  0
  -21.0930   -5.9400   24.9730 C   0  0  0  0  0  3  0  0  0  0  0  0
  -21.4320   -4.5760   24.9100 C   0  0  0  0  0  0  0  0  0  0  0  0
  -21.8790   -4.0150   23.7000 C   0  0  0  0  0  3  0  0  0  0  0  0
  -21.9850   -4.8180   22.5520 C   0  0  0  0  0  0  0  0  0  0  0  0
  -22.3970   -4.2690   21.3840 F   0  0  0  0  0  0  0  0  0  0  0  0
  -21.3240   -3.7990   26.0140 F   0  0  0  0  0  0  0  0  0  0  0  0
  -22.7940  -13.5590   21.1420 C   0  0  0  0  0  0  0  0  0  0  0  0
  -22.0830  -12.8560   22.0160 N   0  0  0  0  0  0  0  0  0  0  0  0
  -22.3480  -14.5910   20.6410 O   0  0  0  0  0  0  0  0  0  0  0  0
  -22.4580  -12.0230   22.4440 H   0  0  0  0  0  0  0  0  0  0  0  0
  -21.1520  -13.1590   22.2640 H   0  0  0  0  0  0  0  0  0  0  0  0
  -25.4040  -15.2270   20.2700 N   0  0  0  0  0  0  0  0  0  0  0  0
  -24.6360  -15.8760   20.3960 H   0  0  0  0  0  0  0  0  0  0  0  0
  -26.2380  -15.6650   19.8980 H   0  0  0  0  0  0  0  0  0  0  0  0
  -29.3620  -22.4590   19.9690 C   0  0  0  0  0  2  0  0  0  0  0  0
  -28.4810  -23.7240   20.4710 C   0  0  0  0  0  2  0  0  0  0  0  0
  -28.6030  -25.1310   19.6830 C   0  0  0  0  0  2  0  0  0  0  0  0
  -28.4210  -26.4690   20.3220 O   0  0  0  0  0  0  0  0  0  0  0  0
  -24.6110  -31.8580   23.2450 C   0  0  0  0  0  0  0  0  0  0  0  0
  -27.2720  -27.2810   20.2250 C   0  0  0  0  0  0  0  0  0  0  0  0
  -23.4240  -30.4450   21.6010 C   0  0  0  0  0  3  0  0  0  0  0  0
  -24.8930  -28.8880   20.1890 C   0  0  0  0  0  0  0  0  0  0  0  0
  -25.9630  -30.7700   21.4350 C   0  0  0  0  0  2  0  0  0  0  0  0
  -26.0530  -29.3860   20.7930 C   0  0  0  0  0  0  0  0  0  0  0  0
  -27.2390  -28.5920   20.8020 C   0  0  0  0  0  3  0  0  0  0  0  0
  -26.0860  -26.8320   19.6030 C   0  0  0  0  0  3  0  0  0  0  0  0
  -24.9130  -27.6180   19.5870 C   0  0  0  0  0  3  0  0  0  0  0  0
  -23.6510  -29.7590   20.2260 C   0  0  0  0  0  2  0  0  0  0  0  0
  -24.6850  -31.0440   22.1500 N   0  0  0  0  0  0  0  0  0  0  0  0
  -23.5220  -32.1330   23.7710 O   0  0  0  0  0  0  0  0  0  0  0  0
  -22.7580  -29.4340   22.5630 C   0  0  0  0  0  0  0  0  0  0  0  0
  -21.4310  -29.2610   22.4380 N   0  0  0  0  0  0  0  0  0  0  0  0
  -23.4340  -28.8060   23.3820 O   0  0  0  0  0  0  0  0  0  0  0  0
  -20.9450  -29.8200   21.7500 H   0  0  0  0  0  0  0  0  0  0  0  0
  -18.0490  -28.0860   22.9500 C   0  0  0  0  0  0  0  0  0  0  0  0
  -20.6100  -28.3270   23.2090 C   0  0  0  0  0  3  0  0  0  0  0  0
  -20.6990  -26.8970   22.6260 C   0  0  0  0  0  2  0  0  0  0  0  0
  -19.5910  -26.5860   21.6160 C   0  0  0  0  0  2  0  0  0  0  0  0
  -18.2130  -26.7390   22.2670 C   0  0  0  0  0  2  0  0  0  0  0  0
  -19.1740  -28.8390   23.3780 C   0  0  0  0  0  0  0  0  0  0  0  0
  -18.9660  -30.1000   23.9770 C   0  0  0  0  0  3  0  0  0  0  0  0
  -17.6660  -30.6090   24.1510 C   0  0  0  0  0  3  0  0  0  0  0  0
  -16.5540  -29.8530   23.7390 C   0  0  0  0  0  3  0  0  0  0  0  0
  -16.7460  -28.5940   23.1440 C   0  0  0  0  0  3  0  0  0  0  0  0
  -25.8860  -32.4990   23.8740 C   0  0  0  0  0  3  0  0  0  0  0  0
  -26.3950  -31.7370   25.1600 C   0  0  1  0  0  0  0  0  0  0  0  0
  -25.2940  -31.5040   26.2200 C   0  0  0  0  0  1  0  0  0  0  0  0
  -26.9860  -30.3590   24.7820 C   0  0  0  0  0  1  0  0  0  0  0  0
  -27.5380  -32.5400   25.8260 C   0  0  0  0  0  1  0  0  0  0  0  0
  -25.5690  -33.8970   24.1950 N   0  0  0  0  0  0  0  0  0  0  0  0
  -25.8990  -34.9490   23.4330 C   0  0  0  0  0  0  0  0  0  0  0  0
  -26.5720  -34.8440   22.4040 O   0  0  0  0  0  0  0  0  0  0  0  0
  -24.9710  -34.0530   24.9930 H   0  0  0  0  0  0  0  0  0  0  0  0
  -24.1680  -36.7360   23.0660 C   0  0  0  0  0  1  0  0  0  0  0  0
  -25.4070  -36.3380   23.8840 C   0  0  0  0  0  3  0  0  0  0  0  0
  -27.5330  -37.2350   24.7220 C   0  0  0  0  0  1  0  0  0  0  0  0
  -26.4360  -37.3940   23.7710 N   0  0  0  0  0  0  0  0  0  0  0  0
  -26.0270  -38.3130   23.9110 H   0  0  0  0  0  0  0  0  0  0  0  0
  1  6  1  0
  2  7  1  0
  4  2  1  0
  4  1  1  0
  4  5  1  0
  5  3  1  0
  6 46  1  0
  6  5  1  0
  7 16  1  0
  7  3  1  0
  8 16  1  0
  9 14  1  0
 10 11  1  0
 10  9  1  0
 12 11  1  0
 12 21  1  0
 12 13  1  0
 14  8  1  0
 14 13  1  0
 15  8  2  0
 16 17  1  0
 18 19  2  0
 19 38  1  0
 20 19  1  0
 20 23  1  0
 21 22  1  0
 21 18  1  0
 22 20  2  0
 23 24  1  0
 24 25  2  0
 26 29  1  0
 26 25  1  0
 27 26  2  0
 28 27  1  0
 28 23  2  0
 29 30  1  0
 30 31  1  0
 31 32  2  0
 33 32  1  0
 33 37  1  0
 34 33  2  0
 35 30  2  0
 35 34  1  0
 36 35  1  0
 38 39  1  0
 39 42  1  0
 39 41  1  0
 40 38  2  0
 43 44  1  0
 43 18  1  0
 45 43  1  0
 46 47  1  0
 48 49  1  0
 48 47  1  0
 50 61  2  0
 51 49  1  0
 51 56  1  0
 52 60  1  0
 52 62  1  0
 53 59  1  0
 53 55  1  0
 54 60  1  0
 55 56  2  0
 55 54  1  0
 57 51  2  0
 58 57  1  0
 58 53  2  0
 59 52  1  0
 60 50  1  0
 62 64  2  0
 63 62  1  0
 65 63  1  0
 66 75  2  0
 66 71  1  0
 67 63  1  0
 67 71  1  0
 68 67  1  0
 69 70  1  0
 69 68  1  0
 70 66  1  0
 71 72  2  0
 72 73  1  0
 74 73  2  0
 75 74  1  0
 76 50  1  0
 76 81  1  0
 76 77  1  0
 77 80  1  1
 77 78  1  0
 79 77  1  0
 81 84  1  0
 82 86  1  0
 82 81  1  0
 83 82  2  0
 86 85  1  0
 88 86  1  0
 88 89  1  0
 88 87  1  0
M  ISO  4   8 100  16 100  48 101  49 101
M  END
>  <TORSDO>  (82) 
F 19

>  <SCORE>  (82) 
-14.110

>  <name>  (82) 
82

>  <ligand_id>  (82) 
82

>  <original_smiles>  (82) 
[H]c1c([H])c([H])c2c(c1[H])C([H])([H])C([H])([H])C([H])([H])C2([H])N([H])C(=O)C1([H])N(C(=O)C([H])(N([H])C(=O)C([H])(N([H])C([H])([H])[H])C([H])([H])[H])C(C([H])([H])[H])(C([H])([H])[H])C([H])([H])[H])C([H])([H])c2c([H])c(OC([H])([H])C([H])([H])C([H])([H])C3([H])C([H])([H])C4([H])C([H])([H])C([H])(N([H])C(=O)N5C([H])([H])C([H])([H])C([H])([H])C([H])(n6nc(-c7c([H])c([H])c(Oc8c([H])c([H])c(F)c([H])c8F)c([H])c7[H])c(C(=O)N([H])[H])c6N([H])[H])C5([H])[H])C([H])([H])C34[H])c([H])c([H])c2C1([H])[H]

>  <smiles>  (82) 
[H]c1c([H])c([H])c2c(c1[H])C([H])([H])C([H])([H])C([H])([H])C2([H])N([H])C(=O)C1([H])N(C(=O)C([H])(N([H])C(=O)C([H])(N([H])C([H])([H])[H])C([H])([H])[H])C(C([H])([H])[H])(C([H])([H])[H])C([H])([H])[H])C([H])([H])c2c([H])c(OC([H])([H])C([H])([H])C([H])([H])C3([H])C([H])([H])C4([H])C([H])([H])C([H])(N([H])C(=O)N5C([H])([H])C([H])([H])C([H])([H])C([H])(n6nc(-c7c([H])c([H])c(Oc8c([H])c([H])c(F)c([H])c8F)c([H])c7[H])c(C(=O)N([H])[H])c6N([H])[H])C5([H])[H])C([H])([H])C34[H])c([H])c([H])c2C1([H])[H]

$$$$
83:0:0
     RDKit          3D

 93102  0  0  1  0  0  0  0  0999 V2000
  -30.9680  -14.9730   19.9300 C   0  0  0  0  0  0  0  0  0  0  0  0
  -30.6870  -12.5590   19.3220 C   0  0  0  0  0  2  0  0  0  0  0  0
  -29.7590  -12.3960   18.1000 C   0  0  0  0  0  2  0  0  0  0  0  0
  -28.2920  -12.3020   18.5570 C   0  0  0  0  0  2  0  0  0  0  0  0
  -27.9170  -13.3990   19.5870 C   0  0  0  0  0  3  0  0  0  0  0  0
  -28.9740  -13.5460   20.6990 C   0  0  0  0  0  2  0  0  0  0  0  0
  -30.2620  -13.7890   20.0400 N   0  0  0  0  0  0  0  0  0  0  0  0
  -32.1590  -14.8970   19.6120 O   0  0  0  0  0  0  0  0  0  0  0  0
  -29.8700  -18.6850   20.6280 C   0  0  0  0  0  2  0  0  0  0  0  0
  -28.6280  -18.7420   18.2880 C   0  0  0  0  0  2  0  0  0  0  0  0
  -30.6790  -16.9940   18.4960 C   0  0  0  0  0  2  0  0  0  0  0  0
  -29.6990  -17.0900   20.7920 C   0  0  0  0  0  3  0  0  0  0  0  0
  -30.0960  -18.4170   18.1820 C   0  0  0  0  0  3  0  0  0  0  0  0
  -29.5960  -19.3720   19.2690 C   0  0  2  0  0  0  0  0  0  0  0  0
  -30.3290  -16.2170   19.7340 N   0  0  0  0  0  0  0  0  0  0  0  0
  -25.6400  -14.1510   20.4840 C   0  0  0  0  0  0  0  0  0  0  0  0
  -24.5190  -13.4570   20.8470 C   0  0  0  0  0  0  0  0  0  0  0  0
  -24.8420  -12.0740   20.6940 C   0  0  0  0  0  0  0  0  0  0  0  0
  -26.5780  -13.1970   20.1290 N   0  0  0  0  0  0  0  0  0  0  0  0
  -26.1100  -11.9360   20.3190 N   0  0  0  0  0  0  0  0  0  0  0  0
  -24.0010  -10.8760   20.8240 C   0  0  0  0  0  0  0  0  0  0  0  0
  -24.4060   -9.7680   21.6010 C   0  0  0  0  0  3  0  0  0  0  0  0
  -23.5690   -8.6380   21.7270 C   0  0  0  0  0  3  0  0  0  0  0  0
  -22.3130   -8.6090   21.0760 C   0  0  0  0  0  0  0  0  0  0  0  0
  -21.9250   -9.7040   20.2850 C   0  0  0  0  0  3  0  0  0  0  0  0
  -22.7610  -10.8260   20.1550 C   0  0  0  0  0  3  0  0  0  0  0  0
  -21.4460   -7.5430   21.1200 O   0  0  0  0  0  0  0  0  0  0  0  0
  -21.4790   -6.6310   22.1440 C   0  0  0  0  0  0  0  0  0  0  0  0
  -21.3060   -7.0160   23.4910 C   0  0  0  0  0  3  0  0  0  0  0  0
  -21.2770   -6.0380   24.5050 C   0  0  0  0  0  3  0  0  0  0  0  0
  -21.4110   -4.6760   24.1760 C   0  0  0  0  0  0  0  0  0  0  0  0
  -21.5780   -4.2900   22.8340 C   0  0  0  0  0  3  0  0  0  0  0  0
  -21.6080   -5.2650   21.8210 C   0  0  0  0  0  0  0  0  0  0  0  0
  -21.7480   -4.8860   20.5280 F   0  0  0  0  0  0  0  0  0  0  0  0
  -21.3760   -3.7350   25.1480 F   0  0  0  0  0  0  0  0  0  0  0  0
  -23.1880  -14.0440   21.2180 C   0  0  0  0  0  0  0  0  0  0  0  0
  -22.4300  -13.3570   22.0650 N   0  0  0  0  0  0  0  0  0  0  0  0
  -22.8340  -15.1440   20.7940 O   0  0  0  0  0  0  0  0  0  0  0  0
  -22.7300  -12.4640   22.4280 H   0  0  0  0  0  0  0  0  0  0  0  0
  -21.5380  -13.7280   22.3550 H   0  0  0  0  0  0  0  0  0  0  0  0
  -25.9350  -15.5090   20.4000 N   0  0  0  0  0  0  0  0  0  0  0  0
  -25.2430  -16.2250   20.5930 H   0  0  0  0  0  0  0  0  0  0  0  0
  -26.8080  -15.8830   20.0510 H   0  0  0  0  0  0  0  0  0  0  0  0
  -30.0790  -16.6880   22.2300 C   0  0  0  0  0  0  0  0  0  0  0  0
  -31.3580  -16.7700   22.5780 N   0  0  0  0  0  0  0  0  0  0  0  0
  -29.2290  -16.2900   23.0220 O   0  0  0  0  0  0  0  0  0  0  0  0
  -32.0450  -17.1260   21.9280 H   0  0  0  0  0  0  0  0  0  0  0  0
  -31.6480  -16.5250   23.5140 H   0  0  0  0  0  0  0  0  0  0  0  0
  -29.9000  -20.9720   19.2280 C   0  0  0  0  0  3  0  0  0  0  0  0
  -28.8490  -22.1260   18.7470 C   0  0  0  0  0  3  0  0  0  0  0  0
  -29.1760  -23.7220   18.9600 C   0  0  0  0  0  3  0  0  0  0  0  0
  -28.0580  -24.8800   18.6840 C   0  0  0  0  0  3  0  0  0  0  0  0
  -28.2490  -26.3660   18.9490 O   0  0  0  0  0  0  0  0  0  0  0  0
  -24.3930  -31.2500   22.7480 C   0  0  0  0  0  0  0  0  0  0  0  0
  -27.1070  -27.2100   19.0400 C   0  0  0  0  0  0  0  0  0  0  0  0
  -23.1930  -29.9550   21.0270 C   0  0  0  0  0  3  0  0  0  0  0  0
  -24.6540  -28.6930   19.3450 C   0  0  0  0  0  0  0  0  0  0  0  0
  -25.6960  -30.4670   20.7470 C   0  0  0  0  0  2  0  0  0  0  0  0
  -25.8290  -29.1770   19.9340 C   0  0  0  0  0  0  0  0  0  0  0  0
  -27.0560  -28.4500   19.7720 C   0  0  0  0  0  3  0  0  0  0  0  0
  -25.9010  -26.8110   18.4200 C   0  0  0  0  0  3  0  0  0  0  0  0
  -24.6960  -27.5210   18.5780 C   0  0  0  0  0  3  0  0  0  0  0  0
  -23.3680  -29.4640   19.5670 C   0  0  0  0  0  2  0  0  0  0  0  0
  -24.4500  -30.5710   21.5640 N   0  0  0  0  0  0  0  0  0  0  0  0
  -23.3290  -31.3820   23.3680 O   0  0  0  0  0  0  0  0  0  0  0  0
  -22.6640  -28.7880   21.8970 C   0  0  0  0  0  0  0  0  0  0  0  0
  -21.3480  -28.5190   21.8210 N   0  0  0  0  0  0  0  0  0  0  0  0
  -23.4340  -28.1330   22.6040 O   0  0  0  0  0  0  0  0  0  0  0  0
  -20.7790  -29.1070   21.2290 H   0  0  0  0  0  0  0  0  0  0  0  0
  -18.1150  -26.9730   22.3240 C   0  0  0  0  0  0  0  0  0  0  0  0
  -20.6510  -27.4390   22.5230 C   0  0  0  0  0  3  0  0  0  0  0  0
  -20.8510  -26.0850   21.8010 C   0  0  0  0  0  2  0  0  0  0  0  0
  -19.7350  -25.7650   20.8010 C   0  0  0  0  0  2  0  0  0  0  0  0
  -18.3770  -25.7180   21.5060 C   0  0  0  0  0  2  0  0  0  0  0  0
  -19.1810  -27.7880   22.7870 C   0  0  0  0  0  0  0  0  0  0  0  0
  -18.8790  -28.9590   23.5140 C   0  0  0  0  0  3  0  0  0  0  0  0
  -17.5460  -29.3190   23.7810 C   0  0  0  0  0  3  0  0  0  0  0  0
  -16.4940  -28.5000   23.3330 C   0  0  0  0  0  3  0  0  0  0  0  0
  -16.7790  -27.3280   22.6090 C   0  0  0  0  0  3  0  0  0  0  0  0
  -25.6630  -31.9090   23.3680 C   0  0  0  0  0  3  0  0  0  0  0  0
  -26.3140  -31.0450   24.5160 C   0  0  1  0  0  0  0  0  0  0  0  0
  -25.3130  -30.6120   25.6120 C   0  0  0  0  0  1  0  0  0  0  0  0
  -26.9600  -29.7640   23.9390 C   0  0  0  0  0  1  0  0  0  0  0  0
  -27.4510  -31.8450   25.1930 C   0  0  0  0  0  1  0  0  0  0  0  0
  -25.2720  -33.2320   23.8790 N   0  0  0  0  0  0  0  0  0  0  0  0
  -25.5050  -34.3920   23.2510 C   0  0  0  0  0  0  0  0  0  0  0  0
  -26.1400  -34.4640   22.1950 O   0  0  0  0  0  0  0  0  0  0  0  0
  -24.6990  -33.2440   24.7090 H   0  0  0  0  0  0  0  0  0  0  0  0
  -23.6490  -36.0890   23.1810 C   0  0  0  0  0  1  0  0  0  0  0  0
  -24.9460  -35.6760   23.8950 C   0  0  0  0  0  3  0  0  0  0  0  0
  -27.0480  -36.6000   24.7630 C   0  0  0  0  0  1  0  0  0  0  0  0
  -25.9010  -36.8060   23.8830 N   0  0  0  0  0  0  0  0  0  0  0  0
  -25.4410  -37.6690   24.1590 H   0  0  0  0  0  0  0  0  0  0  0  0
  1  7  1  0
  2  7  1  0
  3  4  1  0
  3  2  1  0
  5  4  1  0
  5 19  1  0
  5  6  1  0
  7  6  1  0
  8  1  2  0
  9 12  1  0
 10 14  1  0
 11 15  1  0
 12 44  1  0
 13 10  1  0
 13 11  1  0
 13 14  1  0
 14 49  1  1
 14  9  1  0
 15  1  1  0
 15 12  1  0
 16 17  2  0
 17 36  1  0
 18 21  1  0
 18 17  1  0
 19 20  1  0
 19 16  1  0
 20 18  2  0
 21 22  1  0
 22 23  2  0
 24 27  1  0
 24 23  1  0
 25 24  2  0
 26 25  1  0
 26 21  2  0
 27 28  1  0
 28 29  1  0
 29 30  2  0
 31 30  1  0
 31 35  1  0
 32 31  2  0
 33 28  2  0
 33 32  1  0
 34 33  1  0
 36 37  1  0
 37 40  1  0
 37 39  1  0
 38 36  2  0
 41 16  1  0
 41 42  1  0
 43 41  1  0
 44 45  1  0
 44 46  2  0
 45 48  1  0
 47 45  1  0
 50 51  1  0
 50 49  2  0
 52 53  1  0
 52 51  2  0
 53 55  1  0
 54 65  2  0
 55 60  1  0
 56 64  1  0
 56 66  1  0
 57 63  1  0
 57 59  1  0
 58 64  1  0
 59 58  1  0
 60 59  2  0
 61 62  1  0
 61 55  2  0
 62 57  2  0
 63 56  1  0
 64 54  1  0
 66 68  2  0
 67 66  1  0
 69 67  1  0
 70 79  2  0
 70 75  1  0
 71 67  1  0
 71 75  1  0
 72 71  1  0
 73 74  1  0
 73 72  1  0
 74 70  1  0
 75 76  2  0
 76 77  1  0
 78 77  2  0
 79 78  1  0
 80 54  1  0
 80 85  1  0
 80 81  1  0
 81 84  1  1
 81 82  1  0
 83 81  1  0
 85 88  1  0
 86 85  1  0
 86 90  1  0
 87 86  2  0
 90 89  1  0
 92 90  1  0
 92 93  1  0
 92 91  1  0
M  ISO  4   1 100  15 100  52 101  53 101
M  END
>  <TORSDO>  (83) 
F 20

>  <SCORE>  (83) 
-8.854

>  <name>  (83) 
83

>  <ligand_id>  (83) 
83

>  <original_smiles>  (83) 
[H]c1c([H])c([H])c2c(c1[H])C([H])([H])C([H])([H])C([H])([H])C2([H])N([H])C(=O)C1([H])N(C(=O)C([H])(N([H])C(=O)C([H])(N([H])C([H])([H])[H])C([H])([H])[H])C(C([H])([H])[H])(C([H])([H])[H])C([H])([H])[H])C([H])([H])c2c([H])c(OC([H])([H])C([H])([H])C([H])([H])C([H])([H])C34C([H])([H])C([H])(C(=O)N([H])[H])N(C(=O)N5C([H])([H])C([H])([H])C([H])([H])C([H])(n6nc(-c7c([H])c([H])c(Oc8c([H])c([H])c(F)c([H])c8F)c([H])c7[H])c(C(=O)N([H])[H])c6N([H])[H])C5([H])[H])C([H])([H])C3([H])C4([H])[H])c([H])c([H])c2C1([H])[H]

>  <smiles>  (83) 
[H]c1c([H])c([H])c2c(c1[H])C([H])([H])C([H])([H])C([H])([H])C2([H])N([H])C(=O)C1([H])N(C(=O)C([H])(N([H])C(=O)C([H])(N([H])C([H])([H])[H])C([H])([H])[H])C(C([H])([H])[H])(C([H])([H])[H])C([H])([H])[H])C([H])([H])c2c([H])c(OC([H])([H])C([H])([H])C([H])([H])C([H])([H])C34C([H])([H])C([H])(C(=O)N([H])[H])N(C(=O)N5C([H])([H])C([H])([H])C([H])([H])C([H])(n6nc(-c7c([H])c([H])c(Oc8c([H])c([H])c(F)c([H])c8F)c([H])c7[H])c(C(=O)N([H])[H])c6N([H])[H])C5([H])[H])C([H])([H])C3([H])C4([H])[H])c([H])c([H])c2C1([H])[H]

$$$$
84:0:0
     RDKit          3D

 93102  0  0  1  0  0  0  0  0999 V2000
  -28.2150  -19.4620   19.8190 C   0  0  0  0  0  2  0  0  0  0  0  0
  -28.0090  -21.0300   19.5760 C   0  0  0  0  0  2  0  0  0  0  0  0
  -30.1470  -21.8040   18.4040 C   0  0  0  0  0  2  0  0  0  0  0  0
  -30.0620  -20.6460   20.6490 C   0  0  0  0  0  2  0  0  0  0  0  0
  -31.5750  -22.4200   18.5060 C   0  0  0  0  0  2  0  0  0  0  0  0
  -30.7510  -23.9750   20.2860 C   0  0  0  0  0  2  0  0  0  0  0  0
  -29.7060  -19.1330   20.1050 C   0  0  0  0  0  3  0  0  0  0  0  0
  -29.3050  -23.5400   19.9810 C   0  0  0  0  0  3  0  0  0  0  0  0
  -29.3450  -21.8240   19.7520 C   0  0  2  0  0  0  0  0  0  0  0  0
  -31.6060  -23.7820   19.0930 N   0  0  0  0  0  4  0  0  0  0  0  0
  -31.3170  -24.4400   18.3850 H   0  0  0  0  0  0  0  0  0  0  0  0
  -32.5590  -24.0200   19.3310 H   0  0  0  0  0  0  0  0  0  0  0  0
  -30.1650  -17.6780   20.8520 C   0  0  0  0  0  2  0  0  0  0  0  0
  -30.5330  -14.9750   20.3270 C   0  0  0  0  0  0  0  0  0  0  0  0
  -30.3650  -12.6410   19.3410 C   0  0  0  0  0  2  0  0  0  0  0  0
  -29.4190  -12.6160   18.1170 C   0  0  0  0  0  2  0  0  0  0  0  0
  -27.9570  -12.4080   18.5630 C   0  0  0  0  0  2  0  0  0  0  0  0
  -27.5680  -13.3160   19.7570 C   0  0  0  0  0  3  0  0  0  0  0  0
  -28.6380  -13.3200   20.8690 C   0  0  0  0  0  2  0  0  0  0  0  0
  -29.9010  -13.7350   20.2400 N   0  0  0  0  0  0  0  0  0  0  0  0
  -31.7450  -15.0070   20.0970 O   0  0  0  0  0  0  0  0  0  0  0  0
  -29.7890  -16.1840   20.4690 N   0  0  0  0  0  0  0  0  0  0  0  0
  -28.7960  -16.0210   20.4790 H   0  0  0  0  0  0  0  0  0  0  0  0
  -25.1900  -13.8810   20.5090 C   0  0  0  0  0  0  0  0  0  0  0  0
  -24.1300  -13.1000   20.8810 C   0  0  0  0  0  0  0  0  0  0  0  0
  -24.5990  -11.7520   20.8460 C   0  0  0  0  0  0  0  0  0  0  0  0
  -26.2340  -13.0090   20.2630 N   0  0  0  0  0  0  0  0  0  0  0  0
  -25.8890  -11.7230   20.5320 N   0  0  0  0  0  0  0  0  0  0  0  0
  -23.8750  -10.4880   21.0390 C   0  0  0  0  0  0  0  0  0  0  0  0
  -24.3050   -9.5250   21.9770 C   0  0  0  0  0  3  0  0  0  0  0  0
  -23.5800   -8.3280   22.1570 C   0  0  0  0  0  3  0  0  0  0  0  0
  -22.4100   -8.0850   21.3990 C   0  0  0  0  0  0  0  0  0  0  0  0
  -21.9990   -9.0390   20.4530 C   0  0  0  0  0  3  0  0  0  0  0  0
  -22.7230  -10.2290   20.2710 C   0  0  0  0  0  3  0  0  0  0  0  0
  -21.6560   -6.9390   21.4870 O   0  0  0  0  0  0  0  0  0  0  0  0
  -21.6000   -6.2040   22.6450 C   0  0  0  0  0  0  0  0  0  0  0  0
  -21.1560   -6.7630   23.8630 C   0  0  0  0  0  3  0  0  0  0  0  0
  -21.0460   -5.9530   25.0120 C   0  0  0  0  0  3  0  0  0  0  0  0
  -21.3730   -4.5840   24.9430 C   0  0  0  0  0  0  0  0  0  0  0  0
  -21.8130   -4.0260   23.7290 C   0  0  0  0  0  3  0  0  0  0  0  0
  -21.9230   -4.8340   22.5820 C   0  0  0  0  0  0  0  0  0  0  0  0
  -22.3250   -4.2840   21.4120 F   0  0  0  0  0  0  0  0  0  0  0  0
  -21.2640   -3.8040   26.0430 F   0  0  0  0  0  0  0  0  0  0  0  0
  -22.7330  -13.5750   21.1510 C   0  0  0  0  0  0  0  0  0  0  0  0
  -22.0100  -12.8720   22.0180 N   0  0  0  0  0  0  0  0  0  0  0  0
  -22.2940  -14.6010   20.6360 O   0  0  0  0  0  0  0  0  0  0  0  0
  -22.3840  -12.0420   22.4530 H   0  0  0  0  0  0  0  0  0  0  0  0
  -21.0700  -13.1660   22.2440 H   0  0  0  0  0  0  0  0  0  0  0  0
  -25.3460  -15.2530   20.3370 N   0  0  0  0  0  0  0  0  0  0  0  0
  -24.5780  -15.8980   20.4820 H   0  0  0  0  0  0  0  0  0  0  0  0
  -26.1820  -15.7030   19.9880 H   0  0  0  0  0  0  0  0  0  0  0  0
  -28.1980  -24.6700   20.5500 C   0  0  0  0  0  2  0  0  0  0  0  0
  -28.3450  -26.2170   20.3390 O   0  0  0  0  0  0  0  0  0  0  0  0
  -24.6090  -31.8830   23.2630 C   0  0  0  0  0  0  0  0  0  0  0  0
  -27.2450  -27.1550   20.3060 C   0  0  0  0  0  0  0  0  0  0  0  0
  -23.4260  -30.4690   21.6250 C   0  0  0  0  0  3  0  0  0  0  0  0
  -24.8950  -28.8790   20.2340 C   0  0  0  0  0  0  0  0  0  0  0  0
  -25.9790  -30.7450   21.4770 C   0  0  0  0  0  2  0  0  0  0  0  0
  -26.0670  -29.3450   20.8450 C   0  0  0  0  0  0  0  0  0  0  0  0
  -27.2390  -28.5000   20.8580 C   0  0  0  0  0  3  0  0  0  0  0  0
  -26.0430  -26.7840   19.6670 C   0  0  0  0  0  3  0  0  0  0  0  0
  -24.8950  -27.6100   19.6320 C   0  0  0  0  0  3  0  0  0  0  0  0
  -23.6630  -29.7720   20.2570 C   0  0  0  0  0  2  0  0  0  0  0  0
  -24.6900  -31.0550   22.1780 N   0  0  0  0  0  0  0  0  0  0  0  0
  -23.5170  -32.1700   23.7790 O   0  0  0  0  0  0  0  0  0  0  0  0
  -22.7420  -29.4720   22.5920 C   0  0  0  0  0  0  0  0  0  0  0  0
  -21.4150  -29.2960   22.4550 N   0  0  0  0  0  0  0  0  0  0  0  0
  -23.4060  -28.8530   23.4280 O   0  0  0  0  0  0  0  0  0  0  0  0
  -20.9330  -29.8420   21.7550 H   0  0  0  0  0  0  0  0  0  0  0  0
  -18.0300  -28.1070   22.9540 C   0  0  0  0  0  0  0  0  0  0  0  0
  -20.5900  -28.3660   23.2290 C   0  0  0  0  0  3  0  0  0  0  0  0
  -20.6900  -26.9300   22.6630 C   0  0  0  0  0  2  0  0  0  0  0  0
  -19.5920  -26.6050   21.6450 C   0  0  0  0  0  2  0  0  0  0  0  0
  -18.2080  -26.7560   22.2820 C   0  0  0  0  0  2  0  0  0  0  0  0
  -19.1510  -28.8700   23.3840 C   0  0  0  0  0  0  0  0  0  0  0  0
  -18.9300  -30.1340   23.9720 C   0  0  0  0  0  3  0  0  0  0  0  0
  -17.6260  -30.6370   24.1340 C   0  0  0  0  0  3  0  0  0  0  0  0
  -16.5220  -29.8720   23.7210 C   0  0  0  0  0  3  0  0  0  0  0  0
  -16.7250  -28.6090   23.1360 C   0  0  0  0  0  3  0  0  0  0  0  0
  -25.8800  -32.5280   23.8960 C   0  0  0  0  0  3  0  0  0  0  0  0
  -25.5670  -33.9320   24.2030 N   0  0  0  0  0  0  0  0  0  0  0  0
  -25.9110  -34.9770   23.4380 C   0  0  0  0  0  0  0  0  0  0  0  0
  -26.5940  -34.8610   22.4170 O   0  0  0  0  0  0  0  0  0  0  0  0
  -24.9630  -34.0970   24.9950 H   0  0  0  0  0  0  0  0  0  0  0  0
  -24.1970  -36.7770   23.0450 C   0  0  0  0  0  1  0  0  0  0  0  0
  -25.4240  -36.3720   23.8780 C   0  0  0  0  0  3  0  0  0  0  0  0
  -27.5490  -37.2580   24.7350 C   0  0  0  0  0  1  0  0  0  0  0  0
  -26.4630  -37.4210   23.7720 N   0  0  0  0  0  0  0  0  0  0  0  0
  -26.0570  -38.3430   23.9070 H   0  0  0  0  0  0  0  0  0  0  0  0
  -26.3750  -31.7780   25.1950 C   0  0  1  0  0  0  0  0  0  0  0  0
  -25.2640  -31.5630   26.2490 C   0  0  0  0  0  1  0  0  0  0  0  0
  -26.9640  -30.3930   24.8410 C   0  0  0  0  0  1  0  0  0  0  0  0
  -27.5160  -32.5820   25.8620 C   0  0  0  0  0  1  0  0  0  0  0  0
  1  7  1  0
  9  2  1  6
  2  1  1  0
  3  5  1  0
  5 10  1  0
  7  4  1  0
  7 13  1  0
  8  6  1  0
  8 52  1  0
  9  3  1  0
  9  8  1  0
  9  4  1  0
 10 12  1  0
 10  6  1  0
 11 10  1  0
 14 22  1  0
 15 20  1  0
 16 17  1  0
 16 15  1  0
 18 17  1  0
 18 27  1  0
 18 19  1  0
 20 14  1  0
 20 19  1  0
 21 14  2  0
 22 23  1  0
 22 13  1  0
 24 25  2  0
 25 44  1  0
 26 25  1  0
 26 29  1  0
 27 24  1  0
 27 28  1  0
 28 26  2  0
 29 30  1  0
 30 31  2  0
 32 35  1  0
 32 31  1  0
 33 32  2  0
 34 33  1  0
 34 29  2  0
 35 36  1  0
 36 37  1  0
 37 38  2  0
 39 38  1  0
 39 43  1  0
 40 39  2  0
 41 36  2  0
 41 40  1  0
 42 41  1  0
 44 45  1  0
 45 48  1  0
 45 47  1  0
 46 44  2  0
 49 50  1  0
 49 24  1  0
 51 49  1  0
 53 52  1  0
 54 65  2  0
 55 53  1  0
 55 60  1  0
 56 64  1  0
 56 66  1  0
 57 63  1  0
 57 59  1  0
 58 64  1  0
 59 60  2  0
 59 58  1  0
 61 55  2  0
 62 61  1  0
 62 57  2  0
 63 56  1  0
 64 54  1  0
 66 68  2  0
 67 66  1  0
 69 67  1  0
 70 79  2  0
 70 75  1  0
 71 67  1  0
 71 75  1  0
 72 71  1  0
 73 74  1  0
 73 72  1  0
 74 70  1  0
 75 76  2  0
 76 77  1  0
 78 77  2  0
 79 78  1  0
 80 54  1  0
 80 81  1  0
 80 90  1  0
 81 84  1  0
 82 86  1  0
 82 81  1  0
 83 82  2  0
 86 85  1  0
 88 86  1  0
 88 89  1  0
 88 87  1  0
 90 93  1  1
 90 91  1  0
 92 90  1  0
M  ISO  4  14 100  22 100  52 101  53 101
M  END
>  <TORSDO>  (84) 
F 18

>  <SCORE>  (84) 
-15.316

>  <name>  (84) 
84

>  <ligand_id>  (84) 
84

>  <original_smiles>  (84) 
[H]c1c([H])c([H])c2c(c1[H])C([H])([H])C([H])([H])C([H])([H])C2([H])N([H])C(=O)C1([H])N(C(=O)C([H])(N([H])C(=O)C([H])(N([H])C([H])([H])[H])C([H])([H])[H])C(C([H])([H])[H])(C([H])([H])[H])C([H])([H])[H])C([H])([H])c2c([H])c(OC([H])([H])C3([H])C4(C([H])([H])C([H])([H])C([H])(C([H])([H])N([H])C(=O)N5C([H])([H])C([H])([H])C([H])([H])C([H])(n6nc(-c7c([H])c([H])c(Oc8c([H])c([H])c(F)c([H])c8F)c([H])c7[H])c(C(=O)N([H])[H])c6N([H])[H])C5([H])[H])C4([H])[H])C([H])([H])C([H])([H])[N+]([H])([H])C3([H])[H])c([H])c([H])c2C1([H])[H]

>  <smiles>  (84) 
[H]c1c([H])c([H])c2c(c1[H])C([H])([H])C([H])([H])C([H])([H])C2([H])N([H])C(=O)C1([H])N(C(=O)C([H])(N([H])C(=O)C([H])(N([H])C([H])([H])[H])C([H])([H])[H])C(C([H])([H])[H])(C([H])([H])[H])C([H])([H])[H])C([H])([H])c2c([H])c(OC([H])([H])C3([H])C4(C([H])([H])C([H])([H])C([H])(C([H])([H])N([H])C(=O)N5C([H])([H])C([H])([H])C([H])([H])C([H])(n6nc(-c7c([H])c([H])c(Oc8c([H])c([H])c(F)c([H])c8F)c([H])c7[H])c(C(=O)N([H])[H])c6N([H])[H])C5([H])[H])C4([H])[H])C([H])([H])C([H])([H])[N+]([H])([H])C3([H])[H])c([H])c([H])c2C1([H])[H]

$$$$
85:0:0
     RDKit          3D

 90 99  0  0  1  0  0  0  0  0999 V2000
  -29.4830  -20.8720   18.7270 C   0  0  0  0  0  2  0  0  0  0  0  0
  -29.7460  -16.8920   18.9240 C   0  0  0  0  0  2  0  0  0  0  0  0
  -29.2510  -17.7090   21.1780 C   0  0  0  0  0  2  0  0  0  0  0  0
  -29.1730  -18.2770   18.7920 C   0  0  0  0  0  3  0  0  0  0  0  0
  -28.8350  -18.7640   20.1720 C   0  0  0  0  0  3  0  0  0  0  0  0
  -29.8330  -19.5280   19.3300 C   0  0  0  0  0  3  0  0  0  0  0  0
  -30.1570  -16.7330   20.4070 C   0  0  0  0  0  3  0  0  0  0  0  0
  -30.7160  -14.3420   20.3820 C   0  0  0  0  0  0  0  0  0  0  0  0
  -30.3440  -12.2370   19.1870 C   0  0  0  0  0  2  0  0  0  0  0  0
  -29.3950  -12.5450   18.0110 C   0  0  0  0  0  2  0  0  0  0  0  0
  -27.9230  -12.4340   18.4550 C   0  0  0  0  0  2  0  0  0  0  0  0
  -27.6250  -13.2160   19.7640 C   0  0  0  0  0  3  0  0  0  0  0  0
  -28.6940  -12.9100   20.8410 C   0  0  0  0  0  2  0  0  0  0  0  0
  -30.0260  -13.1790   20.2660 N   0  0  0  0  0  0  0  0  0  0  0  0
  -31.8240  -14.5400   19.8730 O   0  0  0  0  0  0  0  0  0  0  0  0
  -29.9960  -15.3550   20.8650 N   0  0  0  0  0  0  0  0  0  0  0  0
  -29.1200  -15.1100   21.3030 H   0  0  0  0  0  0  0  0  0  0  0  0
  -25.2280  -13.8360   20.4820 C   0  0  0  0  0  0  0  0  0  0  0  0
  -24.1580  -13.0700   20.8610 C   0  0  0  0  0  0  0  0  0  0  0  0
  -24.6120  -11.7160   20.8270 C   0  0  0  0  0  0  0  0  0  0  0  0
  -26.2710  -12.9510   20.2500 N   0  0  0  0  0  0  0  0  0  0  0  0
  -25.9000  -11.6710   20.5100 N   0  0  0  0  0  0  0  0  0  0  0  0
  -23.8830  -10.4570   21.0310 C   0  0  0  0  0  0  0  0  0  0  0  0
  -24.3330   -9.4830   21.9490 C   0  0  0  0  0  3  0  0  0  0  0  0
  -23.6070   -8.2880   22.1390 C   0  0  0  0  0  3  0  0  0  0  0  0
  -22.4160   -8.0580   21.4100 C   0  0  0  0  0  0  0  0  0  0  0  0
  -21.9850   -9.0210   20.4820 C   0  0  0  0  0  3  0  0  0  0  0  0
  -22.7100  -10.2080   20.2900 C   0  0  0  0  0  3  0  0  0  0  0  0
  -21.6560   -6.9170   21.5110 O   0  0  0  0  0  0  0  0  0  0  0  0
  -21.6450   -6.1590   22.6550 C   0  0  0  0  0  0  0  0  0  0  0  0
  -21.2760   -6.7040   23.9050 C   0  0  0  0  0  3  0  0  0  0  0  0
  -21.2080   -5.8730   25.0410 C   0  0  0  0  0  3  0  0  0  0  0  0
  -21.4990   -4.5010   24.9300 C   0  0  0  0  0  0  0  0  0  0  0  0
  -21.8610   -3.9560   23.6850 C   0  0  0  0  0  3  0  0  0  0  0  0
  -21.9290   -4.7830   22.5510 C   0  0  0  0  0  0  0  0  0  0  0  0
  -22.2570   -4.2500   21.3500 F   0  0  0  0  0  0  0  0  0  0  0  0
  -21.4260   -3.7010   26.0200 F   0  0  0  0  0  0  0  0  0  0  0  0
  -22.7660  -13.5530   21.1440 C   0  0  0  0  0  0  0  0  0  0  0  0
  -22.0420  -12.8660   22.0210 N   0  0  0  0  0  0  0  0  0  0  0  0
  -22.3250  -14.5770   20.6200 O   0  0  0  0  0  0  0  0  0  0  0  0
  -22.4120  -12.0450   22.4760 H   0  0  0  0  0  0  0  0  0  0  0  0
  -21.1060  -13.1730   22.2440 H   0  0  0  0  0  0  0  0  0  0  0  0
  -25.3930  -15.2070   20.2990 N   0  0  0  0  0  0  0  0  0  0  0  0
  -24.6320  -15.8630   20.4360 H   0  0  0  0  0  0  0  0  0  0  0  0
  -26.2460  -15.6470   19.9720 H   0  0  0  0  0  0  0  0  0  0  0  0
  -29.4960  -22.0190   19.7450 C   0  0  0  0  0  2  0  0  0  0  0  0
  -29.2470  -23.3650   19.0510 C   0  0  0  0  0  2  0  0  0  0  0  0
  -28.8380  -24.4900   20.0090 C   0  0  0  0  0  2  0  0  0  0  0  0
  -28.8780  -25.8470   19.3010 C   0  0  0  0  0  2  0  0  0  0  0  0
  -28.5320  -26.8620   20.2280 O   0  0  0  0  0  0  0  0  0  0  0  0
  -24.5970  -31.8700   23.2380 C   0  0  0  0  0  0  0  0  0  0  0  0
  -27.3020  -27.4730   20.1900 C   0  0  0  0  0  0  0  0  0  0  0  0
  -23.3990  -30.4530   21.5940 C   0  0  0  0  0  3  0  0  0  0  0  0
  -24.8690  -28.9100   20.1880 C   0  0  0  0  0  0  0  0  0  0  0  0
  -25.9140  -30.8390   21.3990 C   0  0  0  0  0  2  0  0  0  0  0  0
  -26.0090  -29.4610   20.7800 C   0  0  0  0  0  0  0  0  0  0  0  0
  -27.2200  -28.7440   20.7850 C   0  0  0  0  0  3  0  0  0  0  0  0
  -26.1420  -26.9130   19.6030 C   0  0  0  0  0  3  0  0  0  0  0  0
  -24.9270  -27.6310   19.5990 C   0  0  0  0  0  3  0  0  0  0  0  0
  -23.6150  -29.7530   20.2220 C   0  0  0  0  0  2  0  0  0  0  0  0
  -24.6530  -31.0690   22.1370 N   0  0  0  0  0  0  0  0  0  0  0  0
  -23.5130  -32.1390   23.7750 O   0  0  0  0  0  0  0  0  0  0  0  0
  -22.7460  -29.4420   22.5620 C   0  0  0  0  0  0  0  0  0  0  0  0
  -21.4210  -29.2610   22.4300 N   0  0  0  0  0  0  0  0  0  0  0  0
  -23.4280  -28.8210   23.3810 O   0  0  0  0  0  0  0  0  0  0  0  0
  -20.9350  -29.8130   21.7360 H   0  0  0  0  0  0  0  0  0  0  0  0
  -18.0450  -28.0770   22.9150 C   0  0  0  0  0  0  0  0  0  0  0  0
  -20.6000  -28.3280   23.2030 C   0  0  0  0  0  3  0  0  0  0  0  0
  -20.7030  -26.8950   22.6340 C   0  0  0  0  0  2  0  0  0  0  0  0
  -19.6070  -26.5700   21.6140 C   0  0  0  0  0  2  0  0  0  0  0  0
  -18.2210  -26.7230   22.2480 C   0  0  0  0  0  2  0  0  0  0  0  0
  -19.1630  -28.8360   23.3490 C   0  0  0  0  0  0  0  0  0  0  0  0
  -18.9450  -30.1040   23.9330 C   0  0  0  0  0  3  0  0  0  0  0  0
  -17.6420  -30.6110   24.0860 C   0  0  0  0  0  3  0  0  0  0  0  0
  -16.5380  -29.8480   23.6690 C   0  0  0  0  0  3  0  0  0  0  0  0
  -16.7400  -28.5820   23.0910 C   0  0  0  0  0  3  0  0  0  0  0  0
  -25.8820  -32.5020   23.8600 C   0  0  0  0  0  3  0  0  0  0  0  0
  -25.5740  -33.8990   24.1870 N   0  0  0  0  0  0  0  0  0  0  0  0
  -25.9140  -34.9480   23.4280 C   0  0  0  0  0  0  0  0  0  0  0  0
  -26.5890  -34.8410   22.4000 O   0  0  0  0  0  0  0  0  0  0  0  0
  -24.9660  -34.0540   24.9770 H   0  0  0  0  0  0  0  0  0  0  0  0
  -24.1850  -36.7360   23.0640 C   0  0  0  0  0  1  0  0  0  0  0  0
  -25.4270  -36.3390   23.8780 C   0  0  0  0  0  3  0  0  0  0  0  0
  -27.5630  -37.2260   24.7010 C   0  0  0  0  0  1  0  0  0  0  0  0
  -26.4590  -37.3920   23.7590 N   0  0  0  0  0  0  0  0  0  0  0  0
  -26.0530  -38.3130   23.9050 H   0  0  0  0  0  0  0  0  0  0  0  0
  -26.4010  -31.7290   25.1340 C   0  0  1  0  0  0  0  0  0  0  0  0
  -25.3080  -31.4930   26.2020 C   0  0  0  0  0  1  0  0  0  0  0  0
  -26.9830  -30.3530   24.7370 C   0  0  0  0  0  1  0  0  0  0  0  0
  -27.5520  -32.5230   25.7930 C   0  0  0  0  0  1  0  0  0  0  0  0
  1 46  1  0
  2  7  1  0
  4  2  1  0
  4  6  1  0
  4  5  1  0
  5  3  1  0
  6  1  1  0
  6  5  1  0
  7 16  1  0
  7  3  1  0
  8 16  1  0
  9 14  1  0
 10 11  1  0
 10  9  1  0
 12 11  1  0
 12 21  1  0
 12 13  1  0
 14  8  1  0
 14 13  1  0
 15  8  2  0
 16 17  1  0
 18 19  2  0
 19 38  1  0
 20 19  1  0
 20 23  1  0
 21 18  1  0
 21 22  1  0
 22 20  2  0
 23 24  1  0
 24 25  2  0
 26 29  1  0
 26 25  1  0
 27 26  2  0
 28 27  1  0
 28 23  2  0
 29 30  1  0
 30 31  1  0
 31 32  2  0
 33 32  1  0
 33 37  1  0
 34 33  2  0
 35 30  2  0
 35 34  1  0
 36 35  1  0
 38 39  1  0
 39 42  1  0
 39 41  1  0
 40 38  2  0
 43 44  1  0
 43 18  1  0
 45 43  1  0
 47 46  1  0
 47 48  1  0
 49 48  1  0
 49 50  1  0
 51 62  2  0
 52 50  1  0
 52 57  1  0
 53 61  1  0
 53 63  1  0
 54 60  1  0
 54 56  1  0
 55 61  1  0
 56 57  2  0
 56 55  1  0
 58 52  2  0
 59 58  1  0
 59 54  2  0
 60 53  1  0
 61 51  1  0
 63 65  2  0
 64 63  1  0
 66 64  1  0
 67 76  2  0
 67 72  1  0
 68 64  1  0
 68 72  1  0
 69 68  1  0
 70 71  1  0
 70 69  1  0
 71 67  1  0
 72 73  2  0
 73 74  1  0
 75 74  2  0
 76 75  1  0
 77 51  1  0
 77 78  1  0
 77 87  1  0
 78 81  1  0
 79 83  1  0
 79 78  1  0
 80 79  2  0
 83 82  1  0
 85 83  1  0
 85 86  1  0
 85 84  1  0
 87 90  1  1
 87 88  1  0
 89 87  1  0
M  ISO  4   8 100  16 100  49 101  50 101
M  END
>  <TORSDO>  (85) 
F 21

>  <SCORE>  (85) 
-13.294

>  <name>  (85) 
85

>  <ligand_id>  (85) 
85

>  <original_smiles>  (85) 
[H]c1c([H])c([H])c2c(c1[H])C([H])([H])C([H])([H])C([H])([H])C2([H])N([H])C(=O)C1([H])N(C(=O)C([H])(N([H])C(=O)C([H])(N([H])C([H])([H])[H])C([H])([H])[H])C(C([H])([H])[H])(C([H])([H])[H])C([H])([H])[H])C([H])([H])c2c([H])c(OC([H])([H])C([H])([H])C([H])([H])C([H])([H])C([H])([H])C3([H])C4([H])C([H])([H])C([H])(N([H])C(=O)N5C([H])([H])C([H])([H])C([H])([H])C([H])(n6nc(-c7c([H])c([H])c(Oc8c([H])c([H])c(F)c([H])c8F)c([H])c7[H])c(C(=O)N([H])[H])c6N([H])[H])C5([H])[H])C([H])([H])C34[H])c([H])c([H])c2C1([H])[H]

>  <smiles>  (85) 
[H]c1c([H])c([H])c2c(c1[H])C([H])([H])C([H])([H])C([H])([H])C2([H])N([H])C(=O)C1([H])N(C(=O)C([H])(N([H])C(=O)C([H])(N([H])C([H])([H])[H])C([H])([H])[H])C(C([H])([H])[H])(C([H])([H])[H])C([H])([H])[H])C([H])([H])c2c([H])c(OC([H])([H])C([H])([H])C([H])([H])C([H])([H])C([H])([H])C3([H])C4([H])C([H])([H])C([H])(N([H])C(=O)N5C([H])([H])C([H])([H])C([H])([H])C([H])(n6nc(-c7c([H])c([H])c(Oc8c([H])c([H])c(F)c([H])c8F)c([H])c7[H])c(C(=O)N([H])[H])c6N([H])[H])C5([H])[H])C([H])([H])C34[H])c([H])c([H])c2C1([H])[H]

$$$$
86:0:0
     RDKit          3D

 96104  0  0  1  0  0  0  0  0999 V2000
  -29.4280  -19.4240   21.6120 C   0  0  0  0  0  2  0  0  0  0  0  0
  -29.3980  -20.9310   21.1930 C   0  0  0  0  0  2  0  0  0  0  0  0
  -29.2780  -18.6730   19.2640 C   0  0  0  0  0  2  0  0  0  0  0  0
  -30.1110  -18.5080   20.5520 C   0  0  0  0  0  3  0  0  0  0  0  0
  -28.6850  -21.2370   19.8490 C   0  0  0  0  0  3  0  0  0  0  0  0
  -29.1890  -20.1750   18.7830 C   0  0  0  0  0  3  0  0  0  0  0  0
  -28.8680  -22.7510   19.3620 C   0  0  0  0  0  2  0  0  0  0  0  0
  -28.3130  -24.0020   20.1640 C   0  0  0  0  0  2  0  0  0  0  0  0
  -28.4560  -25.3880   19.3970 C   0  0  0  0  0  2  0  0  0  0  0  0
  -28.3500  -26.6610   20.1180 O   0  0  0  0  0  0  0  0  0  0  0  0
  -24.7480  -31.9300   23.3880 C   0  0  0  0  0  0  0  0  0  0  0  0
  -27.2030  -27.4610   20.1090 C   0  0  0  0  0  0  0  0  0  0  0  0
  -23.4760  -30.6160   21.7250 C   0  0  0  0  0  3  0  0  0  0  0  0
  -24.8610  -29.0890   20.2110 C   0  0  0  0  0  0  0  0  0  0  0  0
  -26.0120  -30.8990   21.4920 C   0  0  0  0  0  2  0  0  0  0  0  0
  -26.0470  -29.5450   20.7980 C   0  0  0  0  0  0  0  0  0  0  0  0
  -27.2170  -28.7400   20.7410 C   0  0  0  0  0  3  0  0  0  0  0  0
  -25.9920  -27.0380   19.5190 C   0  0  0  0  0  3  0  0  0  0  0  0
  -24.8330  -27.8400   19.5680 C   0  0  0  0  0  3  0  0  0  0  0  0
  -23.6420  -29.9820   20.3170 C   0  0  0  0  0  2  0  0  0  0  0  0
  -24.7650  -31.1630   22.2590 N   0  0  0  0  0  0  0  0  0  0  0  0
  -23.6830  -32.2090   23.9590 O   0  0  0  0  0  0  0  0  0  0  0  0
  -22.8160  -29.5800   22.6630 C   0  0  0  0  0  0  0  0  0  0  0  0
  -21.4910  -29.4010   22.5270 N   0  0  0  0  0  0  0  0  0  0  0  0
  -23.4940  -28.9410   23.4730 O   0  0  0  0  0  0  0  0  0  0  0  0
  -21.0040  -29.9690   21.8470 H   0  0  0  0  0  0  0  0  0  0  0  0
  -18.1260  -28.1450   22.9370 C   0  0  0  0  0  0  0  0  0  0  0  0
  -20.6710  -28.4480   23.2750 C   0  0  0  0  0  3  0  0  0  0  0  0
  -20.8140  -27.0190   22.6980 C   0  0  0  0  0  2  0  0  0  0  0  0
  -19.7440  -26.6820   21.6560 C   0  0  0  0  0  2  0  0  0  0  0  0
  -18.3440  -26.8000   22.2640 C   0  0  0  0  0  2  0  0  0  0  0  0
  -19.2200  -28.9250   23.3980 C   0  0  0  0  0  0  0  0  0  0  0  0
  -18.9650  -30.1830   23.9840 C   0  0  0  0  0  3  0  0  0  0  0  0
  -17.6480  -30.6620   24.1190 C   0  0  0  0  0  3  0  0  0  0  0  0
  -16.5680  -29.8780   23.6770 C   0  0  0  0  0  3  0  0  0  0  0  0
  -16.8080  -28.6230   23.0910 C   0  0  0  0  0  3  0  0  0  0  0  0
  -26.0590  -32.5110   24.0030 C   0  0  0  0  0  3  0  0  0  0  0  0
  -26.5750  -31.6920   25.2490 C   0  0  1  0  0  0  0  0  0  0  0  0
  -25.4880  -31.4380   26.3200 C   0  0  0  0  0  1  0  0  0  0  0  0
  -27.1350  -30.3200   24.8090 C   0  0  0  0  0  1  0  0  0  0  0  0
  -27.7430  -32.4490   25.9260 C   0  0  0  0  0  1  0  0  0  0  0  0
  -25.7940  -33.9070   24.3760 N   0  0  0  0  0  0  0  0  0  0  0  0
  -26.1380  -34.9720   23.6400 C   0  0  0  0  0  0  0  0  0  0  0  0
  -26.7820  -34.8790   22.5910 O   0  0  0  0  0  0  0  0  0  0  0  0
  -25.2240  -34.0550   25.1960 H   0  0  0  0  0  0  0  0  0  0  0  0
  -24.4440  -36.8130   23.3780 C   0  0  0  0  0  1  0  0  0  0  0  0
  -25.6960  -36.3590   24.1440 C   0  0  0  0  0  3  0  0  0  0  0  0
  -27.8720  -37.1720   24.9380 C   0  0  0  0  0  1  0  0  0  0  0  0
  -26.7490  -37.3910   24.0300 N   0  0  0  0  0  0  0  0  0  0  0  0
  -26.3700  -38.3160   24.2130 H   0  0  0  0  0  0  0  0  0  0  0  0
  -28.4580  -20.2540   17.4170 C   0  0  0  0  0  2  0  0  0  0  0  0
  -27.0160  -19.9640   17.5070 N   0  0  0  0  0  4  0  0  0  0  0  0
  -26.8570  -19.0040   17.7530 H   0  0  0  0  0  0  0  0  0  0  0  0
  -26.5820  -20.1310   16.6170 H   0  0  0  0  0  0  0  0  0  0  0  0
  -26.5670  -20.5540   18.1860 H   0  0  0  0  0  0  0  0  0  0  0  0
  -30.6370  -17.0470   20.9900 C   0  0  0  0  0  3  0  0  0  0  0  0
  -30.6750  -14.7160   19.9260 C   0  0  0  0  0  0  0  0  0  0  0  0
  -30.3460  -12.5200   18.8100 C   0  0  0  0  0  2  0  0  0  0  0  0
  -29.3150  -12.6630   17.6710 C   0  0  0  0  0  2  0  0  0  0  0  0
  -27.8830  -12.4860   18.2130 C   0  0  0  0  0  2  0  0  0  0  0  0
  -27.6160  -13.3330   19.4870 C   0  0  0  0  0  3  0  0  0  0  0  0
  -28.7550  -13.1760   20.5160 C   0  0  0  0  0  2  0  0  0  0  0  0
  -30.0090  -13.5260   19.8370 N   0  0  0  0  0  0  0  0  0  0  0  0
  -31.8020  -14.8470   19.4410 O   0  0  0  0  0  0  0  0  0  0  0  0
  -30.0090  -15.7860   20.4650 N   0  0  0  0  0  0  0  0  0  0  0  0
  -29.0540  -15.6160   20.7400 H   0  0  0  0  0  0  0  0  0  0  0  0
  -25.2840  -13.9010   20.3990 C   0  0  0  0  0  0  0  0  0  0  0  0
  -24.2520  -13.1130   20.8340 C   0  0  0  0  0  0  0  0  0  0  0  0
  -24.7180  -11.7650   20.7410 C   0  0  0  0  0  0  0  0  0  0  0  0
  -26.3110  -13.0310   20.0690 N   0  0  0  0  0  0  0  0  0  0  0  0
  -25.9810  -11.7420   20.3350 N   0  0  0  0  0  0  0  0  0  0  0  0
  -24.0140  -10.4950   20.9600 C   0  0  0  0  0  0  0  0  0  0  0  0
  -24.4910   -9.5370   21.8830 C   0  0  0  0  0  3  0  0  0  0  0  0
  -23.7870   -8.3300   22.0880 C   0  0  0  0  0  3  0  0  0  0  0  0
  -22.5930   -8.0730   21.3730 C   0  0  0  0  0  0  0  0  0  0  0  0
  -22.1360   -9.0210   20.4400 C   0  0  0  0  0  3  0  0  0  0  0  0
  -22.8410  -10.2180   20.2320 C   0  0  0  0  0  3  0  0  0  0  0  0
  -21.8570   -6.9190   21.4900 O   0  0  0  0  0  0  0  0  0  0  0  0
  -21.8160   -6.2080   22.6620 C   0  0  0  0  0  0  0  0  0  0  0  0
  -21.3690   -6.7860   23.8700 C   0  0  0  0  0  3  0  0  0  0  0  0
  -21.2770   -6.0000   25.0350 C   0  0  0  0  0  3  0  0  0  0  0  0
  -21.6220   -4.6350   24.9940 C   0  0  0  0  0  0  0  0  0  0  0  0
  -22.0610   -4.0560   23.7910 C   0  0  0  0  0  3  0  0  0  0  0  0
  -22.1550   -4.8400   22.6270 C   0  0  0  0  0  0  0  0  0  0  0  0
  -22.5590   -4.2720   21.4650 F   0  0  0  0  0  0  0  0  0  0  0  0
  -21.5260   -3.8770   26.1110 F   0  0  0  0  0  0  0  0  0  0  0  0
  -22.8770  -13.5760   21.2200 C   0  0  0  0  0  0  0  0  0  0  0  0
  -22.2220  -12.8610   22.1290 N   0  0  0  0  0  0  0  0  0  0  0  0
  -22.3940  -14.6050   20.7510 O   0  0  0  0  0  0  0  0  0  0  0  0
  -22.6270  -12.0280   22.5300 H   0  0  0  0  0  0  0  0  0  0  0  0
  -21.3040  -13.1520   22.4300 H   0  0  0  0  0  0  0  0  0  0  0  0
  -25.4280  -15.2750   20.2360 N   0  0  0  0  0  0  0  0  0  0  0  0
  -24.6690  -15.9230   20.4150 H   0  0  0  0  0  0  0  0  0  0  0  0
  -26.2480  -15.7230   19.8490 H   0  0  0  0  0  0  0  0  0  0  0  0
  -31.5430  -15.6470   23.0020 C   0  0  0  0  0  1  0  0  0  0  0  0
  -30.8300  -16.9230   22.5240 C   0  0  0  0  0  2  0  0  0  0  0  0
  2  1  1  0
  3  4  1  0
  4 56  1  0
  4  1  1  0
  5  7  1  0
  5  2  1  0
  6 51  1  0
  6  3  1  0
  6  5  1  0
  7  8  1  0
  9 10  1  0
  9  8  1  0
 11 22  2  0
 12 10  1  0
 12 17  1  0
 13 21  1  0
 13 23  1  0
 14 20  1  0
 14 16  1  0
 15 21  1  0
 16 15  1  0
 17 16  2  0
 18 19  1  0
 18 12  2  0
 19 14  2  0
 20 13  1  0
 21 11  1  0
 23 25  2  0
 24 23  1  0
 26 24  1  0
 27 36  2  0
 27 32  1  0
 28 24  1  0
 28 32  1  0
 29 28  1  0
 30 31  1  0
 30 29  1  0
 31 27  1  0
 32 33  2  0
 33 34  1  0
 35 34  2  0
 36 35  1  0
 37 11  1  0
 37 42  1  0
 37 38  1  0
 38 41  1  1
 38 39  1  0
 40 38  1  0
 42 45  1  0
 43 47  1  0
 43 42  1  0
 44 43  2  0
 47 46  1  0
 49 47  1  0
 49 50  1  0
 49 48  1  0
 51 52  1  0
 52 53  1  0
 52 55  1  0
 54 52  1  0
 56 96  1  0
 57 65  1  0
 58 63  1  0
 59 60  1  0
 59 58  1  0
 61 60  1  0
 61 70  1  0
 61 62  1  0
 63 57  1  0
 63 62  1  0
 64 57  2  0
 65 66  1  0
 65 56  1  0
 67 68  2  0
 68 87  1  0
 69 68  1  0
 69 72  1  0
 70 71  1  0
 70 67  1  0
 71 69  2  0
 72 73  1  0
 73 74  2  0
 75 78  1  0
 75 74  1  0
 76 75  2  0
 77 76  1  0
 77 72  2  0
 78 79  1  0
 79 80  1  0
 80 81  2  0
 82 81  1  0
 82 86  1  0
 83 82  2  0
 84 79  2  0
 84 83  1  0
 85 84  1  0
 87 88  1  0
 88 91  1  0
 88 90  1  0
 89 87  2  0
 92 67  1  0
 92 93  1  0
 94 92  1  0
 96 95  1  0
M  ISO  4   9 101  10 101  57 100  65 100
M  END
>  <TORSDO>  (86) 
F 23

>  <SCORE>  (86) 
-10.591

>  <name>  (86) 
86

>  <ligand_id>  (86) 
86

>  <original_smiles>  (86) 
[H]c1c([H])c([H])c2c(c1[H])C([H])([H])C([H])([H])C([H])([H])C2([H])N([H])C(=O)C1([H])N(C(=O)C([H])(N([H])C(=O)C([H])(N([H])C([H])([H])[H])C([H])([H])[H])C(C([H])([H])[H])(C([H])([H])[H])C([H])([H])[H])C([H])([H])c2c([H])c(OC([H])([H])C([H])([H])C([H])([H])C3([H])C([H])([H])C([H])([H])C([H])(C([H])(N([H])C(=O)N4C([H])([H])C([H])([H])C([H])([H])C([H])(n5nc(-c6c([H])c([H])c(Oc7c([H])c([H])c(F)c([H])c7F)c([H])c6[H])c(C(=O)N([H])[H])c5N([H])[H])C4([H])[H])C([H])([H])C([H])([H])[H])C([H])([H])C3([H])C([H])([H])[N+]([H])([H])[H])c([H])c([H])c2C1([H])[H]

>  <smiles>  (86) 
[H]c1c([H])c([H])c2c(c1[H])C([H])([H])C([H])([H])C([H])([H])C2([H])N([H])C(=O)C1([H])N(C(=O)C([H])(N([H])C(=O)C([H])(N([H])C([H])([H])[H])C([H])([H])[H])C(C([H])([H])[H])(C([H])([H])[H])C([H])([H])[H])C([H])([H])c2c([H])c(OC([H])([H])C([H])([H])C([H])([H])C3([H])C([H])([H])C([H])([H])C([H])(C([H])(N([H])C(=O)N4C([H])([H])C([H])([H])C([H])([H])C([H])(n5nc(-c6c([H])c([H])c(Oc7c([H])c([H])c(F)c([H])c7F)c([H])c6[H])c(C(=O)N([H])[H])c5N([H])[H])C4([H])[H])C([H])([H])C([H])([H])[H])C([H])([H])C3([H])C([H])([H])[N+]([H])([H])[H])c([H])c([H])c2C1([H])[H]

$$$$
87:0:0
     RDKit          3D

 94101  0  0  1  0  0  0  0  0999 V2000
  -28.6950  -20.9500   20.1550 C   0  0  0  0  0  2  0  0  0  0  0  0
  -29.7890  -19.8740   20.6210 C   0  0  0  0  0  3  0  0  0  0  0  0
  -31.0690  -20.0530   19.7580 C   0  0  0  0  0  2  0  0  0  0  0  0
  -32.4020  -19.9290   20.5320 C   0  0  0  0  0  2  0  0  0  0  0  0
  -33.5750  -20.0280   19.6410 N   0  0  0  0  0  4  0  0  0  0  0  0
  -33.5980  -19.2620   18.9890 H   0  0  0  0  0  0  0  0  0  0  0  0
  -34.4240  -20.0000   20.1780 H   0  0  0  0  0  0  0  0  0  0  0  0
  -33.5670  -20.8890   19.1250 H   0  0  0  0  0  0  0  0  0  0  0  0
  -29.2990  -18.3340   20.6180 C   0  0  0  0  0  3  0  0  0  0  0  0
  -30.3660  -17.1590   20.8100 C   0  0  0  0  0  3  0  0  0  0  0  0
  -30.6210  -14.6300   20.4460 C   0  0  0  0  0  0  0  0  0  0  0  0
  -30.3730  -12.4150   19.3560 C   0  0  0  0  0  2  0  0  0  0  0  0
  -29.4330  -12.5530   18.1380 C   0  0  0  0  0  2  0  0  0  0  0  0
  -27.9660  -12.3810   18.5700 C   0  0  0  0  0  2  0  0  0  0  0  0
  -27.6030  -13.2480   19.8070 C   0  0  0  0  0  3  0  0  0  0  0  0
  -28.6580  -13.1030   20.9260 C   0  0  0  0  0  2  0  0  0  0  0  0
  -29.9670  -13.4330   20.3450 N   0  0  0  0  0  0  0  0  0  0  0  0
  -31.7820  -14.7590   20.0460 O   0  0  0  0  0  0  0  0  0  0  0  0
  -29.8940  -15.7290   20.8220 N   0  0  0  0  0  0  0  0  0  0  0  0
  -28.9570  -15.5490   21.1520 H   0  0  0  0  0  0  0  0  0  0  0  0
  -25.2110  -13.8470   20.5220 C   0  0  0  0  0  0  0  0  0  0  0  0
  -24.1430  -13.0740   20.8900 C   0  0  0  0  0  0  0  0  0  0  0  0
  -24.6050  -11.7230   20.8590 C   0  0  0  0  0  0  0  0  0  0  0  0
  -26.2550  -12.9660   20.2890 N   0  0  0  0  0  0  0  0  0  0  0  0
  -25.8960  -11.6840   20.5530 N   0  0  0  0  0  0  0  0  0  0  0  0
  -23.8790  -10.4610   21.0490 C   0  0  0  0  0  0  0  0  0  0  0  0
  -24.3180   -9.4910   21.9770 C   0  0  0  0  0  3  0  0  0  0  0  0
  -23.5940   -8.2920   22.1550 C   0  0  0  0  0  3  0  0  0  0  0  0
  -22.4160   -8.0550   21.4080 C   0  0  0  0  0  0  0  0  0  0  0  0
  -21.9970   -9.0130   20.4670 C   0  0  0  0  0  3  0  0  0  0  0  0
  -22.7210  -10.2030   20.2870 C   0  0  0  0  0  3  0  0  0  0  0  0
  -21.6640   -6.9090   21.4930 O   0  0  0  0  0  0  0  0  0  0  0  0
  -21.6260   -6.1590   22.6400 C   0  0  0  0  0  0  0  0  0  0  0  0
  -21.2150   -6.7040   23.8760 C   0  0  0  0  0  3  0  0  0  0  0  0
  -21.1250   -5.8790   25.0140 C   0  0  0  0  0  3  0  0  0  0  0  0
  -21.4370   -4.5100   24.9190 C   0  0  0  0  0  0  0  0  0  0  0  0
  -21.8410   -3.9630   23.6880 C   0  0  0  0  0  3  0  0  0  0  0  0
  -21.9330   -4.7860   22.5520 C   0  0  0  0  0  0  0  0  0  0  0  0
  -22.3020   -4.2510   21.3640 F   0  0  0  0  0  0  0  0  0  0  0  0
  -21.3420   -3.7140   26.0100 F   0  0  0  0  0  0  0  0  0  0  0  0
  -22.7470  -13.5520   21.1580 C   0  0  0  0  0  0  0  0  0  0  0  0
  -22.0190  -12.8560   22.0250 N   0  0  0  0  0  0  0  0  0  0  0  0
  -22.3100  -14.5770   20.6350 O   0  0  0  0  0  0  0  0  0  0  0  0
  -22.3890  -12.0320   22.4730 H   0  0  0  0  0  0  0  0  0  0  0  0
  -21.0770  -13.1510   22.2400 H   0  0  0  0  0  0  0  0  0  0  0  0
  -25.3800  -15.2180   20.3460 N   0  0  0  0  0  0  0  0  0  0  0  0
  -24.6180  -15.8760   20.4500 H   0  0  0  0  0  0  0  0  0  0  0  0
  -26.2310  -15.6520   20.0130 H   0  0  0  0  0  0  0  0  0  0  0  0
  -28.4590  -22.3560   20.8960 C   0  0  0  0  0  2  0  0  0  0  0  0
  -28.9880  -23.7630   20.3290 C   0  0  0  0  0  3  0  0  0  0  0  0
  -31.3490  -24.7220   19.7980 C   0  0  0  0  0  1  0  0  0  0  0  0
  -30.4750  -23.8730   20.7300 C   0  0  0  0  0  2  0  0  0  0  0  0
  -28.1260  -25.0500   20.7960 C   0  0  0  0  0  2  0  0  0  0  0  0
  -28.3480  -26.4370   20.2830 O   0  0  0  0  0  0  0  0  0  0  0  0
  -24.6070  -31.8870   23.2400 C   0  0  0  0  0  0  0  0  0  0  0  0
  -27.2380  -27.3040   20.2390 C   0  0  0  0  0  0  0  0  0  0  0  0
  -23.4100  -30.4820   21.5980 C   0  0  0  0  0  3  0  0  0  0  0  0
  -24.8740  -28.9250   20.1840 C   0  0  0  0  0  0  0  0  0  0  0  0
  -25.9520  -30.7960   21.4300 C   0  0  0  0  0  2  0  0  0  0  0  0
  -26.0370  -29.4130   20.7940 C   0  0  0  0  0  0  0  0  0  0  0  0
  -27.2230  -28.6160   20.8120 C   0  0  0  0  0  3  0  0  0  0  0  0
  -26.0580  -26.8760   19.5910 C   0  0  0  0  0  3  0  0  0  0  0  0
  -24.8900  -27.6630   19.5660 C   0  0  0  0  0  3  0  0  0  0  0  0
  -23.6330  -29.7980   20.2220 C   0  0  0  0  0  2  0  0  0  0  0  0
  -24.6740  -31.0730   22.1470 N   0  0  0  0  0  0  0  0  0  0  0  0
  -23.5220  -32.1670   23.7690 O   0  0  0  0  0  0  0  0  0  0  0  0
  -22.7440  -29.4710   22.5600 C   0  0  0  0  0  0  0  0  0  0  0  0
  -21.4170  -29.2970   22.4340 N   0  0  0  0  0  0  0  0  0  0  0  0
  -23.4210  -28.8460   23.3810 O   0  0  0  0  0  0  0  0  0  0  0  0
  -20.9300  -29.8530   21.7460 H   0  0  0  0  0  0  0  0  0  0  0  0
  -18.0350  -28.1140   22.9420 C   0  0  0  0  0  0  0  0  0  0  0  0
  -20.5950  -28.3650   23.2080 C   0  0  0  0  0  3  0  0  0  0  0  0
  -20.6910  -26.9300   22.6380 C   0  0  0  0  0  2  0  0  0  0  0  0
  -19.5870  -26.6090   21.6250 C   0  0  0  0  0  2  0  0  0  0  0  0
  -18.2060  -26.7630   22.2690 C   0  0  0  0  0  2  0  0  0  0  0  0
  -19.1570  -28.8740   23.3690 C   0  0  0  0  0  0  0  0  0  0  0  0
  -18.9430  -30.1370   23.9590 C   0  0  0  0  0  3  0  0  0  0  0  0
  -17.6390  -30.6450   24.1220 C   0  0  0  0  0  3  0  0  0  0  0  0
  -16.5330  -29.8840   23.7090 C   0  0  0  0  0  3  0  0  0  0  0  0
  -16.7310  -28.6200   23.1260 C   0  0  0  0  0  3  0  0  0  0  0  0
  -25.8890  -32.5230   23.8630 C   0  0  0  0  0  3  0  0  0  0  0  0
  -26.4010  -31.7570   25.1440 C   0  0  1  0  0  0  0  0  0  0  0  0
  -25.3030  -31.5280   26.2090 C   0  0  0  0  0  1  0  0  0  0  0  0
  -26.9850  -30.3760   24.7620 C   0  0  0  0  0  1  0  0  0  0  0  0
  -27.5530  -32.5510   25.8040 C   0  0  0  0  0  1  0  0  0  0  0  0
  -25.5760  -33.9210   24.1880 N   0  0  0  0  0  0  0  0  0  0  0  0
  -25.9090  -34.9740   23.4290 C   0  0  0  0  0  0  0  0  0  0  0  0
  -26.5810  -34.8690   22.4000 O   0  0  0  0  0  0  0  0  0  0  0  0
  -24.9780  -34.0760   24.9870 H   0  0  0  0  0  0  0  0  0  0  0  0
  -24.1820  -36.7660   23.0680 C   0  0  0  0  0  1  0  0  0  0  0  0
  -25.4200  -36.3630   23.8820 C   0  0  0  0  0  3  0  0  0  0  0  0
  -27.5540  -37.2490   24.7160 C   0  0  0  0  0  1  0  0  0  0  0  0
  -26.4530  -37.4150   23.7710 N   0  0  0  0  0  0  0  0  0  0  0  0
  -26.0450  -38.3350   23.9190 H   0  0  0  0  0  0  0  0  0  0  0  0
  1  2  1  0
  1 49  1  0
  2  3  1  0
  3  4  1  0
  5  7  1  0
  5  4  1  0
  6  5  1  0
  8  5  1  0
  9  2  1  0
  9 10  2  0
 10 19  1  0
 11 19  1  0
 12 17  1  0
 13 14  1  0
 13 12  1  0
 15 14  1  0
 15 24  1  0
 15 16  1  0
 17 11  1  0
 17 16  1  0
 18 11  2  0
 19 20  1  0
 21 22  2  0
 22 41  1  0
 23 22  1  0
 23 26  1  0
 24 21  1  0
 24 25  1  0
 25 23  2  0
 26 27  1  0
 27 28  2  0
 29 32  1  0
 29 28  1  0
 30 29  2  0
 31 30  1  0
 31 26  2  0
 32 33  1  0
 33 34  1  0
 34 35  2  0
 36 35  1  0
 36 40  1  0
 37 36  2  0
 38 33  2  0
 38 37  1  0
 39 38  1  0
 41 42  1  0
 42 45  1  0
 42 44  1  0
 43 41  2  0
 46 47  1  0
 46 21  1  0
 48 46  1  0
 50 52  1  0
 50 53  1  0
 50 49  1  0
 51 52  1  0
 54 53  1  0
 55 66  2  0
 56 54  1  0
 56 61  1  0
 57 65  1  0
 57 67  1  0
 58 64  1  0
 58 60  1  0
 59 65  1  0
 60 61  2  0
 60 59  1  0
 62 56  2  0
 63 62  1  0
 63 58  2  0
 64 57  1  0
 65 55  1  0
 67 69  2  0
 68 67  1  0
 70 68  1  0
 71 80  2  0
 71 76  1  0
 72 68  1  0
 72 76  1  0
 73 72  1  0
 74 75  1  0
 74 73  1  0
 75 71  1  0
 76 77  2  0
 77 78  1  0
 79 78  2  0
 80 79  1  0
 81 55  1  0
 81 86  1  0
 81 82  1  0
 82 85  1  1
 82 83  1  0
 84 82  1  0
 86 89  1  0
 87 91  1  0
 87 86  1  0
 88 87  2  0
 91 90  1  0
 93 91  1  0
 93 94  1  0
 93 92  1  0
M  ISO  4  11 100  19 100  53 101  54 101
M  END
>  <TORSDO>  (87) 
F 26

>  <SCORE>  (87) 
-12.134

>  <name>  (87) 
87

>  <ligand_id>  (87) 
87

>  <original_smiles>  (87) 
[H]c1c([H])c([H])c2c(c1[H])C([H])([H])C([H])([H])C([H])([H])C2([H])N([H])C(=O)C1([H])N(C(=O)C([H])(N([H])C(=O)C([H])(N([H])C([H])([H])[H])C([H])([H])[H])C(C([H])([H])[H])(C([H])([H])[H])C([H])([H])[H])C([H])([H])c2c([H])c(OC([H])([H])C([H])(C([H])([H])C([H])([H])[H])C([H])([H])C([H])([H])C([H])(C([H])([H])C([H])([H])N([H])C(=O)N3C([H])([H])C([H])([H])C([H])([H])C([H])(n4nc(-c5c([H])c([H])c(Oc6c([H])c([H])c(F)c([H])c6F)c([H])c5[H])c(C(=O)N([H])[H])c4N([H])[H])C3([H])[H])C([H])([H])C([H])([H])[N+]([H])([H])[H])c([H])c([H])c2C1([H])[H]

>  <smiles>  (87) 
[H]c1c([H])c([H])c2c(c1[H])C([H])([H])C([H])([H])C([H])([H])C2([H])N([H])C(=O)C1([H])N(C(=O)C([H])(N([H])C(=O)C([H])(N([H])C([H])([H])[H])C([H])([H])[H])C(C([H])([H])[H])(C([H])([H])[H])C([H])([H])[H])C([H])([H])c2c([H])c(OC([H])([H])C([H])(C([H])([H])C([H])([H])[H])C([H])([H])C([H])([H])C([H])(C([H])([H])C([H])([H])N([H])C(=O)N3C([H])([H])C([H])([H])C([H])([H])C([H])(n4nc(-c5c([H])c([H])c(Oc6c([H])c([H])c(F)c([H])c6F)c([H])c5[H])c(C(=O)N([H])[H])c4N([H])[H])C3([H])[H])C([H])([H])C([H])([H])[N+]([H])([H])[H])c([H])c([H])c2C1([H])[H]

$$$$
88:0:0
     RDKit          3D

 99 97  0  0  1  0  0  0  0  0999 V2000
  -31.0470  -13.9910   20.5240 C   0  0  0  0  0 15  0  0  0  0  0  0
  -30.6840  -16.1550   20.4590 C   0  0  0  0  0 15  0  0  0  0  0  0
  -28.8430  -15.8550   18.6710 C   0  0  0  0  0  2  0  0  0  0  0  0
  -27.9000  -15.8500   19.0060 C   0  0  0  0  0  1  0  0  0  0  0  0
  -29.4460  -13.0930   19.1740 C   0  0  0  0  0  1  0  0  0  0  0  0
  -27.9680  -12.9910   18.5900 C   0  0  0  0  0  3  0  0  0  0  0  0
  -29.0450  -17.1840   19.7490 C   0  0  0  0  0  1  0  0  0  0  0  0
  -25.7660  -12.1040   18.0940 C   0  0  0  0  0  1  0  0  0  0  0  0
  -23.6930  -12.2790   18.7940 C   0  0  0  0  0  2  0  0  0  0  0  0
  -22.8680  -12.6780   17.9680 O   0  0  0  0  0  0  0  0  0  0  0  0
  -22.8650  -11.7440   20.9780 C   0  0  0  0  0 15  0  0  0  0  0  0
  -24.5760  -12.2500   22.9140 C   0  0  0  0  0  1  0  0  0  0  0  0
  -28.5540  -12.3460   22.8570 C   0  0  1  0  0  0  0  0  0  0  0  0
  -31.2200  -10.9010   19.7970 C   0  0  0  0  0 15  0  0  0  0  0  0
  -30.1180  -10.6470   18.1330 C   0  0  0  0  0 15  0  0  0  0  0  0
  -28.3990  -11.6780   17.7060 C   0  0  0  0  0  1  0  0  0  0  0  0
  -27.0930  -12.3690   19.3370 C   0  0  0  0  0  3  0  0  0  0  0  0
  -27.8890  -11.9400   21.2190 C   0  0  0  0  0  2  0  0  0  0  0  0
  -29.2530  -11.9890   21.5230 N   0  0  0  0  0  2  0  0  0  0  0  0
  -29.6160  -12.2800   23.5500 O   0  0  0  0  0  1  0  0  0  0  0  0
  -26.7290  -12.3920   23.2210 N   0  0  0  0  0  2  0  0  0  0  0  0
  -26.7780  -12.5710   24.2110 H   0  0  0  0  0  0  0  0  0  0  0  0
  -25.7300  -13.2180   20.6470 C   0  0  0  0  0  3  0  0  0  0  0  0
  -24.7860  -12.5160   20.4530 C   0  0  2  0  0  0  0  0  0  0  0  0
  -25.0960  -10.8070   21.0830 C   0  0  0  0  0  3  0  0  0  0  0  0
  -26.3000  -12.0090   20.4190 N   0  0  2  0  0  4  0  0  0  0  0  0
  -26.0840  -10.6940   21.0540 N   0  0  0  0  0  2  0  0  0  0  0  0
  -24.1910   -9.2710   21.2230 C   0  0  0  0  0  0  0  0  0  0  0  0
  -23.6990   -8.7660   22.4690 C   0  0  0  0  0  3  0  0  0  0  0  0
  -22.4520   -8.0450   22.6520 C   0  0  0  0  0  3  0  0  0  0  0  0
  -21.4700   -7.8920   21.6300 C   0  0  0  0  0  0  0  0  0  0  0  0
  -21.8250   -8.3980   20.4000 C   0  0  0  0  0  3  0  0  0  0  0  0
  -23.1950   -8.7420   20.2400 C   0  0  0  0  0  3  0  0  0  0  0  0
  -20.2900   -7.1690   21.6730 O   0  0  0  0  0  0  0  0  0  0  0  0
  -20.0020   -6.3450   22.7270 C   0  0  0  0  0  0  0  0  0  0  0  0
  -19.6860   -6.9130   23.9760 C   0  0  0  0  0  3  0  0  0  0  0  0
  -19.3570   -6.0860   25.0650 C   0  0  0  0  0  3  0  0  0  0  0  0
  -19.3320   -4.6890   24.9050 C   0  0  0  0  0  0  0  0  0  0  0  0
  -19.6260   -4.1170   23.6520 C   0  0  0  0  0  3  0  0  0  0  0  0
  -19.9500   -4.9410   22.5600 C   0  0  0  0  0  0  0  0  0  0  0  0
  -20.2020   -4.3760   21.3520 F   0  0  0  0  0  0  0  0  0  0  0  0
  -19.0300   -3.8980   25.9590 F   0  0  0  0  0  0  0  0  0  0  0  0
  -23.5810  -13.4600   19.8250 C   0  0  2  0  0  0  0  0  0  0  0  0
  -22.4570  -13.7500   20.5040 N   0  0  0  0  0  0  0  0  0  0  0  0
  -23.5940  -13.8810   18.6810 O   0  0  0  0  0  0  0  0  0  0  0  0
  -22.3350  -13.4680   21.4570 H   0  0  0  0  0  0  0  0  0  0  0  0
  -21.7450  -14.3100   20.0560 H   0  0  0  0  0  0  0  0  0  0  0  0
  -26.0680  -14.5460   20.3900 N   0  0  0  0  0  0  0  0  0  0  0  0
  -25.4440  -15.3230   20.5710 H   0  0  0  0  0  0  0  0  0  0  0  0
  -27.0230  -14.8500   20.2600 H   0  0  0  0  0  0  0  0  0  0  0  0
  -23.9410  -13.3030   23.8500 C   0  0  0  0  0  2  0  0  0  0  0  0
  -22.4070  -13.5240   23.6850 C   0  0  0  0  0  2  0  0  0  0  0  0
  -21.5520  -12.4410   24.2170 N   0  0  0  0  0  4  0  0  0  0  0  0
  -21.7910  -11.5390   23.8520 H   0  0  0  0  0  0  0  0  0  0  0  0
  -20.5920  -12.6260   23.9670 H   0  0  0  0  0  0  0  0  0  0  0  0
  -21.5930  -12.4060   25.2210 H   0  0  0  0  0  0  0  0  0  0  0  0
  -28.7020  -19.7020   19.6530 C   0  0  0  0  0 15  0  0  0  0  0  0
  -27.9170  -22.0680   20.1040 C   0  0  0  0  0 15  0  0  0  0  0  0
  -27.8610  -24.3220   20.1400 O   0  0  0  0  0  1  0  0  0  0  0  0
  -24.5000  -31.8600   23.0390 C   0  0  0  0  0  0  0  0  0  0  0  0
  -26.9980  -25.9360   20.2090 C   0  0  0  0  0  0  0  0  0  0  0  0
  -23.3670  -30.3720   21.4630 C   0  0  0  0  0  3  0  0  0  0  0  0
  -24.8200  -28.5180   20.1520 C   0  0  0  0  0  0  0  0  0  0  0  0
  -25.9750  -30.2680   21.4470 C   0  0  0  0  0  2  0  0  0  0  0  0
  -26.0350  -28.7230   20.8120 C   0  0  0  0  0  0  0  0  0  0  0  0
  -27.0660  -27.4930   20.7820 C   0  0  0  0  0  3  0  0  0  0  0  0
  -25.7430  -26.1780   19.5060 C   0  0  0  0  0  3  0  0  0  0  0  0
  -24.7650  -27.2760   19.4770 C   0  0  0  0  0  3  0  0  0  0  0  0
  -23.6510  -29.5690   20.1470 C   0  0  0  0  0  2  0  0  0  0  0  0
  -24.6540  -30.8910   22.0340 N   0  0  0  0  0  0  0  0  0  0  0  0
  -23.3810  -32.1970   23.4820 O   0  0  0  0  0  0  0  0  0  0  0  0
  -22.5770  -29.4990   22.4850 C   0  0  0  0  0  0  0  0  0  0  0  0
  -21.2380  -29.3710   22.3590 N   0  0  0  0  0  0  0  0  0  0  0  0
  -23.1990  -28.9230   23.3790 O   0  0  0  0  0  0  0  0  0  0  0  0
  -20.7750  -29.8830   21.6220 H   0  0  0  0  0  0  0  0  0  0  0  0
  -17.8410  -28.1390   22.9140 C   0  0  0  0  0  0  0  0  0  0  0  0
  -20.4000  -28.4610   23.1620 C   0  0  0  0  0  3  0  0  0  0  0  0
  -20.5170  -27.0070   22.6440 C   0  0  0  0  0  2  0  0  0  0  0  0
  -19.4260  -26.6380   21.6350 C   0  0  0  0  0  2  0  0  0  0  0  0
  -18.0400  -26.7770   22.2700 C   0  0  0  0  0  2  0  0  0  0  0  0
  -18.9480  -28.9370   23.3150 C   0  0  0  0  0  0  0  0  0  0  0  0
  -18.7000  -30.2040   23.8890 C   0  0  0  0  0  3  0  0  0  0  0  0
  -17.3840  -30.6750   24.0580 C   0  0  0  0  0  3  0  0  0  0  0  0
  -16.2950  -29.8770   23.6640 C   0  0  0  0  0  3  0  0  0  0  0  0
  -16.5240  -28.6110   23.1000 C   0  0  0  0  0  3  0  0  0  0  0  0
  -25.7010  -32.6060   23.7050 C   0  0  0  0  0  3  0  0  0  0  0  0
  -26.1680  -31.9310   25.0560 C   0  0  1  0  0  0  0  0  0  0  0  0
  -25.0320  -31.7340   26.0890 C   0  0  0  0  0  1  0  0  0  0  0  0
  -26.7950  -30.5480   24.7980 C   0  0  0  0  0  1  0  0  0  0  0  0
  -27.2730  -32.7890   25.7180 C   0  0  0  0  0  1  0  0  0  0  0  0
  -25.3180  -34.0150   23.9930 N   0  0  0  0  0  0  0  0  0  0  0  0
  -25.6480  -35.0920   23.2620 C   0  0  0  0  0  0  0  0  0  0  0  0
  -26.3380  -35.0060   22.2450 O   0  0  0  0  0  0  0  0  0  0  0  0
  -24.6960  -34.1510   24.7750 H   0  0  0  0  0  0  0  0  0  0  0  0
  -23.8840  -36.8730   22.9240 C   0  0  0  0  0  1  0  0  0  0  0  0
  -25.1400  -36.4830   23.7200 C   0  0  0  0  0  3  0  0  0  0  0  0
  -27.2620  -37.4330   24.5250 C   0  0  0  0  0  1  0  0  0  0  0  0
  -26.1500  -37.5610   23.5900 N   0  0  0  0  0  0  0  0  0  0  0  0
  -25.7220  -38.4730   23.7290 H   0  0  0  0  0  0  0  0  0  0  0  0
  3  4  1  0
  3  7  1  0
  6  5  1  0
  6 17  1  0
  9 43  1  0
 10 45  1  0
 10  9  1  0
 12 51  1  0
 13 21  1  0
 13 20  1  1
 16  6  1  0
 17  8  1  0
 18 19  1  0
 18 13  1  0
 19 13  1  0
 21 22  1  0
 23 48  1  0
 24 43  1  0
 24 23  1  1
 24 25  1  0
 25 28  1  0
 26 17  1  6
 26 24  1  0
 26 23  1  0
 26 27  1  0
 27 25  1  0
 28 29  1  0
 29 30  2  0
 31 34  1  0
 31 30  1  0
 32 31  2  0
 33 32  1  0
 33 28  2  0
 34 35  1  0
 35 36  1  0
 36 37  2  0
 38 37  1  0
 38 42  1  0
 39 38  2  0
 40 35  2  0
 40 39  1  0
 41 40  1  0
 43 44  1  1
 44 46  1  0
 45 43  1  0
 47 44  1  0
 48 49  1  0
 50 48  1  0
 52 51  1  0
 52 53  1  0
 53 56  1  0
 54 53  1  0
 55 53  1  0
 59 61  1  0
 60 71  2  0
 61 66  1  0
 62 70  1  0
 62 72  1  0
 63 65  1  0
 64 70  1  0
 65 64  1  0
 66 65  2  0
 67 61  2  0
 68 67  1  0
 68 63  2  0
 69 63  1  0
 69 62  1  0
 70 60  1  0
 72 74  2  0
 73 72  1  0
 75 73  1  0
 76 85  2  0
 76 81  1  0
 77 73  1  0
 77 81  1  0
 78 77  1  0
 79 80  1  0
 79 78  1  0
 80 76  1  0
 81 82  2  0
 82 83  1  0
 84 83  2  0
 85 84  1  0
 86 60  1  0
 86 91  1  0
 86 87  1  0
 87 90  1  1
 87 88  1  0
 89 87  1  0
 91 94  1  0
 92 96  1  0
 92 91  1  0
 93 92  2  0
 96 95  1  0
 98 96  1  0
 98 99  1  0
 98 97  1  0
M  ISO  4  13 100  21 100  58 101  59 101
M  END
>  <TORSDO>  (88) 
F 25

>  <SCORE>  (88) 
16.667

>  <name>  (88) 
88

>  <ligand_id>  (88) 
88

>  <original_smiles>  (88) 
[H]c1c([H])c([H])c2c(c1[H])C([H])([H])C([H])([H])C([H])([H])C2([H])N([H])C(=O)C1([H])N(C(=O)C([H])(N([H])C(=O)C([H])(N([H])C([H])([H])[H])C([H])([H])[H])C(C([H])([H])[H])(C([H])([H])[H])C([H])([H])[H])C([H])([H])c2c([H])c(OC([H])([H])C([H])([H])C34C([H])([H])C([H])([H])C([H])(C3([H])[H])C([H])(C([H])([H])C(=O)C([H])([H])C([H])(N([H])C(=O)N3C([H])([H])C([H])([H])C([H])([H])C([H])(n5nc(-c6c([H])c([H])c(Oc7c([H])c([H])c(F)c([H])c7F)c([H])c6[H])c(C(=O)N([H])[H])c5N([H])[H])C3([H])[H])C([H])([H])C([H])([H])[N+]([H])([H])[H])C4([H])[H])c([H])c([H])c2C1([H])[H]

>  <smiles>  (88) 
[H]c1c([H])c([H])c2c(c1[H])C([H])([H])C([H])([H])C([H])([H])C2([H])N([H])C(=O)C1([H])N(C(=O)C([H])(N([H])C(=O)C([H])(N([H])C([H])([H])[H])C([H])([H])[H])C(C([H])([H])[H])(C([H])([H])[H])C([H])([H])[H])C([H])([H])c2c([H])c(OC([H])([H])C([H])([H])C34C([H])([H])C([H])([H])C([H])(C3([H])[H])C([H])(C([H])([H])C(=O)C([H])([H])C([H])(N([H])C(=O)N3C([H])([H])C([H])([H])C([H])([H])C([H])(n5nc(-c6c([H])c([H])c(Oc7c([H])c([H])c(F)c([H])c7F)c([H])c6[H])c(C(=O)N([H])[H])c5N([H])[H])C3([H])[H])C([H])([H])C([H])([H])[N+]([H])([H])[H])C4([H])[H])c([H])c([H])c2C1([H])[H]

$$$$
89:0:0
     RDKit          3D

 91100  0  0  1  0  0  0  0  0999 V2000
  -31.7650  -18.1180   22.7800 C   0  0  0  0  0  3  0  0  0  0  0  0
  -31.4760  -19.4680   22.5520 C   0  0  0  0  0  3  0  0  0  0  0  0
  -31.1180  -17.1180   22.0320 C   0  0  0  0  0  3  0  0  0  0  0  0
  -30.5320  -19.7970   21.5710 C   0  0  0  0  0  0  0  0  0  0  0  0
  -29.8680  -18.8220   20.7970 C   0  0  0  0  0  0  0  0  0  0  0  0
  -30.1660  -17.3910   21.0070 C   0  0  0  0  0  0  0  0  0  0  0  0
  -30.1610  -21.2350   21.2570 C   0  0  0  0  0  2  0  0  0  0  0  0
  -28.9450  -19.6410   19.8420 C   0  0  0  0  0  2  0  0  0  0  0  0
  -29.3840  -21.2010   19.9350 C   0  0  0  0  0  3  0  0  0  0  0  0
  -30.2910  -15.0260   20.0190 C   0  0  0  0  0  0  0  0  0  0  0  0
  -30.0380  -12.7960   18.9160 C   0  0  0  0  0  2  0  0  0  0  0  0
  -29.0130  -12.8630   17.7650 C   0  0  0  0  0  2  0  0  0  0  0  0
  -27.5910  -12.6160   18.3010 C   0  0  0  0  0  2  0  0  0  0  0  0
  -27.2730  -13.4560   19.5670 C   0  0  0  0  0  3  0  0  0  0  0  0
  -28.4160  -13.4020   20.6030 C   0  0  0  0  0  2  0  0  0  0  0  0
  -29.6430  -13.8160   19.9150 N   0  0  0  0  0  0  0  0  0  0  0  0
  -31.4420  -15.1290   19.5870 O   0  0  0  0  0  0  0  0  0  0  0  0
  -29.5950  -16.1740   20.3870 N   0  0  0  0  0  0  0  0  0  0  0  0
  -28.5890  -16.0980   20.4050 H   0  0  0  0  0  0  0  0  0  0  0  0
  -24.9180  -13.9130   20.4730 C   0  0  0  0  0  0  0  0  0  0  0  0
  -23.9210  -13.0800   20.9000 C   0  0  0  0  0  0  0  0  0  0  0  0
  -24.4470  -11.7550   20.8110 C   0  0  0  0  0  0  0  0  0  0  0  0
  -25.9860  -13.0920   20.1490 N   0  0  0  0  0  0  0  0  0  0  0  0
  -25.7140  -11.7880   20.4140 N   0  0  0  0  0  0  0  0  0  0  0  0
  -23.7970  -10.4550   21.0230 C   0  0  0  0  0  0  0  0  0  0  0  0
  -24.2910   -9.5270   21.9670 C   0  0  0  0  0  3  0  0  0  0  0  0
  -23.6360   -8.2930   22.1680 C   0  0  0  0  0  3  0  0  0  0  0  0
  -22.4740   -7.9760   21.4250 C   0  0  0  0  0  0  0  0  0  0  0  0
  -22.0000   -8.8930   20.4700 C   0  0  0  0  0  3  0  0  0  0  0  0
  -22.6560  -10.1190   20.2680 C   0  0  0  0  0  3  0  0  0  0  0  0
  -21.7870   -6.7910   21.5330 O   0  0  0  0  0  0  0  0  0  0  0  0
  -21.7400   -6.0920   22.7130 C   0  0  0  0  0  0  0  0  0  0  0  0
  -21.1860   -6.6480   23.8870 C   0  0  0  0  0  3  0  0  0  0  0  0
  -21.0960   -5.8710   25.0590 C   0  0  0  0  0  3  0  0  0  0  0  0
  -21.5470   -4.5380   25.0580 C   0  0  0  0  0  0  0  0  0  0  0  0
  -22.0940   -3.9810   23.8880 C   0  0  0  0  0  3  0  0  0  0  0  0
  -22.1870   -4.7560   22.7180 C   0  0  0  0  0  0  0  0  0  0  0  0
  -22.6950   -4.2070   21.5880 F   0  0  0  0  0  0  0  0  0  0  0  0
  -21.4530   -3.7880   26.1810 F   0  0  0  0  0  0  0  0  0  0  0  0
  -22.5230  -13.4820   21.2730 C   0  0  0  0  0  0  0  0  0  0  0  0
  -21.8890  -12.7350   22.1690 N   0  0  0  0  0  0  0  0  0  0  0  0
  -22.0040  -14.4950   20.8050 O   0  0  0  0  0  0  0  0  0  0  0  0
  -22.3240  -11.9160   22.5670 H   0  0  0  0  0  0  0  0  0  0  0  0
  -20.9550  -12.9860   22.4600 H   0  0  0  0  0  0  0  0  0  0  0  0
  -25.0010  -15.2930   20.3110 N   0  0  0  0  0  0  0  0  0  0  0  0
  -24.2090  -15.9030   20.4840 H   0  0  0  0  0  0  0  0  0  0  0  0
  -25.7950  -15.7810   19.9160 H   0  0  0  0  0  0  0  0  0  0  0  0
  -28.3670  -22.4480   19.7480 C   0  0  0  0  0  2  0  0  0  0  0  0
  -28.8760  -23.9880   19.8640 C   0  0  0  0  0  3  0  0  0  0  0  0
  -27.8340  -25.1920   19.5920 C   0  0  0  0  0  3  0  0  0  0  0  0
  -28.1460  -26.6520   19.7960 O   0  0  0  0  0  0  0  0  0  0  0  0
  -24.6700  -31.9590   23.3430 C   0  0  0  0  0  0  0  0  0  0  0  0
  -27.0650  -27.5660   19.8490 C   0  0  0  0  0  0  0  0  0  0  0  0
  -23.3760  -30.6950   21.6670 C   0  0  0  0  0  3  0  0  0  0  0  0
  -24.7360  -29.2400   20.0650 C   0  0  0  0  0  0  0  0  0  0  0  0
  -25.9140  -30.9880   21.3910 C   0  0  0  0  0  2  0  0  0  0  0  0
  -25.9430  -29.6580   20.6390 C   0  0  0  0  0  0  0  0  0  0  0  0
  -27.1110  -28.8360   20.5190 C   0  0  0  0  0  3  0  0  0  0  0  0
  -25.8290  -27.2230   19.2500 C   0  0  0  0  0  3  0  0  0  0  0  0
  -24.6850  -28.0310   19.3600 C   0  0  0  0  0  3  0  0  0  0  0  0
  -23.5180  -30.1250   20.2330 C   0  0  0  0  0  2  0  0  0  0  0  0
  -24.6760  -31.2280   22.1900 N   0  0  0  0  0  0  0  0  0  0  0  0
  -23.6160  -32.2100   23.9440 O   0  0  0  0  0  0  0  0  0  0  0  0
  -22.7430  -29.6170   22.5810 C   0  0  0  0  0  0  0  0  0  0  0  0
  -21.4280  -29.3860   22.4270 N   0  0  0  0  0  0  0  0  0  0  0  0
  -23.4350  -28.9940   23.3900 O   0  0  0  0  0  0  0  0  0  0  0  0
  -20.9260  -29.9450   21.7520 H   0  0  0  0  0  0  0  0  0  0  0  0
  -18.1180  -27.9660   22.7700 C   0  0  0  0  0  0  0  0  0  0  0  0
  -20.6390  -28.3890   23.1540 C   0  0  0  0  0  3  0  0  0  0  0  0
  -20.8590  -26.9730   22.5730 C   0  0  0  0  0  2  0  0  0  0  0  0
  -19.8250  -26.5900   21.5080 C   0  0  0  0  0  2  0  0  0  0  0  0
  -18.4110  -26.6380   22.0930 C   0  0  0  0  0  2  0  0  0  0  0  0
  -19.1640  -28.7950   23.2550 C   0  0  0  0  0  0  0  0  0  0  0  0
  -18.8360  -30.0340   23.8470 C   0  0  0  0  0  3  0  0  0  0  0  0
  -17.4950  -30.4450   23.9600 C   0  0  0  0  0  3  0  0  0  0  0  0
  -16.4630  -29.6140   23.4920 C   0  0  0  0  0  3  0  0  0  0  0  0
  -16.7740  -28.3760   22.9030 C   0  0  0  0  0  3  0  0  0  0  0  0
  -25.9870  -32.5350   23.9480 C   0  0  0  0  0  3  0  0  0  0  0  0
  -26.5200  -31.7020   25.1780 C   0  0  1  0  0  0  0  0  0  0  0  0
  -25.4460  -31.4280   26.2580 C   0  0  0  0  0  1  0  0  0  0  0  0
  -27.0790  -30.3380   24.7140 C   0  0  0  0  0  1  0  0  0  0  0  0
  -27.6930  -32.4550   25.8500 C   0  0  0  0  0  1  0  0  0  0  0  0
  -25.7230  -33.9260   24.3430 N   0  0  0  0  0  0  0  0  0  0  0  0
  -26.0420  -35.0010   23.6090 C   0  0  0  0  0  0  0  0  0  0  0  0
  -26.6580  -34.9230   22.5420 O   0  0  0  0  0  0  0  0  0  0  0  0
  -25.1720  -34.0610   25.1770 H   0  0  0  0  0  0  0  0  0  0  0  0
  -24.3320  -36.8360   23.4170 C   0  0  0  0  0  1  0  0  0  0  0  0
  -25.6090  -36.3810   24.1420 C   0  0  0  0  0  3  0  0  0  0  0  0
  -27.7970  -37.2070   24.8890 C   0  0  0  0  0  1  0  0  0  0  0  0
  -26.6540  -37.4190   24.0060 N   0  0  0  0  0  0  0  0  0  0  0  0
  -26.2730  -38.3420   24.1960 H   0  0  0  0  0  0  0  0  0  0  0  0
  2  1  1  0
  3  1  2  0
  4  2  2  0
  5  6  2  0
  5  4  1  0
  6  3  1  0
  7  4  1  0
  8  9  1  0
  8  5  1  0
  9 48  1  0
  9  7  1  0
 10 18  1  0
 11 16  1  0
 12 13  1  0
 12 11  1  0
 14 13  1  0
 14 23  1  0
 14 15  1  0
 16 10  1  0
 16 15  1  0
 17 10  2  0
 18 19  1  0
 18  6  1  0
 20 21  2  0
 21 40  1  0
 22 21  1  0
 22 25  1  0
 23 24  1  0
 23 20  1  0
 24 22  2  0
 25 26  1  0
 26 27  2  0
 28 31  1  0
 28 27  1  0
 29 28  2  0
 30 29  1  0
 30 25  2  0
 31 32  1  0
 32 37  2  0
 32 33  1  0
 33 34  2  0
 35 34  1  0
 35 39  1  0
 36 35  2  0
 37 36  1  0
 38 37  1  0
 40 41  1  0
 41 44  1  0
 41 43  1  0
 42 40  2  0
 45 20  1  0
 45 46  1  0
 47 45  1  0
 48 49  1  0
 50 51  1  0
 50 49  2  0
 51 53  1  0
 52 63  2  0
 53 58  1  0
 54 62  1  0
 54 64  1  0
 55 61  1  0
 55 57  1  0
 56 62  1  0
 57 56  1  0
 58 57  2  0
 59 60  1  0
 59 53  2  0
 60 55  2  0
 61 54  1  0
 62 52  1  0
 64 66  2  0
 65 64  1  0
 67 65  1  0
 68 77  2  0
 68 73  1  0
 69 65  1  0
 69 73  1  0
 70 69  1  0
 71 72  1  0
 71 70  1  0
 72 68  1  0
 73 74  2  0
 74 75  1  0
 76 75  2  0
 77 76  1  0
 78 52  1  0
 78 83  1  0
 78 79  1  0
 79 82  1  1
 79 80  1  0
 81 79  1  0
 83 86  1  0
 84 88  1  0
 84 83  1  0
 85 84  2  0
 88 87  1  0
 90 88  1  0
 90 91  1  0
 90 89  1  0
M  ISO  4  10 100  18 100  50 101  51 101
M  END
>  <TORSDO>  (89) 
F 19

>  <SCORE>  (89) 
-13.187

>  <name>  (89) 
89

>  <ligand_id>  (89) 
89

>  <original_smiles>  (89) 
[H]c1c([H])c([H])c2c(c1[H])C([H])([H])C([H])([H])C([H])([H])C2([H])N([H])C(=O)C1([H])N(C(=O)C([H])(N([H])C(=O)C([H])(N([H])C([H])([H])[H])C([H])([H])[H])C(C([H])([H])[H])(C([H])([H])[H])C([H])([H])[H])C([H])([H])c2c([H])c(OC([H])([H])C([H])([H])C([H])([H])C3([H])C([H])([H])c4c([H])c([H])c([H])c(N([H])C(=O)N5C([H])([H])C([H])([H])C([H])([H])C([H])(n6nc(-c7c([H])c([H])c(Oc8c([H])c([H])c(F)c([H])c8F)c([H])c7[H])c(C(=O)N([H])[H])c6N([H])[H])C5([H])[H])c4C3([H])[H])c([H])c([H])c2C1([H])[H]

>  <smiles>  (89) 
[H]c1c([H])c([H])c2c(c1[H])C([H])([H])C([H])([H])C([H])([H])C2([H])N([H])C(=O)C1([H])N(C(=O)C([H])(N([H])C(=O)C([H])(N([H])C([H])([H])[H])C([H])([H])[H])C(C([H])([H])[H])(C([H])([H])[H])C([H])([H])[H])C([H])([H])c2c([H])c(OC([H])([H])C([H])([H])C([H])([H])C3([H])C([H])([H])c4c([H])c([H])c([H])c(N([H])C(=O)N5C([H])([H])C([H])([H])C([H])([H])C([H])(n6nc(-c7c([H])c([H])c(Oc8c([H])c([H])c(F)c([H])c8F)c([H])c7[H])c(C(=O)N([H])[H])c6N([H])[H])C5([H])[H])c4C3([H])[H])c([H])c([H])c2C1([H])[H]

$$$$
90:0:0
     RDKit          3D

 89 98  0  0  1  0  0  0  0  0999 V2000
  -28.4760  -19.6570   20.0770 C   0  0  0  0  0  2  0  0  0  0  0  0
  -30.6870  -20.8090   19.2590 C   0  0  0  0  0  2  0  0  0  0  0  0
  -29.6150  -18.7300   20.7020 C   0  0  0  0  0  3  0  0  0  0  0  0
  -30.5000  -20.0110   20.5460 C   0  0  0  0  0  3  0  0  0  0  0  0
  -29.3810  -20.9250   19.9970 C   0  0  2  0  0  0  0  0  0  0  0  0
  -30.5750  -14.8480   20.2790 C   0  0  0  0  0  0  0  0  0  0  0  0
  -30.3460  -12.5270   19.3770 C   0  0  0  0  0  2  0  0  0  0  0  0
  -29.4300  -12.5830   18.1360 C   0  0  0  0  0  2  0  0  0  0  0  0
  -27.9590  -12.4090   18.5580 C   0  0  0  0  0  2  0  0  0  0  0  0
  -27.5750  -13.3090   19.7650 C   0  0  0  0  0  3  0  0  0  0  0  0
  -28.6310  -13.2750   20.8910 C   0  0  0  0  0  2  0  0  0  0  0  0
  -29.9260  -13.6210   20.2950 N   0  0  0  0  0  0  0  0  0  0  0  0
  -31.7540  -14.8570   19.9170 O   0  0  0  0  0  0  0  0  0  0  0  0
  -30.1560  -17.3440   20.0380 C   0  0  0  0  0  0  0  0  0  0  0  0
  -29.8770  -16.0480   20.5100 N   0  0  0  0  0  0  0  0  0  0  0  0
  -30.8990  -17.4930   19.0610 O   0  0  0  0  0  0  0  0  0  0  0  0
  -29.0620  -15.9710   21.0960 H   0  0  0  0  0  0  0  0  0  0  0  0
  -25.1900  -13.8890   20.5060 C   0  0  0  0  0  0  0  0  0  0  0  0
  -24.1260  -13.1150   20.8800 C   0  0  0  0  0  0  0  0  0  0  0  0
  -24.5910  -11.7620   20.8450 C   0  0  0  0  0  0  0  0  0  0  0  0
  -26.2330  -13.0120   20.2620 N   0  0  0  0  0  0  0  0  0  0  0  0
  -25.8810  -11.7270   20.5290 N   0  0  0  0  0  0  0  0  0  0  0  0
  -23.8580  -10.5010   21.0360 C   0  0  0  0  0  0  0  0  0  0  0  0
  -24.2880   -9.5280   21.9660 C   0  0  0  0  0  3  0  0  0  0  0  0
  -23.5570   -8.3330   22.1450 C   0  0  0  0  0  3  0  0  0  0  0  0
  -22.3800   -8.1030   21.3920 C   0  0  0  0  0  0  0  0  0  0  0  0
  -21.9680   -9.0640   20.4530 C   0  0  0  0  0  3  0  0  0  0  0  0
  -22.7000  -10.2500   20.2730 C   0  0  0  0  0  3  0  0  0  0  0  0
  -21.6190   -6.9620   21.4810 O   0  0  0  0  0  0  0  0  0  0  0  0
  -21.5740   -6.2190   22.6320 C   0  0  0  0  0  0  0  0  0  0  0  0
  -21.1470   -6.7710   23.8620 C   0  0  0  0  0  3  0  0  0  0  0  0
  -21.0420   -5.9520   25.0040 C   0  0  0  0  0  3  0  0  0  0  0  0
  -21.3560   -4.5820   24.9200 C   0  0  0  0  0  0  0  0  0  0  0  0
  -21.7760   -4.0290   23.6970 C   0  0  0  0  0  3  0  0  0  0  0  0
  -21.8810   -4.8450   22.5560 C   0  0  0  0  0  0  0  0  0  0  0  0
  -22.2630   -4.3000   21.3760 F   0  0  0  0  0  0  0  0  0  0  0  0
  -21.2520   -3.7930   26.0160 F   0  0  0  0  0  0  0  0  0  0  0  0
  -22.7300  -13.5940   21.1520 C   0  0  0  0  0  0  0  0  0  0  0  0
  -21.9960  -12.9030   22.0170 N   0  0  0  0  0  0  0  0  0  0  0  0
  -22.2930  -14.6210   20.6300 O   0  0  0  0  0  0  0  0  0  0  0  0
  -22.3580  -12.0750   22.4670 H   0  0  0  0  0  0  0  0  0  0  0  0
  -21.0570  -13.2080   22.2360 H   0  0  0  0  0  0  0  0  0  0  0  0
  -25.3520  -15.2610   20.3290 N   0  0  0  0  0  0  0  0  0  0  0  0
  -24.5770  -15.9100   20.4260 H   0  0  0  0  0  0  0  0  0  0  0  0
  -26.1960  -15.6930   19.9740 H   0  0  0  0  0  0  0  0  0  0  0  0
  -28.9630  -22.3580   20.6530 C   0  0  0  0  0  2  0  0  0  0  0  0
  -28.0780  -23.5340   19.9240 C   0  0  0  0  0  2  0  0  0  0  0  0
  -28.5420  -25.0750   19.5690 C   0  0  0  0  0  2  0  0  0  0  0  0
  -28.3320  -26.3760   20.3140 O   0  0  0  0  0  0  0  0  0  0  0  0
  -24.6100  -31.8930   23.2320 C   0  0  0  0  0  0  0  0  0  0  0  0
  -27.2240  -27.2580   20.1920 C   0  0  0  0  0  0  0  0  0  0  0  0
  -23.4120  -30.4830   21.5960 C   0  0  0  0  0  3  0  0  0  0  0  0
  -24.8660  -28.9190   20.1690 C   0  0  0  0  0  0  0  0  0  0  0  0
  -25.9530  -30.7820   21.4210 C   0  0  0  0  0  2  0  0  0  0  0  0
  -26.0330  -29.3940   20.7800 C   0  0  0  0  0  0  0  0  0  0  0  0
  -27.2070  -28.5710   20.7870 C   0  0  0  0  0  3  0  0  0  0  0  0
  -26.0390  -26.8540   19.5440 C   0  0  0  0  0  3  0  0  0  0  0  0
  -24.8770  -27.6610   19.5400 C   0  0  0  0  0  3  0  0  0  0  0  0
  -23.6270  -29.7990   20.2180 C   0  0  0  0  0  2  0  0  0  0  0  0
  -24.6770  -31.0750   22.1400 N   0  0  0  0  0  0  0  0  0  0  0  0
  -23.5230  -32.1740   23.7620 O   0  0  0  0  0  0  0  0  0  0  0  0
  -22.7430  -29.4760   22.5620 C   0  0  0  0  0  0  0  0  0  0  0  0
  -21.4160  -29.2990   22.4390 N   0  0  0  0  0  0  0  0  0  0  0  0
  -23.4210  -28.8530   23.3860 O   0  0  0  0  0  0  0  0  0  0  0  0
  -20.9250  -29.8590   21.7550 H   0  0  0  0  0  0  0  0  0  0  0  0
  -18.0400  -28.0980   22.9410 C   0  0  0  0  0  0  0  0  0  0  0  0
  -20.5980  -28.3650   23.2150 C   0  0  0  0  0  3  0  0  0  0  0  0
  -20.7000  -26.9280   22.6470 C   0  0  0  0  0  2  0  0  0  0  0  0
  -19.6010  -26.6000   21.6310 C   0  0  0  0  0  2  0  0  0  0  0  0
  -18.2190  -26.7460   22.2730 C   0  0  0  0  0  2  0  0  0  0  0  0
  -19.1560  -28.8650   23.3700 C   0  0  0  0  0  0  0  0  0  0  0  0
  -18.9320  -30.1310   23.9550 C   0  0  0  0  0  3  0  0  0  0  0  0
  -17.6250  -30.6290   24.1160 C   0  0  0  0  0  3  0  0  0  0  0  0
  -16.5240  -29.8590   23.7030 C   0  0  0  0  0  3  0  0  0  0  0  0
  -16.7320  -28.5960   23.1210 C   0  0  0  0  0  3  0  0  0  0  0  0
  -25.8880  -32.5330   23.8560 C   0  0  0  0  0  3  0  0  0  0  0  0
  -26.4010  -31.7700   25.1400 C   0  0  1  0  0  0  0  0  0  0  0  0
  -25.3050  -31.5360   26.2060 C   0  0  0  0  0  1  0  0  0  0  0  0
  -26.9850  -30.3910   24.7570 C   0  0  0  0  0  1  0  0  0  0  0  0
  -27.5520  -32.5680   25.8000 C   0  0  0  0  0  1  0  0  0  0  0  0
  -25.5740  -33.9330   24.1820 N   0  0  0  0  0  0  0  0  0  0  0  0
  -25.9040  -34.9860   23.4220 C   0  0  0  0  0  0  0  0  0  0  0  0
  -26.5730  -34.8820   22.3910 O   0  0  0  0  0  0  0  0  0  0  0  0
  -24.9780  -34.0880   24.9830 H   0  0  0  0  0  0  0  0  0  0  0  0
  -24.1750  -36.7800   23.0670 C   0  0  0  0  0  1  0  0  0  0  0  0
  -25.4180  -36.3760   23.8770 C   0  0  0  0  0  3  0  0  0  0  0  0
  -27.5520  -37.2670   24.7040 C   0  0  0  0  0  1  0  0  0  0  0  0
  -26.4490  -37.4300   23.7600 N   0  0  0  0  0  0  0  0  0  0  0  0
  -26.0430  -38.3500   23.9030 H   0  0  0  0  0  0  0  0  0  0  0  0
  1  3  1  0
  2  5  1  0
  3 14  1  0
  4  2  1  0
  4  3  1  0
  5  1  1  0
  5  4  1  0
  5 46  1  1
  6 12  1  0
  6 15  1  0
  7 12  1  0
  8  9  1  0
  8  7  1  0
 10  9  1  0
 10 21  1  0
 10 11  1  0
 12 11  1  0
 13  6  2  0
 14 15  1  0
 15 17  1  0
 16 14  2  0
 18 19  2  0
 19 38  1  0
 20 19  1  0
 20 23  1  0
 21 18  1  0
 21 22  1  0
 22 20  2  0
 23 24  1  0
 24 25  2  0
 26 29  1  0
 26 25  1  0
 27 26  2  0
 28 27  1  0
 28 23  2  0
 29 30  1  0
 30 31  1  0
 31 32  2  0
 33 32  1  0
 33 37  1  0
 34 33  2  0
 35 30  2  0
 35 34  1  0
 36 35  1  0
 38 39  1  0
 39 42  1  0
 39 41  1  0
 40 38  2  0
 43 44  1  0
 43 18  1  0
 45 43  1  0
 47 46  1  0
 48 47  1  0
 48 49  1  0
 50 61  2  0
 51 49  1  0
 51 56  1  0
 52 60  1  0
 52 62  1  0
 53 59  1  0
 53 55  1  0
 54 60  1  0
 55 56  2  0
 55 54  1  0
 57 51  2  0
 58 57  1  0
 58 53  2  0
 59 52  1  0
 60 50  1  0
 62 64  2  0
 63 62  1  0
 65 63  1  0
 66 75  2  0
 66 71  1  0
 67 63  1  0
 67 71  1  0
 68 67  1  0
 69 70  1  0
 69 68  1  0
 70 66  1  0
 71 72  2  0
 72 73  1  0
 74 73  2  0
 75 74  1  0
 76 50  1  0
 76 81  1  0
 76 77  1  0
 77 80  1  1
 77 78  1  0
 79 77  1  0
 81 84  1  0
 82 86  1  0
 82 81  1  0
 83 82  2  0
 86 85  1  0
 88 86  1  0
 88 89  1  0
 88 87  1  0
M  ISO  4   6 100  15 100  48 101  49 101
M  END
>  <TORSDO>  (90) 
F 19

>  <SCORE>  (90) 
-14.211

>  <name>  (90) 
90

>  <ligand_id>  (90) 
90

>  <original_smiles>  (90) 
[H]c1c([H])c([H])c2c(c1[H])C([H])([H])C([H])([H])C([H])([H])C2([H])N([H])C(=O)C1([H])N(C(=O)C([H])(N([H])C(=O)C([H])(N([H])C([H])([H])[H])C([H])([H])[H])C(C([H])([H])[H])(C([H])([H])[H])C([H])([H])[H])C([H])([H])c2c([H])c(OC([H])([H])C([H])([H])C([H])([H])C34C([H])([H])C([H])(C(=O)N([H])C(=O)N5C([H])([H])C([H])([H])C([H])([H])C([H])(n6nc(-c7c([H])c([H])c(Oc8c([H])c([H])c(F)c([H])c8F)c([H])c7[H])c(C(=O)N([H])[H])c6N([H])[H])C5([H])[H])C3([H])C4([H])[H])c([H])c([H])c2C1([H])[H]

>  <smiles>  (90) 
[H]c1c([H])c([H])c2c(c1[H])C([H])([H])C([H])([H])C([H])([H])C2([H])N([H])C(=O)C1([H])N(C(=O)C([H])(N([H])C(=O)C([H])(N([H])C([H])([H])[H])C([H])([H])[H])C(C([H])([H])[H])(C([H])([H])[H])C([H])([H])[H])C([H])([H])c2c([H])c(OC([H])([H])C([H])([H])C([H])([H])C34C([H])([H])C([H])(C(=O)N([H])C(=O)N5C([H])([H])C([H])([H])C([H])([H])C([H])(n6nc(-c7c([H])c([H])c(Oc8c([H])c([H])c(F)c([H])c8F)c([H])c7[H])c(C(=O)N([H])[H])c6N([H])[H])C5([H])[H])C3([H])C4([H])[H])c([H])c([H])c2C1([H])[H]

$$$$
91:0:0
     RDKit          3D

 95102  0  0  1  0  0  0  0  0999 V2000
  -28.9080  -20.9600   21.4410 C   0  0  0  0  0  3  0  0  0  0  0  0
  -29.7540  -19.9160   20.6460 C   0  0  0  0  0  2  0  0  0  0  0  0
  -29.4980  -18.4260   21.0510 C   0  0  0  0  0  2  0  0  0  0  0  0
  -30.6320  -17.4250   20.6940 C   0  0  0  0  0  2  0  0  0  0  0  0
  -31.0440  -14.9520   20.6420 C   0  0  0  0  0  0  0  0  0  0  0  0
  -30.8450  -12.6990   19.6610 C   0  0  0  0  0  2  0  0  0  0  0  0
  -29.9870  -12.7950   18.3820 C   0  0  0  0  0  2  0  0  0  0  0  0
  -28.4870  -12.6830   18.7180 C   0  0  0  0  0  2  0  0  0  0  0  0
  -28.0620  -13.6120   19.8870 C   0  0  0  0  0  3  0  0  0  0  0  0
  -29.0380  -13.4890   21.0780 C   0  0  0  0  0  2  0  0  0  0  0  0
  -30.3950  -13.7570   20.5790 N   0  0  0  0  0  0  0  0  0  0  0  0
  -32.2060  -15.1040   20.2570 O   0  0  0  0  0  0  0  0  0  0  0  0
  -30.2740  -16.0160   20.9550 N   0  0  0  0  0  0  0  0  0  0  0  0
  -29.3270  -15.8180   21.2420 H   0  0  0  0  0  0  0  0  0  0  0  0
  -25.6490  -14.2730   20.4870 C   0  0  0  0  0  0  0  0  0  0  0  0
  -24.5430  -13.5250   20.7870 C   0  0  0  0  0  0  0  0  0  0  0  0
  -24.9680  -12.1610   20.7520 C   0  0  0  0  0  0  0  0  0  0  0  0
  -26.6790  -13.3670   20.2910 N   0  0  0  0  0  0  0  0  0  0  0  0
  -26.2700  -12.0900   20.5090 N   0  0  0  0  0  0  0  0  0  0  0  0
  -24.1980  -10.9160   20.8810 C   0  0  0  0  0  0  0  0  0  0  0  0
  -24.6020   -9.8860   21.7590 C   0  0  0  0  0  3  0  0  0  0  0  0
  -23.8390   -8.7060   21.8770 C   0  0  0  0  0  3  0  0  0  0  0  0
  -22.6560   -8.5460   21.1170 C   0  0  0  0  0  0  0  0  0  0  0  0
  -22.2700   -9.5660   20.2290 C   0  0  0  0  0  3  0  0  0  0  0  0
  -23.0340  -10.7390   20.1080 C   0  0  0  0  0  3  0  0  0  0  0  0
  -21.8630   -7.4240   21.1480 O   0  0  0  0  0  0  0  0  0  0  0  0
  -21.8510   -6.5820   22.2310 C   0  0  0  0  0  0  0  0  0  0  0  0
  -21.5420   -7.0420   23.5290 C   0  0  0  0  0  3  0  0  0  0  0  0
  -21.4720   -6.1300   24.6010 C   0  0  0  0  0  3  0  0  0  0  0  0
  -21.7010   -4.7600   24.3780 C   0  0  0  0  0  0  0  0  0  0  0  0
  -22.0050   -4.2990   23.0840 C   0  0  0  0  0  3  0  0  0  0  0  0
  -22.0770   -5.2070   22.0140 C   0  0  0  0  0  0  0  0  0  0  0  0
  -22.3490   -4.7550   20.7660 F   0  0  0  0  0  0  0  0  0  0  0  0
  -21.6260   -3.8810   25.4050 F   0  0  0  0  0  0  0  0  0  0  0  0
  -23.1470  -14.0360   20.9980 C   0  0  0  0  0  0  0  0  0  0  0  0
  -22.3650  -13.3610   21.8320 N   0  0  0  0  0  0  0  0  0  0  0  0
  -22.7570  -15.0700   20.4570 O   0  0  0  0  0  0  0  0  0  0  0  0
  -22.6880  -12.5230   22.2940 H   0  0  0  0  0  0  0  0  0  0  0  0
  -21.4270  -13.6880   22.0150 H   0  0  0  0  0  0  0  0  0  0  0  0
  -25.8640  -15.6410   20.3450 N   0  0  0  0  0  0  0  0  0  0  0  0
  -25.1140  -16.3200   20.4270 H   0  0  0  0  0  0  0  0  0  0  0  0
  -26.7410  -16.0530   20.0510 H   0  0  0  0  0  0  0  0  0  0  0  0
  -29.6070  -22.3380   21.7060 C   0  0  0  0  0  2  0  0  0  0  0  0
  -29.6560  -23.4210   20.5860 C   0  0  0  0  0  2  0  0  0  0  0  0
  -29.5760  -24.8780   21.1410 C   0  0  0  0  0  2  0  0  0  0  0  0
  -29.7020  -26.0110   20.0870 C   0  0  0  0  0  2  0  0  0  0  0  0
  -29.4210  -27.3200   20.6360 O   0  0  0  0  0  0  0  0  0  0  0  0
  -24.8750  -31.9850   23.5460 C   0  0  0  0  0  0  0  0  0  0  0  0
  -28.1700  -27.9160   20.5390 C   0  0  0  0  0  0  0  0  0  0  0  0
  -23.9560  -30.5880   21.7260 C   0  0  0  0  0  3  0  0  0  0  0  0
  -25.6630  -29.2490   20.3850 C   0  0  0  0  0  0  0  0  0  0  0  0
  -26.4530  -31.1470   21.8050 C   0  0  0  0  0  2  0  0  0  0  0  0
  -26.7130  -29.8230   21.1090 C   0  0  0  0  0  0  0  0  0  0  0  0
  -27.9650  -29.1650   21.1800 C   0  0  0  0  0  3  0  0  0  0  0  0
  -27.0870  -27.3580   19.8170 C   0  0  0  0  0  3  0  0  0  0  0  0
  -25.8460  -28.0170   19.7380 C   0  0  0  0  0  3  0  0  0  0  0  0
  -24.3540  -30.0060   20.3440 C   0  0  0  0  0  2  0  0  0  0  0  0
  -25.1060  -31.2550   22.4190 N   0  0  0  0  0  0  0  0  0  0  0  0
  -23.7270  -32.1410   23.9870 O   0  0  0  0  0  0  0  0  0  0  0  0
  -23.3040  -29.4650   22.5650 C   0  0  0  0  0  0  0  0  0  0  0  0
  -22.0070  -29.2140   22.3250 N   0  0  0  0  0  0  0  0  0  0  0  0
  -23.9640  -28.8260   23.3880 O   0  0  0  0  0  0  0  0  0  0  0  0
  -21.5320  -29.7870   21.6420 H   0  0  0  0  0  0  0  0  0  0  0  0
  -18.6740  -27.8290   22.5300 C   0  0  0  0  0  0  0  0  0  0  0  0
  -21.1980  -28.1770   22.9680 C   0  0  0  0  0  3  0  0  0  0  0  0
  -21.4010  -26.8060   22.2820 C   0  0  0  0  0  2  0  0  0  0  0  0
  -20.3730  -26.5220   21.1830 C   0  0  0  0  0  2  0  0  0  0  0  0
  -18.9530  -26.5500   21.7580 C   0  0  0  0  0  2  0  0  0  0  0  0
  -19.7290  -28.6010   23.0840 C   0  0  0  0  0  0  0  0  0  0  0  0
  -19.4170  -29.8000   23.7630 C   0  0  0  0  0  3  0  0  0  0  0  0
  -18.0830  -30.2260   23.8930 C   0  0  0  0  0  3  0  0  0  0  0  0
  -17.0410  -29.4510   23.3560 C   0  0  0  0  0  3  0  0  0  0  0  0
  -17.3380  -28.2530   22.6810 C   0  0  0  0  0  3  0  0  0  0  0  0
  -26.0370  -32.6820   24.3230 C   0  0  0  0  0  3  0  0  0  0  0  0
  -26.4160  -31.9470   25.6670 C   0  0  1  0  0  0  0  0  0  0  0  0
  -25.2030  -31.6540   26.5790 C   0  0  0  0  0  1  0  0  0  0  0  0
  -27.1220  -30.6030   25.3730 C   0  0  0  0  0  1  0  0  0  0  0  0
  -27.4190  -32.8090   26.4690 C   0  0  0  0  0  1  0  0  0  0  0  0
  -25.6240  -34.0660   24.5880 N   0  0  0  0  0  0  0  0  0  0  0  0
  -25.9960  -35.1250   23.8550 C   0  0  0  0  0  0  0  0  0  0  0  0
  -26.7910  -35.0420   22.9150 O   0  0  0  0  0  0  0  0  0  0  0  0
  -24.9290  -34.2010   25.3080 H   0  0  0  0  0  0  0  0  0  0  0  0
  -24.2240  -36.8130   23.2760 C   0  0  0  0  0  1  0  0  0  0  0  0
  -25.3890  -36.4910   24.2250 C   0  0  0  0  0  3  0  0  0  0  0  0
  -27.3800  -37.4990   25.2510 C   0  0  0  0  0  1  0  0  0  0  0  0
  -26.3720  -37.5980   24.1990 N   0  0  0  0  0  0  0  0  0  0  0  0
  -25.9040  -38.4960   24.2910 H   0  0  0  0  0  0  0  0  0  0  0  0
  -27.4530  -21.1060   20.9310 C   0  0  0  0  0  2  0  0  0  0  0  0
  -26.8250  -22.4730   21.2680 C   0  0  0  0  0  2  0  0  0  0  0  0
  -25.5840  -22.7920   20.4140 C   0  0  0  0  0  2  0  0  0  0  0  0
  -24.9270  -24.1500   20.7410 C   0  0  0  0  0  2  0  0  0  0  0  0
  -25.7420  -25.3040   20.3240 N   0  0  0  0  0  4  0  0  0  0  0  0
  -26.6250  -25.3170   20.8010 H   0  0  0  0  0  0  0  0  0  0  0  0
  -25.2570  -26.1550   20.5480 H   0  0  0  0  0  0  0  0  0  0  0  0
  -25.9040  -25.2930   19.3340 H   0  0  0  0  0  0  0  0  0  0  0  0
  1  2  1  0
  1 43  1  0
  2  3  1  0
  4 13  1  0
  4  3  1  0
  5 13  1  0
  6 11  1  0
  7  8  1  0
  7  6  1  0
  9  8  1  0
  9 18  1  0
  9 10  1  0
 11  5  1  0
 11 10  1  0
 12  5  2  0
 13 14  1  0
 15 16  2  0
 16 35  1  0
 17 16  1  0
 17 20  1  0
 18 15  1  0
 18 19  1  0
 19 17  2  0
 20 21  1  0
 21 22  2  0
 23 26  1  0
 23 22  1  0
 24 23  2  0
 25 24  1  0
 25 20  2  0
 26 27  1  0
 27 28  1  0
 28 29  2  0
 30 29  1  0
 30 34  1  0
 31 30  2  0
 32 27  2  0
 32 31  1  0
 33 32  1  0
 35 36  1  0
 36 39  1  0
 36 38  1  0
 37 35  2  0
 40 41  1  0
 40 15  1  0
 42 40  1  0
 44 45  1  0
 44 43  1  0
 46 47  1  0
 46 45  1  0
 48 59  2  0
 49 47  1  0
 49 54  1  0
 50 58  1  0
 50 60  1  0
 51 53  1  0
 52 58  1  0
 53 54  2  0
 53 52  1  0
 55 49  2  0
 56 55  1  0
 56 51  2  0
 57 51  1  0
 57 50  1  0
 58 48  1  0
 60 62  2  0
 61 60  1  0
 63 61  1  0
 64 73  2  0
 64 69  1  0
 65 61  1  0
 65 69  1  0
 66 65  1  0
 67 68  1  0
 67 66  1  0
 68 64  1  0
 69 70  2  0
 70 71  1  0
 72 71  2  0
 73 72  1  0
 74 48  1  0
 74 79  1  0
 74 75  1  0
 75 78  1  1
 75 76  1  0
 77 75  1  0
 79 82  1  0
 80 84  1  0
 80 79  1  0
 81 80  2  0
 84 83  1  0
 86 84  1  0
 86 87  1  0
 86 85  1  0
 88 89  1  0
 88  1  1  0
 90 91  1  0
 90 89  1  0
 92 94  1  0
 92 91  1  0
 92 93  1  0
 95 92  1  0
M  ISO  4   5 100  13 100  46 101  47 101
M  END
>  <TORSDO>  (91) 
F 28

>  <SCORE>  (91) 
-9.487

>  <name>  (91) 
91

>  <ligand_id>  (91) 
91

>  <original_smiles>  (91) 
[H]c1c([H])c([H])c2c(c1[H])C([H])([H])C([H])([H])C([H])([H])C2([H])N([H])C(=O)C1([H])N(C(=O)C([H])(N([H])C(=O)C([H])(N([H])C([H])([H])[H])C([H])([H])[H])C(C([H])([H])[H])(C([H])([H])[H])C([H])([H])[H])C([H])([H])c2c([H])c(OC([H])([H])C([H])([H])C([H])([H])C([H])([H])C([H])(C([H])([H])C([H])([H])C([H])([H])N([H])C(=O)N3C([H])([H])C([H])([H])C([H])([H])C([H])(n4nc(-c5c([H])c([H])c(Oc6c([H])c([H])c(F)c([H])c6F)c([H])c5[H])c(C(=O)N([H])[H])c4N([H])[H])C3([H])[H])C([H])([H])C([H])([H])C([H])([H])C([H])([H])[N+]([H])([H])[H])c([H])c([H])c2C1([H])[H]

>  <smiles>  (91) 
[H]c1c([H])c([H])c2c(c1[H])C([H])([H])C([H])([H])C([H])([H])C2([H])N([H])C(=O)C1([H])N(C(=O)C([H])(N([H])C(=O)C([H])(N([H])C([H])([H])[H])C([H])([H])[H])C(C([H])([H])[H])(C([H])([H])[H])C([H])([H])[H])C([H])([H])c2c([H])c(OC([H])([H])C([H])([H])C([H])([H])C([H])([H])C([H])(C([H])([H])C([H])([H])C([H])([H])N([H])C(=O)N3C([H])([H])C([H])([H])C([H])([H])C([H])(n4nc(-c5c([H])c([H])c(Oc6c([H])c([H])c(F)c([H])c6F)c([H])c5[H])c(C(=O)N([H])[H])c4N([H])[H])C3([H])[H])C([H])([H])C([H])([H])C([H])([H])C([H])([H])[N+]([H])([H])[H])c([H])c([H])c2C1([H])[H]

$$$$
92:0:0
     RDKit          3D

 93101  0  0  1  0  0  0  0  0999 V2000
  -30.9550  -20.3400   24.8250 C   0  0  0  0  0  2  0  0  0  0  0  0
  -29.8330  -21.3530   24.5660 C   0  0  0  0  0  2  0  0  0  0  0  0
  -31.9420  -20.3220   23.6470 C   0  0  0  0  0  2  0  0  0  0  0  0
  -29.1610  -21.1290   23.1930 C   0  0  0  0  0  2  0  0  0  0  0  0
  -31.2330  -20.0920   22.2910 C   0  0  0  0  0  3  0  0  0  0  0  0
  -30.1450  -21.1020   22.0700 N   0  0  2  0  0  4  0  0  0  0  0  0
  -29.6460  -20.7720   21.2570 H   0  0  0  0  0  0  0  0  0  0  0  0
  -30.7380  -18.6230   22.1650 C   0  0  0  0  0  2  0  0  0  0  0  0
  -30.2070  -18.2410   20.7670 C   0  0  0  0  0  2  0  0  0  0  0  0
  -31.0180  -17.1260   20.0780 C   0  0  0  0  0  2  0  0  0  0  0  0
  -31.3640  -14.6870   20.1460 C   0  0  0  0  0  0  0  0  0  0  0  0
  -30.9380  -12.5420   19.0340 C   0  0  0  0  0  2  0  0  0  0  0  0
  -29.9880  -12.8000   17.8460 C   0  0  0  0  0  2  0  0  0  0  0  0
  -28.5170  -12.7460   18.2990 C   0  0  0  0  0  2  0  0  0  0  0  0
  -28.2440  -13.5920   19.5690 C   0  0  0  0  0  3  0  0  0  0  0  0
  -29.3070  -13.3200   20.6600 C   0  0  0  0  0  2  0  0  0  0  0  0
  -30.6370  -13.5430   20.0690 N   0  0  0  0  0  0  0  0  0  0  0  0
  -32.4960  -14.8020   19.6710 O   0  0  0  0  0  0  0  0  0  0  0  0
  -30.6850  -15.7760   20.5480 N   0  0  0  0  0  0  0  0  0  0  0  0
  -29.7620  -15.6190   20.9250 H   0  0  0  0  0  0  0  0  0  0  0  0
  -25.9010  -14.3150   20.3510 C   0  0  0  0  0  0  0  0  0  0  0  0
  -24.7950  -13.5930   20.7100 C   0  0  0  0  0  0  0  0  0  0  0  0
  -25.1700  -12.2190   20.6160 C   0  0  0  0  0  0  0  0  0  0  0  0
  -26.8860  -13.3810   20.0650 N   0  0  0  0  0  0  0  0  0  0  0  0
  -26.4500  -12.1130   20.2810 N   0  0  0  0  0  0  0  0  0  0  0  0
  -24.3730  -10.9950   20.7680 C   0  0  0  0  0  0  0  0  0  0  0  0
  -24.7600   -9.9650   21.6520 C   0  0  0  0  0  3  0  0  0  0  0  0
  -23.9660   -8.8060   21.7940 C   0  0  0  0  0  3  0  0  0  0  0  0
  -22.7690   -8.6690   21.0530 C   0  0  0  0  0  0  0  0  0  0  0  0
  -22.4010   -9.6860   20.1550 C   0  0  0  0  0  3  0  0  0  0  0  0
  -23.1950  -10.8350   20.0090 C   0  0  0  0  0  3  0  0  0  0  0  0
  -21.9470   -7.5690   21.1090 O   0  0  0  0  0  0  0  0  0  0  0  0
  -21.8520   -6.8010   22.2420 C   0  0  0  0  0  0  0  0  0  0  0  0
  -21.4660   -7.3490   23.4850 C   0  0  0  0  0  3  0  0  0  0  0  0
  -21.3130   -6.5100   24.6060 C   0  0  0  0  0  3  0  0  0  0  0  0
  -21.5360   -5.1240   24.4870 C   0  0  0  0  0  0  0  0  0  0  0  0
  -21.9150   -4.5760   23.2490 C   0  0  0  0  0  3  0  0  0  0  0  0
  -22.0690   -5.4140   22.1300 C   0  0  0  0  0  0  0  0  0  0  0  0
  -22.4130   -4.8760   20.9340 F   0  0  0  0  0  0  0  0  0  0  0  0
  -21.3800   -4.3180   25.5620 F   0  0  0  0  0  0  0  0  0  0  0  0
  -23.4340  -14.1380   21.0330 C   0  0  0  0  0  0  0  0  0  0  0  0
  -22.6910  -13.4570   21.8990 N   0  0  0  0  0  0  0  0  0  0  0  0
  -23.0430  -15.2000   20.5540 O   0  0  0  0  0  0  0  0  0  0  0  0
  -23.0220  -12.5930   22.3030 H   0  0  0  0  0  0  0  0  0  0  0  0
  -21.7770  -13.8030   22.1600 H   0  0  0  0  0  0  0  0  0  0  0  0
  -26.1520  -15.6790   20.2250 N   0  0  0  0  0  0  0  0  0  0  0  0
  -25.4390  -16.3840   20.3650 H   0  0  0  0  0  0  0  0  0  0  0  0
  -27.0270  -16.0690   19.8970 H   0  0  0  0  0  0  0  0  0  0  0  0
  -30.6420  -22.4620   21.6840 C   0  0  0  0  0  2  0  0  0  0  0  0
  -29.6240  -23.2910   20.8550 C   0  0  0  0  0  2  0  0  0  0  0  0
  -29.9090  -24.8150   20.8230 C   0  0  0  0  0  2  0  0  0  0  0  0
  -28.8980  -25.5910   19.9480 C   0  0  0  0  0  2  0  0  0  0  0  0
  -28.9020  -27.0050   20.2090 O   0  0  0  0  0  0  0  0  0  0  0  0
  -24.5900  -31.7950   23.2120 C   0  0  0  0  0  0  0  0  0  0  0  0
  -27.6860  -27.6610   20.1240 C   0  0  0  0  0  0  0  0  0  0  0  0
  -23.5680  -30.3790   21.4590 C   0  0  0  0  0  3  0  0  0  0  0  0
  -25.1960  -29.0070   20.0540 C   0  0  0  0  0  0  0  0  0  0  0  0
  -26.0710  -30.9160   21.4090 C   0  0  0  0  0  2  0  0  0  0  0  0
  -26.2830  -29.5820   20.7220 C   0  0  0  0  0  0  0  0  0  0  0  0
  -27.5310  -28.9180   20.7530 C   0  0  0  0  0  3  0  0  0  0  0  0
  -26.5810  -27.1120   19.4300 C   0  0  0  0  0  3  0  0  0  0  0  0
  -25.3410  -27.7740   19.3990 C   0  0  0  0  0  3  0  0  0  0  0  0
  -23.8940  -29.7730   20.0680 C   0  0  0  0  0  2  0  0  0  0  0  0
  -24.7570  -31.0440   22.0850 N   0  0  0  0  0  0  0  0  0  0  0  0
  -23.4670  -31.9690   23.7060 O   0  0  0  0  0  0  0  0  0  0  0  0
  -22.9450  -29.2770   22.3470 C   0  0  0  0  0  0  0  0  0  0  0  0
  -21.6340  -29.0420   22.1810 N   0  0  0  0  0  0  0  0  0  0  0  0
  -23.6400  -28.6390   23.1420 O   0  0  0  0  0  0  0  0  0  0  0  0
  -21.1310  -29.6170   21.5200 H   0  0  0  0  0  0  0  0  0  0  0  0
  -18.2980  -27.7120   22.5760 C   0  0  0  0  0  0  0  0  0  0  0  0
  -20.8440  -28.0290   22.8810 C   0  0  0  0  0  3  0  0  0  0  0  0
  -20.9940  -26.6450   22.2080 C   0  0  0  0  0  2  0  0  0  0  0  0
  -19.9080  -26.3580   21.1670 C   0  0  0  0  0  2  0  0  0  0  0  0
  -18.5210  -26.4170   21.8100 C   0  0  0  0  0  2  0  0  0  0  0  0
  -19.3890  -28.4760   23.0640 C   0  0  0  0  0  0  0  0  0  0  0  0
  -19.1280  -29.6910   23.7360 C   0  0  0  0  0  3  0  0  0  0  0  0
  -17.8090  -30.1390   23.9270 C   0  0  0  0  0  3  0  0  0  0  0  0
  -16.7310  -29.3700   23.4560 C   0  0  0  0  0  3  0  0  0  0  0  0
  -16.9750  -28.1580   22.7850 C   0  0  0  0  0  3  0  0  0  0  0  0
  -25.7970  -32.4890   23.9180 C   0  0  0  0  0  3  0  0  0  0  0  0
  -25.4130  -33.8790   24.1940 N   0  0  0  0  0  0  0  0  0  0  0  0
  -25.7470  -34.9270   23.4300 C   0  0  0  0  0  0  0  0  0  0  0  0
  -26.4850  -34.8290   22.4450 O   0  0  0  0  0  0  0  0  0  0  0  0
  -24.7680  -34.0280   24.9570 H   0  0  0  0  0  0  0  0  0  0  0  0
  -23.9650  -36.6270   22.9250 C   0  0  0  0  0  1  0  0  0  0  0  0
  -25.1710  -36.3000   23.8210 C   0  0  0  0  0  3  0  0  0  0  0  0
  -27.2130  -37.2990   24.7510 C   0  0  0  0  0  1  0  0  0  0  0  0
  -26.1580  -37.3980   23.7460 N   0  0  0  0  0  0  0  0  0  0  0  0
  -25.7030  -38.3000   23.8550 H   0  0  0  0  0  0  0  0  0  0  0  0
  -26.2450  -31.7590   25.2440 C   0  0  1  0  0  0  0  0  0  0  0  0
  -25.0870  -31.4990   26.2330 C   0  0  0  0  0  1  0  0  0  0  0  0
  -26.9040  -30.3970   24.9210 C   0  0  0  0  0  1  0  0  0  0  0  0
  -27.3160  -32.6040   25.9730 C   0  0  0  0  0  1  0  0  0  0  0  0
  2  1  1  0
  3  1  1  0
  4  2  1  0
  5  8  1  0
  5  3  1  0
  6  5  1  0
  6  4  1  0
  6  7  1  6
  9  8  1  0
 10 19  1  0
 10  9  1  0
 11 19  1  0
 12 17  1  0
 13 14  1  0
 13 12  1  0
 15 14  1  0
 15 24  1  0
 15 16  1  0
 17 11  1  0
 17 16  1  0
 18 11  2  0
 19 20  1  0
 21 22  2  0
 22 41  1  0
 23 22  1  0
 23 26  1  0
 24 25  1  0
 24 21  1  0
 25 23  2  0
 26 27  1  0
 27 28  2  0
 29 32  1  0
 29 28  1  0
 30 29  2  0
 31 30  1  0
 31 26  2  0
 32 33  1  0
 33 34  1  0
 34 35  2  0
 36 35  1  0
 36 40  1  0
 37 36  2  0
 38 33  2  0
 38 37  1  0
 39 38  1  0
 41 42  1  0
 42 45  1  0
 42 44  1  0
 43 41  2  0
 46 21  1  0
 46 47  1  0
 48 46  1  0
 49  6  1  0
 50 49  1  0
 51 50  1  0
 52 53  1  0
 52 51  1  0
 54 65  2  0
 55 53  1  0
 55 60  1  0
 56 64  1  0
 56 66  1  0
 57 63  1  0
 57 59  1  0
 58 64  1  0
 59 60  2  0
 59 58  1  0
 61 55  2  0
 62 61  1  0
 62 57  2  0
 63 56  1  0
 64 54  1  0
 66 68  2  0
 67 66  1  0
 69 67  1  0
 70 79  2  0
 70 75  1  0
 71 67  1  0
 71 75  1  0
 72 71  1  0
 73 74  1  0
 73 72  1  0
 74 70  1  0
 75 76  2  0
 76 77  1  0
 78 77  2  0
 79 78  1  0
 80 54  1  0
 80 81  1  0
 80 90  1  0
 81 84  1  0
 82 86  1  0
 82 81  1  0
 83 82  2  0
 86 85  1  0
 88 86  1  0
 88 89  1  0
 88 87  1  0
 90 93  1  1
 90 91  1  0
 92 90  1  0
M  ISO  4  11 100  19 100  52 101  53 101
M  END
>  <TORSDO>  (92) 
F 23

>  <SCORE>  (92) 
-10.898

>  <name>  (92) 
92

>  <ligand_id>  (92) 
92

>  <original_smiles>  (92) 
[H]c1c([H])c([H])c2c(c1[H])C([H])([H])C([H])([H])C([H])([H])C2([H])N([H])C(=O)C1([H])N(C(=O)C([H])(N([H])C(=O)C([H])(N([H])C([H])([H])[H])C([H])([H])[H])C(C([H])([H])[H])(C([H])([H])[H])C([H])([H])[H])C([H])([H])c2c([H])c(OC([H])([H])C([H])([H])C([H])([H])C([H])([H])[N+]3([H])C([H])([H])C([H])([H])C([H])([H])C([H])([H])C3([H])C([H])([H])C([H])([H])C([H])([H])N([H])C(=O)N3C([H])([H])C([H])([H])C([H])([H])C([H])(n4nc(-c5c([H])c([H])c(Oc6c([H])c([H])c(F)c([H])c6F)c([H])c5[H])c(C(=O)N([H])[H])c4N([H])[H])C3([H])[H])c([H])c([H])c2C1([H])[H]

>  <smiles>  (92) 
[H]c1c([H])c([H])c2c(c1[H])C([H])([H])C([H])([H])C([H])([H])C2([H])N([H])C(=O)C1([H])N(C(=O)C([H])(N([H])C(=O)C([H])(N([H])C([H])([H])[H])C([H])([H])[H])C(C([H])([H])[H])(C([H])([H])[H])C([H])([H])[H])C([H])([H])c2c([H])c(OC([H])([H])C([H])([H])C([H])([H])C([H])([H])[N+]3([H])C([H])([H])C([H])([H])C([H])([H])C([H])([H])C3([H])C([H])([H])C([H])([H])C([H])([H])N([H])C(=O)N3C([H])([H])C([H])([H])C([H])([H])C([H])(n4nc(-c5c([H])c([H])c(Oc6c([H])c([H])c(F)c([H])c6F)c([H])c5[H])c(C(=O)N([H])[H])c4N([H])[H])C3([H])[H])c([H])c([H])c2C1([H])[H]

$$$$
93:0:0
     RDKit          3D

 89 98  0  0  1  0  0  0  0  0999 V2000
  -31.0150  -20.1560   19.5620 C   0  0  0  0  0  2  0  0  0  0  0  0
  -30.9910  -18.7520   20.3700 C   0  0  0  0  0  2  0  0  0  0  0  0
  -28.8240  -19.6250   18.5280 C   0  0  0  0  0  2  0  0  0  0  0  0
  -28.4120  -20.2220   20.7870 C   0  0  0  0  0  2  0  0  0  0  0  0
  -29.6710  -20.8340   18.9880 C   0  0  0  0  0  3  0  0  0  0  0  0
  -28.5860  -18.8580   19.8530 C   0  0  0  0  0  3  0  0  0  0  0  0
  -28.6510  -21.5900   19.9350 C   0  0  0  0  0  3  0  0  0  0  0  0
  -29.8330  -17.7810   19.9630 C   0  0  0  0  0  3  0  0  0  0  0  0
  -30.4970  -15.0640   20.2430 C   0  0  0  0  0  0  0  0  0  0  0  0
  -30.4040  -12.6910   19.3360 C   0  0  0  0  0  2  0  0  0  0  0  0
  -29.4710  -12.6210   18.1030 C   0  0  0  0  0  2  0  0  0  0  0  0
  -28.0110  -12.3970   18.5360 C   0  0  0  0  0  2  0  0  0  0  0  0
  -27.5960  -13.3260   19.7070 C   0  0  0  0  0  3  0  0  0  0  0  0
  -28.6500  -13.3600   20.8360 C   0  0  0  0  0  2  0  0  0  0  0  0
  -29.9180  -13.7890   20.2290 N   0  0  0  0  0  0  0  0  0  0  0  0
  -31.6810  -15.1280   19.8950 O   0  0  0  0  0  0  0  0  0  0  0  0
  -29.7220  -16.2560   20.4410 N   0  0  0  0  0  0  0  0  0  0  0  0
  -28.8110  -16.0430   20.8260 H   0  0  0  0  0  0  0  0  0  0  0  0
  -25.2090  -13.9060   20.4240 C   0  0  0  0  0  0  0  0  0  0  0  0
  -24.1440  -13.1370   20.7980 C   0  0  0  0  0  0  0  0  0  0  0  0
  -24.6110  -11.7850   20.7860 C   0  0  0  0  0  0  0  0  0  0  0  0
  -26.2550  -13.0290   20.2010 N   0  0  0  0  0  0  0  0  0  0  0  0
  -25.9040  -11.7480   20.4850 N   0  0  0  0  0  0  0  0  0  0  0  0
  -23.8840  -10.5250   20.9880 C   0  0  0  0  0  0  0  0  0  0  0  0
  -24.3120   -9.5680   21.9350 C   0  0  0  0  0  3  0  0  0  0  0  0
  -23.5850   -8.3730   22.1240 C   0  0  0  0  0  3  0  0  0  0  0  0
  -22.4170   -8.1230   21.3660 C   0  0  0  0  0  0  0  0  0  0  0  0
  -22.0080   -9.0680   20.4070 C   0  0  0  0  0  3  0  0  0  0  0  0
  -22.7340  -10.2550   20.2160 C   0  0  0  0  0  3  0  0  0  0  0  0
  -21.6650   -6.9770   21.4630 O   0  0  0  0  0  0  0  0  0  0  0  0
  -21.6120   -6.2460   22.6220 C   0  0  0  0  0  0  0  0  0  0  0  0
  -21.1740   -6.8120   23.8390 C   0  0  0  0  0  3  0  0  0  0  0  0
  -21.0690   -6.0090   24.9920 C   0  0  0  0  0  3  0  0  0  0  0  0
  -21.3870   -4.6390   24.9290 C   0  0  0  0  0  0  0  0  0  0  0  0
  -21.8130   -4.0710   23.7150 C   0  0  0  0  0  3  0  0  0  0  0  0
  -21.9210   -4.8720   22.5650 C   0  0  0  0  0  0  0  0  0  0  0  0
  -22.3140   -4.3150   21.3930 F   0  0  0  0  0  0  0  0  0  0  0  0
  -21.2790   -3.8660   26.0340 F   0  0  0  0  0  0  0  0  0  0  0  0
  -22.7430  -13.6140   21.0530 C   0  0  0  0  0  0  0  0  0  0  0  0
  -22.0090  -12.9290   21.9210 N   0  0  0  0  0  0  0  0  0  0  0  0
  -22.3100  -14.6350   20.5180 O   0  0  0  0  0  0  0  0  0  0  0  0
  -22.3760  -12.1100   22.3810 H   0  0  0  0  0  0  0  0  0  0  0  0
  -21.0670  -13.2300   22.1300 H   0  0  0  0  0  0  0  0  0  0  0  0
  -25.3700  -15.2750   20.2250 N   0  0  0  0  0  0  0  0  0  0  0  0
  -24.5930  -15.9220   20.3080 H   0  0  0  0  0  0  0  0  0  0  0  0
  -26.2010  -15.7050   19.8420 H   0  0  0  0  0  0  0  0  0  0  0  0
  -28.8580  -23.2060   20.4670 C   0  0  0  0  0  3  0  0  0  0  0  0
  -27.9810  -24.5930   19.9770 C   0  0  0  0  0  3  0  0  0  0  0  0
  -28.2260  -26.1270   20.2530 O   0  0  0  0  0  0  0  0  0  0  0  0
  -24.6310  -31.8640   23.2350 C   0  0  0  0  0  0  0  0  0  0  0  0
  -27.1840  -27.1330   20.1760 C   0  0  0  0  0  0  0  0  0  0  0  0
  -23.4250  -30.4740   21.5970 C   0  0  0  0  0  3  0  0  0  0  0  0
  -24.8630  -28.9030   20.1560 C   0  0  0  0  0  0  0  0  0  0  0  0
  -25.9780  -30.7350   21.4190 C   0  0  0  0  0  2  0  0  0  0  0  0
  -26.0470  -29.3400   20.7640 C   0  0  0  0  0  0  0  0  0  0  0  0
  -27.2060  -28.4710   20.7560 C   0  0  0  0  0  3  0  0  0  0  0  0
  -25.9760  -26.8110   19.5180 C   0  0  0  0  0  3  0  0  0  0  0  0
  -24.8420  -27.6540   19.5160 C   0  0  0  0  0  3  0  0  0  0  0  0
  -23.6400  -29.8080   20.2120 C   0  0  0  0  0  2  0  0  0  0  0  0
  -24.6990  -31.0480   22.1370 N   0  0  0  0  0  0  0  0  0  0  0  0
  -23.5460  -32.1440   23.7710 O   0  0  0  0  0  0  0  0  0  0  0  0
  -22.7510  -29.4630   22.5590 C   0  0  0  0  0  0  0  0  0  0  0  0
  -21.4220  -29.2930   22.4410 N   0  0  0  0  0  0  0  0  0  0  0  0
  -23.4270  -28.8340   23.3780 O   0  0  0  0  0  0  0  0  0  0  0  0
  -20.9330  -29.8550   21.7580 H   0  0  0  0  0  0  0  0  0  0  0  0
  -18.0440  -28.0740   22.9600 C   0  0  0  0  0  0  0  0  0  0  0  0
  -20.6050  -28.3560   23.2160 C   0  0  0  0  0  3  0  0  0  0  0  0
  -20.7110  -26.9210   22.6500 C   0  0  0  0  0  2  0  0  0  0  0  0
  -19.6060  -26.5870   21.6420 C   0  0  0  0  0  2  0  0  0  0  0  0
  -18.2260  -26.7250   22.2870 C   0  0  0  0  0  2  0  0  0  0  0  0
  -19.1610  -28.8460   23.3840 C   0  0  0  0  0  0  0  0  0  0  0  0
  -18.9330  -30.1050   23.9790 C   0  0  0  0  0  3  0  0  0  0  0  0
  -17.6240  -30.5940   24.1510 C   0  0  0  0  0  3  0  0  0  0  0  0
  -16.5250  -29.8230   23.7360 C   0  0  0  0  0  3  0  0  0  0  0  0
  -16.7360  -28.5640   23.1490 C   0  0  0  0  0  3  0  0  0  0  0  0
  -25.9080  -32.5030   23.8570 C   0  0  0  0  0  3  0  0  0  0  0  0
  -25.5960  -33.9020   24.1890 N   0  0  0  0  0  0  0  0  0  0  0  0
  -25.9190  -34.9580   23.4320 C   0  0  0  0  0  0  0  0  0  0  0  0
  -26.5740  -34.8590   22.3910 O   0  0  0  0  0  0  0  0  0  0  0  0
  -25.0150  -34.0560   25.0010 H   0  0  0  0  0  0  0  0  0  0  0  0
  -24.1820  -36.7530   23.1100 C   0  0  0  0  0  1  0  0  0  0  0  0
  -25.4370  -36.3470   23.8990 C   0  0  0  0  0  3  0  0  0  0  0  0
  -27.5850  -37.2310   24.6960 C   0  0  0  0  0  1  0  0  0  0  0  0
  -26.4660  -37.4030   23.7720 N   0  0  0  0  0  0  0  0  0  0  0  0
  -26.0610  -38.3200   23.9330 H   0  0  0  0  0  0  0  0  0  0  0  0
  -26.4260  -31.7380   25.1370 C   0  0  1  0  0  0  0  0  0  0  0  0
  -25.3350  -31.5100   26.2100 C   0  0  0  0  0  1  0  0  0  0  0  0
  -27.0040  -30.3570   24.7550 C   0  0  0  0  0  1  0  0  0  0  0  0
  -27.5790  -32.5350   25.7930 C   0  0  0  0  0  1  0  0  0  0  0  0
  1  2  1  0
  5  3  1  0
  5  1  1  0
  5  7  1  0
  6  3  1  0
  6  8  1  0
  6  4  1  0
  7 47  1  0
  7  4  1  0
  8  2  1  0
  8 17  1  0
  9 17  1  0
 10 15  1  0
 11 12  1  0
 11 10  1  0
 13 12  1  0
 13 22  1  0
 13 14  1  0
 15  9  1  0
 15 14  1  0
 16  9  2  0
 17 18  1  0
 19 20  2  0
 20 39  1  0
 21 20  1  0
 21 24  1  0
 22 19  1  0
 22 23  1  0
 23 21  2  0
 24 25  1  0
 25 26  2  0
 27 30  1  0
 27 26  1  0
 28 27  2  0
 29 28  1  0
 29 24  2  0
 30 31  1  0
 31 32  1  0
 32 33  2  0
 34 33  1  0
 34 38  1  0
 35 34  2  0
 36 31  2  0
 36 35  1  0
 37 36  1  0
 39 40  1  0
 40 43  1  0
 40 42  1  0
 41 39  2  0
 44 45  1  0
 44 19  1  0
 46 44  1  0
 48 49  1  0
 48 47  2  0
 50 61  2  0
 51 49  1  0
 51 56  1  0
 52 60  1  0
 52 62  1  0
 53 59  1  0
 53 55  1  0
 54 60  1  0
 55 54  1  0
 56 55  2  0
 57 51  2  0
 58 57  1  0
 58 53  2  0
 59 52  1  0
 60 50  1  0
 62 64  2  0
 63 62  1  0
 65 63  1  0
 66 75  2  0
 66 71  1  0
 67 63  1  0
 67 71  1  0
 68 67  1  0
 69 70  1  0
 69 68  1  0
 70 66  1  0
 71 72  2  0
 72 73  1  0
 74 73  2  0
 75 74  1  0
 76 50  1  0
 76 77  1  0
 76 86  1  0
 77 80  1  0
 78 82  1  0
 78 77  1  0
 79 78  2  0
 82 81  1  0
 84 82  1  0
 84 85  1  0
 84 83  1  0
 86 89  1  1
 86 87  1  0
 88 86  1  0
M  ISO  4   9 100  17 100  48 101  49 101
M  END
>  <TORSDO>  (93) 
F 18

>  <SCORE>  (93) 
-15.664

>  <name>  (93) 
93

>  <ligand_id>  (93) 
93

>  <original_smiles>  (93) 
[H]c1c([H])c([H])c2c(c1[H])C([H])([H])C([H])([H])C([H])([H])C2([H])N([H])C(=O)C1([H])N(C(=O)C([H])(N([H])C(=O)C([H])(N([H])C([H])([H])[H])C([H])([H])[H])C(C([H])([H])[H])(C([H])([H])[H])C([H])([H])[H])C([H])([H])c2c([H])c(OC([H])([H])C([H])([H])C3([H])C([H])([H])C4([H])C([H])([H])C3([H])C([H])([H])C([H])([H])C4([H])N([H])C(=O)N3C([H])([H])C([H])([H])C([H])([H])C([H])(n4nc(-c5c([H])c([H])c(Oc6c([H])c([H])c(F)c([H])c6F)c([H])c5[H])c(C(=O)N([H])[H])c4N([H])[H])C3([H])[H])c([H])c([H])c2C1([H])[H]

>  <smiles>  (93) 
[H]c1c([H])c([H])c2c(c1[H])C([H])([H])C([H])([H])C([H])([H])C2([H])N([H])C(=O)C1([H])N(C(=O)C([H])(N([H])C(=O)C([H])(N([H])C([H])([H])[H])C([H])([H])[H])C(C([H])([H])[H])(C([H])([H])[H])C([H])([H])[H])C([H])([H])c2c([H])c(OC([H])([H])C([H])([H])C3([H])C([H])([H])C4([H])C([H])([H])C3([H])C([H])([H])C([H])([H])C4([H])N([H])C(=O)N3C([H])([H])C([H])([H])C([H])([H])C([H])(n4nc(-c5c([H])c([H])c(Oc6c([H])c([H])c(F)c([H])c6F)c([H])c5[H])c(C(=O)N([H])[H])c4N([H])[H])C3([H])[H])c([H])c([H])c2C1([H])[H]

$$$$
94:0:0
     RDKit          3D

 95103  0  0  1  0  0  0  0  0999 V2000
  -28.3540  -21.1920   20.7360 C   0  0  0  0  0  3  0  0  0  0  0  0
  -28.5350  -22.5120   20.4710 C   0  0  0  0  0  0  0  0  0  0  0  0
  -27.5680  -20.7710   18.3360 C   0  0  0  0  0  2  0  0  0  0  0  0
  -28.4580  -21.9830   18.0180 C   0  0  0  0  0  2  0  0  0  0  0  0
  -27.8020  -20.1640   19.7430 C   0  0  0  0  0  3  0  0  0  0  0  0
  -28.2390  -23.0900   19.0700 C   0  0  0  0  0  3  0  0  0  0  0  0
  -29.0270  -23.3610   21.5590 C   0  0  0  0  0  0  0  0  0  0  0  0
  -28.1520  -23.5100   22.5480 N   0  0  0  0  0  0  0  0  0  0  0  0
  -30.1250  -23.9130   21.6130 O   0  0  0  0  0  0  0  0  0  0  0  0
  -27.2490  -23.0610   22.4950 H   0  0  0  0  0  0  0  0  0  0  0  0
  -28.3800  -24.0800   23.3500 H   0  0  0  0  0  0  0  0  0  0  0  0
  -28.5900  -18.8040   19.6340 C   0  0  0  0  0  2  0  0  0  0  0  0
  -29.4870  -17.9010   20.5440 C   0  0  0  0  0  2  0  0  0  0  0  0
  -29.1220  -16.3900   20.4330 C   0  0  0  0  0  2  0  0  0  0  0  0
  -30.7010  -14.5260   20.1950 C   0  0  0  0  0  0  0  0  0  0  0  0
  -30.3510  -12.3530   19.0730 C   0  0  0  0  0  2  0  0  0  0  0  0
  -29.3630  -12.5020   17.9000 C   0  0  0  0  0  2  0  0  0  0  0  0
  -27.9090  -12.3600   18.3870 C   0  0  0  0  0  2  0  0  0  0  0  0
  -27.6080  -13.2350   19.6330 C   0  0  0  0  0  3  0  0  0  0  0  0
  -28.7030  -13.0630   20.7090 C   0  0  0  0  0  2  0  0  0  0  0  0
  -30.0030  -13.3620   20.0850 N   0  0  0  0  0  0  0  0  0  0  0  0
  -31.7800  -14.7190   19.6340 O   0  0  0  0  0  0  0  0  0  0  0  0
  -30.1660  -15.4960   20.9550 N   0  0  0  0  0  0  0  0  0  0  0  0
  -30.8930  -16.0340   21.4050 H   0  0  0  0  0  0  0  0  0  0  0  0
  -25.2510  -13.8510   20.4620 C   0  0  0  0  0  0  0  0  0  0  0  0
  -24.1930  -13.0820   20.8650 C   0  0  0  0  0  0  0  0  0  0  0  0
  -24.6380  -11.7260   20.7840 C   0  0  0  0  0  0  0  0  0  0  0  0
  -26.2750  -12.9650   20.1670 N   0  0  0  0  0  0  0  0  0  0  0  0
  -25.9130  -11.6800   20.4180 N   0  0  0  0  0  0  0  0  0  0  0  0
  -23.9080  -10.4670   20.9780 C   0  0  0  0  0  0  0  0  0  0  0  0
  -24.3420   -9.4990   21.9110 C   0  0  0  0  0  3  0  0  0  0  0  0
  -23.6120   -8.3050   22.0940 C   0  0  0  0  0  3  0  0  0  0  0  0
  -22.4370   -8.0670   21.3420 C   0  0  0  0  0  0  0  0  0  0  0  0
  -22.0250   -9.0230   20.3990 C   0  0  0  0  0  3  0  0  0  0  0  0
  -22.7530  -10.2100   20.2130 C   0  0  0  0  0  3  0  0  0  0  0  0
  -21.6800   -6.9250   21.4340 O   0  0  0  0  0  0  0  0  0  0  0  0
  -21.5930   -6.2120   22.6040 C   0  0  0  0  0  0  0  0  0  0  0  0
  -21.0850   -6.7860   23.7890 C   0  0  0  0  0  3  0  0  0  0  0  0
  -20.9460   -5.9970   24.9490 C   0  0  0  0  0  3  0  0  0  0  0  0
  -21.3060   -4.6360   24.9240 C   0  0  0  0  0  0  0  0  0  0  0  0
  -21.8060   -4.0630   23.7420 C   0  0  0  0  0  3  0  0  0  0  0  0
  -21.9460   -4.8470   22.5850 C   0  0  0  0  0  0  0  0  0  0  0  0
  -22.4090   -4.2840   21.4430 F   0  0  0  0  0  0  0  0  0  0  0  0
  -21.1650   -3.8770   26.0360 F   0  0  0  0  0  0  0  0  0  0  0  0
  -22.8140  -13.5660   21.2110 C   0  0  0  0  0  0  0  0  0  0  0  0
  -22.1220  -12.8620   22.0990 N   0  0  0  0  0  0  0  0  0  0  0  0
  -22.3620  -14.6040   20.7300 O   0  0  0  0  0  0  0  0  0  0  0  0
  -22.5010  -12.0240   22.5130 H   0  0  0  0  0  0  0  0  0  0  0  0
  -21.1980  -13.1670   22.3740 H   0  0  0  0  0  0  0  0  0  0  0  0
  -25.4190  -15.2220   20.3000 N   0  0  0  0  0  0  0  0  0  0  0  0
  -24.6590  -15.8770   20.4470 H   0  0  0  0  0  0  0  0  0  0  0  0
  -26.2420  -15.6530   19.9010 H   0  0  0  0  0  0  0  0  0  0  0  0
  -28.9430  -24.4320   18.7150 C   0  0  0  0  0  2  0  0  0  0  0  0
  -28.4120  -25.1550   17.4570 C   0  0  0  0  0  2  0  0  0  0  0  0
  -28.2670  -26.5630   17.6910 O   0  0  0  0  0  0  0  0  0  0  0  0
  -24.7360  -30.4610   22.4850 C   0  0  0  0  0  0  0  0  0  0  0  0
  -27.0430  -27.1010   18.0490 C   0  0  0  0  0  0  0  0  0  0  0  0
  -23.3420  -29.3860   20.7490 C   0  0  0  0  0  3  0  0  0  0  0  0
  -24.6100  -28.3510   18.7980 C   0  0  0  0  0  0  0  0  0  0  0  0
  -25.7840  -29.9910   20.2720 C   0  0  0  0  0  2  0  0  0  0  0  0
  -25.8240  -28.8210   19.3110 C   0  0  0  0  0  0  0  0  0  0  0  0
  -27.0390  -28.2060   18.9330 C   0  0  0  0  0  3  0  0  0  0  0  0
  -25.8000  -26.6290   17.5590 C   0  0  0  0  0  3  0  0  0  0  0  0
  -24.5940  -27.2530   17.9240 C   0  0  0  0  0  3  0  0  0  0  0  0
  -23.3540  -29.0690   19.2300 C   0  0  0  0  0  2  0  0  0  0  0  0
  -24.6480  -29.9490   21.2260 N   0  0  0  0  0  0  0  0  0  0  0  0
  -23.7470  -30.5080   23.2300 O   0  0  0  0  0  0  0  0  0  0  0  0
  -22.9060  -28.1170   21.5140 C   0  0  0  0  0  0  0  0  0  0  0  0
  -21.6010  -27.8060   21.4630 N   0  0  0  0  0  0  0  0  0  0  0  0
  -23.7330  -27.4220   22.1120 O   0  0  0  0  0  0  0  0  0  0  0  0
  -20.9860  -28.4300   20.9600 H   0  0  0  0  0  0  0  0  0  0  0  0
  -18.4560  -26.0790   21.8800 C   0  0  0  0  0  0  0  0  0  0  0  0
  -20.9710  -26.6380   22.0770 C   0  0  0  0  0  3  0  0  0  0  0  0
  -21.2160  -25.3630   21.2370 C   0  0  0  0  0  2  0  0  0  0  0  0
  -20.0960  -25.0760   20.2330 C   0  0  0  0  0  2  0  0  0  0  0  0
  -18.7570  -24.9100   20.9570 C   0  0  0  0  0  2  0  0  0  0  0  0
  -19.4940  -26.9000   22.3940 C   0  0  0  0  0  0  0  0  0  0  0  0
  -19.1580  -27.9930   23.2230 C   0  0  0  0  0  3  0  0  0  0  0  0
  -17.8150  -28.2700   23.5390 C   0  0  0  0  0  3  0  0  0  0  0  0
  -16.7930  -27.4450   23.0390 C   0  0  0  0  0  3  0  0  0  0  0  0
  -17.1130  -26.3500   22.2170 C   0  0  0  0  0  3  0  0  0  0  0  0
  -26.0760  -31.0350   23.0400 C   0  0  0  0  0  3  0  0  0  0  0  0
  -25.7570  -32.2560   23.7920 N   0  0  0  0  0  0  0  0  0  0  0  0
  -25.9410  -33.5010   23.3330 C   0  0  0  0  0  0  0  0  0  0  0  0
  -26.4720  -33.7430   22.2460 O   0  0  0  0  0  0  0  0  0  0  0  0
  -25.2670  -32.1340   24.6660 H   0  0  0  0  0  0  0  0  0  0  0  0
  -24.1270  -35.2070   23.6810 C   0  0  0  0  0  1  0  0  0  0  0  0
  -25.4590  -34.6620   24.2220 C   0  0  0  0  0  3  0  0  0  0  0  0
  -27.6330  -35.4010   25.0910 C   0  0  0  0  0  1  0  0  0  0  0  0
  -26.4390  -35.7650   24.3330 N   0  0  0  0  0  0  0  0  0  0  0  0
  -26.0180  -36.5780   24.7750 H   0  0  0  0  0  0  0  0  0  0  0  0
  -26.8620  -30.0110   23.9470 C   0  0  1  0  0  0  0  0  0  0  0  0
  -26.0030  -29.3870   25.0700 C   0  0  0  0  0  1  0  0  0  0  0  0
  -27.4350  -28.8560   23.0930 C   0  0  0  0  0  1  0  0  0  0  0  0
  -28.0710  -30.7160   24.6080 C   0  0  0  0  0  1  0  0  0  0  0  0
  2  1  2  0
  2  7  1  0
  3  5  1  0
  4  3  1  0
  4  6  1  0
  5 12  1  0
  5  1  1  0
  6 53  1  0
  6  2  1  0
  7  9  2  0
  7  8  1  0
  8 11  1  0
 10  8  1  0
 12 13  1  0
 14 13  1  0
 14 23  1  0
 15 23  1  0
 16 21  1  0
 17 18  1  0
 17 16  1  0
 19 18  1  0
 19 28  1  0
 19 20  1  0
 21 15  1  0
 21 20  1  0
 22 15  2  0
 23 24  1  0
 25 26  2  0
 26 45  1  0
 27 26  1  0
 27 30  1  0
 28 29  1  0
 28 25  1  0
 29 27  2  0
 30 31  1  0
 31 32  2  0
 33 36  1  0
 33 32  1  0
 34 33  2  0
 35 34  1  0
 35 30  2  0
 36 37  1  0
 37 38  1  0
 38 39  2  0
 40 39  1  0
 40 44  1  0
 41 40  2  0
 42 37  2  0
 42 41  1  0
 43 42  1  0
 45 46  1  0
 46 49  1  0
 46 48  1  0
 47 45  2  0
 50 51  1  0
 50 25  1  0
 52 50  1  0
 54 55  1  0
 54 53  1  0
 55 57  1  0
 56 67  2  0
 57 62  1  0
 58 66  1  0
 58 68  1  0
 59 65  1  0
 59 61  1  0
 60 66  1  0
 61 60  1  0
 62 61  2  0
 63 64  1  0
 63 57  2  0
 64 59  2  0
 65 58  1  0
 66 56  1  0
 68 70  2  0
 69 68  1  0
 71 69  1  0
 72 81  2  0
 72 77  1  0
 73 69  1  0
 73 77  1  0
 74 73  1  0
 75 76  1  0
 75 74  1  0
 76 72  1  0
 77 78  2  0
 78 79  1  0
 80 79  2  0
 81 80  1  0
 82 56  1  0
 82 83  1  0
 82 92  1  0
 83 86  1  0
 84 83  1  0
 84 88  1  0
 85 84  2  0
 88 87  1  0
 88 90  1  0
 90 91  1  0
 90 89  1  0
 92 95  1  1
 92 93  1  0
 94 92  1  0
M  ISO  4  15 100  23 100  54 101  55 101
M  END
>  <TORSDO>  (94) 
F 22

>  <SCORE>  (94) 
-10.163

>  <name>  (94) 
94

>  <ligand_id>  (94) 
94

>  <original_smiles>  (94) 
[H]C1=C(C(=O)N([H])[H])C([H])(C([H])([H])C([H])([H])Oc2c([H])c([H])c3c(c2[H])C([H])([H])N(C(=O)C([H])(N([H])C(=O)C([H])(N([H])C([H])([H])[H])C([H])([H])[H])C(C([H])([H])[H])(C([H])([H])[H])C([H])([H])[H])C([H])(C(=O)N([H])C2([H])c4c([H])c([H])c([H])c([H])c4C([H])([H])C([H])([H])C2([H])[H])C3([H])[H])C([H])([H])C([H])([H])C1([H])C([H])([H])C([H])([H])C([H])([H])N([H])C(=O)N1C([H])([H])C([H])([H])C([H])([H])C([H])(n2nc(-c3c([H])c([H])c(Oc4c([H])c([H])c(F)c([H])c4F)c([H])c3[H])c(C(=O)N([H])[H])c2N([H])[H])C1([H])[H]

>  <smiles>  (94) 
[H]C1=C(C(=O)N([H])[H])C([H])(C([H])([H])C([H])([H])Oc2c([H])c([H])c3c(c2[H])C([H])([H])N(C(=O)C([H])(N([H])C(=O)C([H])(N([H])C([H])([H])[H])C([H])([H])[H])C(C([H])([H])[H])(C([H])([H])[H])C([H])([H])[H])C([H])(C(=O)N([H])C2([H])c4c([H])c([H])c([H])c([H])c4C([H])([H])C([H])([H])C2([H])[H])C3([H])[H])C([H])([H])C([H])([H])C1([H])C([H])([H])C([H])([H])C([H])([H])N([H])C(=O)N1C([H])([H])C([H])([H])C([H])([H])C([H])(n2nc(-c3c([H])c([H])c(Oc4c([H])c([H])c(F)c([H])c4F)c([H])c3[H])c(C(=O)N([H])[H])c2N([H])[H])C1([H])[H]

$$$$
95:0:0
     RDKit          3D

 90 98  0  0  1  0  0  0  0  0999 V2000
  -30.1710  -23.0810   20.4960 C   0  0  0  0  0  2  0  0  0  0  0  0
  -28.7330  -23.4110   20.4870 C   0  0  0  0  0  3  0  0  0  0  0  0
  -29.3180  -21.9960   19.8170 C   0  0  1  0  0  0  0  0  0  0  0  0
  -30.6340  -22.3820   17.6120 C   0  0  0  0  0  1  0  0  0  0  0  0
  -29.3020  -21.9950   18.2810 C   0  0  0  0  0  2  0  0  0  0  0  0
  -28.2050  -24.7980   19.7640 C   0  0  0  0  0  2  0  0  0  0  0  0
  -28.2870  -26.2580   20.2620 O   0  0  0  0  0  0  0  0  0  0  0  0
  -24.6230  -31.8660   23.2400 C   0  0  0  0  0  0  0  0  0  0  0  0
  -27.2100  -27.2050   20.1640 C   0  0  0  0  0  0  0  0  0  0  0  0
  -23.4240  -30.4790   21.5920 C   0  0  0  0  0  3  0  0  0  0  0  0
  -24.8700  -28.9220   20.1580 C   0  0  0  0  0  0  0  0  0  0  0  0
  -25.9760  -30.7530   21.4300 C   0  0  0  0  0  2  0  0  0  0  0  0
  -26.0480  -29.3690   20.7700 C   0  0  0  0  0  0  0  0  0  0  0  0
  -27.2140  -28.5250   20.7600 C   0  0  0  0  0  3  0  0  0  0  0  0
  -26.0090  -26.8640   19.4920 C   0  0  0  0  0  3  0  0  0  0  0  0
  -24.8620  -27.6820   19.5070 C   0  0  0  0  0  3  0  0  0  0  0  0
  -23.6450  -29.8130   20.2090 C   0  0  0  0  0  2  0  0  0  0  0  0
  -24.6940  -31.0550   22.1430 N   0  0  0  0  0  0  0  0  0  0  0  0
  -23.5360  -32.1460   23.7690 O   0  0  0  0  0  0  0  0  0  0  0  0
  -22.7510  -29.4620   22.5460 C   0  0  0  0  0  0  0  0  0  0  0  0
  -21.4230  -29.2880   22.4180 N   0  0  0  0  0  0  0  0  0  0  0  0
  -23.4230  -28.8330   23.3680 O   0  0  0  0  0  0  0  0  0  0  0  0
  -20.9380  -29.8490   21.7320 H   0  0  0  0  0  0  0  0  0  0  0  0
  -18.0450  -28.0750   22.9070 C   0  0  0  0  0  0  0  0  0  0  0  0
  -20.6030  -28.3480   23.1840 C   0  0  0  0  0  3  0  0  0  0  0  0
  -20.7120  -26.9160   22.6080 C   0  0  0  0  0  2  0  0  0  0  0  0
  -19.6140  -26.5900   21.5890 C   0  0  0  0  0  2  0  0  0  0  0  0
  -18.2290  -26.7290   22.2290 C   0  0  0  0  0  2  0  0  0  0  0  0
  -19.1590  -28.8420   23.3410 C   0  0  0  0  0  0  0  0  0  0  0  0
  -18.9310  -30.1030   23.9360 C   0  0  0  0  0  3  0  0  0  0  0  0
  -17.6230  -30.5940   24.1030 C   0  0  0  0  0  3  0  0  0  0  0  0
  -16.5230  -29.8250   23.6830 C   0  0  0  0  0  3  0  0  0  0  0  0
  -16.7360  -28.5670   23.0910 C   0  0  0  0  0  3  0  0  0  0  0  0
  -25.9010  -32.5020   23.8680 C   0  0  0  0  0  3  0  0  0  0  0  0
  -25.5890  -33.9030   24.1940 N   0  0  0  0  0  0  0  0  0  0  0  0
  -25.9140  -34.9570   23.4320 C   0  0  0  0  0  0  0  0  0  0  0  0
  -26.5770  -34.8530   22.3970 O   0  0  0  0  0  0  0  0  0  0  0  0
  -25.0040  -34.0600   25.0010 H   0  0  0  0  0  0  0  0  0  0  0  0
  -24.1810  -36.7540   23.0940 C   0  0  0  0  0  1  0  0  0  0  0  0
  -25.4310  -36.3460   23.8920 C   0  0  0  0  0  3  0  0  0  0  0  0
  -27.5690  -37.2400   24.7040 C   0  0  0  0  0  1  0  0  0  0  0  0
  -26.4600  -37.4010   23.7700 N   0  0  0  0  0  0  0  0  0  0  0  0
  -26.0510  -38.3200   23.9180 H   0  0  0  0  0  0  0  0  0  0  0  0
  -26.4060  -31.7390   25.1540 C   0  0  1  0  0  0  0  0  0  0  0  0
  -25.3080  -31.5100   26.2190 C   0  0  0  0  0  1  0  0  0  0  0  0
  -26.9880  -30.3580   24.7780 C   0  0  0  0  0  1  0  0  0  0  0  0
  -27.5510  -32.5390   25.8210 C   0  0  0  0  0  1  0  0  0  0  0  0
  -29.8270  -20.5050   20.3930 C   0  0  0  0  0  2  0  0  0  0  0  0
  -29.2340  -18.9340   20.2300 C   0  0  0  0  0  3  0  0  0  0  0  0
  -27.0140  -19.4330   19.0160 C   0  0  0  0  0  1  0  0  0  0  0  0
  -28.3610  -18.6920   18.9830 C   0  0  0  0  0  2  0  0  0  0  0  0
  -30.2600  -17.6230   20.4110 C   0  0  0  0  0  2  0  0  0  0  0  0
  -30.5440  -14.9290   20.2700 C   0  0  0  0  0  0  0  0  0  0  0  0
  -30.3630  -12.6150   19.2880 C   0  0  0  0  0  2  0  0  0  0  0  0
  -29.4220  -12.6290   18.0640 C   0  0  0  0  0  2  0  0  0  0  0  0
  -27.9610  -12.4180   18.5040 C   0  0  0  0  0  2  0  0  0  0  0  0
  -27.5710  -13.3250   19.7010 C   0  0  0  0  0  3  0  0  0  0  0  0
  -28.6330  -13.3060   20.8200 C   0  0  0  0  0  2  0  0  0  0  0  0
  -29.9120  -13.6940   20.2110 N   0  0  0  0  0  0  0  0  0  0  0  0
  -31.7420  -14.9800   19.9780 O   0  0  0  0  0  0  0  0  0  0  0  0
  -29.8070  -16.1210   20.4490 N   0  0  0  0  0  0  0  0  0  0  0  0
  -28.8260  -15.9830   20.6380 H   0  0  0  0  0  0  0  0  0  0  0  0
  -25.1930  -13.8970   20.4430 C   0  0  0  0  0  0  0  0  0  0  0  0
  -24.1310  -13.1220   20.8180 C   0  0  0  0  0  0  0  0  0  0  0  0
  -24.5980  -11.7720   20.7940 C   0  0  0  0  0  0  0  0  0  0  0  0
  -26.2370  -13.0200   20.2040 N   0  0  0  0  0  0  0  0  0  0  0  0
  -25.8890  -11.7370   20.4800 N   0  0  0  0  0  0  0  0  0  0  0  0
  -23.8730  -10.5090   20.9940 C   0  0  0  0  0  0  0  0  0  0  0  0
  -24.3090   -9.5480   21.9320 C   0  0  0  0  0  3  0  0  0  0  0  0
  -23.5850   -8.3500   22.1200 C   0  0  0  0  0  3  0  0  0  0  0  0
  -22.4100   -8.1060   21.3700 C   0  0  0  0  0  0  0  0  0  0  0  0
  -21.9920   -9.0560   20.4210 C   0  0  0  0  0  3  0  0  0  0  0  0
  -22.7160  -10.2460   20.2330 C   0  0  0  0  0  3  0  0  0  0  0  0
  -21.6590   -6.9590   21.4640 O   0  0  0  0  0  0  0  0  0  0  0  0
  -21.6150   -6.2240   22.6200 C   0  0  0  0  0  0  0  0  0  0  0  0
  -21.1870   -6.7800   23.8440 C   0  0  0  0  0  3  0  0  0  0  0  0
  -21.0940   -5.9680   24.9930 C   0  0  0  0  0  3  0  0  0  0  0  0
  -21.4190   -4.6000   24.9160 C   0  0  0  0  0  0  0  0  0  0  0  0
  -21.8380   -4.0430   23.6940 C   0  0  0  0  0  3  0  0  0  0  0  0
  -21.9330   -4.8530   22.5500 C   0  0  0  0  0  0  0  0  0  0  0  0
  -22.3210   -4.3080   21.3710 F   0  0  0  0  0  0  0  0  0  0  0  0
  -21.3220   -3.8160   26.0140 F   0  0  0  0  0  0  0  0  0  0  0  0
  -22.7330  -13.5970   21.0840 C   0  0  0  0  0  0  0  0  0  0  0  0
  -22.0090  -12.9080   21.9570 N   0  0  0  0  0  0  0  0  0  0  0  0
  -22.2930  -14.6170   20.5530 O   0  0  0  0  0  0  0  0  0  0  0  0
  -22.3810  -12.0890   22.4130 H   0  0  0  0  0  0  0  0  0  0  0  0
  -21.0690  -13.2080   22.1750 H   0  0  0  0  0  0  0  0  0  0  0  0
  -25.3550  -15.2650   20.2570 N   0  0  0  0  0  0  0  0  0  0  0  0
  -24.5790  -15.9110   20.3410 H   0  0  0  0  0  0  0  0  0  0  0  0
  -26.1990  -15.6980   19.9070 H   0  0  0  0  0  0  0  0  0  0  0  0
  2  6  1  0
  2  1  1  0
  3  5  1  6
  3 48  1  0
  3  2  1  0
  3  1  1  0
  4  5  1  0
  6  7  1  0
  8 19  2  0
  9  7  1  0
  9 14  1  0
 10 18  1  0
 10 20  1  0
 11 17  1  0
 11 13  1  0
 12 18  1  0
 13 12  1  0
 14 13  2  0
 15 16  1  0
 15  9  2  0
 16 11  2  0
 17 10  1  0
 18  8  1  0
 20 22  2  0
 21 20  1  0
 23 21  1  0
 24 33  2  0
 24 29  1  0
 25 21  1  0
 25 29  1  0
 26 25  1  0
 27 28  1  0
 27 26  1  0
 28 24  1  0
 29 30  2  0
 30 31  1  0
 32 31  2  0
 33 32  1  0
 34  8  1  0
 34 35  1  0
 34 44  1  0
 35 38  1  0
 36 40  1  0
 36 35  1  0
 37 36  2  0
 40 39  1  0
 42 40  1  0
 42 43  1  0
 42 41  1  0
 44 47  1  1
 44 45  1  0
 46 44  1  0
 49 51  1  0
 49 48  1  0
 49 52  1  0
 51 50  1  0
 52 61  1  0
 53 61  1  0
 54 59  1  0
 55 56  1  0
 55 54  1  0
 57 56  1  0
 57 66  1  0
 57 58  1  0
 59 53  1  0
 59 58  1  0
 60 53  2  0
 61 62  1  0
 63 64  2  0
 64 83  1  0
 65 64  1  0
 65 68  1  0
 66 63  1  0
 66 67  1  0
 67 65  2  0
 68 69  1  0
 69 70  2  0
 71 74  1  0
 71 70  1  0
 72 71  2  0
 73 72  1  0
 73 68  2  0
 74 75  1  0
 75 76  1  0
 76 77  2  0
 78 77  1  0
 78 82  1  0
 79 78  2  0
 80 75  2  0
 80 79  1  0
 81 80  1  0
 83 84  1  0
 84 87  1  0
 84 86  1  0
 85 83  2  0
 88 89  1  0
 88 63  1  0
 90 88  1  0
M  ISO  4   6 101   7 101  53 100  61 100
M  END
>  <TORSDO>  (95) 
F 22

>  <SCORE>  (95) 
-13.074

>  <name>  (95) 
95

>  <ligand_id>  (95) 
95

>  <original_smiles>  (95) 
[H]c1c([H])c([H])c2c(c1[H])C([H])([H])C([H])([H])C([H])([H])C2([H])N([H])C(=O)C1([H])N(C(=O)C([H])(N([H])C(=O)C([H])(N([H])C([H])([H])[H])C([H])([H])[H])C(C([H])([H])[H])(C([H])([H])[H])C([H])([H])[H])C([H])([H])c2c([H])c(OC([H])([H])C3([H])C([H])([H])C3(C([H])([H])C([H])([H])[H])C([H])([H])C([H])(C([H])([H])N([H])C(=O)N3C([H])([H])C([H])([H])C([H])([H])C([H])(n4nc(-c5c([H])c([H])c(Oc6c([H])c([H])c(F)c([H])c6F)c([H])c5[H])c(C(=O)N([H])[H])c4N([H])[H])C3([H])[H])C([H])([H])C([H])([H])[H])c([H])c([H])c2C1([H])[H]

>  <smiles>  (95) 
[H]c1c([H])c([H])c2c(c1[H])C([H])([H])C([H])([H])C([H])([H])C2([H])N([H])C(=O)C1([H])N(C(=O)C([H])(N([H])C(=O)C([H])(N([H])C([H])([H])[H])C([H])([H])[H])C(C([H])([H])[H])(C([H])([H])[H])C([H])([H])[H])C([H])([H])c2c([H])c(OC([H])([H])C3([H])C([H])([H])C3(C([H])([H])C([H])([H])[H])C([H])([H])C([H])(C([H])([H])N([H])C(=O)N3C([H])([H])C([H])([H])C([H])([H])C([H])(n4nc(-c5c([H])c([H])c(Oc6c([H])c([H])c(F)c([H])c6F)c([H])c5[H])c(C(=O)N([H])[H])c4N([H])[H])C3([H])[H])C([H])([H])C([H])([H])[H])c([H])c([H])c2C1([H])[H]

$$$$
96:0:0
     RDKit          3D

 92101  0  0  1  0  0  0  0  0999 V2000
  -30.1110  -22.2940   20.9530 N   0  0  0  0  0  4  0  0  0  0  0  0
  -29.1540  -21.9820   20.9210 H   0  0  0  0  0  0  0  0  0  0  0  0
  -30.4710  -22.2810   20.0130 H   0  0  0  0  0  0  0  0  0  0  0  0
  -30.8980  -21.3280   21.7540 C   0  0  0  0  0  2  0  0  0  0  0  0
  -29.2190  -17.6850   21.1730 C   0  0  0  0  0  2  0  0  0  0  0  0
  -31.5810  -17.3940   21.7220 C   0  0  0  0  0  2  0  0  0  0  0  0
  -29.6970  -18.9570   21.8410 C   0  0  0  0  0  3  0  0  0  0  0  0
  -31.1370  -18.7630   22.2050 C   0  0  0  0  0  3  0  0  0  0  0  0
  -30.7490  -19.8910   21.2670 C   0  0  0  0  0  3  0  0  0  0  0  0
  -30.4860  -16.9160   20.7520 C   0  0  0  0  0  3  0  0  0  0  0  0
  -30.9400  -14.5160   20.1150 C   0  0  0  0  0  0  0  0  0  0  0  0
  -30.5710  -12.4010   18.9040 C   0  0  0  0  0  2  0  0  0  0  0  0
  -29.5620  -12.6620   17.7660 C   0  0  0  0  0  2  0  0  0  0  0  0
  -28.1130  -12.5170   18.2730 C   0  0  0  0  0  2  0  0  0  0  0  0
  -27.8570  -13.3180   19.5760 C   0  0  0  0  0  3  0  0  0  0  0  0
  -28.9660  -13.0320   20.6150 C   0  0  0  0  0  2  0  0  0  0  0  0
  -30.2650  -13.3430   19.9880 N   0  0  0  0  0  0  0  0  0  0  0  0
  -32.0160  -14.7490   19.5580 O   0  0  0  0  0  0  0  0  0  0  0  0
  -30.2540  -15.4710   20.7610 N   0  0  0  0  0  0  0  0  0  0  0  0
  -29.3690  -15.1690   21.1410 H   0  0  0  0  0  0  0  0  0  0  0  0
  -25.4970  -13.9480   20.3960 C   0  0  0  0  0  0  0  0  0  0  0  0
  -24.4370  -13.1820   20.8040 C   0  0  0  0  0  0  0  0  0  0  0  0
  -24.8790  -11.8280   20.7330 C   0  0  0  0  0  0  0  0  0  0  0  0
  -26.5230  -13.0580   20.1100 N   0  0  0  0  0  0  0  0  0  0  0  0
  -26.1550  -11.7760   20.3650 N   0  0  0  0  0  0  0  0  0  0  0  0
  -24.1510  -10.5700   20.9430 C   0  0  0  0  0  0  0  0  0  0  0  0
  -24.5600   -9.6330   21.9180 C   0  0  0  0  0  3  0  0  0  0  0  0
  -23.8320   -8.4370   22.1120 C   0  0  0  0  0  3  0  0  0  0  0  0
  -22.6830   -8.1720   21.3280 C   0  0  0  0  0  0  0  0  0  0  0  0
  -22.2960   -9.0980   20.3420 C   0  0  0  0  0  3  0  0  0  0  0  0
  -23.0230  -10.2840   20.1480 C   0  0  0  0  0  3  0  0  0  0  0  0
  -21.9240   -7.0310   21.4300 O   0  0  0  0  0  0  0  0  0  0  0  0
  -21.7620   -6.3790   22.6260 C   0  0  0  0  0  0  0  0  0  0  0  0
  -21.1910   -7.0200   23.7480 C   0  0  0  0  0  3  0  0  0  0  0  0
  -20.9760   -6.2960   24.9360 C   0  0  0  0  0  3  0  0  0  0  0  0
  -21.3210   -4.9320   25.0040 C   0  0  0  0  0  0  0  0  0  0  0  0
  -21.8820   -4.2920   23.8840 C   0  0  0  0  0  3  0  0  0  0  0  0
  -22.0990   -5.0130   22.6990 C   0  0  0  0  0  0  0  0  0  0  0  0
  -22.6240   -4.3890   21.6180 F   0  0  0  0  0  0  0  0  0  0  0  0
  -21.1060   -4.2330   26.1420 F   0  0  0  0  0  0  0  0  0  0  0  0
  -23.0600  -13.6700   21.1520 C   0  0  0  0  0  0  0  0  0  0  0  0
  -22.3780  -12.9700   22.0530 N   0  0  0  0  0  0  0  0  0  0  0  0
  -22.6010  -14.7010   20.6630 O   0  0  0  0  0  0  0  0  0  0  0  0
  -22.7720  -12.1340   22.4600 H   0  0  0  0  0  0  0  0  0  0  0  0
  -21.4570  -13.2660   22.3390 H   0  0  0  0  0  0  0  0  0  0  0  0
  -25.6670  -15.3180   20.2260 N   0  0  0  0  0  0  0  0  0  0  0  0
  -24.9020  -15.9760   20.3400 H   0  0  0  0  0  0  0  0  0  0  0  0
  -26.4980  -15.7440   19.8360 H   0  0  0  0  0  0  0  0  0  0  0  0
  -30.1430  -23.6840   21.4730 C   0  0  0  0  0  2  0  0  0  0  0  0
  -29.7430  -24.7430   20.4180 C   0  0  0  0  0  2  0  0  0  0  0  0
  -28.6480  -25.7160   20.8900 C   0  0  0  0  0  2  0  0  0  0  0  0
  -28.5800  -26.8110   19.9830 O   0  0  0  0  0  0  0  0  0  0  0  0
  -24.7230  -31.8640   23.1830 C   0  0  0  0  0  0  0  0  0  0  0  0
  -27.4050  -27.5150   20.0350 C   0  0  0  0  0  0  0  0  0  0  0  0
  -23.5250  -30.4710   21.5240 C   0  0  0  0  0  3  0  0  0  0  0  0
  -24.9900  -28.9650   20.0780 C   0  0  0  0  0  0  0  0  0  0  0  0
  -26.0420  -30.8650   21.3230 C   0  0  0  0  0  2  0  0  0  0  0  0
  -26.1400  -29.5030   20.6710 C   0  0  0  0  0  0  0  0  0  0  0  0
  -27.3530  -28.7820   20.6510 C   0  0  0  0  0  3  0  0  0  0  0  0
  -26.2460  -26.9830   19.4350 C   0  0  0  0  0  3  0  0  0  0  0  0
  -25.0330  -27.7020   19.4610 C   0  0  0  0  0  3  0  0  0  0  0  0
  -23.7370  -29.8090   20.1360 C   0  0  0  0  0  2  0  0  0  0  0  0
  -24.7820  -31.0810   22.0690 N   0  0  0  0  0  0  0  0  0  0  0  0
  -23.6430  -32.1210   23.7320 O   0  0  0  0  0  0  0  0  0  0  0  0
  -22.8880  -29.4320   22.4750 C   0  0  0  0  0  0  0  0  0  0  0  0
  -21.5640  -29.2470   22.3530 N   0  0  0  0  0  0  0  0  0  0  0  0
  -23.5800  -28.7950   23.2720 O   0  0  0  0  0  0  0  0  0  0  0  0
  -21.0630  -29.8160   21.6840 H   0  0  0  0  0  0  0  0  0  0  0  0
  -18.1970  -28.0390   22.8500 C   0  0  0  0  0  0  0  0  0  0  0  0
  -20.7550  -28.2950   23.1150 C   0  0  0  0  0  3  0  0  0  0  0  0
  -20.8570  -26.8730   22.5150 C   0  0  0  0  0  2  0  0  0  0  0  0
  -19.7500  -26.5670   21.5000 C   0  0  0  0  0  2  0  0  0  0  0  0
  -18.3710  -26.7000   22.1530 C   0  0  0  0  0  2  0  0  0  0  0  0
  -19.3170  -28.7950   23.2880 C   0  0  0  0  0  0  0  0  0  0  0  0
  -19.0980  -30.0510   23.8960 C   0  0  0  0  0  3  0  0  0  0  0  0
  -17.7950  -30.5450   24.0790 C   0  0  0  0  0  3  0  0  0  0  0  0
  -16.6890  -29.7840   23.6590 C   0  0  0  0  0  3  0  0  0  0  0  0
  -16.8920  -28.5340   23.0470 C   0  0  0  0  0  3  0  0  0  0  0  0
  -26.0070  -32.4960   23.8060 C   0  0  0  0  0  3  0  0  0  0  0  0
  -25.6970  -33.8940   24.1340 N   0  0  0  0  0  0  0  0  0  0  0  0
  -26.0420  -34.9470   23.3800 C   0  0  0  0  0  0  0  0  0  0  0  0
  -26.7250  -34.8450   22.3580 O   0  0  0  0  0  0  0  0  0  0  0  0
  -25.0920  -34.0500   24.9280 H   0  0  0  0  0  0  0  0  0  0  0  0
  -24.3300  -36.7490   22.9930 C   0  0  0  0  0  1  0  0  0  0  0  0
  -25.5490  -36.3350   23.8330 C   0  0  0  0  0  3  0  0  0  0  0  0
  -27.6620  -37.2100   24.7270 C   0  0  0  0  0  1  0  0  0  0  0  0
  -26.5880  -37.3840   23.7530 N   0  0  0  0  0  0  0  0  0  0  0  0
  -26.1800  -38.3040   23.8930 H   0  0  0  0  0  0  0  0  0  0  0  0
  -26.5280  -31.7240   25.0790 C   0  0  1  0  0  0  0  0  0  0  0  0
  -25.4380  -31.4740   26.1450 C   0  0  0  0  0  1  0  0  0  0  0  0
  -27.1210  -30.3530   24.6790 C   0  0  0  0  0  1  0  0  0  0  0  0
  -27.6700  -32.5250   25.7470 C   0  0  0  0  0  1  0  0  0  0  0  0
  1 49  1  0
  1  4  1  0
  2  1  1  0
  3  1  1  0
  7  5  1  0
  7  8  1  0
  8  6  1  0
  9  4  1  0
  9  7  1  0
  9  8  1  0
 10 19  1  0
 10  5  1  0
 10  6  1  0
 11 19  1  0
 12 17  1  0
 13 14  1  0
 13 12  1  0
 15 14  1  0
 15 24  1  0
 15 16  1  0
 17 11  1  0
 17 16  1  0
 18 11  2  0
 19 20  1  0
 21 22  2  0
 22 41  1  0
 23 22  1  0
 23 26  1  0
 24 25  1  0
 24 21  1  0
 25 23  2  0
 26 27  1  0
 27 28  2  0
 29 32  1  0
 29 28  1  0
 30 29  2  0
 31 30  1  0
 31 26  2  0
 32 33  1  0
 33 38  2  0
 33 34  1  0
 34 35  2  0
 35 36  1  0
 36 40  1  0
 37 36  2  0
 38 37  1  0
 39 38  1  0
 41 42  1  0
 42 45  1  0
 42 44  1  0
 43 41  2  0
 46 47  1  0
 46 21  1  0
 48 46  1  0
 50 51  1  0
 50 49  1  0
 52 54  1  0
 52 51  1  0
 53 64  2  0
 54 59  1  0
 55 63  1  0
 55 65  1  0
 56 62  1  0
 56 58  1  0
 57 63  1  0
 58 57  1  0
 59 58  2  0
 60 61  1  0
 60 54  2  0
 61 56  2  0
 62 55  1  0
 63 53  1  0
 65 67  2  0
 66 65  1  0
 68 66  1  0
 69 78  2  0
 69 74  1  0
 70 66  1  0
 70 74  1  0
 71 70  1  0
 72 73  1  0
 72 71  1  0
 73 69  1  0
 74 75  2  0
 75 76  1  0
 77 76  2  0
 78 77  1  0
 79 53  1  0
 79 80  1  0
 79 89  1  0
 80 83  1  0
 81 85  1  0
 81 80  1  0
 82 81  2  0
 85 84  1  0
 87 85  1  0
 87 88  1  0
 87 86  1  0
 89 92  1  1
 89 90  1  0
 91 89  1  0
M  ISO  4  11 100  19 100  51 101  52 101
M  END
>  <TORSDO>  (96) 
F 21

>  <SCORE>  (96) 
-12.147

>  <name>  (96) 
96

>  <ligand_id>  (96) 
96

>  <original_smiles>  (96) 
[H]c1c([H])c([H])c2c(c1[H])C([H])([H])C([H])([H])C([H])([H])C2([H])N([H])C(=O)C1([H])N(C(=O)C([H])(N([H])C(=O)C([H])(N([H])C([H])([H])[H])C([H])([H])[H])C(C([H])([H])[H])(C([H])([H])[H])C([H])([H])[H])C([H])([H])c2c([H])c(OC([H])([H])C([H])([H])C([H])([H])[N+]([H])([H])C([H])([H])C3([H])C4([H])C([H])([H])C([H])(N([H])C(=O)N5C([H])([H])C([H])([H])C([H])([H])C([H])(n6nc(-c7c([H])c([H])c(Oc8c([H])c([H])c(F)c([H])c8F)c([H])c7[H])c(C(=O)N([H])[H])c6N([H])[H])C5([H])[H])C([H])([H])C43[H])c([H])c([H])c2C1([H])[H]

>  <smiles>  (96) 
[H]c1c([H])c([H])c2c(c1[H])C([H])([H])C([H])([H])C([H])([H])C2([H])N([H])C(=O)C1([H])N(C(=O)C([H])(N([H])C(=O)C([H])(N([H])C([H])([H])[H])C([H])([H])[H])C(C([H])([H])[H])(C([H])([H])[H])C([H])([H])[H])C([H])([H])c2c([H])c(OC([H])([H])C([H])([H])C([H])([H])[N+]([H])([H])C([H])([H])C3([H])C4([H])C([H])([H])C([H])(N([H])C(=O)N5C([H])([H])C([H])([H])C([H])([H])C([H])(n6nc(-c7c([H])c([H])c(Oc8c([H])c([H])c(F)c([H])c8F)c([H])c7[H])c(C(=O)N([H])[H])c6N([H])[H])C5([H])[H])C([H])([H])C43[H])c([H])c([H])c2C1([H])[H]

$$$$
97:0:0
     RDKit          3D

 91 98  0  0  1  0  0  0  0  0999 V2000
  -29.4220  -18.8970   19.9660 C   0  0  0  0  0  3  0  0  0  0  0  0
  -29.9990  -18.8040   18.5300 C   0  0  0  0  0  2  0  0  0  0  0  0
  -29.2270  -19.5600   17.4490 C   0  0  0  0  0  0  0  0  0  0  0  0
  -29.9390  -20.2150   16.5410 N   0  0  0  0  0  0  0  0  0  0  0  0
  -27.9980  -19.5600   17.4220 O   0  0  0  0  0  0  0  0  0  0  0  0
  -30.9500  -20.1920   16.5710 H   0  0  0  0  0  0  0  0  0  0  0  0
  -29.4850  -20.7500   15.8130 H   0  0  0  0  0  0  0  0  0  0  0  0
  -29.5410  -20.4730   20.5530 C   0  0  0  0  0  3  0  0  0  0  0  0
  -28.7610  -21.8440   19.9700 C   0  0  0  0  0  3  0  0  0  0  0  0
  -28.9790  -23.4210   20.4940 C   0  0  0  0  0  3  0  0  0  0  0  0
  -28.0360  -24.7180   20.0070 C   0  0  0  0  0  3  0  0  0  0  0  0
  -28.2580  -26.2200   20.2920 O   0  0  0  0  0  0  0  0  0  0  0  0
  -24.6270  -31.8900   23.2380 C   0  0  0  0  0  0  0  0  0  0  0  0
  -27.1900  -27.1790   20.2110 C   0  0  0  0  0  0  0  0  0  0  0  0
  -23.4140  -30.4880   21.6080 C   0  0  0  0  0  3  0  0  0  0  0  0
  -24.8510  -28.9010   20.1910 C   0  0  0  0  0  0  0  0  0  0  0  0
  -25.9640  -30.7510   21.4310 C   0  0  0  0  0  2  0  0  0  0  0  0
  -26.0340  -29.3570   20.7880 C   0  0  0  0  0  0  0  0  0  0  0  0
  -27.2010  -28.5090   20.7890 C   0  0  0  0  0  3  0  0  0  0  0  0
  -25.9820  -26.8200   19.5700 C   0  0  0  0  0  3  0  0  0  0  0  0
  -24.8370  -27.6440   19.5680 C   0  0  0  0  0  3  0  0  0  0  0  0
  -23.6260  -29.7970   20.2340 C   0  0  0  0  0  2  0  0  0  0  0  0
  -24.6870  -31.0670   22.1460 N   0  0  0  0  0  0  0  0  0  0  0  0
  -23.5440  -32.1820   23.7670 O   0  0  0  0  0  0  0  0  0  0  0  0
  -22.7370  -29.4890   22.5800 C   0  0  0  0  0  0  0  0  0  0  0  0
  -21.4090  -29.3240   22.4590 N   0  0  0  0  0  0  0  0  0  0  0  0
  -23.4120  -28.8660   23.4030 O   0  0  0  0  0  0  0  0  0  0  0  0
  -20.9260  -29.8790   21.7670 H   0  0  0  0  0  0  0  0  0  0  0  0
  -18.0240  -28.1390   22.9710 C   0  0  0  0  0  0  0  0  0  0  0  0
  -20.5840  -28.3930   23.2350 C   0  0  0  0  0  3  0  0  0  0  0  0
  -20.6790  -26.9590   22.6670 C   0  0  0  0  0  2  0  0  0  0  0  0
  -19.5740  -26.6340   21.6550 C   0  0  0  0  0  2  0  0  0  0  0  0
  -18.1940  -26.7870   22.3010 C   0  0  0  0  0  2  0  0  0  0  0  0
  -19.1460  -28.9020   23.3950 C   0  0  0  0  0  0  0  0  0  0  0  0
  -18.9300  -30.1670   23.9810 C   0  0  0  0  0  3  0  0  0  0  0  0
  -17.6270  -30.6720   24.1460 C   0  0  0  0  0  3  0  0  0  0  0  0
  -16.5210  -29.9070   23.7380 C   0  0  0  0  0  3  0  0  0  0  0  0
  -16.7200  -28.6420   23.1580 C   0  0  0  0  0  3  0  0  0  0  0  0
  -25.9090  -32.5210   23.8590 C   0  0  0  0  0  3  0  0  0  0  0  0
  -25.6010  -33.9200   24.2010 N   0  0  0  0  0  0  0  0  0  0  0  0
  -25.9230  -34.9780   23.4450 C   0  0  0  0  0  0  0  0  0  0  0  0
  -26.5770  -34.8810   22.4030 O   0  0  0  0  0  0  0  0  0  0  0  0
  -25.0210  -34.0710   25.0130 H   0  0  0  0  0  0  0  0  0  0  0  0
  -24.1850  -36.7680   23.1360 C   0  0  0  0  0  1  0  0  0  0  0  0
  -25.4440  -36.3640   23.9200 C   0  0  0  0  0  3  0  0  0  0  0  0
  -27.5960  -37.2470   24.7100 C   0  0  0  0  0  1  0  0  0  0  0  0
  -26.4730  -37.4200   23.7910 N   0  0  0  0  0  0  0  0  0  0  0  0
  -26.0690  -38.3390   23.9500 H   0  0  0  0  0  0  0  0  0  0  0  0
  -26.4280  -31.7470   25.1310 C   0  0  1  0  0  0  0  0  0  0  0  0
  -25.3370  -31.5130   26.2030 C   0  0  0  0  0  1  0  0  0  0  0  0
  -27.0030  -30.3690   24.7360 C   0  0  0  0  0  1  0  0  0  0  0  0
  -27.5860  -32.5360   25.7880 C   0  0  0  0  0  1  0  0  0  0  0  0
  -30.0850  -17.5890   20.7720 C   0  0  0  0  0  2  0  0  0  0  0  0
  -30.5470  -14.9120   20.3950 C   0  0  0  0  0  0  0  0  0  0  0  0
  -30.4110  -12.5810   19.4320 C   0  0  0  0  0  2  0  0  0  0  0  0
  -29.4780  -12.5390   18.2010 C   0  0  0  0  0  2  0  0  0  0  0  0
  -28.0120  -12.3390   18.6350 C   0  0  0  0  0  2  0  0  0  0  0  0
  -27.6030  -13.2720   19.8050 C   0  0  0  0  0  3  0  0  0  0  0  0
  -28.6550  -13.2800   20.9320 C   0  0  0  0  0  2  0  0  0  0  0  0
  -29.9320  -13.6710   20.3210 N   0  0  0  0  0  0  0  0  0  0  0  0
  -31.7630  -14.9770   20.1920 O   0  0  0  0  0  0  0  0  0  0  0  0
  -29.7610  -16.0800   20.4870 N   0  0  0  0  0  0  0  0  0  0  0  0
  -28.7720  -15.8760   20.4880 H   0  0  0  0  0  0  0  0  0  0  0  0
  -25.2190  -13.8520   20.5370 C   0  0  0  0  0  0  0  0  0  0  0  0
  -24.1520  -13.0740   20.9010 C   0  0  0  0  0  0  0  0  0  0  0  0
  -24.6190  -11.7240   20.8780 C   0  0  0  0  0  0  0  0  0  0  0  0
  -26.2630  -12.9740   20.3030 N   0  0  0  0  0  0  0  0  0  0  0  0
  -25.9120  -11.6900   20.5770 N   0  0  0  0  0  0  0  0  0  0  0  0
  -23.8950  -10.4600   21.0650 C   0  0  0  0  0  0  0  0  0  0  0  0
  -24.3320   -9.4870   21.9900 C   0  0  0  0  0  3  0  0  0  0  0  0
  -23.6070   -8.2900   22.1650 C   0  0  0  0  0  3  0  0  0  0  0  0
  -22.4290   -8.0560   21.4150 C   0  0  0  0  0  0  0  0  0  0  0  0
  -22.0100   -9.0190   20.4800 C   0  0  0  0  0  3  0  0  0  0  0  0
  -22.7370  -10.2070   20.3030 C   0  0  0  0  0  3  0  0  0  0  0  0
  -21.6730   -6.9130   21.5010 O   0  0  0  0  0  0  0  0  0  0  0  0
  -21.6430   -6.1550   22.6440 C   0  0  0  0  0  0  0  0  0  0  0  0
  -21.2510   -6.6970   23.8880 C   0  0  0  0  0  3  0  0  0  0  0  0
  -21.1660   -5.8660   25.0220 C   0  0  0  0  0  3  0  0  0  0  0  0
  -21.4630   -4.4940   24.9160 C   0  0  0  0  0  0  0  0  0  0  0  0
  -21.8480   -3.9510   23.6770 C   0  0  0  0  0  3  0  0  0  0  0  0
  -21.9340   -4.7800   22.5440 C   0  0  0  0  0  0  0  0  0  0  0  0
  -22.2860   -4.2470   21.3480 F   0  0  0  0  0  0  0  0  0  0  0  0
  -21.3740   -3.6940   26.0040 F   0  0  0  0  0  0  0  0  0  0  0  0
  -22.7520  -13.5500   21.1540 C   0  0  0  0  0  0  0  0  0  0  0  0
  -22.0150  -12.8560   22.0150 N   0  0  0  0  0  0  0  0  0  0  0  0
  -22.3180  -14.5690   20.6220 O   0  0  0  0  0  0  0  0  0  0  0  0
  -22.3800  -12.0330   22.4710 H   0  0  0  0  0  0  0  0  0  0  0  0
  -21.0720  -13.1530   22.2220 H   0  0  0  0  0  0  0  0  0  0  0  0
  -25.3800  -15.2230   20.3590 N   0  0  0  0  0  0  0  0  0  0  0  0
  -24.6070  -15.8690   20.4620 H   0  0  0  0  0  0  0  0  0  0  0  0
  -26.2190  -15.6640   20.0050 H   0  0  0  0  0  0  0  0  0  0  0  0
  1  2  1  0
  1  8  1  0
  1 53  1  0
  3  2  1  0
  4  6  1  0
  4  3  1  0
  5  3  2  0
  7  4  1  0
  9 10  1  0
  9  8  2  0
 11 12  1  0
 11 10  2  0
 13 24  2  0
 14 12  1  0
 14 19  1  0
 15 23  1  0
 15 25  1  0
 16 22  1  0
 16 18  1  0
 17 23  1  0
 18 19  2  0
 18 17  1  0
 20 14  2  0
 21 20  1  0
 21 16  2  0
 22 15  1  0
 23 13  1  0
 25 27  2  0
 26 25  1  0
 28 26  1  0
 29 38  2  0
 29 34  1  0
 30 26  1  0
 30 34  1  0
 31 30  1  0
 32 33  1  0
 32 31  1  0
 33 29  1  0
 34 35  2  0
 35 36  1  0
 37 36  2  0
 38 37  1  0
 39 13  1  0
 39 40  1  0
 39 49  1  0
 40 43  1  0
 41 45  1  0
 41 40  1  0
 42 41  2  0
 45 44  1  0
 47 45  1  0
 47 48  1  0
 47 46  1  0
 49 52  1  1
 49 50  1  0
 51 49  1  0
 54 62  1  0
 55 60  1  0
 56 57  1  0
 56 55  1  0
 58 57  1  0
 58 67  1  0
 58 59  1  0
 60 54  1  0
 60 59  1  0
 61 54  2  0
 62 63  1  0
 62 53  1  0
 64 65  2  0
 65 84  1  0
 66 65  1  0
 66 69  1  0
 67 64  1  0
 67 68  1  0
 68 66  2  0
 69 70  1  0
 70 71  2  0
 72 75  1  0
 72 71  1  0
 73 72  2  0
 74 73  1  0
 74 69  2  0
 75 76  1  0
 76 77  1  0
 77 78  2  0
 79 78  1  0
 79 83  1  0
 80 79  2  0
 81 76  2  0
 81 80  1  0
 82 81  1  0
 84 85  1  0
 85 88  1  0
 85 87  1  0
 86 84  2  0
 89 90  1  0
 89 64  1  0
 91 89  1  0
M  ISO  4  11 101  12 101  54 100  62 100
M  END
>  <TORSDO>  (97) 
F 23

>  <SCORE>  (97) 
-12.718

>  <name>  (97) 
97

>  <ligand_id>  (97) 
97

>  <original_smiles>  (97) 
[H]c1c([H])c([H])c2c(c1[H])C([H])([H])C([H])([H])C([H])([H])C2([H])N([H])C(=O)C1([H])N(C(=O)C([H])(N([H])C(=O)C([H])(N([H])C([H])([H])[H])C([H])([H])[H])C(C([H])([H])[H])(C([H])([H])[H])C([H])([H])[H])C([H])([H])c2c([H])c(OC([H])([H])C([H])([H])C([H])([H])C([H])([H])C([H])(C([H])([H])C(=O)N([H])[H])C([H])([H])N([H])C(=O)N3C([H])([H])C([H])([H])C([H])([H])C([H])(n4nc(-c5c([H])c([H])c(Oc6c([H])c([H])c(F)c([H])c6F)c([H])c5[H])c(C(=O)N([H])[H])c4N([H])[H])C3([H])[H])c([H])c([H])c2C1([H])[H]

>  <smiles>  (97) 
[H]c1c([H])c([H])c2c(c1[H])C([H])([H])C([H])([H])C([H])([H])C2([H])N([H])C(=O)C1([H])N(C(=O)C([H])(N([H])C(=O)C([H])(N([H])C([H])([H])[H])C([H])([H])[H])C(C([H])([H])[H])(C([H])([H])[H])C([H])([H])[H])C([H])([H])c2c([H])c(OC([H])([H])C([H])([H])C([H])([H])C([H])([H])C([H])(C([H])([H])C(=O)N([H])[H])C([H])([H])N([H])C(=O)N3C([H])([H])C([H])([H])C([H])([H])C([H])(n4nc(-c5c([H])c([H])c(Oc6c([H])c([H])c(F)c([H])c6F)c([H])c5[H])c(C(=O)N([H])[H])c4N([H])[H])C3([H])[H])c([H])c([H])c2C1([H])[H]

$$$$
98:0:0
     RDKit          3D

 95102  0  0  1  0  0  0  0  0999 V2000
  -28.8780  -21.3310   21.8300 C   0  0  0  0  0  3  0  0  0  0  0  0
  -30.0000  -21.6970   22.8280 C   0  0  0  0  0  0  0  0  0  0  0  0
  -29.6750  -22.4380   23.8850 N   0  0  0  0  0  0  0  0  0  0  0  0
  -31.1610  -21.3340   22.6380 O   0  0  0  0  0  0  0  0  0  0  0  0
  -28.7260  -22.7600   24.0140 H   0  0  0  0  0  0  0  0  0  0  0  0
  -30.3740  -22.7220   24.5580 H   0  0  0  0  0  0  0  0  0  0  0  0
  -29.2740  -20.2520   20.8860 N   0  0  0  0  0  4  0  0  0  0  0  0
  -28.5460  -20.1680   20.1990 H   0  0  0  0  0  0  0  0  0  0  0  0
  -30.1230  -20.5370   20.4260 H   0  0  0  0  0  0  0  0  0  0  0  0
  -29.4990  -18.9020   21.4680 C   0  0  0  0  0  2  0  0  0  0  0  0
  -29.8780  -17.8380   20.4000 C   0  0  0  0  0  2  0  0  0  0  0  0
  -30.9480  -16.8110   20.8650 C   0  0  0  0  0  2  0  0  0  0  0  0
  -31.1160  -14.4720   19.9450 C   0  0  0  0  0  0  0  0  0  0  0  0
  -30.7910  -12.2410   18.9350 C   0  0  0  0  0  2  0  0  0  0  0  0
  -29.8060  -12.3580   17.7530 C   0  0  0  0  0  2  0  0  0  0  0  0
  -28.3450  -12.2700   18.2360 C   0  0  0  0  0  2  0  0  0  0  0  0
  -28.0550  -13.2080   19.4400 C   0  0  0  0  0  3  0  0  0  0  0  0
  -29.1330  -13.0320   20.5260 C   0  0  0  0  0  2  0  0  0  0  0  0
  -30.4470  -13.2920   19.9040 N   0  0  0  0  0  0  0  0  0  0  0  0
  -32.1600  -14.6880   19.3170 O   0  0  0  0  0  0  0  0  0  0  0  0
  -30.5210  -15.4230   20.6770 N   0  0  0  0  0  0  0  0  0  0  0  0
  -29.6850  -15.1360   21.1660 H   0  0  0  0  0  0  0  0  0  0  0  0
  -25.7250  -13.9200   20.2740 C   0  0  0  0  0  0  0  0  0  0  0  0
  -24.6430  -13.1910   20.6850 C   0  0  0  0  0  0  0  0  0  0  0  0
  -25.0360  -11.8190   20.6030 C   0  0  0  0  0  0  0  0  0  0  0  0
  -26.7150  -12.9960   19.9730 N   0  0  0  0  0  0  0  0  0  0  0  0
  -26.3020  -11.7270   20.2240 N   0  0  0  0  0  0  0  0  0  0  0  0
  -24.2630  -10.5860   20.8100 C   0  0  0  0  0  0  0  0  0  0  0  0
  -24.6350   -9.6370   21.7900 C   0  0  0  0  0  3  0  0  0  0  0  0
  -23.8650   -8.4690   21.9870 C   0  0  0  0  0  3  0  0  0  0  0  0
  -22.7110   -8.2430   21.2000 C   0  0  0  0  0  0  0  0  0  0  0  0
  -22.3560   -9.1780   20.2120 C   0  0  0  0  0  3  0  0  0  0  0  0
  -23.1270  -10.3360   20.0120 C   0  0  0  0  0  3  0  0  0  0  0  0
  -21.9190   -7.1220   21.3000 O   0  0  0  0  0  0  0  0  0  0  0  0
  -21.7150   -6.4900   22.5010 C   0  0  0  0  0  0  0  0  0  0  0  0
  -21.1520   -7.1600   23.6100 C   0  0  0  0  0  3  0  0  0  0  0  0
  -20.8990   -6.4540   24.8020 C   0  0  0  0  0  3  0  0  0  0  0  0
  -21.1910   -5.0790   24.8840 C   0  0  0  0  0  0  0  0  0  0  0  0
  -21.7420   -4.4090   23.7800 C   0  0  0  0  0  3  0  0  0  0  0  0
  -22.0020   -5.1120   22.5910 C   0  0  0  0  0  0  0  0  0  0  0  0
  -22.5180   -4.4580   21.5200 F   0  0  0  0  0  0  0  0  0  0  0  0
  -20.9330   -4.3990   26.0260 F   0  0  0  0  0  0  0  0  0  0  0  0
  -23.2850  -13.7250   21.0410 C   0  0  0  0  0  0  0  0  0  0  0  0
  -22.5790  -13.0500   21.9390 N   0  0  0  0  0  0  0  0  0  0  0  0
  -22.8580  -14.7750   20.5580 O   0  0  0  0  0  0  0  0  0  0  0  0
  -22.9400  -12.2010   22.3500 H   0  0  0  0  0  0  0  0  0  0  0  0
  -21.6760  -13.3950   22.2280 H   0  0  0  0  0  0  0  0  0  0  0  0
  -25.9450  -15.2860   20.1190 N   0  0  0  0  0  0  0  0  0  0  0  0
  -25.2240  -15.9720   20.3220 H   0  0  0  0  0  0  0  0  0  0  0  0
  -26.7970  -15.6920   19.7510 H   0  0  0  0  0  0  0  0  0  0  0  0
  -28.3640  -22.5960   21.0770 C   0  0  0  0  0  2  0  0  0  0  0  0
  -29.4220  -23.4560   20.3380 C   0  0  0  0  0  2  0  0  0  0  0  0
  -29.0780  -24.9610   20.2650 C   0  0  0  0  0  2  0  0  0  0  0  0
  -28.0760  -25.3460   19.1680 C   0  0  0  0  0  2  0  0  0  0  0  0
  -28.0330  -26.7760   19.0710 O   0  0  0  0  0  0  0  0  0  0  0  0
  -24.5450  -31.5780   22.9920 C   0  0  0  0  0  0  0  0  0  0  0  0
  -26.8420  -27.4440   19.2720 C   0  0  0  0  0  0  0  0  0  0  0  0
  -23.1710  -30.3290   21.3560 C   0  0  0  0  0  3  0  0  0  0  0  0
  -24.4670  -28.9270   19.6620 C   0  0  0  0  0  0  0  0  0  0  0  0
  -25.6630  -30.7150   20.9380 C   0  0  0  0  0  2  0  0  0  0  0  0
  -25.6780  -29.4030   20.1790 C   0  0  0  0  0  0  0  0  0  0  0  0
  -26.8680  -28.6630   19.9870 C   0  0  0  0  0  3  0  0  0  0  0  0
  -25.6120  -26.9890   18.7460 C   0  0  0  0  0  3  0  0  0  0  0  0
  -24.4270  -27.7160   18.9530 C   0  0  0  0  0  3  0  0  0  0  0  0
  -23.2390  -29.7740   19.9070 C   0  0  0  0  0  2  0  0  0  0  0  0
  -24.4840  -30.8830   21.8210 N   0  0  0  0  0  0  0  0  0  0  0  0
  -23.5260  -31.7980   23.6630 O   0  0  0  0  0  0  0  0  0  0  0  0
  -22.6140  -29.2200   22.2800 C   0  0  0  0  0  0  0  0  0  0  0  0
  -21.2930  -28.9890   22.2070 N   0  0  0  0  0  0  0  0  0  0  0  0
  -23.3650  -28.5730   23.0150 O   0  0  0  0  0  0  0  0  0  0  0  0
  -20.7490  -29.5700   21.5850 H   0  0  0  0  0  0  0  0  0  0  0  0
  -18.0190  -27.5430   22.7000 C   0  0  0  0  0  0  0  0  0  0  0  0
  -20.5560  -27.9680   22.9510 C   0  0  0  0  0  3  0  0  0  0  0  0
  -20.7480  -26.5690   22.3210 C   0  0  0  0  0  2  0  0  0  0  0  0
  -19.6560  -26.2090   21.3070 C   0  0  0  0  0  2  0  0  0  0  0  0
  -18.2770  -26.2340   21.9740 C   0  0  0  0  0  2  0  0  0  0  0  0
  -19.0890  -28.3650   23.1440 C   0  0  0  0  0  0  0  0  0  0  0  0
  -18.7930  -29.5890   23.7830 C   0  0  0  0  0  3  0  0  0  0  0  0
  -17.4600  -29.9960   23.9760 C   0  0  0  0  0  3  0  0  0  0  0  0
  -16.4040  -29.1720   23.5490 C   0  0  0  0  0  3  0  0  0  0  0  0
  -16.6850  -27.9450   22.9200 C   0  0  0  0  0  3  0  0  0  0  0  0
  -25.8910  -32.1520   23.5320 C   0  0  0  0  0  3  0  0  0  0  0  0
  -26.5370  -31.2570   24.6600 C   0  0  1  0  0  0  0  0  0  0  0  0
  -25.5650  -30.9090   25.8130 C   0  0  0  0  0  1  0  0  0  0  0  0
  -27.0620  -29.9300   24.0620 C   0  0  0  0  0  1  0  0  0  0  0  0
  -27.7530  -31.9890   25.2760 C   0  0  0  0  0  1  0  0  0  0  0  0
  -25.6250  -33.5050   24.0310 N   0  0  0  0  0  0  0  0  0  0  0  0
  -25.9070  -34.6320   23.3630 C   0  0  0  0  0  0  0  0  0  0  0  0
  -26.4930  -34.6370   22.2770 O   0  0  0  0  0  0  0  0  0  0  0  0
  -25.0960  -33.5710   24.8900 H   0  0  0  0  0  0  0  0  0  0  0  0
  -24.1780  -36.4590   23.3260 C   0  0  0  0  0  1  0  0  0  0  0  0
  -25.4680  -35.9620   23.9990 C   0  0  0  0  0  3  0  0  0  0  0  0
  -27.6650  -36.7460   24.7680 C   0  0  0  0  0  1  0  0  0  0  0  0
  -26.5020  -37.0160   23.9270 N   0  0  0  0  0  0  0  0  0  0  0  0
  -26.1170  -37.9150   24.2050 H   0  0  0  0  0  0  0  0  0  0  0  0
  1 51  1  0
  1  2  1  0
  2  3  1  0
  3  5  1  0
  3  6  1  0
  4  2  2  0
  7 10  1  0
  7  1  1  0
  8  7  1  0
  9  7  1  0
 11 12  1  0
 11 10  1  0
 13 21  1  0
 14 19  1  0
 15 16  1  0
 15 14  1  0
 17 16  1  0
 17 26  1  0
 17 18  1  0
 19 13  1  0
 19 18  1  0
 20 13  2  0
 21 12  1  0
 21 22  1  0
 23 24  2  0
 24 43  1  0
 25 24  1  0
 25 28  1  0
 26 27  1  0
 26 23  1  0
 27 25  2  0
 28 29  1  0
 29 30  2  0
 31 34  1  0
 31 30  1  0
 32 31  2  0
 33 32  1  0
 33 28  2  0
 34 35  1  0
 35 40  2  0
 35 36  1  0
 36 37  2  0
 37 38  1  0
 38 42  1  0
 39 38  2  0
 40 39  1  0
 41 40  1  0
 43 44  1  0
 44 47  1  0
 44 46  1  0
 45 43  2  0
 48 23  1  0
 48 49  1  0
 50 48  1  0
 52 51  1  0
 53 52  1  0
 54 53  1  0
 55 54  1  0
 55 57  1  0
 56 67  2  0
 57 62  1  0
 58 66  1  0
 58 68  1  0
 59 65  1  0
 59 61  1  0
 60 66  1  0
 61 60  1  0
 62 61  2  0
 63 64  1  0
 63 57  2  0
 64 59  2  0
 65 58  1  0
 66 56  1  0
 68 70  2  0
 69 68  1  0
 71 69  1  0
 72 81  2  0
 72 77  1  0
 73 69  1  0
 73 77  1  0
 74 73  1  0
 75 76  1  0
 75 74  1  0
 76 72  1  0
 77 78  2  0
 78 79  1  0
 80 79  2  0
 81 80  1  0
 82 56  1  0
 82 87  1  0
 82 83  1  0
 83 86  1  1
 83 84  1  0
 85 83  1  0
 87 90  1  0
 88 92  1  0
 88 87  1  0
 89 88  2  0
 92 91  1  0
 94 92  1  0
 94 95  1  0
 94 93  1  0
M  ISO  4  13 100  21 100  54 101  55 101
M  END
>  <TORSDO>  (98) 
F 25

>  <SCORE>  (98) 
-11.064

>  <name>  (98) 
98

>  <ligand_id>  (98) 
98

>  <original_smiles>  (98) 
[H]c1c([H])c([H])c2c(c1[H])C([H])([H])C([H])([H])C([H])([H])C2([H])N([H])C(=O)C1([H])N(C(=O)C([H])(N([H])C(=O)C([H])(N([H])C([H])([H])[H])C([H])([H])[H])C(C([H])([H])[H])(C([H])([H])[H])C([H])([H])[H])C([H])([H])c2c([H])c(OC([H])([H])C([H])([H])C([H])([H])C([H])([H])C([H])(C(=O)N([H])[H])[N+]([H])([H])C([H])([H])C([H])([H])C([H])([H])N([H])C(=O)N3C([H])([H])C([H])([H])C([H])([H])C([H])(n4nc(-c5c([H])c([H])c(Oc6c([H])c([H])c(F)c([H])c6F)c([H])c5[H])c(C(=O)N([H])[H])c4N([H])[H])C3([H])[H])c([H])c([H])c2C1([H])[H]

>  <smiles>  (98) 
[H]c1c([H])c([H])c2c(c1[H])C([H])([H])C([H])([H])C([H])([H])C2([H])N([H])C(=O)C1([H])N(C(=O)C([H])(N([H])C(=O)C([H])(N([H])C([H])([H])[H])C([H])([H])[H])C(C([H])([H])[H])(C([H])([H])[H])C([H])([H])[H])C([H])([H])c2c([H])c(OC([H])([H])C([H])([H])C([H])([H])C([H])([H])C([H])(C(=O)N([H])[H])[N+]([H])([H])C([H])([H])C([H])([H])C([H])([H])N([H])C(=O)N3C([H])([H])C([H])([H])C([H])([H])C([H])(n4nc(-c5c([H])c([H])c(Oc6c([H])c([H])c(F)c([H])c6F)c([H])c5[H])c(C(=O)N([H])[H])c4N([H])[H])C3([H])[H])c([H])c([H])c2C1([H])[H]

$$$$
99:0:0
     RDKit          3D

 95102  0  0  1  0  0  0  0  0999 V2000
  -29.9120  -20.4700   21.2230 C   0  0  0  0  0  2  0  0  0  0  0  0
  -29.8800  -19.8110   19.8200 C   0  0  0  0  0  2  0  0  0  0  0  0
  -29.6130  -18.2590   19.6190 C   0  0  1  0  0  0  0  0  0  0  0  0
  -26.9770  -18.4670   19.8250 C   0  0  0  0  0  1  0  0  0  0  0  0
  -28.2880  -17.8350   20.3260 C   0  0  0  0  0  2  0  0  0  0  0  0
  -29.3500  -16.8020   17.3720 C   0  0  0  0  0  1  0  0  0  0  0  0
  -29.4660  -18.1640   18.0570 C   0  0  0  0  0  2  0  0  0  0  0  0
  -30.7880  -17.3340   20.1900 C   0  0  0  0  0  3  0  0  0  0  0  0
  -31.1500  -14.7710   20.5210 C   0  0  0  0  0  0  0  0  0  0  0  0
  -30.8750  -12.5230   19.5660 C   0  0  0  0  0  2  0  0  0  0  0  0
  -29.9920  -12.6540   18.3100 C   0  0  0  0  0  2  0  0  0  0  0  0
  -28.4990  -12.5560   18.6820 C   0  0  0  0  0  2  0  0  0  0  0  0
  -28.1120  -13.4590   19.8860 C   0  0  0  0  0  3  0  0  0  0  0  0
  -29.1260  -13.3470   21.0430 C   0  0  0  0  0  2  0  0  0  0  0  0
  -30.4620  -13.5950   20.4870 N   0  0  0  0  0  0  0  0  0  0  0  0
  -32.3680  -14.8070   20.3570 O   0  0  0  0  0  0  0  0  0  0  0  0
  -30.3930  -15.9030   20.4480 N   0  0  0  0  0  0  0  0  0  0  0  0
  -29.4020  -15.7450   20.5200 H   0  0  0  0  0  0  0  0  0  0  0  0
  -25.7210  -14.1370   20.5310 C   0  0  0  0  0  0  0  0  0  0  0  0
  -24.6150  -13.3960   20.8430 C   0  0  0  0  0  0  0  0  0  0  0  0
  -25.0320  -12.0310   20.8220 C   0  0  0  0  0  0  0  0  0  0  0  0
  -26.7420  -13.2200   20.3260 N   0  0  0  0  0  0  0  0  0  0  0  0
  -26.3320  -11.9500   20.5640 N   0  0  0  0  0  0  0  0  0  0  0  0
  -24.2590  -10.7930   20.9810 C   0  0  0  0  0  0  0  0  0  0  0  0
  -24.6320   -9.8070   21.9190 C   0  0  0  0  0  3  0  0  0  0  0  0
  -23.8630   -8.6320   22.0640 C   0  0  0  0  0  3  0  0  0  0  0  0
  -22.7070   -8.4390   21.2710 C   0  0  0  0  0  0  0  0  0  0  0  0
  -22.3520   -9.4150   20.3240 C   0  0  0  0  0  3  0  0  0  0  0  0
  -23.1210  -10.5820   20.1770 C   0  0  0  0  0  3  0  0  0  0  0  0
  -21.9140   -7.3190   21.3260 O   0  0  0  0  0  0  0  0  0  0  0  0
  -21.7970   -6.5730   22.4720 C   0  0  0  0  0  0  0  0  0  0  0  0
  -21.3270   -7.1340   23.6810 C   0  0  0  0  0  3  0  0  0  0  0  0
  -21.1570   -6.3200   24.8160 C   0  0  0  0  0  3  0  0  0  0  0  0
  -21.4420   -4.9420   24.7440 C   0  0  0  0  0  0  0  0  0  0  0  0
  -21.8970   -4.3780   23.5390 C   0  0  0  0  0  3  0  0  0  0  0  0
  -22.0700   -5.1920   22.4060 C   0  0  0  0  0  0  0  0  0  0  0  0
  -22.4930   -4.6410   21.2430 F   0  0  0  0  0  0  0  0  0  0  0  0
  -21.2670   -4.1570   25.8320 F   0  0  0  0  0  0  0  0  0  0  0  0
  -23.2250  -13.9200   21.0630 C   0  0  0  0  0  0  0  0  0  0  0  0
  -22.4510  -13.2530   21.9120 N   0  0  0  0  0  0  0  0  0  0  0  0
  -22.8350  -14.9530   20.5190 O   0  0  0  0  0  0  0  0  0  0  0  0
  -22.7860  -12.4200   22.3730 H   0  0  0  0  0  0  0  0  0  0  0  0
  -21.5170  -13.5820   22.1070 H   0  0  0  0  0  0  0  0  0  0  0  0
  -25.9360  -15.5010   20.3880 N   0  0  0  0  0  0  0  0  0  0  0  0
  -25.1930  -16.1780   20.5220 H   0  0  0  0  0  0  0  0  0  0  0  0
  -26.8220  -15.9290   20.1610 H   0  0  0  0  0  0  0  0  0  0  0  0
  -33.2090  -18.2270   20.1190 C   0  0  0  0  0  1  0  0  0  0  0  0
  -32.1050  -17.4760   19.3600 C   0  0  0  0  0  2  0  0  0  0  0  0
  -30.2660  -21.9980   21.2060 C   0  0  0  0  0  2  0  0  0  0  0  0
  -29.1760  -22.8940   20.7110 N   0  0  0  0  0  4  0  0  0  0  0  0
  -28.3570  -22.7130   21.2720 H   0  0  0  0  0  0  0  0  0  0  0  0
  -28.9620  -22.6260   19.7630 H   0  0  0  0  0  0  0  0  0  0  0  0
  -29.4540  -24.3710   20.7460 C   0  0  0  0  0  2  0  0  0  0  0  0
  -28.2550  -25.2410   20.2540 C   0  0  0  0  0  2  0  0  0  0  0  0
  -28.4280  -26.6860   20.3140 O   0  0  0  0  0  0  0  0  0  0  0  0
  -24.5640  -31.9320   23.2460 C   0  0  0  0  0  0  0  0  0  0  0  0
  -27.2670  -27.4520   20.2390 C   0  0  0  0  0  0  0  0  0  0  0  0
  -23.3850  -30.5070   21.6080 C   0  0  0  0  0  3  0  0  0  0  0  0
  -24.8610  -28.9720   20.2050 C   0  0  0  0  0  0  0  0  0  0  0  0
  -25.9120  -30.8800   21.4270 C   0  0  0  0  0  2  0  0  0  0  0  0
  -26.0150  -29.5030   20.7940 C   0  0  0  0  0  0  0  0  0  0  0  0
  -27.2210  -28.7570   20.7990 C   0  0  0  0  0  3  0  0  0  0  0  0
  -26.0890  -26.9550   19.6300 C   0  0  0  0  0  3  0  0  0  0  0  0
  -24.8980  -27.7000   19.6160 C   0  0  0  0  0  3  0  0  0  0  0  0
  -23.6100  -29.8220   20.2350 C   0  0  0  0  0  2  0  0  0  0  0  0
  -24.6380  -31.1220   22.1520 N   0  0  0  0  0  0  0  0  0  0  0  0
  -23.4750  -32.1990   23.7740 O   0  0  0  0  0  0  0  0  0  0  0  0
  -22.7320  -29.4880   22.5710 C   0  0  0  0  0  0  0  0  0  0  0  0
  -21.4100  -29.2990   22.4400 N   0  0  0  0  0  0  0  0  0  0  0  0
  -23.4150  -28.8710   23.3920 O   0  0  0  0  0  0  0  0  0  0  0  0
  -20.9190  -29.8520   21.7500 H   0  0  0  0  0  0  0  0  0  0  0  0
  -18.0330  -28.1120   22.9540 C   0  0  0  0  0  0  0  0  0  0  0  0
  -20.5930  -28.3610   23.2110 C   0  0  0  0  0  3  0  0  0  0  0  0
  -20.6860  -26.9320   22.6300 C   0  0  0  0  0  2  0  0  0  0  0  0
  -19.5770  -26.6170   21.6210 C   0  0  0  0  0  2  0  0  0  0  0  0
  -18.1990  -26.7650   22.2730 C   0  0  0  0  0  2  0  0  0  0  0  0
  -19.1570  -28.8690   23.3800 C   0  0  0  0  0  0  0  0  0  0  0  0
  -18.9470  -30.1310   23.9760 C   0  0  0  0  0  3  0  0  0  0  0  0
  -17.6460  -30.6370   24.1510 C   0  0  0  0  0  3  0  0  0  0  0  0
  -16.5360  -29.8780   23.7420 C   0  0  0  0  0  3  0  0  0  0  0  0
  -16.7310  -28.6170   23.1500 C   0  0  0  0  0  3  0  0  0  0  0  0
  -25.8380  -32.5800   23.8720 C   0  0  0  0  0  3  0  0  0  0  0  0
  -26.3540  -31.8200   25.1560 C   0  0  1  0  0  0  0  0  0  0  0  0
  -25.2570  -31.5740   26.2170 C   0  0  0  0  0  1  0  0  0  0  0  0
  -26.9590  -30.4480   24.7770 C   0  0  0  0  0  1  0  0  0  0  0  0
  -27.4860  -32.6350   25.8260 C   0  0  0  0  0  1  0  0  0  0  0  0
  -25.5110  -33.9770   24.1900 N   0  0  0  0  0  0  0  0  0  0  0  0
  -25.8440  -35.0280   23.4300 C   0  0  0  0  0  0  0  0  0  0  0  0
  -26.5310  -34.9260   22.4110 O   0  0  0  0  0  0  0  0  0  0  0  0
  -24.8990  -34.1270   24.9790 H   0  0  0  0  0  0  0  0  0  0  0  0
  -24.1080  -36.8060   23.0340 C   0  0  0  0  0  1  0  0  0  0  0  0
  -25.3350  -36.4140   23.8720 C   0  0  0  0  0  3  0  0  0  0  0  0
  -27.4460  -37.3200   24.7440 C   0  0  0  0  0  1  0  0  0  0  0  0
  -26.3620  -37.4750   23.7770 N   0  0  0  0  0  0  0  0  0  0  0  0
  -25.9460  -38.3920   23.9100 H   0  0  0  0  0  0  0  0  0  0  0  0
  2  1  1  0
  3  2  1  6
  3  8  1  0
  3  5  1  0
  4  5  1  0
  6  7  1  0
  7  3  1  0
  8 48  1  0
  8 17  1  0
 10 15  1  0
 11 12  1  0
 11 10  1  0
 13 12  1  0
 13 22  1  0
 13 14  1  0
 15  9  1  0
 15 14  1  0
 16  9  2  0
 17 18  1  0
 17  9  1  0
 19 20  2  0
 20 39  1  0
 21 20  1  0
 21 24  1  0
 22 19  1  0
 22 23  1  0
 23 21  2  0
 24 25  1  0
 25 26  2  0
 27 30  1  0
 27 26  1  0
 28 27  2  0
 29 28  1  0
 29 24  2  0
 30 31  1  0
 31 32  1  0
 32 33  2  0
 34 33  1  0
 34 38  1  0
 35 34  2  0
 36 31  2  0
 36 35  1  0
 37 36  1  0
 39 40  1  0
 40 43  1  0
 40 42  1  0
 41 39  2  0
 44 45  1  0
 44 19  1  0
 46 44  1  0
 48 47  1  0
 49  1  1  0
 50 53  1  0
 50 49  1  0
 50 51  1  0
 52 50  1  0
 54 55  1  0
 54 53  1  0
 56 67  2  0
 57 55  1  0
 57 62  1  0
 58 66  1  0
 58 68  1  0
 59 65  1  0
 59 61  1  0
 60 66  1  0
 61 62  2  0
 61 60  1  0
 63 57  2  0
 64 63  1  0
 64 59  2  0
 65 58  1  0
 66 56  1  0
 68 70  2  0
 69 68  1  0
 71 69  1  0
 72 81  2  0
 72 77  1  0
 73 69  1  0
 73 77  1  0
 74 73  1  0
 75 76  1  0
 75 74  1  0
 76 72  1  0
 77 78  2  0
 78 79  1  0
 80 79  2  0
 81 80  1  0
 82 56  1  0
 82 87  1  0
 82 83  1  0
 83 86  1  1
 83 84  1  0
 85 83  1  0
 87 90  1  0
 88 92  1  0
 88 87  1  0
 89 88  2  0
 92 91  1  0
 94 92  1  0
 94 95  1  0
 94 93  1  0
M  ISO  4   9 100  17 100  54 101  55 101
M  END
>  <TORSDO>  (99) 
F 26

>  <SCORE>  (99) 
-10.519

>  <name>  (99) 
99

>  <ligand_id>  (99) 
99

>  <original_smiles>  (99) 
[H]c1c([H])c([H])c2c(c1[H])C([H])([H])C([H])([H])C([H])([H])C2([H])N([H])C(=O)C1([H])N(C(=O)C([H])(N([H])C(=O)C([H])(N([H])C([H])([H])[H])C([H])([H])[H])C(C([H])([H])[H])(C([H])([H])[H])C([H])([H])[H])C([H])([H])c2c([H])c(OC([H])([H])C([H])([H])[N+]([H])([H])C([H])([H])C([H])([H])C([H])([H])C(C([H])([H])C([H])([H])[H])(C([H])([H])C([H])([H])[H])C([H])(N([H])C(=O)N3C([H])([H])C([H])([H])C([H])([H])C([H])(n4nc(-c5c([H])c([H])c(Oc6c([H])c([H])c(F)c([H])c6F)c([H])c5[H])c(C(=O)N([H])[H])c4N([H])[H])C3([H])[H])C([H])([H])C([H])([H])[H])c([H])c([H])c2C1([H])[H]

>  <smiles>  (99) 
[H]c1c([H])c([H])c2c(c1[H])C([H])([H])C([H])([H])C([H])([H])C2([H])N([H])C(=O)C1([H])N(C(=O)C([H])(N([H])C(=O)C([H])(N([H])C([H])([H])[H])C([H])([H])[H])C(C([H])([H])[H])(C([H])([H])[H])C([H])([H])[H])C([H])([H])c2c([H])c(OC([H])([H])C([H])([H])[N+]([H])([H])C([H])([H])C([H])([H])C([H])([H])C(C([H])([H])C([H])([H])[H])(C([H])([H])C([H])([H])[H])C([H])(N([H])C(=O)N3C([H])([H])C([H])([H])C([H])([H])C([H])(n4nc(-c5c([H])c([H])c(Oc6c([H])c([H])c(F)c([H])c6F)c([H])c5[H])c(C(=O)N([H])[H])c4N([H])[H])C3([H])[H])C([H])([H])C([H])([H])[H])c([H])c([H])c2C1([H])[H]

$$$$
