0:0:0
     RDKit          3D

 92 99  0  0  1  0  0  0  0  0999 V2000
  -29.4770  -21.8310   23.0110 C   0  0  0  0  0  3  0  0  0  0  0  0
  -30.7100  -21.3620   23.2790 C   0  0  0  0  0  3  0  0  0  0  0  0
  -29.1850  -23.2550   22.5760 C   0  0  0  0  0  2  0  0  0  0  0  0
  -28.5840  -23.3800   21.1650 C   0  0  0  0  0  2  0  0  0  0  0  0
  -28.2840  -24.8470   20.8050 C   0  0  0  0  0  2  0  0  0  0  0  0
  -28.0840  -25.0880   19.2970 C   0  0  0  0  0  2  0  0  0  0  0  0
  -28.1630  -26.4860   19.0000 O   0  0  0  0  0  0  0  0  0  0  0  0
  -25.3330  -31.0650   23.6320 C   0  0  0  0  0  0  0  0  0  0  0  0
  -27.0840  -27.2860   19.2990 C   0  0  0  0  0  0  0  0  0  0  0  0
  -23.8230  -30.2860   21.8350 C   0  0  0  0  0  3  0  0  0  0  0  0
  -24.9340  -29.0090   19.9330 C   0  0  0  0  0  0  0  0  0  0  0  0
  -26.3550  -30.3850   21.4640 C   0  0  0  0  0  2  0  0  0  0  0  0
  -26.1930  -29.2260   20.5020 C   0  0  0  0  0  0  0  0  0  0  0  0
  -27.2730  -28.3740   20.1800 C   0  0  0  0  0  3  0  0  0  0  0  0
  -25.8020  -27.0810   18.7320 C   0  0  0  0  0  3  0  0  0  0  0  0
  -24.7320  -27.9390   19.0450 C   0  0  0  0  0  3  0  0  0  0  0  0
  -23.8320  -29.9680   20.3150 C   0  0  0  0  0  2  0  0  0  0  0  0
  -25.1930  -30.5770   22.3650 N   0  0  0  0  0  0  0  0  0  0  0  0
  -24.3450  -31.3140   24.3350 O   0  0  0  0  0  0  0  0  0  0  0  0
  -23.1100  -29.1340   22.5770 C   0  0  0  0  0  0  0  0  0  0  0  0
  -21.7830  -29.0350   22.3970 N   0  0  0  0  0  0  0  0  0  0  0  0
  -23.7480  -28.3380   23.2730 O   0  0  0  0  0  0  0  0  0  0  0  0
  -21.3330  -29.7340   21.8230 H   0  0  0  0  0  0  0  0  0  0  0  0
  -18.3790  -27.8210   22.4540 C   0  0  0  0  0  0  0  0  0  0  0  0
  -20.9070  -28.0100   22.9630 C   0  0  0  0  0  3  0  0  0  0  0  0
  -21.0550  -26.6680   22.2060 C   0  0  0  0  0  2  0  0  0  0  0  0
  -20.0370  -26.5010   21.0740 C   0  0  0  0  0  2  0  0  0  0  0  0
  -18.6080  -26.5750   21.6180 C   0  0  0  0  0  2  0  0  0  0  0  0
  -19.4600  -28.5060   23.0720 C   0  0  0  0  0  0  0  0  0  0  0  0
  -19.1950  -29.6830   23.8030 C   0  0  0  0  0  3  0  0  0  0  0  0
  -17.8790  -30.1690   23.9330 C   0  0  0  0  0  3  0  0  0  0  0  0
  -16.8120  -29.4790   23.3330 C   0  0  0  0  0  3  0  0  0  0  0  0
  -17.0640  -28.3080   22.5980 C   0  0  0  0  0  3  0  0  0  0  0  0
  -26.7390  -31.3580   24.2440 C   0  0  0  0  0  3  0  0  0  0  0  0
  -27.2430  -30.2240   25.2190 C   0  0  1  0  0  0  0  0  0  0  0  0
  -26.2250  -29.8480   26.3210 C   0  0  0  0  0  1  0  0  0  0  0  0
  -27.5830  -28.9360   24.4310 C   0  0  0  0  0  1  0  0  0  0  0  0
  -28.5480  -30.6770   25.9160 C   0  0  0  0  0  1  0  0  0  0  0  0
  -26.6550  -32.6490   24.9430 N   0  0  0  0  0  0  0  0  0  0  0  0
  -27.1570  -33.8000   24.4770 C   0  0  0  0  0  0  0  0  0  0  0  0
  -27.8130  -33.8740   23.4350 O   0  0  0  0  0  0  0  0  0  0  0  0
  -26.0910  -32.6720   25.7790 H   0  0  0  0  0  0  0  0  0  0  0  0
  -25.7820  -35.9010   24.6350 C   0  0  0  0  0  1  0  0  0  0  0  0
  -26.8910  -35.0740   25.3030 C   0  0  0  0  0  3  0  0  0  0  0  0
  -29.0920  -35.3090   26.3650 C   0  0  0  0  0  1  0  0  0  0  0  0
  -28.0910  -35.9160   25.4910 N   0  0  0  0  0  0  0  0  0  0  0  0
  -27.8370  -36.8180   25.8820 H   0  0  0  0  0  0  0  0  0  0  0  0
  -30.9970  -19.9810   23.8430 C   0  0  0  0  0  2  0  0  0  0  0  0
  -31.5860  -19.0790   22.8380 N   0  0  0  0  0  4  0  0  0  0  0  0
  -32.0780  -18.3600   23.3450 H   0  0  0  0  0  0  0  0  0  0  0  0
  -32.2710  -19.5710   22.2890 H   0  0  0  0  0  0  0  0  0  0  0  0
  -30.6140  -18.4170   21.9470 C   0  0  0  0  0  2  0  0  0  0  0  0
  -30.8500  -16.9050   21.9520 C   0  0  0  0  0  2  0  0  0  0  0  0
  -30.3430  -16.1910   20.6950 C   0  0  0  0  0  2  0  0  0  0  0  0
  -30.8030  -13.7450   20.8990 C   0  0  0  0  0  0  0  0  0  0  0  0
  -30.7400  -11.2850   20.8850 C   0  0  0  0  0  2  0  0  0  0  0  0
  -30.0440  -10.7940   19.6030 C   0  0  0  0  0  2  0  0  0  0  0  0
  -28.5120  -10.7490   19.7830 C   0  0  0  0  0  2  0  0  0  0  0  0
  -27.9360  -12.0540   20.3950 C   0  0  0  0  0  3  0  0  0  0  0  0
  -28.7570  -12.4690   21.6360 C   0  0  0  0  0  2  0  0  0  0  0  0
  -30.1730  -12.5910   21.2310 N   0  0  0  0  0  0  0  0  0  0  0  0
  -31.9440  -13.8100   20.4330 O   0  0  0  0  0  0  0  0  0  0  0  0
  -30.0460  -14.8240   21.0700 N   0  0  0  0  0  0  0  0  0  0  0  0
  -29.1270  -14.6470   21.4440 H   0  0  0  0  0  0  0  0  0  0  0  0
  -25.5200  -12.8870   20.7370 C   0  0  0  0  0  0  0  0  0  0  0  0
  -24.3560  -12.2210   21.0190 C   0  0  0  0  0  0  0  0  0  0  0  0
  -24.7080  -10.8430   21.1330 C   0  0  0  0  0  0  0  0  0  0  0  0
  -26.5130  -11.9190   20.7060 N   0  0  0  0  0  0  0  0  0  0  0  0
  -26.0190  -10.6890   20.9980 N   0  0  0  0  0  0  0  0  0  0  0  0
  -23.8660   -9.6510   21.3070 C   0  0  0  0  0  0  0  0  0  0  0  0
  -23.9890   -8.8270   22.4480 C   0  0  0  0  0  3  0  0  0  0  0  0
  -23.1620   -7.6950   22.6060 C   0  0  0  0  0  3  0  0  0  0  0  0
  -22.1960   -7.3780   21.6210 C   0  0  0  0  0  0  0  0  0  0  0  0
  -22.0920   -8.1880   20.4770 C   0  0  0  0  0  3  0  0  0  0  0  0
  -22.9190   -9.3130   20.3180 C   0  0  0  0  0  3  0  0  0  0  0  0
  -21.3660   -6.2850   21.6740 O   0  0  0  0  0  0  0  0  0  0  0  0
  -20.6480   -5.9820   22.8030 C   0  0  0  0  0  0  0  0  0  0  0  0
  -19.7770   -6.9150   23.4050 C   0  0  0  0  0  3  0  0  0  0  0  0
  -19.0100   -6.5380   24.5260 C   0  0  0  0  0  3  0  0  0  0  0  0
  -19.1020   -5.2290   25.0370 C   0  0  0  0  0  0  0  0  0  0  0  0
  -19.9640   -4.2980   24.4330 C   0  0  0  0  0  3  0  0  0  0  0  0
  -20.7340   -4.6730   23.3190 C   0  0  0  0  0  0  0  0  0  0  0  0
  -21.5470   -3.7650   22.7280 F   0  0  0  0  0  0  0  0  0  0  0  0
  -18.3570   -4.8660   26.1060 F   0  0  0  0  0  0  0  0  0  0  0  0
  -22.9760  -12.8120   21.0770 C   0  0  0  0  0  0  0  0  0  0  0  0
  -22.1060  -12.2560   21.9140 N   0  0  0  0  0  0  0  0  0  0  0  0
  -22.6760  -13.8030   20.4130 O   0  0  0  0  0  0  0  0  0  0  0  0
  -22.3550  -11.4550   22.4740 H   0  0  0  0  0  0  0  0  0  0  0  0
  -21.1730  -12.6360   21.9930 H   0  0  0  0  0  0  0  0  0  0  0  0
  -25.8160  -14.2220   20.4860 N   0  0  0  0  0  0  0  0  0  0  0  0
  -25.0970  -14.9330   20.4140 H   0  0  0  0  0  0  0  0  0  0  0  0
  -26.7310  -14.5540   20.1980 H   0  0  0  0  0  0  0  0  0  0  0  0
  1  2  2  0
  2 48  1  0
  3  1  1  0
  4  3  1  0
  5  4  1  0
  6  5  1  0
  7  6  1  0
  7  9  1  0
  8 19  2  0
  9 14  1  0
 10 18  1  0
 10 20  1  0
 11 17  1  0
 11 13  1  0
 12 18  1  0
 13 12  1  0
 14 13  2  0
 15 16  1  0
 15  9  2  0
 16 11  2  0
 17 10  1  0
 18  8  1  0
 20 22  2  0
 21 20  1  0
 23 21  1  0
 24 33  2  0
 24 29  1  0
 25 21  1  0
 25 29  1  0
 26 25  1  0
 27 28  1  0
 27 26  1  0
 28 24  1  0
 29 30  2  0
 30 31  1  0
 32 31  2  0
 33 32  1  0
 34  8  1  0
 34 39  1  0
 34 35  1  0
 35 38  1  1
 35 36  1  0
 37 35  1  0
 39 42  1  0
 40 39  1  0
 40 44  1  0
 41 40  2  0
 44 43  1  0
 44 46  1  0
 46 47  1  0
 46 45  1  0
 49 50  1  0
 49 48  1  0
 51 49  1  0
 52 53  1  0
 52 49  1  0
 54 63  1  0
 54 53  1  0
 55 63  1  0
 55 61  1  0
 56 61  1  0
 57 58  1  0
 57 56  1  0
 59 58  1  0
 59 68  1  0
 59 60  1  0
 61 60  1  0
 62 55  2  0
 63 64  1  0
 65 66  2  0
 66 85  1  0
 66 67  1  0
 67 70  1  0
 68 65  1  0
 68 69  1  0
 69 67  2  0
 70 71  1  0
 71 72  2  0
 73 76  1  0
 73 72  1  0
 74 73  2  0
 75 74  1  0
 75 70  2  0
 76 77  1  0
 77 82  2  0
 77 78  1  0
 78 79  2  0
 79 80  1  0
 80 84  1  0
 81 80  2  0
 82 81  1  0
 83 82  1  0
 85 86  1  0
 86 89  1  0
 86 88  1  0
 87 85  2  0
 90 65  1  0
 91 90  1  0
 92 90  1  0
M  ISO  4   6 101   7 101  55 100  63 100
M  END
>  <TORSDO>  (1) 
F 25

>  <SCORE>  (1) 
-9.101

>  <name>  (1) 
0

>  <ligand_id>  (1) 
0

>  <original_smiles>  (1) 
[H]C(=C([H])C([H])([H])[N+]([H])([H])C([H])([H])C([H])([H])C([H])([H])N([H])C(=O)N1C([H])([H])C([H])([H])C([H])([H])C([H])(n2nc(-c3c([H])c([H])c(Oc4c([H])c([H])c(F)c([H])c4F)c([H])c3[H])c(C(=O)N([H])[H])c2N([H])[H])C1([H])[H])C([H])([H])C([H])([H])C([H])([H])C([H])([H])Oc1c([H])c([H])c2c(c1[H])C([H])([H])N(C(=O)C([H])(N([H])C(=O)C([H])(N([H])C([H])([H])[H])C([H])([H])[H])C(C([H])([H])[H])(C([H])([H])[H])C([H])([H])[H])C([H])(C(=O)N([H])C1([H])c3c([H])c([H])c([H])c([H])c3C([H])([H])C([H])([H])C1([H])[H])C2([H])[H]

>  <smiles>  (1) 
[H]C(=C([H])C([H])([H])[N+]([H])([H])C([H])([H])C([H])([H])C([H])([H])N([H])C(=O)N1C([H])([H])C([H])([H])C([H])([H])C([H])(n2nc(-c3c([H])c([H])c(Oc4c([H])c([H])c(F)c([H])c4F)c([H])c3[H])c(C(=O)N([H])[H])c2N([H])[H])C1([H])[H])C([H])([H])C([H])([H])C([H])([H])C([H])([H])Oc1c([H])c([H])c2c(c1[H])C([H])([H])N(C(=O)C([H])(N([H])C(=O)C([H])(N([H])C([H])([H])[H])C([H])([H])[H])C(C([H])([H])[H])(C([H])([H])[H])C([H])([H])[H])C([H])(C(=O)N([H])C1([H])c3c([H])c([H])c([H])c([H])c3C([H])([H])C([H])([H])C1([H])[H])C2([H])[H]

$$$$
1:0:0
     RDKit          3D

 91100  0  0  1  0  0  0  0  0999 V2000
  -27.5970  -18.6690   20.5230 C   0  0  0  0  0  2  0  0  0  0  0  0
  -28.0690  -18.0910   19.1750 C   0  0  0  0  0  2  0  0  0  0  0  0
  -29.7550  -17.9100   21.5520 C   0  0  0  0  0  2  0  0  0  0  0  0
  -30.2530  -17.2940   20.2120 C   0  0  0  0  0  3  0  0  0  0  0  0
  -28.9230  -19.1690   21.1350 C   0  0  0  0  0  3  0  0  0  0  0  0
  -29.5870  -18.3690   19.2360 C   0  0  0  0  0  3  0  0  0  0  0  0
  -29.6650  -19.6920   19.9750 N   0  0  1  0  0  4  0  0  0  0  0  0
  -30.6220  -19.8470   20.2540 H   0  0  0  0  0  0  0  0  0  0  0  0
  -30.7370  -14.7090   19.7840 C   0  0  0  0  0  0  0  0  0  0  0  0
  -30.4960  -12.4140   18.8310 C   0  0  0  0  0  2  0  0  0  0  0  0
  -29.4880  -12.4560   17.6610 C   0  0  0  0  0  2  0  0  0  0  0  0
  -28.0400  -12.3100   18.1720 C   0  0  0  0  0  2  0  0  0  0  0  0
  -27.7370  -13.2340   19.3820 C   0  0  0  0  0  3  0  0  0  0  0  0
  -28.8530  -13.1550   20.4470 C   0  0  0  0  0  2  0  0  0  0  0  0
  -30.1200  -13.4830   19.7790 N   0  0  0  0  0  0  0  0  0  0  0  0
  -31.8960  -14.8380   19.3790 O   0  0  0  0  0  0  0  0  0  0  0  0
  -29.9470  -15.8030   20.0780 N   0  0  0  0  0  0  0  0  0  0  0  0
  -29.0040  -15.5450   20.3220 H   0  0  0  0  0  0  0  0  0  0  0  0
  -25.4190  -13.8750   20.2770 C   0  0  0  0  0  0  0  0  0  0  0  0
  -24.3530  -13.1220   20.6900 C   0  0  0  0  0  0  0  0  0  0  0  0
  -24.7710  -11.7590   20.5910 C   0  0  0  0  0  0  0  0  0  0  0  0
  -26.4180  -12.9720   19.9480 N   0  0  0  0  0  0  0  0  0  0  0  0
  -26.0370  -11.6930   20.1980 N   0  0  0  0  0  0  0  0  0  0  0  0
  -24.0190  -10.5140   20.7910 C   0  0  0  0  0  0  0  0  0  0  0  0
  -24.4590   -9.5240   21.6980 C   0  0  0  0  0  3  0  0  0  0  0  0
  -23.7100   -8.3420   21.8860 C   0  0  0  0  0  3  0  0  0  0  0  0
  -22.5080   -8.1430   21.1690 C   0  0  0  0  0  0  0  0  0  0  0  0
  -22.0860   -9.1210   20.2500 C   0  0  0  0  0  3  0  0  0  0  0  0
  -22.8360  -10.2940   20.0600 C   0  0  0  0  0  3  0  0  0  0  0  0
  -21.7280   -7.0160   21.2720 O   0  0  0  0  0  0  0  0  0  0  0  0
  -21.6750   -6.2790   22.4270 C   0  0  0  0  0  0  0  0  0  0  0  0
  -21.2630   -6.8430   23.6550 C   0  0  0  0  0  3  0  0  0  0  0  0
  -21.1530   -6.0330   24.8010 C   0  0  0  0  0  3  0  0  0  0  0  0
  -21.4490   -4.6590   24.7240 C   0  0  0  0  0  0  0  0  0  0  0  0
  -21.8540   -4.0930   23.5030 C   0  0  0  0  0  3  0  0  0  0  0  0
  -21.9630   -4.9000   22.3570 C   0  0  0  0  0  0  0  0  0  0  0  0
  -22.3340   -4.3460   21.1780 F   0  0  0  0  0  0  0  0  0  0  0  0
  -21.3360   -3.8780   25.8230 F   0  0  0  0  0  0  0  0  0  0  0  0
  -22.9920  -13.6310   21.0630 C   0  0  0  0  0  0  0  0  0  0  0  0
  -22.2990  -12.9310   21.9530 N   0  0  0  0  0  0  0  0  0  0  0  0
  -22.5540  -14.6850   20.6010 O   0  0  0  0  0  0  0  0  0  0  0  0
  -22.6690  -12.0780   22.3480 H   0  0  0  0  0  0  0  0  0  0  0  0
  -21.3870  -13.2510   22.2460 H   0  0  0  0  0  0  0  0  0  0  0  0
  -25.6130  -15.2450   20.1320 N   0  0  0  0  0  0  0  0  0  0  0  0
  -24.8630  -15.9060   20.3050 H   0  0  0  0  0  0  0  0  0  0  0  0
  -26.4300  -15.6750   19.7210 H   0  0  0  0  0  0  0  0  0  0  0  0
  -29.1740  -20.9950   19.3030 C   0  0  0  0  0  3  0  0  0  0  0  0
  -28.8970  -22.3210   20.1860 C   0  0  0  0  0  3  0  0  0  0  0  0
  -28.7290  -23.7590   19.4590 C   0  0  0  0  0  3  0  0  0  0  0  0
  -28.1580  -25.0200   20.2820 C   0  0  0  0  0  3  0  0  0  0  0  0
  -28.2940  -26.4210   19.7810 O   0  0  0  0  0  0  0  0  0  0  0  0
  -24.5630  -31.7080   23.0490 C   0  0  0  0  0  0  0  0  0  0  0  0
  -27.1700  -27.2650   19.8190 C   0  0  0  0  0  0  0  0  0  0  0  0
  -23.3480  -30.3500   21.3830 C   0  0  0  0  0  3  0  0  0  0  0  0
  -24.7900  -28.8550   19.8880 C   0  0  0  0  0  0  0  0  0  0  0  0
  -25.8780  -30.7030   21.1670 C   0  0  0  0  0  2  0  0  0  0  0  0
  -25.9650  -29.3440   20.4780 C   0  0  0  0  0  0  0  0  0  0  0  0
  -27.1600  -28.5630   20.4270 C   0  0  0  0  0  3  0  0  0  0  0  0
  -25.9750  -26.8320   19.2090 C   0  0  0  0  0  3  0  0  0  0  0  0
  -24.7980  -27.6070   19.2430 C   0  0  0  0  0  3  0  0  0  0  0  0
  -23.5460  -29.7160   19.9810 C   0  0  0  0  0  2  0  0  0  0  0  0
  -24.6160  -30.9370   21.9220 N   0  0  0  0  0  0  0  0  0  0  0  0
  -23.4860  -31.9550   23.6100 O   0  0  0  0  0  0  0  0  0  0  0  0
  -22.7100  -29.2990   22.3230 C   0  0  0  0  0  0  0  0  0  0  0  0
  -21.3810  -29.1150   22.2170 N   0  0  0  0  0  0  0  0  0  0  0  0
  -23.4080  -28.6490   23.1060 O   0  0  0  0  0  0  0  0  0  0  0  0
  -20.8760  -29.6940   21.5590 H   0  0  0  0  0  0  0  0  0  0  0  0
  -18.0240  -27.8760   22.7450 C   0  0  0  0  0  0  0  0  0  0  0  0
  -20.5850  -28.1460   22.9730 C   0  0  0  0  0  3  0  0  0  0  0  0
  -20.6850  -26.7360   22.3470 C   0  0  0  0  0  2  0  0  0  0  0  0
  -19.5650  -26.4390   21.3440 C   0  0  0  0  0  2  0  0  0  0  0  0
  -18.1960  -26.5530   22.0210 C   0  0  0  0  0  2  0  0  0  0  0  0
  -19.1460  -28.6320   23.1780 C   0  0  0  0  0  0  0  0  0  0  0  0
  -18.9300  -29.8720   23.8170 C   0  0  0  0  0  3  0  0  0  0  0  0
  -17.6250  -30.3570   24.0270 C   0  0  0  0  0  3  0  0  0  0  0  0
  -16.5180  -29.5980   23.6090 C   0  0  0  0  0  3  0  0  0  0  0  0
  -16.7180  -28.3600   22.9750 C   0  0  0  0  0  3  0  0  0  0  0  0
  -25.8490  -32.3360   23.6710 C   0  0  0  0  0  3  0  0  0  0  0  0
  -26.3970  -31.5290   24.9110 C   0  0  1  0  0  0  0  0  0  0  0  0
  -25.3290  -31.2450   25.9920 C   0  0  0  0  0  1  0  0  0  0  0  0
  -26.9860  -30.1700   24.4650 C   0  0  0  0  0  1  0  0  0  0  0  0
  -27.5550  -32.3120   25.5760 C   0  0  0  0  0  1  0  0  0  0  0  0
  -25.5300  -33.7190   24.0550 N   0  0  0  0  0  0  0  0  0  0  0  0
  -25.8330  -34.8020   23.3270 C   0  0  0  0  0  0  0  0  0  0  0  0
  -26.4830  -34.7430   22.2790 O   0  0  0  0  0  0  0  0  0  0  0  0
  -24.9530  -33.8370   24.8740 H   0  0  0  0  0  0  0  0  0  0  0  0
  -24.0790  -36.5850   23.0690 C   0  0  0  0  0  1  0  0  0  0  0  0
  -25.3390  -36.1670   23.8420 C   0  0  0  0  0  3  0  0  0  0  0  0
  -27.4790  -37.0500   24.6650 C   0  0  0  0  0  1  0  0  0  0  0  0
  -26.3570  -37.2360   23.7470 N   0  0  0  0  0  0  0  0  0  0  0  0
  -25.9420  -38.1460   23.9340 H   0  0  0  0  0  0  0  0  0  0  0  0
  2  1  1  0
  4 17  1  0
  4  3  1  0
  5  1  1  0
  5  3  1  0
  6  2  1  0
  6  7  1  0
  6  4  1  0
  7  8  1  1
  7  5  1  0
  9 17  1  0
 10 15  1  0
 11 12  1  0
 11 10  1  0
 13 12  1  0
 13 22  1  0
 13 14  1  0
 15  9  1  0
 15 14  1  0
 16  9  2  0
 17 18  1  0
 19 20  2  0
 20 39  1  0
 21 20  1  0
 21 24  1  0
 22 23  1  0
 22 19  1  0
 23 21  2  0
 24 25  1  0
 25 26  2  0
 27 30  1  0
 27 26  1  0
 28 27  2  0
 29 28  1  0
 29 24  2  0
 30 31  1  0
 31 32  1  0
 32 33  2  0
 34 33  1  0
 34 38  1  0
 35 34  2  0
 36 31  2  0
 36 35  1  0
 37 36  1  0
 39 40  1  0
 40 43  1  0
 40 42  1  0
 41 39  2  0
 44 19  1  0
 44 45  1  0
 46 44  1  0
 47  7  1  0
 47 48  2  0
 49 48  1  0
 49 50  2  0
 51 53  1  0
 51 50  1  0
 52 63  2  0
 53 58  1  0
 54 62  1  0
 54 64  1  0
 55 61  1  0
 55 57  1  0
 56 62  1  0
 57 56  1  0
 58 57  2  0
 59 60  1  0
 59 53  2  0
 60 55  2  0
 61 54  1  0
 62 52  1  0
 64 66  2  0
 65 64  1  0
 67 65  1  0
 68 77  2  0
 68 73  1  0
 69 65  1  0
 69 73  1  0
 70 69  1  0
 71 72  1  0
 71 70  1  0
 72 68  1  0
 73 74  2  0
 74 75  1  0
 76 75  2  0
 77 76  1  0
 78 52  1  0
 78 83  1  0
 78 79  1  0
 79 82  1  1
 79 80  1  0
 81 79  1  0
 83 86  1  0
 84 88  1  0
 84 83  1  0
 85 84  2  0
 88 87  1  0
 90 88  1  0
 90 91  1  0
 90 89  1  0
M  ISO  4   9 100  17 100  50 101  51 101
M  END
>  <TORSDO>  (2) 
F 20

>  <SCORE>  (2) 
-12.614

>  <name>  (2) 
1

>  <ligand_id>  (2) 
1

>  <original_smiles>  (2) 
[H]c1c([H])c([H])c2c(c1[H])C([H])([H])C([H])([H])C([H])([H])C2([H])N([H])C(=O)C1([H])N(C(=O)C([H])(N([H])C(=O)C([H])(N([H])C([H])([H])[H])C([H])([H])[H])C(C([H])([H])[H])(C([H])([H])[H])C([H])([H])[H])C([H])([H])c2c([H])c(OC([H])([H])C([H])([H])C([H])([H])C([H])([H])[N+]3([H])C4([H])C([H])([H])C([H])([H])C3([H])C([H])(N([H])C(=O)N3C([H])([H])C([H])([H])C([H])([H])C([H])(n5nc(-c6c([H])c([H])c(Oc7c([H])c([H])c(F)c([H])c7F)c([H])c6[H])c(C(=O)N([H])[H])c5N([H])[H])C3([H])[H])C4([H])[H])c([H])c([H])c2C1([H])[H]

>  <smiles>  (2) 
[H]c1c([H])c([H])c2c(c1[H])C([H])([H])C([H])([H])C([H])([H])C2([H])N([H])C(=O)C1([H])N(C(=O)C([H])(N([H])C(=O)C([H])(N([H])C([H])([H])[H])C([H])([H])[H])C(C([H])([H])[H])(C([H])([H])[H])C([H])([H])[H])C([H])([H])c2c([H])c(OC([H])([H])C([H])([H])C([H])([H])C([H])([H])[N+]3([H])C4([H])C([H])([H])C([H])([H])C3([H])C([H])(N([H])C(=O)N3C([H])([H])C([H])([H])C([H])([H])C([H])(n5nc(-c6c([H])c([H])c(Oc7c([H])c([H])c(F)c([H])c7F)c([H])c6[H])c(C(=O)N([H])[H])c5N([H])[H])C3([H])[H])C4([H])[H])c([H])c([H])c2C1([H])[H]

$$$$
2:0:0
     RDKit          3D

 95104  0  0  1  0  0  0  0  0999 V2000
  -28.5280  -19.1180   20.1420 C   0  0  0  0  0  2  0  0  0  0  0  0
  -30.6680  -20.0980   20.7480 C   0  0  0  0  0  2  0  0  0  0  0  0
  -28.3490  -20.6320   20.4440 C   0  0  0  0  0  3  0  0  0  0  0  0
  -29.8670  -18.7210   20.7760 C   0  0  0  0  0  3  0  0  0  0  0  0
  -29.7360  -21.3140   20.3270 C   0  0  0  0  0  3  0  0  0  0  0  0
  -25.5090  -23.0160   19.4470 C   0  0  0  0  0  3  0  0  0  0  0  0
  -25.1910  -22.5630   18.1520 C   0  0  0  0  0  3  0  0  0  0  0  0
  -26.5330  -22.3870   20.1780 C   0  0  0  0  0  3  0  0  0  0  0  0
  -25.9150  -21.4980   17.5820 C   0  0  0  0  0  3  0  0  0  0  0  0
  -27.2520  -21.3030   19.6210 C   0  0  0  0  0  0  0  0  0  0  0  0
  -26.9440  -20.8710   18.3090 C   0  0  0  0  0  0  0  0  0  0  0  0
  -27.6260  -19.8520   17.7310 F   0  0  0  0  0  0  0  0  0  0  0  0
  -29.8340  -22.7360   21.0950 C   0  0  0  0  0  2  0  0  0  0  0  0
  -29.7120  -24.1490   20.3310 C   0  0  0  0  0  3  0  0  0  0  0  0
  -29.1760  -25.4160   21.1670 C   0  0  0  0  0  3  0  0  0  0  0  0
  -29.2120  -26.8160   20.6540 O   0  0  0  0  0  0  0  0  0  0  0  0
  -24.6930  -31.8090   23.3380 C   0  0  0  0  0  0  0  0  0  0  0  0
  -28.0200  -27.5480   20.5630 C   0  0  0  0  0  0  0  0  0  0  0  0
  -23.8030  -30.3310   21.5710 C   0  0  0  0  0  3  0  0  0  0  0  0
  -25.5320  -28.9320   20.3060 C   0  0  0  0  0  0  0  0  0  0  0  0
  -26.3080  -30.8810   21.6620 C   0  0  0  0  0  2  0  0  0  0  0  0
  -26.5830  -29.5250   21.0180 C   0  0  0  0  0  0  0  0  0  0  0  0
  -27.8340  -28.8480   21.1310 C   0  0  0  0  0  3  0  0  0  0  0  0
  -26.9440  -26.9960   19.8390 C   0  0  0  0  0  3  0  0  0  0  0  0
  -25.7160  -27.6770   19.7040 C   0  0  0  0  0  3  0  0  0  0  0  0
  -24.2230  -29.6940   20.2220 C   0  0  0  0  0  2  0  0  0  0  0  0
  -24.9450  -31.0290   22.2460 N   0  0  0  0  0  0  0  0  0  0  0  0
  -23.5390  -31.9770   23.7600 O   0  0  0  0  0  0  0  0  0  0  0  0
  -23.1400  -29.2470   22.4520 C   0  0  0  0  0  0  0  0  0  0  0  0
  -21.8310  -29.0140   22.2450 N   0  0  0  0  0  0  0  0  0  0  0  0
  -23.8030  -28.6160   23.2790 O   0  0  0  0  0  0  0  0  0  0  0  0
  -21.3540  -29.5790   21.5540 H   0  0  0  0  0  0  0  0  0  0  0  0
  -18.4720  -27.7110   22.5720 C   0  0  0  0  0  0  0  0  0  0  0  0
  -21.0170  -28.0080   22.9300 C   0  0  0  0  0  3  0  0  0  0  0  0
  -21.1670  -26.6230   22.2600 C   0  0  0  0  0  2  0  0  0  0  0  0
  -20.1010  -26.3540   21.1920 C   0  0  0  0  0  2  0  0  0  0  0  0
  -18.7010  -26.4190   21.8070 C   0  0  0  0  0  2  0  0  0  0  0  0
  -19.5600  -28.4650   23.0860 C   0  0  0  0  0  0  0  0  0  0  0  0
  -19.2950  -29.6790   23.7580 C   0  0  0  0  0  3  0  0  0  0  0  0
  -17.9760  -30.1380   23.9230 C   0  0  0  0  0  3  0  0  0  0  0  0
  -16.9010  -29.3770   23.4280 C   0  0  0  0  0  3  0  0  0  0  0  0
  -17.1490  -28.1650   22.7600 C   0  0  0  0  0  3  0  0  0  0  0  0
  -25.8420  -32.5440   24.1000 C   0  0  0  0  0  3  0  0  0  0  0  0
  -25.4090  -33.9320   24.3170 N   0  0  0  0  0  0  0  0  0  0  0  0
  -25.7780  -34.9710   23.5570 C   0  0  0  0  0  0  0  0  0  0  0  0
  -26.5780  -34.8690   22.6230 O   0  0  0  0  0  0  0  0  0  0  0  0
  -24.7050  -34.0800   25.0230 H   0  0  0  0  0  0  0  0  0  0  0  0
  -23.9910  -36.6270   22.9230 C   0  0  0  0  0  1  0  0  0  0  0  0
  -25.1560  -36.3440   23.8840 C   0  0  0  0  0  3  0  0  0  0  0  0
  -27.1290  -37.4060   24.8920 C   0  0  0  0  0  1  0  0  0  0  0  0
  -26.1290  -37.4580   23.8290 N   0  0  0  0  0  0  0  0  0  0  0  0
  -25.6530  -38.3550   23.8840 H   0  0  0  0  0  0  0  0  0  0  0  0
  -26.2200  -31.8590   25.4710 C   0  0  1  0  0  0  0  0  0  0  0  0
  -25.0020  -31.5870   26.3850 C   0  0  0  0  0  1  0  0  0  0  0  0
  -26.9410  -30.5130   25.2350 C   0  0  0  0  0  1  0  0  0  0  0  0
  -27.2090  -32.7610   26.2490 C   0  0  0  0  0  1  0  0  0  0  0  0
  -30.5980  -17.4050   20.2030 C   0  0  0  0  0  2  0  0  0  0  0  0
  -30.9770  -14.8720   20.4440 C   0  0  0  0  0  0  0  0  0  0  0  0
  -30.7280  -12.5920   19.4910 C   0  0  0  0  0  2  0  0  0  0  0  0
  -29.8480  -12.6680   18.2240 C   0  0  0  0  0  2  0  0  0  0  0  0
  -28.3560  -12.5510   18.5940 C   0  0  0  0  0  2  0  0  0  0  0  0
  -27.9640  -13.5020   19.7570 C   0  0  0  0  0  3  0  0  0  0  0  0
  -28.9650  -13.4060   20.9320 C   0  0  0  0  0  2  0  0  0  0  0  0
  -30.3060  -13.6770   20.4010 N   0  0  0  0  0  0  0  0  0  0  0  0
  -32.1510  -14.9450   20.0690 O   0  0  0  0  0  0  0  0  0  0  0  0
  -30.2540  -16.0160   20.6980 N   0  0  0  0  0  0  0  0  0  0  0  0
  -29.3190  -15.8790   21.0550 H   0  0  0  0  0  0  0  0  0  0  0  0
  -25.5890  -14.1990   20.4330 C   0  0  0  0  0  0  0  0  0  0  0  0
  -24.4770  -13.4710   20.7610 C   0  0  0  0  0  0  0  0  0  0  0  0
  -24.8740  -12.0990   20.7160 C   0  0  0  0  0  0  0  0  0  0  0  0
  -26.5930  -13.2730   20.2030 N   0  0  0  0  0  0  0  0  0  0  0  0
  -26.1680  -12.0060   20.4360 N   0  0  0  0  0  0  0  0  0  0  0  0
  -24.0840  -10.8700   20.8590 C   0  0  0  0  0  0  0  0  0  0  0  0
  -24.5220   -9.8050   21.6780 C   0  0  0  0  0  3  0  0  0  0  0  0
  -23.7360   -8.6400   21.8160 C   0  0  0  0  0  3  0  0  0  0  0  0
  -22.5010   -8.5320   21.1350 C   0  0  0  0  0  0  0  0  0  0  0  0
  -22.0830   -9.5840   20.3010 C   0  0  0  0  0  3  0  0  0  0  0  0
  -22.8680  -10.7400   20.1600 C   0  0  0  0  0  3  0  0  0  0  0  0
  -21.6830   -7.4280   21.1870 O   0  0  0  0  0  0  0  0  0  0  0  0
  -21.7730   -6.5170   22.2070 C   0  0  0  0  0  0  0  0  0  0  0  0
  -21.6630   -6.9000   23.5610 C   0  0  0  0  0  3  0  0  0  0  0  0
  -21.6920   -5.9210   24.5750 C   0  0  0  0  0  3  0  0  0  0  0  0
  -21.8210   -4.5610   24.2370 C   0  0  0  0  0  0  0  0  0  0  0  0
  -21.9260   -4.1770   22.8890 C   0  0  0  0  0  3  0  0  0  0  0  0
  -21.9000   -5.1530   21.8770 C   0  0  0  0  0  0  0  0  0  0  0  0
  -21.9810   -4.7760   20.5780 F   0  0  0  0  0  0  0  0  0  0  0  0
  -21.8390   -3.6190   25.2090 F   0  0  0  0  0  0  0  0  0  0  0  0
  -23.0980  -14.0110   21.0050 C   0  0  0  0  0  0  0  0  0  0  0  0
  -22.3330  -13.3610   21.8750 N   0  0  0  0  0  0  0  0  0  0  0  0
  -22.7060  -15.0380   20.4530 O   0  0  0  0  0  0  0  0  0  0  0  0
  -22.6670  -12.5290   22.3390 H   0  0  0  0  0  0  0  0  0  0  0  0
  -21.4070  -13.7050   22.0840 H   0  0  0  0  0  0  0  0  0  0  0  0
  -25.8260  -15.5620   20.2930 N   0  0  0  0  0  0  0  0  0  0  0  0
  -25.0940  -16.2550   20.3890 H   0  0  0  0  0  0  0  0  0  0  0  0
  -26.6910  -15.9460   19.9350 H   0  0  0  0  0  0  0  0  0  0  0  0
  1  3  1  0
  1  4  1  0
  2  4  1  0
  3 10  1  0
  4 57  1  0
  5  3  1  0
  5  2  1  0
  5 13  1  0
  6  8  1  0
  7  6  2  0
  9  7  1  0
  9 11  2  0
 10  8  2  0
 11 10  1  0
 12 11  1  0
 14 13  1  0
 14 15  2  0
 16 15  1  0
 17 28  2  0
 18 16  1  0
 18 23  1  0
 19 27  1  0
 19 29  1  0
 20 22  1  0
 21 27  1  0
 22 23  2  0
 22 21  1  0
 24 18  2  0
 25 24  1  0
 25 20  2  0
 26 20  1  0
 26 19  1  0
 27 17  1  0
 29 31  2  0
 30 29  1  0
 32 30  1  0
 33 42  2  0
 33 38  1  0
 34 30  1  0
 34 38  1  0
 35 34  1  0
 36 37  1  0
 36 35  1  0
 37 33  1  0
 38 39  2  0
 39 40  1  0
 41 40  2  0
 42 41  1  0
 43 17  1  0
 43 44  1  0
 43 53  1  0
 44 47  1  0
 45 49  1  0
 45 44  1  0
 46 45  2  0
 49 48  1  0
 51 52  1  0
 51 49  1  0
 51 50  1  0
 53 56  1  1
 53 54  1  0
 55 53  1  0
 57 66  1  0
 58 66  1  0
 59 64  1  0
 60 61  1  0
 60 59  1  0
 62 61  1  0
 62 71  1  0
 62 63  1  0
 64 58  1  0
 64 63  1  0
 65 58  2  0
 66 67  1  0
 68 69  2  0
 69 88  1  0
 70 69  1  0
 70 73  1  0
 71 68  1  0
 71 72  1  0
 72 70  2  0
 73 74  1  0
 74 75  2  0
 76 79  1  0
 76 75  1  0
 77 76  2  0
 78 77  1  0
 78 73  2  0
 79 80  1  0
 80 81  1  0
 81 82  2  0
 83 82  1  0
 83 87  1  0
 84 83  2  0
 85 80  2  0
 85 84  1  0
 86 85  1  0
 88 89  1  0
 89 92  1  0
 89 91  1  0
 90 88  2  0
 93 94  1  0
 93 68  1  0
 95 93  1  0
M  ISO  4  15 101  16 101  58 100  66 100
M  END
>  <TORSDO>  (3) 
F 21

>  <SCORE>  (3) 
-12.725

>  <name>  (3) 
2

>  <ligand_id>  (3) 
2

>  <original_smiles>  (3) 
[H]c1c([H])c([H])c(C2([H])C([H])([H])C([H])(C([H])([H])N([H])C(=O)N3C([H])([H])C([H])([H])C([H])([H])C([H])(n4nc(-c5c([H])c([H])c(Oc6c([H])c([H])c(F)c([H])c6F)c([H])c5[H])c(C(=O)N([H])[H])c4N([H])[H])C3([H])[H])C([H])([H])C2([H])C([H])([H])C([H])([H])C([H])([H])Oc2c([H])c([H])c3c(c2[H])C([H])([H])N(C(=O)C([H])(N([H])C(=O)C([H])(N([H])C([H])([H])[H])C([H])([H])[H])C(C([H])([H])[H])(C([H])([H])[H])C([H])([H])[H])C([H])(C(=O)N([H])C2([H])c4c([H])c([H])c([H])c([H])c4C([H])([H])C([H])([H])C2([H])[H])C3([H])[H])c(F)c1[H]

>  <smiles>  (3) 
[H]c1c([H])c([H])c(C2([H])C([H])([H])C([H])(C([H])([H])N([H])C(=O)N3C([H])([H])C([H])([H])C([H])([H])C([H])(n4nc(-c5c([H])c([H])c(Oc6c([H])c([H])c(F)c([H])c6F)c([H])c5[H])c(C(=O)N([H])[H])c4N([H])[H])C3([H])[H])C([H])([H])C2([H])C([H])([H])C([H])([H])C([H])([H])Oc2c([H])c([H])c3c(c2[H])C([H])([H])N(C(=O)C([H])(N([H])C(=O)C([H])(N([H])C([H])([H])[H])C([H])([H])[H])C(C([H])([H])[H])(C([H])([H])[H])C([H])([H])[H])C([H])(C(=O)N([H])C2([H])c4c([H])c([H])c([H])c([H])c4C([H])([H])C([H])([H])C2([H])[H])C3([H])[H])c(F)c1[H]

$$$$
3:0:0
     RDKit          3D

 96104  0  0  1  0  0  0  0  0999 V2000
  -29.1610  -18.5230   20.4700 C   0  0  0  0  0  3  0  0  0  0  0  0
  -30.6240  -14.7670   20.1240 C   0  0  0  0  0  0  0  0  0  0  0  0
  -30.2750  -12.5670   18.9920 C   0  0  0  0  0  2  0  0  0  0  0  0
  -29.2880  -12.7060   17.8160 C   0  0  0  0  0  2  0  0  0  0  0  0
  -27.8380  -12.5290   18.3070 C   0  0  0  0  0  2  0  0  0  0  0  0
  -27.5320  -13.3730   19.5750 C   0  0  0  0  0  3  0  0  0  0  0  0
  -28.6390  -13.2370   20.6390 C   0  0  0  0  0  2  0  0  0  0  0  0
  -29.9130  -13.5910   20.0020 N   0  0  0  0  0  0  0  0  0  0  0  0
  -31.7700  -14.8040   19.6680 O   0  0  0  0  0  0  0  0  0  0  0  0
  -31.1330  -17.0640   22.4070 C   0  0  0  0  0  2  0  0  0  0  0  0
  -31.5150  -17.7020   21.0720 C   0  0  0  0  0  2  0  0  0  0  0  0
  -30.0480  -16.0270   22.0590 C   0  0  0  0  0  2  0  0  0  0  0  0
  -30.3130  -17.3990   20.1610 C   0  0  1  0  0  0  0  0  0  0  0  0
  -30.0030  -15.9370   20.5910 N   0  0  0  0  0  0  0  0  0  0  0  0
  -25.1760  -13.9420   20.4130 C   0  0  0  0  0  0  0  0  0  0  0  0
  -24.1310  -13.1570   20.8200 C   0  0  0  0  0  0  0  0  0  0  0  0
  -24.6010  -11.8100   20.7590 C   0  0  0  0  0  0  0  0  0  0  0  0
  -26.2130  -13.0710   20.1230 N   0  0  0  0  0  0  0  0  0  0  0  0
  -25.8780  -11.7840   20.3970 N   0  0  0  0  0  0  0  0  0  0  0  0
  -23.8910  -10.5410   20.9690 C   0  0  0  0  0  0  0  0  0  0  0  0
  -24.3620   -9.5720   21.8820 C   0  0  0  0  0  3  0  0  0  0  0  0
  -23.6510   -8.3700   22.0810 C   0  0  0  0  0  3  0  0  0  0  0  0
  -22.4530   -8.1280   21.3670 C   0  0  0  0  0  0  0  0  0  0  0  0
  -22.0000   -9.0850   20.4420 C   0  0  0  0  0  3  0  0  0  0  0  0
  -22.7130  -10.2790   20.2400 C   0  0  0  0  0  3  0  0  0  0  0  0
  -21.7080   -6.9790   21.4770 O   0  0  0  0  0  0  0  0  0  0  0  0
  -21.6960   -6.2360   22.6310 C   0  0  0  0  0  0  0  0  0  0  0  0
  -21.3060   -6.7900   23.8700 C   0  0  0  0  0  3  0  0  0  0  0  0
  -21.2430   -5.9740   25.0170 C   0  0  0  0  0  3  0  0  0  0  0  0
  -21.5550   -4.6040   24.9260 C   0  0  0  0  0  0  0  0  0  0  0  0
  -21.9380   -4.0500   23.6920 C   0  0  0  0  0  3  0  0  0  0  0  0
  -22.0050   -4.8640   22.5470 C   0  0  0  0  0  0  0  0  0  0  0  0
  -22.3530   -4.3210   21.3560 F   0  0  0  0  0  0  0  0  0  0  0  0
  -21.4850   -3.8170   26.0240 F   0  0  0  0  0  0  0  0  0  0  0  0
  -22.7440  -13.6250   21.1500 C   0  0  0  0  0  0  0  0  0  0  0  0
  -22.0560  -12.9210   22.0430 N   0  0  0  0  0  0  0  0  0  0  0  0
  -22.2800  -14.6490   20.6540 O   0  0  0  0  0  0  0  0  0  0  0  0
  -22.4470  -12.0980   22.4750 H   0  0  0  0  0  0  0  0  0  0  0  0
  -21.1260  -13.2160   22.3010 H   0  0  0  0  0  0  0  0  0  0  0  0
  -25.3240  -15.3150   20.2440 N   0  0  0  0  0  0  0  0  0  0  0  0
  -24.5630  -15.9650   20.4040 H   0  0  0  0  0  0  0  0  0  0  0  0
  -26.1660  -15.7650   19.9040 H   0  0  0  0  0  0  0  0  0  0  0  0
  -30.6160  -17.4240   18.6110 C   0  0  0  0  0  2  0  0  0  0  0  0
  -31.0000  -18.7360   17.8720 C   0  0  0  0  0  3  0  0  0  0  0  0
  -31.6820  -17.6770   15.5610 C   0  0  0  0  0  1  0  0  0  0  0  0
  -30.7720  -18.6350   16.3440 C   0  0  0  0  0  2  0  0  0  0  0  0
  -33.6150  -18.4450   18.2280 C   0  0  0  0  0  1  0  0  0  0  0  0
  -32.3710  -19.3580   18.2580 C   0  0  0  0  0  2  0  0  0  0  0  0
  -29.5520  -20.0810   20.7040 C   0  0  0  0  0  3  0  0  0  0  0  0
  -28.4680  -21.2690   20.7170 C   0  0  0  0  0  2  0  0  0  0  0  0
  -28.9980  -22.6630   20.3770 N   0  0  0  0  0  4  0  0  0  0  0  0
  -29.2130  -22.6470   19.3930 H   0  0  0  0  0  0  0  0  0  0  0  0
  -29.8750  -22.7780   20.8610 H   0  0  0  0  0  0  0  0  0  0  0  0
  -28.1730  -23.9230   20.6620 C   0  0  0  0  0  2  0  0  0  0  0  0
  -28.5580  -25.2290   19.8170 C   0  0  0  0  0  2  0  0  0  0  0  0
  -28.4200  -26.6010   20.3610 O   0  0  0  0  0  0  0  0  0  0  0  0
  -24.6030  -31.9520   23.2490 C   0  0  0  0  0  0  0  0  0  0  0  0
  -27.2680  -27.3900   20.2560 C   0  0  0  0  0  0  0  0  0  0  0  0
  -23.4210  -30.5380   21.6020 C   0  0  0  0  0  3  0  0  0  0  0  0
  -24.8920  -28.9800   20.2010 C   0  0  0  0  0  0  0  0  0  0  0  0
  -25.9570  -30.8700   21.4410 C   0  0  0  0  0  2  0  0  0  0  0  0
  -26.0470  -29.4860   20.8080 C   0  0  0  0  0  0  0  0  0  0  0  0
  -27.2340  -28.7010   20.8240 C   0  0  0  0  0  3  0  0  0  0  0  0
  -26.0900  -26.9260   19.6300 C   0  0  0  0  0  3  0  0  0  0  0  0
  -24.9160  -27.7080   19.6030 C   0  0  0  0  0  3  0  0  0  0  0  0
  -23.6510  -29.8510   20.2290 C   0  0  0  0  0  2  0  0  0  0  0  0
  -24.6790  -31.1390   22.1550 N   0  0  0  0  0  0  0  0  0  0  0  0
  -23.5130  -32.2280   23.7710 O   0  0  0  0  0  0  0  0  0  0  0  0
  -22.7530  -29.5270   22.5650 C   0  0  0  0  0  0  0  0  0  0  0  0
  -21.4270  -29.3530   22.4340 N   0  0  0  0  0  0  0  0  0  0  0  0
  -23.4280  -28.8990   23.3850 O   0  0  0  0  0  0  0  0  0  0  0  0
  -20.9420  -29.9150   21.7490 H   0  0  0  0  0  0  0  0  0  0  0  0
  -18.0440  -28.1740   22.9270 C   0  0  0  0  0  0  0  0  0  0  0  0
  -20.6020  -28.4190   23.2040 C   0  0  0  0  0  3  0  0  0  0  0  0
  -20.6960  -26.9870   22.6270 C   0  0  0  0  0  2  0  0  0  0  0  0
  -19.5940  -26.6710   21.6110 C   0  0  0  0  0  2  0  0  0  0  0  0
  -18.2130  -26.8230   22.2520 C   0  0  0  0  0  2  0  0  0  0  0  0
  -19.1650  -28.9300   23.3600 C   0  0  0  0  0  0  0  0  0  0  0  0
  -18.9530  -30.1940   23.9520 C   0  0  0  0  0  3  0  0  0  0  0  0
  -17.6490  -30.7030   24.1140 C   0  0  0  0  0  3  0  0  0  0  0  0
  -16.5420  -29.9440   23.6970 C   0  0  0  0  0  3  0  0  0  0  0  0
  -16.7390  -28.6810   23.1110 C   0  0  0  0  0  3  0  0  0  0  0  0
  -25.8770  -32.5940   23.8820 C   0  0  0  0  0  3  0  0  0  0  0  0
  -26.3800  -31.8340   25.1710 C   0  0  1  0  0  0  0  0  0  0  0  0
  -25.2780  -31.6040   26.2310 C   0  0  0  0  0  1  0  0  0  0  0  0
  -26.9700  -30.4550   24.7950 C   0  0  0  0  0  1  0  0  0  0  0  0
  -27.5220  -32.6360   25.8390 C   0  0  0  0  0  1  0  0  0  0  0  0
  -25.5600  -33.9940   24.2000 N   0  0  0  0  0  0  0  0  0  0  0  0
  -25.8940  -35.0430   23.4370 C   0  0  0  0  0  0  0  0  0  0  0  0
  -26.5710  -34.9340   22.4110 O   0  0  0  0  0  0  0  0  0  0  0  0
  -24.9590  -34.1510   24.9950 H   0  0  0  0  0  0  0  0  0  0  0  0
  -24.1600  -36.8270   23.0610 C   0  0  0  0  0  1  0  0  0  0  0  0
  -25.3990  -36.4340   23.8810 C   0  0  0  0  0  3  0  0  0  0  0  0
  -27.5290  -37.3320   24.7110 C   0  0  0  0  0  1  0  0  0  0  0  0
  -26.4280  -37.4900   23.7640 N   0  0  0  0  0  0  0  0  0  0  0  0
  -26.0190  -38.4090   23.9050 H   0  0  0  0  0  0  0  0  0  0  0  0
  1 49  2  0
  2 14  1  0
  3  8  1  0
  4  5  1  0
  4  3  1  0
  6  5  1  0
  6 18  1  0
  6  7  1  0
  8  2  1  0
  8  7  1  0
  9  2  2  0
 11 10  1  0
 12 10  1  0
 13 43  1  6
 13  1  1  0
 13 14  1  0
 13 11  1  0
 14 12  1  0
 15 16  2  0
 16 35  1  0
 17 16  1  0
 17 20  1  0
 18 19  1  0
 18 15  1  0
 19 17  2  0
 20 21  1  0
 21 22  2  0
 23 26  1  0
 23 22  1  0
 24 23  2  0
 25 24  1  0
 25 20  2  0
 26 27  1  0
 27 28  1  0
 28 29  2  0
 30 29  1  0
 30 34  1  0
 31 30  2  0
 32 27  2  0
 32 31  1  0
 33 32  1  0
 35 36  1  0
 36 39  1  0
 36 38  1  0
 37 35  2  0
 40 41  1  0
 40 15  1  0
 42 40  1  0
 44 48  1  0
 44 43  1  0
 45 46  1  0
 46 44  1  0
 47 48  1  0
 49 50  1  0
 51 54  1  0
 51 50  1  0
 51 53  1  0
 52 51  1  0
 55 56  1  0
 55 54  1  0
 57 68  2  0
 58 56  1  0
 58 63  1  0
 59 67  1  0
 59 69  1  0
 60 66  1  0
 60 62  1  0
 61 67  1  0
 62 63  2  0
 62 61  1  0
 64 58  2  0
 65 64  1  0
 65 60  2  0
 66 59  1  0
 67 57  1  0
 69 71  2  0
 70 69  1  0
 72 70  1  0
 73 82  2  0
 73 78  1  0
 74 70  1  0
 74 78  1  0
 75 74  1  0
 76 77  1  0
 76 75  1  0
 77 73  1  0
 78 79  2  0
 79 80  1  0
 81 80  2  0
 82 81  1  0
 83 57  1  0
 83 88  1  0
 83 84  1  0
 84 87  1  1
 84 85  1  0
 86 84  1  0
 88 91  1  0
 89 93  1  0
 89 88  1  0
 90 89  2  0
 93 92  1  0
 95 93  1  0
 95 96  1  0
 95 94  1  0
M  ISO  4   2 100  14 100  55 101  56 101
M  END
>  <TORSDO>  (4) 
F 25

>  <SCORE>  (4) 
-12.096

>  <name>  (4) 
3

>  <ligand_id>  (4) 
3

>  <original_smiles>  (4) 
[H]c1c([H])c([H])c2c(c1[H])C([H])([H])C([H])([H])C([H])([H])C2([H])N([H])C(=O)C1([H])N(C(=O)C([H])(N([H])C(=O)C([H])(N([H])C([H])([H])[H])C([H])([H])[H])C(C([H])([H])[H])(C([H])([H])[H])C([H])([H])[H])C([H])([H])c2c([H])c(OC([H])([H])C([H])([H])[N+]([H])([H])C([H])([H])C([H])([H])C([H])([H])C3(C([H])([H])C([H])(C([H])([H])C([H])([H])[H])C([H])([H])C([H])([H])[H])N(C(=O)N4C([H])([H])C([H])([H])C([H])([H])C([H])(n5nc(-c6c([H])c([H])c(Oc7c([H])c([H])c(F)c([H])c7F)c([H])c6[H])c(C(=O)N([H])[H])c5N([H])[H])C4([H])[H])C([H])([H])C([H])([H])C3([H])[H])c([H])c([H])c2C1([H])[H]

>  <smiles>  (4) 
[H]c1c([H])c([H])c2c(c1[H])C([H])([H])C([H])([H])C([H])([H])C2([H])N([H])C(=O)C1([H])N(C(=O)C([H])(N([H])C(=O)C([H])(N([H])C([H])([H])[H])C([H])([H])[H])C(C([H])([H])[H])(C([H])([H])[H])C([H])([H])[H])C([H])([H])c2c([H])c(OC([H])([H])C([H])([H])[N+]([H])([H])C([H])([H])C([H])([H])C([H])([H])C3(C([H])([H])C([H])(C([H])([H])C([H])([H])[H])C([H])([H])C([H])([H])[H])N(C(=O)N4C([H])([H])C([H])([H])C([H])([H])C([H])(n5nc(-c6c([H])c([H])c(Oc7c([H])c([H])c(F)c([H])c7F)c([H])c6[H])c(C(=O)N([H])[H])c5N([H])[H])C4([H])[H])C([H])([H])C([H])([H])C3([H])[H])c([H])c([H])c2C1([H])[H]

$$$$
4:0:0
     RDKit          3D

 94101  0  0  1  0  0  0  0  0999 V2000
  -29.2030  -23.0100   17.1650 C   0  0  0  0  0  2  0  0  0  0  0  0
  -30.5200  -23.6560   17.3600 N   0  0  0  0  0  4  0  0  0  0  0  0
  -31.1080  -23.3700   16.5930 H   0  0  0  0  0  0  0  0  0  0  0  0
  -30.9600  -23.3270   18.2040 H   0  0  0  0  0  0  0  0  0  0  0  0
  -30.5110  -25.1360   17.3670 C   0  0  0  0  0  2  0  0  0  0  0  0
  -30.1540  -25.7620   18.7360 C   0  0  0  0  0  2  0  0  0  0  0  0
  -28.6490  -25.8890   19.0130 C   0  0  0  0  0  2  0  0  0  0  0  0
  -28.4500  -26.8120   20.0760 O   0  0  0  0  0  0  0  0  0  0  0  0
  -24.6080  -31.8800   23.2260 C   0  0  0  0  0  0  0  0  0  0  0  0
  -27.2390  -27.4640   20.1180 C   0  0  0  0  0  0  0  0  0  0  0  0
  -23.3880  -30.4750   21.5940 C   0  0  0  0  0  3  0  0  0  0  0  0
  -24.8290  -28.9340   20.1690 C   0  0  0  0  0  0  0  0  0  0  0  0
  -25.9090  -30.8390   21.3770 C   0  0  0  0  0  2  0  0  0  0  0  0
  -25.9880  -29.4660   20.7480 C   0  0  0  0  0  0  0  0  0  0  0  0
  -27.1920  -28.7320   20.7300 C   0  0  0  0  0  3  0  0  0  0  0  0
  -26.0550  -26.9240   19.5640 C   0  0  0  0  0  3  0  0  0  0  0  0
  -24.8540  -27.6570   19.5830 C   0  0  0  0  0  3  0  0  0  0  0  0
  -23.5870  -29.7910   20.2160 C   0  0  0  0  0  2  0  0  0  0  0  0
  -24.6540  -31.0790   22.1240 N   0  0  0  0  0  0  0  0  0  0  0  0
  -23.5310  -32.1520   23.7740 O   0  0  0  0  0  0  0  0  0  0  0  0
  -22.7460  -29.4540   22.5600 C   0  0  0  0  0  0  0  0  0  0  0  0
  -21.4220  -29.2700   22.4380 N   0  0  0  0  0  0  0  0  0  0  0  0
  -23.4350  -28.8320   23.3730 O   0  0  0  0  0  0  0  0  0  0  0  0
  -20.9290  -29.8240   21.7510 H   0  0  0  0  0  0  0  0  0  0  0  0
  -18.0530  -28.0690   22.9370 C   0  0  0  0  0  0  0  0  0  0  0  0
  -20.6090  -28.3350   23.2120 C   0  0  0  0  0  3  0  0  0  0  0  0
  -20.7160  -26.9010   22.6450 C   0  0  0  0  0  2  0  0  0  0  0  0
  -19.6160  -26.5690   21.6310 C   0  0  0  0  0  2  0  0  0  0  0  0
  -18.2330  -26.7150   22.2720 C   0  0  0  0  0  2  0  0  0  0  0  0
  -19.1690  -28.8360   23.3650 C   0  0  0  0  0  0  0  0  0  0  0  0
  -18.9470  -30.1040   23.9450 C   0  0  0  0  0  3  0  0  0  0  0  0
  -17.6410  -30.6040   24.1040 C   0  0  0  0  0  3  0  0  0  0  0  0
  -16.5390  -29.8340   23.6940 C   0  0  0  0  0  3  0  0  0  0  0  0
  -16.7450  -28.5680   23.1160 C   0  0  0  0  0  3  0  0  0  0  0  0
  -25.9010  -32.5070   23.8370 C   0  0  0  0  0  3  0  0  0  0  0  0
  -26.4350  -31.7270   25.1000 C   0  0  1  0  0  0  0  0  0  0  0  0
  -25.3570  -31.4800   26.1810 C   0  0  0  0  0  1  0  0  0  0  0  0
  -27.0140  -30.3540   24.6850 C   0  0  0  0  0  1  0  0  0  0  0  0
  -27.5950  -32.5170   25.7500 C   0  0  0  0  0  1  0  0  0  0  0  0
  -25.5930  -33.9030   24.1770 N   0  0  0  0  0  0  0  0  0  0  0  0
  -25.9210  -34.9580   23.4190 C   0  0  0  0  0  0  0  0  0  0  0  0
  -26.5850  -34.8600   22.3830 O   0  0  0  0  0  0  0  0  0  0  0  0
  -25.0030  -34.0530   24.9810 H   0  0  0  0  0  0  0  0  0  0  0  0
  -24.1870  -36.7490   23.0830 C   0  0  0  0  0  1  0  0  0  0  0  0
  -25.4350  -36.3440   23.8850 C   0  0  0  0  0  3  0  0  0  0  0  0
  -27.5770  -37.2240   24.7020 C   0  0  0  0  0  1  0  0  0  0  0  0
  -26.4660  -37.3980   23.7690 N   0  0  0  0  0  0  0  0  0  0  0  0
  -26.0610  -38.3170   23.9270 H   0  0  0  0  0  0  0  0  0  0  0  0
  -29.2820  -21.4750   17.2140 C   0  0  0  0  0  2  0  0  0  0  0  0
  -29.6520  -20.9120   18.5990 C   0  0  0  0  0  2  0  0  0  0  0  0
  -29.5480  -19.3790   18.6350 C   0  0  0  0  0  2  0  0  0  0  0  0
  -29.9980  -18.8060   19.9220 N   0  0  0  0  0  4  0  0  0  0  0  0
  -29.4920  -19.2450   20.6740 H   0  0  0  0  0  0  0  0  0  0  0  0
  -30.9780  -19.0040   20.0440 H   0  0  0  0  0  0  0  0  0  0  0  0
  -29.7920  -17.3460   19.9970 C   0  0  0  0  0  2  0  0  0  0  0  0
  -30.3190  -16.7220   21.3070 C   0  0  0  0  0  2  0  0  0  0  0  0
  -30.6860  -14.3730   20.5870 C   0  0  0  0  0  0  0  0  0  0  0  0
  -30.3530  -12.2740   19.3430 C   0  0  0  0  0  2  0  0  0  0  0  0
  -29.4040  -12.5270   18.1540 C   0  0  0  0  0  2  0  0  0  0  0  0
  -27.9310  -12.4030   18.5870 C   0  0  0  0  0  2  0  0  0  0  0  0
  -27.6140  -13.2140   19.8710 C   0  0  0  0  0  3  0  0  0  0  0  0
  -28.6640  -12.9190   20.9660 C   0  0  0  0  0  2  0  0  0  0  0  0
  -30.0020  -13.2140   20.4160 N   0  0  0  0  0  0  0  0  0  0  0  0
  -31.7470  -14.6400   20.0160 O   0  0  0  0  0  0  0  0  0  0  0  0
  -30.0480  -15.2870   21.3280 N   0  0  0  0  0  0  0  0  0  0  0  0
  -29.2020  -14.9790   21.7850 H   0  0  0  0  0  0  0  0  0  0  0  0
  -25.2140  -13.8440   20.5590 C   0  0  0  0  0  0  0  0  0  0  0  0
  -24.1390  -13.0800   20.9260 C   0  0  0  0  0  0  0  0  0  0  0  0
  -24.5930  -11.7250   20.9020 C   0  0  0  0  0  0  0  0  0  0  0  0
  -26.2550  -12.9550   20.3410 N   0  0  0  0  0  0  0  0  0  0  0  0
  -25.8820  -11.6760   20.5990 N   0  0  0  0  0  0  0  0  0  0  0  0
  -23.8590  -10.4680   21.0930 C   0  0  0  0  0  0  0  0  0  0  0  0
  -24.3030   -9.4870   22.0060 C   0  0  0  0  0  3  0  0  0  0  0  0
  -23.5730   -8.2920   22.1860 C   0  0  0  0  0  3  0  0  0  0  0  0
  -22.3820   -8.0720   21.4540 C   0  0  0  0  0  0  0  0  0  0  0  0
  -21.9560   -9.0420   20.5290 C   0  0  0  0  0  3  0  0  0  0  0  0
  -22.6880  -10.2270   20.3470 C   0  0  0  0  0  3  0  0  0  0  0  0
  -21.6210   -6.9320   21.5460 O   0  0  0  0  0  0  0  0  0  0  0  0
  -21.6110   -6.1630   22.6820 C   0  0  0  0  0  0  0  0  0  0  0  0
  -21.2600   -6.6950   23.9410 C   0  0  0  0  0  3  0  0  0  0  0  0
  -21.1970   -5.8540   25.0700 C   0  0  0  0  0  3  0  0  0  0  0  0
  -21.4730   -4.4790   24.9400 C   0  0  0  0  0  0  0  0  0  0  0  0
  -21.8170   -3.9460   23.6850 C   0  0  0  0  0  3  0  0  0  0  0  0
  -21.8830   -4.7850   22.5600 C   0  0  0  0  0  0  0  0  0  0  0  0
  -22.1940   -4.2620   21.3500 F   0  0  0  0  0  0  0  0  0  0  0  0
  -21.4040   -3.6680   26.0210 F   0  0  0  0  0  0  0  0  0  0  0  0
  -22.7430  -13.5640   21.1960 C   0  0  0  0  0  0  0  0  0  0  0  0
  -22.0140  -12.8750   22.0670 N   0  0  0  0  0  0  0  0  0  0  0  0
  -22.3090  -14.5880   20.6700 O   0  0  0  0  0  0  0  0  0  0  0  0
  -22.3780  -12.0460   22.5130 H   0  0  0  0  0  0  0  0  0  0  0  0
  -21.0770  -13.1810   22.2910 H   0  0  0  0  0  0  0  0  0  0  0  0
  -25.3870  -15.2110   20.3710 N   0  0  0  0  0  0  0  0  0  0  0  0
  -24.6220  -15.8720   20.4630 H   0  0  0  0  0  0  0  0  0  0  0  0
  -26.2370  -15.6350   20.0230 H   0  0  0  0  0  0  0  0  0  0  0  0
  1 49  1  0
  1  2  1  0
  2  5  1  0
  2  4  1  0
  3  2  1  0
  5  6  1  0
  6  7  1  0
  7  8  1  0
  8 10  1  0
  9 20  2  0
 10 15  1  0
 11 19  1  0
 11 21  1  0
 12 18  1  0
 12 14  1  0
 13 19  1  0
 14 13  1  0
 15 14  2  0
 16 17  1  0
 16 10  2  0
 17 12  2  0
 18 11  1  0
 19  9  1  0
 21 23  2  0
 22 21  1  0
 24 22  1  0
 25 34  2  0
 25 30  1  0
 26 22  1  0
 26 30  1  0
 27 26  1  0
 28 29  1  0
 28 27  1  0
 29 25  1  0
 30 31  2  0
 31 32  1  0
 33 32  2  0
 34 33  1  0
 35  9  1  0
 35 40  1  0
 35 36  1  0
 36 39  1  1
 36 37  1  0
 38 36  1  0
 40 43  1  0
 41 45  1  0
 41 40  1  0
 42 41  2  0
 45 44  1  0
 47 45  1  0
 47 48  1  0
 47 46  1  0
 49 50  1  0
 50 51  1  0
 51 52  1  0
 52 55  1  0
 52 54  1  0
 52 53  1  0
 55 56  1  0
 56 65  1  0
 57 65  1  0
 58 63  1  0
 59 60  1  0
 59 58  1  0
 61 60  1  0
 61 70  1  0
 61 62  1  0
 63 57  1  0
 63 62  1  0
 64 57  2  0
 65 66  1  0
 67 68  2  0
 68 87  1  0
 69 68  1  0
 69 72  1  0
 70 67  1  0
 70 71  1  0
 71 69  2  0
 72 73  1  0
 73 74  2  0
 75 78  1  0
 75 74  1  0
 76 75  2  0
 77 76  1  0
 77 72  2  0
 78 79  1  0
 79 80  1  0
 80 81  2  0
 82 81  1  0
 82 86  1  0
 83 82  2  0
 84 79  2  0
 84 83  1  0
 85 84  1  0
 87 88  1  0
 88 91  1  0
 88 90  1  0
 89 87  2  0
 92 93  1  0
 92 67  1  0
 94 92  1  0
M  ISO  4   7 101   8 101  57 100  65 100
M  END
>  <TORSDO>  (5) 
F 26

>  <SCORE>  (5) 
-11.711

>  <name>  (5) 
4

>  <ligand_id>  (5) 
4

>  <original_smiles>  (5) 
[H]c1c([H])c([H])c2c(c1[H])C([H])([H])C([H])([H])C([H])([H])C2([H])N([H])C(=O)C1([H])N(C(=O)C([H])(N([H])C(=O)C([H])(N([H])C([H])([H])[H])C([H])([H])[H])C(C([H])([H])[H])(C([H])([H])[H])C([H])([H])[H])C([H])([H])c2c([H])c(OC([H])([H])C([H])([H])C([H])([H])[N+]([H])([H])C([H])([H])C([H])([H])C([H])([H])C([H])([H])[N+]([H])([H])C([H])([H])C([H])([H])N([H])C(=O)N3C([H])([H])C([H])([H])C([H])([H])C([H])(n4nc(-c5c([H])c([H])c(Oc6c([H])c([H])c(F)c([H])c6F)c([H])c5[H])c(C(=O)N([H])[H])c4N([H])[H])C3([H])[H])c([H])c([H])c2C1([H])[H]

>  <smiles>  (5) 
[H]c1c([H])c([H])c2c(c1[H])C([H])([H])C([H])([H])C([H])([H])C2([H])N([H])C(=O)C1([H])N(C(=O)C([H])(N([H])C(=O)C([H])(N([H])C([H])([H])[H])C([H])([H])[H])C(C([H])([H])[H])(C([H])([H])[H])C([H])([H])[H])C([H])([H])c2c([H])c(OC([H])([H])C([H])([H])C([H])([H])[N+]([H])([H])C([H])([H])C([H])([H])C([H])([H])C([H])([H])[N+]([H])([H])C([H])([H])C([H])([H])N([H])C(=O)N3C([H])([H])C([H])([H])C([H])([H])C([H])(n4nc(-c5c([H])c([H])c(Oc6c([H])c([H])c(F)c([H])c6F)c([H])c5[H])c(C(=O)N([H])[H])c4N([H])[H])C3([H])[H])c([H])c([H])c2C1([H])[H]

$$$$
5:0:0
     RDKit          3D

 98107  0  0  1  0  0  0  0  0999 V2000
  -29.5380  -18.7900   20.6950 C   0  0  0  0  0  3  0  0  0  0  0  0
  -30.0030  -18.7230   18.3290 C   0  0  0  0  0  3  0  0  0  0  0  0
  -30.1090  -17.5110   20.8620 C   0  0  0  0  0  0  0  0  0  0  0  0
  -29.4570  -19.4020   19.4310 C   0  0  0  0  0  0  0  0  0  0  0  0
  -30.5500  -17.4260   18.4490 C   0  0  0  0  0  0  0  0  0  0  0  0
  -30.5760  -16.7740   19.7290 C   0  0  0  0  0  0  0  0  0  0  0  0
  -31.0450  -16.8220   17.1420 C   0  0  0  0  0  1  0  0  0  0  0  0
  -31.3710  -14.4320   19.1700 C   0  0  0  0  0  0  0  0  0  0  0  0
  -30.8140  -12.2700   18.1400 C   0  0  0  0  0  2  0  0  0  0  0  0
  -29.6670  -12.4460   17.1260 C   0  0  0  0  0  2  0  0  0  0  0  0
  -28.3030  -12.3170   17.8290 C   0  0  0  0  0  2  0  0  0  0  0  0
  -28.1970  -13.2030   19.0990 C   0  0  0  0  0  3  0  0  0  0  0  0
  -29.4390  -13.0250   20.0010 C   0  0  0  0  0  2  0  0  0  0  0  0
  -30.6500  -13.2800   19.1960 N   0  0  0  0  0  0  0  0  0  0  0  0
  -32.3680  -14.5800   18.4670 O   0  0  0  0  0  0  0  0  0  0  0  0
  -30.9240  -15.3960   19.9810 N   0  0  0  0  0  0  0  0  0  0  0  0
  -30.4270  -14.9980   20.7630 H   0  0  0  0  0  0  0  0  0  0  0  0
  -26.0420  -13.8250   20.3660 C   0  0  0  0  0  0  0  0  0  0  0  0
  -25.0310  -13.0610   20.8820 C   0  0  0  0  0  0  0  0  0  0  0  0
  -25.3920  -11.7020   20.6220 C   0  0  0  0  0  0  0  0  0  0  0  0
  -26.9610  -12.9340   19.8320 N   0  0  0  0  0  0  0  0  0  0  0  0
  -26.5820  -11.6460   20.0390 N   0  0  0  0  0  0  0  0  0  0  0  0
  -24.6450  -10.4570   20.8390 C   0  0  0  0  0  0  0  0  0  0  0  0
  -25.0700   -9.4910   21.7780 C   0  0  0  0  0  3  0  0  0  0  0  0
  -24.3230   -8.3100   21.9800 C   0  0  0  0  0  3  0  0  0  0  0  0
  -23.1350   -8.0860   21.2420 C   0  0  0  0  0  0  0  0  0  0  0  0
  -22.7300   -9.0400   20.2920 C   0  0  0  0  0  3  0  0  0  0  0  0
  -23.4780  -10.2120   20.0880 C   0  0  0  0  0  3  0  0  0  0  0  0
  -22.3610   -6.9570   21.3550 O   0  0  0  0  0  0  0  0  0  0  0  0
  -22.0980   -6.3810   22.5730 C   0  0  0  0  0  0  0  0  0  0  0  0
  -21.4600   -7.0930   23.6110 C   0  0  0  0  0  3  0  0  0  0  0  0
  -21.1450   -6.4410   24.8210 C   0  0  0  0  0  3  0  0  0  0  0  0
  -21.4610   -5.0800   24.9920 C   0  0  0  0  0  0  0  0  0  0  0  0
  -22.0900   -4.3690   23.9560 C   0  0  0  0  0  3  0  0  0  0  0  0
  -22.4050   -5.0160   22.7480 C   0  0  0  0  0  0  0  0  0  0  0  0
  -22.9940   -4.3190   21.7460 F   0  0  0  0  0  0  0  0  0  0  0  0
  -21.1520   -4.4530   26.1500 F   0  0  0  0  0  0  0  0  0  0  0  0
  -23.7530  -13.5620   21.4920 C   0  0  0  0  0  0  0  0  0  0  0  0
  -23.2030  -12.8290   22.4550 N   0  0  0  0  0  0  0  0  0  0  0  0
  -23.2610  -14.6350   21.1490 O   0  0  0  0  0  0  0  0  0  0  0  0
  -23.6170  -11.9570   22.7500 H   0  0  0  0  0  0  0  0  0  0  0  0
  -22.3570  -13.1480   22.9040 H   0  0  0  0  0  0  0  0  0  0  0  0
  -26.2520  -15.1990   20.2840 N   0  0  0  0  0  0  0  0  0  0  0  0
  -25.5450  -15.8680   20.5670 H   0  0  0  0  0  0  0  0  0  0  0  0
  -27.0180  -15.6220   19.7770 H   0  0  0  0  0  0  0  0  0  0  0  0
  -28.0430  -21.3550   20.4400 C   0  0  0  0  0  2  0  0  0  0  0  0
  -27.6860  -22.7840   20.0130 C   0  0  0  0  0  2  0  0  0  0  0  0
  -29.4420  -21.8850   18.5580 C   0  0  0  0  0  2  0  0  0  0  0  0
  -28.6880  -20.7090   19.2070 C   0  0  0  0  0  3  0  0  0  0  0  0
  -28.3950  -23.0100   18.6570 C   0  0  0  0  0  3  0  0  0  0  0  0
  -28.8150  -24.4490   18.2380 C   0  0  0  0  0  2  0  0  0  0  0  0
  -28.9750  -25.5150   19.3440 C   0  0  0  0  0  2  0  0  0  0  0  0
  -28.7820  -26.8250   18.8090 O   0  0  0  0  0  0  0  0  0  0  0  0
  -24.7840  -31.0340   22.8810 C   0  0  0  0  0  0  0  0  0  0  0  0
  -27.5350  -27.3890   18.9890 C   0  0  0  0  0  0  0  0  0  0  0  0
  -23.5660  -29.8070   21.1040 C   0  0  0  0  0  3  0  0  0  0  0  0
  -25.0270  -28.6340   19.3690 C   0  0  0  0  0  0  0  0  0  0  0  0
  -26.0290  -30.4160   20.8140 C   0  0  0  0  0  2  0  0  0  0  0  0
  -26.1750  -29.1700   19.9680 C   0  0  0  0  0  0  0  0  0  0  0  0
  -27.4290  -28.5560   19.7720 C   0  0  0  0  0  3  0  0  0  0  0  0
  -26.3710  -26.8530   18.3940 C   0  0  0  0  0  3  0  0  0  0  0  0
  -25.1200  -27.4770   18.5750 C   0  0  0  0  0  3  0  0  0  0  0  0
  -23.7240  -29.3570   19.6260 C   0  0  0  0  0  2  0  0  0  0  0  0
  -24.8140  -30.4270   21.6600 N   0  0  0  0  0  0  0  0  0  0  0  0
  -23.7290  -31.1290   23.5230 O   0  0  0  0  0  0  0  0  0  0  0  0
  -23.0590  -28.6040   21.9280 C   0  0  0  0  0  0  0  0  0  0  0  0
  -21.7700  -28.2680   21.7610 N   0  0  0  0  0  0  0  0  0  0  0  0
  -23.8200  -27.9790   22.6700 O   0  0  0  0  0  0  0  0  0  0  0  0
  -21.2110  -28.8330   21.1360 H   0  0  0  0  0  0  0  0  0  0  0  0
  -18.6150  -26.5180   21.9510 C   0  0  0  0  0  0  0  0  0  0  0  0
  -21.0840  -27.1430   22.3960 C   0  0  0  0  0  3  0  0  0  0  0  0
  -21.4420  -25.8100   21.6990 C   0  0  0  0  0  2  0  0  0  0  0  0
  -20.4500  -25.4210   20.5980 C   0  0  0  0  0  2  0  0  0  0  0  0
  -19.0360  -25.2860   21.1690 C   0  0  0  0  0  2  0  0  0  0  0  0
  -19.5760  -27.3990   22.5140 C   0  0  0  0  0  0  0  0  0  0  0  0
  -19.1320  -28.5500   23.2010 C   0  0  0  0  0  3  0  0  0  0  0  0
  -17.7590  -28.8280   23.3270 C   0  0  0  0  0  3  0  0  0  0  0  0
  -16.8090  -27.9420   22.7840 C   0  0  0  0  0  3  0  0  0  0  0  0
  -17.2390  -26.7880   22.1040 C   0  0  0  0  0  3  0  0  0  0  0  0
  -26.0650  -31.6600   23.5180 C   0  0  0  0  0  3  0  0  0  0  0  0
  -26.7100  -30.7550   24.6380 C   0  0  1  0  0  0  0  0  0  0  0  0
  -25.6990  -30.2720   25.7030 C   0  0  0  0  0  1  0  0  0  0  0  0
  -27.3680  -29.5040   24.0090 C   0  0  0  0  0  1  0  0  0  0  0  0
  -27.8390  -31.5290   25.3600 C   0  0  0  0  0  1  0  0  0  0  0  0
  -25.6940  -32.9720   24.0640 N   0  0  0  0  0  0  0  0  0  0  0  0
  -25.9440  -34.1420   23.4610 C   0  0  0  0  0  0  0  0  0  0  0  0
  -26.5850  -34.2320   22.4110 O   0  0  0  0  0  0  0  0  0  0  0  0
  -25.1160  -32.9720   24.8930 H   0  0  0  0  0  0  0  0  0  0  0  0
  -24.1120  -35.8640   23.4130 C   0  0  0  0  0  1  0  0  0  0  0  0
  -25.3960  -35.4160   24.1310 C   0  0  0  0  0  3  0  0  0  0  0  0
  -27.4990  -36.2930   25.0470 C   0  0  0  0  0  1  0  0  0  0  0  0
  -26.3670  -36.5320   24.1550 N   0  0  0  0  0  0  0  0  0  0  0  0
  -25.9160  -37.3980   24.4380 H   0  0  0  0  0  0  0  0  0  0  0  0
  -30.1990  -16.9800   22.2690 C   0  0  0  0  0  0  0  0  0  0  0  0
  -29.0920  -16.4340   22.7550 N   0  0  0  0  0  0  0  0  0  0  0  0
  -31.2430  -17.0360   22.9190 O   0  0  0  0  0  0  0  0  0  0  0  0
  -28.2710  -16.3600   22.1740 H   0  0  0  0  0  0  0  0  0  0  0  0
  -29.0780  -16.0550   23.6900 H   0  0  0  0  0  0  0  0  0  0  0  0
  1  3  1  0
  2  5  2  0
  2  4  1  0
  3 94  1  0
  4  1  2  0
  5  6  1  0
  6 16  1  0
  6  3  2  0
  7  5  1  0
  8 14  1  0
  8 16  1  0
  9 14  1  0
 10 11  1  0
 10  9  1  0
 12 11  1  0
 12 21  1  0
 12 13  1  0
 14 13  1  0
 15  8  2  0
 16 17  1  0
 18 19  2  0
 19 38  1  0
 20 23  1  0
 20 19  1  0
 21 22  1  0
 21 18  1  0
 22 20  2  0
 23 24  1  0
 24 25  2  0
 26 29  1  0
 26 25  1  0
 27 26  2  0
 28 27  1  0
 28 23  2  0
 29 30  1  0
 30 35  2  0
 30 31  1  0
 31 32  2  0
 32 33  1  0
 33 37  1  0
 34 33  2  0
 35 34  1  0
 36 35  1  0
 38 39  1  0
 39 41  1  0
 39 42  1  0
 40 38  2  0
 43 18  1  0
 43 44  1  0
 45 43  1  0
 47 46  1  0
 48 50  1  0
 48 49  1  0
 49  4  1  0
 49 46  1  0
 50 51  1  0
 50 47  1  0
 51 52  1  0
 53 55  1  0
 53 52  1  0
 54 65  2  0
 55 60  1  0
 56 64  1  0
 56 66  1  0
 57 63  1  0
 57 59  1  0
 58 64  1  0
 59 58  1  0
 60 59  2  0
 61 62  1  0
 61 55  2  0
 62 57  2  0
 63 56  1  0
 64 54  1  0
 66 68  2  0
 67 66  1  0
 69 67  1  0
 70 79  2  0
 70 75  1  0
 71 67  1  0
 71 75  1  0
 72 71  1  0
 73 74  1  0
 73 72  1  0
 74 70  1  0
 75 76  2  0
 76 77  1  0
 78 77  2  0
 79 78  1  0
 80 54  1  0
 80 85  1  0
 80 81  1  0
 81 84  1  1
 81 82  1  0
 83 81  1  0
 85 88  1  0
 86 85  1  0
 86 90  1  0
 87 86  2  0
 90 89  1  0
 90 92  1  0
 92 93  1  0
 92 91  1  0
 94 95  1  0
 94 96  2  0
 95 98  1  0
 97 95  1  0
M  ISO  4   8 100  16 100  52 101  53 101
M  END
>  <TORSDO>  (6) 
F 20

>  <SCORE>  (6) 
-6.529

>  <name>  (6) 
5

>  <ligand_id>  (6) 
5

>  <original_smiles>  (6) 
[H]c1c([H])c([H])c2c(c1[H])C([H])([H])C([H])([H])C([H])([H])C2([H])N([H])C(=O)C1([H])N(C(=O)C([H])(N([H])C(=O)C([H])(N([H])C([H])([H])[H])C([H])([H])[H])C(C([H])([H])[H])(C([H])([H])[H])C([H])([H])[H])C([H])([H])c2c([H])c(OC([H])([H])C([H])([H])C3([H])C([H])([H])C([H])([H])C([H])(c4c([H])c(C(=O)N([H])[H])c(N([H])C(=O)N5C([H])([H])C([H])([H])C([H])([H])C([H])(n6nc(-c7c([H])c([H])c(Oc8c([H])c([H])c(F)c([H])c8F)c([H])c7[H])c(C(=O)N([H])[H])c6N([H])[H])C5([H])[H])c(C([H])([H])[H])c4[H])C3([H])[H])c([H])c([H])c2C1([H])[H]

>  <smiles>  (6) 
[H]c1c([H])c([H])c2c(c1[H])C([H])([H])C([H])([H])C([H])([H])C2([H])N([H])C(=O)C1([H])N(C(=O)C([H])(N([H])C(=O)C([H])(N([H])C([H])([H])[H])C([H])([H])[H])C(C([H])([H])[H])(C([H])([H])[H])C([H])([H])[H])C([H])([H])c2c([H])c(OC([H])([H])C([H])([H])C3([H])C([H])([H])C([H])([H])C([H])(c4c([H])c(C(=O)N([H])[H])c(N([H])C(=O)N5C([H])([H])C([H])([H])C([H])([H])C([H])(n6nc(-c7c([H])c([H])c(Oc8c([H])c([H])c(F)c([H])c8F)c([H])c7[H])c(C(=O)N([H])[H])c6N([H])[H])C5([H])[H])c(C([H])([H])[H])c4[H])C3([H])[H])c([H])c([H])c2C1([H])[H]

$$$$
6:0:0
     RDKit          3D

 94 91  0  0  1  0  0  0  0  0999 V2000
  -32.9680  -12.1220    9.4850 C   0  0  0  0  0 15  0  0  0  0  0  0
  -35.7770  -12.5300   11.2090 C   0  0  0  0  0 15  0  0  0  0  0  0
  -35.9800  -10.0540    8.3480 C   0  0  0  0  0 15  0  0  0  0  0  0
  -33.9210  -13.4080   10.8590 C   0  0  0  0  0 15  0  0  0  0  0  0
  -33.6760  -10.4550    8.2720 C   0  0  0  0  0  1  0  0  0  0  0  0
  -36.9080  -10.9330   10.2360 C   0  0  0  0  0  1  0  0  0  0  0  0
  -32.8150  -10.1640    7.0020 C   0  0  0  0  0  1  0  0  0  0  0  0
  -32.8940  -14.8360   12.0040 C   0  0  0  0  0  2  0  0  0  0  0  0
  -32.9280  -14.3860   13.1530 O   0  0  0  0  0  0  0  0  0  0  0  0
  -31.7750  -16.5820   12.1560 C   0  0  0  0  0 15  0  0  0  0  0  0
  -31.7040  -18.7820   12.3170 C   0  0  0  0  0 15  0  0  0  0  0  0
  -31.5120  -20.4680   13.3400 O   0  0  0  0  0  1  0  0  0  0  0  0
  -30.5750  -28.2690   15.3890 C   0  0  0  0  0  0  0  0  0  0  0  0
  -31.1610  -22.0720   13.1320 C   0  0  0  0  0  0  0  0  0  0  0  0
  -28.9010  -26.9540   14.1960 C   0  0  0  0  0  3  0  0  0  0  0  0
  -29.6870  -24.8190   12.8870 C   0  0  0  0  0  0  0  0  0  0  0  0
  -31.3890  -26.3660   13.7800 C   0  0  0  0  0  2  0  0  0  0  0  0
  -30.9980  -24.8540   13.3690 C   0  0  0  0  0  0  0  0  0  0  0  0
  -31.7280  -23.5080   13.4460 C   0  0  0  0  0  3  0  0  0  0  0  0
  -29.9410  -22.3540   12.4760 C   0  0  0  0  0  3  0  0  0  0  0  0
  -29.2340  -23.5930   12.3850 C   0  0  0  0  0  3  0  0  0  0  0  0
  -28.7780  -26.0680   12.9230 C   0  0  0  0  0  2  0  0  0  0  0  0
  -30.3380  -27.2420   14.4880 N   0  0  0  0  0  0  0  0  0  0  0  0
  -29.6460  -28.8720   15.9600 O   0  0  0  0  0  0  0  0  0  0  0  0
  -28.1720  -26.2890   15.3970 C   0  0  0  0  0  0  0  0  0  0  0  0
  -26.9470  -26.7370   15.7300 N   0  0  0  0  0  0  0  0  0  0  0  0
  -28.7220  -25.3740   16.0140 O   0  0  0  0  0  0  0  0  0  0  0  0
  -26.5580  -27.5080   15.2020 H   0  0  0  0  0  0  0  0  0  0  0  0
  -23.9980  -27.3150   17.7780 C   0  0  0  0  0  0  0  0  0  0  0  0
  -26.0930  -26.1680   16.7830 C   0  0  0  0  0  3  0  0  0  0  0  0
  -25.1100  -25.1270   16.1970 C   0  0  0  0  0  2  0  0  0  0  0  0
  -23.7490  -25.7260   15.8260 C   0  0  0  0  0  2  0  0  0  0  0  0
  -23.0830  -26.3430   17.0570 C   0  0  0  0  0  2  0  0  0  0  0  0
  -25.4100  -27.2440   17.6370 C   0  0  0  0  0  0  0  0  0  0  0  0
  -26.2120  -28.1910   18.3100 C   0  0  0  0  0  3  0  0  0  0  0  0
  -25.6270  -29.1930   19.1080 C   0  0  0  0  0  3  0  0  0  0  0  0
  -24.2310  -29.2510   19.2520 C   0  0  0  0  0  3  0  0  0  0  0  0
  -23.4200  -28.3110   18.5910 C   0  0  0  0  0  3  0  0  0  0  0  0
  -32.0130  -28.7510   15.7450 C   0  0  0  0  0  3  0  0  0  0  0  0
  -32.0490  -30.2300   15.6440 N   0  0  0  0  0  0  0  0  0  0  0  0
  -32.7210  -30.9350   14.7240 C   0  0  0  0  0  0  0  0  0  0  0  0
  -33.4240  -30.3970   13.8680 O   0  0  0  0  0  0  0  0  0  0  0  0
  -31.4440  -30.7330   16.2770 H   0  0  0  0  0  0  0  0  0  0  0  0
  -31.6400  -32.9480   13.6470 C   0  0  0  0  0  1  0  0  0  0  0  0
  -32.5990  -32.4760   14.7540 C   0  0  0  0  0  3  0  0  0  0  0  0
  -34.7000  -33.1720   15.8260 C   0  0  0  0  0  1  0  0  0  0  0  0
  -33.8940  -33.1780   14.6080 N   0  0  0  0  0  0  0  0  0  0  0  0
  -33.7510  -34.1430   14.3250 H   0  0  0  0  0  0  0  0  0  0  0  0
  -32.4620  -28.3220   17.1990 C   0  0  1  0  0  0  0  0  0  0  0  0
  -32.0890  -29.3470   18.2960 C   0  0  0  0  0  1  0  0  0  0  0  0
  -31.8380  -26.9700   17.5990 C   0  0  0  0  0  1  0  0  0  0  0  0
  -33.9950  -28.1210   17.2370 C   0  0  0  0  0  1  0  0  0  0  0  0
  -38.5060  -11.0320   10.2920 C   0  0  0  0  0  3  0  0  0  0  0  0
  -39.2760  -12.2760    9.7240 C   0  0  0  0  0  3  0  0  0  0  0  0
  -38.5980  -13.4900    8.9740 C   0  0  0  0  0  2  0  0  0  0  0  0
  -38.9180  -15.0000    9.2520 C   0  0  0  0  0  2  0  0  0  0  0  0
  -39.1700  -15.1960   11.7690 C   0  0  0  0  0  0  0  0  0  0  0  0
  -40.6020  -16.4660   13.2980 C   0  0  0  0  0  2  0  0  0  0  0  0
  -39.8790  -16.9100   14.5080 C   0  0  0  0  0  2  0  0  0  0  0  0
  -38.9510  -18.0520   14.2210 C   0  0  0  0  0  2  0  0  0  0  0  0
  -38.0120  -18.4840   12.8220 C   0  0  0  0  0  2  0  0  0  0  0  0
  -38.7880  -17.3800   11.9400 C   0  0  0  0  0  2  0  0  0  0  0  0
  -39.5130  -16.2900   12.3830 N   0  0  0  0  0  0  0  0  0  0  0  0
  -38.5050  -14.3420   12.3320 O   0  0  0  0  0  0  0  0  0  0  0  0
  -39.6360  -15.2400   10.4970 N   0  0  0  0  0  0  0  0  0  0  0  0
  -40.3580  -15.9370   10.3780 H   0  0  0  0  0  0  0  0  0  0  0  0
  -36.8450  -21.7280   12.3150 C   0  0  0  0  0  0  0  0  0  0  0  0
  -37.1340  -22.7160   11.3680 C   0  0  0  0  0  0  0  0  0  0  0  0
  -38.0830  -22.3440   10.4360 C   0  0  0  0  0  0  0  0  0  0  0  0
  -37.5870  -20.5980   12.1420 N   0  0  0  0  0  2  0  0  0  0  0  0
  -38.3250  -21.3210   11.0420 N   0  0  0  0  0  0  0  0  0  0  0  0
  -38.9710  -22.9060    9.3460 C   0  0  0  0  0  0  0  0  0  0  0  0
  -38.6950  -22.8520    7.9460 C   0  0  0  0  0  3  0  0  0  0  0  0
  -39.4880  -23.5740    7.0080 C   0  0  0  0  0  3  0  0  0  0  0  0
  -40.5920  -24.3450    7.4490 C   0  0  0  0  0  0  0  0  0  0  0  0
  -40.9230  -24.3070    8.8130 C   0  0  0  0  0  3  0  0  0  0  0  0
  -40.1390  -23.5890    9.7370 C   0  0  0  0  0  3  0  0  0  0  0  0
  -41.4040  -25.1140    6.6410 O   0  0  0  0  0  0  0  0  0  0  0  0
  -41.0660  -26.3830    6.2350 C   0  0  0  0  0  0  0  0  0  0  0  0
  -41.4020  -27.5290    6.9870 C   0  0  0  0  0  3  0  0  0  0  0  0
  -41.0890  -28.8150    6.4970 C   0  0  0  0  0  3  0  0  0  0  0  0
  -40.4520  -28.9610    5.2490 C   0  0  0  0  0  0  0  0  0  0  0  0
  -40.1270  -27.8210    4.4910 C   0  0  0  0  0  3  0  0  0  0  0  0
  -40.4430  -26.5410    4.9780 C   0  0  0  0  0  0  0  0  0  0  0  0
  -40.1510  -25.4530    4.2230 F   0  0  0  0  0  0  0  0  0  0  0  0
  -40.1410  -30.1940    4.7850 F   0  0  0  0  0  0  0  0  0  0  0  0
  -36.6760  -24.0820   11.4470 C   0  0  0  0  0  0  0  0  0  0  0  0
  -36.1270  -24.5880   10.3540 N   0  0  0  0  0  0  0  0  0  0  0  0
  -36.8060  -24.6920   12.4970 O   0  0  0  0  0  0  0  0  0  0  0  0
  -35.9960  -24.0380    9.5210 H   0  0  0  0  0  0  0  0  0  0  0  0
  -35.8320  -25.5560   10.3510 H   0  0  0  0  0  0  0  0  0  0  0  0
  -35.9650  -21.8150   13.3400 N   0  0  0  0  0  0  0  0  0  0  0  0
  -35.3380  -22.6070   13.4260 H   0  0  0  0  0  0  0  0  0  0  0  0
  -35.8500  -21.1170   14.0610 H   0  0  0  0  0  0  0  0  0  0  0  0
  6 53  1  0
  7  5  1  0
  8  9  2  0
 13 24  2  0
 14 12  1  0
 14 19  1  0
 15 23  1  0
 15 25  1  0
 16 22  1  0
 16 18  1  0
 17 23  1  0
 18 19  2  0
 18 17  1  0
 20 14  2  0
 21 20  1  0
 21 16  2  0
 22 15  1  0
 23 13  1  0
 25 26  1  0
 25 27  2  0
 28 26  1  0
 29 38  1  0
 30 26  1  0
 30 34  1  0
 31 30  1  0
 32 31  1  0
 32 33  1  0
 33 29  1  0
 34 29  2  0
 34 35  1  0
 35 36  2  0
 36 37  1  0
 38 37  2  0
 39 13  1  0
 39 49  1  0
 40 39  1  0
 40 43  1  0
 41 45  1  0
 41 40  1  0
 42 41  2  0
 45 44  1  0
 47 45  1  0
 47 46  1  0
 48 47  1  0
 49 52  1  6
 49 51  1  0
 49 50  1  0
 54 53  2  0
 55 56  1  0
 55 54  1  0
 56 65  1  0
 57 64  2  0
 57 63  1  0
 58 59  1  0
 60 59  1  0
 61 60  1  0
 62 63  1  0
 62 61  1  0
 63 58  1  0
 65 57  1  0
 66 65  1  0
 67 92  1  0
 68 87  1  0
 68 67  2  0
 69 71  2  0
 69 68  1  0
 70 67  1  0
 71 70  1  0
 72 77  1  0
 72 69  1  0
 73 72  2  0
 74 75  2  0
 74 73  1  0
 75 76  1  0
 76 77  2  0
 78 75  1  0
 79 78  1  0
 79 80  1  0
 81 80  2  0
 82 81  1  0
 83 84  1  0
 83 82  2  0
 84 79  2  0
 85 84  1  0
 86 82  1  0
 87 89  2  0
 88 87  1  0
 90 88  1  0
 91 88  1  0
 92 93  1  0
 92 94  1  0
M  ISO  4  11 101  12 101  57 100  65 100
M  END
>  <TORSDO>  (7) 
F 23

>  <SCORE>  (7) 
-3.171

>  <name>  (7) 
6

>  <ligand_id>  (7) 
6

>  <original_smiles>  (7) 
[H]c1c([H])c([H])c2c(c1[H])C([H])([H])C([H])([H])C([H])([H])C2([H])N([H])C(=O)C1([H])N(C(=O)C([H])(N([H])C(=O)C([H])(N([H])C([H])([H])[H])C([H])([H])[H])C(C([H])([H])[H])(C([H])([H])[H])C([H])([H])[H])C([H])([H])c2c([H])c(OC([H])([H])C([H])([H])C(=O)C3([H])C([H])([H])C([H])(C([H])([H])[H])C([H])([H])C([H])(C([H])([H])C([H])([H])C([H])([H])C([H])([H])N([H])C(=O)N4C([H])([H])C([H])([H])C([H])([H])C([H])(n5nc(-c6c([H])c([H])c(Oc7c([H])c([H])c(F)c([H])c7F)c([H])c6[H])c(C(=O)N([H])[H])c5N([H])[H])C4([H])[H])C3([H])[H])c([H])c([H])c2C1([H])[H]

>  <smiles>  (7) 
[H]c1c([H])c([H])c2c(c1[H])C([H])([H])C([H])([H])C([H])([H])C2([H])N([H])C(=O)C1([H])N(C(=O)C([H])(N([H])C(=O)C([H])(N([H])C([H])([H])[H])C([H])([H])[H])C(C([H])([H])[H])(C([H])([H])[H])C([H])([H])[H])C([H])([H])c2c([H])c(OC([H])([H])C([H])([H])C(=O)C3([H])C([H])([H])C([H])(C([H])([H])[H])C([H])([H])C([H])(C([H])([H])C([H])([H])C([H])([H])C([H])([H])N([H])C(=O)N4C([H])([H])C([H])([H])C([H])([H])C([H])(n5nc(-c6c([H])c([H])c(Oc7c([H])c([H])c(F)c([H])c7F)c([H])c6[H])c(C(=O)N([H])[H])c5N([H])[H])C4([H])[H])C3([H])[H])c([H])c([H])c2C1([H])[H]

$$$$
7:0:0
     RDKit          3D

 92101  0  0  1  0  0  0  0  0999 V2000
  -31.6790  -15.1810   18.9880 C   0  0  0  0  0  0  0  0  0  0  0  0
  -31.3780  -12.6300   18.5660 C   0  0  0  0  0  2  0  0  0  0  0  0
  -30.2770  -12.2750   17.5300 C   0  0  0  0  0  2  0  0  0  0  0  0
  -28.8770  -12.2530   18.1670 C   0  0  0  0  0  2  0  0  0  0  0  0
  -28.6640  -13.4320   19.1480 C   0  0  0  0  0  3  0  0  0  0  0  0
  -29.8780  -13.5990   20.1000 C   0  0  0  0  0  2  0  0  0  0  0  0
  -31.0160  -13.9380   19.2360 N   0  0  0  0  0  0  0  0  0  0  0  0
  -32.8380  -15.0070   18.5850 O   0  0  0  0  0  0  0  0  0  0  0  0
  -29.0120  -18.0020   19.1340 C   0  0  0  0  0  2  0  0  0  0  0  0
  -29.5400  -19.4490   18.9140 C   0  0  0  0  0  2  0  0  0  0  0  0
  -32.0240  -20.5450   17.8760 C   0  0  0  0  0  2  0  0  0  0  0  0
  -31.4990  -17.9070   18.0890 C   0  0  0  0  0  2  0  0  0  0  0  0
  -29.9270  -16.9070   19.7850 C   0  0  0  0  0  3  0  0  0  0  0  0
  -30.7720  -21.1810   17.4930 C   0  0  0  0  0  3  0  0  0  0  0  0
  -30.9200  -19.5570   18.2710 C   0  0  1  0  0  0  0  0  0  0  0  0
  -31.0520  -16.5380   18.8880 N   0  0  0  0  0  0  0  0  0  0  0  0
  -26.6090  -14.3750   20.3410 C   0  0  0  0  0  0  0  0  0  0  0  0
  -25.4750  -13.7920   20.8210 C   0  0  0  0  0  0  0  0  0  0  0  0
  -25.6130  -12.3890   20.5710 C   0  0  0  0  0  0  0  0  0  0  0  0
  -27.3890  -13.3460   19.8430 N   0  0  0  0  0  0  0  0  0  0  0  0
  -26.8080  -12.1300   20.0450 N   0  0  0  0  0  0  0  0  0  0  0  0
  -24.6580  -11.2980   20.7530 C   0  0  0  0  0  0  0  0  0  0  0  0
  -24.9840  -10.1500   21.5110 C   0  0  0  0  0  3  0  0  0  0  0  0
  -24.0370   -9.1200   21.6900 C   0  0  0  0  0  3  0  0  0  0  0  0
  -22.7490   -9.2290   21.1060 C   0  0  0  0  0  0  0  0  0  0  0  0
  -22.4410  -10.3620   20.3290 C   0  0  0  0  0  3  0  0  0  0  0  0
  -23.3870  -11.3820   20.1510 C   0  0  0  0  0  3  0  0  0  0  0  0
  -21.7750   -8.2610   21.2070 O   0  0  0  0  0  0  0  0  0  0  0  0
  -21.7140   -7.4090   22.2780 C   0  0  0  0  0  0  0  0  0  0  0  0
  -21.5330   -7.8800   23.6000 C   0  0  0  0  0  3  0  0  0  0  0  0
  -21.4070   -6.9620   24.6620 C   0  0  0  0  0  3  0  0  0  0  0  0
  -21.4580   -5.5790   24.4070 C   0  0  0  0  0  0  0  0  0  0  0  0
  -21.6310   -5.1100   23.0950 C   0  0  0  0  0  3  0  0  0  0  0  0
  -21.7620   -6.0210   22.0350 C   0  0  0  0  0  0  0  0  0  0  0  0
  -21.9120   -5.5640   20.7670 F   0  0  0  0  0  0  0  0  0  0  0  0
  -21.3280   -4.6990   25.4270 F   0  0  0  0  0  0  0  0  0  0  0  0
  -24.2730  -14.5060   21.3700 C   0  0  0  0  0  0  0  0  0  0  0  0
  -23.5410  -13.8730   22.2740 N   0  0  0  0  0  0  0  0  0  0  0  0
  -24.0150  -15.6660   21.0340 O   0  0  0  0  0  0  0  0  0  0  0  0
  -23.7640  -12.9310   22.5610 H   0  0  0  0  0  0  0  0  0  0  0  0
  -22.7510  -14.3350   22.6950 H   0  0  0  0  0  0  0  0  0  0  0  0
  -27.0280  -15.7010   20.2500 N   0  0  0  0  0  0  0  0  0  0  0  0
  -26.3770  -16.4420   20.4690 H   0  0  0  0  0  0  0  0  0  0  0  0
  -27.7650  -15.9870   19.6230 H   0  0  0  0  0  0  0  0  0  0  0  0
  -30.3810  -17.3690   21.1850 C   0  0  0  0  0  0  0  0  0  0  0  0
  -29.5220  -17.3470   22.1950 N   0  0  0  0  0  0  0  0  0  0  0  0
  -31.5170  -17.7580   21.3510 O   0  0  0  0  0  0  0  0  0  0  0  0
  -28.5610  -17.0610   22.1030 H   0  0  0  0  0  0  0  0  0  0  0  0
  -29.7630  -17.6260   23.1380 H   0  0  0  0  0  0  0  0  0  0  0  0
  -30.7390  -22.8950   17.8660 C   0  0  0  0  0  3  0  0  0  0  0  0
  -29.6610  -24.2050   17.3730 C   0  0  0  0  0  3  0  0  0  0  0  0
  -29.5350  -25.7570   17.8120 O   0  0  0  0  0  0  0  0  0  0  0  0
  -25.0980  -29.6800   22.4130 C   0  0  0  0  0  0  0  0  0  0  0  0
  -28.3140  -26.5460   18.0580 C   0  0  0  0  0  0  0  0  0  0  0  0
  -24.0710  -28.5920   20.4570 C   0  0  0  0  0  3  0  0  0  0  0  0
  -25.6890  -27.7880   18.6090 C   0  0  0  0  0  0  0  0  0  0  0  0
  -26.5320  -29.3690   20.3420 C   0  0  0  0  0  2  0  0  0  0  0  0
  -26.8170  -28.2520   19.2990 C   0  0  0  0  0  0  0  0  0  0  0  0
  -28.1180  -27.6490   19.0150 C   0  0  0  0  0  3  0  0  0  0  0  0
  -27.1300  -26.2080   17.3750 C   0  0  0  0  0  3  0  0  0  0  0  0
  -25.8640  -26.7860   17.6390 C   0  0  0  0  0  3  0  0  0  0  0  0
  -24.3230  -28.3880   18.9360 C   0  0  0  0  0  2  0  0  0  0  0  0
  -25.2510  -29.2270   21.1280 N   0  0  0  0  0  0  0  0  0  0  0  0
  -24.0190  -29.5790   23.0150 O   0  0  0  0  0  0  0  0  0  0  0  0
  -23.6610  -27.2380   21.0990 C   0  0  0  0  0  0  0  0  0  0  0  0
  -22.3900  -26.8360   20.9430 N   0  0  0  0  0  0  0  0  0  0  0  0
  -24.4970  -26.5660   21.7000 O   0  0  0  0  0  0  0  0  0  0  0  0
  -21.7510  -27.4560   20.4550 H   0  0  0  0  0  0  0  0  0  0  0  0
  -19.3670  -24.8480   21.1080 C   0  0  0  0  0  0  0  0  0  0  0  0
  -21.8310  -25.5730   21.4200 C   0  0  0  0  0  3  0  0  0  0  0  0
  -22.1810  -24.4110   20.4600 C   0  0  0  0  0  2  0  0  0  0  0  0
  -21.1010  -24.1510   19.3990 C   0  0  0  0  0  2  0  0  0  0  0  0
  -19.7630  -23.8120   20.0650 C   0  0  0  0  0  2  0  0  0  0  0  0
  -20.3330  -25.6830   21.7280 C   0  0  0  0  0  0  0  0  0  0  0  0
  -19.8970  -26.6430   22.6670 C   0  0  0  0  0  3  0  0  0  0  0  0
  -18.5330  -26.7870   22.9790 C   0  0  0  0  0  3  0  0  0  0  0  0
  -17.5850  -25.9490   22.3700 C   0  0  0  0  0  3  0  0  0  0  0  0
  -18.0000  -24.9790   21.4370 C   0  0  0  0  0  3  0  0  0  0  0  0
  -26.2690  -30.3620   23.1850 C   0  0  0  0  0  3  0  0  0  0  0  0
  -25.7180  -31.5240   23.9000 N   0  0  0  0  0  0  0  0  0  0  0  0
  -25.8470  -32.7990   23.5070 C   0  0  0  0  0  0  0  0  0  0  0  0
  -26.4950  -33.1230   22.5110 O   0  0  0  0  0  0  0  0  0  0  0  0
  -25.1230  -31.3220   24.6910 H   0  0  0  0  0  0  0  0  0  0  0  0
  -23.8240  -34.2990   23.6630 C   0  0  0  0  0  1  0  0  0  0  0  0
  -25.1390  -33.8880   24.3440 C   0  0  0  0  0  3  0  0  0  0  0  0
  -27.1040  -34.8490   25.4700 C   0  0  0  0  0  1  0  0  0  0  0  0
  -25.9730  -35.0880   24.5730 N   0  0  0  0  0  0  0  0  0  0  0  0
  -25.4190  -35.8460   24.9620 H   0  0  0  0  0  0  0  0  0  0  0  0
  -26.9950  -29.3900   24.1980 C   0  0  1  0  0  0  0  0  0  0  0  0
  -26.0250  -28.6740   25.1700 C   0  0  0  0  0  1  0  0  0  0  0  0
  -27.7900  -28.2980   23.4460 C   0  0  0  0  0  1  0  0  0  0  0  0
  -28.0260  -30.1890   25.0300 C   0  0  0  0  0  1  0  0  0  0  0  0
  1  7  1  0
  2  7  1  0
  3  4  1  0
  3  2  1  0
  5  4  1  0
  5 20  1  0
  5  6  1  0
  7  6  1  0
  8  1  2  0
  9 13  1  0
 10  9  1  0
 15 12  1  6
 12 16  1  0
 13 45  1  0
 14 50  1  0
 14 11  1  0
 14 15  1  0
 15 11  1  0
 15 10  1  0
 16  1  1  0
 16 13  1  0
 17 18  2  0
 18 37  1  0
 19 22  1  0
 19 18  1  0
 20 21  1  0
 20 17  1  0
 21 19  2  0
 22 23  1  0
 23 24  2  0
 25 28  1  0
 25 24  1  0
 26 25  2  0
 27 26  1  0
 27 22  2  0
 28 29  1  0
 29 30  1  0
 30 31  2  0
 32 31  1  0
 32 36  1  0
 33 32  2  0
 34 29  2  0
 34 33  1  0
 35 34  1  0
 37 38  1  0
 38 40  1  0
 38 41  1  0
 39 37  2  0
 42 17  1  0
 42 43  1  0
 44 42  1  0
 45 47  2  0
 45 46  1  0
 46 49  1  0
 48 46  1  0
 51 52  1  0
 51 50  2  0
 52 54  1  0
 53 64  2  0
 54 59  1  0
 55 65  1  0
 55 63  1  0
 56 62  1  0
 56 58  1  0
 57 63  1  0
 58 57  1  0
 59 58  2  0
 60 61  1  0
 60 54  2  0
 61 56  2  0
 62 55  1  0
 63 53  1  0
 65 67  2  0
 66 65  1  0
 68 66  1  0
 69 78  2  0
 69 74  1  0
 70 66  1  0
 70 74  1  0
 71 70  1  0
 72 73  1  0
 72 71  1  0
 73 69  1  0
 74 75  2  0
 75 76  1  0
 77 76  2  0
 78 77  1  0
 79 53  1  0
 79 80  1  0
 79 89  1  0
 80 83  1  0
 81 80  1  0
 81 85  1  0
 82 81  2  0
 85 84  1  0
 85 87  1  0
 87 88  1  0
 87 86  1  0
 89 92  1  1
 89 90  1  0
 91 89  1  0
M  ISO  4   1 100  16 100  51 101  52 101
M  END
>  <TORSDO>  (8) 
F 18

>  <SCORE>  (8) 
-8.650

>  <name>  (8) 
7

>  <ligand_id>  (8) 
7

>  <original_smiles>  (8) 
[H]c1c([H])c([H])c2c(c1[H])C([H])([H])C([H])([H])C([H])([H])C2([H])N([H])C(=O)C1([H])N(C(=O)C([H])(N([H])C(=O)C([H])(N([H])C([H])([H])[H])C([H])([H])[H])C(C([H])([H])[H])(C([H])([H])[H])C([H])([H])[H])C([H])([H])c2c([H])c(OC([H])([H])C([H])([H])C3([H])C([H])([H])C34C([H])([H])N(C(=O)N3C([H])([H])C([H])([H])C([H])([H])C([H])(n5nc(-c6c([H])c([H])c(Oc7c([H])c([H])c(F)c([H])c7F)c([H])c6[H])c(C(=O)N([H])[H])c5N([H])[H])C3([H])[H])C([H])(C(=O)N([H])[H])C([H])([H])C4([H])[H])c([H])c([H])c2C1([H])[H]

>  <smiles>  (8) 
[H]c1c([H])c([H])c2c(c1[H])C([H])([H])C([H])([H])C([H])([H])C2([H])N([H])C(=O)C1([H])N(C(=O)C([H])(N([H])C(=O)C([H])(N([H])C([H])([H])[H])C([H])([H])[H])C(C([H])([H])[H])(C([H])([H])[H])C([H])([H])[H])C([H])([H])c2c([H])c(OC([H])([H])C([H])([H])C3([H])C([H])([H])C34C([H])([H])N(C(=O)N3C([H])([H])C([H])([H])C([H])([H])C([H])(n5nc(-c6c([H])c([H])c(Oc7c([H])c([H])c(F)c([H])c7F)c([H])c6[H])c(C(=O)N([H])[H])c5N([H])[H])C3([H])[H])C([H])(C(=O)N([H])[H])C([H])([H])C4([H])[H])c([H])c([H])c2C1([H])[H]

$$$$
8:0:0
     RDKit          3D

 92101  0  0  1  0  0  0  0  0999 V2000
  -29.1250  -21.9100   21.4910 C   0  0  0  0  0  2  0  0  0  0  0  0
  -28.5050  -23.2800   21.2030 C   0  0  0  0  0  3  0  0  0  0  0  0
  -28.6410  -21.3510   20.1530 C   0  0  0  0  0  3  0  0  0  0  0  0
  -28.6560  -23.0850   19.6720 C   0  0  0  0  0  3  0  0  0  0  0  0
  -29.8930  -26.6810   23.5220 C   0  0  0  0  0  3  0  0  0  0  0  0
  -30.3110  -26.5400   22.1830 C   0  0  0  0  0  3  0  0  0  0  0  0
  -29.0400  -25.7200   24.0960 C   0  0  0  0  0  3  0  0  0  0  0  0
  -29.8730  -25.4400   21.4160 C   0  0  0  0  0  3  0  0  0  0  0  0
  -28.6050  -24.6220   23.3320 C   0  0  0  0  0  3  0  0  0  0  0  0
  -29.0160  -24.4760   21.9890 C   0  0  0  0  0  0  0  0  0  0  0  0
  -29.3860  -19.7780   19.7950 C   0  0  0  0  0  2  0  0  0  0  0  0
  -29.8370  -18.4440   20.8870 C   0  0  0  0  0  2  0  0  0  0  0  0
  -30.6240  -15.6160   21.0140 C   0  0  0  0  0  0  0  0  0  0  0  0
  -30.8510  -13.0910   20.4990 C   0  0  0  0  0  2  0  0  0  0  0  0
  -30.1320  -12.6610   19.1970 C   0  0  0  0  0  2  0  0  0  0  0  0
  -28.6440  -12.3690   19.4640 C   0  0  0  0  0  2  0  0  0  0  0  0
  -27.9870  -13.4510   20.3580 C   0  0  0  0  0  3  0  0  0  0  0  0
  -28.8480  -13.8090   21.5860 C   0  0  0  0  0  2  0  0  0  0  0  0
  -30.1350  -14.2880   21.0610 N   0  0  0  0  0  0  0  0  0  0  0  0
  -31.8590  -15.6950   21.0180 O   0  0  0  0  0  0  0  0  0  0  0  0
  -29.7740  -16.7930   20.7750 N   0  0  0  0  0  0  0  0  0  0  0  0
  -28.8190  -16.4880   20.6560 H   0  0  0  0  0  0  0  0  0  0  0  0
  -25.5300  -13.9810   20.8030 C   0  0  0  0  0  0  0  0  0  0  0  0
  -24.4480  -13.1930   21.0700 C   0  0  0  0  0  0  0  0  0  0  0  0
  -24.9410  -11.8530   21.1410 C   0  0  0  0  0  0  0  0  0  0  0  0
  -26.6130  -13.1240   20.7160 N   0  0  0  0  0  0  0  0  0  0  0  0
  -26.2620  -11.8390   20.9880 N   0  0  0  0  0  0  0  0  0  0  0  0
  -24.2220  -10.5810   21.2840 C   0  0  0  0  0  0  0  0  0  0  0  0
  -24.5740   -9.6390   22.2740 C   0  0  0  0  0  3  0  0  0  0  0  0
  -23.8530   -8.4330   22.4040 C   0  0  0  0  0  3  0  0  0  0  0  0
  -22.7640   -8.1600   21.5420 C   0  0  0  0  0  0  0  0  0  0  0  0
  -22.4310   -9.0920   20.5420 C   0  0  0  0  0  3  0  0  0  0  0  0
  -23.1540  -10.2890   20.4110 C   0  0  0  0  0  3  0  0  0  0  0  0
  -22.0220   -7.0040   21.5790 O   0  0  0  0  0  0  0  0  0  0  0  0
  -21.8800   -6.2760   22.7320 C   0  0  0  0  0  0  0  0  0  0  0  0
  -21.3220   -6.8350   23.9020 C   0  0  0  0  0  3  0  0  0  0  0  0
  -21.1300   -6.0310   25.0440 C   0  0  0  0  0  3  0  0  0  0  0  0
  -21.4870   -4.6700   25.0160 C   0  0  0  0  0  0  0  0  0  0  0  0
  -22.0390   -4.1110   23.8500 C   0  0  0  0  0  3  0  0  0  0  0  0
  -22.2320   -4.9120   22.7110 C   0  0  0  0  0  0  0  0  0  0  0  0
  -22.7440   -4.3630   21.5830 F   0  0  0  0  0  0  0  0  0  0  0  0
  -21.2950   -3.8950   26.1090 F   0  0  0  0  0  0  0  0  0  0  0  0
  -23.0190  -13.6450   21.1480 C   0  0  0  0  0  0  0  0  0  0  0  0
  -22.2100  -12.9850   21.9680 N   0  0  0  0  0  0  0  0  0  0  0  0
  -22.6250  -14.6250   20.5160 O   0  0  0  0  0  0  0  0  0  0  0  0
  -22.5390  -12.1960   22.5050 H   0  0  0  0  0  0  0  0  0  0  0  0
  -21.2480  -13.2750   22.0610 H   0  0  0  0  0  0  0  0  0  0  0  0
  -25.6800  -15.3490   20.5980 N   0  0  0  0  0  0  0  0  0  0  0  0
  -24.8810  -15.9740   20.5850 H   0  0  0  0  0  0  0  0  0  0  0  0
  -26.5370  -15.7990   20.3040 H   0  0  0  0  0  0  0  0  0  0  0  0
  -27.6320  -24.2800   18.8490 C   0  0  0  0  0  2  0  0  0  0  0  0
  -27.7850  -25.8800   18.5860 O   0  0  0  0  0  0  0  0  0  0  0  0
  -24.4430  -31.3800   22.4400 C   0  0  0  0  0  0  0  0  0  0  0  0
  -26.7340  -26.9090   18.7300 C   0  0  0  0  0  0  0  0  0  0  0  0
  -23.0890  -30.0830   20.8410 C   0  0  0  0  0  3  0  0  0  0  0  0
  -24.3920  -28.6640   19.1210 C   0  0  0  0  0  0  0  0  0  0  0  0
  -25.6060  -30.4160   20.4000 C   0  0  0  0  0  2  0  0  0  0  0  0
  -25.6330  -29.0720   19.6240 C   0  0  0  0  0  0  0  0  0  0  0  0
  -26.7980  -28.2170   19.4060 C   0  0  0  0  0  3  0  0  0  0  0  0
  -25.4540  -26.6390   18.1970 C   0  0  0  0  0  3  0  0  0  0  0  0
  -24.3220  -27.4700   18.3850 C   0  0  0  0  0  3  0  0  0  0  0  0
  -23.1630  -29.5260   19.3930 C   0  0  0  0  0  2  0  0  0  0  0  0
  -24.4060  -30.6480   21.2800 N   0  0  0  0  0  0  0  0  0  0  0  0
  -23.4220  -31.5820   23.1150 O   0  0  0  0  0  0  0  0  0  0  0  0
  -22.5510  -28.9820   21.7920 C   0  0  0  0  0  0  0  0  0  0  0  0
  -21.2170  -28.8040   21.8410 N   0  0  0  0  0  0  0  0  0  0  0  0
  -23.3340  -28.2950   22.4510 O   0  0  0  0  0  0  0  0  0  0  0  0
  -20.6370  -29.4150   21.2850 H   0  0  0  0  0  0  0  0  0  0  0  0
  -17.9540  -27.4430   22.6500 C   0  0  0  0  0  0  0  0  0  0  0  0
  -20.5190  -27.7800   22.6260 C   0  0  0  0  0  3  0  0  0  0  0  0
  -20.5870  -26.4000   21.9290 C   0  0  0  0  0  2  0  0  0  0  0  0
  -19.3770  -26.1170   21.0310 C   0  0  0  0  0  2  0  0  0  0  0  0
  -18.0830  -26.1590   21.8460 C   0  0  0  0  0  2  0  0  0  0  0  0
  -19.0960  -28.2120   23.0020 C   0  0  0  0  0  0  0  0  0  0  0  0
  -18.9150  -29.4110   23.7250 C   0  0  0  0  0  3  0  0  0  0  0  0
  -17.6270  -29.8430   24.0930 C   0  0  0  0  0  3  0  0  0  0  0  0
  -16.5020  -29.0720   23.7530 C   0  0  0  0  0  3  0  0  0  0  0  0
  -16.6670  -27.8720   23.0380 C   0  0  0  0  0  3  0  0  0  0  0  0
  -25.7670  -32.0140   22.9650 C   0  0  0  0  0  3  0  0  0  0  0  0
  -26.5770  -31.0520   23.9200 C   0  0  1  0  0  0  0  0  0  0  0  0
  -25.7360  -30.4720   25.0820 C   0  0  0  0  0  1  0  0  0  0  0  0
  -27.1680  -29.8610   23.1330 C   0  0  0  0  0  1  0  0  0  0  0  0
  -27.7800  -31.8100   24.5290 C   0  0  0  0  0  1  0  0  0  0  0  0
  -25.4240  -33.2610   23.6700 N   0  0  0  0  0  0  0  0  0  0  0  0
  -25.8050  -34.4870   23.2870 C   0  0  0  0  0  0  0  0  0  0  0  0
  -26.5420  -34.6820   22.3170 O   0  0  0  0  0  0  0  0  0  0  0  0
  -24.7750  -33.1800   24.4380 H   0  0  0  0  0  0  0  0  0  0  0  0
  -24.1580  -36.3920   23.3380 C   0  0  0  0  0  1  0  0  0  0  0  0
  -25.2880  -35.6870   24.1070 C   0  0  0  0  0  3  0  0  0  0  0  0
  -27.3230  -36.1560   25.3990 C   0  0  0  0  0  1  0  0  0  0  0  0
  -26.3420  -36.6690   24.4460 N   0  0  0  0  0  0  0  0  0  0  0  0
  -25.9330  -37.5140   24.8360 H   0  0  0  0  0  0  0  0  0  0  0  0
  2  1  1  0
  2 10  1  0
  3 11  1  0
  3  1  1  0
  4 51  1  0
  4  3  1  0
  4  2  1  0
  5  7  1  0
  6  5  2  0
  8 10  2  0
  8  6  1  0
  9  7  2  0
 10  9  1  0
 11 12  1  0
 13 20  2  0
 13 19  1  0
 14 19  1  0
 15 16  1  0
 15 14  1  0
 17 16  1  0
 17 26  1  0
 17 18  1  0
 19 18  1  0
 21 12  1  0
 21 13  1  0
 22 21  1  0
 23 24  2  0
 24 25  1  0
 24 43  1  0
 25 28  1  0
 26 23  1  0
 26 27  1  0
 27 25  2  0
 28 29  1  0
 29 30  2  0
 31 34  1  0
 31 30  1  0
 32 31  2  0
 33 32  1  0
 33 28  2  0
 34 35  1  0
 35 36  1  0
 36 37  2  0
 38 37  1  0
 38 42  1  0
 39 38  2  0
 40 35  2  0
 40 39  1  0
 41 40  1  0
 43 44  1  0
 44 47  1  0
 44 46  1  0
 45 43  2  0
 48 23  1  0
 49 48  1  0
 50 48  1  0
 52 54  1  0
 52 51  1  0
 53 64  2  0
 54 59  1  0
 55 63  1  0
 55 65  1  0
 56 62  1  0
 56 58  1  0
 57 63  1  0
 58 57  1  0
 59 58  2  0
 60 61  1  0
 60 54  2  0
 61 56  2  0
 62 55  1  0
 63 53  1  0
 65 66  1  0
 65 67  2  0
 68 66  1  0
 69 74  2  0
 69 78  1  0
 70 66  1  0
 70 74  1  0
 71 70  1  0
 72 73  1  0
 72 71  1  0
 73 69  1  0
 74 75  1  0
 75 76  2  0
 77 76  1  0
 78 77  2  0
 79 53  1  0
 79 84  1  0
 79 80  1  0
 80 83  1  1
 80 81  1  0
 82 80  1  0
 84 87  1  0
 85 84  1  0
 85 89  1  0
 86 85  2  0
 89 88  1  0
 89 91  1  0
 91 92  1  0
 91 90  1  0
M  ISO  4  13 100  21 100  51 101  52 101
M  END
>  <TORSDO>  (9) 
F 20

>  <SCORE>  (9) 
-12.790

>  <name>  (9) 
8

>  <ligand_id>  (9) 
8

>  <original_smiles>  (9) 
[H]c1c([H])c([H])c(C2([H])C([H])([H])C([H])(C([H])([H])C([H])([H])N([H])C(=O)N3C([H])([H])C([H])([H])C([H])([H])C([H])(n4nc(-c5c([H])c([H])c(Oc6c([H])c([H])c(F)c([H])c6F)c([H])c5[H])c(C(=O)N([H])[H])c4N([H])[H])C3([H])[H])C2([H])C([H])([H])Oc2c([H])c([H])c3c(c2[H])C([H])([H])N(C(=O)C([H])(N([H])C(=O)C([H])(N([H])C([H])([H])[H])C([H])([H])[H])C(C([H])([H])[H])(C([H])([H])[H])C([H])([H])[H])C([H])(C(=O)N([H])C2([H])c4c([H])c([H])c([H])c([H])c4C([H])([H])C([H])([H])C2([H])[H])C3([H])[H])c([H])c1[H]

>  <smiles>  (9) 
[H]c1c([H])c([H])c(C2([H])C([H])([H])C([H])(C([H])([H])C([H])([H])N([H])C(=O)N3C([H])([H])C([H])([H])C([H])([H])C([H])(n4nc(-c5c([H])c([H])c(Oc6c([H])c([H])c(F)c([H])c6F)c([H])c5[H])c(C(=O)N([H])[H])c4N([H])[H])C3([H])[H])C2([H])C([H])([H])Oc2c([H])c([H])c3c(c2[H])C([H])([H])N(C(=O)C([H])(N([H])C(=O)C([H])(N([H])C([H])([H])[H])C([H])([H])[H])C(C([H])([H])[H])(C([H])([H])[H])C([H])([H])[H])C([H])(C(=O)N([H])C2([H])c4c([H])c([H])c([H])c([H])c4C([H])([H])C([H])([H])C2([H])[H])C3([H])[H])c([H])c1[H]

$$$$
9:0:0
     RDKit          3D

 91100  0  0  1  0  0  0  0  0999 V2000
  -29.8480  -17.9560   21.7310 C   0  0  0  0  0  0  0  0  0  0  0  0
  -28.6140  -18.8690   21.5420 C   0  0  0  0  0  2  0  0  0  0  0  0
  -30.4310  -18.2610   19.2370 C   0  0  0  0  0  2  0  0  0  0  0  0
  -28.5500  -21.4010   20.6910 C   0  0  0  0  0  2  0  0  0  0  0  0
  -30.4290  -21.0880   19.3220 C   0  0  0  0  0  2  0  0  0  0  0  0
  -30.5400  -17.3170   20.5100 C   0  0  0  0  0  3  0  0  0  0  0  0
  -28.5820  -19.8650   20.3400 C   0  0  0  0  0  3  0  0  0  0  0  0
  -29.6970  -19.6890   19.3010 C   0  0  0  0  0  3  0  0  0  0  0  0
  -29.3010  -22.1700   19.5650 C   0  0  0  0  0  3  0  0  0  0  0  0
  -30.2200  -17.7040   22.8800 O   0  0  0  0  0  0  0  0  0  0  0  0
  -30.9580  -14.7300   20.0490 C   0  0  0  0  0  0  0  0  0  0  0  0
  -30.7180  -12.4570   19.0350 C   0  0  0  0  0  2  0  0  0  0  0  0
  -29.7250  -12.5290   17.8530 C   0  0  0  0  0  2  0  0  0  0  0  0
  -28.2740  -12.3660   18.3480 C   0  0  0  0  0  2  0  0  0  0  0  0
  -27.9530  -13.2610   19.5760 C   0  0  0  0  0  3  0  0  0  0  0  0
  -29.0560  -13.1610   20.6520 C   0  0  0  0  0  2  0  0  0  0  0  0
  -30.3310  -13.5050   20.0050 N   0  0  0  0  0  0  0  0  0  0  0  0
  -32.1220  -14.8510   19.6560 O   0  0  0  0  0  0  0  0  0  0  0  0
  -30.1910  -15.8320   20.3700 N   0  0  0  0  0  0  0  0  0  0  0  0
  -29.2440  -15.6040   20.6280 H   0  0  0  0  0  0  0  0  0  0  0  0
  -25.6270  -13.8750   20.4680 C   0  0  0  0  0  0  0  0  0  0  0  0
  -24.5560  -13.1110   20.8460 C   0  0  0  0  0  0  0  0  0  0  0  0
  -24.9760  -11.7520   20.7150 C   0  0  0  0  0  0  0  0  0  0  0  0
  -26.6280  -12.9830   20.1220 N   0  0  0  0  0  0  0  0  0  0  0  0
  -26.2470  -11.6980   20.3330 N   0  0  0  0  0  0  0  0  0  0  0  0
  -24.2240  -10.5000   20.8740 C   0  0  0  0  0  0  0  0  0  0  0  0
  -24.6610   -9.4830   21.7500 C   0  0  0  0  0  3  0  0  0  0  0  0
  -23.9120   -8.2960   21.9010 C   0  0  0  0  0  3  0  0  0  0  0  0
  -22.7080   -8.1210   21.1770 C   0  0  0  0  0  0  0  0  0  0  0  0
  -22.2870   -9.1270   20.2910 C   0  0  0  0  0  3  0  0  0  0  0  0
  -23.0370  -10.3050   20.1380 C   0  0  0  0  0  3  0  0  0  0  0  0
  -21.9280   -6.9910   21.2400 O   0  0  0  0  0  0  0  0  0  0  0  0
  -21.8650   -6.2210   22.3720 C   0  0  0  0  0  0  0  0  0  0  0  0
  -21.4300   -6.7490   23.6080 C   0  0  0  0  0  3  0  0  0  0  0  0
  -21.3120   -5.9080   24.7320 C   0  0  0  0  0  3  0  0  0  0  0  0
  -21.6200   -4.5390   24.6220 C   0  0  0  0  0  0  0  0  0  0  0  0
  -22.0460   -4.0080   23.3910 C   0  0  0  0  0  3  0  0  0  0  0  0
  -22.1660   -4.8490   22.2700 C   0  0  0  0  0  0  0  0  0  0  0  0
  -22.5580   -4.3300   21.0820 F   0  0  0  0  0  0  0  0  0  0  0  0
  -21.4990   -3.7290   25.7000 F   0  0  0  0  0  0  0  0  0  0  0  0
  -23.1910  -13.6090   21.2170 C   0  0  0  0  0  0  0  0  0  0  0  0
  -22.4910  -12.8900   22.0880 N   0  0  0  0  0  0  0  0  0  0  0  0
  -22.7560  -14.6710   20.7710 O   0  0  0  0  0  0  0  0  0  0  0  0
  -22.8580  -12.0350   22.4760 H   0  0  0  0  0  0  0  0  0  0  0  0
  -21.5760  -13.2050   22.3770 H   0  0  0  0  0  0  0  0  0  0  0  0
  -25.8250  -15.2500   20.3670 N   0  0  0  0  0  0  0  0  0  0  0  0
  -25.0850  -15.9130   20.5610 H   0  0  0  0  0  0  0  0  0  0  0  0
  -26.6580  -15.6830   19.9900 H   0  0  0  0  0  0  0  0  0  0  0  0
  -29.6750  -23.7370   19.7990 C   0  0  0  0  0  3  0  0  0  0  0  0
  -28.5710  -24.8950   19.5560 C   0  0  0  0  0  3  0  0  0  0  0  0
  -28.8100  -26.3600   19.8200 O   0  0  0  0  0  0  0  0  0  0  0  0
  -24.9640  -31.5270   23.1780 C   0  0  0  0  0  0  0  0  0  0  0  0
  -27.7020  -27.2440   19.8040 C   0  0  0  0  0  0  0  0  0  0  0  0
  -23.8180  -30.2630   21.3950 C   0  0  0  0  0  3  0  0  0  0  0  0
  -25.3230  -28.8580   19.8740 C   0  0  0  0  0  0  0  0  0  0  0  0
  -26.3610  -30.6150   21.3040 C   0  0  0  0  0  2  0  0  0  0  0  0
  -26.4760  -29.2980   20.5380 C   0  0  0  0  0  0  0  0  0  0  0  0
  -27.6680  -28.5040   20.4910 C   0  0  0  0  0  3  0  0  0  0  0  0
  -26.5220  -26.8770   19.1150 C   0  0  0  0  0  3  0  0  0  0  0  0
  -25.3520  -27.6570   19.1540 C   0  0  0  0  0  3  0  0  0  0  0  0
  -24.0750  -29.7140   19.9670 C   0  0  0  0  0  2  0  0  0  0  0  0
  -25.0660  -30.8160   22.0160 N   0  0  0  0  0  0  0  0  0  0  0  0
  -23.8640  -31.7440   23.7080 O   0  0  0  0  0  0  0  0  0  0  0  0
  -23.1470  -29.1590   22.2470 C   0  0  0  0  0  0  0  0  0  0  0  0
  -21.8180  -29.0080   22.1070 N   0  0  0  0  0  0  0  0  0  0  0  0
  -23.8220  -28.4450   22.9930 O   0  0  0  0  0  0  0  0  0  0  0  0
  -21.3320  -29.6370   21.4850 H   0  0  0  0  0  0  0  0  0  0  0  0
  -18.4250  -27.8300   22.5410 C   0  0  0  0  0  0  0  0  0  0  0  0
  -20.9930  -28.0020   22.7820 C   0  0  0  0  0  3  0  0  0  0  0  0
  -21.0500  -26.6470   22.0400 C   0  0  0  0  0  2  0  0  0  0  0  0
  -19.9210  -26.4700   21.0190 C   0  0  0  0  0  2  0  0  0  0  0  0
  -18.5560  -26.5670   21.7080 C   0  0  0  0  0  2  0  0  0  0  0  0
  -19.5690  -28.5140   23.0340 C   0  0  0  0  0  0  0  0  0  0  0  0
  -19.3920  -29.7000   23.7760 C   0  0  0  0  0  3  0  0  0  0  0  0
  -18.1030  -30.2040   24.0310 C   0  0  0  0  0  3  0  0  0  0  0  0
  -16.9730  -29.5150   23.5560 C   0  0  0  0  0  3  0  0  0  0  0  0
  -17.1340  -28.3300   22.8170 C   0  0  0  0  0  3  0  0  0  0  0  0
  -26.2220  -32.1210   23.8840 C   0  0  0  0  0  3  0  0  0  0  0  0
  -25.8960  -33.4950   24.2940 N   0  0  0  0  0  0  0  0  0  0  0  0
  -26.2260  -34.5960   23.6060 C   0  0  0  0  0  0  0  0  0  0  0  0
  -26.9030  -34.5610   22.5740 O   0  0  0  0  0  0  0  0  0  0  0  0
  -25.2960  -33.5960   25.1000 H   0  0  0  0  0  0  0  0  0  0  0  0
  -24.4740  -36.3850   23.3580 C   0  0  0  0  0  1  0  0  0  0  0  0
  -25.7220  -35.9490   24.1420 C   0  0  0  0  0  3  0  0  0  0  0  0
  -27.8440  -36.8140   25.0250 C   0  0  0  0  0  1  0  0  0  0  0  0
  -26.7410  -37.0190   24.0890 N   0  0  0  0  0  0  0  0  0  0  0  0
  -26.3240  -37.9250   24.2880 H   0  0  0  0  0  0  0  0  0  0  0  0
  -26.6980  -31.2710   25.1250 C   0  0  1  0  0  0  0  0  0  0  0  0
  -25.5720  -30.9750   26.1430 C   0  0  0  0  0  1  0  0  0  0  0  0
  -27.2900  -29.9160   24.6710 C   0  0  0  0  0  1  0  0  0  0  0  0
  -27.8280  -32.0200   25.8700 C   0  0  0  0  0  1  0  0  0  0  0  0
  1 10  2  0
  2  1  1  0
  3  6  1  0
  5  9  1  0
  6 19  1  0
  6  1  1  0
  7  4  1  0
  7  2  1  0
  8  3  1  0
  8  5  1  0
  8  7  1  0
  9 49  1  0
  9  4  1  0
 11 19  1  0
 12 17  1  0
 13 14  1  0
 13 12  1  0
 15 14  1  0
 15 24  1  0
 15 16  1  0
 17 11  1  0
 17 16  1  0
 18 11  2  0
 19 20  1  0
 21 22  2  0
 22 41  1  0
 23 22  1  0
 23 26  1  0
 24 25  1  0
 24 21  1  0
 25 23  2  0
 26 27  1  0
 27 28  2  0
 29 32  1  0
 29 28  1  0
 30 29  2  0
 31 30  1  0
 31 26  2  0
 32 33  1  0
 33 34  1  0
 34 35  2  0
 36 35  1  0
 36 40  1  0
 37 36  2  0
 38 33  2  0
 38 37  1  0
 39 38  1  0
 41 42  1  0
 42 45  1  0
 42 44  1  0
 43 41  2  0
 46 21  1  0
 46 47  1  0
 48 46  1  0
 50 49  2  0
 50 51  1  0
 52 63  2  0
 53 51  1  0
 53 58  1  0
 54 62  1  0
 54 64  1  0
 55 61  1  0
 55 57  1  0
 56 62  1  0
 57 56  1  0
 58 57  2  0
 59 60  1  0
 59 53  2  0
 60 55  2  0
 61 54  1  0
 62 52  1  0
 64 66  2  0
 65 64  1  0
 67 65  1  0
 68 77  2  0
 68 73  1  0
 69 65  1  0
 69 73  1  0
 70 69  1  0
 71 72  1  0
 71 70  1  0
 72 68  1  0
 73 74  2  0
 74 75  1  0
 76 75  2  0
 77 76  1  0
 78 52  1  0
 78 79  1  0
 78 88  1  0
 79 82  1  0
 80 84  1  0
 80 79  1  0
 81 80  2  0
 84 83  1  0
 86 84  1  0
 86 87  1  0
 86 85  1  0
 88 91  1  1
 88 89  1  0
 90 88  1  0
M  ISO  4  11 100  19 100  50 101  51 101
M  END
>  <TORSDO>  (10) 
F 18

>  <SCORE>  (10) 
-11.571

>  <name>  (10) 
9

>  <ligand_id>  (10) 
9

>  <original_smiles>  (10) 
[H]c1c([H])c([H])c2c(c1[H])C([H])([H])C([H])([H])C([H])([H])C2([H])N([H])C(=O)C1([H])N(C(=O)C([H])(N([H])C(=O)C([H])(N([H])C([H])([H])[H])C([H])([H])[H])C(C([H])([H])[H])(C([H])([H])[H])C([H])([H])[H])C([H])([H])c2c([H])c(OC([H])([H])C([H])([H])C3([H])C([H])([H])C4([H])C([H])([H])C(=O)C([H])(N([H])C(=O)N5C([H])([H])C([H])([H])C([H])([H])C([H])(n6nc(-c7c([H])c([H])c(Oc8c([H])c([H])c(F)c([H])c8F)c([H])c7[H])c(C(=O)N([H])[H])c6N([H])[H])C5([H])[H])C([H])([H])C4([H])C3([H])[H])c([H])c([H])c2C1([H])[H]

>  <smiles>  (10) 
[H]c1c([H])c([H])c2c(c1[H])C([H])([H])C([H])([H])C([H])([H])C2([H])N([H])C(=O)C1([H])N(C(=O)C([H])(N([H])C(=O)C([H])(N([H])C([H])([H])[H])C([H])([H])[H])C(C([H])([H])[H])(C([H])([H])[H])C([H])([H])[H])C([H])([H])c2c([H])c(OC([H])([H])C([H])([H])C3([H])C([H])([H])C4([H])C([H])([H])C(=O)C([H])(N([H])C(=O)N5C([H])([H])C([H])([H])C([H])([H])C([H])(n6nc(-c7c([H])c([H])c(Oc8c([H])c([H])c(F)c([H])c8F)c([H])c7[H])c(C(=O)N([H])[H])c6N([H])[H])C5([H])[H])C([H])([H])C4([H])C3([H])[H])c([H])c([H])c2C1([H])[H]

$$$$
10:0:0
     RDKit          3D

 93101  0  0  1  0  0  0  0  0999 V2000
  -32.2600  -23.0320   20.1060 C   0  0  0  0  0  2  0  0  0  0  0  0
  -31.2490  -20.7930   20.0760 C   0  0  0  0  0  2  0  0  0  0  0  0
  -30.9020  -23.6020   20.5800 C   0  0  0  0  0  2  0  0  0  0  0  0
  -32.4920  -21.5650   20.5000 C   0  0  0  0  0  3  0  0  0  0  0  0
  -29.9030  -21.2850   20.6550 C   0  0  0  0  0  3  0  0  0  0  0  0
  -29.6930  -22.7840   20.2270 N   0  0  1  0  0  4  0  0  0  0  0  0
  -29.7040  -22.7550   19.2180 H   0  0  0  0  0  0  0  0  0  0  0  0
  -33.7810  -19.4670   19.5450 C   0  0  0  0  0  1  0  0  0  0  0  0
  -33.7920  -20.9820   19.8630 C   0  0  0  0  0  2  0  0  0  0  0  0
  -28.9460  -20.0550   20.2110 C   0  0  0  0  0  2  0  0  0  0  0  0
  -29.1540  -18.5290   20.8010 C   0  0  0  0  0  2  0  0  0  0  0  0
  -30.0100  -17.3430   20.0870 C   0  0  0  0  0  2  0  0  0  0  0  0
  -30.5330  -14.7530   20.2020 C   0  0  0  0  0  0  0  0  0  0  0  0
  -30.3190  -12.4790   19.1840 C   0  0  0  0  0  2  0  0  0  0  0  0
  -29.3510  -12.5600   17.9810 C   0  0  0  0  0  2  0  0  0  0  0  0
  -27.8880  -12.4050   18.4380 C   0  0  0  0  0  2  0  0  0  0  0  0
  -27.5490  -13.2740   19.6790 C   0  0  0  0  0  3  0  0  0  0  0  0
  -28.6370  -13.1620   20.7730 C   0  0  0  0  0  2  0  0  0  0  0  0
  -29.9190  -13.5220   20.1580 N   0  0  0  0  0  0  0  0  0  0  0  0
  -31.7020  -14.8700   19.8190 O   0  0  0  0  0  0  0  0  0  0  0  0
  -29.7540  -15.8740   20.4510 N   0  0  0  0  0  0  0  0  0  0  0  0
  -28.8130  -15.6570   20.7460 H   0  0  0  0  0  0  0  0  0  0  0  0
  -25.1770  -13.8610   20.4530 C   0  0  0  0  0  0  0  0  0  0  0  0
  -24.1200  -13.0840   20.8450 C   0  0  0  0  0  0  0  0  0  0  0  0
  -24.5860  -11.7330   20.8050 C   0  0  0  0  0  0  0  0  0  0  0  0
  -26.2170  -12.9830   20.1960 N   0  0  0  0  0  0  0  0  0  0  0  0
  -25.8720  -11.6980   20.4750 N   0  0  0  0  0  0  0  0  0  0  0  0
  -23.8670  -10.4680   21.0050 C   0  0  0  0  0  0  0  0  0  0  0  0
  -24.3270   -9.4990   21.9240 C   0  0  0  0  0  3  0  0  0  0  0  0
  -23.6140   -8.2960   22.1170 C   0  0  0  0  0  3  0  0  0  0  0  0
  -22.4210   -8.0550   21.3950 C   0  0  0  0  0  0  0  0  0  0  0  0
  -21.9760   -9.0150   20.4650 C   0  0  0  0  0  3  0  0  0  0  0  0
  -22.6930  -10.2070   20.2700 C   0  0  0  0  0  3  0  0  0  0  0  0
  -21.6680   -6.9120   21.5060 O   0  0  0  0  0  0  0  0  0  0  0  0
  -21.6630   -6.1580   22.6520 C   0  0  0  0  0  0  0  0  0  0  0  0
  -21.2890   -6.6990   23.9020 C   0  0  0  0  0  3  0  0  0  0  0  0
  -21.2350   -5.8700   25.0400 C   0  0  0  0  0  3  0  0  0  0  0  0
  -21.5360   -4.5000   24.9300 C   0  0  0  0  0  0  0  0  0  0  0  0
  -21.9000   -3.9570   23.6850 C   0  0  0  0  0  3  0  0  0  0  0  0
  -21.9600   -4.7830   22.5480 C   0  0  0  0  0  0  0  0  0  0  0  0
  -22.2890   -4.2470   21.3480 F   0  0  0  0  0  0  0  0  0  0  0  0
  -21.4730   -3.7010   26.0210 F   0  0  0  0  0  0  0  0  0  0  0  0
  -22.7260  -13.5530   21.1380 C   0  0  0  0  0  0  0  0  0  0  0  0
  -22.0130  -12.8520   22.0140 N   0  0  0  0  0  0  0  0  0  0  0  0
  -22.2740  -14.5740   20.6240 O   0  0  0  0  0  0  0  0  0  0  0  0
  -22.3900  -12.0200   22.4460 H   0  0  0  0  0  0  0  0  0  0  0  0
  -21.0780  -13.1470   22.2510 H   0  0  0  0  0  0  0  0  0  0  0  0
  -25.3380  -15.2310   20.2650 N   0  0  0  0  0  0  0  0  0  0  0  0
  -24.5770  -15.8920   20.3790 H   0  0  0  0  0  0  0  0  0  0  0  0
  -26.1700  -15.6550   19.8750 H   0  0  0  0  0  0  0  0  0  0  0  0
  -28.4070  -23.5900   20.5560 C   0  0  0  0  0  2  0  0  0  0  0  0
  -28.4160  -25.1830   21.0100 C   0  0  0  0  0  2  0  0  0  0  0  0
  -28.3710  -26.4150   20.1460 O   0  0  0  0  0  0  0  0  0  0  0  0
  -24.6270  -31.8670   23.2370 C   0  0  0  0  0  0  0  0  0  0  0  0
  -27.2580  -27.2840   20.1890 C   0  0  0  0  0  0  0  0  0  0  0  0
  -23.4280  -30.4690   21.5890 C   0  0  0  0  0  3  0  0  0  0  0  0
  -24.8870  -28.9080   20.1710 C   0  0  0  0  0  0  0  0  0  0  0  0
  -25.9690  -30.7860   21.4090 C   0  0  0  0  0  2  0  0  0  0  0  0
  -26.0570  -29.4010   20.7660 C   0  0  0  0  0  0  0  0  0  0  0  0
  -27.2480  -28.6060   20.7550 C   0  0  0  0  0  3  0  0  0  0  0  0
  -26.0650  -26.8530   19.5710 C   0  0  0  0  0  3  0  0  0  0  0  0
  -24.8960  -27.6410   19.5640 C   0  0  0  0  0  3  0  0  0  0  0  0
  -23.6510  -29.7870   20.2120 C   0  0  0  0  0  2  0  0  0  0  0  0
  -24.6940  -31.0620   22.1350 N   0  0  0  0  0  0  0  0  0  0  0  0
  -23.5420  -32.1390   23.7750 O   0  0  0  0  0  0  0  0  0  0  0  0
  -22.7590  -29.4580   22.5510 C   0  0  0  0  0  0  0  0  0  0  0  0
  -21.4310  -29.2840   22.4310 N   0  0  0  0  0  0  0  0  0  0  0  0
  -23.4370  -28.8270   23.3680 O   0  0  0  0  0  0  0  0  0  0  0  0
  -20.9400  -29.8490   21.7530 H   0  0  0  0  0  0  0  0  0  0  0  0
  -18.0540  -28.0780   22.9320 C   0  0  0  0  0  0  0  0  0  0  0  0
  -20.6140  -28.3430   23.2000 C   0  0  0  0  0  3  0  0  0  0  0  0
  -20.7150  -26.9120   22.6230 C   0  0  0  0  0  2  0  0  0  0  0  0
  -19.6130  -26.5900   21.6080 C   0  0  0  0  0  2  0  0  0  0  0  0
  -18.2320  -26.7310   22.2520 C   0  0  0  0  0  2  0  0  0  0  0  0
  -19.1720  -28.8420   23.3630 C   0  0  0  0  0  0  0  0  0  0  0  0
  -18.9500  -30.1040   23.9570 C   0  0  0  0  0  3  0  0  0  0  0  0
  -17.6420  -30.6000   24.1240 C   0  0  0  0  0  3  0  0  0  0  0  0
  -16.5380  -29.8330   23.7080 C   0  0  0  0  0  3  0  0  0  0  0  0
  -16.7470  -28.5730   23.1180 C   0  0  0  0  0  3  0  0  0  0  0  0
  -25.9080  -32.5020   23.8630 C   0  0  0  0  0  3  0  0  0  0  0  0
  -25.5960  -33.8980   24.2010 N   0  0  0  0  0  0  0  0  0  0  0  0
  -25.9270  -34.9580   23.4490 C   0  0  0  0  0  0  0  0  0  0  0  0
  -26.5920  -34.8600   22.4160 O   0  0  0  0  0  0  0  0  0  0  0  0
  -25.0020  -34.0460   25.0040 H   0  0  0  0  0  0  0  0  0  0  0  0
  -24.1980  -36.7540   23.1110 C   0  0  0  0  0  1  0  0  0  0  0  0
  -25.4410  -36.3450   23.9160 C   0  0  0  0  0  3  0  0  0  0  0  0
  -27.5840  -37.2210   24.7390 C   0  0  0  0  0  1  0  0  0  0  0  0
  -26.4740  -37.3980   23.8040 N   0  0  0  0  0  0  0  0  0  0  0  0
  -26.0720  -38.3170   23.9570 H   0  0  0  0  0  0  0  0  0  0  0  0
  -26.4240  -31.7280   25.1370 C   0  0  1  0  0  0  0  0  0  0  0  0
  -25.3330  -31.4930   26.2080 C   0  0  0  0  0  1  0  0  0  0  0  0
  -27.0060  -30.3510   24.7460 C   0  0  0  0  0  1  0  0  0  0  0  0
  -27.5770  -32.5200   25.7960 C   0  0  0  0  0  1  0  0  0  0  0  0
  1  4  1  0
  1  3  1  0
  2  4  1  0
  2  5  1  0
  4  9  1  0
  5 10  1  0
  6 51  1  0
  6  3  1  0
  6  5  1  0
  6  7  1  6
  8  9  1  0
 10 11  1  0
 12 21  1  0
 12 11  1  0
 13 21  1  0
 14 19  1  0
 15 16  1  0
 15 14  1  0
 17 16  1  0
 17 26  1  0
 17 18  1  0
 19 13  1  0
 19 18  1  0
 20 13  2  0
 21 22  1  0
 23 24  2  0
 24 43  1  0
 25 24  1  0
 25 28  1  0
 26 23  1  0
 26 27  1  0
 27 25  2  0
 28 29  1  0
 29 30  2  0
 31 34  1  0
 31 30  1  0
 32 31  2  0
 33 32  1  0
 33 28  2  0
 34 35  1  0
 35 36  1  0
 36 37  2  0
 38 37  1  0
 38 42  1  0
 39 38  2  0
 40 35  2  0
 40 39  1  0
 41 40  1  0
 43 44  1  0
 44 47  1  0
 44 46  1  0
 45 43  2  0
 48 49  1  0
 48 23  1  0
 50 48  1  0
 51 52  1  0
 53 55  1  0
 53 52  1  0
 54 65  2  0
 55 60  1  0
 56 64  1  0
 56 66  1  0
 57 63  1  0
 57 59  1  0
 58 64  1  0
 59 58  1  0
 60 59  2  0
 61 55  2  0
 62 61  1  0
 62 57  2  0
 63 56  1  0
 64 54  1  0
 66 68  2  0
 67 66  1  0
 69 67  1  0
 70 79  2  0
 70 75  1  0
 71 67  1  0
 71 75  1  0
 72 71  1  0
 73 74  1  0
 73 72  1  0
 74 70  1  0
 75 76  2  0
 76 77  1  0
 78 77  2  0
 79 78  1  0
 80 54  1  0
 80 81  1  0
 80 90  1  0
 81 84  1  0
 82 86  1  0
 82 81  1  0
 83 82  2  0
 86 85  1  0
 88 86  1  0
 88 89  1  0
 88 87  1  0
 90 93  1  1
 90 91  1  0
 92 90  1  0
M  ISO  4  13 100  21 100  52 101  53 101
M  END
>  <TORSDO>  (11) 
F 22

>  <SCORE>  (11) 
-13.060

>  <name>  (11) 
10

>  <ligand_id>  (11) 
10

>  <original_smiles>  (11) 
[H]c1c([H])c([H])c2c(c1[H])C([H])([H])C([H])([H])C([H])([H])C2([H])N([H])C(=O)C1([H])N(C(=O)C([H])(N([H])C(=O)C([H])(N([H])C([H])([H])[H])C([H])([H])[H])C(C([H])([H])[H])(C([H])([H])[H])C([H])([H])[H])C([H])([H])c2c([H])c(OC([H])([H])C([H])([H])[N+]3([H])C([H])([H])C([H])([H])C([H])(C([H])([H])C([H])([H])[H])C([H])([H])C3([H])C([H])([H])C([H])([H])C([H])([H])N([H])C(=O)N3C([H])([H])C([H])([H])C([H])([H])C([H])(n4nc(-c5c([H])c([H])c(Oc6c([H])c([H])c(F)c([H])c6F)c([H])c5[H])c(C(=O)N([H])[H])c4N([H])[H])C3([H])[H])c([H])c([H])c2C1([H])[H]

>  <smiles>  (11) 
[H]c1c([H])c([H])c2c(c1[H])C([H])([H])C([H])([H])C([H])([H])C2([H])N([H])C(=O)C1([H])N(C(=O)C([H])(N([H])C(=O)C([H])(N([H])C([H])([H])[H])C([H])([H])[H])C(C([H])([H])[H])(C([H])([H])[H])C([H])([H])[H])C([H])([H])c2c([H])c(OC([H])([H])C([H])([H])[N+]3([H])C([H])([H])C([H])([H])C([H])(C([H])([H])C([H])([H])[H])C([H])([H])C3([H])C([H])([H])C([H])([H])C([H])([H])N([H])C(=O)N3C([H])([H])C([H])([H])C([H])([H])C([H])(n4nc(-c5c([H])c([H])c(Oc6c([H])c([H])c(F)c([H])c6F)c([H])c5[H])c(C(=O)N([H])[H])c4N([H])[H])C3([H])[H])c([H])c([H])c2C1([H])[H]

$$$$
11:0:0
     RDKit          3D

 95104  0  0  1  0  0  0  0  0999 V2000
  -26.9710  -21.9980   17.4420 C   0  0  0  0  0  2  0  0  0  0  0  0
  -28.4750  -22.2590   17.5170 C   0  0  0  0  0  2  0  0  0  0  0  0
  -27.2230  -20.9280   18.4960 C   0  0  0  0  0  2  0  0  0  0  0  0
  -28.4740  -21.7220   18.9820 C   0  0  1  0  0  0  0  0  0  0  0  0
  -29.7250  -20.8850   19.3040 C   0  0  0  0  0  0  0  0  0  0  0  0
  -30.8570  -21.2660   18.9930 O   0  0  0  0  0  0  0  0  0  0  0  0
  -28.1680  -17.8700   21.1200 C   0  0  0  0  0  3  0  0  0  0  0  0
  -28.3350  -19.1640   20.5960 C   0  0  0  0  0  3  0  0  0  0  0  0
  -29.2200  -16.9420   21.0570 C   0  0  0  0  0  3  0  0  0  0  0  0
  -30.6170  -18.6080   19.9510 C   0  0  0  0  0  3  0  0  0  0  0  0
  -29.5430  -19.5400   19.9580 C   0  0  0  0  0  0  0  0  0  0  0  0
  -30.4570  -17.3020   20.4760 C   0  0  0  0  0  0  0  0  0  0  0  0
  -31.5940  -16.2870   20.4170 C   0  0  0  0  0  2  0  0  0  0  0  0
  -31.5910  -13.8390   19.8450 C   0  0  0  0  0  0  0  0  0  0  0  0
  -31.2350  -11.4410   19.3670 C   0  0  0  0  0  2  0  0  0  0  0  0
  -30.2490  -11.2320   18.2030 C   0  0  0  0  0  2  0  0  0  0  0  0
  -28.7940  -11.2410   18.7070 C   0  0  0  0  0  2  0  0  0  0  0  0
  -28.4900  -12.4790   19.5890 C   0  0  0  0  0  3  0  0  0  0  0  0
  -29.5600  -12.6120   20.6930 C   0  0  0  0  0  2  0  0  0  0  0  0
  -30.8890  -12.6950   20.0510 N   0  0  0  0  0  0  0  0  0  0  0  0
  -32.6010  -13.8970   19.1330 O   0  0  0  0  0  0  0  0  0  0  0  0
  -31.1100  -14.9090   20.4890 N   0  0  0  0  0  0  0  0  0  0  0  0
  -30.2920  -14.7520   21.0590 H   0  0  0  0  0  0  0  0  0  0  0  0
  -26.2790  -13.4520   20.4900 C   0  0  0  0  0  0  0  0  0  0  0  0
  -25.1230  -12.8550   20.9140 C   0  0  0  0  0  0  0  0  0  0  0  0
  -25.3440  -11.4460   20.7980 C   0  0  0  0  0  0  0  0  0  0  0  0
  -27.1410  -12.4220   20.1520 N   0  0  0  0  0  0  0  0  0  0  0  0
  -26.5820  -11.2070   20.3890 N   0  0  0  0  0  0  0  0  0  0  0  0
  -24.4280  -10.3130   20.9890 C   0  0  0  0  0  0  0  0  0  0  0  0
  -24.7120   -9.2800   21.9100 C   0  0  0  0  0  3  0  0  0  0  0  0
  -23.8090   -8.2110   22.0890 C   0  0  0  0  0  3  0  0  0  0  0  0
  -22.6050   -8.1700   21.3450 C   0  0  0  0  0  0  0  0  0  0  0  0
  -22.3400   -9.1870   20.4110 C   0  0  0  0  0  3  0  0  0  0  0  0
  -23.2430  -10.2480   20.2310 C   0  0  0  0  0  3  0  0  0  0  0  0
  -21.6790   -7.1590   21.4340 O   0  0  0  0  0  0  0  0  0  0  0  0
  -21.4800   -6.4670   22.6010 C   0  0  0  0  0  0  0  0  0  0  0  0
  -21.0820   -7.1120   23.7930 C   0  0  0  0  0  3  0  0  0  0  0  0
  -20.8260   -6.3530   24.9510 C   0  0  0  0  0  3  0  0  0  0  0  0
  -20.9530   -4.9510   24.9200 C   0  0  0  0  0  0  0  0  0  0  0  0
  -21.3420   -4.3070   23.7310 C   0  0  0  0  0  3  0  0  0  0  0  0
  -21.6030   -5.0620   22.5750 C   0  0  0  0  0  0  0  0  0  0  0  0
  -21.9590   -4.4360   21.4270 F   0  0  0  0  0  0  0  0  0  0  0  0
  -20.6940   -4.2200   26.0280 F   0  0  0  0  0  0  0  0  0  0  0  0
  -23.8450  -13.5420   21.3120 C   0  0  0  0  0  0  0  0  0  0  0  0
  -23.0860  -12.9490   22.2250 N   0  0  0  0  0  0  0  0  0  0  0  0
  -23.5370  -14.6390   20.8460 O   0  0  0  0  0  0  0  0  0  0  0  0
  -23.3480  -12.0640   22.6320 H   0  0  0  0  0  0  0  0  0  0  0  0
  -22.2270  -13.3910   22.5260 H   0  0  0  0  0  0  0  0  0  0  0  0
  -26.6630  -14.7820   20.3400 N   0  0  0  0  0  0  0  0  0  0  0  0
  -26.0200  -15.5540   20.4750 H   0  0  0  0  0  0  0  0  0  0  0  0
  -27.5420  -15.0680   19.9300 H   0  0  0  0  0  0  0  0  0  0  0  0
  -28.2620  -22.7690   20.1170 C   0  0  0  0  0  2  0  0  0  0  0  0
  -28.7550  -24.1900   19.7520 C   0  0  0  0  0  2  0  0  0  0  0  0
  -28.4940  -25.2900   20.7850 C   0  0  0  0  0  2  0  0  0  0  0  0
  -28.6890  -26.5660   20.1580 O   0  0  0  0  0  0  0  0  0  0  0  0
  -24.6040  -31.5760   22.9890 C   0  0  0  0  0  0  0  0  0  0  0  0
  -27.5290  -27.2830   20.0160 C   0  0  0  0  0  0  0  0  0  0  0  0
  -23.5270  -30.1710   21.2590 C   0  0  0  0  0  3  0  0  0  0  0  0
  -25.1010  -28.7080   19.8880 C   0  0  0  0  0  0  0  0  0  0  0  0
  -26.0440  -30.6190   21.1990 C   0  0  0  0  0  2  0  0  0  0  0  0
  -26.2080  -29.2650   20.5430 C   0  0  0  0  0  0  0  0  0  0  0  0
  -27.4290  -28.5640   20.5920 C   0  0  0  0  0  3  0  0  0  0  0  0
  -26.4130  -26.7380   19.3430 C   0  0  0  0  0  3  0  0  0  0  0  0
  -25.2020  -27.4470   19.2750 C   0  0  0  0  0  3  0  0  0  0  0  0
  -23.8290  -29.5220   19.8800 C   0  0  0  0  0  2  0  0  0  0  0  0
  -24.7390  -30.8030   21.8750 N   0  0  0  0  0  0  0  0  0  0  0  0
  -23.4890  -31.8100   23.4730 O   0  0  0  0  0  0  0  0  0  0  0  0
  -22.8580  -29.1130   22.1690 C   0  0  0  0  0  0  0  0  0  0  0  0
  -21.5260  -28.9880   22.0540 N   0  0  0  0  0  0  0  0  0  0  0  0
  -23.5320  -28.4130   22.9300 O   0  0  0  0  0  0  0  0  0  0  0  0
  -21.0440  -29.6090   21.4190 H   0  0  0  0  0  0  0  0  0  0  0  0
  -18.1140  -27.9490   22.6090 C   0  0  0  0  0  0  0  0  0  0  0  0
  -20.6900  -28.0360   22.7810 C   0  0  0  0  0  3  0  0  0  0  0  0
  -20.6800  -26.6570   22.0820 C   0  0  0  0  0  2  0  0  0  0  0  0
  -19.5210  -26.4870   21.0960 C   0  0  0  0  0  2  0  0  0  0  0  0
  -18.1780  -26.6550   21.8140 C   0  0  0  0  0  2  0  0  0  0  0  0
  -19.2940  -28.6060   23.0500 C   0  0  0  0  0  0  0  0  0  0  0  0
  -19.1790  -29.8240   23.7530 C   0  0  0  0  0  3  0  0  0  0  0  0
  -17.9160  -30.3840   24.0220 C   0  0  0  0  0  3  0  0  0  0  0  0
  -16.7500  -29.7230   23.5960 C   0  0  0  0  0  3  0  0  0  0  0  0
  -16.8500  -28.5070   22.8980 C   0  0  0  0  0  3  0  0  0  0  0  0
  -25.8390  -32.2310   23.6850 C   0  0  0  0  0  3  0  0  0  0  0  0
  -25.4770  -33.6140   24.0200 N   0  0  0  0  0  0  0  0  0  0  0  0
  -25.8170  -34.6870   23.2960 C   0  0  0  0  0  0  0  0  0  0  0  0
  -26.5450  -34.6210   22.3010 O   0  0  0  0  0  0  0  0  0  0  0  0
  -24.8390  -33.7390   24.7920 H   0  0  0  0  0  0  0  0  0  0  0  0
  -24.0530  -36.4280   22.8840 C   0  0  0  0  0  1  0  0  0  0  0  0
  -25.2660  -36.0520   23.7480 C   0  0  0  0  0  3  0  0  0  0  0  0
  -27.3250  -36.9960   24.6940 C   0  0  0  0  0  1  0  0  0  0  0  0
  -26.2680  -37.1370   23.6970 N   0  0  0  0  0  0  0  0  0  0  0  0
  -25.8260  -38.0420   23.8310 H   0  0  0  0  0  0  0  0  0  0  0  0
  -26.3180  -31.4490   24.9690 C   0  0  1  0  0  0  0  0  0  0  0  0
  -25.1870  -31.1810   25.9880 C   0  0  0  0  0  1  0  0  0  0  0  0
  -26.9380  -30.0860   24.5800 C   0  0  0  0  0  1  0  0  0  0  0  0
  -27.4290  -32.2520   25.6890 C   0  0  0  0  0  1  0  0  0  0  0  0
  1  2  1  0
  1  3  1  0
  2  4  1  0
  3  4  1  0
  4  5  1  0
  4 52  1  1
  5 11  1  0
  6  5  2  0
  8  7  2  0
  9  7  1  0
 10 11  2  0
 10 12  1  0
 11  8  1  0
 12  9  2  0
 13 12  1  0
 13 22  1  0
 14 20  1  0
 14 22  1  0
 15 20  1  0
 16 17  1  0
 16 15  1  0
 18 17  1  0
 18 27  1  0
 18 19  1  0
 20 19  1  0
 21 14  2  0
 22 23  1  0
 24 25  2  0
 25 44  1  0
 26 25  1  0
 26 29  1  0
 27 28  1  0
 27 24  1  0
 28 26  2  0
 29 30  1  0
 30 31  2  0
 32 35  1  0
 32 31  1  0
 33 32  2  0
 34 33  1  0
 34 29  2  0
 35 36  1  0
 36 37  1  0
 37 38  2  0
 39 38  1  0
 39 43  1  0
 40 39  2  0
 41 36  2  0
 41 40  1  0
 42 41  1  0
 44 45  1  0
 45 48  1  0
 45 47  1  0
 46 44  2  0
 49 50  1  0
 49 24  1  0
 51 49  1  0
 53 52  1  0
 53 54  1  0
 55 54  1  0
 56 67  2  0
 57 55  1  0
 57 62  1  0
 58 66  1  0
 58 68  1  0
 59 61  1  0
 60 66  1  0
 61 62  2  0
 61 60  1  0
 63 57  2  0
 64 63  1  0
 64 59  2  0
 65 59  1  0
 65 58  1  0
 66 56  1  0
 68 70  2  0
 69 68  1  0
 71 69  1  0
 72 81  2  0
 72 77  1  0
 73 69  1  0
 73 77  1  0
 74 73  1  0
 75 76  1  0
 75 74  1  0
 76 72  1  0
 77 78  2  0
 78 79  1  0
 80 79  2  0
 81 80  1  0
 82 56  1  0
 82 83  1  0
 82 92  1  0
 83 86  1  0
 84 88  1  0
 84 83  1  0
 85 84  2  0
 88 87  1  0
 90 88  1  0
 90 91  1  0
 90 89  1  0
 92 95  1  1
 92 93  1  0
 94 92  1  0
M  ISO  4  14 100  22 100  54 101  55 101
M  END
>  <TORSDO>  (12) 
F 22

>  <SCORE>  (12) 
-10.927

>  <name>  (12) 
11

>  <ligand_id>  (12) 
11

>  <original_smiles>  (12) 
[H]c1c([H])c(C(=O)C2(C([H])([H])C([H])([H])C([H])([H])Oc3c([H])c([H])c4c(c3[H])C([H])([H])N(C(=O)C([H])(N([H])C(=O)C([H])(N([H])C([H])([H])[H])C([H])([H])[H])C(C([H])([H])[H])(C([H])([H])[H])C([H])([H])[H])C([H])(C(=O)N([H])C3([H])c5c([H])c([H])c([H])c([H])c5C([H])([H])C([H])([H])C3([H])[H])C4([H])[H])C([H])([H])C([H])([H])C2([H])[H])c([H])c(C([H])([H])N([H])C(=O)N2C([H])([H])C([H])([H])C([H])([H])C([H])(n3nc(-c4c([H])c([H])c(Oc5c([H])c([H])c(F)c([H])c5F)c([H])c4[H])c(C(=O)N([H])[H])c3N([H])[H])C2([H])[H])c1[H]

>  <smiles>  (12) 
[H]c1c([H])c(C(=O)C2(C([H])([H])C([H])([H])C([H])([H])Oc3c([H])c([H])c4c(c3[H])C([H])([H])N(C(=O)C([H])(N([H])C(=O)C([H])(N([H])C([H])([H])[H])C([H])([H])[H])C(C([H])([H])[H])(C([H])([H])[H])C([H])([H])[H])C([H])(C(=O)N([H])C3([H])c5c([H])c([H])c([H])c([H])c5C([H])([H])C([H])([H])C3([H])[H])C4([H])[H])C([H])([H])C([H])([H])C2([H])[H])c([H])c(C([H])([H])N([H])C(=O)N2C([H])([H])C([H])([H])C([H])([H])C([H])(n3nc(-c4c([H])c([H])c(Oc5c([H])c([H])c(F)c([H])c5F)c([H])c4[H])c(C(=O)N([H])[H])c3N([H])[H])C2([H])[H])c1[H]

$$$$
12:0:0
     RDKit          3D

 95104  0  0  1  0  0  0  0  0999 V2000
  -36.2890  -25.8940   15.4860 C   0  0  0  0  0  2  0  0  0  0  0  0
  -37.8050  -26.6150   11.9740 C   0  0  0  0  0  2  0  0  0  0  0  0
  -36.6640  -24.9990   12.3710 C   0  0  0  0  0  2  0  0  0  0  0  0
  -35.7590  -27.1380   13.2840 C   0  0  0  0  0  2  0  0  0  0  0  0
  -37.6180  -25.8110   13.2680 C   0  0  0  0  0  3  0  0  0  0  0  0
  -36.8380  -26.6600   14.2650 C   0  0  0  0  0  3  0  0  0  0  0  0
  -36.2690  -26.4480   12.0150 C   0  0  1  0  0  0  0  0  0  0  0  0
  -35.4550  -26.7500   10.7550 C   0  0  0  0  0  2  0  0  0  0  0  0
  -34.0240  -26.1730   10.7350 C   0  0  0  0  0  2  0  0  0  0  0  0
  -33.8980  -24.9940   11.7160 C   0  0  0  0  0  2  0  0  0  0  0  0
  -32.5160  -23.3840   10.3070 C   0  0  0  0  0  0  0  0  0  0  0  0
  -30.0690  -23.1990   10.0120 C   0  0  0  0  0  2  0  0  0  0  0  0
  -29.4920  -24.4210    9.2680 C   0  0  0  0  0  2  0  0  0  0  0  0
  -29.1760  -25.5670   10.2500 C   0  0  0  0  0  2  0  0  0  0  0  0
  -30.3550  -25.8570   11.2150 C   0  0  0  0  0  3  0  0  0  0  0  0
  -30.8460  -24.5390   11.8570 C   0  0  0  0  0  2  0  0  0  0  0  0
  -31.2560  -23.6300   10.7740 N   0  0  0  0  0  0  0  0  0  0  0  0
  -32.7200  -22.7120    9.2940 O   0  0  0  0  0  0  0  0  0  0  0  0
  -33.5810  -23.7210   11.0610 N   0  0  0  0  0  0  0  0  0  0  0  0
  -34.4050  -23.2120   10.7750 H   0  0  0  0  0  0  0  0  0  0  0  0
  -30.2970  -28.2020   12.2810 C   0  0  0  0  0  0  0  0  0  0  0  0
  -29.6600  -28.6830   13.3950 C   0  0  0  0  0  0  0  0  0  0  0  0
  -28.9750  -27.5690   13.9670 C   0  0  0  0  0  0  0  0  0  0  0  0
  -29.9910  -26.8500   12.2230 N   0  0  0  0  0  0  0  0  0  0  0  0
  -29.2300  -26.4650   13.2770 N   0  0  0  0  0  0  0  0  0  0  0  0
  -28.0430  -27.4980   15.0990 C   0  0  0  0  0  0  0  0  0  0  0  0
  -28.5050  -27.3720   16.4280 C   0  0  0  0  0  3  0  0  0  0  0  0
  -27.5900  -27.3220   17.5020 C   0  0  0  0  0  3  0  0  0  0  0  0
  -26.1980  -27.4010   17.2510 C   0  0  0  0  0  0  0  0  0  0  0  0
  -25.7440  -27.5040   15.9250 C   0  0  0  0  0  3  0  0  0  0  0  0
  -26.6560  -27.5480   14.8580 C   0  0  0  0  0  3  0  0  0  0  0  0
  -25.2360  -27.3350   18.2280 O   0  0  0  0  0  0  0  0  0  0  0  0
  -25.0290  -28.3690   19.1070 C   0  0  0  0  0  0  0  0  0  0  0  0
  -24.4120  -29.5730   18.7070 C   0  0  0  0  0  3  0  0  0  0  0  0
  -24.1540  -30.5830   19.6570 C   0  0  0  0  0  3  0  0  0  0  0  0
  -24.5040  -30.3860   21.0070 C   0  0  0  0  0  0  0  0  0  0  0  0
  -25.1140  -29.1850   21.4070 C   0  0  0  0  0  3  0  0  0  0  0  0
  -25.3730  -28.1780   20.4610 C   0  0  0  0  0  0  0  0  0  0  0  0
  -25.9420  -27.0140   20.8560 F   0  0  0  0  0  0  0  0  0  0  0  0
  -24.2520  -31.3520   21.9200 F   0  0  0  0  0  0  0  0  0  0  0  0
  -29.6100  -30.1120   13.8500 C   0  0  0  0  0  0  0  0  0  0  0  0
  -29.7880  -30.3500   15.1450 N   0  0  0  0  0  0  0  0  0  0  0  0
  -29.4630  -31.0340   13.0490 O   0  0  0  0  0  0  0  0  0  0  0  0
  -29.9330  -29.5960   15.8010 H   0  0  0  0  0  0  0  0  0  0  0  0
  -29.7800  -31.3020   15.4850 H   0  0  0  0  0  0  0  0  0  0  0  0
  -31.0900  -28.8060   11.3080 N   0  0  0  0  0  0  0  0  0  0  0  0
  -31.2590  -29.8060   11.3050 H   0  0  0  0  0  0  0  0  0  0  0  0
  -31.4400  -28.3400   10.4790 H   0  0  0  0  0  0  0  0  0  0  0  0
  -34.8170  -25.7810   15.4450 N   0  0  0  0  0  4  0  0  0  0  0  0
  -34.5600  -24.8140   15.3150 H   0  0  0  0  0  0  0  0  0  0  0  0
  -34.5010  -26.2930   14.6390 H   0  0  0  0  0  0  0  0  0  0  0  0
  -34.1400  -26.3010   16.6520 C   0  0  0  0  0  2  0  0  0  0  0  0
  -32.6400  -25.9600   16.6900 C   0  0  0  0  0  2  0  0  0  0  0  0
  -32.0310  -25.7290   15.2930 C   0  0  0  0  0  2  0  0  0  0  0  0
  -31.1400  -24.6270   15.3390 O   0  0  0  0  0  0  0  0  0  0  0  0
  -31.9040  -18.9780   19.5830 C   0  0  0  0  0  0  0  0  0  0  0  0
  -31.7060  -23.3950   15.5320 C   0  0  0  0  0  0  0  0  0  0  0  0
  -33.2870  -18.9760   17.5290 C   0  0  0  0  0  3  0  0  0  0  0  0
  -32.7320  -20.7860   15.8230 C   0  0  0  0  0  0  0  0  0  0  0  0
  -31.0620  -20.2280   17.6010 C   0  0  0  0  0  2  0  0  0  0  0  0
  -31.6520  -21.2070   16.6090 C   0  0  0  0  0  0  0  0  0  0  0  0
  -31.1310  -22.5080   16.4640 C   0  0  0  0  0  3  0  0  0  0  0  0
  -32.8010  -22.9720   14.7500 C   0  0  0  0  0  3  0  0  0  0  0  0
  -33.3160  -21.6670   14.8920 C   0  0  0  0  0  3  0  0  0  0  0  0
  -33.2120  -19.3670   16.0280 C   0  0  0  0  0  2  0  0  0  0  0  0
  -32.0750  -19.4050   18.3000 N   0  0  0  0  0  0  0  0  0  0  0  0
  -32.7100  -18.1980   20.1100 O   0  0  0  0  0  0  0  0  0  0  0  0
  -34.6090  -19.5210   18.1100 C   0  0  0  0  0  0  0  0  0  0  0  0
  -35.7160  -18.8040   17.8540 N   0  0  0  0  0  0  0  0  0  0  0  0
  -34.6320  -20.5790   18.7460 O   0  0  0  0  0  0  0  0  0  0  0  0
  -35.6110  -17.9460   17.3310 H   0  0  0  0  0  0  0  0  0  0  0  0
  -39.1070  -17.5710   17.9910 C   0  0  0  0  0  0  0  0  0  0  0  0
  -37.0760  -19.1460   18.2640 C   0  0  0  0  0  3  0  0  0  0  0  0
  -37.7640  -20.0490   17.2150 C   0  0  0  0  0  2  0  0  0  0  0  0
  -38.5800  -19.2620   16.1840 C   0  0  0  0  0  2  0  0  0  0  0  0
  -39.6690  -18.4370   16.8770 C   0  0  0  0  0  2  0  0  0  0  0  0
  -37.8830  -17.8940   18.6320 C   0  0  0  0  0  0  0  0  0  0  0  0
  -37.3860  -17.0360   19.6370 C   0  0  0  0  0  3  0  0  0  0  0  0
  -38.0920  -15.8760   20.0050 C   0  0  0  0  0  3  0  0  0  0  0  0
  -39.3120  -15.5680   19.3780 C   0  0  0  0  0  3  0  0  0  0  0  0
  -39.8190  -16.4160   18.3780 C   0  0  0  0  0  3  0  0  0  0  0  0
  -30.6770  -19.4240   20.4400 C   0  0  0  0  0  3  0  0  0  0  0  0
  -30.0020  -18.2070   20.9110 N   0  0  0  0  0  0  0  0  0  0  0  0
  -29.3410  -17.3510   20.1190 C   0  0  0  0  0  0  0  0  0  0  0  0
  -29.1750  -17.5460   18.9110 O   0  0  0  0  0  0  0  0  0  0  0  0
  -30.1460  -17.9540   21.8780 H   0  0  0  0  0  0  0  0  0  0  0  0
  -29.9180  -15.0860   21.0420 C   0  0  0  0  0  1  0  0  0  0  0  0
  -28.7750  -16.0760   20.7700 C   0  0  0  0  0  3  0  0  0  0  0  0
  -26.4300  -16.0840   20.0410 C   0  0  0  0  0  1  0  0  0  0  0  0
  -27.7280  -15.4180   19.9570 N   0  0  0  0  0  0  0  0  0  0  0  0
  -27.6070  -14.4500   20.2420 H   0  0  0  0  0  0  0  0  0  0  0  0
  -31.0680  -20.3510   21.6540 C   0  0  1  0  0  0  0  0  0  0  0  0
  -31.3350  -19.5780   22.9660 C   0  0  0  0  0  1  0  0  0  0  0  0
  -32.3350  -21.1730   21.3210 C   0  0  0  0  0  1  0  0  0  0  0  0
  -29.9390  -21.3730   21.9230 C   0  0  0  0  0  1  0  0  0  0  0  0
  2  7  1  0
  3  5  1  0
  4  6  1  0
  5  2  1  0
  5  6  1  0
  6  1  1  0
  7  8  1  6
  7  3  1  0
  7  4  1  0
  9  8  1  0
  9 10  1  0
 11 17  1  0
 11 19  1  0
 12 17  1  0
 13 12  1  0
 13 14  1  0
 15 14  1  0
 15 16  1  0
 15 24  1  0
 17 16  1  0
 18 11  2  0
 19 10  1  0
 20 19  1  0
 21 22  2  0
 22 41  1  0
 22 23  1  0
 23 26  1  0
 24 21  1  0
 24 25  1  0
 25 23  2  0
 26 27  1  0
 27 28  2  0
 29 28  1  0
 29 32  1  0
 30 29  2  0
 31 26  2  0
 31 30  1  0
 32 33  1  0
 33 38  1  0
 34 33  2  0
 34 35  1  0
 35 36  2  0
 36 37  1  0
 36 40  1  0
 38 39  1  0
 38 37  2  0
 41 42  1  0
 42 45  1  0
 42 44  1  0
 43 41  2  0
 46 21  1  0
 47 46  1  0
 48 46  1  0
 49  1  1  0
 49 52  1  0
 50 49  1  0
 51 49  1  0
 52 53  1  0
 54 55  1  0
 54 53  1  0
 55 57  1  0
 56 67  2  0
 57 62  1  0
 58 68  1  0
 58 66  1  0
 59 65  1  0
 59 61  1  0
 60 66  1  0
 61 60  1  0
 62 61  2  0
 63 64  1  0
 63 57  2  0
 64 59  2  0
 65 58  1  0
 66 56  1  0
 68 70  2  0
 69 68  1  0
 71 69  1  0
 72 81  2  0
 72 77  1  0
 73 69  1  0
 73 77  1  0
 74 73  1  0
 75 76  1  0
 75 74  1  0
 76 72  1  0
 77 78  2  0
 78 79  1  0
 80 79  2  0
 81 80  1  0
 82 56  1  0
 82 83  1  0
 82 92  1  0
 83 86  1  0
 84 88  1  0
 84 83  1  0
 85 84  2  0
 88 87  1  0
 90 89  1  0
 90 91  1  0
 90 88  1  0
 92 95  1  1
 92 93  1  0
 94 92  1  0
M  ISO  4  11 100  19 100  54 101  55 101
M  END
>  <TORSDO>  (13) 
F 24

>  <SCORE>  (13) 
-3.966

>  <name>  (13) 
12

>  <ligand_id>  (13) 
12

>  <original_smiles>  (13) 
[H]c1c([H])c([H])c2c(c1[H])C([H])([H])C([H])([H])C([H])([H])C2([H])N([H])C(=O)C1([H])N(C(=O)C([H])(N([H])C(=O)C([H])(N([H])C([H])([H])[H])C([H])([H])[H])C(C([H])([H])[H])(C([H])([H])[H])C([H])([H])[H])C([H])([H])c2c([H])c(OC([H])([H])C([H])([H])C([H])([H])[N+]([H])([H])C([H])([H])C3([H])C([H])([H])C4(C([H])([H])C([H])([H])C([H])([H])N([H])C(=O)N5C([H])([H])C([H])([H])C([H])([H])C([H])(n6nc(-c7c([H])c([H])c(Oc8c([H])c([H])c(F)c([H])c8F)c([H])c7[H])c(C(=O)N([H])[H])c6N([H])[H])C5([H])[H])C([H])([H])C3([H])C4([H])[H])c([H])c([H])c2C1([H])[H]

>  <smiles>  (13) 
[H]c1c([H])c([H])c2c(c1[H])C([H])([H])C([H])([H])C([H])([H])C2([H])N([H])C(=O)C1([H])N(C(=O)C([H])(N([H])C(=O)C([H])(N([H])C([H])([H])[H])C([H])([H])[H])C(C([H])([H])[H])(C([H])([H])[H])C([H])([H])[H])C([H])([H])c2c([H])c(OC([H])([H])C([H])([H])C([H])([H])[N+]([H])([H])C([H])([H])C3([H])C([H])([H])C4(C([H])([H])C([H])([H])C([H])([H])N([H])C(=O)N5C([H])([H])C([H])([H])C([H])([H])C([H])(n6nc(-c7c([H])c([H])c(Oc8c([H])c([H])c(F)c([H])c8F)c([H])c7[H])c(C(=O)N([H])[H])c6N([H])[H])C5([H])[H])C([H])([H])C3([H])C4([H])[H])c([H])c([H])c2C1([H])[H]

$$$$
13:0:0
     RDKit          3D

 97105  0  0  1  0  0  0  0  0999 V2000
  -29.5200  -19.8040   20.5310 C   0  0  0  0  0  3  0  0  0  0  0  0
  -28.5520  -21.1520   20.3140 N   0  0  0  0  0  4  0  0  0  0  0  0
  -28.3120  -21.1080   19.3260 H   0  0  0  0  0  0  0  0  0  0  0  0
  -27.6990  -20.9670   20.8170 H   0  0  0  0  0  0  0  0  0  0  0  0
  -28.8990  -22.7750   20.5380 C   0  0  0  0  0  3  0  0  0  0  0  0
  -27.8810  -24.2480   20.3560 C   0  0  0  0  0  3  0  0  0  0  0  0
  -28.1580  -25.8780   20.4160 O   0  0  0  0  0  0  0  0  0  0  0  0
  -24.6190  -31.8950   23.2480 C   0  0  0  0  0  0  0  0  0  0  0  0
  -27.1590  -26.9800   20.3220 C   0  0  0  0  0  0  0  0  0  0  0  0
  -23.4290  -30.4930   21.6130 C   0  0  0  0  0  3  0  0  0  0  0  0
  -24.8780  -28.8670   20.2200 C   0  0  0  0  0  0  0  0  0  0  0  0
  -25.9950  -30.6930   21.4820 C   0  0  0  0  0  2  0  0  0  0  0  0
  -26.0620  -29.2760   20.8460 C   0  0  0  0  0  0  0  0  0  0  0  0
  -27.2000  -28.3530   20.8690 C   0  0  0  0  0  3  0  0  0  0  0  0
  -25.9480  -26.7190   19.6410 C   0  0  0  0  0  3  0  0  0  0  0  0
  -24.8470  -27.6110   19.5930 C   0  0  0  0  0  3  0  0  0  0  0  0
  -23.6640  -29.7950   20.2470 C   0  0  0  0  0  2  0  0  0  0  0  0
  -24.7020  -31.0560   22.1680 N   0  0  0  0  0  0  0  0  0  0  0  0
  -23.5280  -32.1930   23.7600 O   0  0  0  0  0  0  0  0  0  0  0  0
  -22.7230  -29.5110   22.5840 C   0  0  0  0  0  0  0  0  0  0  0  0
  -21.3930  -29.3580   22.4550 N   0  0  0  0  0  0  0  0  0  0  0  0
  -23.3790  -28.8880   23.4240 O   0  0  0  0  0  0  0  0  0  0  0  0
  -20.9160  -29.9130   21.7570 H   0  0  0  0  0  0  0  0  0  0  0  0
  -17.9970  -28.1830   22.9660 C   0  0  0  0  0  0  0  0  0  0  0  0
  -20.5580  -28.4340   23.2310 C   0  0  0  0  0  3  0  0  0  0  0  0
  -20.6520  -26.9970   22.6690 C   0  0  0  0  0  2  0  0  0  0  0  0
  -19.5490  -26.6720   21.6570 C   0  0  0  0  0  2  0  0  0  0  0  0
  -18.1650  -26.8300   22.2950 C   0  0  0  0  0  2  0  0  0  0  0  0
  -19.1190  -28.9430   23.3920 C   0  0  0  0  0  0  0  0  0  0  0  0
  -18.9030  -30.2060   23.9830 C   0  0  0  0  0  3  0  0  0  0  0  0
  -17.5980  -30.7100   24.1510 C   0  0  0  0  0  3  0  0  0  0  0  0
  -16.4920  -29.9490   23.7330 C   0  0  0  0  0  3  0  0  0  0  0  0
  -16.6910  -28.6880   23.1450 C   0  0  0  0  0  3  0  0  0  0  0  0
  -25.8890  -32.5340   23.8890 C   0  0  0  0  0  3  0  0  0  0  0  0
  -25.5780  -33.9380   24.2050 N   0  0  0  0  0  0  0  0  0  0  0  0
  -25.9200  -34.9880   23.4460 C   0  0  0  0  0  0  0  0  0  0  0  0
  -26.5890  -34.8760   22.4150 O   0  0  0  0  0  0  0  0  0  0  0  0
  -24.9730  -34.1000   24.9980 H   0  0  0  0  0  0  0  0  0  0  0  0
  -24.2020  -36.7990   23.0960 C   0  0  0  0  0  1  0  0  0  0  0  0
  -25.4460  -36.3840   23.8990 C   0  0  0  0  0  3  0  0  0  0  0  0
  -27.5890  -37.2680   24.7130 C   0  0  0  0  0  1  0  0  0  0  0  0
  -26.4850  -37.4310   23.7700 N   0  0  0  0  0  0  0  0  0  0  0  0
  -26.0820  -38.3540   23.9030 H   0  0  0  0  0  0  0  0  0  0  0  0
  -26.3730  -31.7800   25.1900 C   0  0  1  0  0  0  0  0  0  0  0  0
  -25.2560  -31.5780   26.2410 C   0  0  0  0  0  1  0  0  0  0  0  0
  -26.9470  -30.3880   24.8440 C   0  0  0  0  0  1  0  0  0  0  0  0
  -27.5240  -32.5730   25.8550 C   0  0  0  0  0  1  0  0  0  0  0  0
  -30.8690  -20.2420   19.8980 C   0  0  0  0  0  2  0  0  0  0  0  0
  -33.1650  -20.0060   17.0740 C   0  0  0  0  0  2  0  0  0  0  0  0
  -33.0990  -21.4080   17.6650 C   0  0  0  0  0  2  0  0  0  0  0  0
  -32.1560  -19.2190   17.9180 C   0  0  0  0  0  2  0  0  0  0  0  0
  -31.6000  -21.5940   17.8480 C   0  0  0  0  0  2  0  0  0  0  0  0
  -31.0240  -20.2240   18.3190 C   0  0  2  0  0  0  0  0  0  0  0  0
  -29.6840  -20.0070   17.5330 C   0  0  0  0  0  0  0  0  0  0  0  0
  -29.4230  -18.8750   16.8910 N   0  0  0  0  0  0  0  0  0  0  0  0
  -28.8220  -20.8820   17.5340 O   0  0  0  0  0  0  0  0  0  0  0  0
  -30.1140  -18.1470   16.7930 H   0  0  0  0  0  0  0  0  0  0  0  0
  -28.5070  -18.7440   16.4790 H   0  0  0  0  0  0  0  0  0  0  0  0
  -29.2600  -18.0750   20.0270 C   0  0  0  0  0  2  0  0  0  0  0  0
  -30.3710  -15.2920   20.2620 C   0  0  0  0  0  0  0  0  0  0  0  0
  -30.3590  -12.8410   19.3850 C   0  0  0  0  0  2  0  0  0  0  0  0
  -29.4360  -12.6890   18.1450 C   0  0  0  0  0  2  0  0  0  0  0  0
  -27.9940  -12.3980   18.5890 C   0  0  0  0  0  2  0  0  0  0  0  0
  -27.5560  -13.3390   19.7410 C   0  0  0  0  0  3  0  0  0  0  0  0
  -28.6060  -13.4650   20.8710 C   0  0  0  0  0  2  0  0  0  0  0  0
  -29.8430  -13.9670   20.2550 N   0  0  0  0  0  0  0  0  0  0  0  0
  -31.5460  -15.3420   19.8720 O   0  0  0  0  0  0  0  0  0  0  0  0
  -29.5850  -16.5140   20.5590 N   0  0  0  0  0  0  0  0  0  0  0  0
  -28.7510  -16.1990   21.0360 H   0  0  0  0  0  0  0  0  0  0  0  0
  -25.1990  -13.8870   20.5340 C   0  0  0  0  0  0  0  0  0  0  0  0
  -24.1420  -13.1020   20.9090 C   0  0  0  0  0  0  0  0  0  0  0  0
  -24.6150  -11.7560   20.8570 C   0  0  0  0  0  0  0  0  0  0  0  0
  -26.2340  -13.0150   20.2590 N   0  0  0  0  0  0  0  0  0  0  0  0
  -25.8990  -11.7260   20.5210 N   0  0  0  0  0  0  0  0  0  0  0  0
  -23.8950  -10.4880   21.0440 C   0  0  0  0  0  0  0  0  0  0  0  0
  -24.3430   -9.5140   21.9640 C   0  0  0  0  0  3  0  0  0  0  0  0
  -23.6200   -8.3150   22.1420 C   0  0  0  0  0  3  0  0  0  0  0  0
  -22.4380   -8.0790   21.4000 C   0  0  0  0  0  0  0  0  0  0  0  0
  -22.0100   -9.0430   20.4710 C   0  0  0  0  0  3  0  0  0  0  0  0
  -22.7310  -10.2340   20.2900 C   0  0  0  0  0  3  0  0  0  0  0  0
  -21.6820   -6.9350   21.4910 O   0  0  0  0  0  0  0  0  0  0  0  0
  -21.6440   -6.1850   22.6400 C   0  0  0  0  0  0  0  0  0  0  0  0
  -21.2200   -6.7270   23.8730 C   0  0  0  0  0  3  0  0  0  0  0  0
  -21.1340   -5.9030   25.0140 C   0  0  0  0  0  3  0  0  0  0  0  0
  -21.4570   -4.5360   24.9210 C   0  0  0  0  0  0  0  0  0  0  0  0
  -21.8750   -3.9930   23.6930 C   0  0  0  0  0  3  0  0  0  0  0  0
  -21.9670   -4.8150   22.5560 C   0  0  0  0  0  0  0  0  0  0  0  0
  -22.3480   -4.2820   21.3710 F   0  0  0  0  0  0  0  0  0  0  0  0
  -21.3690   -3.7400   26.0130 F   0  0  0  0  0  0  0  0  0  0  0  0
  -22.7510  -13.5740   21.2000 C   0  0  0  0  0  0  0  0  0  0  0  0
  -22.0370  -12.8640   22.0690 N   0  0  0  0  0  0  0  0  0  0  0  0
  -22.3080  -14.6050   20.6990 O   0  0  0  0  0  0  0  0  0  0  0  0
  -22.4120  -12.0300   22.4950 H   0  0  0  0  0  0  0  0  0  0  0  0
  -21.0990  -13.1560   22.3070 H   0  0  0  0  0  0  0  0  0  0  0  0
  -25.3610  -15.2600   20.3850 N   0  0  0  0  0  0  0  0  0  0  0  0
  -24.6040  -15.9150   20.5560 H   0  0  0  0  0  0  0  0  0  0  0  0
  -26.2170  -15.7070   20.0840 H   0  0  0  0  0  0  0  0  0  0  0  0
  1 48  1  0
  2  1  1  0
  2  5  1  0
  2  4  1  0
  3  2  1  0
  6  7  1  0
  6  5  2  0
  8 19  2  0
  9  7  1  0
  9 14  1  0
 10 18  1  0
 10 20  1  0
 11 17  1  0
 11 13  1  0
 12 18  1  0
 13 14  2  0
 13 12  1  0
 15  9  2  0
 16 15  1  0
 16 11  2  0
 17 10  1  0
 18  8  1  0
 20 22  2  0
 21 20  1  0
 23 21  1  0
 24 33  2  0
 24 29  1  0
 25 21  1  0
 25 29  1  0
 26 25  1  0
 27 28  1  0
 27 26  1  0
 28 24  1  0
 29 30  2  0
 30 31  1  0
 32 31  2  0
 33 32  1  0
 34  8  1  0
 34 35  1  0
 34 44  1  0
 35 38  1  0
 36 40  1  0
 36 35  1  0
 37 36  2  0
 40 39  1  0
 42 40  1  0
 42 43  1  0
 42 41  1  0
 44 47  1  1
 44 45  1  0
 46 44  1  0
 49 50  1  0
 49 51  1  0
 50 52  1  0
 51 53  1  0
 52 53  1  0
 53 48  1  1
 54 56  2  0
 54 53  1  0
 55 54  1  0
 57 55  1  0
 58 55  1  0
 59  1  1  0
 59 68  1  0
 60 68  1  0
 61 66  1  0
 62 63  1  0
 62 61  1  0
 64 63  1  0
 64 73  1  0
 64 65  1  0
 66 60  1  0
 66 65  1  0
 67 60  2  0
 68 69  1  0
 70 71  2  0
 71 90  1  0
 72 71  1  0
 72 75  1  0
 73 74  1  0
 73 70  1  0
 74 72  2  0
 75 76  1  0
 76 77  2  0
 78 81  1  0
 78 77  1  0
 79 78  2  0
 80 79  1  0
 80 75  2  0
 81 82  1  0
 82 83  1  0
 83 84  2  0
 85 84  1  0
 85 89  1  0
 86 85  2  0
 87 82  2  0
 87 86  1  0
 88 87  1  0
 90 91  1  0
 91 94  1  0
 91 93  1  0
 92 90  2  0
 95 70  1  0
 95 96  1  0
 97 95  1  0
M  ISO  4   6 101   7 101  60 100  68 100
M  END
>  <TORSDO>  (14) 
F 23

>  <SCORE>  (14) 
-15.619

>  <name>  (14) 
13

>  <ligand_id>  (14) 
13

>  <original_smiles>  (14) 
[H]c1c([H])c([H])c2c(c1[H])C([H])([H])C([H])([H])C([H])([H])C2([H])N([H])C(=O)C1([H])N(C(=O)C([H])(N([H])C(=O)C([H])(N([H])C([H])([H])[H])C([H])([H])[H])C(C([H])([H])[H])(C([H])([H])[H])C([H])([H])[H])C([H])([H])c2c([H])c(OC([H])([H])C([H])([H])[N+]([H])([H])C([H])(C([H])([H])N([H])C(=O)N3C([H])([H])C([H])([H])C([H])([H])C([H])(n4nc(-c5c([H])c([H])c(Oc6c([H])c([H])c(F)c([H])c6F)c([H])c5[H])c(C(=O)N([H])[H])c4N([H])[H])C3([H])[H])C([H])([H])C3(C(=O)N([H])[H])C([H])([H])C([H])([H])C([H])([H])C3([H])[H])c([H])c([H])c2C1([H])[H]

>  <smiles>  (14) 
[H]c1c([H])c([H])c2c(c1[H])C([H])([H])C([H])([H])C([H])([H])C2([H])N([H])C(=O)C1([H])N(C(=O)C([H])(N([H])C(=O)C([H])(N([H])C([H])([H])[H])C([H])([H])[H])C(C([H])([H])[H])(C([H])([H])[H])C([H])([H])[H])C([H])([H])c2c([H])c(OC([H])([H])C([H])([H])[N+]([H])([H])C([H])(C([H])([H])N([H])C(=O)N3C([H])([H])C([H])([H])C([H])([H])C([H])(n4nc(-c5c([H])c([H])c(Oc6c([H])c([H])c(F)c([H])c6F)c([H])c5[H])c(C(=O)N([H])[H])c4N([H])[H])C3([H])[H])C([H])([H])C3(C(=O)N([H])[H])C([H])([H])C([H])([H])C([H])([H])C3([H])[H])c([H])c([H])c2C1([H])[H]

$$$$
14:0:0
     RDKit          3D

100107  0  0  1  0  0  0  0  0999 V2000
  -24.0180  -22.7600   19.9940 C   0  0  0  0  0  2  0  0  0  0  0  0
  -25.5720  -22.3850   19.6670 C   0  0  0  0  0  2  0  0  0  0  0  0
  -24.7780  -24.5020   21.6660 C   0  0  0  0  0  2  0  0  0  0  0  0
  -26.7940  -22.6790   21.8260 C   0  0  0  0  0  2  0  0  0  0  0  0
  -23.5200  -24.0260   20.8820 C   0  0  0  0  0  3  0  0  0  0  0  0
  -26.5530  -21.6270   20.7030 C   0  0  0  0  0  3  0  0  0  0  0  0
  -25.5180  -23.3530   22.4780 C   0  0  0  0  0  3  0  0  0  0  0  0
  -19.9670  -26.2940   19.9250 C   0  0  0  0  0  2  0  0  0  0  0  0
  -21.0550  -27.4090   18.3680 C   0  0  0  0  0  1  0  0  0  0  0  0
  -23.2060  -26.0370   19.2600 C   0  0  0  0  0  3  0  0  0  0  0  0
  -22.4970  -25.1530   20.2740 C   0  0  0  0  0  0  0  0  0  0  0  0
  -20.9730  -25.2670   20.6700 C   0  0  0  0  0  0  0  0  0  0  0  0
  -22.8280  -27.2320   18.4120 C   0  0  0  0  0  3  0  0  0  0  0  0
  -20.4170  -24.3650   21.7530 C   0  0  0  0  0  1  0  0  0  0  0  0
  -24.2410  -28.1260   18.6480 O   0  0  0  0  0  0  0  0  0  0  0  0
  -24.3960  -31.4930   22.8950 C   0  0  0  0  0  0  0  0  0  0  0  0
  -25.4490  -28.7110   18.0320 C   0  0  0  0  0  3  0  0  0  0  0  0
  -23.0100  -31.1340   20.9240 C   0  0  0  0  0  3  0  0  0  0  0  0
  -24.1530  -30.8150   18.6380 C   0  0  0  0  0  3  0  0  0  0  0  0
  -25.5230  -31.4450   20.6480 C   0  0  0  0  0  2  0  0  0  0  0  0
  -25.3410  -30.6470   19.3660 C   0  0  0  0  0  3  0  0  0  0  0  0
  -26.1670  -29.5970   18.9170 C   0  0  0  0  0  2  0  0  0  0  0  0
  -25.0140  -29.3380   16.9000 C   0  0  0  0  0  2  0  0  0  0  0  0
  -24.0560  -30.2740   17.3230 C   0  0  0  0  0  2  0  0  0  0  0  0
  -22.9780  -31.3810   19.3760 C   0  0  0  0  0  2  0  0  0  0  0  0
  -24.3340  -31.4190   21.5330 N   0  0  0  0  0  0  0  0  0  0  0  0
  -23.3730  -31.4320   23.5960 O   0  0  0  0  0  0  0  0  0  0  0  0
  -22.6610  -29.7050   21.3720 C   0  0  0  0  0  0  0  0  0  0  0  0
  -21.4900  -29.4660   21.9180 N   0  0  0  0  0  0  0  0  0  0  0  0
  -23.5010  -28.8180   21.3430 O   0  0  0  0  0  0  0  0  0  0  0  0
  -20.8340  -30.2230   22.0470 H   0  0  0  0  0  0  0  0  0  0  0  0
  -18.0330  -28.6560   21.6270 C   0  0  0  0  0  0  0  0  0  0  0  0
  -20.9730  -28.0950   22.0480 C   0  0  0  0  0  2  0  0  0  0  0  0
  -21.5930  -26.8960   20.5770 C   0  0  0  0  0  2  0  0  0  0  0  0
  -18.9850  -27.3890   18.5840 C   0  0  0  0  0 15  0  0  0  0  0  0
  -17.7520  -28.2750   19.8830 C   0  0  0  0  0  1  0  0  0  0  0  0
  -19.3550  -28.6380   22.4220 C   0  0  0  0  0  0  0  0  0  0  0  0
  -19.3160  -29.2210   23.7390 C   0  0  0  0  0  3  0  0  0  0  0  0
  -18.1580  -29.6210   24.4340 C   0  0  0  0  0  3  0  0  0  0  0  0
  -16.9200  -29.3840   23.8320 C   0  0  0  0  0  3  0  0  0  0  0  0
  -16.8760  -28.9130   22.4830 C   0  0  0  0  0  3  0  0  0  0  0  0
  -25.7450  -31.6820   23.6280 C   0  0  0  0  0  3  0  0  0  0  0  0
  -25.6260  -32.9470   24.3570 N   0  0  0  0  0  0  0  0  0  0  0  0
  -26.0960  -34.1160   23.9120 C   0  0  0  0  0  0  0  0  0  0  0  0
  -26.7700  -34.2160   22.8830 O   0  0  0  0  0  0  0  0  0  0  0  0
  -25.0410  -32.9440   25.1800 H   0  0  0  0  0  0  0  0  0  0  0  0
  -24.6460  -36.1670   24.0730 C   0  0  0  0  0  1  0  0  0  0  0  0
  -25.7750  -35.3700   24.7460 C   0  0  0  0  0  3  0  0  0  0  0  0
  -27.9800  -35.6300   25.7900 C   0  0  0  0  0  1  0  0  0  0  0  0
  -26.9480  -36.2430   24.9570 N   0  0  0  0  0  0  0  0  0  0  0  0
  -26.6710  -37.1210   25.3900 H   0  0  0  0  0  0  0  0  0  0  0  0
  -26.0980  -30.5040   24.6160 C   0  0  1  0  0  0  0  0  0  0  0  0
  -24.9580  -30.1280   25.5910 C   0  0  0  0  0  1  0  0  0  0  0  0
  -26.4870  -29.2270   23.8370 C   0  0  0  0  0  1  0  0  0  0  0  0
  -27.3350  -30.9020   25.4560 C   0  0  0  0  0  1  0  0  0  0  0  0
  -25.8660  -23.8370   23.8280 N   0  0  0  0  0  4  0  0  0  0  0  0
  -26.5360  -24.5830   23.7920 H   0  0  0  0  0  0  0  0  0  0  0  0
  -26.2520  -23.0890   24.3770 H   0  0  0  0  0  0  0  0  0  0  0  0
  -25.0470  -24.1640   24.3110 H   0  0  0  0  0  0  0  0  0  0  0  0
  -27.9330  -20.8990   20.1010 C   0  0  0  0  0  2  0  0  0  0  0  0
  -28.6620  -19.5140   20.6560 C   0  0  0  0  0  3  0  0  0  0  0  0
  -29.9480  -18.7490   19.9150 C   0  0  0  0  0  3  0  0  0  0  0  0
  -31.3360  -16.3390   19.9290 C   0  0  0  0  0  0  0  0  0  0  0  0
  -31.5360  -13.9470   19.1340 C   0  0  0  0  0  2  0  0  0  0  0  0
  -30.6320  -13.7960   17.8800 C   0  0  0  0  0  2  0  0  0  0  0  0
  -29.1490  -13.6030   18.2680 C   0  0  0  0  0  2  0  0  0  0  0  0
  -28.6970  -14.6080   19.3580 C   0  0  0  0  0  3  0  0  0  0  0  0
  -29.6850  -14.5850   20.5400 C   0  0  0  0  0  2  0  0  0  0  0  0
  -30.9670  -15.0170   19.9930 N   0  0  0  0  0  0  0  0  0  0  0  0
  -32.4720  -16.6180   19.5060 O   0  0  0  0  0  0  0  0  0  0  0  0
  -30.2930  -17.2590   20.2090 N   0  0  0  0  0  0  0  0  0  0  0  0
  -29.5060  -16.7690   20.6080 H   0  0  0  0  0  0  0  0  0  0  0  0
  -26.3150  -15.2780   20.0070 C   0  0  0  0  0  0  0  0  0  0  0  0
  -25.2370  -14.5390   20.4040 C   0  0  0  0  0  0  0  0  0  0  0  0
  -25.6800  -13.1820   20.4280 C   0  0  0  0  0  0  0  0  0  0  0  0
  -27.3420  -14.3710   19.8150 N   0  0  0  0  0  0  0  0  0  0  0  0
  -26.9690  -13.1080   20.1300 N   0  0  0  0  0  0  0  0  0  0  0  0
  -24.9380  -11.9400   20.6510 C   0  0  0  0  0  0  0  0  0  0  0  0
  -25.2870  -11.0490   21.6890 C   0  0  0  0  0  3  0  0  0  0  0  0
  -24.5440   -9.8670   21.8960 C   0  0  0  0  0  3  0  0  0  0  0  0
  -23.4410   -9.5710   21.0620 C   0  0  0  0  0  0  0  0  0  0  0  0
  -23.1130  -10.4500   20.0150 C   0  0  0  0  0  3  0  0  0  0  0  0
  -23.8560  -11.6220   19.8080 C   0  0  0  0  0  3  0  0  0  0  0  0
  -22.6770   -8.4350   21.1710 O   0  0  0  0  0  0  0  0  0  0  0  0
  -22.3440   -7.9090   22.3930 C   0  0  0  0  0  0  0  0  0  0  0  0
  -21.6600   -8.6650   23.3700 C   0  0  0  0  0  3  0  0  0  0  0  0
  -21.2760   -8.0620   24.5840 C   0  0  0  0  0  3  0  0  0  0  0  0
  -21.5660   -6.7050   24.8190 C   0  0  0  0  0  0  0  0  0  0  0  0
  -22.2420   -5.9490   23.8450 C   0  0  0  0  0  3  0  0  0  0  0  0
  -22.6270   -6.5500   22.6340 C   0  0  0  0  0  0  0  0  0  0  0  0
  -23.2610   -5.8130   21.6900 F   0  0  0  0  0  0  0  0  0  0  0  0
  -21.1890   -6.1230   25.9810 F   0  0  0  0  0  0  0  0  0  0  0  0
  -23.8480  -15.0510   20.6410 C   0  0  0  0  0  0  0  0  0  0  0  0
  -23.1090  -14.4120   21.5410 N   0  0  0  0  0  0  0  0  0  0  0  0
  -23.4270  -16.0540   20.0660 O   0  0  0  0  0  0  0  0  0  0  0  0
  -23.4610  -13.6010   22.0280 H   0  0  0  0  0  0  0  0  0  0  0  0
  -22.1760  -14.7380   21.7480 H   0  0  0  0  0  0  0  0  0  0  0  0
  -26.4960  -16.6340   19.7680 N   0  0  0  0  0  0  0  0  0  0  0  0
  -25.7160  -17.2830   19.8040 H   0  0  0  0  0  0  0  0  0  0  0  0
  -27.3220  -17.0320   19.3400 H   0  0  0  0  0  0  0  0  0  0  0  0
  1  5  1  0
  2  1  1  0
  2  6  1  0
  3  7  1  0
  4  7  1  0
  5 11  1  0
  5  3  1  0
  6 60  1  0
  6  4  1  0
  7 56  1  0
  8 34  1  0
  8 12  1  0
 10 11  2  0
 11 12  1  0
 12 14  1  0
 13  9  1  0
 13 15  1  0
 13 10  1  0
 16 27  2  0
 17 15  1  0
 17 22  1  0
 18 28  1  0
 18 26  1  0
 19 24  1  0
 19 21  1  0
 19 25  1  0
 20 26  1  0
 21 22  1  0
 21 20  1  0
 23 24  1  0
 23 17  1  0
 25 18  1  0
 26 16  1  0
 28 29  1  0
 29 31  1  0
 29 33  1  0
 30 28  2  0
 32 37  2  0
 32 41  1  0
 33 37  1  0
 34 12  1  0
 36 32  1  0
 37 38  1  0
 38 39  2  0
 40 39  1  0
 41 40  2  0
 42 16  1  0
 42 43  1  0
 42 52  1  0
 43 46  1  0
 44 43  1  0
 44 48  1  0
 45 44  2  0
 48 47  1  0
 48 50  1  0
 50 51  1  0
 50 49  1  0
 52 55  1  1
 52 53  1  0
 54 52  1  0
 56 59  1  0
 56 58  1  0
 57 56  1  0
 60 61  1  0
 62 71  1  0
 62 61  2  0
 63 69  1  0
 63 71  1  0
 64 69  1  0
 65 66  1  0
 65 64  1  0
 67 66  1  0
 67 76  1  0
 67 68  1  0
 69 68  1  0
 70 63  2  0
 71 72  1  0
 73 74  2  0
 74 75  1  0
 74 93  1  0
 75 78  1  0
 76 73  1  0
 76 77  1  0
 77 75  2  0
 78 79  1  0
 79 80  2  0
 81 84  1  0
 81 80  1  0
 82 81  2  0
 83 82  1  0
 83 78  2  0
 84 85  1  0
 85 90  2  0
 85 86  1  0
 86 87  2  0
 87 88  1  0
 88 92  1  0
 89 88  2  0
 90 89  1  0
 91 90  1  0
 93 94  1  0
 94 97  1  0
 94 96  1  0
 95 93  2  0
 98 99  1  0
 98 73  1  0
100 98  1  0
M  ISO  4  13 101  15 101  63 100  71 100
M  END
>  <TORSDO>  (15) 
F 21

>  <SCORE>  (15) 
3.480

>  <name>  (15) 
14

>  <ligand_id>  (15) 
14

>  <original_smiles>  (15) 
[H]c1c([H])c([H])c2c(c1[H])C([H])([H])C([H])([H])C([H])([H])C2([H])N([H])C(=O)C1([H])N(C(=O)C([H])(N([H])C(=O)C([H])(N([H])C([H])([H])[H])C([H])([H])[H])C(C([H])([H])[H])(C([H])([H])[H])C([H])([H])[H])C([H])([H])c2c([H])c(Oc3c([H])c([H])c(C([H])([H])[H])c(C4([H])C([H])([H])C([H])([H])C([H])(C([H])([H])C([H])([H])C([H])([H])N([H])C(=O)N5C([H])([H])C([H])([H])C([H])([H])C([H])(n6nc(-c7c([H])c([H])c(Oc8c([H])c([H])c(F)c([H])c8F)c([H])c7[H])c(C(=O)N([H])[H])c6N([H])[H])C5([H])[H])C([H])([H])C([H])([N+]([H])([H])[H])C4([H])[H])c3[H])c([H])c([H])c2C1([H])[H]

>  <smiles>  (15) 
[H]c1c([H])c([H])c2c(c1[H])C([H])([H])C([H])([H])C([H])([H])C2([H])N([H])C(=O)C1([H])N(C(=O)C([H])(N([H])C(=O)C([H])(N([H])C([H])([H])[H])C([H])([H])[H])C(C([H])([H])[H])(C([H])([H])[H])C([H])([H])[H])C([H])([H])c2c([H])c(Oc3c([H])c([H])c(C([H])([H])[H])c(C4([H])C([H])([H])C([H])([H])C([H])(C([H])([H])C([H])([H])C([H])([H])N([H])C(=O)N5C([H])([H])C([H])([H])C([H])([H])C([H])(n6nc(-c7c([H])c([H])c(Oc8c([H])c([H])c(F)c([H])c8F)c([H])c7[H])c(C(=O)N([H])[H])c6N([H])[H])C5([H])[H])C([H])([H])C([H])([N+]([H])([H])[H])C4([H])[H])c3[H])c([H])c([H])c2C1([H])[H]

$$$$
15:0:0
     RDKit          3D

 92101  0  0  1  0  0  0  0  0999 V2000
  -29.3620  -22.1390   18.8790 C   0  0  0  0  0  2  0  0  0  0  0  0
  -27.0640  -21.3500   19.3610 C   0  0  0  0  0  2  0  0  0  0  0  0
  -29.8790  -20.6730   19.0360 C   0  0  0  0  0  2  0  0  0  0  0  0
  -27.5760  -19.8960   19.5470 C   0  0  0  0  0  2  0  0  0  0  0  0
  -28.7090  -21.3240   21.0190 C   0  0  0  0  0  2  0  0  0  0  0  0
  -28.1920  -22.2860   19.8760 C   0  0  1  0  0  0  0  0  0  0  0  0
  -28.9960  -20.0270   20.1360 C   0  0  2  0  0  0  0  0  0  0  0  0
  -27.5980  -23.8130   20.0000 C   0  0  0  0  0  2  0  0  0  0  0  0
  -28.3710  -25.1110   20.5510 C   0  0  0  0  0  2  0  0  0  0  0  0
  -28.2820  -26.5130   20.0190 O   0  0  0  0  0  0  0  0  0  0  0  0
  -24.5710  -31.8970   23.2050 C   0  0  0  0  0  0  0  0  0  0  0  0
  -27.1430  -27.3270   20.1050 C   0  0  0  0  0  0  0  0  0  0  0  0
  -23.3530  -30.5020   21.5760 C   0  0  0  0  0  3  0  0  0  0  0  0
  -24.7870  -28.9600   20.1220 C   0  0  0  0  0  0  0  0  0  0  0  0
  -25.8900  -30.8220   21.3610 C   0  0  0  0  0  2  0  0  0  0  0  0
  -25.9660  -29.4440   20.7050 C   0  0  0  0  0  0  0  0  0  0  0  0
  -27.1470  -28.6370   20.6890 C   0  0  0  0  0  3  0  0  0  0  0  0
  -25.9500  -26.9030   19.4930 C   0  0  0  0  0  3  0  0  0  0  0  0
  -24.7830  -27.6930   19.5120 C   0  0  0  0  0  3  0  0  0  0  0  0
  -23.5470  -29.8340   20.1910 C   0  0  0  0  0  2  0  0  0  0  0  0
  -24.6260  -31.0860   22.1070 N   0  0  0  0  0  0  0  0  0  0  0  0
  -23.4900  -32.1770   23.7490 O   0  0  0  0  0  0  0  0  0  0  0  0
  -22.7100  -29.4730   22.5350 C   0  0  0  0  0  0  0  0  0  0  0  0
  -21.3860  -29.2860   22.4150 N   0  0  0  0  0  0  0  0  0  0  0  0
  -23.3990  -28.8480   23.3460 O   0  0  0  0  0  0  0  0  0  0  0  0
  -20.8860  -29.8340   21.7290 H   0  0  0  0  0  0  0  0  0  0  0  0
  -18.0220  -28.0850   22.9360 C   0  0  0  0  0  0  0  0  0  0  0  0
  -20.5810  -28.3410   23.1880 C   0  0  0  0  0  3  0  0  0  0  0  0
  -20.6850  -26.9200   22.5920 C   0  0  0  0  0  2  0  0  0  0  0  0
  -19.5730  -26.6050   21.5870 C   0  0  0  0  0  2  0  0  0  0  0  0
  -18.1970  -26.7430   22.2460 C   0  0  0  0  0  2  0  0  0  0  0  0
  -19.1440  -28.8440   23.3640 C   0  0  0  0  0  0  0  0  0  0  0  0
  -18.9310  -30.1050   23.9630 C   0  0  0  0  0  3  0  0  0  0  0  0
  -17.6270  -30.6040   24.1470 C   0  0  0  0  0  3  0  0  0  0  0  0
  -16.5200  -29.8360   23.7440 C   0  0  0  0  0  3  0  0  0  0  0  0
  -16.7180  -28.5800   23.1420 C   0  0  0  0  0  3  0  0  0  0  0  0
  -25.8610  -32.5300   23.8140 C   0  0  0  0  0  3  0  0  0  0  0  0
  -25.5560  -33.9300   24.1470 N   0  0  0  0  0  0  0  0  0  0  0  0
  -25.8970  -34.9820   23.3930 C   0  0  0  0  0  0  0  0  0  0  0  0
  -26.5730  -34.8750   22.3660 O   0  0  0  0  0  0  0  0  0  0  0  0
  -24.9470  -34.0890   24.9360 H   0  0  0  0  0  0  0  0  0  0  0  0
  -24.1880  -36.7850   23.0200 C   0  0  0  0  0  1  0  0  0  0  0  0
  -25.4130  -36.3720   23.8490 C   0  0  0  0  0  3  0  0  0  0  0  0
  -27.5380  -37.2360   24.7230 C   0  0  0  0  0  1  0  0  0  0  0  0
  -26.4560  -37.4160   23.7580 N   0  0  0  0  0  0  0  0  0  0  0  0
  -26.0570  -38.3410   23.8950 H   0  0  0  0  0  0  0  0  0  0  0  0
  -26.3860  -31.7590   25.0860 C   0  0  1  0  0  0  0  0  0  0  0  0
  -25.2930  -31.5250   26.1550 C   0  0  0  0  0  1  0  0  0  0  0  0
  -26.9660  -30.3780   24.6960 C   0  0  0  0  0  1  0  0  0  0  0  0
  -27.5410  -32.5500   25.7420 C   0  0  0  0  0  1  0  0  0  0  0  0
  -29.5280  -18.6310   20.8200 C   0  0  0  0  0  2  0  0  0  0  0  0
  -30.2270  -17.3640   20.0520 C   0  0  0  0  0  3  0  0  0  0  0  0
  -30.8550  -14.8360   20.4350 C   0  0  0  0  0  0  0  0  0  0  0  0
  -30.6510  -12.5910   19.3790 C   0  0  0  0  0  2  0  0  0  0  0  0
  -29.7490  -12.7550   18.1360 C   0  0  0  0  0  2  0  0  0  0  0  0
  -28.2680  -12.5770   18.5230 C   0  0  0  0  0  2  0  0  0  0  0  0
  -27.8820  -13.4190   19.7700 C   0  0  0  0  0  3  0  0  0  0  0  0
  -28.9120  -13.2640   20.9120 C   0  0  0  0  0  2  0  0  0  0  0  0
  -30.2280  -13.6160   20.3590 N   0  0  0  0  0  0  0  0  0  0  0  0
  -32.0400  -14.9410   20.1020 O   0  0  0  0  0  0  0  0  0  0  0  0
  -30.0600  -15.9540   20.6310 N   0  0  0  0  0  0  0  0  0  0  0  0
  -29.1300  -15.7300   20.9600 H   0  0  0  0  0  0  0  0  0  0  0  0
  -25.4710  -14.0120   20.4080 C   0  0  0  0  0  0  0  0  0  0  0  0
  -24.3960  -13.2370   20.7610 C   0  0  0  0  0  0  0  0  0  0  0  0
  -24.8690  -11.8900   20.7700 C   0  0  0  0  0  0  0  0  0  0  0  0
  -26.5250  -13.1340   20.2210 N   0  0  0  0  0  0  0  0  0  0  0  0
  -26.1680  -11.8540   20.4990 N   0  0  0  0  0  0  0  0  0  0  0  0
  -24.1450  -10.6270   20.9650 C   0  0  0  0  0  0  0  0  0  0  0  0
  -24.5520   -9.6820   21.9320 C   0  0  0  0  0  3  0  0  0  0  0  0
  -23.8240   -8.4850   22.1120 C   0  0  0  0  0  3  0  0  0  0  0  0
  -22.6770   -8.2260   21.3250 C   0  0  0  0  0  0  0  0  0  0  0  0
  -22.2900   -9.1610   20.3490 C   0  0  0  0  0  3  0  0  0  0  0  0
  -23.0190  -10.3490   20.1680 C   0  0  0  0  0  3  0  0  0  0  0  0
  -21.9250   -7.0790   21.4110 O   0  0  0  0  0  0  0  0  0  0  0  0
  -21.8320   -6.3650   22.5780 C   0  0  0  0  0  0  0  0  0  0  0  0
  -21.3500   -6.9460   23.7730 C   0  0  0  0  0  3  0  0  0  0  0  0
  -21.2090   -6.1570   24.9310 C   0  0  0  0  0  3  0  0  0  0  0  0
  -21.5380   -4.7870   24.8950 C   0  0  0  0  0  0  0  0  0  0  0  0
  -22.0130   -4.2070   23.7050 C   0  0  0  0  0  3  0  0  0  0  0  0
  -22.1550   -4.9940   22.5500 C   0  0  0  0  0  0  0  0  0  0  0  0
  -22.5930   -4.4250   21.4000 F   0  0  0  0  0  0  0  0  0  0  0  0
  -21.3940   -4.0280   26.0050 F   0  0  0  0  0  0  0  0  0  0  0  0
  -22.9920  -13.7140   20.9760 C   0  0  0  0  0  0  0  0  0  0  0  0
  -22.2460  -13.0300   21.8380 N   0  0  0  0  0  0  0  0  0  0  0  0
  -22.5670  -14.7250   20.4240 O   0  0  0  0  0  0  0  0  0  0  0  0
  -22.6090  -12.2120   22.3030 H   0  0  0  0  0  0  0  0  0  0  0  0
  -21.3020  -13.3300   22.0350 H   0  0  0  0  0  0  0  0  0  0  0  0
  -25.6250  -15.3780   20.2120 N   0  0  0  0  0  0  0  0  0  0  0  0
  -24.8300  -16.0040   20.2690 H   0  0  0  0  0  0  0  0  0  0  0  0
  -26.4640  -15.8300   19.8690 H   0  0  0  0  0  0  0  0  0  0  0  0
  -31.1660  -17.5300   17.6430 C   0  0  0  0  0  1  0  0  0  0  0  0
  -29.9300  -17.2680   18.5280 C   0  0  0  0  0  2  0  0  0  0  0  0
  1  3  1  0
  1  6  1  0
  2  4  1  0
  2  6  1  0
  3  7  1  0
  4  7  1  0
  6  8  1  1
  6  5  1  0
  7 51  1  1
  7  5  1  0
  8  9  1  0
 10 12  1  0
 10  9  1  0
 11 22  2  0
 12 17  1  0
 13 21  1  0
 13 23  1  0
 14 20  1  0
 14 16  1  0
 15 21  1  0
 16 15  1  0
 17 16  2  0
 18 19  1  0
 18 12  2  0
 19 14  2  0
 20 13  1  0
 21 11  1  0
 23 25  2  0
 24 23  1  0
 26 24  1  0
 27 36  2  0
 27 32  1  0
 28 24  1  0
 28 32  1  0
 29 28  1  0
 30 31  1  0
 30 29  1  0
 31 27  1  0
 32 33  2  0
 33 34  1  0
 35 34  2  0
 36 35  1  0
 37 11  1  0
 37 38  1  0
 37 47  1  0
 38 41  1  0
 39 43  1  0
 39 38  1  0
 40 39  2  0
 43 42  1  0
 45 43  1  0
 45 46  1  0
 45 44  1  0
 47 50  1  1
 47 48  1  0
 49 47  1  0
 52 92  1  0
 52 61  1  0
 52 51  1  0
 53 61  1  0
 54 59  1  0
 55 56  1  0
 55 54  1  0
 57 56  1  0
 57 66  1  0
 57 58  1  0
 59 53  1  0
 59 58  1  0
 60 53  2  0
 61 62  1  0
 63 64  2  0
 64 65  1  0
 64 83  1  0
 65 68  1  0
 66 63  1  0
 66 67  1  0
 67 65  2  0
 68 69  1  0
 69 70  2  0
 71 74  1  0
 71 70  1  0
 72 71  2  0
 73 72  1  0
 73 68  2  0
 74 75  1  0
 75 76  1  0
 76 77  2  0
 78 77  1  0
 78 82  1  0
 79 78  2  0
 80 75  2  0
 80 79  1  0
 81 80  1  0
 83 84  1  0
 84 87  1  0
 84 86  1  0
 85 83  2  0
 88 89  1  0
 88 63  1  0
 90 88  1  0
 91 92  1  0
M  ISO  4   9 101  10 101  53 100  61 100
M  END
>  <TORSDO>  (16) 
F 21

>  <SCORE>  (16) 
-13.165

>  <name>  (16) 
15

>  <ligand_id>  (16) 
15

>  <original_smiles>  (16) 
[H]c1c([H])c([H])c2c(c1[H])C([H])([H])C([H])([H])C([H])([H])C2([H])N([H])C(=O)C1([H])N(C(=O)C([H])(N([H])C(=O)C([H])(N([H])C([H])([H])[H])C([H])([H])[H])C(C([H])([H])[H])(C([H])([H])[H])C([H])([H])[H])C([H])([H])c2c([H])c(OC([H])([H])C([H])([H])C34C([H])([H])C([H])([H])C(C([H])([H])C([H])(N([H])C(=O)N5C([H])([H])C([H])([H])C([H])([H])C([H])(n6nc(-c7c([H])c([H])c(Oc8c([H])c([H])c(F)c([H])c8F)c([H])c7[H])c(C(=O)N([H])[H])c6N([H])[H])C5([H])[H])C([H])([H])C([H])([H])[H])(C([H])([H])C3([H])[H])C4([H])[H])c([H])c([H])c2C1([H])[H]

>  <smiles>  (16) 
[H]c1c([H])c([H])c2c(c1[H])C([H])([H])C([H])([H])C([H])([H])C2([H])N([H])C(=O)C1([H])N(C(=O)C([H])(N([H])C(=O)C([H])(N([H])C([H])([H])[H])C([H])([H])[H])C(C([H])([H])[H])(C([H])([H])[H])C([H])([H])[H])C([H])([H])c2c([H])c(OC([H])([H])C([H])([H])C34C([H])([H])C([H])([H])C(C([H])([H])C([H])(N([H])C(=O)N5C([H])([H])C([H])([H])C([H])([H])C([H])(n6nc(-c7c([H])c([H])c(Oc8c([H])c([H])c(F)c([H])c8F)c([H])c7[H])c(C(=O)N([H])[H])c6N([H])[H])C5([H])[H])C([H])([H])C([H])([H])[H])(C([H])([H])C3([H])[H])C4([H])[H])c([H])c([H])c2C1([H])[H]

$$$$
16:0:0
     RDKit          3D

 95103  0  0  1  0  0  0  0  0999 V2000
  -29.5040  -24.0740   19.3960 C   0  0  0  0  0  2  0  0  0  0  0  0
  -30.5950  -23.0590   18.9640 C   0  0  0  0  0  2  0  0  0  0  0  0
  -31.2710  -20.8510   20.0520 C   0  0  0  0  0  3  0  0  0  0  0  0
  -29.1320  -20.9710   18.9050 C   0  0  0  0  0  3  0  0  0  0  0  0
  -31.0320  -19.5000   20.3690 C   0  0  0  0  0  3  0  0  0  0  0  0
  -28.8940  -19.6200   19.2180 C   0  0  0  0  0  3  0  0  0  0  0  0
  -30.3200  -21.6010   19.3270 C   0  0  0  0  0  0  0  0  0  0  0  0
  -29.8390  -18.8690   19.9490 C   0  0  0  0  0  0  0  0  0  0  0  0
  -29.5580  -17.3930   20.2000 C   0  0  0  0  0  2  0  0  0  0  0  0
  -30.3950  -16.6840   21.2910 C   0  0  0  0  0  2  0  0  0  0  0  0
  -30.6890  -14.3670   20.4510 C   0  0  0  0  0  0  0  0  0  0  0  0
  -30.3330  -12.2870   19.1820 C   0  0  0  0  0  2  0  0  0  0  0  0
  -29.3760  -12.5590   18.0050 C   0  0  0  0  0  2  0  0  0  0  0  0
  -27.9060  -12.4260   18.4500 C   0  0  0  0  0  2  0  0  0  0  0  0
  -27.6030  -13.2160   19.7510 C   0  0  0  0  0  3  0  0  0  0  0  0
  -28.6670  -12.9140   20.8310 C   0  0  0  0  0  2  0  0  0  0  0  0
  -29.9960  -13.2150   20.2680 N   0  0  0  0  0  0  0  0  0  0  0  0
  -31.7340  -14.6350   19.8480 O   0  0  0  0  0  0  0  0  0  0  0  0
  -30.1070  -15.2520   21.2710 N   0  0  0  0  0  0  0  0  0  0  0  0
  -29.2900  -14.9370   21.7750 H   0  0  0  0  0  0  0  0  0  0  0  0
  -25.2060  -13.8260   20.4720 C   0  0  0  0  0  0  0  0  0  0  0  0
  -24.1430  -13.0550   20.8580 C   0  0  0  0  0  0  0  0  0  0  0  0
  -24.6040  -11.7030   20.8250 C   0  0  0  0  0  0  0  0  0  0  0  0
  -26.2500  -12.9450   20.2370 N   0  0  0  0  0  0  0  0  0  0  0  0
  -25.8910  -11.6640   20.5040 N   0  0  0  0  0  0  0  0  0  0  0  0
  -23.8820  -10.4410   21.0280 C   0  0  0  0  0  0  0  0  0  0  0  0
  -24.3360   -9.4710   21.9490 C   0  0  0  0  0  3  0  0  0  0  0  0
  -23.6170   -8.2730   22.1420 C   0  0  0  0  0  3  0  0  0  0  0  0
  -22.4250   -8.0360   21.4150 C   0  0  0  0  0  0  0  0  0  0  0  0
  -21.9890   -8.9940   20.4840 C   0  0  0  0  0  3  0  0  0  0  0  0
  -22.7100  -10.1850   20.2890 C   0  0  0  0  0  3  0  0  0  0  0  0
  -21.6730   -6.8890   21.5160 O   0  0  0  0  0  0  0  0  0  0  0  0
  -21.6660   -6.1330   22.6600 C   0  0  0  0  0  0  0  0  0  0  0  0
  -21.2910   -6.6760   23.9090 C   0  0  0  0  0  3  0  0  0  0  0  0
  -21.2300   -5.8460   25.0480 C   0  0  0  0  0  3  0  0  0  0  0  0
  -21.5330   -4.4760   24.9370 C   0  0  0  0  0  0  0  0  0  0  0  0
  -21.9000   -3.9330   23.6930 C   0  0  0  0  0  3  0  0  0  0  0  0
  -21.9620   -4.7580   22.5570 C   0  0  0  0  0  0  0  0  0  0  0  0
  -22.2970   -4.2270   21.3570 F   0  0  0  0  0  0  0  0  0  0  0  0
  -21.4660   -3.6770   26.0280 F   0  0  0  0  0  0  0  0  0  0  0  0
  -22.7490  -13.5320   21.1470 C   0  0  0  0  0  0  0  0  0  0  0  0
  -22.0340  -12.8390   22.0270 N   0  0  0  0  0  0  0  0  0  0  0  0
  -22.3020  -14.5520   20.6270 O   0  0  0  0  0  0  0  0  0  0  0  0
  -22.4090  -12.0130   22.4690 H   0  0  0  0  0  0  0  0  0  0  0  0
  -21.0990  -13.1400   22.2660 H   0  0  0  0  0  0  0  0  0  0  0  0
  -25.3700  -15.1950   20.2860 N   0  0  0  0  0  0  0  0  0  0  0  0
  -24.6070  -15.8540   20.3960 H   0  0  0  0  0  0  0  0  0  0  0  0
  -26.2230  -15.6270   19.9500 H   0  0  0  0  0  0  0  0  0  0  0  0
  -29.5160  -24.5950   20.8660 C   0  0  2  0  0  0  0  0  0  0  0  0
  -31.3960  -26.3910   20.2960 C   0  0  0  0  0  1  0  0  0  0  0  0
  -30.8650  -25.2910   21.2370 C   0  0  0  0  0  2  0  0  0  0  0  0
  -30.3290  -22.8800   22.7520 C   0  0  0  0  0  1  0  0  0  0  0  0
  -29.1940  -23.4200   21.8580 C   0  0  0  0  0  2  0  0  0  0  0  0
  -28.3340  -25.6010   21.0290 C   0  0  0  0  0  2  0  0  0  0  0  0
  -28.3510  -26.6920   20.1110 O   0  0  0  0  0  0  0  0  0  0  0  0
  -24.5730  -31.8530   23.2250 C   0  0  0  0  0  0  0  0  0  0  0  0
  -27.1930  -27.4280   20.1290 C   0  0  0  0  0  0  0  0  0  0  0  0
  -23.3560  -30.4550   21.5840 C   0  0  0  0  0  3  0  0  0  0  0  0
  -24.8020  -28.9180   20.1510 C   0  0  0  0  0  0  0  0  0  0  0  0
  -25.8790  -30.8160   21.3750 C   0  0  0  0  0  2  0  0  0  0  0  0
  -25.9610  -29.4460   20.7350 C   0  0  0  0  0  0  0  0  0  0  0  0
  -27.1630  -28.7060   20.7230 C   0  0  0  0  0  3  0  0  0  0  0  0
  -26.0230  -26.9040   19.5440 C   0  0  0  0  0  3  0  0  0  0  0  0
  -24.8240  -27.6450   19.5550 C   0  0  0  0  0  3  0  0  0  0  0  0
  -23.5590  -29.7770   20.2030 C   0  0  0  0  0  2  0  0  0  0  0  0
  -24.6220  -31.0570   22.1210 N   0  0  0  0  0  0  0  0  0  0  0  0
  -23.4940  -32.1270   23.7690 O   0  0  0  0  0  0  0  0  0  0  0  0
  -22.7090  -29.4320   22.5450 C   0  0  0  0  0  0  0  0  0  0  0  0
  -21.3830  -29.2570   22.4220 N   0  0  0  0  0  0  0  0  0  0  0  0
  -23.3940  -28.8020   23.3540 O   0  0  0  0  0  0  0  0  0  0  0  0
  -20.8920  -29.8180   21.7390 H   0  0  0  0  0  0  0  0  0  0  0  0
  -18.0040  -28.0870   22.9270 C   0  0  0  0  0  0  0  0  0  0  0  0
  -20.5640  -28.3220   23.1920 C   0  0  0  0  0  3  0  0  0  0  0  0
  -20.6540  -26.8920   22.6080 C   0  0  0  0  0  2  0  0  0  0  0  0
  -19.5440  -26.5840   21.5970 C   0  0  0  0  0  2  0  0  0  0  0  0
  -18.1660  -26.7380   22.2470 C   0  0  0  0  0  2  0  0  0  0  0  0
  -19.1300  -28.8380   23.3560 C   0  0  0  0  0  0  0  0  0  0  0  0
  -18.9230  -30.1030   23.9480 C   0  0  0  0  0  3  0  0  0  0  0  0
  -17.6230  -30.6130   24.1230 C   0  0  0  0  0  3  0  0  0  0  0  0
  -16.5110  -29.8580   23.7110 C   0  0  0  0  0  3  0  0  0  0  0  0
  -16.7030  -28.5980   23.1160 C   0  0  0  0  0  3  0  0  0  0  0  0
  -25.8650  -32.4760   23.8410 C   0  0  0  0  0  3  0  0  0  0  0  0
  -25.5640  -33.8730   24.1760 N   0  0  0  0  0  0  0  0  0  0  0  0
  -25.9020  -34.9250   23.4180 C   0  0  0  0  0  0  0  0  0  0  0  0
  -26.5690  -34.8200   22.3850 O   0  0  0  0  0  0  0  0  0  0  0  0
  -24.9770  -34.0290   24.9810 H   0  0  0  0  0  0  0  0  0  0  0  0
  -24.1820  -36.7240   23.0640 C   0  0  0  0  0  1  0  0  0  0  0  0
  -25.4200  -36.3140   23.8780 C   0  0  0  0  0  3  0  0  0  0  0  0
  -27.5570  -37.1850   24.7170 C   0  0  0  0  0  1  0  0  0  0  0  0
  -26.4580  -37.3630   23.7710 N   0  0  0  0  0  0  0  0  0  0  0  0
  -26.0550  -38.2830   23.9220 H   0  0  0  0  0  0  0  0  0  0  0  0
  -26.3880  -31.6960   25.1080 C   0  0  1  0  0  0  0  0  0  0  0  0
  -25.3010  -31.4600   26.1820 C   0  0  0  0  0  1  0  0  0  0  0  0
  -26.9620  -30.3180   24.7000 C   0  0  0  0  0  1  0  0  0  0  0  0
  -27.5430  -32.4840   25.7690 C   0  0  0  0  0  1  0  0  0  0  0  0
 49  1  1  6
  2  7  1  0
  2  1  1  0
  3  5  1  0
  4  6  2  0
  4  7  1  0
  6  8  1  0
  7  3  2  0
  8  9  1  0
  8  5  2  0
  9 10  1  0
 11 19  1  0
 12 17  1  0
 13 14  1  0
 13 12  1  0
 15 14  1  0
 15 24  1  0
 15 16  1  0
 17 11  1  0
 17 16  1  0
 18 11  2  0
 19 10  1  0
 19 20  1  0
 21 22  2  0
 22 41  1  0
 23 22  1  0
 23 26  1  0
 24 21  1  0
 24 25  1  0
 25 23  2  0
 26 27  1  0
 27 28  2  0
 29 32  1  0
 29 28  1  0
 30 29  2  0
 31 30  1  0
 31 26  2  0
 32 33  1  0
 33 34  1  0
 34 35  2  0
 36 35  1  0
 36 40  1  0
 37 36  2  0
 38 33  2  0
 38 37  1  0
 39 38  1  0
 41 42  1  0
 42 45  1  0
 42 44  1  0
 43 41  2  0
 46 47  1  0
 46 21  1  0
 48 46  1  0
 49 54  1  0
 49 51  1  0
 49 53  1  0
 50 51  1  0
 53 52  1  0
 55 57  1  0
 55 54  1  0
 56 67  2  0
 57 62  1  0
 58 66  1  0
 58 68  1  0
 59 65  1  0
 59 61  1  0
 60 66  1  0
 61 60  1  0
 62 61  2  0
 63 64  1  0
 63 57  2  0
 64 59  2  0
 65 58  1  0
 66 56  1  0
 68 70  2  0
 69 68  1  0
 71 69  1  0
 72 81  2  0
 72 77  1  0
 73 69  1  0
 73 77  1  0
 74 73  1  0
 75 76  1  0
 75 74  1  0
 76 72  1  0
 77 78  2  0
 78 79  1  0
 80 79  2  0
 81 80  1  0
 82 56  1  0
 82 83  1  0
 82 92  1  0
 83 86  1  0
 84 88  1  0
 84 83  1  0
 85 84  2  0
 88 87  1  0
 90 88  1  0
 90 91  1  0
 90 89  1  0
 92 95  1  1
 92 93  1  0
 94 92  1  0
M  ISO  4  11 100  19 100  54 101  55 101
M  END
>  <TORSDO>  (17) 
F 24

>  <SCORE>  (17) 
-12.778

>  <name>  (17) 
16

>  <ligand_id>  (17) 
16

>  <original_smiles>  (17) 
[H]c1c([H])c([H])c2c(c1[H])C([H])([H])C([H])([H])C([H])([H])C2([H])N([H])C(=O)C1([H])N(C(=O)C([H])(N([H])C(=O)C([H])(N([H])C([H])([H])[H])C([H])([H])[H])C(C([H])([H])[H])(C([H])([H])[H])C([H])([H])[H])C([H])([H])c2c([H])c(OC([H])([H])C(C([H])([H])C([H])([H])[H])(C([H])([H])C([H])([H])[H])C([H])([H])C([H])([H])c3c([H])c([H])c(C([H])([H])C([H])([H])N([H])C(=O)N4C([H])([H])C([H])([H])C([H])([H])C([H])(n5nc(-c6c([H])c([H])c(Oc7c([H])c([H])c(F)c([H])c7F)c([H])c6[H])c(C(=O)N([H])[H])c5N([H])[H])C4([H])[H])c([H])c3[H])c([H])c([H])c2C1([H])[H]

>  <smiles>  (17) 
[H]c1c([H])c([H])c2c(c1[H])C([H])([H])C([H])([H])C([H])([H])C2([H])N([H])C(=O)C1([H])N(C(=O)C([H])(N([H])C(=O)C([H])(N([H])C([H])([H])[H])C([H])([H])[H])C(C([H])([H])[H])(C([H])([H])[H])C([H])([H])[H])C([H])([H])c2c([H])c(OC([H])([H])C(C([H])([H])C([H])([H])[H])(C([H])([H])C([H])([H])[H])C([H])([H])C([H])([H])c3c([H])c([H])c(C([H])([H])C([H])([H])N([H])C(=O)N4C([H])([H])C([H])([H])C([H])([H])C([H])(n5nc(-c6c([H])c([H])c(Oc7c([H])c([H])c(F)c([H])c7F)c([H])c6[H])c(C(=O)N([H])[H])c5N([H])[H])C4([H])[H])c([H])c3[H])c([H])c([H])c2C1([H])[H]

$$$$
17:0:0
     RDKit          3D

 98105  0  0  1  0  0  0  0  0999 V2000
  -29.9510  -19.5250   22.0630 N   0  0  0  0  0  4  0  0  0  0  0  0
  -30.4260  -19.6750   21.1870 H   0  0  0  0  0  0  0  0  0  0  0  0
  -28.9750  -19.3720   21.8620 H   0  0  0  0  0  0  0  0  0  0  0  0
  -30.0980  -20.7480   22.8710 C   0  0  0  0  0  2  0  0  0  0  0  0
  -29.7340  -21.9890   22.0460 C   0  0  0  0  0  2  0  0  0  0  0  0
  -29.9660  -23.3030   22.8010 C   0  0  0  0  0  2  0  0  0  0  0  0
  -29.8860  -24.4930   21.8450 C   0  0  0  0  0  2  0  0  0  0  0  0
  -29.9400  -25.8550   22.5510 C   0  0  0  0  0  2  0  0  0  0  0  0
  -30.1190  -26.9820   21.5290 C   0  0  0  0  0  2  0  0  0  0  0  0
  -29.1680  -26.7990   20.4850 O   0  0  0  0  0  0  0  0  0  0  0  0
  -24.8190  -31.7800   23.2450 C   0  0  0  0  0  0  0  0  0  0  0  0
  -27.9670  -27.4700   20.5100 C   0  0  0  0  0  0  0  0  0  0  0  0
  -23.8190  -30.2570   21.5660 C   0  0  0  0  0  3  0  0  0  0  0  0
  -25.4640  -28.7680   20.3130 C   0  0  0  0  0  0  0  0  0  0  0  0
  -26.3160  -30.7800   21.5300 C   0  0  0  0  0  2  0  0  0  0  0  0
  -26.5310  -29.3950   20.9640 C   0  0  0  0  0  0  0  0  0  0  0  0
  -27.7780  -28.7540   21.0740 C   0  0  0  0  0  3  0  0  0  0  0  0
  -26.8810  -26.8450   19.8630 C   0  0  0  0  0  3  0  0  0  0  0  0
  -25.6280  -27.4830   19.7660 C   0  0  0  0  0  3  0  0  0  0  0  0
  -24.1680  -29.5420   20.2320 C   0  0  0  0  0  2  0  0  0  0  0  0
  -24.9980  -30.9560   22.1740 N   0  0  0  0  0  0  0  0  0  0  0  0
  -23.6890  -32.0010   23.7000 O   0  0  0  0  0  0  0  0  0  0  0  0
  -23.1630  -29.2290   22.5140 C   0  0  0  0  0  0  0  0  0  0  0  0
  -21.8550  -28.9930   22.3230 N   0  0  0  0  0  0  0  0  0  0  0  0
  -23.8290  -28.6440   23.3720 O   0  0  0  0  0  0  0  0  0  0  0  0
  -21.3810  -29.5150   21.5990 H   0  0  0  0  0  0  0  0  0  0  0  0
  -18.4920  -27.7450   22.7220 C   0  0  0  0  0  0  0  0  0  0  0  0
  -21.0370  -28.0390   23.0680 C   0  0  0  0  0  3  0  0  0  0  0  0
  -21.1780  -26.6140   22.4880 C   0  0  0  0  0  2  0  0  0  0  0  0
  -20.1110  -26.2800   21.4420 C   0  0  0  0  0  2  0  0  0  0  0  0
  -18.7090  -26.4020   22.0460 C   0  0  0  0  0  2  0  0  0  0  0  0
  -19.5860  -28.5210   23.1870 C   0  0  0  0  0  0  0  0  0  0  0  0
  -19.3330  -29.7800   23.7750 C   0  0  0  0  0  3  0  0  0  0  0  0
  -18.0170  -30.2620   23.9050 C   0  0  0  0  0  3  0  0  0  0  0  0
  -16.9370  -29.4820   23.4580 C   0  0  0  0  0  3  0  0  0  0  0  0
  -17.1750  -28.2260   22.8720 C   0  0  0  0  0  3  0  0  0  0  0  0
  -26.0210  -32.5020   23.9330 C   0  0  0  0  0  3  0  0  0  0  0  0
  -25.5930  -33.8720   24.2460 N   0  0  0  0  0  0  0  0  0  0  0  0
  -25.8850  -34.9480   23.5020 C   0  0  0  0  0  0  0  0  0  0  0  0
  -26.6140  -34.8990   22.5090 O   0  0  0  0  0  0  0  0  0  0  0  0
  -24.9480  -33.9790   25.0160 H   0  0  0  0  0  0  0  0  0  0  0  0
  -24.0460  -36.6020   23.0510 C   0  0  0  0  0  1  0  0  0  0  0  0
  -25.2680  -36.2930   23.9310 C   0  0  0  0  0  3  0  0  0  0  0  0
  -27.2880  -37.3280   24.8660 C   0  0  0  0  0  1  0  0  0  0  0  0
  -26.2210  -37.4230   23.8720 N   0  0  0  0  0  0  0  0  0  0  0  0
  -25.7400  -38.3080   24.0090 H   0  0  0  0  0  0  0  0  0  0  0  0
  -26.5320  -31.7640   25.2300 C   0  0  1  0  0  0  0  0  0  0  0  0
  -25.4020  -31.3820   26.2130 C   0  0  0  0  0  1  0  0  0  0  0  0
  -27.2920  -30.4710   24.8550 C   0  0  0  0  0  1  0  0  0  0  0  0
  -27.5390  -32.6650   25.9850 C   0  0  0  0  0  1  0  0  0  0  0  0
  -30.5180  -18.3180   22.6920 C   0  0  0  0  0  2  0  0  0  0  0  0
  -30.5820  -17.1510   21.6970 C   0  0  0  0  0  2  0  0  0  0  0  0
  -31.2870  -15.9250   22.2930 C   0  0  0  0  0  2  0  0  0  0  0  0
  -31.7250  -14.9050   21.2300 C   0  0  0  0  0  3  0  0  0  0  0  0
  -30.2820  -14.0740   19.3520 C   0  0  0  0  0  0  0  0  0  0  0  0
  -29.5380  -12.1870   17.9690 C   0  0  0  0  0  2  0  0  0  0  0  0
  -28.3450  -12.4550   17.0420 C   0  0  0  0  0  2  0  0  0  0  0  0
  -27.0220  -12.2370   17.7920 C   0  0  0  0  0  2  0  0  0  0  0  0
  -26.9710  -13.0140   19.1310 C   0  0  0  0  0  3  0  0  0  0  0  0
  -28.2390  -12.7600   19.9720 C   0  0  0  0  0  2  0  0  0  0  0  0
  -29.4310  -13.0460   19.1510 N   0  0  0  0  0  0  0  0  0  0  0  0
  -30.9550  -14.6010   18.4610 O   0  0  0  0  0  0  0  0  0  0  0  0
  -30.5420  -14.2580   20.6520 N   0  0  0  0  0  0  0  0  0  0  0  0
  -29.9550  -13.7330   21.2840 H   0  0  0  0  0  0  0  0  0  0  0  0
  -24.7780  -13.5470   20.3780 C   0  0  0  0  0  0  0  0  0  0  0  0
  -23.8210  -12.7370   20.9280 C   0  0  0  0  0  0  0  0  0  0  0  0
  -24.2730  -11.3970   20.7260 C   0  0  0  0  0  0  0  0  0  0  0  0
  -25.7550  -12.6970   19.8790 N   0  0  0  0  0  0  0  0  0  0  0  0
  -25.4640  -11.3960   20.1430 N   0  0  0  0  0  0  0  0  0  0  0  0
  -23.6140  -10.1140   21.0010 C   0  0  0  0  0  0  0  0  0  0  0  0
  -24.1800   -9.1680   21.8840 C   0  0  0  0  0  3  0  0  0  0  0  0
  -23.5190   -7.9500   22.1460 C   0  0  0  0  0  3  0  0  0  0  0  0
  -22.2780   -7.6670   21.5270 C   0  0  0  0  0  0  0  0  0  0  0  0
  -21.7310   -8.6020   20.6300 C   0  0  0  0  0  3  0  0  0  0  0  0
  -22.3930   -9.8120   20.3660 C   0  0  0  0  0  3  0  0  0  0  0  0
  -21.5770   -6.4980   21.7010 O   0  0  0  0  0  0  0  0  0  0  0  0
  -21.6070   -5.8110   22.8880 C   0  0  0  0  0  0  0  0  0  0  0  0
  -21.1980   -6.4050   24.1020 C   0  0  0  0  0  3  0  0  0  0  0  0
  -21.1790   -5.6420   25.2870 C   0  0  0  0  0  3  0  0  0  0  0  0
  -21.5570   -4.2870   25.2590 C   0  0  0  0  0  0  0  0  0  0  0  0
  -21.9590   -3.6930   24.0490 C   0  0  0  0  0  3  0  0  0  0  0  0
  -21.9800   -4.4520   22.8670 C   0  0  0  0  0  0  0  0  0  0  0  0
  -22.3480   -3.8700   21.7000 F   0  0  0  0  0  0  0  0  0  0  0  0
  -21.5310   -3.5510   26.3950 F   0  0  0  0  0  0  0  0  0  0  0  0
  -22.5130  -13.1740   21.5230 C   0  0  0  0  0  0  0  0  0  0  0  0
  -22.0130  -12.4400   22.5110 N   0  0  0  0  0  0  0  0  0  0  0  0
  -21.9510  -14.2020   21.1460 O   0  0  0  0  0  0  0  0  0  0  0  0
  -22.4850  -11.6100   22.8350 H   0  0  0  0  0  0  0  0  0  0  0  0
  -21.1460  -12.7140   22.9500 H   0  0  0  0  0  0  0  0  0  0  0  0
  -24.8940  -14.9260   20.2420 N   0  0  0  0  0  0  0  0  0  0  0  0
  -24.1670  -15.5650   20.5480 H   0  0  0  0  0  0  0  0  0  0  0  0
  -25.6590  -15.3940   19.7710 H   0  0  0  0  0  0  0  0  0  0  0  0
  -32.6990  -13.8630   21.8390 C   0  0  0  0  0  2  0  0  0  0  0  0
  -33.3030  -12.8740   20.8310 C   0  0  0  0  0  0  0  0  0  0  0  0
  -33.2100  -11.5780   21.1020 N   0  0  0  0  0  0  0  0  0  0  0  0
  -33.8660  -13.2720   19.8130 O   0  0  0  0  0  0  0  0  0  0  0  0
  -32.7490  -11.2600   21.9420 H   0  0  0  0  0  0  0  0  0  0  0  0
  -33.6040  -10.8930   20.4710 H   0  0  0  0  0  0  0  0  0  0  0  0
  1 51  1  0
  1  4  1  0
  2  1  1  0
  3  1  1  0
  5  6  1  0
  5  4  1  0
  7  8  1  0
  7  6  1  0
  9  8  1  0
 10 12  1  0
 10  9  1  0
 11 22  2  0
 12 17  1  0
 13 21  1  0
 13 23  1  0
 14 16  1  0
 15 21  1  0
 16 17  2  0
 16 15  1  0
 18 12  2  0
 19 18  1  0
 19 14  2  0
 20 14  1  0
 20 13  1  0
 21 11  1  0
 23 25  2  0
 24 23  1  0
 26 24  1  0
 27 36  2  0
 27 32  1  0
 28 24  1  0
 28 32  1  0
 29 28  1  0
 30 31  1  0
 30 29  1  0
 31 27  1  0
 32 33  2  0
 33 34  1  0
 35 34  2  0
 36 35  1  0
 37 11  1  0
 37 38  1  0
 37 47  1  0
 38 41  1  0
 39 43  1  0
 39 38  1  0
 40 39  2  0
 43 42  1  0
 45 43  1  0
 45 46  1  0
 45 44  1  0
 47 50  1  1
 47 48  1  0
 49 47  1  0
 52 53  1  0
 52 51  1  0
 54 93  1  0
 54 53  1  0
 55 63  1  0
 56 61  1  0
 57 58  1  0
 57 56  1  0
 59 58  1  0
 59 68  1  0
 59 60  1  0
 61 55  1  0
 61 60  1  0
 62 55  2  0
 63 54  1  0
 63 64  1  0
 65 66  2  0
 66 85  1  0
 67 66  1  0
 67 70  1  0
 68 69  1  0
 68 65  1  0
 69 67  2  0
 70 71  1  0
 71 72  2  0
 73 76  1  0
 73 72  1  0
 74 73  2  0
 75 74  1  0
 75 70  2  0
 76 77  1  0
 77 78  1  0
 78 79  2  0
 80 79  1  0
 80 84  1  0
 81 80  2  0
 82 77  2  0
 82 81  1  0
 83 82  1  0
 85 86  1  0
 86 88  1  0
 86 89  1  0
 87 85  2  0
 90 65  1  0
 90 91  1  0
 92 90  1  0
 94 95  1  0
 94 93  1  0
 95 97  1  0
 96 94  2  0
 98 95  1  0
M  ISO  4   9 101  10 101  55 100  63 100
M  END
>  <TORSDO>  (18) 
F 28

>  <SCORE>  (18) 
-7.771

>  <name>  (18) 
17

>  <ligand_id>  (18) 
17

>  <original_smiles>  (18) 
[H]c1c([H])c([H])c2c(c1[H])C([H])([H])C([H])([H])C([H])([H])C2([H])N([H])C(=O)C1([H])N(C(=O)C([H])(N([H])C(=O)C([H])(N([H])C([H])([H])[H])C([H])([H])[H])C(C([H])([H])[H])(C([H])([H])[H])C([H])([H])[H])C([H])([H])c2c([H])c(OC([H])([H])C([H])([H])C([H])([H])C([H])([H])C([H])([H])C([H])([H])[N+]([H])([H])C([H])([H])C([H])([H])C([H])([H])C([H])(N([H])C(=O)N3C([H])([H])C([H])([H])C([H])([H])C([H])(n4nc(-c5c([H])c([H])c(Oc6c([H])c([H])c(F)c([H])c6F)c([H])c5[H])c(C(=O)N([H])[H])c4N([H])[H])C3([H])[H])C([H])([H])C(=O)N([H])[H])c([H])c([H])c2C1([H])[H]

>  <smiles>  (18) 
[H]c1c([H])c([H])c2c(c1[H])C([H])([H])C([H])([H])C([H])([H])C2([H])N([H])C(=O)C1([H])N(C(=O)C([H])(N([H])C(=O)C([H])(N([H])C([H])([H])[H])C([H])([H])[H])C(C([H])([H])[H])(C([H])([H])[H])C([H])([H])[H])C([H])([H])c2c([H])c(OC([H])([H])C([H])([H])C([H])([H])C([H])([H])C([H])([H])C([H])([H])[N+]([H])([H])C([H])([H])C([H])([H])C([H])([H])C([H])(N([H])C(=O)N3C([H])([H])C([H])([H])C([H])([H])C([H])(n4nc(-c5c([H])c([H])c(Oc6c([H])c([H])c(F)c([H])c6F)c([H])c5[H])c(C(=O)N([H])[H])c4N([H])[H])C3([H])[H])C([H])([H])C(=O)N([H])[H])c([H])c([H])c2C1([H])[H]

$$$$
18:0:0
     RDKit          3D

 94102  0  0  1  0  0  0  0  0999 V2000
  -28.1260  -22.7910   17.6780 C   0  0  0  0  0  0  0  0  0  0  0  0
  -28.9780  -23.7870   17.9500 N   0  0  0  0  0  0  0  0  0  0  0  0
  -26.9220  -22.9880   17.4960 O   0  0  0  0  0  0  0  0  0  0  0  0
  -29.9570  -23.5430   18.0320 H   0  0  0  0  0  0  0  0  0  0  0  0
  -28.5800  -19.2110   16.1920 C   0  0  0  0  0  2  0  0  0  0  0  0
  -28.7380  -20.7490   16.2280 C   0  0  0  0  0  2  0  0  0  0  0  0
  -29.1400  -18.5410   17.4530 C   0  0  0  0  0  2  0  0  0  0  0  0
  -27.8800  -20.4570   18.6160 C   0  0  0  0  0  2  0  0  0  0  0  0
  -28.6990  -21.3550   17.6610 C   0  0  0  0  0  3  0  0  0  0  0  0
  -28.3830  -18.9950   18.7240 C   0  0  0  0  0  3  0  0  0  0  0  0
  -29.1760  -18.6930   20.0210 C   0  0  0  0  0  2  0  0  0  0  0  0
  -29.2170  -17.1790   20.2970 C   0  0  0  0  0  2  0  0  0  0  0  0
  -30.0810  -16.7210   21.4910 C   0  0  0  0  0  2  0  0  0  0  0  0
  -30.6830  -14.3980   20.8300 C   0  0  0  0  0  0  0  0  0  0  0  0
  -30.4630  -12.3150   19.5340 C   0  0  0  0  0  2  0  0  0  0  0  0
  -29.5410  -12.5530   18.3210 C   0  0  0  0  0  2  0  0  0  0  0  0
  -28.0540  -12.3900   18.6990 C   0  0  0  0  0  2  0  0  0  0  0  0
  -27.6760  -13.1650   19.9870 C   0  0  0  0  0  3  0  0  0  0  0  0
  -28.6960  -12.8700   21.1080 C   0  0  0  0  0  2  0  0  0  0  0  0
  -30.0450  -13.2190   20.6150 N   0  0  0  0  0  0  0  0  0  0  0  0
  -31.7470  -14.7110   20.2820 O   0  0  0  0  0  0  0  0  0  0  0  0
  -30.0010  -15.2640   21.5890 N   0  0  0  0  0  0  0  0  0  0  0  0
  -29.1920  -14.8820   22.0580 H   0  0  0  0  0  0  0  0  0  0  0  0
  -25.2310  -13.7270   20.5770 C   0  0  0  0  0  0  0  0  0  0  0  0
  -24.1660  -12.9310   20.9070 C   0  0  0  0  0  0  0  0  0  0  0  0
  -24.6600  -11.5910   20.9110 C   0  0  0  0  0  0  0  0  0  0  0  0
  -26.3070  -12.8680   20.4040 N   0  0  0  0  0  0  0  0  0  0  0  0
  -25.9620  -11.5800   20.6550 N   0  0  0  0  0  0  0  0  0  0  0  0
  -23.9600  -10.3120   21.0870 C   0  0  0  0  0  0  0  0  0  0  0  0
  -24.3780   -9.3690   22.0490 C   0  0  0  0  0  3  0  0  0  0  0  0
  -23.6800   -8.1520   22.2110 C   0  0  0  0  0  3  0  0  0  0  0  0
  -22.5520   -7.8700   21.4050 C   0  0  0  0  0  0  0  0  0  0  0  0
  -22.1540   -8.8030   20.4300 C   0  0  0  0  0  3  0  0  0  0  0  0
  -22.8530  -10.0110   20.2690 C   0  0  0  0  0  3  0  0  0  0  0  0
  -21.8290   -6.7050   21.4730 O   0  0  0  0  0  0  0  0  0  0  0  0
  -21.7380   -5.9810   22.6340 C   0  0  0  0  0  0  0  0  0  0  0  0
  -21.2050   -6.5350   23.8180 C   0  0  0  0  0  3  0  0  0  0  0  0
  -21.0660   -5.7350   24.9690 C   0  0  0  0  0  3  0  0  0  0  0  0
  -21.4470   -4.3810   24.9370 C   0  0  0  0  0  0  0  0  0  0  0  0
  -21.9740   -3.8250   23.7570 C   0  0  0  0  0  3  0  0  0  0  0  0
  -22.1150   -4.6220   22.6080 C   0  0  0  0  0  0  0  0  0  0  0  0
  -22.6000   -4.0770   21.4670 F   0  0  0  0  0  0  0  0  0  0  0  0
  -21.3060   -3.6090   26.0390 F   0  0  0  0  0  0  0  0  0  0  0  0
  -22.7480  -13.3750   21.1230 C   0  0  0  0  0  0  0  0  0  0  0  0
  -22.0100  -12.6630   21.9690 N   0  0  0  0  0  0  0  0  0  0  0  0
  -22.3010  -14.3830   20.5800 O   0  0  0  0  0  0  0  0  0  0  0  0
  -22.3870  -11.8470   22.4280 H   0  0  0  0  0  0  0  0  0  0  0  0
  -21.0570  -12.9370   22.1600 H   0  0  0  0  0  0  0  0  0  0  0  0
  -25.3720  -15.1010   20.3910 N   0  0  0  0  0  0  0  0  0  0  0  0
  -24.5910  -15.7440   20.4450 H   0  0  0  0  0  0  0  0  0  0  0  0
  -26.2360  -15.5510   20.1200 H   0  0  0  0  0  0  0  0  0  0  0  0
  -28.6200  -25.1810   18.2360 C   0  0  0  0  0  2  0  0  0  0  0  0
  -28.4560  -25.4120   19.7560 C   0  0  0  0  0  2  0  0  0  0  0  0
  -28.4100  -26.7940   20.1340 O   0  0  0  0  0  0  0  0  0  0  0  0
  -24.5660  -31.9040   23.2760 C   0  0  0  0  0  0  0  0  0  0  0  0
  -27.2050  -27.4660   20.1610 C   0  0  0  0  0  0  0  0  0  0  0  0
  -23.3550  -30.5050   21.6360 C   0  0  0  0  0  3  0  0  0  0  0  0
  -24.8010  -28.9620   20.2140 C   0  0  0  0  0  0  0  0  0  0  0  0
  -25.8830  -30.8550   21.4380 C   0  0  0  0  0  2  0  0  0  0  0  0
  -25.9620  -29.4870   20.7930 C   0  0  0  0  0  0  0  0  0  0  0  0
  -27.1640  -28.7460   20.7630 C   0  0  0  0  0  3  0  0  0  0  0  0
  -26.0120  -26.9430   19.6040 C   0  0  0  0  0  3  0  0  0  0  0  0
  -24.8190  -27.6860   19.6270 C   0  0  0  0  0  3  0  0  0  0  0  0
  -23.5600  -29.8240   20.2590 C   0  0  0  0  0  2  0  0  0  0  0  0
  -24.6200  -31.1060   22.1730 N   0  0  0  0  0  0  0  0  0  0  0  0
  -23.4860  -32.1790   23.8160 O   0  0  0  0  0  0  0  0  0  0  0  0
  -22.7040  -29.4850   22.5960 C   0  0  0  0  0  0  0  0  0  0  0  0
  -21.3800  -29.2980   22.4600 N   0  0  0  0  0  0  0  0  0  0  0  0
  -23.3840  -28.8630   23.4150 O   0  0  0  0  0  0  0  0  0  0  0  0
  -20.8940  -29.8530   21.7700 H   0  0  0  0  0  0  0  0  0  0  0  0
  -18.0050  -28.1100   22.9450 C   0  0  0  0  0  0  0  0  0  0  0  0
  -20.5610  -28.3610   23.2260 C   0  0  0  0  0  3  0  0  0  0  0  0
  -20.6640  -26.9310   22.6470 C   0  0  0  0  0  2  0  0  0  0  0  0
  -19.5650  -26.6130   21.6290 C   0  0  0  0  0  2  0  0  0  0  0  0
  -18.1820  -26.7600   22.2690 C   0  0  0  0  0  2  0  0  0  0  0  0
  -19.1240  -28.8680   23.3800 C   0  0  0  0  0  0  0  0  0  0  0  0
  -18.9070  -30.1330   23.9700 C   0  0  0  0  0  3  0  0  0  0  0  0
  -17.6020  -30.6380   24.1300 C   0  0  0  0  0  3  0  0  0  0  0  0
  -16.4980  -29.8740   23.7140 C   0  0  0  0  0  3  0  0  0  0  0  0
  -16.7010  -28.6130   23.1260 C   0  0  0  0  0  3  0  0  0  0  0  0
  -25.8560  -32.5280   23.8960 C   0  0  0  0  0  3  0  0  0  0  0  0
  -25.5630  -33.9360   24.1980 N   0  0  0  0  0  0  0  0  0  0  0  0
  -25.9260  -34.9700   23.4270 C   0  0  0  0  0  0  0  0  0  0  0  0
  -26.6180  -34.8410   22.4140 O   0  0  0  0  0  0  0  0  0  0  0  0
  -24.9590  -34.1160   24.9860 H   0  0  0  0  0  0  0  0  0  0  0  0
  -24.2470  -36.7890   22.9840 C   0  0  0  0  0  1  0  0  0  0  0  0
  -25.4460  -36.3710   23.8510 C   0  0  0  0  0  3  0  0  0  0  0  0
  -27.5620  -37.2260   24.7540 C   0  0  0  0  0  1  0  0  0  0  0  0
  -26.5000  -37.4060   23.7690 N   0  0  0  0  0  0  0  0  0  0  0  0
  -26.1040  -38.3330   23.8960 H   0  0  0  0  0  0  0  0  0  0  0  0
  -26.3510  -31.7730   25.1910 C   0  0  1  0  0  0  0  0  0  0  0  0
  -25.2460  -31.5750   26.2540 C   0  0  0  0  0  1  0  0  0  0  0  0
  -26.9160  -30.3790   24.8310 C   0  0  0  0  0  1  0  0  0  0  0  0
  -27.5050  -32.5660   25.8530 C   0  0  0  0  0  1  0  0  0  0  0  0
  1  2  1  0
  2  4  1  0
  2 52  1  0
  3  1  2  0
  5  6  1  0
  5  7  1  0
  6  9  1  0
  7 10  1  0
  8 10  1  0
  9  1  1  0
  9  8  1  0
 10 11  1  0
 11 12  1  0
 12 13  1  0
 13 22  1  0
 14 22  1  0
 15 20  1  0
 16 17  1  0
 16 15  1  0
 18 17  1  0
 18 27  1  0
 18 19  1  0
 20 14  1  0
 20 19  1  0
 21 14  2  0
 22 23  1  0
 24 25  2  0
 25 26  1  0
 25 44  1  0
 26 29  1  0
 27 24  1  0
 27 28  1  0
 28 26  2  0
 29 30  1  0
 30 31  2  0
 32 35  1  0
 32 31  1  0
 33 32  2  0
 34 33  1  0
 34 29  2  0
 35 36  1  0
 36 37  1  0
 37 38  2  0
 39 38  1  0
 39 43  1  0
 40 39  2  0
 41 36  2  0
 41 40  1  0
 42 41  1  0
 44 45  1  0
 45 48  1  0
 45 47  1  0
 46 44  2  0
 49 50  1  0
 49 24  1  0
 51 49  1  0
 52 53  1  0
 53 54  1  0
 54 56  1  0
 55 66  2  0
 56 61  1  0
 57 65  1  0
 57 67  1  0
 58 64  1  0
 58 60  1  0
 59 65  1  0
 60 59  1  0
 61 60  2  0
 62 63  1  0
 62 56  2  0
 63 58  2  0
 64 57  1  0
 65 55  1  0
 67 69  2  0
 68 67  1  0
 70 68  1  0
 71 80  2  0
 71 76  1  0
 72 68  1  0
 72 76  1  0
 73 72  1  0
 74 75  1  0
 74 73  1  0
 75 71  1  0
 76 77  2  0
 77 78  1  0
 79 78  2  0
 80 79  1  0
 81 55  1  0
 81 82  1  0
 81 91  1  0
 82 85  1  0
 83 87  1  0
 83 82  1  0
 84 83  2  0
 87 86  1  0
 89 87  1  0
 89 90  1  0
 89 88  1  0
 91 94  1  1
 91 92  1  0
 93 91  1  0
M  ISO  4  14 100  22 100  53 101  54 101
M  END
>  <TORSDO>  (19) 
F 22

>  <SCORE>  (19) 
-12.904

>  <name>  (19) 
18

>  <ligand_id>  (19) 
18

>  <original_smiles>  (19) 
[H]c1c([H])c([H])c2c(c1[H])C([H])([H])C([H])([H])C([H])([H])C2([H])N([H])C(=O)C1([H])N(C(=O)C([H])(N([H])C(=O)C([H])(N([H])C([H])([H])[H])C([H])([H])[H])C(C([H])([H])[H])(C([H])([H])[H])C([H])([H])[H])C([H])([H])c2c([H])c(OC([H])([H])C([H])([H])N([H])C(=O)C3([H])C([H])([H])C([H])([H])C([H])([H])C([H])(C([H])([H])C([H])([H])C([H])([H])N([H])C(=O)N4C([H])([H])C([H])([H])C([H])([H])C([H])(n5nc(-c6c([H])c([H])c(Oc7c([H])c([H])c(F)c([H])c7F)c([H])c6[H])c(C(=O)N([H])[H])c5N([H])[H])C4([H])[H])C3([H])[H])c([H])c([H])c2C1([H])[H]

>  <smiles>  (19) 
[H]c1c([H])c([H])c2c(c1[H])C([H])([H])C([H])([H])C([H])([H])C2([H])N([H])C(=O)C1([H])N(C(=O)C([H])(N([H])C(=O)C([H])(N([H])C([H])([H])[H])C([H])([H])[H])C(C([H])([H])[H])(C([H])([H])[H])C([H])([H])[H])C([H])([H])c2c([H])c(OC([H])([H])C([H])([H])N([H])C(=O)C3([H])C([H])([H])C([H])([H])C([H])([H])C([H])(C([H])([H])C([H])([H])C([H])([H])N([H])C(=O)N4C([H])([H])C([H])([H])C([H])([H])C([H])(n5nc(-c6c([H])c([H])c(Oc7c([H])c([H])c(F)c([H])c7F)c([H])c6[H])c(C(=O)N([H])[H])c5N([H])[H])C4([H])[H])C3([H])[H])c([H])c([H])c2C1([H])[H]

$$$$
19:0:0
     RDKit          3D

 90 99  0  0  1  0  0  0  0  0999 V2000
  -28.8520  -18.8630   20.1330 C   0  0  0  0  0  0  0  0  0  0  0  0
  -31.3320  -20.7270   19.8390 C   0  0  0  0  0  2  0  0  0  0  0  0
  -30.4870  -21.9640   19.4520 C   0  0  0  0  0  2  0  0  0  0  0  0
  -30.9600  -18.5090   21.2210 C   0  0  0  0  0  2  0  0  0  0  0  0
  -29.1710  -20.3200   20.7840 C   0  0  0  0  0  3  0  0  0  0  0  0
  -30.0210  -17.7310   20.2680 C   0  0  0  0  0  3  0  0  0  0  0  0
  -30.6650  -20.0620   21.0590 C   0  0  0  0  0  3  0  0  0  0  0  0
  -29.0510  -21.8190   20.0150 C   0  0  0  0  0  3  0  0  0  0  0  0
  -27.7720  -18.6450   19.5820 O   0  0  0  0  0  0  0  0  0  0  0  0
  -30.5210  -15.0090   20.3440 C   0  0  0  0  0  0  0  0  0  0  0  0
  -30.3900  -12.6660   19.3840 C   0  0  0  0  0  2  0  0  0  0  0  0
  -29.4550  -12.6440   18.1530 C   0  0  0  0  0  2  0  0  0  0  0  0
  -27.9920  -12.4330   18.5850 C   0  0  0  0  0  2  0  0  0  0  0  0
  -27.5910  -13.3410   19.7780 C   0  0  0  0  0  3  0  0  0  0  0  0
  -28.6500  -13.3350   20.9010 C   0  0  0  0  0  2  0  0  0  0  0  0
  -29.9220  -13.7490   20.2970 N   0  0  0  0  0  0  0  0  0  0  0  0
  -31.7110  -15.0770   20.0210 O   0  0  0  0  0  0  0  0  0  0  0  0
  -29.7540  -16.1890   20.5430 N   0  0  0  0  0  0  0  0  0  0  0  0
  -28.7950  -15.9960   20.7880 H   0  0  0  0  0  0  0  0  0  0  0  0
  -25.2110  -13.9100   20.5270 C   0  0  0  0  0  0  0  0  0  0  0  0
  -24.1490  -13.1300   20.8950 C   0  0  0  0  0  0  0  0  0  0  0  0
  -24.6160  -11.7800   20.8540 C   0  0  0  0  0  0  0  0  0  0  0  0
  -26.2560  -13.0360   20.2770 N   0  0  0  0  0  0  0  0  0  0  0  0
  -25.9060  -11.7490   20.5400 N   0  0  0  0  0  0  0  0  0  0  0  0
  -23.8910  -10.5160   21.0370 C   0  0  0  0  0  0  0  0  0  0  0  0
  -24.3170   -9.5490   21.9750 C   0  0  0  0  0  3  0  0  0  0  0  0
  -23.5910   -8.3500   22.1470 C   0  0  0  0  0  3  0  0  0  0  0  0
  -22.4250   -8.1100   21.3820 C   0  0  0  0  0  0  0  0  0  0  0  0
  -22.0180   -9.0670   20.4330 C   0  0  0  0  0  3  0  0  0  0  0  0
  -22.7460  -10.2550   20.2590 C   0  0  0  0  0  3  0  0  0  0  0  0
  -21.6710   -6.9650   21.4630 O   0  0  0  0  0  0  0  0  0  0  0  0
  -21.6010   -6.2290   22.6200 C   0  0  0  0  0  0  0  0  0  0  0  0
  -21.1300   -6.7850   23.8300 C   0  0  0  0  0  3  0  0  0  0  0  0
  -21.0090   -5.9760   24.9770 C   0  0  0  0  0  3  0  0  0  0  0  0
  -21.3490   -4.6110   24.9150 C   0  0  0  0  0  0  0  0  0  0  0  0
  -21.8120   -4.0540   23.7100 C   0  0  0  0  0  3  0  0  0  0  0  0
  -21.9340   -4.8610   22.5650 C   0  0  0  0  0  0  0  0  0  0  0  0
  -22.3610   -4.3150   21.4010 F   0  0  0  0  0  0  0  0  0  0  0  0
  -21.2250   -3.8300   26.0140 F   0  0  0  0  0  0  0  0  0  0  0  0
  -22.7520  -13.6030   21.1690 C   0  0  0  0  0  0  0  0  0  0  0  0
  -22.0210  -12.8980   22.0260 N   0  0  0  0  0  0  0  0  0  0  0  0
  -22.3150  -14.6350   20.6600 O   0  0  0  0  0  0  0  0  0  0  0  0
  -22.3860  -12.0640   22.4620 H   0  0  0  0  0  0  0  0  0  0  0  0
  -21.0830  -13.1960   22.2480 H   0  0  0  0  0  0  0  0  0  0  0  0
  -25.3690  -15.2830   20.3570 N   0  0  0  0  0  0  0  0  0  0  0  0
  -24.5960  -15.9280   20.4780 H   0  0  0  0  0  0  0  0  0  0  0  0
  -26.2000  -15.7320   19.9930 H   0  0  0  0  0  0  0  0  0  0  0  0
  -28.6090  -23.3110   20.7030 C   0  0  0  0  0  3  0  0  0  0  0  0
  -28.2860  -24.7450   19.8650 C   0  0  0  0  0  3  0  0  0  0  0  0
  -28.2620  -26.2230   20.3770 O   0  0  0  0  0  0  0  0  0  0  0  0
  -24.6120  -31.9310   23.2330 C   0  0  0  0  0  0  0  0  0  0  0  0
  -27.1930  -27.1870   20.2480 C   0  0  0  0  0  0  0  0  0  0  0  0
  -23.4140  -30.5260   21.6010 C   0  0  0  0  0  3  0  0  0  0  0  0
  -24.8650  -28.9370   20.1900 C   0  0  0  0  0  0  0  0  0  0  0  0
  -25.9680  -30.7830   21.4430 C   0  0  0  0  0  2  0  0  0  0  0  0
  -26.0400  -29.3850   20.8050 C   0  0  0  0  0  0  0  0  0  0  0  0
  -27.1990  -28.5220   20.8230 C   0  0  0  0  0  3  0  0  0  0  0  0
  -25.9940  -26.8470   19.5800 C   0  0  0  0  0  3  0  0  0  0  0  0
  -24.8570  -27.6840   19.5610 C   0  0  0  0  0  3  0  0  0  0  0  0
  -23.6370  -29.8370   20.2280 C   0  0  0  0  0  2  0  0  0  0  0  0
  -24.6850  -31.1030   22.1470 N   0  0  0  0  0  0  0  0  0  0  0  0
  -23.5260  -32.2230   23.7560 O   0  0  0  0  0  0  0  0  0  0  0  0
  -22.7320  -29.5280   22.5690 C   0  0  0  0  0  0  0  0  0  0  0  0
  -21.4030  -29.3630   22.4420 N   0  0  0  0  0  0  0  0  0  0  0  0
  -23.4000  -28.9040   23.3980 O   0  0  0  0  0  0  0  0  0  0  0  0
  -20.9210  -29.9140   21.7460 H   0  0  0  0  0  0  0  0  0  0  0  0
  -18.0130  -28.1950   22.9610 C   0  0  0  0  0  0  0  0  0  0  0  0
  -20.5760  -28.4340   23.2180 C   0  0  0  0  0  3  0  0  0  0  0  0
  -20.6630  -27.0010   22.6470 C   0  0  0  0  0  2  0  0  0  0  0  0
  -19.5530  -26.6850   21.6380 C   0  0  0  0  0  2  0  0  0  0  0  0
  -18.1750  -26.8420   22.2860 C   0  0  0  0  0  2  0  0  0  0  0  0
  -19.1400  -28.9480   23.3840 C   0  0  0  0  0  0  0  0  0  0  0  0
  -18.9340  -30.2130   23.9770 C   0  0  0  0  0  3  0  0  0  0  0  0
  -17.6340  -30.7240   24.1500 C   0  0  0  0  0  3  0  0  0  0  0  0
  -16.5220  -29.9680   23.7420 C   0  0  0  0  0  3  0  0  0  0  0  0
  -16.7120  -28.7050   23.1520 C   0  0  0  0  0  3  0  0  0  0  0  0
  -25.8910  -32.5690   23.8590 C   0  0  0  0  0  3  0  0  0  0  0  0
  -25.5800  -33.9710   24.1820 N   0  0  0  0  0  0  0  0  0  0  0  0
  -25.9160  -35.0220   23.4220 C   0  0  0  0  0  0  0  0  0  0  0  0
  -26.5870  -34.9140   22.3930 O   0  0  0  0  0  0  0  0  0  0  0  0
  -24.9810  -34.1290   24.9790 H   0  0  0  0  0  0  0  0  0  0  0  0
  -24.2000  -36.8270   23.0570 C   0  0  0  0  0  1  0  0  0  0  0  0
  -25.4340  -36.4150   23.8760 C   0  0  0  0  0  3  0  0  0  0  0  0
  -27.5650  -37.2940   24.7240 C   0  0  0  0  0  1  0  0  0  0  0  0
  -26.4730  -37.4630   23.7690 N   0  0  0  0  0  0  0  0  0  0  0  0
  -26.0710  -38.3870   23.9060 H   0  0  0  0  0  0  0  0  0  0  0  0
  -26.3930  -31.8080   25.1480 C   0  0  1  0  0  0  0  0  0  0  0  0
  -25.2890  -31.5850   26.2090 C   0  0  0  0  0  1  0  0  0  0  0  0
  -26.9770  -30.4240   24.7790 C   0  0  0  0  0  1  0  0  0  0  0  0
  -27.5390  -32.6050   25.8130 C   0  0  0  0  0  1  0  0  0  0  0  0
  1  6  1  0
  3  2  1  0
  3  8  1  0
  5  1  1  0
  5  7  1  0
  6 18  1  0
  6  4  1  0
  7  2  1  0
  7  4  1  0
  8 48  1  0
  8  5  1  0
  9  1  2  0
 10 18  1  0
 11 16  1  0
 12 13  1  0
 12 11  1  0
 14 13  1  0
 14 23  1  0
 14 15  1  0
 16 10  1  0
 16 15  1  0
 17 10  2  0
 18 19  1  0
 20 21  2  0
 21 40  1  0
 22 21  1  0
 22 25  1  0
 23 20  1  0
 23 24  1  0
 24 22  2  0
 25 26  1  0
 26 27  2  0
 28 31  1  0
 28 27  1  0
 29 28  2  0
 30 29  1  0
 30 25  2  0
 31 32  1  0
 32 33  1  0
 33 34  2  0
 35 34  1  0
 35 39  1  0
 36 35  2  0
 37 32  2  0
 37 36  1  0
 38 37  1  0
 40 41  1  0
 41 44  1  0
 41 43  1  0
 42 40  2  0
 45 46  1  0
 45 20  1  0
 47 45  1  0
 49 50  1  0
 49 48  2  0
 51 62  2  0
 52 50  1  0
 52 57  1  0
 53 61  1  0
 53 63  1  0
 54 60  1  0
 54 56  1  0
 55 61  1  0
 56 57  2  0
 56 55  1  0
 58 52  2  0
 59 58  1  0
 59 54  2  0
 60 53  1  0
 61 51  1  0
 63 65  2  0
 64 63  1  0
 66 64  1  0
 67 76  2  0
 67 72  1  0
 68 64  1  0
 68 72  1  0
 69 68  1  0
 70 71  1  0
 70 69  1  0
 71 67  1  0
 72 73  2  0
 73 74  1  0
 75 74  2  0
 76 75  1  0
 77 51  1  0
 77 78  1  0
 77 87  1  0
 78 81  1  0
 79 83  1  0
 79 78  1  0
 80 79  2  0
 83 82  1  0
 85 83  1  0
 85 86  1  0
 85 84  1  0
 87 90  1  1
 87 88  1  0
 89 87  1  0
M  ISO  4  10 100  18 100  49 101  50 101
M  END
>  <TORSDO>  (20) 
F 18

>  <SCORE>  (20) 
-15.515

>  <name>  (20) 
19

>  <ligand_id>  (20) 
19

>  <original_smiles>  (20) 
[H]c1c([H])c([H])c2c(c1[H])C([H])([H])C([H])([H])C([H])([H])C2([H])N([H])C(=O)C1([H])N(C(=O)C([H])(N([H])C(=O)C([H])(N([H])C([H])([H])[H])C([H])([H])[H])C(C([H])([H])[H])(C([H])([H])[H])C([H])([H])[H])C([H])([H])c2c([H])c(OC([H])([H])C([H])([H])C3([H])C([H])([H])C([H])([H])C4([H])C([H])([H])C([H])(N([H])C(=O)N5C([H])([H])C([H])([H])C([H])([H])C([H])(n6nc(-c7c([H])c([H])c(Oc8c([H])c([H])c(F)c([H])c8F)c([H])c7[H])c(C(=O)N([H])[H])c6N([H])[H])C5([H])[H])C(=O)C34[H])c([H])c([H])c2C1([H])[H]

>  <smiles>  (20) 
[H]c1c([H])c([H])c2c(c1[H])C([H])([H])C([H])([H])C([H])([H])C2([H])N([H])C(=O)C1([H])N(C(=O)C([H])(N([H])C(=O)C([H])(N([H])C([H])([H])[H])C([H])([H])[H])C(C([H])([H])[H])(C([H])([H])[H])C([H])([H])[H])C([H])([H])c2c([H])c(OC([H])([H])C([H])([H])C3([H])C([H])([H])C([H])([H])C4([H])C([H])([H])C([H])(N([H])C(=O)N5C([H])([H])C([H])([H])C([H])([H])C([H])(n6nc(-c7c([H])c([H])c(Oc8c([H])c([H])c(F)c([H])c8F)c([H])c7[H])c(C(=O)N([H])[H])c6N([H])[H])C5([H])[H])C(=O)C34[H])c([H])c([H])c2C1([H])[H]

$$$$
20:0:0
     RDKit          3D

 89 98  0  0  1  0  0  0  0  0999 V2000
  -30.9990  -18.6620   20.5820 C   0  0  0  0  0  0  0  0  0  0  0  0
  -30.6170  -21.2910   19.9420 C   0  0  0  0  0  2  0  0  0  0  0  0
  -28.6350  -18.9040   20.3450 C   0  0  0  0  0  2  0  0  0  0  0  0
  -30.6150  -20.1260   20.9860 C   0  0  0  0  0  3  0  0  0  0  0  0
  -29.7450  -17.7700   20.7350 C   0  0  0  0  0  3  0  0  0  0  0  0
  -29.0820  -20.3190   21.0260 C   0  0  0  0  0  3  0  0  0  0  0  0
  -29.3760  -21.9340   20.6330 C   0  0  0  0  0  3  0  0  0  0  0  0
  -32.0850  -18.2530   20.1660 O   0  0  0  0  0  0  0  0  0  0  0  0
  -30.4890  -15.0540   20.2710 C   0  0  0  0  0  0  0  0  0  0  0  0
  -30.3990  -12.7080   19.2800 C   0  0  0  0  0  2  0  0  0  0  0  0
  -29.4470  -12.6560   18.0620 C   0  0  0  0  0  2  0  0  0  0  0  0
  -27.9910  -12.4240   18.5080 C   0  0  0  0  0  2  0  0  0  0  0  0
  -27.5870  -13.3360   19.6950 C   0  0  0  0  0  3  0  0  0  0  0  0
  -28.6560  -13.3430   20.8070 C   0  0  0  0  0  2  0  0  0  0  0  0
  -29.9120  -13.7850   20.1870 N   0  0  0  0  0  0  0  0  0  0  0  0
  -31.7020  -15.1330   20.0440 O   0  0  0  0  0  0  0  0  0  0  0  0
  -29.6550  -16.2030   20.4140 N   0  0  0  0  0  0  0  0  0  0  0  0
  -28.6940  -15.9030   20.4430 H   0  0  0  0  0  0  0  0  0  0  0  0
  -25.2070  -13.8940   20.4490 C   0  0  0  0  0  0  0  0  0  0  0  0
  -24.1540  -13.1100   20.8300 C   0  0  0  0  0  0  0  0  0  0  0  0
  -24.6320  -11.7640   20.8040 C   0  0  0  0  0  0  0  0  0  0  0  0
  -26.2570  -13.0260   20.2050 N   0  0  0  0  0  0  0  0  0  0  0  0
  -25.9220  -11.7400   20.4870 N   0  0  0  0  0  0  0  0  0  0  0  0
  -23.9210  -10.4950   21.0010 C   0  0  0  0  0  0  0  0  0  0  0  0
  -24.3660   -9.5350   21.9370 C   0  0  0  0  0  3  0  0  0  0  0  0
  -23.6510   -8.3320   22.1230 C   0  0  0  0  0  3  0  0  0  0  0  0
  -22.4760   -8.0800   21.3750 C   0  0  0  0  0  0  0  0  0  0  0  0
  -22.0510   -9.0290   20.4280 C   0  0  0  0  0  3  0  0  0  0  0  0
  -22.7660  -10.2230   20.2400 C   0  0  0  0  0  3  0  0  0  0  0  0
  -21.7320   -6.9300   21.4700 O   0  0  0  0  0  0  0  0  0  0  0  0
  -21.6960   -6.1900   22.6250 C   0  0  0  0  0  0  0  0  0  0  0  0
  -21.2700   -6.7460   23.8520 C   0  0  0  0  0  3  0  0  0  0  0  0
  -21.1800   -5.9330   24.9990 C   0  0  0  0  0  3  0  0  0  0  0  0
  -21.5080   -4.5650   24.9210 C   0  0  0  0  0  0  0  0  0  0  0  0
  -21.9280   -4.0100   23.6990 C   0  0  0  0  0  3  0  0  0  0  0  0
  -22.0180   -4.8200   22.5540 C   0  0  0  0  0  0  0  0  0  0  0  0
  -22.4020   -4.2760   21.3750 F   0  0  0  0  0  0  0  0  0  0  0  0
  -21.4150   -3.7820   26.0210 F   0  0  0  0  0  0  0  0  0  0  0  0
  -22.7520  -13.5740   21.1010 C   0  0  0  0  0  0  0  0  0  0  0  0
  -22.0320  -12.8730   21.9690 N   0  0  0  0  0  0  0  0  0  0  0  0
  -22.3040  -14.5930   20.5780 O   0  0  0  0  0  0  0  0  0  0  0  0
  -22.4090  -12.0480   22.4140 H   0  0  0  0  0  0  0  0  0  0  0  0
  -21.0930  -13.1650   22.1960 H   0  0  0  0  0  0  0  0  0  0  0  0
  -25.3510  -15.2650   20.2600 N   0  0  0  0  0  0  0  0  0  0  0  0
  -24.5640  -15.8990   20.3540 H   0  0  0  0  0  0  0  0  0  0  0  0
  -26.1650  -15.7070   19.8540 H   0  0  0  0  0  0  0  0  0  0  0  0
  -28.5600  -23.2700   19.9750 C   0  0  0  0  0  2  0  0  0  0  0  0
  -28.2880  -24.7670   20.7460 C   0  0  0  0  0  2  0  0  0  0  0  0
  -28.3540  -26.2440   20.2280 O   0  0  0  0  0  0  0  0  0  0  0  0
  -24.6340  -31.9020   23.2430 C   0  0  0  0  0  0  0  0  0  0  0  0
  -27.2610  -27.1880   20.2530 C   0  0  0  0  0  0  0  0  0  0  0  0
  -23.4510  -30.4890   21.6050 C   0  0  0  0  0  3  0  0  0  0  0  0
  -24.9160  -28.9120   20.1980 C   0  0  0  0  0  0  0  0  0  0  0  0
  -26.0020  -30.7760   21.4440 C   0  0  0  0  0  2  0  0  0  0  0  0
  -26.0900  -29.3770   20.8040 C   0  0  0  0  0  0  0  0  0  0  0  0
  -27.2670  -28.5340   20.8040 C   0  0  0  0  0  3  0  0  0  0  0  0
  -26.0580  -26.8170   19.6210 C   0  0  0  0  0  3  0  0  0  0  0  0
  -24.9120  -27.6460   19.5910 C   0  0  0  0  0  3  0  0  0  0  0  0
  -23.6820  -29.8030   20.2310 C   0  0  0  0  0  2  0  0  0  0  0  0
  -24.7150  -31.0790   22.1520 N   0  0  0  0  0  0  0  0  0  0  0  0
  -23.5440  -32.1810   23.7670 O   0  0  0  0  0  0  0  0  0  0  0  0
  -22.7750  -29.4840   22.5710 C   0  0  0  0  0  0  0  0  0  0  0  0
  -21.4470  -29.3070   22.4460 N   0  0  0  0  0  0  0  0  0  0  0  0
  -23.4500  -28.8610   23.3960 O   0  0  0  0  0  0  0  0  0  0  0  0
  -20.9590  -29.8600   21.7540 H   0  0  0  0  0  0  0  0  0  0  0  0
  -18.0710  -28.1000   22.9540 C   0  0  0  0  0  0  0  0  0  0  0  0
  -20.6300  -28.3680   23.2180 C   0  0  0  0  0  3  0  0  0  0  0  0
  -20.7350  -26.9360   22.6410 C   0  0  0  0  0  2  0  0  0  0  0  0
  -19.6320  -26.6130   21.6290 C   0  0  0  0  0  2  0  0  0  0  0  0
  -18.2490  -26.7520   22.2740 C   0  0  0  0  0  2  0  0  0  0  0  0
  -19.1890  -28.8650   23.3830 C   0  0  0  0  0  0  0  0  0  0  0  0
  -18.9650  -30.1240   23.9790 C   0  0  0  0  0  3  0  0  0  0  0  0
  -17.6590  -30.6200   24.1500 C   0  0  0  0  0  3  0  0  0  0  0  0
  -16.5560  -29.8520   23.7380 C   0  0  0  0  0  3  0  0  0  0  0  0
  -16.7630  -28.5940   23.1460 C   0  0  0  0  0  3  0  0  0  0  0  0
  -25.9060  -32.5490   23.8750 C   0  0  0  0  0  3  0  0  0  0  0  0
  -25.5870  -33.9490   24.1960 N   0  0  0  0  0  0  0  0  0  0  0  0
  -25.9160  -35.0010   23.4340 C   0  0  0  0  0  0  0  0  0  0  0  0
  -26.5850  -34.8960   22.4030 O   0  0  0  0  0  0  0  0  0  0  0  0
  -24.9960  -34.1050   25.0000 H   0  0  0  0  0  0  0  0  0  0  0  0
  -24.1800  -36.7860   23.0740 C   0  0  0  0  0  1  0  0  0  0  0  0
  -25.4240  -36.3910   23.8860 C   0  0  0  0  0  3  0  0  0  0  0  0
  -27.5560  -37.2900   24.7100 C   0  0  0  0  0  1  0  0  0  0  0  0
  -26.4540  -37.4480   23.7650 N   0  0  0  0  0  0  0  0  0  0  0  0
  -26.0430  -38.3670   23.9080 H   0  0  0  0  0  0  0  0  0  0  0  0
  -26.4110  -31.7920   25.1650 C   0  0  1  0  0  0  0  0  0  0  0  0
  -25.3090  -31.5630   26.2250 C   0  0  0  0  0  1  0  0  0  0  0  0
  -27.0000  -30.4110   24.7950 C   0  0  0  0  0  1  0  0  0  0  0  0
  -27.5560  -32.5940   25.8290 C   0  0  0  0  0  1  0  0  0  0  0  0
  1  5  1  0
  1  4  1  0
  2  7  1  0
  3  5  1  0
  4  2  1  0
  4  6  1  0
  5 17  1  0
  6  3  1  0
  7 47  1  0
  7  6  1  0
  8  1  2  0
  9 17  1  0
 10 15  1  0
 11 12  1  0
 11 10  1  0
 13 12  1  0
 13 22  1  0
 13 14  1  0
 15  9  1  0
 15 14  1  0
 16  9  2  0
 17 18  1  0
 19 20  2  0
 20 39  1  0
 21 20  1  0
 21 24  1  0
 22 19  1  0
 22 23  1  0
 23 21  2  0
 24 25  1  0
 25 26  2  0
 27 30  1  0
 27 26  1  0
 28 27  2  0
 29 28  1  0
 29 24  2  0
 30 31  1  0
 31 32  1  0
 32 33  2  0
 34 33  1  0
 34 38  1  0
 35 34  2  0
 36 31  2  0
 36 35  1  0
 37 36  1  0
 39 40  1  0
 40 43  1  0
 40 42  1  0
 41 39  2  0
 44 45  1  0
 44 19  1  0
 46 44  1  0
 47 48  1  0
 49 51  1  0
 49 48  1  0
 50 61  2  0
 51 56  1  0
 52 60  1  0
 52 62  1  0
 53 59  1  0
 53 55  1  0
 54 60  1  0
 55 56  2  0
 55 54  1  0
 57 51  2  0
 58 57  1  0
 58 53  2  0
 59 52  1  0
 60 50  1  0
 62 64  2  0
 63 62  1  0
 65 63  1  0
 66 75  2  0
 66 71  1  0
 67 63  1  0
 67 71  1  0
 68 67  1  0
 69 70  1  0
 69 68  1  0
 70 66  1  0
 71 72  2  0
 72 73  1  0
 74 73  2  0
 75 74  1  0
 76 50  1  0
 76 77  1  0
 76 86  1  0
 77 80  1  0
 78 82  1  0
 78 77  1  0
 79 78  2  0
 82 81  1  0
 84 82  1  0
 84 85  1  0
 84 83  1  0
 86 89  1  1
 86 87  1  0
 88 86  1  0
M  ISO  4   9 100  17 100  48 101  49 101
M  END
>  <TORSDO>  (21) 
F 18

>  <SCORE>  (21) 
-15.820

>  <name>  (21) 
20

>  <ligand_id>  (21) 
20

>  <original_smiles>  (21) 
[H]c1c([H])c([H])c2c(c1[H])C([H])([H])C([H])([H])C([H])([H])C2([H])N([H])C(=O)C1([H])N(C(=O)C([H])(N([H])C(=O)C([H])(N([H])C([H])([H])[H])C([H])([H])[H])C(C([H])([H])[H])(C([H])([H])[H])C([H])([H])[H])C([H])([H])c2c([H])c(OC([H])([H])C([H])([H])C3([H])C([H])([H])C4([H])C(=O)C([H])(N([H])C(=O)N5C([H])([H])C([H])([H])C([H])([H])C([H])(n6nc(-c7c([H])c([H])c(Oc8c([H])c([H])c(F)c([H])c8F)c([H])c7[H])c(C(=O)N([H])[H])c6N([H])[H])C5([H])[H])C([H])([H])C43[H])c([H])c([H])c2C1([H])[H]

>  <smiles>  (21) 
[H]c1c([H])c([H])c2c(c1[H])C([H])([H])C([H])([H])C([H])([H])C2([H])N([H])C(=O)C1([H])N(C(=O)C([H])(N([H])C(=O)C([H])(N([H])C([H])([H])[H])C([H])([H])[H])C(C([H])([H])[H])(C([H])([H])[H])C([H])([H])[H])C([H])([H])c2c([H])c(OC([H])([H])C([H])([H])C3([H])C([H])([H])C4([H])C(=O)C([H])(N([H])C(=O)N5C([H])([H])C([H])([H])C([H])([H])C([H])(n6nc(-c7c([H])c([H])c(Oc8c([H])c([H])c(F)c([H])c8F)c([H])c7[H])c(C(=O)N([H])[H])c6N([H])[H])C5([H])[H])C([H])([H])C43[H])c([H])c([H])c2C1([H])[H]

$$$$
21:0:0
     RDKit          3D

 99109  0  0  1  0  0  0  0  0999 V2000
  -29.8970  -23.8270   20.9470 C   0  0  0  0  0  3  0  0  0  0  0  0
  -28.9930  -24.7790   20.4400 C   0  0  0  0  0  3  0  0  0  0  0  0
  -30.8480  -25.9600   19.4010 C   0  0  0  0  0  3  0  0  0  0  0  0
  -31.2860  -23.9330   20.7000 C   0  0  0  0  0  0  0  0  0  0  0  0
  -29.4720  -25.8610   19.6750 C   0  0  0  0  0  0  0  0  0  0  0  0
  -31.7640  -25.0110   19.9050 C   0  0  0  0  0  0  0  0  0  0  0  0
  -31.5320  -21.1830   22.8760 C   0  0  0  0  0  3  0  0  0  0  0  0
  -31.7250  -20.5550   21.7120 C   0  0  0  0  0  0  0  0  0  0  0  0
  -31.8520  -22.6510   22.8290 C   0  0  0  0  0  2  0  0  0  0  0  0
  -32.2010  -21.5260   20.6560 C   0  0  0  0  0  2  0  0  0  0  0  0
  -32.2240  -22.9110   21.3500 C   0  0  0  0  0  3  0  0  0  0  0  0
  -30.6100  -18.3840   22.3240 C   0  0  0  0  0  3  0  0  0  0  0  0
  -31.9790  -18.5070   20.3140 C   0  0  0  0  0  3  0  0  0  0  0  0
  -30.3310  -17.0320   22.0480 C   0  0  0  0  0  3  0  0  0  0  0  0
  -31.7030  -17.1550   20.0400 C   0  0  0  0  0  3  0  0  0  0  0  0
  -31.4300  -19.1340   21.4520 C   0  0  0  0  0  0  0  0  0  0  0  0
  -30.8630  -16.4060   20.9000 C   0  0  0  0  0  0  0  0  0  0  0  0
  -30.8790  -14.1830   19.7320 C   0  0  0  0  0  0  0  0  0  0  0  0
  -30.4670  -11.9400   18.7840 C   0  0  0  0  0  2  0  0  0  0  0  0
  -29.4480  -11.9990   17.6310 C   0  0  0  0  0  2  0  0  0  0  0  0
  -28.0080  -11.9100   18.1680 C   0  0  0  0  0  2  0  0  0  0  0  0
  -27.7450  -12.9090   19.3250 C   0  0  0  0  0  3  0  0  0  0  0  0
  -28.8610  -12.8150   20.3890 C   0  0  0  0  0  2  0  0  0  0  0  0
  -30.1640  -13.0270   19.7260 N   0  0  0  0  0  0  0  0  0  0  0  0
  -31.8240  -14.3860   18.9640 O   0  0  0  0  0  0  0  0  0  0  0  0
  -30.5130  -15.0430   20.6950 N   0  0  0  0  0  0  0  0  0  0  0  0
  -29.7720  -14.6920   21.2830 H   0  0  0  0  0  0  0  0  0  0  0  0
  -25.4920  -13.6450   20.3390 C   0  0  0  0  0  0  0  0  0  0  0  0
  -24.3960  -12.9310   20.7440 C   0  0  0  0  0  0  0  0  0  0  0  0
  -24.7190  -11.5560   20.5290 C   0  0  0  0  0  0  0  0  0  0  0  0
  -26.4220  -12.7060   19.9130 N   0  0  0  0  0  0  0  0  0  0  0  0
  -25.9610  -11.4390   20.0790 N   0  0  0  0  0  0  0  0  0  0  0  0
  -23.8970  -10.3470   20.6730 C   0  0  0  0  0  0  0  0  0  0  0  0
  -24.2680   -9.3000   21.5450 C   0  0  0  0  0  3  0  0  0  0  0  0
  -23.4520   -8.1560   21.6780 C   0  0  0  0  0  3  0  0  0  0  0  0
  -22.2500   -8.0520   20.9380 C   0  0  0  0  0  0  0  0  0  0  0  0
  -21.8960   -9.0870   20.0550 C   0  0  0  0  0  3  0  0  0  0  0  0
  -22.7120  -10.2220   19.9190 C   0  0  0  0  0  3  0  0  0  0  0  0
  -21.4090   -6.9670   20.9840 O   0  0  0  0  0  0  0  0  0  0  0  0
  -21.2130   -6.2560   22.1420 C   0  0  0  0  0  0  0  0  0  0  0  0
  -20.7220   -6.8660   23.3160 C   0  0  0  0  0  3  0  0  0  0  0  0
  -20.4700   -6.0850   24.4630 C   0  0  0  0  0  3  0  0  0  0  0  0
  -20.6970   -4.6960   24.4330 C   0  0  0  0  0  0  0  0  0  0  0  0
  -21.1800   -4.0870   23.2620 C   0  0  0  0  0  3  0  0  0  0  0  0
  -21.4340   -4.8640   22.1180 C   0  0  0  0  0  0  0  0  0  0  0  0
  -21.8790   -4.2680   20.9860 F   0  0  0  0  0  0  0  0  0  0  0  0
  -20.4470   -3.9450   25.5300 F   0  0  0  0  0  0  0  0  0  0  0  0
  -23.0850  -13.4930   21.2150 C   0  0  0  0  0  0  0  0  0  0  0  0
  -22.3990  -12.7860   22.1040 N   0  0  0  0  0  0  0  0  0  0  0  0
  -22.6860  -14.5920   20.8300 O   0  0  0  0  0  0  0  0  0  0  0  0
  -22.7360  -11.8930   22.4360 H   0  0  0  0  0  0  0  0  0  0  0  0
  -21.5220  -13.1410   22.4600 H   0  0  0  0  0  0  0  0  0  0  0  0
  -25.7710  -15.0060   20.2810 N   0  0  0  0  0  0  0  0  0  0  0  0
  -25.0900  -15.7120   20.5370 H   0  0  0  0  0  0  0  0  0  0  0  0
  -26.6360  -15.4000   19.9320 H   0  0  0  0  0  0  0  0  0  0  0  0
  -33.7740  -26.5250   20.2360 C   0  0  0  0  0  1  0  0  0  0  0  0
  -33.2420  -25.2300   19.6080 C   0  0  0  0  0  2  0  0  0  0  0  0
  -28.5590  -26.9960   19.2550 C   0  0  0  0  0  2  0  0  0  0  0  0
  -27.2080  -26.5930   19.0330 O   0  0  0  0  0  0  0  0  0  0  0  0
  -24.6640  -31.5850   23.4510 C   0  0  0  0  0  0  0  0  0  0  0  0
  -26.2020  -27.4770   19.3670 C   0  0  0  0  0  0  0  0  0  0  0  0
  -23.0310  -30.5990   21.8710 C   0  0  0  0  0  3  0  0  0  0  0  0
  -24.0240  -29.1630   20.0120 C   0  0  0  0  0  0  0  0  0  0  0  0
  -25.5100  -30.7380   21.2710 C   0  0  0  0  0  2  0  0  0  0  0  0
  -25.3140  -29.4880   20.4440 C   0  0  0  0  0  0  0  0  0  0  0  0
  -26.4020  -28.6650   20.1120 C   0  0  0  0  0  3  0  0  0  0  0  0
  -24.8970  -27.1620   18.9360 C   0  0  0  0  0  3  0  0  0  0  0  0
  -23.8060  -27.9980   19.2540 C   0  0  0  0  0  3  0  0  0  0  0  0
  -22.9210  -30.1220   20.3960 C   0  0  0  0  0  2  0  0  0  0  0  0
  -24.4310  -30.9770   22.2540 N   0  0  0  0  0  0  0  0  0  0  0  0
  -23.7320  -31.8780   24.2110 O   0  0  0  0  0  0  0  0  0  0  0  0
  -22.4180  -29.5130   22.7830 C   0  0  0  0  0  0  0  0  0  0  0  0
  -21.1110  -29.2620   22.6130 N   0  0  0  0  0  0  0  0  0  0  0  0
  -23.1160  -28.9000   23.5960 O   0  0  0  0  0  0  0  0  0  0  0  0
  -20.6070  -29.8130   21.9300 H   0  0  0  0  0  0  0  0  0  0  0  0
  -17.9040  -27.6060   22.7170 C   0  0  0  0  0  0  0  0  0  0  0  0
  -20.3280  -28.2580   23.3300 C   0  0  0  0  0  3  0  0  0  0  0  0
  -20.7160  -26.8290   22.8850 C   0  0  0  0  0  2  0  0  0  0  0  0
  -19.8390  -26.2900   21.7510 C   0  0  0  0  0  2  0  0  0  0  0  0
  -18.3680  -26.2630   22.1800 C   0  0  0  0  0  2  0  0  0  0  0  0
  -18.8260  -28.5500   23.2410 C   0  0  0  0  0  0  0  0  0  0  0  0
  -18.3480  -29.7980   23.6940 C   0  0  0  0  0  3  0  0  0  0  0  0
  -16.9760  -30.1070   23.6330 C   0  0  0  0  0  3  0  0  0  0  0  0
  -16.0650  -29.1650   23.1260 C   0  0  0  0  0  3  0  0  0  0  0  0
  -16.5290  -27.9170   22.6730 C   0  0  0  0  0  3  0  0  0  0  0  0
  -26.1070  -31.9660   23.9090 C   0  0  0  0  0  3  0  0  0  0  0  0
  -26.7060  -30.9680   24.9760 C   0  0  1  0  0  0  0  0  0  0  0  0
  -25.7480  -30.6650   26.1510 C   0  0  0  0  0  1  0  0  0  0  0  0
  -27.0830  -29.6220   24.3140 C   0  0  0  0  0  1  0  0  0  0  0  0
  -28.0130  -31.5530   25.5640 C   0  0  0  0  0  1  0  0  0  0  0  0
  -26.0550  -33.3320   24.4460 N   0  0  0  0  0  0  0  0  0  0  0  0
  -26.5730  -34.4070   23.8370 C   0  0  0  0  0  0  0  0  0  0  0  0
  -27.2190  -34.3370   22.7870 O   0  0  0  0  0  0  0  0  0  0  0  0
  -25.4920  -33.4710   25.2720 H   0  0  0  0  0  0  0  0  0  0  0  0
  -25.2370  -36.5350   23.7410 C   0  0  0  0  0  1  0  0  0  0  0  0
  -26.3390  -35.7780   24.4990 C   0  0  0  0  0  3  0  0  0  0  0  0
  -28.5700  -36.0800   25.4800 C   0  0  0  0  0  1  0  0  0  0  0  0
  -27.5580  -36.6130   24.5710 N   0  0  0  0  0  0  0  0  0  0  0  0
  -27.3300  -37.5580   24.8680 H   0  0  0  0  0  0  0  0  0  0  0  0
  2  1  2  0
  3  5  2  0
  3  6  1  0
  4  1  1  0
  5  2  1  0
  6  4  2  0
  8  7  2  0
  9  7  1  0
 10 11  1  0
 10  8  1  0
 11  4  1  0
 11  9  1  0
 13 16  1  0
 14 12  1  0
 15 13  2  0
 15 17  1  0
 16  8  1  0
 16 12  2  0
 17 14  2  0
 18 26  1  0
 19 24  1  0
 20 21  1  0
 20 19  1  0
 22 21  1  0
 22 31  1  0
 22 23  1  0
 24 18  1  0
 24 23  1  0
 25 18  2  0
 26 17  1  0
 26 27  1  0
 28 29  2  0
 29 48  1  0
 30 33  1  0
 30 29  1  0
 31 32  1  0
 31 28  1  0
 32 30  2  0
 33 34  1  0
 34 35  2  0
 36 39  1  0
 36 35  1  0
 37 36  2  0
 38 37  1  0
 38 33  2  0
 39 40  1  0
 40 41  1  0
 41 42  2  0
 43 42  1  0
 43 47  1  0
 44 43  2  0
 45 40  2  0
 45 44  1  0
 46 45  1  0
 48 49  1  0
 49 51  1  0
 49 52  1  0
 50 48  2  0
 53 28  1  0
 53 54  1  0
 55 53  1  0
 57  6  1  0
 57 56  1  0
 58  5  1  0
 59 58  1  0
 59 61  1  0
 60 71  2  0
 61 66  1  0
 62 70  1  0
 62 72  1  0
 63 69  1  0
 63 65  1  0
 64 70  1  0
 65 64  1  0
 66 65  2  0
 67 68  1  0
 67 61  2  0
 68 63  2  0
 69 62  1  0
 70 60  1  0
 72 74  2  0
 73 72  1  0
 75 73  1  0
 76 81  1  0
 77 73  1  0
 78 77  1  0
 79 80  1  0
 79 78  1  0
 80 76  1  0
 81 77  1  0
 81 82  2  0
 83 82  1  0
 84 83  2  0
 85 76  2  0
 85 84  1  0
 86 60  1  0
 86 91  1  0
 86 87  1  0
 87 90  1  1
 87 88  1  0
 89 87  1  0
 91 94  1  0
 92 91  1  0
 92 96  1  0
 93 92  2  0
 96 95  1  0
 96 98  1  0
 98 99  1  0
 98 97  1  0
M  ISO  4  18 100  26 100  58 101  59 101
M  END
>  <TORSDO>  (22) 
F 20

>  <SCORE>  (22) 
-9.640

>  <name>  (22) 
21

>  <ligand_id>  (22) 
21

>  <original_smiles>  (22) 
[H]C1=C(c2c([H])c([H])c(N([H])C(=O)N3C([H])([H])C([H])([H])C([H])([H])C([H])(n4nc(-c5c([H])c([H])c(Oc6c([H])c([H])c(F)c([H])c6F)c([H])c5[H])c(C(=O)N([H])[H])c4N([H])[H])C3([H])[H])c([H])c2[H])C([H])([H])C([H])(c2c([H])c([H])c(C([H])([H])Oc3c([H])c([H])c4c(c3[H])C([H])([H])N(C(=O)C([H])(N([H])C(=O)C([H])(N([H])C([H])([H])[H])C([H])([H])[H])C(C([H])([H])[H])(C([H])([H])[H])C([H])([H])[H])C([H])(C(=O)N([H])C3([H])c5c([H])c([H])c([H])c([H])c5C([H])([H])C([H])([H])C3([H])[H])C4([H])[H])c([H])c2C([H])([H])C([H])([H])[H])C1([H])[H]

>  <smiles>  (22) 
[H]C1=C(c2c([H])c([H])c(N([H])C(=O)N3C([H])([H])C([H])([H])C([H])([H])C([H])(n4nc(-c5c([H])c([H])c(Oc6c([H])c([H])c(F)c([H])c6F)c([H])c5[H])c(C(=O)N([H])[H])c4N([H])[H])C3([H])[H])c([H])c2[H])C([H])([H])C([H])(c2c([H])c([H])c(C([H])([H])Oc3c([H])c([H])c4c(c3[H])C([H])([H])N(C(=O)C([H])(N([H])C(=O)C([H])(N([H])C([H])([H])[H])C([H])([H])[H])C(C([H])([H])[H])(C([H])([H])[H])C([H])([H])[H])C([H])(C(=O)N([H])C3([H])c5c([H])c([H])c([H])c([H])c5C([H])([H])C([H])([H])C3([H])[H])C4([H])[H])c([H])c2C([H])([H])C([H])([H])[H])C1([H])[H]

$$$$
22:0:0
     RDKit          3D

 93102  0  0  1  0  0  0  0  0999 V2000
  -29.0760  -20.2350   19.8080 C   0  0  0  0  0  3  0  0  0  0  0  0
  -31.4200  -18.2380   23.0710 C   0  0  0  0  0  3  0  0  0  0  0  0
  -30.9040  -17.3460   22.1270 C   0  0  0  0  0  3  0  0  0  0  0  0
  -30.4370  -20.0570   21.8410 C   0  0  0  0  0  3  0  0  0  0  0  0
  -31.1980  -19.6020   22.9240 C   0  0  0  0  0  0  0  0  0  0  0  0
  -29.8460  -19.2210   20.8540 C   0  0  0  0  0  0  0  0  0  0  0  0
  -30.1390  -17.7170   20.9820 C   0  0  0  0  0  0  0  0  0  0  0  0
  -31.7670  -20.5820   23.9290 C   0  0  0  0  0  1  0  0  0  0  0  0
  -30.5070  -15.1900   20.1240 C   0  0  0  0  0  0  0  0  0  0  0  0
  -30.3920  -12.8390   19.1600 C   0  0  0  0  0  2  0  0  0  0  0  0
  -29.4340  -12.7410   17.9530 C   0  0  0  0  0  2  0  0  0  0  0  0
  -27.9910  -12.4900   18.4290 C   0  0  0  0  0  2  0  0  0  0  0  0
  -27.5820  -13.4190   19.6020 C   0  0  0  0  0  3  0  0  0  0  0  0
  -28.6630  -13.4940   20.6980 C   0  0  0  0  0  2  0  0  0  0  0  0
  -29.8950  -13.9400   20.0360 N   0  0  0  0  0  0  0  0  0  0  0  0
  -31.7150  -15.2250   19.8620 O   0  0  0  0  0  0  0  0  0  0  0  0
  -29.7710  -16.4190   20.2500 N   0  0  0  0  0  0  0  0  0  0  0  0
  -28.7890  -16.3270   20.0400 H   0  0  0  0  0  0  0  0  0  0  0  0
  -25.2040  -13.9280   20.3910 C   0  0  0  0  0  0  0  0  0  0  0  0
  -24.1740  -13.1250   20.7890 C   0  0  0  0  0  0  0  0  0  0  0  0
  -24.6800  -11.7890   20.7660 C   0  0  0  0  0  0  0  0  0  0  0  0
  -26.2690  -13.0810   20.1380 N   0  0  0  0  0  0  0  0  0  0  0  0
  -25.9660  -11.7910   20.4310 N   0  0  0  0  0  0  0  0  0  0  0  0
  -23.9970  -10.5060   20.9820 C   0  0  0  0  0  0  0  0  0  0  0  0
  -24.4470   -9.5840   21.9510 C   0  0  0  0  0  3  0  0  0  0  0  0
  -23.7610   -8.3670   22.1550 C   0  0  0  0  0  3  0  0  0  0  0  0
  -22.6100   -8.0650   21.3890 C   0  0  0  0  0  0  0  0  0  0  0  0
  -22.1800   -8.9770   20.4100 C   0  0  0  0  0  3  0  0  0  0  0  0
  -22.8680  -10.1850   20.2040 C   0  0  0  0  0  3  0  0  0  0  0  0
  -21.8940   -6.8980   21.5000 O   0  0  0  0  0  0  0  0  0  0  0  0
  -21.8190   -6.2100   22.6850 C   0  0  0  0  0  0  0  0  0  0  0  0
  -21.2870   -6.7950   23.8540 C   0  0  0  0  0  3  0  0  0  0  0  0
  -21.1650   -6.0290   25.0310 C   0  0  0  0  0  3  0  0  0  0  0  0
  -21.5640   -4.6800   25.0390 C   0  0  0  0  0  0  0  0  0  0  0  0
  -22.0880   -4.0940   23.8740 C   0  0  0  0  0  3  0  0  0  0  0  0
  -22.2120   -4.8560   22.6990 C   0  0  0  0  0  0  0  0  0  0  0  0
  -22.6980   -4.2800   21.5730 F   0  0  0  0  0  0  0  0  0  0  0  0
  -21.4390   -3.9420   26.1670 F   0  0  0  0  0  0  0  0  0  0  0  0
  -22.7670  -13.5610   21.0770 C   0  0  0  0  0  0  0  0  0  0  0  0
  -22.0730  -12.8500   21.9590 N   0  0  0  0  0  0  0  0  0  0  0  0
  -22.2920  -14.5690   20.5570 O   0  0  0  0  0  0  0  0  0  0  0  0
  -22.4710  -12.0350   22.4010 H   0  0  0  0  0  0  0  0  0  0  0  0
  -21.1310  -13.1250   22.1960 H   0  0  0  0  0  0  0  0  0  0  0  0
  -25.3190  -15.3010   20.1940 N   0  0  0  0  0  0  0  0  0  0  0  0
  -24.5330  -15.9310   20.3160 H   0  0  0  0  0  0  0  0  0  0  0  0
  -26.1420  -15.7660   19.8330 H   0  0  0  0  0  0  0  0  0  0  0  0
  -27.4590  -22.3340   19.3420 C   0  0  0  0  0  2  0  0  0  0  0  0
  -28.4660  -23.3750   19.7510 C   0  0  0  0  0  3  0  0  0  0  0  0
  -28.4830  -21.7570   20.2920 C   0  0  0  0  0  3  0  0  0  0  0  0
  -27.7920  -24.8090   20.3240 C   0  0  0  0  0  2  0  0  0  0  0  0
  -28.0150  -26.3080   19.9260 O   0  0  0  0  0  0  0  0  0  0  0  0
  -24.5030  -31.9510   23.1900 C   0  0  0  0  0  0  0  0  0  0  0  0
  -26.9550  -27.2900   19.9760 C   0  0  0  0  0  0  0  0  0  0  0  0
  -23.2360  -30.5780   21.5830 C   0  0  0  0  0  3  0  0  0  0  0  0
  -24.6250  -29.0310   20.0700 C   0  0  0  0  0  0  0  0  0  0  0  0
  -25.7800  -30.8550   21.3080 C   0  0  0  0  0  2  0  0  0  0  0  0
  -25.8300  -29.4730   20.6320 C   0  0  0  0  0  0  0  0  0  0  0  0
  -26.9980  -28.6210   20.5620 C   0  0  0  0  0  3  0  0  0  0  0  0
  -25.7240  -26.9520   19.3780 C   0  0  0  0  0  3  0  0  0  0  0  0
  -24.5840  -27.7850   19.4260 C   0  0  0  0  0  3  0  0  0  0  0  0
  -23.3990  -29.9250   20.1850 C   0  0  0  0  0  2  0  0  0  0  0  0
  -24.5290  -31.1490   22.0820 N   0  0  0  0  0  0  0  0  0  0  0  0
  -23.4400  -32.2220   23.7710 O   0  0  0  0  0  0  0  0  0  0  0  0
  -22.6040  -29.5530   22.5570 C   0  0  0  0  0  0  0  0  0  0  0  0
  -21.2810  -29.3380   22.4480 N   0  0  0  0  0  0  0  0  0  0  0  0
  -23.3060  -28.9520   23.3740 O   0  0  0  0  0  0  0  0  0  0  0  0
  -20.7690  -29.8740   21.7630 H   0  0  0  0  0  0  0  0  0  0  0  0
  -17.9570  -27.9900   22.9630 C   0  0  0  0  0  0  0  0  0  0  0  0
  -20.5000  -28.3760   23.2320 C   0  0  0  0  0  3  0  0  0  0  0  0
  -20.6700  -26.9410   22.6830 C   0  0  0  0  0  2  0  0  0  0  0  0
  -19.5880  -26.5500   21.6720 C   0  0  0  0  0  2  0  0  0  0  0  0
  -18.1990  -26.6400   22.3090 C   0  0  0  0  0  2  0  0  0  0  0  0
  -19.0370  -28.8120   23.3830 C   0  0  0  0  0  0  0  0  0  0  0  0
  -18.7560  -30.0710   23.9550 C   0  0  0  0  0  3  0  0  0  0  0  0
  -17.4280  -30.5100   24.1130 C   0  0  0  0  0  3  0  0  0  0  0  0
  -16.3630  -29.6870   23.7090 C   0  0  0  0  0  3  0  0  0  0  0  0
  -16.6280  -28.4280   23.1400 C   0  0  0  0  0  3  0  0  0  0  0  0
  -25.8050  -32.5820   23.7720 C   0  0  0  0  0  3  0  0  0  0  0  0
  -26.3600  -31.8080   25.0310 C   0  0  1  0  0  0  0  0  0  0  0  0
  -25.3010  -31.5720   26.1340 C   0  0  0  0  0  1  0  0  0  0  0  0
  -26.9250  -30.4270   24.6230 C   0  0  0  0  0  1  0  0  0  0  0  0
  -27.5340  -32.5970   25.6550 C   0  0  0  0  0  1  0  0  0  0  0  0
  -25.5080  -33.9790   24.1220 N   0  0  0  0  0  0  0  0  0  0  0  0
  -25.8350  -35.0410   23.3740 C   0  0  0  0  0  0  0  0  0  0  0  0
  -26.4850  -34.9470   22.3290 O   0  0  0  0  0  0  0  0  0  0  0  0
  -24.9290  -34.1270   24.9360 H   0  0  0  0  0  0  0  0  0  0  0  0
  -24.1330  -36.8700   23.0600 C   0  0  0  0  0  1  0  0  0  0  0  0
  -25.3700  -36.4290   23.8600 C   0  0  0  0  0  3  0  0  0  0  0  0
  -27.5140  -37.2720   24.7100 C   0  0  0  0  0  1  0  0  0  0  0  0
  -26.4180  -37.4690   23.7650 N   0  0  0  0  0  0  0  0  0  0  0  0
  -26.0240  -38.3930   23.9240 H   0  0  0  0  0  0  0  0  0  0  0  0
  -30.3640  -19.1100   17.8450 C   0  0  0  0  0  1  0  0  0  0  0  0
  -29.9410  -20.4160   18.5390 C   0  0  0  0  0  2  0  0  0  0  0  0
  1 93  1  0
  1  6  1  0
  3  2  2  0
  4  5  2  0
  5  2  1  0
  5  8  1  0
  6  7  2  0
  6  4  1  0
  7  3  1  0
  9 17  1  0
 10 15  1  0
 11 12  1  0
 11 10  1  0
 13 12  1  0
 13 22  1  0
 13 14  1  0
 15  9  1  0
 15 14  1  0
 16  9  2  0
 17  7  1  0
 18 17  1  0
 19 20  2  0
 20 39  1  0
 21 20  1  0
 21 24  1  0
 22 19  1  0
 22 23  1  0
 23 21  2  0
 24 25  1  0
 25 26  2  0
 27 30  1  0
 27 26  1  0
 28 27  2  0
 29 28  1  0
 29 24  2  0
 30 31  1  0
 31 36  2  0
 31 32  1  0
 32 33  2  0
 33 34  1  0
 34 38  1  0
 35 34  2  0
 36 35  1  0
 37 36  1  0
 39 40  1  0
 40 43  1  0
 40 42  1  0
 41 39  2  0
 44 45  1  0
 44 19  1  0
 46 44  1  0
 47 48  1  0
 47 49  1  0
 48 49  1  0
 48 50  1  0
 49  1  1  0
 51 53  1  0
 51 50  1  0
 52 63  2  0
 53 58  1  0
 54 62  1  0
 54 64  1  0
 55 61  1  0
 55 57  1  0
 56 62  1  0
 57 56  1  0
 58 57  2  0
 59 60  1  0
 59 53  2  0
 60 55  2  0
 61 54  1  0
 62 52  1  0
 64 66  2  0
 65 64  1  0
 67 65  1  0
 68 77  2  0
 68 73  1  0
 69 65  1  0
 69 73  1  0
 70 69  1  0
 71 72  1  0
 71 70  1  0
 72 68  1  0
 73 74  2  0
 74 75  1  0
 76 75  2  0
 77 76  1  0
 78 52  1  0
 78 83  1  0
 78 79  1  0
 79 82  1  1
 79 80  1  0
 81 79  1  0
 83 86  1  0
 84 88  1  0
 84 83  1  0
 85 84  2  0
 88 87  1  0
 90 88  1  0
 90 91  1  0
 90 89  1  0
 92 93  1  0
M  ISO  4   9 100  17 100  50 101  51 101
M  END
>  <TORSDO>  (23) 
F 20

>  <SCORE>  (23) 
-13.952

>  <name>  (23) 
22

>  <ligand_id>  (23) 
22

>  <original_smiles>  (23) 
[H]c1c([H])c([H])c2c(c1[H])C([H])([H])C([H])([H])C([H])([H])C2([H])N([H])C(=O)C1([H])N(C(=O)C([H])(N([H])C(=O)C([H])(N([H])C([H])([H])[H])C([H])([H])[H])C(C([H])([H])[H])(C([H])([H])[H])C([H])([H])[H])C([H])([H])c2c([H])c(OC([H])([H])C3([H])C([H])([H])C3([H])C([H])(c3c([H])c(C([H])([H])[H])c([H])c([H])c3N([H])C(=O)N3C([H])([H])C([H])([H])C([H])([H])C([H])(n4nc(-c5c([H])c([H])c(Oc6c([H])c([H])c(F)c([H])c6F)c([H])c5[H])c(C(=O)N([H])[H])c4N([H])[H])C3([H])[H])C([H])([H])C([H])([H])[H])c([H])c([H])c2C1([H])[H]

>  <smiles>  (23) 
[H]c1c([H])c([H])c2c(c1[H])C([H])([H])C([H])([H])C([H])([H])C2([H])N([H])C(=O)C1([H])N(C(=O)C([H])(N([H])C(=O)C([H])(N([H])C([H])([H])[H])C([H])([H])[H])C(C([H])([H])[H])(C([H])([H])[H])C([H])([H])[H])C([H])([H])c2c([H])c(OC([H])([H])C3([H])C([H])([H])C3([H])C([H])(c3c([H])c(C([H])([H])[H])c([H])c([H])c3N([H])C(=O)N3C([H])([H])C([H])([H])C([H])([H])C([H])(n4nc(-c5c([H])c([H])c(Oc6c([H])c([H])c(F)c([H])c6F)c([H])c5[H])c(C(=O)N([H])[H])c4N([H])[H])C3([H])[H])C([H])([H])C([H])([H])[H])c([H])c([H])c2C1([H])[H]

$$$$
23:0:0
     RDKit          3D

 89 98  0  0  1  0  0  0  0  0999 V2000
  -28.5900  -19.8580   21.6290 C   0  0  0  0  0  2  0  0  0  0  0  0
  -29.6160  -20.3360   20.9420 C   0  0  0  0  0  2  0  0  0  0  0  0
  -28.9740  -17.6890   20.6940 C   0  0  0  0  0  2  0  0  0  0  0  0
  -28.1060  -19.4840   19.3640 C   0  0  0  0  0  2  0  0  0  0  0  0
  -27.9550  -18.8420   20.7420 C   0  0  0  0  0  3  0  0  0  0  0  0
  -30.2060  -18.0400   19.7230 C   0  0  0  0  0  3  0  0  0  0  0  0
  -29.6010  -19.7720   19.5230 C   0  0  2  0  0  0  0  0  0  0  0  0
  -30.9720  -15.2150   19.2730 C   0  0  0  0  0  0  0  0  0  0  0  0
  -30.8310  -12.7480   18.5130 C   0  0  0  0  0  2  0  0  0  0  0  0
  -29.7640  -12.4940   17.4210 C   0  0  0  0  0  2  0  0  0  0  0  0
  -28.3690  -12.2950   18.0450 C   0  0  0  0  0  2  0  0  0  0  0  0
  -28.0670  -13.3310   19.1570 C   0  0  0  0  0  3  0  0  0  0  0  0
  -29.2420  -13.4950   20.1380 C   0  0  0  0  0  2  0  0  0  0  0  0
  -30.3910  -13.9270   19.3270 N   0  0  0  0  0  0  0  0  0  0  0  0
  -32.1870  -15.2130   19.0340 O   0  0  0  0  0  0  0  0  0  0  0  0
  -30.1720  -16.4490   19.2520 N   0  0  0  0  0  0  0  0  0  0  0  0
  -29.2100  -16.1770   19.1170 H   0  0  0  0  0  0  0  0  0  0  0  0
  -25.8800  -14.0020   20.2870 C   0  0  0  0  0  0  0  0  0  0  0  0
  -24.8210  -13.2780   20.7560 C   0  0  0  0  0  0  0  0  0  0  0  0
  -25.1660  -11.9040   20.5660 C   0  0  0  0  0  0  0  0  0  0  0  0
  -26.8030  -13.0780   19.8350 N   0  0  0  0  0  0  0  0  0  0  0  0
  -26.3950  -11.8030   20.0680 N   0  0  0  0  0  0  0  0  0  0  0  0
  -24.3710  -10.6870   20.7700 C   0  0  0  0  0  0  0  0  0  0  0  0
  -24.7620   -9.6950   21.6950 C   0  0  0  0  0  3  0  0  0  0  0  0
  -23.9670   -8.5430   21.8870 C   0  0  0  0  0  3  0  0  0  0  0  0
  -22.7690   -8.3770   21.1530 C   0  0  0  0  0  0  0  0  0  0  0  0
  -22.3970   -9.3560   20.2150 C   0  0  0  0  0  3  0  0  0  0  0  0
  -23.1910  -10.4990   20.0210 C   0  0  0  0  0  3  0  0  0  0  0  0
  -21.9480   -7.2800   21.2550 O   0  0  0  0  0  0  0  0  0  0  0  0
  -21.7300   -6.6540   22.4560 C   0  0  0  0  0  0  0  0  0  0  0  0
  -21.1830   -7.3370   23.5650 C   0  0  0  0  0  3  0  0  0  0  0  0
  -20.9110   -6.6380   24.7580 C   0  0  0  0  0  3  0  0  0  0  0  0
  -21.1770   -5.2580   24.8430 C   0  0  0  0  0  0  0  0  0  0  0  0
  -21.7170   -4.5760   23.7380 C   0  0  0  0  0  3  0  0  0  0  0  0
  -21.9900   -5.2710   22.5480 C   0  0  0  0  0  0  0  0  0  0  0  0
  -22.4900   -4.6050   21.4800 F   0  0  0  0  0  0  0  0  0  0  0  0
  -20.9080   -4.5840   25.9860 F   0  0  0  0  0  0  0  0  0  0  0  0
  -23.5180  -13.8320   21.2510 C   0  0  0  0  0  0  0  0  0  0  0  0
  -22.8770  -13.1470   22.1900 N   0  0  0  0  0  0  0  0  0  0  0  0
  -23.0850  -14.9080   20.8380 O   0  0  0  0  0  0  0  0  0  0  0  0
  -23.2420  -12.2750   22.5450 H   0  0  0  0  0  0  0  0  0  0  0  0
  -22.0070  -13.5000   22.5620 H   0  0  0  0  0  0  0  0  0  0  0  0
  -26.1170  -15.3700   20.1760 N   0  0  0  0  0  0  0  0  0  0  0  0
  -25.3990  -16.0440   20.4180 H   0  0  0  0  0  0  0  0  0  0  0  0
  -26.8920  -15.7820   19.6780 H   0  0  0  0  0  0  0  0  0  0  0  0
  -30.0570  -21.2760   18.7250 C   0  0  0  0  0  2  0  0  0  0  0  0
  -29.2960  -22.8800   18.4670 C   0  0  0  0  0  2  0  0  0  0  0  0
  -29.1240  -24.4320   19.3070 C   0  0  0  0  0  2  0  0  0  0  0  0
  -28.9240  -25.9970   18.8980 O   0  0  0  0  0  0  0  0  0  0  0  0
  -24.7340  -31.0300   22.6340 C   0  0  0  0  0  0  0  0  0  0  0  0
  -27.7660  -26.8970   19.0670 C   0  0  0  0  0  0  0  0  0  0  0  0
  -23.6860  -29.7510   20.8100 C   0  0  0  0  0  3  0  0  0  0  0  0
  -25.2870  -28.4900   19.2260 C   0  0  0  0  0  0  0  0  0  0  0  0
  -26.2170  -30.2400   20.7300 C   0  0  0  0  0  2  0  0  0  0  0  0
  -26.4270  -28.9440   19.9030 C   0  0  0  0  0  0  0  0  0  0  0  0
  -27.6650  -28.1740   19.7930 C   0  0  0  0  0  3  0  0  0  0  0  0
  -26.5830  -26.5710   18.3740 C   0  0  0  0  0  3  0  0  0  0  0  0
  -25.3840  -27.3250   18.4480 C   0  0  0  0  0  3  0  0  0  0  0  0
  -23.9850  -29.2750   19.3630 C   0  0  0  0  0  2  0  0  0  0  0  0
  -24.8980  -30.3600   21.4480 N   0  0  0  0  0  0  0  0  0  0  0  0
  -23.6200  -31.1410   23.1710 O   0  0  0  0  0  0  0  0  0  0  0  0
  -23.0930  -28.5740   21.6260 C   0  0  0  0  0  0  0  0  0  0  0  0
  -21.7800  -28.3190   21.4820 N   0  0  0  0  0  0  0  0  0  0  0  0
  -23.8190  -27.8940   22.3580 O   0  0  0  0  0  0  0  0  0  0  0  0
  -21.2400  -28.9260   20.8810 H   0  0  0  0  0  0  0  0  0  0  0  0
  -18.5020  -26.8170   21.8740 C   0  0  0  0  0  0  0  0  0  0  0  0
  -21.0470  -27.2160   22.1120 C   0  0  0  0  0  3  0  0  0  0  0  0
  -21.2190  -25.9020   21.3160 C   0  0  0  0  0  2  0  0  0  0  0  0
  -20.1050  -25.6660   20.2910 C   0  0  0  0  0  2  0  0  0  0  0  0
  -18.7430  -25.6090   20.9840 C   0  0  0  0  0  2  0  0  0  0  0  0
  -19.5840  -27.5800   22.3900 C   0  0  0  0  0  0  0  0  0  0  0  0
  -19.3030  -28.7130   23.1840 C   0  0  0  0  0  3  0  0  0  0  0  0
  -17.9740  -29.0860   23.4630 C   0  0  0  0  0  3  0  0  0  0  0  0
  -16.9080  -28.3190   22.9600 C   0  0  0  0  0  3  0  0  0  0  0  0
  -17.1740  -27.1850   22.1730 C   0  0  0  0  0  3  0  0  0  0  0  0
  -25.9360  -31.7010   23.3640 C   0  0  0  0  0  3  0  0  0  0  0  0
  -26.4970  -30.8340   24.5590 C   0  0  1  0  0  0  0  0  0  0  0  0
  -25.4100  -30.3790   25.5630 C   0  0  0  0  0  1  0  0  0  0  0  0
  -27.2070  -29.5660   24.0360 C   0  0  0  0  0  1  0  0  0  0  0  0
  -27.5610  -31.6420   25.3380 C   0  0  0  0  0  1  0  0  0  0  0  0
  -25.4880  -33.0140   23.8590 N   0  0  0  0  0  0  0  0  0  0  0  0
  -25.7450  -34.1870   23.2630 C   0  0  0  0  0  0  0  0  0  0  0  0
  -26.4460  -34.2790   22.2530 O   0  0  0  0  0  0  0  0  0  0  0  0
  -24.8590  -33.0080   24.6490 H   0  0  0  0  0  0  0  0  0  0  0  0
  -23.8690  -35.8570   23.0990 C   0  0  0  0  0  1  0  0  0  0  0  0
  -25.1280  -35.4570   23.8850 C   0  0  0  0  0  3  0  0  0  0  0  0
  -27.1520  -36.4160   24.8940 C   0  0  0  0  0  1  0  0  0  0  0  0
  -26.0640  -36.6020   23.9370 N   0  0  0  0  0  0  0  0  0  0  0  0
  -25.5720  -37.4590   24.1780 H   0  0  0  0  0  0  0  0  0  0  0  0
  2  1  1  0
  3  5  1  0
  4  7  1  0
  5  4  1  0
  5  1  1  0
  6 16  1  0
  6  3  1  0
  7 46  1  6
  7  6  1  0
  7  2  1  0
  8 14  1  0
  9 14  1  0
 10 11  1  0
 10  9  1  0
 12 11  1  0
 12 21  1  0
 12 13  1  0
 14 13  1  0
 15  8  2  0
 16  8  1  0
 17 16  1  0
 18 19  2  0
 19 38  1  0
 20 19  1  0
 20 23  1  0
 21 22  1  0
 21 18  1  0
 22 20  2  0
 23 24  1  0
 24 25  2  0
 26 29  1  0
 26 25  1  0
 27 26  2  0
 28 27  1  0
 28 23  2  0
 29 30  1  0
 30 35  2  0
 30 31  1  0
 31 32  2  0
 32 33  1  0
 33 37  1  0
 34 33  2  0
 35 34  1  0
 36 35  1  0
 38 39  1  0
 39 41  1  0
 39 42  1  0
 40 38  2  0
 43 18  1  0
 43 44  1  0
 45 43  1  0
 47 46  1  0
 47 48  1  0
 49 51  1  0
 49 48  1  0
 50 61  2  0
 51 56  1  0
 52 60  1  0
 52 62  1  0
 53 59  1  0
 53 55  1  0
 54 60  1  0
 55 54  1  0
 56 55  2  0
 57 58  1  0
 57 51  2  0
 58 53  2  0
 59 52  1  0
 60 50  1  0
 62 64  2  0
 63 62  1  0
 65 63  1  0
 66 75  2  0
 66 71  1  0
 67 63  1  0
 67 71  1  0
 68 67  1  0
 69 70  1  0
 69 68  1  0
 70 66  1  0
 71 72  2  0
 72 73  1  0
 74 73  2  0
 75 74  1  0
 76 50  1  0
 76 81  1  0
 76 77  1  0
 77 80  1  1
 77 78  1  0
 79 77  1  0
 81 84  1  0
 82 81  1  0
 82 86  1  0
 83 82  2  0
 86 85  1  0
 86 88  1  0
 88 89  1  0
 88 87  1  0
M  ISO  4   8 100  16 100  48 101  49 101
M  END
>  <TORSDO>  (24) 
F 19

>  <SCORE>  (24) 
-10.478

>  <name>  (24) 
23

>  <ligand_id>  (24) 
23

>  <original_smiles>  (24) 
[H]C1=C([H])C2(C([H])([H])C([H])([H])C([H])([H])Oc3c([H])c([H])c4c(c3[H])C([H])([H])N(C(=O)C([H])(N([H])C(=O)C([H])(N([H])C([H])([H])[H])C([H])([H])[H])C(C([H])([H])[H])(C([H])([H])[H])C([H])([H])[H])C([H])(C(=O)N([H])C3([H])c5c([H])c([H])c([H])c([H])c5C([H])([H])C([H])([H])C3([H])[H])C4([H])[H])C([H])([H])C1([H])C([H])([H])C2([H])N([H])C(=O)N1C([H])([H])C([H])([H])C([H])([H])C([H])(n2nc(-c3c([H])c([H])c(Oc4c([H])c([H])c(F)c([H])c4F)c([H])c3[H])c(C(=O)N([H])[H])c2N([H])[H])C1([H])[H]

>  <smiles>  (24) 
[H]C1=C([H])C2(C([H])([H])C([H])([H])C([H])([H])Oc3c([H])c([H])c4c(c3[H])C([H])([H])N(C(=O)C([H])(N([H])C(=O)C([H])(N([H])C([H])([H])[H])C([H])([H])[H])C(C([H])([H])[H])(C([H])([H])[H])C([H])([H])[H])C([H])(C(=O)N([H])C3([H])c5c([H])c([H])c([H])c([H])c5C([H])([H])C([H])([H])C3([H])[H])C4([H])[H])C([H])([H])C1([H])C([H])([H])C2([H])N([H])C(=O)N1C([H])([H])C([H])([H])C([H])([H])C([H])(n2nc(-c3c([H])c([H])c(Oc4c([H])c([H])c(F)c([H])c4F)c([H])c3[H])c(C(=O)N([H])[H])c2N([H])[H])C1([H])[H]

$$$$
24:0:0
     RDKit          3D

 91100  0  0  1  0  0  0  0  0999 V2000
  -31.1690  -19.6910   19.0390 C   0  0  0  0  0  3  0  0  0  0  0  0
  -31.1180  -18.4090   19.6460 C   0  0  0  0  0  3  0  0  0  0  0  0
  -29.3590  -19.1850   21.1540 C   0  0  0  0  0  3  0  0  0  0  0  0
  -30.3360  -20.7170   19.5300 C   0  0  0  0  0  0  0  0  0  0  0  0
  -29.4480  -20.4750   20.5640 C   0  0  0  0  0  0  0  0  0  0  0  0
  -30.2290  -18.1400   20.7180 C   0  0  0  0  0  0  0  0  0  0  0  0
  -30.3090  -22.1710   19.1030 C   0  0  0  0  0  2  0  0  0  0  0  0
  -28.7290  -21.7610   20.9620 C   0  0  0  0  0  2  0  0  0  0  0  0
  -29.4980  -22.9100   20.2160 C   0  0  0  0  0  3  0  0  0  0  0  0
  -30.3780  -16.8310   21.5330 C   0  0  0  0  0  2  0  0  0  0  0  0
  -30.6190  -14.5340   20.4380 C   0  0  0  0  0  0  0  0  0  0  0  0
  -30.3440  -12.3560   19.2830 C   0  0  0  0  0  2  0  0  0  0  0  0
  -29.3870  -12.5280   18.0870 C   0  0  0  0  0  2  0  0  0  0  0  0
  -27.9160  -12.3890   18.5310 C   0  0  0  0  0  2  0  0  0  0  0  0
  -27.5840  -13.2340   19.7890 C   0  0  0  0  0  3  0  0  0  0  0  0
  -28.6470  -13.0200   20.8870 C   0  0  0  0  0  2  0  0  0  0  0  0
  -29.9590  -13.3480   20.3000 N   0  0  0  0  0  0  0  0  0  0  0  0
  -31.7580  -14.7150   20.0010 O   0  0  0  0  0  0  0  0  0  0  0  0
  -29.8990  -15.5400   20.9880 N   0  0  0  0  0  0  0  0  0  0  0  0
  -28.9600  -15.2840   21.2540 H   0  0  0  0  0  0  0  0  0  0  0  0
  -25.1980  -13.8490   20.5300 C   0  0  0  0  0  0  0  0  0  0  0  0
  -24.1320  -13.0780   20.9120 C   0  0  0  0  0  0  0  0  0  0  0  0
  -24.5900  -11.7260   20.8740 C   0  0  0  0  0  0  0  0  0  0  0  0
  -26.2360  -12.9640   20.2820 N   0  0  0  0  0  0  0  0  0  0  0  0
  -25.8760  -11.6840   20.5490 N   0  0  0  0  0  0  0  0  0  0  0  0
  -23.8640  -10.4630   21.0690 C   0  0  0  0  0  0  0  0  0  0  0  0
  -24.3160   -9.4860   21.9820 C   0  0  0  0  0  3  0  0  0  0  0  0
  -23.5920   -8.2890   22.1660 C   0  0  0  0  0  3  0  0  0  0  0  0
  -22.4030   -8.0610   21.4340 C   0  0  0  0  0  0  0  0  0  0  0  0
  -21.9690   -9.0250   20.5090 C   0  0  0  0  0  3  0  0  0  0  0  0
  -22.6940  -10.2150   20.3240 C   0  0  0  0  0  3  0  0  0  0  0  0
  -21.6470   -6.9160   21.5270 O   0  0  0  0  0  0  0  0  0  0  0  0
  -21.6330   -6.1550   22.6690 C   0  0  0  0  0  0  0  0  0  0  0  0
  -21.2570   -6.6940   23.9180 C   0  0  0  0  0  3  0  0  0  0  0  0
  -21.1890   -5.8610   25.0520 C   0  0  0  0  0  3  0  0  0  0  0  0
  -21.4860   -4.4890   24.9390 C   0  0  0  0  0  0  0  0  0  0  0  0
  -21.8560   -3.9500   23.6940 C   0  0  0  0  0  3  0  0  0  0  0  0
  -21.9260   -4.7820   22.5620 C   0  0  0  0  0  0  0  0  0  0  0  0
  -22.2610   -4.2530   21.3600 F   0  0  0  0  0  0  0  0  0  0  0  0
  -21.4140   -3.6850   26.0240 F   0  0  0  0  0  0  0  0  0  0  0  0
  -22.7390  -13.5570   21.2010 C   0  0  0  0  0  0  0  0  0  0  0  0
  -22.0220  -12.8550   22.0750 N   0  0  0  0  0  0  0  0  0  0  0  0
  -22.2950  -14.5850   20.6920 O   0  0  0  0  0  0  0  0  0  0  0  0
  -22.3960  -12.0240   22.5090 H   0  0  0  0  0  0  0  0  0  0  0  0
  -21.0870  -13.1530   22.3130 H   0  0  0  0  0  0  0  0  0  0  0  0
  -25.3670  -15.2190   20.3520 N   0  0  0  0  0  0  0  0  0  0  0  0
  -24.6070  -15.8810   20.4710 H   0  0  0  0  0  0  0  0  0  0  0  0
  -26.2090  -15.6460   19.9880 H   0  0  0  0  0  0  0  0  0  0  0  0
  -28.6890  -24.1530   19.6900 C   0  0  0  0  0  2  0  0  0  0  0  0
  -28.3690  -25.2910   20.7140 C   0  0  0  0  0  2  0  0  0  0  0  0
  -28.4310  -26.6440   20.1820 O   0  0  0  0  0  0  0  0  0  0  0  0
  -24.6210  -31.8800   23.2410 C   0  0  0  0  0  0  0  0  0  0  0  0
  -27.2700  -27.3980   20.1990 C   0  0  0  0  0  0  0  0  0  0  0  0
  -23.4190  -30.4740   21.6000 C   0  0  0  0  0  3  0  0  0  0  0  0
  -24.8770  -28.9270   20.1860 C   0  0  0  0  0  0  0  0  0  0  0  0
  -25.9500  -30.8240   21.4130 C   0  0  0  0  0  2  0  0  0  0  0  0
  -26.0370  -29.4510   20.7730 C   0  0  0  0  0  0  0  0  0  0  0  0
  -27.2380  -28.6970   20.7690 C   0  0  0  0  0  3  0  0  0  0  0  0
  -26.0940  -26.8960   19.6090 C   0  0  0  0  0  3  0  0  0  0  0  0
  -24.9030  -27.6490   19.5990 C   0  0  0  0  0  3  0  0  0  0  0  0
  -23.6330  -29.7910   20.2220 C   0  0  0  0  0  2  0  0  0  0  0  0
  -24.6810  -31.0760   22.1410 N   0  0  0  0  0  0  0  0  0  0  0  0
  -23.5380  -32.1540   23.7790 O   0  0  0  0  0  0  0  0  0  0  0  0
  -22.7630  -29.4560   22.5610 C   0  0  0  0  0  0  0  0  0  0  0  0
  -21.4390  -29.2780   22.4360 N   0  0  0  0  0  0  0  0  0  0  0  0
  -23.4440  -28.8310   23.3780 O   0  0  0  0  0  0  0  0  0  0  0  0
  -20.9500  -29.8370   21.7500 H   0  0  0  0  0  0  0  0  0  0  0  0
  -18.0630  -28.0860   22.9320 C   0  0  0  0  0  0  0  0  0  0  0  0
  -20.6210  -28.3410   23.2060 C   0  0  0  0  0  3  0  0  0  0  0  0
  -20.7230  -26.9100   22.6300 C   0  0  0  0  0  2  0  0  0  0  0  0
  -19.6220  -26.5870   21.6150 C   0  0  0  0  0  2  0  0  0  0  0  0
  -18.2390  -26.7340   22.2580 C   0  0  0  0  0  2  0  0  0  0  0  0
  -19.1820  -28.8470   23.3620 C   0  0  0  0  0  0  0  0  0  0  0  0
  -18.9650  -30.1110   23.9520 C   0  0  0  0  0  3  0  0  0  0  0  0
  -17.6610  -30.6150   24.1140 C   0  0  0  0  0  3  0  0  0  0  0  0
  -16.5560  -29.8510   23.7010 C   0  0  0  0  0  3  0  0  0  0  0  0
  -16.7570  -28.5870   23.1160 C   0  0  0  0  0  3  0  0  0  0  0  0
  -25.9070  -32.5120   23.8620 C   0  0  0  0  0  3  0  0  0  0  0  0
  -26.4260  -31.7390   25.1370 C   0  0  1  0  0  0  0  0  0  0  0  0
  -25.3340  -31.5020   26.2060 C   0  0  0  0  0  1  0  0  0  0  0  0
  -27.0120  -30.3610   24.7460 C   0  0  0  0  0  1  0  0  0  0  0  0
  -27.5750  -32.5350   25.8000 C   0  0  0  0  0  1  0  0  0  0  0  0
  -25.5970  -33.9090   24.1940 N   0  0  0  0  0  0  0  0  0  0  0  0
  -25.9200  -34.9620   23.4320 C   0  0  0  0  0  0  0  0  0  0  0  0
  -26.5860  -34.8610   22.3980 O   0  0  0  0  0  0  0  0  0  0  0  0
  -25.0100  -34.0590   25.0010 H   0  0  0  0  0  0  0  0  0  0  0  0
  -24.1830  -36.7490   23.0870 C   0  0  0  0  0  1  0  0  0  0  0  0
  -25.4290  -36.3490   23.8920 C   0  0  0  0  0  3  0  0  0  0  0  0
  -27.5640  -37.2440   24.7110 C   0  0  0  0  0  1  0  0  0  0  0  0
  -26.4570  -37.4060   23.7720 N   0  0  0  0  0  0  0  0  0  0  0  0
  -26.0480  -38.3250   23.9180 H   0  0  0  0  0  0  0  0  0  0  0  0
  1  4  2  0
  1  2  1  0
  2  6  2  0
  4  5  1  0
  5  8  1  0
  5  3  2  0
  6  3  1  0
  6 10  1  0
  7  4  1  0
  7  9  1  0
  9 49  1  0
  9  8  1  0
 11 19  1  0
 12 17  1  0
 13 14  1  0
 13 12  1  0
 15 14  1  0
 15 24  1  0
 15 16  1  0
 17 11  1  0
 17 16  1  0
 18 11  2  0
 19 20  1  0
 19 10  1  0
 21 22  2  0
 22 41  1  0
 23 22  1  0
 23 26  1  0
 24 21  1  0
 24 25  1  0
 25 23  2  0
 26 27  1  0
 27 28  2  0
 29 32  1  0
 29 28  1  0
 30 29  2  0
 31 30  1  0
 31 26  2  0
 32 33  1  0
 33 34  1  0
 34 35  2  0
 36 35  1  0
 36 40  1  0
 37 36  2  0
 38 33  2  0
 38 37  1  0
 39 38  1  0
 41 42  1  0
 42 45  1  0
 42 44  1  0
 43 41  2  0
 46 47  1  0
 46 21  1  0
 48 46  1  0
 49 50  1  0
 51 53  1  0
 51 50  1  0
 52 63  2  0
 53 58  1  0
 54 62  1  0
 54 64  1  0
 55 61  1  0
 55 57  1  0
 56 62  1  0
 57 56  1  0
 58 57  2  0
 59 53  2  0
 60 59  1  0
 60 55  2  0
 61 54  1  0
 62 52  1  0
 64 66  2  0
 65 64  1  0
 67 65  1  0
 68 77  2  0
 68 73  1  0
 69 65  1  0
 69 73  1  0
 70 69  1  0
 71 72  1  0
 71 70  1  0
 72 68  1  0
 73 74  2  0
 74 75  1  0
 76 75  2  0
 77 76  1  0
 78 52  1  0
 78 83  1  0
 78 79  1  0
 79 82  1  1
 79 80  1  0
 81 79  1  0
 83 86  1  0
 84 88  1  0
 84 83  1  0
 85 84  2  0
 88 87  1  0
 90 88  1  0
 90 91  1  0
 90 89  1  0
M  ISO  4  11 100  19 100  50 101  51 101
M  END
>  <TORSDO>  (25) 
F 19

>  <SCORE>  (25) 
-14.206

>  <name>  (25) 
24

>  <ligand_id>  (25) 
24

>  <original_smiles>  (25) 
[H]c1c([H])c([H])c2c(c1[H])C([H])([H])C([H])([H])C([H])([H])C2([H])N([H])C(=O)C1([H])N(C(=O)C([H])(N([H])C(=O)C([H])(N([H])C([H])([H])[H])C([H])([H])[H])C(C([H])([H])[H])(C([H])([H])[H])C([H])([H])[H])C([H])([H])c2c([H])c(OC([H])([H])C([H])([H])C3([H])C([H])([H])c4c([H])c([H])c(C([H])([H])N([H])C(=O)N5C([H])([H])C([H])([H])C([H])([H])C([H])(n6nc(-c7c([H])c([H])c(Oc8c([H])c([H])c(F)c([H])c8F)c([H])c7[H])c(C(=O)N([H])[H])c6N([H])[H])C5([H])[H])c([H])c4C3([H])[H])c([H])c([H])c2C1([H])[H]

>  <smiles>  (25) 
[H]c1c([H])c([H])c2c(c1[H])C([H])([H])C([H])([H])C([H])([H])C2([H])N([H])C(=O)C1([H])N(C(=O)C([H])(N([H])C(=O)C([H])(N([H])C([H])([H])[H])C([H])([H])[H])C(C([H])([H])[H])(C([H])([H])[H])C([H])([H])[H])C([H])([H])c2c([H])c(OC([H])([H])C([H])([H])C3([H])C([H])([H])c4c([H])c([H])c(C([H])([H])N([H])C(=O)N5C([H])([H])C([H])([H])C([H])([H])C([H])(n6nc(-c7c([H])c([H])c(Oc8c([H])c([H])c(F)c([H])c8F)c([H])c7[H])c(C(=O)N([H])[H])c6N([H])[H])C5([H])[H])c([H])c4C3([H])[H])c([H])c([H])c2C1([H])[H]

$$$$
25:0:0
     RDKit          3D

 95104  0  0  1  0  0  0  0  0999 V2000
  -31.6700  -20.4130   19.8550 C   0  0  0  0  0  2  0  0  0  0  0  0
  -30.6060  -21.0420   19.3560 C   0  0  0  0  0  2  0  0  0  0  0  0
  -31.6630  -17.9530   20.4390 C   0  0  0  0  0  2  0  0  0  0  0  0
  -31.3180  -19.3640   20.8840 C   0  0  0  0  0  3  0  0  0  0  0  0
  -29.3120  -20.6410   20.0190 C   0  0  0  0  0  3  0  0  0  0  0  0
  -29.7890  -19.1720   20.7270 C   0  0  0  0  0  3  0  0  0  0  0  0
  -30.1960  -17.6530   20.0540 C   0  0  2  0  0  0  0  0  0  0  0  0
  -30.5730  -14.9860   20.4010 C   0  0  0  0  0  0  0  0  0  0  0  0
  -30.4040  -12.6430   19.4770 C   0  0  0  0  0  2  0  0  0  0  0  0
  -29.4960  -12.6280   18.2270 C   0  0  0  0  0  2  0  0  0  0  0  0
  -28.0270  -12.4300   18.6360 C   0  0  0  0  0  2  0  0  0  0  0  0
  -27.6120  -13.3470   19.8160 C   0  0  0  0  0  3  0  0  0  0  0  0
  -28.6530  -13.3630   20.9580 C   0  0  0  0  0  2  0  0  0  0  0  0
  -29.9400  -13.7460   20.3670 N   0  0  0  0  0  0  0  0  0  0  0  0
  -31.7620  -15.0050   20.0710 O   0  0  0  0  0  0  0  0  0  0  0  0
  -29.8610  -16.2040   20.5890 N   0  0  0  0  0  0  0  0  0  0  0  0
  -28.9060  -16.0820   20.8850 H   0  0  0  0  0  0  0  0  0  0  0  0
  -25.2160  -13.9090   20.5170 C   0  0  0  0  0  0  0  0  0  0  0  0
  -24.1510  -13.1280   20.8710 C   0  0  0  0  0  0  0  0  0  0  0  0
  -24.6250  -11.7810   20.8530 C   0  0  0  0  0  0  0  0  0  0  0  0
  -26.2700  -13.0390   20.2960 N   0  0  0  0  0  0  0  0  0  0  0  0
  -25.9210  -11.7520   20.5650 N   0  0  0  0  0  0  0  0  0  0  0  0
  -23.9010  -10.5150   21.0360 C   0  0  0  0  0  0  0  0  0  0  0  0
  -24.3220   -9.5560   21.9830 C   0  0  0  0  0  3  0  0  0  0  0  0
  -23.5970   -8.3560   22.1570 C   0  0  0  0  0  3  0  0  0  0  0  0
  -22.4380   -8.1090   21.3840 C   0  0  0  0  0  0  0  0  0  0  0  0
  -22.0370   -9.0580   20.4270 C   0  0  0  0  0  3  0  0  0  0  0  0
  -22.7610  -10.2490   20.2520 C   0  0  0  0  0  3  0  0  0  0  0  0
  -21.6880   -6.9620   21.4650 O   0  0  0  0  0  0  0  0  0  0  0  0
  -21.6210   -6.2240   22.6200 C   0  0  0  0  0  0  0  0  0  0  0  0
  -21.1750   -6.7840   23.8360 C   0  0  0  0  0  3  0  0  0  0  0  0
  -21.0570   -5.9730   24.9840 C   0  0  0  0  0  3  0  0  0  0  0  0
  -21.3760   -4.6040   24.9140 C   0  0  0  0  0  0  0  0  0  0  0  0
  -21.8160   -4.0430   23.7010 C   0  0  0  0  0  3  0  0  0  0  0  0
  -21.9360   -4.8510   22.5580 C   0  0  0  0  0  0  0  0  0  0  0  0
  -22.3400   -4.3020   21.3870 F   0  0  0  0  0  0  0  0  0  0  0  0
  -21.2560   -3.8220   26.0130 F   0  0  0  0  0  0  0  0  0  0  0  0
  -22.7490  -13.6000   21.1160 C   0  0  0  0  0  0  0  0  0  0  0  0
  -22.0100  -12.9000   21.9700 N   0  0  0  0  0  0  0  0  0  0  0  0
  -22.3160  -14.6220   20.5870 O   0  0  0  0  0  0  0  0  0  0  0  0
  -22.3760  -12.0710   22.4160 H   0  0  0  0  0  0  0  0  0  0  0  0
  -21.0680  -13.1940   22.1820 H   0  0  0  0  0  0  0  0  0  0  0  0
  -25.3720  -15.2810   20.3420 N   0  0  0  0  0  0  0  0  0  0  0  0
  -24.5960  -15.9260   20.4490 H   0  0  0  0  0  0  0  0  0  0  0  0
  -26.2240  -15.7290   20.0350 H   0  0  0  0  0  0  0  0  0  0  0  0
  -29.9170  -17.6210   18.5400 C   0  0  0  0  0  0  0  0  0  0  0  0
  -28.6700  -17.3470   18.1810 N   0  0  0  0  0  0  0  0  0  0  0  0
  -30.8010  -17.7730   17.7000 O   0  0  0  0  0  0  0  0  0  0  0  0
  -27.9490  -17.2560   18.8800 H   0  0  0  0  0  0  0  0  0  0  0  0
  -28.4260  -17.2710   17.2050 H   0  0  0  0  0  0  0  0  0  0  0  0
  -28.9130  -22.0240   20.8800 C   0  0  0  0  0  2  0  0  0  0  0  0
  -26.8520  -23.5680   21.3760 C   0  0  0  0  0  1  0  0  0  0  0  0
  -28.0100  -23.3630   20.3870 C   0  0  0  0  0  3  0  0  0  0  0  0
  -28.5110  -24.8870   19.8890 C   0  0  0  0  0  2  0  0  0  0  0  0
  -28.3220  -26.3120   20.4660 O   0  0  0  0  0  0  0  0  0  0  0  0
  -24.6170  -31.9430   23.2770 C   0  0  0  0  0  0  0  0  0  0  0  0
  -27.2340  -27.2330   20.3000 C   0  0  0  0  0  0  0  0  0  0  0  0
  -23.4270  -30.5220   21.6480 C   0  0  0  0  0  3  0  0  0  0  0  0
  -24.8880  -28.9390   20.2380 C   0  0  0  0  0  0  0  0  0  0  0  0
  -25.9770  -30.8060   21.4860 C   0  0  0  0  0  2  0  0  0  0  0  0
  -26.0580  -29.4090   20.8490 C   0  0  0  0  0  0  0  0  0  0  0  0
  -27.2230  -28.5640   20.8710 C   0  0  0  0  0  3  0  0  0  0  0  0
  -26.0500  -26.8560   19.6330 C   0  0  0  0  0  3  0  0  0  0  0  0
  -24.8980  -27.6790   19.6110 C   0  0  0  0  0  3  0  0  0  0  0  0
  -23.6550  -29.8260   20.2770 C   0  0  0  0  0  2  0  0  0  0  0  0
  -24.6930  -31.1140   22.1910 N   0  0  0  0  0  0  0  0  0  0  0  0
  -23.5300  -32.2260   23.8000 O   0  0  0  0  0  0  0  0  0  0  0  0
  -22.7540  -29.5240   22.6240 C   0  0  0  0  0  0  0  0  0  0  0  0
  -21.4280  -29.3390   22.4880 N   0  0  0  0  0  0  0  0  0  0  0  0
  -23.4250  -28.9160   23.4600 O   0  0  0  0  0  0  0  0  0  0  0  0
  -20.9480  -29.8780   21.7820 H   0  0  0  0  0  0  0  0  0  0  0  0
  -18.0570  -28.1070   22.9650 C   0  0  0  0  0  0  0  0  0  0  0  0
  -20.6070  -28.4080   23.2660 C   0  0  0  0  0  3  0  0  0  0  0  0
  -20.7380  -26.9670   22.7190 C   0  0  0  0  0  2  0  0  0  0  0  0
  -19.6540  -26.6110   21.6960 C   0  0  0  0  0  2  0  0  0  0  0  0
  -18.2610  -26.7470   22.3180 C   0  0  0  0  0  2  0  0  0  0  0  0
  -19.1590  -28.8930   23.3960 C   0  0  0  0  0  0  0  0  0  0  0  0
  -18.9140  -30.1610   23.9650 C   0  0  0  0  0  3  0  0  0  0  0  0
  -17.6000  -30.6470   24.1060 C   0  0  0  0  0  3  0  0  0  0  0  0
  -16.5130  -29.8590   23.6920 C   0  0  0  0  0  3  0  0  0  0  0  0
  -16.7410  -28.5920   23.1270 C   0  0  0  0  0  3  0  0  0  0  0  0
  -25.8890  -32.5920   23.9000 C   0  0  0  0  0  3  0  0  0  0  0  0
  -26.3970  -31.8400   25.1930 C   0  0  1  0  0  0  0  0  0  0  0  0
  -25.2980  -31.6130   26.2580 C   0  0  0  0  0  1  0  0  0  0  0  0
  -26.9840  -30.4550   24.8320 C   0  0  0  0  0  1  0  0  0  0  0  0
  -27.5390  -32.6490   25.8520 C   0  0  0  0  0  1  0  0  0  0  0  0
  -25.5670  -33.9940   24.2130 N   0  0  0  0  0  0  0  0  0  0  0  0
  -25.9060  -35.0450   23.4510 C   0  0  0  0  0  0  0  0  0  0  0  0
  -26.5830  -34.9340   22.4260 O   0  0  0  0  0  0  0  0  0  0  0  0
  -24.9520  -34.1490   24.9990 H   0  0  0  0  0  0  0  0  0  0  0  0
  -24.1780  -36.8390   23.0790 C   0  0  0  0  0  1  0  0  0  0  0  0
  -25.4180  -36.4370   23.8960 C   0  0  0  0  0  3  0  0  0  0  0  0
  -27.5530  -37.3350   24.7220 C   0  0  0  0  0  1  0  0  0  0  0  0
  -26.4510  -37.4900   23.7750 N   0  0  0  0  0  0  0  0  0  0  0  0
  -26.0450  -38.4130   23.9060 H   0  0  0  0  0  0  0  0  0  0  0  0
  2  1  1  0
  2  5  1  0
  3  4  1  0
  4  1  1  0
  5  6  1  0
  5 51  1  0
  6  4  1  0
  7  3  1  0
  7 16  1  1
  7  6  1  0
  8 16  1  0
  9 14  1  0
 10 11  1  0
 10  9  1  0
 11 12  1  0
 12 21  1  0
 12 13  1  0
 14  8  1  0
 14 13  1  0
 15  8  2  0
 16 17  1  0
 18 19  2  0
 19 38  1  0
 20 19  1  0
 20 23  1  0
 21 18  1  0
 21 22  1  0
 22 20  2  0
 23 24  1  0
 24 25  2  0
 26 29  1  0
 26 25  1  0
 27 26  2  0
 28 27  1  0
 28 23  2  0
 29 30  1  0
 30 31  1  0
 31 32  2  0
 33 32  1  0
 33 37  1  0
 34 33  2  0
 35 30  2  0
 35 34  1  0
 36 35  1  0
 38 39  1  0
 39 42  1  0
 39 41  1  0
 40 38  2  0
 43 44  1  0
 43 18  1  0
 45 43  1  0
 46  7  1  0
 47 46  1  0
 47 49  1  0
 48 46  2  0
 50 47  1  0
 53 51  1  0
 53 52  1  0
 54 53  1  0
 54 55  1  0
 56 67  2  0
 56 82  1  0
 57 55  1  0
 57 62  1  0
 58 66  1  0
 58 68  1  0
 59 65  1  0
 59 61  1  0
 60 66  1  0
 61 62  2  0
 61 60  1  0
 63 57  2  0
 64 63  1  0
 64 59  2  0
 65 58  1  0
 66 56  1  0
 68 70  2  0
 69 68  1  0
 69 73  1  0
 71 69  1  0
 72 81  2  0
 72 77  1  0
 73 77  1  0
 74 73  1  0
 75 76  1  0
 75 74  1  0
 76 72  1  0
 77 78  2  0
 78 79  1  0
 80 79  2  0
 81 80  1  0
 82 87  1  0
 82 83  1  0
 83 86  1  1
 83 84  1  0
 85 83  1  0
 87 90  1  0
 88 92  1  0
 88 87  1  0
 89 88  2  0
 91 92  1  0
 94 92  1  0
 94 95  1  0
 94 93  1  0
M  ISO  4   8 100  16 100  54 101  55 101
M  END
>  <TORSDO>  (26) 
F 20

>  <SCORE>  (26) 
-14.275

>  <name>  (26) 
25

>  <ligand_id>  (26) 
25

>  <original_smiles>  (26) 
[H]C1=C([H])C([H])(C([H])([H])C([H])(C([H])([H])[H])C([H])([H])Oc2c([H])c([H])c3c(c2[H])C([H])([H])N(C(=O)C([H])(N([H])C(=O)C([H])(N([H])C([H])([H])[H])C([H])([H])[H])C(C([H])([H])[H])(C([H])([H])[H])C([H])([H])[H])C([H])(C(=O)N([H])C2([H])c4c([H])c([H])c([H])c([H])c4C([H])([H])C([H])([H])C2([H])[H])C3([H])[H])C2([H])C1([H])C([H])([H])C2(C(=O)N([H])[H])N([H])C(=O)N1C([H])([H])C([H])([H])C([H])([H])C([H])(n2nc(-c3c([H])c([H])c(Oc4c([H])c([H])c(F)c([H])c4F)c([H])c3[H])c(C(=O)N([H])[H])c2N([H])[H])C1([H])[H]

>  <smiles>  (26) 
[H]C1=C([H])C([H])(C([H])([H])C([H])(C([H])([H])[H])C([H])([H])Oc2c([H])c([H])c3c(c2[H])C([H])([H])N(C(=O)C([H])(N([H])C(=O)C([H])(N([H])C([H])([H])[H])C([H])([H])[H])C(C([H])([H])[H])(C([H])([H])[H])C([H])([H])[H])C([H])(C(=O)N([H])C2([H])c4c([H])c([H])c([H])c([H])c4C([H])([H])C([H])([H])C2([H])[H])C3([H])[H])C2([H])C1([H])C([H])([H])C2(C(=O)N([H])[H])N([H])C(=O)N1C([H])([H])C([H])([H])C([H])([H])C([H])(n2nc(-c3c([H])c([H])c(Oc4c([H])c([H])c(F)c([H])c4F)c([H])c3[H])c(C(=O)N([H])[H])c2N([H])[H])C1([H])[H]

$$$$
26:0:0
     RDKit          3D

 92100  0  0  1  0  0  0  0  0999 V2000
  -29.5620  -21.2010   19.5420 N   0  0  0  0  0  4  0  0  0  0  0  0
  -29.3400  -21.2660   20.5230 H   0  0  0  0  0  0  0  0  0  0  0  0
  -28.6950  -21.1160   19.0360 H   0  0  0  0  0  0  0  0  0  0  0  0
  -30.3610  -19.9710   19.3210 C   0  0  0  0  0  2  0  0  0  0  0  0
  -29.6480  -18.7160   19.8740 C   0  0  0  0  0  2  0  0  0  0  0  0
  -30.4510  -17.4010   19.7130 C   0  0  0  0  0  2  0  0  0  0  0  0
  -30.9830  -14.2970   19.5020 C   0  0  0  0  0  0  0  0  0  0  0  0
  -30.3900  -12.2640   18.2200 C   0  0  0  0  0  2  0  0  0  0  0  0
  -29.2390  -12.5320   17.2340 C   0  0  0  0  0  2  0  0  0  0  0  0
  -27.8730  -12.3640   17.9250 C   0  0  0  0  0  2  0  0  0  0  0  0
  -27.7870  -13.1390   19.2660 C   0  0  0  0  0  3  0  0  0  0  0  0
  -29.0210  -12.8410   20.1450 C   0  0  0  0  0  2  0  0  0  0  0  0
  -30.2370  -13.1640   19.3720 N   0  0  0  0  0  0  0  0  0  0  0  0
  -31.8340  -14.6440   18.6780 O   0  0  0  0  0  0  0  0  0  0  0  0
  -30.5630  -15.4780   22.9380 C   0  0  0  0  0  2  0  0  0  0  0  0
  -30.1830  -16.7390   22.1790 C   0  0  0  0  0  2  0  0  0  0  0  0
  -31.3260  -14.6530   21.9070 C   0  0  0  0  0  2  0  0  0  0  0  0
  -30.0120  -16.2970   20.7130 C   0  0  0  0  0  3  0  0  0  0  0  0
  -30.7420  -15.0180   20.6180 N   0  0  0  0  0  0  0  0  0  0  0  0
  -25.6030  -13.7200   20.5070 C   0  0  0  0  0  0  0  0  0  0  0  0
  -24.5950  -12.9350   20.9980 C   0  0  0  0  0  0  0  0  0  0  0  0
  -24.9760  -11.5870   20.7250 C   0  0  0  0  0  0  0  0  0  0  0  0
  -26.5410  -12.8490   19.9740 N   0  0  0  0  0  0  0  0  0  0  0  0
  -26.1750  -11.5530   20.1580 N   0  0  0  0  0  0  0  0  0  0  0  0
  -24.2440  -10.3290   20.9180 C   0  0  0  0  0  0  0  0  0  0  0  0
  -24.7050   -9.3360   21.8100 C   0  0  0  0  0  3  0  0  0  0  0  0
  -23.9740   -8.1410   21.9920 C   0  0  0  0  0  3  0  0  0  0  0  0
  -22.7690   -7.9330   21.2800 C   0  0  0  0  0  0  0  0  0  0  0  0
  -22.3280   -8.9130   20.3730 C   0  0  0  0  0  3  0  0  0  0  0  0
  -23.0600  -10.0980   20.1900 C   0  0  0  0  0  3  0  0  0  0  0  0
  -22.0050   -6.7940   21.3740 O   0  0  0  0  0  0  0  0  0  0  0  0
  -21.8730   -6.1100   22.5550 C   0  0  0  0  0  0  0  0  0  0  0  0
  -21.3640   -6.7230   23.7210 C   0  0  0  0  0  3  0  0  0  0  0  0
  -21.1820   -5.9650   24.8930 C   0  0  0  0  0  3  0  0  0  0  0  0
  -21.4980   -4.5930   24.9020 C   0  0  0  0  0  0  0  0  0  0  0  0
  -22.0000   -3.9780   23.7410 C   0  0  0  0  0  3  0  0  0  0  0  0
  -22.1840   -4.7340   22.5700 C   0  0  0  0  0  0  0  0  0  0  0  0
  -22.6470   -4.1330   21.4490 F   0  0  0  0  0  0  0  0  0  0  0  0
  -21.3160   -3.8610   26.0260 F   0  0  0  0  0  0  0  0  0  0  0  0
  -23.3040  -13.4070   21.6040 C   0  0  0  0  0  0  0  0  0  0  0  0
  -22.7710  -12.6680   22.5710 N   0  0  0  0  0  0  0  0  0  0  0  0
  -22.7830  -14.4650   21.2530 O   0  0  0  0  0  0  0  0  0  0  0  0
  -23.2100  -11.8130   22.8770 H   0  0  0  0  0  0  0  0  0  0  0  0
  -21.9140  -12.9650   23.0150 H   0  0  0  0  0  0  0  0  0  0  0  0
  -25.7910  -15.0980   20.4510 N   0  0  0  0  0  0  0  0  0  0  0  0
  -25.0890  -15.7550   20.7750 H   0  0  0  0  0  0  0  0  0  0  0  0
  -26.5730  -15.5520   19.9960 H   0  0  0  0  0  0  0  0  0  0  0  0
  -30.2310  -22.4600   19.1350 C   0  0  0  0  0  2  0  0  0  0  0  0
  -29.3030  -23.6930   19.2570 C   0  0  0  0  0  2  0  0  0  0  0  0
  -29.9770  -25.0040   18.8000 C   0  0  0  0  0  2  0  0  0  0  0  0
  -29.0070  -26.1890   18.6230 C   0  0  0  0  0  2  0  0  0  0  0  0
  -28.6080  -26.7300   19.8850 O   0  0  0  0  0  0  0  0  0  0  0  0
  -24.7340  -31.7420   23.1500 C   0  0  0  0  0  0  0  0  0  0  0  0
  -27.4140  -27.4180   19.9220 C   0  0  0  0  0  0  0  0  0  0  0  0
  -23.5230  -30.3370   21.5140 C   0  0  0  0  0  3  0  0  0  0  0  0
  -24.9770  -28.8510   20.0370 C   0  0  0  0  0  0  0  0  0  0  0  0
  -26.0350  -30.7520   21.2670 C   0  0  0  0  0  2  0  0  0  0  0  0
  -26.1350  -29.3930   20.6090 C   0  0  0  0  0  0  0  0  0  0  0  0
  -27.3520  -28.6770   20.5620 C   0  0  0  0  0  3  0  0  0  0  0  0
  -26.2300  -26.8750   19.3730 C   0  0  0  0  0  3  0  0  0  0  0  0
  -25.0170  -27.5860   19.4250 C   0  0  0  0  0  3  0  0  0  0  0  0
  -23.7170  -29.6820   20.1200 C   0  0  0  0  0  2  0  0  0  0  0  0
  -24.7830  -30.9580   22.0350 N   0  0  0  0  0  0  0  0  0  0  0  0
  -23.6600  -31.9830   23.7180 O   0  0  0  0  0  0  0  0  0  0  0  0
  -22.9140  -29.2890   22.4720 C   0  0  0  0  0  0  0  0  0  0  0  0
  -21.6070  -29.0230   22.3170 N   0  0  0  0  0  0  0  0  0  0  0  0
  -23.6170  -28.7170   23.3100 O   0  0  0  0  0  0  0  0  0  0  0  0
  -21.1000  -29.5410   21.6140 H   0  0  0  0  0  0  0  0  0  0  0  0
  -18.3170  -27.5830   22.7070 C   0  0  0  0  0  0  0  0  0  0  0  0
  -20.8320  -28.0450   23.0800 C   0  0  0  0  0  3  0  0  0  0  0  0
  -21.0700  -26.6110   22.5530 C   0  0  0  0  0  2  0  0  0  0  0  0
  -20.0420  -26.1770   21.5020 C   0  0  0  0  0  2  0  0  0  0  0  0
  -18.6260  -26.2320   22.0820 C   0  0  0  0  0  2  0  0  0  0  0  0
  -19.3530  -28.4410   23.1610 C   0  0  0  0  0  0  0  0  0  0  0  0
  -19.0130  -29.6990   23.7010 C   0  0  0  0  0  3  0  0  0  0  0  0
  -17.6680  -30.1030   23.7940 C   0  0  0  0  0  3  0  0  0  0  0  0
  -16.6460  -29.2440   23.3560 C   0  0  0  0  0  3  0  0  0  0  0  0
  -16.9700  -27.9860   22.8190 C   0  0  0  0  0  3  0  0  0  0  0  0
  -26.0210  -32.3910   23.7500 C   0  0  0  0  0  3  0  0  0  0  0  0
  -26.5930  -31.6030   24.9930 C   0  0  1  0  0  0  0  0  0  0  0  0
  -25.5310  -31.2840   26.0710 C   0  0  0  0  0  1  0  0  0  0  0  0
  -27.2260  -30.2650   24.5440 C   0  0  0  0  0  1  0  0  0  0  0  0
  -27.7210  -32.4240   25.6600 C   0  0  0  0  0  1  0  0  0  0  0  0
  -25.6880  -33.7730   24.1210 N   0  0  0  0  0  0  0  0  0  0  0  0
  -25.9830  -34.8490   23.3790 C   0  0  0  0  0  0  0  0  0  0  0  0
  -26.6340  -34.7850   22.3340 O   0  0  0  0  0  0  0  0  0  0  0  0
  -25.1040  -33.8950   24.9350 H   0  0  0  0  0  0  0  0  0  0  0  0
  -24.2060  -36.6080   23.0960 C   0  0  0  0  0  1  0  0  0  0  0  0
  -25.4710  -36.2150   23.8770 C   0  0  0  0  0  3  0  0  0  0  0  0
  -27.5980  -37.1290   24.6920 C   0  0  0  0  0  1  0  0  0  0  0  0
  -26.4770  -37.2930   23.7710 N   0  0  0  0  0  0  0  0  0  0  0  0
  -26.0530  -38.2000   23.9470 H   0  0  0  0  0  0  0  0  0  0  0  0
  1  2  1  0
  3  1  1  0
  4  1  1  0
  4  5  1  0
  6  5  1  0
  7 19  1  0
  8 13  1  0
  9 10  1  0
  9  8  1  0
 11 10  1  0
 11 23  1  0
 11 12  1  0
 13  7  1  0
 13 12  1  0
 14  7  2  0
 16 15  1  0
 17 15  1  0
 18  6  1  0
 18 16  1  0
 19 18  1  0
 19 17  1  0
 20 21  2  0
 21 40  1  0
 22 25  1  0
 22 21  1  0
 23 24  1  0
 23 20  1  0
 24 22  2  0
 25 26  1  0
 26 27  2  0
 28 31  1  0
 28 27  1  0
 29 28  2  0
 30 29  1  0
 30 25  2  0
 31 32  1  0
 32 37  2  0
 32 33  1  0
 33 34  2  0
 34 35  1  0
 35 39  1  0
 36 35  2  0
 37 36  1  0
 38 37  1  0
 40 41  1  0
 41 43  1  0
 41 44  1  0
 42 40  2  0
 45 20  1  0
 45 46  1  0
 47 45  1  0
 48 49  1  0
 48  1  1  0
 50 49  1  0
 51 50  1  0
 51 52  1  0
 52 54  1  0
 53 64  2  0
 54 59  1  0
 55 63  1  0
 55 65  1  0
 56 62  1  0
 56 58  1  0
 57 63  1  0
 58 57  1  0
 59 58  2  0
 60 61  1  0
 60 54  2  0
 61 56  2  0
 62 55  1  0
 63 53  1  0
 65 67  2  0
 66 65  1  0
 68 66  1  0
 69 78  2  0
 69 74  1  0
 70 66  1  0
 70 74  1  0
 71 70  1  0
 72 73  1  0
 72 71  1  0
 73 69  1  0
 74 75  2  0
 75 76  1  0
 77 76  2  0
 78 77  1  0
 79 53  1  0
 79 84  1  0
 79 80  1  0
 80 83  1  1
 80 81  1  0
 82 80  1  0
 84 87  1  0
 85 89  1  0
 85 84  1  0
 86 85  2  0
 89 88  1  0
 91 89  1  0
 91 92  1  0
 91 90  1  0
M  ISO  4   7 100  19 100  51 101  52 101
M  END
>  <TORSDO>  (27) 
F 23

>  <SCORE>  (27) 
-8.977

>  <name>  (27) 
26

>  <ligand_id>  (27) 
26

>  <original_smiles>  (27) 
[H]c1c([H])c([H])c2c(c1[H])C([H])([H])C([H])([H])C([H])([H])C2([H])N([H])C(=O)C1([H])N(C(=O)C([H])(N([H])C(=O)C([H])(N([H])C([H])([H])[H])C([H])([H])[H])C(C([H])([H])[H])(C([H])([H])[H])C([H])([H])[H])C([H])([H])c2c([H])c(OC([H])([H])C([H])([H])C([H])([H])C([H])([H])[N+]([H])([H])C([H])([H])C([H])([H])C([H])([H])C3([H])N(C(=O)N4C([H])([H])C([H])([H])C([H])([H])C([H])(n5nc(-c6c([H])c([H])c(Oc7c([H])c([H])c(F)c([H])c7F)c([H])c6[H])c(C(=O)N([H])[H])c5N([H])[H])C4([H])[H])C([H])([H])C([H])([H])C3([H])[H])c([H])c([H])c2C1([H])[H]

>  <smiles>  (27) 
[H]c1c([H])c([H])c2c(c1[H])C([H])([H])C([H])([H])C([H])([H])C2([H])N([H])C(=O)C1([H])N(C(=O)C([H])(N([H])C(=O)C([H])(N([H])C([H])([H])[H])C([H])([H])[H])C(C([H])([H])[H])(C([H])([H])[H])C([H])([H])[H])C([H])([H])c2c([H])c(OC([H])([H])C([H])([H])C([H])([H])C([H])([H])[N+]([H])([H])C([H])([H])C([H])([H])C([H])([H])C3([H])N(C(=O)N4C([H])([H])C([H])([H])C([H])([H])C([H])(n5nc(-c6c([H])c([H])c(Oc7c([H])c([H])c(F)c([H])c7F)c([H])c6[H])c(C(=O)N([H])[H])c5N([H])[H])C4([H])[H])C([H])([H])C([H])([H])C3([H])[H])c([H])c([H])c2C1([H])[H]

$$$$
27:0:0
     RDKit          3D

 97104  0  0  1  0  0  0  0  0999 V2000
  -29.8760  -21.0000   20.9090 C   0  0  0  0  0  2  0  0  0  0  0  0
  -29.3150  -22.2660   21.5740 C   0  0  0  0  0  2  0  0  0  0  0  0
  -30.2800  -23.4580   21.4380 C   0  0  0  0  0  2  0  0  0  0  0  0
  -29.6580  -24.7350   21.8430 N   0  0  0  0  0  4  0  0  0  0  0  0
  -29.3660  -24.6810   22.8080 H   0  0  0  0  0  0  0  0  0  0  0  0
  -28.8300  -24.8690   21.2820 H   0  0  0  0  0  0  0  0  0  0  0  0
  -30.5240  -25.9210   21.6490 C   0  0  0  0  0  2  0  0  0  0  0  0
  -29.6920  -27.2070   21.5590 C   0  0  0  0  0  2  0  0  0  0  0  0
  -28.8070  -27.0330   20.4580 O   0  0  0  0  0  0  0  0  0  0  0  0
  -24.6340  -32.0430   23.3810 C   0  0  0  0  0  0  0  0  0  0  0  0
  -27.6340  -27.7490   20.4610 C   0  0  0  0  0  0  0  0  0  0  0  0
  -23.5630  -30.5600   21.7120 C   0  0  0  0  0  3  0  0  0  0  0  0
  -25.1520  -29.0920   20.3610 C   0  0  0  0  0  0  0  0  0  0  0  0
  -26.0630  -31.0670   21.5920 C   0  0  0  0  0  2  0  0  0  0  0  0
  -26.2510  -29.6930   20.9880 C   0  0  0  0  0  0  0  0  0  0  0  0
  -27.4920  -29.0270   21.0480 C   0  0  0  0  0  3  0  0  0  0  0  0
  -26.5250  -27.1610   19.8180 C   0  0  0  0  0  3  0  0  0  0  0  0
  -25.2820  -27.8200   19.7760 C   0  0  0  0  0  3  0  0  0  0  0  0
  -23.8590  -29.8750   20.3490 C   0  0  0  0  0  2  0  0  0  0  0  0
  -24.7680  -31.2390   22.2880 N   0  0  0  0  0  0  0  0  0  0  0  0
  -23.5230  -32.2610   23.8820 O   0  0  0  0  0  0  0  0  0  0  0  0
  -22.9360  -29.5150   22.6620 C   0  0  0  0  0  0  0  0  0  0  0  0
  -21.6430  -29.2200   22.4530 N   0  0  0  0  0  0  0  0  0  0  0  0
  -23.6120  -28.9710   23.5400 O   0  0  0  0  0  0  0  0  0  0  0  0
  -21.1570  -29.7160   21.7190 H   0  0  0  0  0  0  0  0  0  0  0  0
  -18.3570  -27.7490   22.7380 C   0  0  0  0  0  0  0  0  0  0  0  0
  -20.8540  -28.2390   23.1950 C   0  0  0  0  0  3  0  0  0  0  0  0
  -21.1240  -26.8050   22.6840 C   0  0  0  0  0  2  0  0  0  0  0  0
  -20.1370  -26.3550   21.6020 C   0  0  0  0  0  2  0  0  0  0  0  0
  -18.7000  -26.3990   22.1330 C   0  0  0  0  0  2  0  0  0  0  0  0
  -19.3690  -28.6200   23.2230 C   0  0  0  0  0  0  0  0  0  0  0  0
  -18.9980  -29.8790   23.7430 C   0  0  0  0  0  3  0  0  0  0  0  0
  -17.6460  -30.2700   23.7860 C   0  0  0  0  0  3  0  0  0  0  0  0
  -16.6480  -29.3980   23.3200 C   0  0  0  0  0  3  0  0  0  0  0  0
  -17.0030  -28.1410   22.8020 C   0  0  0  0  0  3  0  0  0  0  0  0
  -25.8650  -32.7440   24.0390 C   0  0  0  0  0  3  0  0  0  0  0  0
  -25.5070  -34.1500   24.2590 N   0  0  0  0  0  0  0  0  0  0  0  0
  -25.8740  -35.1610   23.4590 C   0  0  0  0  0  0  0  0  0  0  0  0
  -26.6210  -35.0110   22.4880 O   0  0  0  0  0  0  0  0  0  0  0  0
  -24.8490  -34.3380   25.0010 H   0  0  0  0  0  0  0  0  0  0  0  0
  -24.1380  -36.8780   22.8620 C   0  0  0  0  0  1  0  0  0  0  0  0
  -25.3220  -36.5610   23.7880 C   0  0  0  0  0  3  0  0  0  0  0  0
  -27.3690  -37.5520   24.7170 C   0  0  0  0  0  1  0  0  0  0  0  0
  -26.3360  -37.6320   23.6860 N   0  0  0  0  0  0  0  0  0  0  0  0
  -25.8980  -38.5480   23.7480 H   0  0  0  0  0  0  0  0  0  0  0  0
  -26.3210  -32.0620   25.3860 C   0  0  1  0  0  0  0  0  0  0  0  0
  -25.1620  -31.8020   26.3750 C   0  0  0  0  0  1  0  0  0  0  0  0
  -27.0120  -30.7070   25.1010 C   0  0  0  0  0  1  0  0  0  0  0  0
  -27.3670  -32.9530   26.0990 C   0  0  0  0  0  1  0  0  0  0  0  0
  -29.0090  -19.7460   21.1470 C   0  0  0  0  0  2  0  0  0  0  0  0
  -29.4410  -18.4890   20.3510 C   0  0  0  0  0  3  0  0  0  0  0  0
  -29.4000  -18.7550   18.8220 C   0  0  0  0  0  2  0  0  0  0  0  0
  -29.7320  -17.5280   17.9650 C   0  0  0  0  0  0  0  0  0  0  0  0
  -30.5080  -17.7050   16.9030 N   0  0  0  0  0  0  0  0  0  0  0  0
  -29.2800  -16.4190   18.2430 O   0  0  0  0  0  0  0  0  0  0  0  0
  -30.8690  -18.6210   16.6720 H   0  0  0  0  0  0  0  0  0  0  0  0
  -30.7350  -16.9240   16.3020 H   0  0  0  0  0  0  0  0  0  0  0  0
  -30.8090  -17.9150   20.8050 C   0  0  0  0  0  2  0  0  0  0  0  0
  -30.7450  -17.0080   22.0540 C   0  0  0  0  0  2  0  0  0  0  0  0
  -30.9050  -14.7740   20.9720 C   0  0  0  0  0  0  0  0  0  0  0  0
  -30.6090  -12.8000   19.5380 C   0  0  0  0  0  2  0  0  0  0  0  0
  -29.6990  -13.1610   18.3470 C   0  0  0  0  0  2  0  0  0  0  0  0
  -28.2140  -12.9830   18.7210 C   0  0  0  0  0  2  0  0  0  0  0  0
  -27.8500  -13.6670   20.0640 C   0  0  0  0  0  3  0  0  0  0  0  0
  -28.8710  -13.2980   21.1640 C   0  0  0  0  0  2  0  0  0  0  0  0
  -30.2150  -13.6450   20.6730 N   0  0  0  0  0  0  0  0  0  0  0  0
  -32.0170  -15.0310   20.5040 O   0  0  0  0  0  0  0  0  0  0  0  0
  -30.2560  -15.6640   21.7360 N   0  0  0  0  0  0  0  0  0  0  0  0
  -29.3400  -15.4040   22.0730 H   0  0  0  0  0  0  0  0  0  0  0  0
  -25.4110  -14.2060   20.6850 C   0  0  0  0  0  0  0  0  0  0  0  0
  -24.3420  -13.4000   20.9770 C   0  0  0  0  0  0  0  0  0  0  0  0
  -24.8280  -12.0600   20.9070 C   0  0  0  0  0  0  0  0  0  0  0  0
  -26.4810  -13.3520   20.4660 N   0  0  0  0  0  0  0  0  0  0  0  0
  -26.1310  -12.0540   20.6540 N   0  0  0  0  0  0  0  0  0  0  0  0
  -24.1190  -10.7770   21.0090 C   0  0  0  0  0  0  0  0  0  0  0  0
  -24.5040   -9.7930   21.9450 C   0  0  0  0  0  3  0  0  0  0  0  0
  -23.7950   -8.5760   22.0370 C   0  0  0  0  0  3  0  0  0  0  0  0
  -22.6870   -8.3340   21.1910 C   0  0  0  0  0  0  0  0  0  0  0  0
  -22.3230   -9.3080   20.2440 C   0  0  0  0  0  3  0  0  0  0  0  0
  -23.0320  -10.5170   20.1500 C   0  0  0  0  0  3  0  0  0  0  0  0
  -21.9530   -7.1720   21.1910 O   0  0  0  0  0  0  0  0  0  0  0  0
  -21.7950   -6.4220   22.3290 C   0  0  0  0  0  0  0  0  0  0  0  0
  -21.1910   -6.9500   23.4920 C   0  0  0  0  0  3  0  0  0  0  0  0
  -20.9850   -6.1250   24.6150 C   0  0  0  0  0  3  0  0  0  0  0  0
  -21.3700   -4.7720   24.5750 C   0  0  0  0  0  0  0  0  0  0  0  0
  -21.9670   -4.2420   23.4160 C   0  0  0  0  0  3  0  0  0  0  0  0
  -22.1750   -5.0650   22.2960 C   0  0  0  0  0  0  0  0  0  0  0  0
  -22.7300   -4.5450   21.1750 F   0  0  0  0  0  0  0  0  0  0  0  0
  -21.1650   -3.9760   25.6510 F   0  0  0  0  0  0  0  0  0  0  0  0
  -22.9250  -13.8410   21.2070 C   0  0  0  0  0  0  0  0  0  0  0  0
  -22.1780  -13.1010   22.0200 N   0  0  0  0  0  0  0  0  0  0  0  0
  -22.4860  -14.8740   20.7040 O   0  0  0  0  0  0  0  0  0  0  0  0
  -22.5440  -12.2640   22.4490 H   0  0  0  0  0  0  0  0  0  0  0  0
  -21.2250  -13.3770   22.2160 H   0  0  0  0  0  0  0  0  0  0  0  0
  -25.5590  -15.5840   20.5660 N   0  0  0  0  0  0  0  0  0  0  0  0
  -24.7660  -16.2150   20.6210 H   0  0  0  0  0  0  0  0  0  0  0  0
  -26.3860  -16.0200   20.1720 H   0  0  0  0  0  0  0  0  0  0  0  0
  1 50  1  0
  1  2  1  0
  3  2  1  0
  3  4  1  0
  4  5  1  0
  6  4  1  0
  7  4  1  0
  8  7  1  0
  9 11  1  0
  9  8  1  0
 10 21  2  0
 11 16  1  0
 12 20  1  0
 12 22  1  0
 13 15  1  0
 14 20  1  0
 15 16  2  0
 15 14  1  0
 17 11  2  0
 18 17  1  0
 18 13  2  0
 19 13  1  0
 19 12  1  0
 20 10  1  0
 22 24  2  0
 23 22  1  0
 25 23  1  0
 26 35  2  0
 26 31  1  0
 27 23  1  0
 27 31  1  0
 28 27  1  0
 29 30  1  0
 29 28  1  0
 30 26  1  0
 31 32  2  0
 32 33  1  0
 34 33  2  0
 35 34  1  0
 36 10  1  0
 36 37  1  0
 36 46  1  0
 37 40  1  0
 38 42  1  0
 38 37  1  0
 39 38  2  0
 42 41  1  0
 44 45  1  0
 44 42  1  0
 44 43  1  0
 46 49  1  1
 46 47  1  0
 48 46  1  0
 51 52  1  0
 51 58  1  0
 51 50  1  0
 53 55  2  0
 53 52  1  0
 54 53  1  0
 56 54  1  0
 57 54  1  0
 58 59  1  0
 60 68  1  0
 61 66  1  0
 62 63  1  0
 62 61  1  0
 64 63  1  0
 64 73  1  0
 64 65  1  0
 66 60  1  0
 66 65  1  0
 67 60  2  0
 68 59  1  0
 68 69  1  0
 70 71  2  0
 71 90  1  0
 72 71  1  0
 72 75  1  0
 73 74  1  0
 73 70  1  0
 74 72  2  0
 75 76  1  0
 76 77  2  0
 78 81  1  0
 78 77  1  0
 79 78  2  0
 80 79  1  0
 80 75  2  0
 81 82  1  0
 82 83  1  0
 83 84  2  0
 85 84  1  0
 85 89  1  0
 86 85  2  0
 87 82  2  0
 87 86  1  0
 88 87  1  0
 90 91  1  0
 91 94  1  0
 91 93  1  0
 92 90  2  0
 95 96  1  0
 95 70  1  0
 97 95  1  0
M  ISO  4   8 101   9 101  60 100  68 100
M  END
>  <TORSDO>  (28) 
F 27

>  <SCORE>  (28) 
-10.705

>  <name>  (28) 
27

>  <ligand_id>  (28) 
27

>  <original_smiles>  (28) 
[H]c1c([H])c([H])c2c(c1[H])C([H])([H])C([H])([H])C([H])([H])C2([H])N([H])C(=O)C1([H])N(C(=O)C([H])(N([H])C(=O)C([H])(N([H])C([H])([H])[H])C([H])([H])[H])C(C([H])([H])[H])(C([H])([H])[H])C([H])([H])[H])C([H])([H])c2c([H])c(OC([H])([H])C([H])([H])[N+]([H])([H])C([H])([H])C([H])([H])C([H])([H])C([H])([H])C([H])(C([H])([H])C(=O)N([H])[H])C([H])([H])C([H])([H])N([H])C(=O)N3C([H])([H])C([H])([H])C([H])([H])C([H])(n4nc(-c5c([H])c([H])c(Oc6c([H])c([H])c(F)c([H])c6F)c([H])c5[H])c(C(=O)N([H])[H])c4N([H])[H])C3([H])[H])c([H])c([H])c2C1([H])[H]

>  <smiles>  (28) 
[H]c1c([H])c([H])c2c(c1[H])C([H])([H])C([H])([H])C([H])([H])C2([H])N([H])C(=O)C1([H])N(C(=O)C([H])(N([H])C(=O)C([H])(N([H])C([H])([H])[H])C([H])([H])[H])C(C([H])([H])[H])(C([H])([H])[H])C([H])([H])[H])C([H])([H])c2c([H])c(OC([H])([H])C([H])([H])[N+]([H])([H])C([H])([H])C([H])([H])C([H])([H])C([H])([H])C([H])(C([H])([H])C(=O)N([H])[H])C([H])([H])C([H])([H])N([H])C(=O)N3C([H])([H])C([H])([H])C([H])([H])C([H])(n4nc(-c5c([H])c([H])c(Oc6c([H])c([H])c(F)c([H])c6F)c([H])c5[H])c(C(=O)N([H])[H])c4N([H])[H])C3([H])[H])c([H])c([H])c2C1([H])[H]

$$$$
28:0:0
     RDKit          3D

 95102  0  0  1  0  0  0  0  0999 V2000
  -29.1350  -23.8600   20.0810 C   0  0  0  0  0  3  0  0  0  0  0  0
  -28.6060  -22.3630   19.7750 C   0  0  0  0  0  3  0  0  0  0  0  0
  -26.9350  -20.9320   18.4810 C   0  0  0  0  0  1  0  0  0  0  0  0
  -27.6410  -22.2950   18.5710 C   0  0  0  0  0  2  0  0  0  0  0  0
  -29.6970  -21.2120   19.5840 C   0  0  0  0  0  2  0  0  0  0  0  0
  -29.7120  -19.9620   20.5900 C   0  0  0  0  0  3  0  0  0  0  0  0
  -30.9110  -20.1330   21.5200 C   0  0  0  0  0  3  0  0  0  0  0  0
  -30.7890  -20.7210   22.5990 O   0  0  0  0  0  0  0  0  0  0  0  0
  -29.6660  -18.4570   20.0100 C   0  0  0  0  0  3  0  0  0  0  0  0
  -30.1820  -17.2540   20.9460 C   0  0  0  0  0  3  0  0  0  0  0  0
  -30.6920  -14.7690   20.3020 C   0  0  0  0  0  0  0  0  0  0  0  0
  -30.5430  -12.5410   19.2180 C   0  0  0  0  0  2  0  0  0  0  0  0
  -29.5910  -12.6880   18.0110 C   0  0  0  0  0  2  0  0  0  0  0  0
  -28.1110  -12.5230   18.4370 C   0  0  0  0  0  2  0  0  0  0  0  0
  -27.7520  -13.3350   19.7110 C   0  0  0  0  0  3  0  0  0  0  0  0
  -28.8190  -13.1540   20.8070 C   0  0  0  0  0  2  0  0  0  0  0  0
  -30.1140  -13.5310   20.2230 N   0  0  0  0  0  0  0  0  0  0  0  0
  -31.8620  -14.9560   19.9470 O   0  0  0  0  0  0  0  0  0  0  0  0
  -29.8580  -15.8160   20.6200 N   0  0  0  0  0  0  0  0  0  0  0  0
  -28.9030  -15.5380   20.8050 H   0  0  0  0  0  0  0  0  0  0  0  0
  -25.3580  -13.9070   20.4360 C   0  0  0  0  0  0  0  0  0  0  0  0
  -24.3040  -13.1290   20.8170 C   0  0  0  0  0  0  0  0  0  0  0  0
  -24.7780  -11.7800   20.7820 C   0  0  0  0  0  0  0  0  0  0  0  0
  -26.4090  -13.0370   20.1960 N   0  0  0  0  0  0  0  0  0  0  0  0
  -26.0670  -11.7510   20.4640 N   0  0  0  0  0  0  0  0  0  0  0  0
  -24.0640  -10.5130   20.9830 C   0  0  0  0  0  0  0  0  0  0  0  0
  -24.4920   -9.5590   21.9330 C   0  0  0  0  0  3  0  0  0  0  0  0
  -23.7740   -8.3590   22.1150 C   0  0  0  0  0  3  0  0  0  0  0  0
  -22.6120   -8.1010   21.3490 C   0  0  0  0  0  0  0  0  0  0  0  0
  -22.2010   -9.0460   20.3910 C   0  0  0  0  0  3  0  0  0  0  0  0
  -22.9200  -10.2390   20.2080 C   0  0  0  0  0  3  0  0  0  0  0  0
  -21.8690   -6.9490   21.4420 O   0  0  0  0  0  0  0  0  0  0  0  0
  -21.8020   -6.2260   22.6080 C   0  0  0  0  0  0  0  0  0  0  0  0
  -21.3050   -6.7880   23.8030 C   0  0  0  0  0  3  0  0  0  0  0  0
  -21.1920   -5.9930   24.9610 C   0  0  0  0  0  3  0  0  0  0  0  0
  -21.5590   -4.6340   24.9210 C   0  0  0  0  0  0  0  0  0  0  0  0
  -22.0440   -4.0720   23.7290 C   0  0  0  0  0  3  0  0  0  0  0  0
  -22.1630   -4.8650   22.5740 C   0  0  0  0  0  0  0  0  0  0  0  0
  -22.6130   -4.3140   21.4230 F   0  0  0  0  0  0  0  0  0  0  0  0
  -21.4390   -3.8670   26.0290 F   0  0  0  0  0  0  0  0  0  0  0  0
  -22.9060  -13.5970   21.1140 C   0  0  0  0  0  0  0  0  0  0  0  0
  -22.1870  -12.8990   21.9830 N   0  0  0  0  0  0  0  0  0  0  0  0
  -22.4590  -14.6300   20.6110 O   0  0  0  0  0  0  0  0  0  0  0  0
  -22.5530  -12.0650   22.4190 H   0  0  0  0  0  0  0  0  0  0  0  0
  -21.2530  -13.2090   22.2200 H   0  0  0  0  0  0  0  0  0  0  0  0
  -25.5180  -15.2780   20.2600 N   0  0  0  0  0  0  0  0  0  0  0  0
  -24.7550  -15.9260   20.4040 H   0  0  0  0  0  0  0  0  0  0  0  0
  -26.3660  -15.7250   19.9390 H   0  0  0  0  0  0  0  0  0  0  0  0
  -28.0890  -25.0570   19.9360 C   0  0  0  0  0  2  0  0  0  0  0  0
  -28.3780  -26.4900   20.2150 O   0  0  0  0  0  0  0  0  0  0  0  0
  -24.5640  -31.8400   23.2530 C   0  0  0  0  0  0  0  0  0  0  0  0
  -27.2710  -27.3630   20.1550 C   0  0  0  0  0  0  0  0  0  0  0  0
  -23.4070  -30.4720   21.5630 C   0  0  0  0  0  3  0  0  0  0  0  0
  -24.8950  -28.9700   20.1420 C   0  0  0  0  0  0  0  0  0  0  0  0
  -25.9500  -30.8100   21.4400 C   0  0  0  0  0  2  0  0  0  0  0  0
  -26.0520  -29.4470   20.7680 C   0  0  0  0  0  0  0  0  0  0  0  0
  -27.2460  -28.6590   20.7640 C   0  0  0  0  0  3  0  0  0  0  0  0
  -26.0820  -26.9540   19.5010 C   0  0  0  0  0  3  0  0  0  0  0  0
  -24.9130  -27.7270   19.5030 C   0  0  0  0  0  3  0  0  0  0  0  0
  -23.6550  -29.8340   20.1750 C   0  0  0  0  0  2  0  0  0  0  0  0
  -24.6590  -31.0520   22.1430 N   0  0  0  0  0  0  0  0  0  0  0  0
  -23.4670  -32.1060   23.7610 O   0  0  0  0  0  0  0  0  0  0  0  0
  -22.7270  -29.4280   22.4810 C   0  0  0  0  0  0  0  0  0  0  0  0
  -21.4110  -29.2310   22.3060 N   0  0  0  0  0  0  0  0  0  0  0  0
  -23.3910  -28.8020   23.3100 O   0  0  0  0  0  0  0  0  0  0  0  0
  -20.9340  -29.7940   21.6180 H   0  0  0  0  0  0  0  0  0  0  0  0
  -18.0380  -27.9960   22.6980 C   0  0  0  0  0  0  0  0  0  0  0  0
  -20.5840  -28.2760   23.0450 C   0  0  0  0  0  3  0  0  0  0  0  0
  -20.7120  -26.8540   22.4520 C   0  0  0  0  0  2  0  0  0  0  0  0
  -19.6430  -26.5340   21.4010 C   0  0  0  0  0  2  0  0  0  0  0  0
  -18.2430  -26.6570   22.0060 C   0  0  0  0  0  2  0  0  0  0  0  0
  -19.1370  -28.7600   23.1700 C   0  0  0  0  0  0  0  0  0  0  0  0
  -18.8890  -30.0120   23.7750 C   0  0  0  0  0  3  0  0  0  0  0  0
  -17.5770  -30.5040   23.9050 C   0  0  0  0  0  3  0  0  0  0  0  0
  -16.4930  -29.7360   23.4460 C   0  0  0  0  0  3  0  0  0  0  0  0
  -16.7220  -28.4820   22.8520 C   0  0  0  0  0  3  0  0  0  0  0  0
  -25.8300  -32.4680   23.9140 C   0  0  0  0  0  3  0  0  0  0  0  0
  -26.2900  -31.7070   25.2170 C   0  0  1  0  0  0  0  0  0  0  0  0
  -25.1530  -31.4840   26.2440 C   0  0  0  0  0  1  0  0  0  0  0  0
  -26.8800  -30.3240   24.8600 C   0  0  0  0  0  1  0  0  0  0  0  0
  -27.4170  -32.4980   25.9200 C   0  0  0  0  0  1  0  0  0  0  0  0
  -25.5220  -33.8740   24.2170 N   0  0  0  0  0  0  0  0  0  0  0  0
  -25.8950  -34.9140   23.4580 C   0  0  0  0  0  0  0  0  0  0  0  0
  -26.6030  -34.7890   22.4550 O   0  0  0  0  0  0  0  0  0  0  0  0
  -24.8980  -34.0470   24.9920 H   0  0  0  0  0  0  0  0  0  0  0  0
  -24.2100  -36.7200   22.9960 C   0  0  0  0  0  1  0  0  0  0  0  0
  -25.4020  -36.3130   23.8760 C   0  0  0  0  0  3  0  0  0  0  0  0
  -27.4980  -37.1870   24.8090 C   0  0  0  0  0  1  0  0  0  0  0  0
  -26.4510  -37.3530   23.8050 N   0  0  0  0  0  0  0  0  0  0  0  0
  -26.0480  -38.2820   23.9110 H   0  0  0  0  0  0  0  0  0  0  0  0
  -29.7880  -23.8480   21.4870 C   0  0  0  0  0  2  0  0  0  0  0  0
  -28.8020  -23.6750   22.5740 N   0  0  0  0  0  4  0  0  0  0  0  0
  -29.2050  -23.0930   23.2840 H   0  0  0  0  0  0  0  0  0  0  0  0
  -27.9650  -23.2250   22.2430 H   0  0  0  0  0  0  0  0  0  0  0  0
  -28.5490  -24.5550   22.9980 H   0  0  0  0  0  0  0  0  0  0  0  0
  1 49  1  0
  1 91  1  0
  2  4  1  0
  2  1  1  0
  3  4  1  0
  5  2  1  0
  6  5  1  0
  6  7  1  0
  7  8  2  0
  9  6  1  0
  9 10  2  0
 11 19  1  0
 12 17  1  0
 13 14  1  0
 13 12  1  0
 15 14  1  0
 15 24  1  0
 15 16  1  0
 17 11  1  0
 17 16  1  0
 18 11  2  0
 19 20  1  0
 19 10  1  0
 21 22  2  0
 22 41  1  0
 23 22  1  0
 23 26  1  0
 24 21  1  0
 24 25  1  0
 25 23  2  0
 26 27  1  0
 27 28  2  0
 29 32  1  0
 29 28  1  0
 30 29  2  0
 31 30  1  0
 31 26  2  0
 32 33  1  0
 33 34  1  0
 34 35  2  0
 36 35  1  0
 36 40  1  0
 37 36  2  0
 38 33  2  0
 38 37  1  0
 39 38  1  0
 41 42  1  0
 42 45  1  0
 42 44  1  0
 43 41  2  0
 46 47  1  0
 46 21  1  0
 48 46  1  0
 49 50  1  0
 51 62  2  0
 52 50  1  0
 52 57  1  0
 53 61  1  0
 53 63  1  0
 54 60  1  0
 54 56  1  0
 55 61  1  0
 56 55  1  0
 57 56  2  0
 58 59  1  0
 58 52  2  0
 59 54  2  0
 60 53  1  0
 61 51  1  0
 63 65  2  0
 64 63  1  0
 66 64  1  0
 67 76  2  0
 67 72  1  0
 68 64  1  0
 68 72  1  0
 69 68  1  0
 70 71  1  0
 70 69  1  0
 71 67  1  0
 72 73  2  0
 73 74  1  0
 75 74  2  0
 76 75  1  0
 77 51  1  0
 77 82  1  0
 77 78  1  0
 78 81  1  1
 78 79  1  0
 80 78  1  0
 82 85  1  0
 83 87  1  0
 83 82  1  0
 84 83  2  0
 87 86  1  0
 89 87  1  0
 89 90  1  0
 89 88  1  0
 91 92  1  0
 92 95  1  0
 92 93  1  0
 94 92  1  0
M  ISO  4  11 100  19 100  49 101  50 101
M  END
>  <TORSDO>  (29) 
F 26

>  <SCORE>  (29) 
-12.331

>  <name>  (29) 
28

>  <ligand_id>  (29) 
28

>  <original_smiles>  (29) 
[H]C(=O)C([H])(C([H])([H])C([H])([H])N([H])C(=O)N1C([H])([H])C([H])([H])C([H])([H])C([H])(n2nc(-c3c([H])c([H])c(Oc4c([H])c([H])c(F)c([H])c4F)c([H])c3[H])c(C(=O)N([H])[H])c2N([H])[H])C1([H])[H])C([H])([H])C([H])(C([H])([H])C([H])([H])[H])C([H])(C([H])([H])Oc1c([H])c([H])c2c(c1[H])C([H])([H])N(C(=O)C([H])(N([H])C(=O)C([H])(N([H])C([H])([H])[H])C([H])([H])[H])C(C([H])([H])[H])(C([H])([H])[H])C([H])([H])[H])C([H])(C(=O)N([H])C1([H])c3c([H])c([H])c([H])c([H])c3C([H])([H])C([H])([H])C1([H])[H])C2([H])[H])C([H])([H])[N+]([H])([H])[H]

>  <smiles>  (29) 
[H]C(=O)C([H])(C([H])([H])C([H])([H])N([H])C(=O)N1C([H])([H])C([H])([H])C([H])([H])C([H])(n2nc(-c3c([H])c([H])c(Oc4c([H])c([H])c(F)c([H])c4F)c([H])c3[H])c(C(=O)N([H])[H])c2N([H])[H])C1([H])[H])C([H])([H])C([H])(C([H])([H])C([H])([H])[H])C([H])(C([H])([H])Oc1c([H])c([H])c2c(c1[H])C([H])([H])N(C(=O)C([H])(N([H])C(=O)C([H])(N([H])C([H])([H])[H])C([H])([H])[H])C(C([H])([H])[H])(C([H])([H])[H])C([H])([H])[H])C([H])(C(=O)N([H])C1([H])c3c([H])c([H])c([H])c([H])c3C([H])([H])C([H])([H])C1([H])[H])C2([H])[H])C([H])([H])[N+]([H])([H])[H]

$$$$
29:0:0
     RDKit          3D

 88 97  0  0  1  0  0  0  0  0999 V2000
  -27.8130  -18.8350   20.9390 C   0  0  0  0  0  2  0  0  0  0  0  0
  -28.7510  -20.0640   21.0960 C   0  0  0  0  0  2  0  0  0  0  0  0
  -28.4210  -18.3420   18.4220 C   0  0  0  0  0  2  0  0  0  0  0  0
  -27.5560  -20.3460   19.1590 C   0  0  0  0  0  2  0  0  0  0  0  0
  -27.3840  -18.8860   19.4320 C   0  0  0  0  0  3  0  0  0  0  0  0
  -29.7700  -18.7360   19.0430 C   0  0  0  0  0  3  0  0  0  0  0  0
  -29.0160  -20.4450   19.6330 C   0  0  2  0  0  0  0  0  0  0  0  0
  -30.7470  -15.7310   19.3280 C   0  0  0  0  0  0  0  0  0  0  0  0
  -30.7260  -13.1700   18.6490 C   0  0  0  0  0  2  0  0  0  0  0  0
  -29.7110  -12.8210   17.5280 C   0  0  0  0  0  2  0  0  0  0  0  0
  -28.3130  -12.5370   18.0990 C   0  0  0  0  0  2  0  0  0  0  0  0
  -27.9550  -13.5130   19.2440 C   0  0  0  0  0  3  0  0  0  0  0  0
  -29.1100  -13.8120   20.2300 C   0  0  0  0  0  2  0  0  0  0  0  0
  -30.2340  -14.3720   19.4480 N   0  0  0  0  0  0  0  0  0  0  0  0
  -31.8940  -15.6890   18.8490 O   0  0  0  0  0  0  0  0  0  0  0  0
  -30.0310  -17.0700   19.5840 N   0  0  0  0  0  0  0  0  0  0  0  0
  -29.1950  -16.8300   20.0950 H   0  0  0  0  0  0  0  0  0  0  0  0
  -25.7520  -14.0480   20.3890 C   0  0  0  0  0  0  0  0  0  0  0  0
  -24.7220  -13.2690   20.8370 C   0  0  0  0  0  0  0  0  0  0  0  0
  -25.1170  -11.9130   20.6180 C   0  0  0  0  0  0  0  0  0  0  0  0
  -26.7080  -13.1690   19.9140 N   0  0  0  0  0  0  0  0  0  0  0  0
  -26.3480  -11.8740   20.1130 N   0  0  0  0  0  0  0  0  0  0  0  0
  -24.3650  -10.6630   20.7980 C   0  0  0  0  0  0  0  0  0  0  0  0
  -24.7940   -9.6650   21.7000 C   0  0  0  0  0  3  0  0  0  0  0  0
  -24.0350   -8.4870   21.8790 C   0  0  0  0  0  3  0  0  0  0  0  0
  -22.8340   -8.2980   21.1560 C   0  0  0  0  0  0  0  0  0  0  0  0
  -22.4230   -9.2860   20.2430 C   0  0  0  0  0  3  0  0  0  0  0  0
  -23.1820  -10.4540   20.0620 C   0  0  0  0  0  3  0  0  0  0  0  0
  -22.0490   -7.1730   21.2430 O   0  0  0  0  0  0  0  0  0  0  0  0
  -21.8660   -6.5130   22.4310 C   0  0  0  0  0  0  0  0  0  0  0  0
  -21.2700   -7.1400   23.5470 C   0  0  0  0  0  3  0  0  0  0  0  0
  -21.0360   -6.4040   24.7270 C   0  0  0  0  0  3  0  0  0  0  0  0
  -21.3880   -5.0420   24.7890 C   0  0  0  0  0  0  0  0  0  0  0  0
  -21.9740   -4.4140   23.6760 C   0  0  0  0  0  3  0  0  0  0  0  0
  -22.2070   -5.1460   22.5000 C   0  0  0  0  0  0  0  0  0  0  0  0
  -22.7520   -4.5310   21.4220 F   0  0  0  0  0  0  0  0  0  0  0  0
  -21.1560   -4.3320   25.9190 F   0  0  0  0  0  0  0  0  0  0  0  0
  -23.4040  -13.7660   21.3530 C   0  0  0  0  0  0  0  0  0  0  0  0
  -22.7970  -13.0340   22.2800 N   0  0  0  0  0  0  0  0  0  0  0  0
  -22.9320  -14.8360   20.9710 O   0  0  0  0  0  0  0  0  0  0  0  0
  -23.2000  -12.1670   22.6060 H   0  0  0  0  0  0  0  0  0  0  0  0
  -21.9190  -13.3450   22.6690 H   0  0  0  0  0  0  0  0  0  0  0  0
  -25.9430  -15.4240   20.3220 N   0  0  0  0  0  0  0  0  0  0  0  0
  -25.2290  -16.0810   20.6120 H   0  0  0  0  0  0  0  0  0  0  0  0
  -26.7620  -15.8790   19.9380 H   0  0  0  0  0  0  0  0  0  0  0  0
  -29.1900  -22.3400   19.3420 C   0  0  0  0  0  3  0  0  0  0  0  0
  -28.1580  -23.9630   19.4610 C   0  0  0  0  0  3  0  0  0  0  0  0
  -28.3070  -25.7010   19.4350 O   0  0  0  0  0  0  0  0  0  0  0  0
  -24.6770  -31.5770   22.9050 C   0  0  0  0  0  0  0  0  0  0  0  0
  -27.2870  -26.8560   19.5020 C   0  0  0  0  0  0  0  0  0  0  0  0
  -23.4970  -30.2860   21.1810 C   0  0  0  0  0  3  0  0  0  0  0  0
  -24.9630  -28.7970   19.6260 C   0  0  0  0  0  0  0  0  0  0  0  0
  -26.0680  -30.5180   21.0320 C   0  0  0  0  0  2  0  0  0  0  0  0
  -26.1600  -29.1490   20.2630 C   0  0  0  0  0  0  0  0  0  0  0  0
  -27.3090  -28.2090   20.1640 C   0  0  0  0  0  3  0  0  0  0  0  0
  -26.0500  -26.7060   18.8270 C   0  0  0  0  0  3  0  0  0  0  0  0
  -24.9430  -27.6040   18.8850 C   0  0  0  0  0  3  0  0  0  0  0  0
  -23.7310  -29.7050   19.7570 C   0  0  0  0  0  2  0  0  0  0  0  0
  -24.7710  -30.8230   21.7600 N   0  0  0  0  0  0  0  0  0  0  0  0
  -23.5850  -31.8070   23.4530 O   0  0  0  0  0  0  0  0  0  0  0  0
  -22.8220  -29.2160   22.0820 C   0  0  0  0  0  0  0  0  0  0  0  0
  -21.4870  -29.0660   21.9900 N   0  0  0  0  0  0  0  0  0  0  0  0
  -23.5120  -28.5180   22.8290 O   0  0  0  0  0  0  0  0  0  0  0  0
  -20.9780  -29.6930   21.3820 H   0  0  0  0  0  0  0  0  0  0  0  0
  -18.1180  -27.8240   22.5600 C   0  0  0  0  0  0  0  0  0  0  0  0
  -20.6950  -28.0430   22.6840 C   0  0  0  0  0  3  0  0  0  0  0  0
  -20.7380  -26.6950   21.9190 C   0  0  0  0  0  2  0  0  0  0  0  0
  -19.5590  -26.5050   20.9590 C   0  0  0  0  0  2  0  0  0  0  0  0
  -18.2330  -26.5630   21.7190 C   0  0  0  0  0  2  0  0  0  0  0  0
  -19.2740  -28.5240   23.0020 C   0  0  0  0  0  0  0  0  0  0  0  0
  -19.1060  -29.7010   23.7650 C   0  0  0  0  0  3  0  0  0  0  0  0
  -17.8230  -30.1850   24.0760 C   0  0  0  0  0  3  0  0  0  0  0  0
  -16.6850  -29.4840   23.6380 C   0  0  0  0  0  3  0  0  0  0  0  0
  -16.8330  -28.3070   22.8870 C   0  0  0  0  0  3  0  0  0  0  0  0
  -25.9370  -32.2060   23.5800 C   0  0  0  0  0  3  0  0  0  0  0  0
  -25.5950  -33.5770   24.0020 N   0  0  0  0  0  0  0  0  0  0  0  0
  -25.8800  -34.6910   23.3120 C   0  0  0  0  0  0  0  0  0  0  0  0
  -26.5150  -34.6700   22.2560 O   0  0  0  0  0  0  0  0  0  0  0  0
  -25.0260  -33.6630   24.8330 H   0  0  0  0  0  0  0  0  0  0  0  0
  -24.0880  -36.4550   23.1710 C   0  0  0  0  0  1  0  0  0  0  0  0
  -25.3840  -36.0380   23.8820 C   0  0  0  0  0  3  0  0  0  0  0  0
  -27.5320  -36.9490   24.6550 C   0  0  0  0  0  1  0  0  0  0  0  0
  -26.3810  -37.1270   23.7740 N   0  0  0  0  0  0  0  0  0  0  0  0
  -25.9560  -38.0250   23.9860 H   0  0  0  0  0  0  0  0  0  0  0  0
  -26.4490  -31.3740   24.8210 C   0  0  1  0  0  0  0  0  0  0  0  0
  -25.3510  -31.0780   25.8720 C   0  0  0  0  0  1  0  0  0  0  0  0
  -27.0490  -30.0200   24.3780 C   0  0  0  0  0  1  0  0  0  0  0  0
  -27.5890  -32.1440   25.5270 C   0  0  0  0  0  1  0  0  0  0  0  0
  1  2  1  0
  3  6  1  0
  4  5  1  0
  4  7  1  0
  5  3  1  0
  5  1  1  0
  6 16  1  0
  6  7  1  0
  7 46  1  1
  7  2  1  0
  8 14  1  0
  8 16  1  0
  9 14  1  0
 10 11  1  0
 10  9  1  0
 12 11  1  0
 12 21  1  0
 12 13  1  0
 14 13  1  0
 15  8  2  0
 16 17  1  0
 18 19  2  0
 19 38  1  0
 20 23  1  0
 20 19  1  0
 21 22  1  0
 21 18  1  0
 22 20  2  0
 23 24  1  0
 24 25  2  0
 26 29  1  0
 26 25  1  0
 27 26  2  0
 28 27  1  0
 28 23  2  0
 29 30  1  0
 30 35  2  0
 30 31  1  0
 31 32  2  0
 32 33  1  0
 33 37  1  0
 34 33  2  0
 35 34  1  0
 36 35  1  0
 38 39  1  0
 39 41  1  0
 39 42  1  0
 40 38  2  0
 43 18  1  0
 43 44  1  0
 45 43  1  0
 46 47  2  0
 48 47  1  0
 48 50  1  0
 49 60  2  0
 50 55  1  0
 51 59  1  0
 51 61  1  0
 52 58  1  0
 52 54  1  0
 53 59  1  0
 54 53  1  0
 55 54  2  0
 56 57  1  0
 56 50  2  0
 57 52  2  0
 58 51  1  0
 59 49  1  0
 61 63  2  0
 62 61  1  0
 64 62  1  0
 65 74  2  0
 65 70  1  0
 66 62  1  0
 66 70  1  0
 67 66  1  0
 68 69  1  0
 68 67  1  0
 69 65  1  0
 70 71  2  0
 71 72  1  0
 73 72  2  0
 74 73  1  0
 75 49  1  0
 75 76  1  0
 75 85  1  0
 76 79  1  0
 77 81  1  0
 77 76  1  0
 78 77  2  0
 81 80  1  0
 83 81  1  0
 83 84  1  0
 83 82  1  0
 85 88  1  1
 85 86  1  0
 87 85  1  0
M  ISO  4   8 100  16 100  47 101  48 101
M  END
>  <TORSDO>  (30) 
F 18

>  <SCORE>  (30) 
-13.956

>  <name>  (30) 
29

>  <ligand_id>  (30) 
29

>  <original_smiles>  (30) 
[H]c1c([H])c([H])c2c(c1[H])C([H])([H])C([H])([H])C([H])([H])C2([H])N([H])C(=O)C1([H])N(C(=O)C([H])(N([H])C(=O)C([H])(N([H])C([H])([H])[H])C([H])([H])[H])C(C([H])([H])[H])(C([H])([H])[H])C([H])([H])[H])C([H])([H])c2c([H])c(OC([H])([H])C([H])([H])C34C([H])([H])C([H])([H])C([H])(C([H])([H])C3([H])N([H])C(=O)N3C([H])([H])C([H])([H])C([H])([H])C([H])(n5nc(-c6c([H])c([H])c(Oc7c([H])c([H])c(F)c([H])c7F)c([H])c6[H])c(C(=O)N([H])[H])c5N([H])[H])C3([H])[H])C4([H])[H])c([H])c([H])c2C1([H])[H]

>  <smiles>  (30) 
[H]c1c([H])c([H])c2c(c1[H])C([H])([H])C([H])([H])C([H])([H])C2([H])N([H])C(=O)C1([H])N(C(=O)C([H])(N([H])C(=O)C([H])(N([H])C([H])([H])[H])C([H])([H])[H])C(C([H])([H])[H])(C([H])([H])[H])C([H])([H])[H])C([H])([H])c2c([H])c(OC([H])([H])C([H])([H])C34C([H])([H])C([H])([H])C([H])(C([H])([H])C3([H])N([H])C(=O)N3C([H])([H])C([H])([H])C([H])([H])C([H])(n5nc(-c6c([H])c([H])c(Oc7c([H])c([H])c(F)c([H])c7F)c([H])c6[H])c(C(=O)N([H])[H])c5N([H])[H])C3([H])[H])C4([H])[H])c([H])c([H])c2C1([H])[H]

$$$$
30:0:0
     RDKit          3D

 91 99  0  0  1  0  0  0  0  0999 V2000
  -28.9860  -20.3900   20.6840 C   0  0  0  0  0  0  0  0  0  0  0  0
  -29.4720  -21.5980   20.3130 N   0  0  0  0  0  0  0  0  0  0  0  0
  -27.8270  -20.2670   21.0870 O   0  0  0  0  0  0  0  0  0  0  0  0
  -30.4330  -21.6430   20.0010 H   0  0  0  0  0  0  0  0  0  0  0  0
  -29.7150  -18.0660   21.1250 C   0  0  0  0  0  2  0  0  0  0  0  0
  -29.9030  -19.2530   20.5240 C   0  0  0  0  0  3  0  0  0  0  0  0
  -31.0860  -19.2120   19.5910 C   0  0  0  0  0  2  0  0  0  0  0  0
  -31.4640  -17.7090   19.5480 C   0  0  0  0  0  2  0  0  0  0  0  0
  -30.7580  -17.0270   20.7570 C   0  0  0  0  0  3  0  0  0  0  0  0
  -30.8640  -14.6000   20.0400 C   0  0  0  0  0  0  0  0  0  0  0  0
  -30.4880  -12.4150   18.9580 C   0  0  0  0  0  2  0  0  0  0  0  0
  -29.4820  -12.5820   17.7990 C   0  0  0  0  0  2  0  0  0  0  0  0
  -28.0340  -12.4580   18.3130 C   0  0  0  0  0  2  0  0  0  0  0  0
  -27.7610  -13.3270   19.5690 C   0  0  0  0  0  3  0  0  0  0  0  0
  -28.8770  -13.1540   20.6230 C   0  0  0  0  0  2  0  0  0  0  0  0
  -30.1640  -13.4350   19.9660 N   0  0  0  0  0  0  0  0  0  0  0  0
  -31.9980  -14.7160   19.5700 O   0  0  0  0  0  0  0  0  0  0  0  0
  -30.1980  -15.6770   20.5130 N   0  0  0  0  0  0  0  0  0  0  0  0
  -29.2460  -15.5210   20.8060 H   0  0  0  0  0  0  0  0  0  0  0  0
  -25.4280  -13.9520   20.4520 C   0  0  0  0  0  0  0  0  0  0  0  0
  -24.3690  -13.1880   20.8620 C   0  0  0  0  0  0  0  0  0  0  0  0
  -24.7990  -11.8290   20.7570 C   0  0  0  0  0  0  0  0  0  0  0  0
  -26.4380  -13.0590   20.1280 N   0  0  0  0  0  0  0  0  0  0  0  0
  -26.0680  -11.7760   20.3700 N   0  0  0  0  0  0  0  0  0  0  0  0
  -24.0570  -10.5760   20.9470 C   0  0  0  0  0  0  0  0  0  0  0  0
  -24.4830   -9.5980   21.8720 C   0  0  0  0  0  3  0  0  0  0  0  0
  -23.7410   -8.4110   22.0520 C   0  0  0  0  0  3  0  0  0  0  0  0
  -22.5570   -8.1930   21.3070 C   0  0  0  0  0  0  0  0  0  0  0  0
  -22.1500   -9.1600   20.3700 C   0  0  0  0  0  3  0  0  0  0  0  0
  -22.8930  -10.3390   20.1880 C   0  0  0  0  0  3  0  0  0  0  0  0
  -21.7880   -7.0580   21.3970 O   0  0  0  0  0  0  0  0  0  0  0  0
  -21.6890   -6.3450   22.5650 C   0  0  0  0  0  0  0  0  0  0  0  0
  -21.1500   -6.9140   23.7410 C   0  0  0  0  0  3  0  0  0  0  0  0
  -21.0000   -6.1250   24.8990 C   0  0  0  0  0  3  0  0  0  0  0  0
  -21.3780   -4.7690   24.8830 C   0  0  0  0  0  0  0  0  0  0  0  0
  -21.9090   -4.2010   23.7120 C   0  0  0  0  0  3  0  0  0  0  0  0
  -22.0610   -4.9860   22.5560 C   0  0  0  0  0  0  0  0  0  0  0  0
  -22.5540   -4.4260   21.4250 F   0  0  0  0  0  0  0  0  0  0  0  0
  -21.2280   -4.0100   25.9930 F   0  0  0  0  0  0  0  0  0  0  0  0
  -23.0020  -13.6840   21.2360 C   0  0  0  0  0  0  0  0  0  0  0  0
  -22.3140  -12.9790   22.1270 N   0  0  0  0  0  0  0  0  0  0  0  0
  -22.5540  -14.7320   20.7730 O   0  0  0  0  0  0  0  0  0  0  0  0
  -22.6890  -12.1310   22.5270 H   0  0  0  0  0  0  0  0  0  0  0  0
  -21.4000  -13.2950   22.4170 H   0  0  0  0  0  0  0  0  0  0  0  0
  -25.6090  -15.3240   20.3110 N   0  0  0  0  0  0  0  0  0  0  0  0
  -24.8580  -15.9840   20.4870 H   0  0  0  0  0  0  0  0  0  0  0  0
  -26.4420  -15.7620   19.9340 H   0  0  0  0  0  0  0  0  0  0  0  0
  -28.6190  -22.7960   20.1390 C   0  0  0  0  0  2  0  0  0  0  0  0
  -29.2790  -24.2070   20.2830 C   0  0  0  0  0  2  0  0  0  0  0  0
  -28.2550  -25.3010   19.8560 C   0  0  0  0  0  2  0  0  0  0  0  0
  -28.4760  -26.7040   20.1790 O   0  0  0  0  0  0  0  0  0  0  0  0
  -24.6530  -31.8880   23.3150 C   0  0  0  0  0  0  0  0  0  0  0  0
  -27.3330  -27.5040   20.1350 C   0  0  0  0  0  0  0  0  0  0  0  0
  -23.4660  -30.5190   21.6390 C   0  0  0  0  0  3  0  0  0  0  0  0
  -24.9340  -29.0380   20.1780 C   0  0  0  0  0  0  0  0  0  0  0  0
  -25.9960  -30.8880   21.4650 C   0  0  0  0  0  2  0  0  0  0  0  0
  -26.0930  -29.5350   20.7850 C   0  0  0  0  0  0  0  0  0  0  0  0
  -27.2960  -28.7780   20.7620 C   0  0  0  0  0  3  0  0  0  0  0  0
  -26.1490  -27.0540   19.4950 C   0  0  0  0  0  3  0  0  0  0  0  0
  -24.9600  -27.7970   19.5290 C   0  0  0  0  0  3  0  0  0  0  0  0
  -23.6850  -29.8850   20.2430 C   0  0  0  0  0  2  0  0  0  0  0  0
  -24.7230  -31.1130   22.1970 N   0  0  0  0  0  0  0  0  0  0  0  0
  -23.5670  -32.1380   23.8570 O   0  0  0  0  0  0  0  0  0  0  0  0
  -22.8200  -29.4650   22.5680 C   0  0  0  0  0  0  0  0  0  0  0  0
  -21.5020  -29.2530   22.4100 N   0  0  0  0  0  0  0  0  0  0  0  0
  -23.5010  -28.8440   23.3890 O   0  0  0  0  0  0  0  0  0  0  0  0
  -21.0120  -29.8030   21.7170 H   0  0  0  0  0  0  0  0  0  0  0  0
  -18.1450  -27.9820   22.8410 C   0  0  0  0  0  0  0  0  0  0  0  0
  -20.6940  -28.2850   23.1530 C   0  0  0  0  0  3  0  0  0  0  0  0
  -20.8310  -26.8650   22.5530 C   0  0  0  0  0  2  0  0  0  0  0  0
  -19.7500  -26.5400   21.5180 C   0  0  0  0  0  2  0  0  0  0  0  0
  -18.3570  -26.6480   22.1440 C   0  0  0  0  0  2  0  0  0  0  0  0
  -19.2420  -28.7570   23.3010 C   0  0  0  0  0  0  0  0  0  0  0  0
  -18.9920  -30.0050   23.9100 C   0  0  0  0  0  3  0  0  0  0  0  0
  -17.6760  -30.4790   24.0650 C   0  0  0  0  0  3  0  0  0  0  0  0
  -16.5930  -29.7020   23.6230 C   0  0  0  0  0  3  0  0  0  0  0  0
  -16.8270  -28.4540   23.0170 C   0  0  0  0  0  3  0  0  0  0  0  0
  -25.9310  -32.5180   23.9500 C   0  0  0  0  0  3  0  0  0  0  0  0
  -26.4190  -31.7590   25.2450 C   0  0  1  0  0  0  0  0  0  0  0  0
  -25.3020  -31.5330   26.2900 C   0  0  0  0  0  1  0  0  0  0  0  0
  -27.0100  -30.3760   24.8810 C   0  0  0  0  0  1  0  0  0  0  0  0
  -27.5520  -32.5610   25.9270 C   0  0  0  0  0  1  0  0  0  0  0  0
  -25.6240  -33.9220   24.2550 N   0  0  0  0  0  0  0  0  0  0  0  0
  -25.9240  -34.9560   23.4590 C   0  0  0  0  0  0  0  0  0  0  0  0
  -26.5580  -34.8310   22.4080 O   0  0  0  0  0  0  0  0  0  0  0  0
  -25.0580  -34.0930   25.0730 H   0  0  0  0  0  0  0  0  0  0  0  0
  -24.1540  -36.7160   23.1400 C   0  0  0  0  0  1  0  0  0  0  0  0
  -25.4420  -36.3520   23.8970 C   0  0  0  0  0  3  0  0  0  0  0  0
  -27.5940  -37.3000   24.6000 C   0  0  0  0  0  1  0  0  0  0  0  0
  -26.4520  -37.4130   23.6970 N   0  0  0  0  0  0  0  0  0  0  0  0
  -26.0390  -38.3330   23.8240 H   0  0  0  0  0  0  0  0  0  0  0  0
  1  3  2  0
  2  1  1  0
  4  2  1  0
  6  1  1  0
  6  5  1  0
  7  6  1  0
  8  7  1  0
  8  9  1  0
  9 18  1  0
  9  5  1  0
 10 18  1  0
 11 16  1  0
 12 13  1  0
 12 11  1  0
 14 13  1  0
 14 23  1  0
 14 15  1  0
 16 10  1  0
 16 15  1  0
 17 10  2  0
 18 19  1  0
 20 21  2  0
 21 40  1  0
 22 21  1  0
 22 25  1  0
 23 24  1  0
 23 20  1  0
 24 22  2  0
 25 26  1  0
 26 27  2  0
 28 31  1  0
 28 27  1  0
 29 28  2  0
 30 29  1  0
 30 25  2  0
 31 32  1  0
 32 33  1  0
 33 34  2  0
 35 34  1  0
 35 39  1  0
 36 35  2  0
 37 32  2  0
 37 36  1  0
 38 37  1  0
 40 41  1  0
 41 44  1  0
 41 43  1  0
 42 40  2  0
 45 20  1  0
 45 46  1  0
 47 45  1  0
 48 49  1  0
 48  2  1  0
 50 51  1  0
 50 49  1  0
 52 63  2  0
 53 51  1  0
 53 58  1  0
 54 62  1  0
 54 64  1  0
 55 61  1  0
 55 57  1  0
 56 62  1  0
 57 56  1  0
 58 57  2  0
 59 60  1  0
 59 53  2  0
 60 55  2  0
 61 54  1  0
 62 52  1  0
 64 66  2  0
 65 64  1  0
 67 65  1  0
 68 77  2  0
 68 73  1  0
 69 65  1  0
 69 73  1  0
 70 69  1  0
 71 72  1  0
 71 70  1  0
 72 68  1  0
 73 74  2  0
 74 75  1  0
 76 75  2  0
 77 76  1  0
 78 52  1  0
 78 83  1  0
 78 79  1  0
 79 82  1  1
 79 80  1  0
 81 79  1  0
 83 86  1  0
 84 88  1  0
 84 83  1  0
 85 84  2  0
 88 87  1  0
 90 91  1  0
 90 88  1  0
 90 89  1  0
M  ISO  4  10 100  18 100  50 101  51 101
M  END
>  <TORSDO>  (31) 
F 20

>  <SCORE>  (31) 
-13.358

>  <name>  (31) 
30

>  <ligand_id>  (31) 
30

>  <original_smiles>  (31) 
[H]C1=C(C(=O)N([H])C([H])([H])C([H])([H])C([H])([H])Oc2c([H])c([H])c3c(c2[H])C([H])([H])N(C(=O)C([H])(N([H])C(=O)C([H])(N([H])C([H])([H])[H])C([H])([H])[H])C(C([H])([H])[H])(C([H])([H])[H])C([H])([H])[H])C([H])(C(=O)N([H])C2([H])c4c([H])c([H])c([H])c([H])c4C([H])([H])C([H])([H])C2([H])[H])C3([H])[H])C([H])([H])C([H])([H])C1([H])N([H])C(=O)N1C([H])([H])C([H])([H])C([H])([H])C([H])(n2nc(-c3c([H])c([H])c(Oc4c([H])c([H])c(F)c([H])c4F)c([H])c3[H])c(C(=O)N([H])[H])c2N([H])[H])C1([H])[H]

>  <smiles>  (31) 
[H]C1=C(C(=O)N([H])C([H])([H])C([H])([H])C([H])([H])Oc2c([H])c([H])c3c(c2[H])C([H])([H])N(C(=O)C([H])(N([H])C(=O)C([H])(N([H])C([H])([H])[H])C([H])([H])[H])C(C([H])([H])[H])(C([H])([H])[H])C([H])([H])[H])C([H])(C(=O)N([H])C2([H])c4c([H])c([H])c([H])c([H])c4C([H])([H])C([H])([H])C2([H])[H])C3([H])[H])C([H])([H])C([H])([H])C1([H])N([H])C(=O)N1C([H])([H])C([H])([H])C([H])([H])C([H])(n2nc(-c3c([H])c([H])c(Oc4c([H])c([H])c(F)c([H])c4F)c([H])c3[H])c(C(=O)N([H])[H])c2N([H])[H])C1([H])[H]

$$$$
31:0:0
     RDKit          3D

 94103  0  0  1  0  0  0  0  0999 V2000
  -29.2630  -21.4540   18.9250 C   0  0  0  0  0  2  0  0  0  0  0  0
  -30.0900  -21.9860   21.0510 C   0  0  0  0  0  2  0  0  0  0  0  0
  -29.8620  -18.7640   19.2010 C   0  0  0  0  0  2  0  0  0  0  0  0
  -31.0220  -18.2950   21.3010 C   0  0  0  0  0  2  0  0  0  0  0  0
  -30.3200  -20.3020   19.2190 C   0  0  0  0  0  3  0  0  0  0  0  0
  -30.9980  -20.8130   20.5150 C   0  0  0  0  0  3  0  0  0  0  0  0
  -29.6500  -22.7400   19.7620 C   0  0  0  0  0  3  0  0  0  0  0  0
  -30.8840  -17.7380   19.8580 C   0  0  0  0  0  3  0  0  0  0  0  0
  -31.6900  -19.7140   21.4310 C   0  0  2  0  0  0  0  0  0  0  0  0
  -31.3700  -15.1150   19.7750 C   0  0  0  0  0  0  0  0  0  0  0  0
  -31.1840  -12.7260   19.0610 C   0  0  0  0  0  2  0  0  0  0  0  0
  -30.2020  -12.6290   17.8720 C   0  0  0  0  0  2  0  0  0  0  0  0
  -28.7490  -12.5010   18.3710 C   0  0  0  0  0  2  0  0  0  0  0  0
  -28.4030  -13.5360   19.4740 C   0  0  0  0  0  3  0  0  0  0  0  0
  -29.4970  -13.5950   20.5620 C   0  0  0  0  0  2  0  0  0  0  0  0
  -30.7660  -13.8830   19.8820 N   0  0  0  0  0  0  0  0  0  0  0  0
  -32.5480  -15.2000   19.4190 O   0  0  0  0  0  0  0  0  0  0  0  0
  -30.5640  -16.2400   19.8790 N   0  0  0  0  0  0  0  0  0  0  0  0
  -29.6010  -16.0210   20.0860 H   0  0  0  0  0  0  0  0  0  0  0  0
  -26.1200  -14.2340   20.4150 C   0  0  0  0  0  0  0  0  0  0  0  0
  -25.0280  -13.5100   20.8090 C   0  0  0  0  0  0  0  0  0  0  0  0
  -25.3900  -12.1350   20.6530 C   0  0  0  0  0  0  0  0  0  0  0  0
  -27.0790  -13.3060   20.0420 N   0  0  0  0  0  0  0  0  0  0  0  0
  -26.6510  -12.0340   20.2480 N   0  0  0  0  0  0  0  0  0  0  0  0
  -24.5890  -10.9150   20.8080 C   0  0  0  0  0  0  0  0  0  0  0  0
  -24.9730   -9.8870   21.6970 C   0  0  0  0  0  3  0  0  0  0  0  0
  -24.1740   -8.7310   21.8420 C   0  0  0  0  0  3  0  0  0  0  0  0
  -22.9780   -8.5970   21.0980 C   0  0  0  0  0  0  0  0  0  0  0  0
  -22.6130   -9.6120   20.1980 C   0  0  0  0  0  3  0  0  0  0  0  0
  -23.4110  -10.7590   20.0500 C   0  0  0  0  0  3  0  0  0  0  0  0
  -22.1540   -7.4990   21.1570 O   0  0  0  0  0  0  0  0  0  0  0  0
  -21.9730   -6.7950   22.3200 C   0  0  0  0  0  0  0  0  0  0  0  0
  -21.4610   -7.4030   23.4870 C   0  0  0  0  0  3  0  0  0  0  0  0
  -21.2260   -6.6270   24.6400 C   0  0  0  0  0  3  0  0  0  0  0  0
  -21.4920   -5.2450   24.6260 C   0  0  0  0  0  0  0  0  0  0  0  0
  -21.9970   -4.6370   23.4630 C   0  0  0  0  0  3  0  0  0  0  0  0
  -22.2340   -5.4090   22.3130 C   0  0  0  0  0  0  0  0  0  0  0  0
  -22.7010   -4.8150   21.1890 F   0  0  0  0  0  0  0  0  0  0  0  0
  -21.2590   -4.4990   25.7310 F   0  0  0  0  0  0  0  0  0  0  0  0
  -23.6910  -14.0580   21.2110 C   0  0  0  0  0  0  0  0  0  0  0  0
  -22.9870  -13.3680   22.1010 N   0  0  0  0  0  0  0  0  0  0  0  0
  -23.2830  -15.1330   20.7730 O   0  0  0  0  0  0  0  0  0  0  0  0
  -23.3320  -12.4960   22.4760 H   0  0  0  0  0  0  0  0  0  0  0  0
  -22.0920  -13.7150   22.4130 H   0  0  0  0  0  0  0  0  0  0  0  0
  -26.3690  -15.6010   20.3170 N   0  0  0  0  0  0  0  0  0  0  0  0
  -25.6540  -16.2900   20.5220 H   0  0  0  0  0  0  0  0  0  0  0  0
  -27.2070  -16.0080   19.9240 H   0  0  0  0  0  0  0  0  0  0  0  0
  -34.0310  -18.4910   21.6380 C   0  0  0  0  0  1  0  0  0  0  0  0
  -33.1860  -19.5990   20.9830 C   0  0  0  0  0  2  0  0  0  0  0  0
  -32.5340  -21.2650   23.3960 C   0  0  0  0  0  1  0  0  0  0  0  0
  -31.6120  -20.1190   22.9350 C   0  0  0  0  0  2  0  0  0  0  0  0
  -28.6420  -24.0200   19.8020 C   0  0  0  0  0  2  0  0  0  0  0  0
  -28.9100  -25.3180   20.7300 C   0  0  0  0  0  2  0  0  0  0  0  0
  -28.9050  -26.7310   20.2290 O   0  0  0  0  0  0  0  0  0  0  0  0
  -24.7700  -31.8220   23.3650 C   0  0  0  0  0  0  0  0  0  0  0  0
  -27.7370  -27.5150   20.2450 C   0  0  0  0  0  0  0  0  0  0  0  0
  -23.7170  -30.4600   21.5950 C   0  0  0  0  0  3  0  0  0  0  0  0
  -25.3070  -29.0350   20.1810 C   0  0  0  0  0  0  0  0  0  0  0  0
  -26.2460  -30.8900   21.5620 C   0  0  0  0  0  2  0  0  0  0  0  0
  -26.4220  -29.5470   20.8570 C   0  0  0  0  0  0  0  0  0  0  0  0
  -27.6430  -28.8020   20.8710 C   0  0  0  0  0  3  0  0  0  0  0  0
  -26.5970  -27.0520   19.5590 C   0  0  0  0  0  3  0  0  0  0  0  0
  -25.3980  -27.7960   19.5210 C   0  0  0  0  0  3  0  0  0  0  0  0
  -24.0330  -29.8590   20.1990 C   0  0  0  0  0  2  0  0  0  0  0  0
  -24.9270  -31.0740   22.2330 N   0  0  0  0  0  0  0  0  0  0  0  0
  -23.6500  -32.0240   23.8550 O   0  0  0  0  0  0  0  0  0  0  0  0
  -23.0490  -29.3720   22.4690 C   0  0  0  0  0  0  0  0  0  0  0  0
  -21.7330  -29.1690   22.2870 N   0  0  0  0  0  0  0  0  0  0  0  0
  -23.7160  -28.7130   23.2720 O   0  0  0  0  0  0  0  0  0  0  0  0
  -21.2530  -29.7550   21.6180 H   0  0  0  0  0  0  0  0  0  0  0  0
  -18.3700  -27.8800   22.6200 C   0  0  0  0  0  0  0  0  0  0  0  0
  -20.9160  -28.1640   22.9680 C   0  0  0  0  0  3  0  0  0  0  0  0
  -21.0580  -26.7800   22.2930 C   0  0  0  0  0  2  0  0  0  0  0  0
  -19.9860  -26.5130   21.2320 C   0  0  0  0  0  2  0  0  0  0  0  0
  -18.5870  -26.5860   21.8520 C   0  0  0  0  0  2  0  0  0  0  0  0
  -19.4630  -28.6280   23.1310 C   0  0  0  0  0  0  0  0  0  0  0  0
  -19.2060  -29.8400   23.8080 C   0  0  0  0  0  3  0  0  0  0  0  0
  -17.8890  -30.3040   23.9790 C   0  0  0  0  0  3  0  0  0  0  0  0
  -16.8090  -29.5520   23.4850 C   0  0  0  0  0  3  0  0  0  0  0  0
  -17.0500  -28.3410   22.8120 C   0  0  0  0  0  3  0  0  0  0  0  0
  -25.9890  -32.4760   24.0870 C   0  0  0  0  0  3  0  0  0  0  0  0
  -26.4300  -31.6980   25.3880 C   0  0  1  0  0  0  0  0  0  0  0  0
  -25.2680  -31.4180   26.3700 C   0  0  0  0  0  1  0  0  0  0  0  0
  -27.0740  -30.3410   25.0220 C   0  0  0  0  0  1  0  0  0  0  0  0
  -27.5090  -32.5100   26.1440 C   0  0  0  0  0  1  0  0  0  0  0  0
  -25.6210  -33.8610   24.4150 N   0  0  0  0  0  0  0  0  0  0  0  0
  -25.9530  -34.9320   23.6820 C   0  0  0  0  0  0  0  0  0  0  0  0
  -26.6700  -34.8600   22.6790 O   0  0  0  0  0  0  0  0  0  0  0  0
  -24.9880  -33.9890   25.1910 H   0  0  0  0  0  0  0  0  0  0  0  0
  -24.1750  -36.6670   23.2870 C   0  0  0  0  0  1  0  0  0  0  0  0
  -25.4060  -36.3000   24.1310 C   0  0  0  0  0  3  0  0  0  0  0  0
  -27.4780  -37.2620   25.0330 C   0  0  0  0  0  1  0  0  0  0  0  0
  -26.4040  -37.3900   24.0520 N   0  0  0  0  0  0  0  0  0  0  0  0
  -25.9610  -38.2950   24.1830 H   0  0  0  0  0  0  0  0  0  0  0  0
  1  7  1  0
  3  5  1  0
  3  8  1  0
  4  9  1  0
  5  1  1  0
  5  6  1  0
  6  2  1  0
  6  9  1  0
  7 52  1  0
  7  2  1  0
  8 18  1  0
  8  4  1  0
  9 51  1  1
 10 18  1  0
 10 16  1  0
 11 16  1  0
 12 13  1  0
 12 11  1  0
 14 13  1  0
 14 23  1  0
 14 15  1  0
 16 15  1  0
 17 10  2  0
 18 19  1  0
 20 21  2  0
 21 40  1  0
 22 25  1  0
 22 21  1  0
 23 24  1  0
 23 20  1  0
 24 22  2  0
 25 26  1  0
 26 27  2  0
 28 31  1  0
 28 27  1  0
 29 28  2  0
 30 29  1  0
 30 25  2  0
 31 32  1  0
 32 33  1  0
 33 34  2  0
 35 34  1  0
 35 39  1  0
 36 35  2  0
 37 32  2  0
 37 36  1  0
 38 37  1  0
 40 41  1  0
 41 44  1  0
 41 43  1  0
 42 40  2  0
 45 20  1  0
 45 46  1  0
 47 45  1  0
 49  9  1  0
 49 48  1  0
 51 50  1  0
 52 53  1  0
 54 56  1  0
 54 53  1  0
 55 66  2  0
 56 61  1  0
 57 65  1  0
 57 67  1  0
 58 64  1  0
 58 60  1  0
 59 65  1  0
 60 61  2  0
 60 59  1  0
 62 56  2  0
 63 62  1  0
 63 58  2  0
 64 57  1  0
 65 55  1  0
 67 69  2  0
 68 67  1  0
 70 68  1  0
 71 80  2  0
 71 76  1  0
 72 68  1  0
 72 76  1  0
 73 72  1  0
 74 75  1  0
 74 73  1  0
 75 71  1  0
 76 77  2  0
 77 78  1  0
 79 78  2  0
 80 79  1  0
 81 55  1  0
 81 86  1  0
 81 82  1  0
 82 85  1  1
 82 83  1  0
 84 82  1  0
 86 89  1  0
 87 91  1  0
 87 86  1  0
 88 87  2  0
 91 90  1  0
 93 91  1  0
 93 94  1  0
 93 92  1  0
M  ISO  4  10 100  18 100  53 101  54 101
M  END
>  <TORSDO>  (32) 
F 20

>  <SCORE>  (32) 
-11.835

>  <name>  (32) 
31

>  <ligand_id>  (32) 
31

>  <original_smiles>  (32) 
[H]c1c([H])c([H])c2c(c1[H])C([H])([H])C([H])([H])C([H])([H])C2([H])N([H])C(=O)C1([H])N(C(=O)C([H])(N([H])C(=O)C([H])(N([H])C([H])([H])[H])C([H])([H])[H])C(C([H])([H])[H])(C([H])([H])[H])C([H])([H])[H])C([H])([H])c2c([H])c(OC([H])([H])C([H])([H])C3([H])C([H])([H])C4([H])C([H])([H])C([H])(N([H])C(=O)N5C([H])([H])C([H])([H])C([H])([H])C([H])(n6nc(-c7c([H])c([H])c(Oc8c([H])c([H])c(F)c([H])c8F)c([H])c7[H])c(C(=O)N([H])[H])c6N([H])[H])C5([H])[H])C([H])([H])C(C([H])([H])C([H])([H])[H])(C([H])([H])C([H])([H])[H])C4([H])C3([H])[H])c([H])c([H])c2C1([H])[H]

>  <smiles>  (32) 
[H]c1c([H])c([H])c2c(c1[H])C([H])([H])C([H])([H])C([H])([H])C2([H])N([H])C(=O)C1([H])N(C(=O)C([H])(N([H])C(=O)C([H])(N([H])C([H])([H])[H])C([H])([H])[H])C(C([H])([H])[H])(C([H])([H])[H])C([H])([H])[H])C([H])([H])c2c([H])c(OC([H])([H])C([H])([H])C3([H])C([H])([H])C4([H])C([H])([H])C([H])(N([H])C(=O)N5C([H])([H])C([H])([H])C([H])([H])C([H])(n6nc(-c7c([H])c([H])c(Oc8c([H])c([H])c(F)c([H])c8F)c([H])c7[H])c(C(=O)N([H])[H])c6N([H])[H])C5([H])[H])C([H])([H])C(C([H])([H])C([H])([H])[H])(C([H])([H])C([H])([H])[H])C4([H])C3([H])[H])c([H])c([H])c2C1([H])[H]

$$$$
32:0:0
     RDKit          3D

 93101  0  0  1  0  0  0  0  0999 V2000
  -30.6910  -15.8370   19.7300 C   0  0  0  0  0  0  0  0  0  0  0  0
  -30.8940  -13.1600   19.6710 C   0  0  0  0  0  2  0  0  0  0  0  0
  -30.1280  -12.3780   18.5670 C   0  0  0  0  0  2  0  0  0  0  0  0
  -28.6900  -12.0820   19.0100 C   0  0  0  0  0  2  0  0  0  0  0  0
  -28.0620  -13.3120   19.7060 C   0  0  0  0  0  3  0  0  0  0  0  0
  -28.9820  -14.0060   20.7420 C   0  0  0  0  0  2  0  0  0  0  0  0
  -30.1790  -14.4850   20.0060 N   0  0  0  0  0  0  0  0  0  0  0  0
  -31.9320  -15.7100   19.6480 O   0  0  0  0  0  0  0  0  0  0  0  0
  -28.3440  -19.3330   19.2260 C   0  0  0  0  0  0  0  0  0  0  0  0
  -29.2540  -20.0200   18.4780 C   0  0  0  0  0  0  0  0  0  0  0  0
  -28.6450  -17.8000   19.6940 C   0  0  0  0  0  3  0  0  0  0  0  0
  -30.3250  -18.6420   18.4970 C   0  0  0  0  0  0  0  0  0  0  0  0
  -29.9950  -17.2010   19.3220 N   0  0  0  0  0  0  0  0  0  0  0  0
  -32.3970  -19.4440   17.2900 C   0  0  0  0  0  3  0  0  0  0  0  0
  -32.5640  -18.9960   19.6790 C   0  0  0  0  0  3  0  0  0  0  0  0
  -33.7660  -19.7620   17.2490 C   0  0  0  0  0  3  0  0  0  0  0  0
  -33.9360  -19.3160   19.6390 C   0  0  0  0  0  3  0  0  0  0  0  0
  -31.7910  -19.0440   18.5000 C   0  0  0  0  0  0  0  0  0  0  0  0
  -34.5420  -19.6940   18.4210 C   0  0  0  0  0  0  0  0  0  0  0  0
  -36.0220  -20.0060   18.3610 C   0  0  0  0  0  1  0  0  0  0  0  0
  -25.7280  -13.9850   20.4310 C   0  0  0  0  0  0  0  0  0  0  0  0
  -24.6200  -13.2730   20.7920 C   0  0  0  0  0  0  0  0  0  0  0  0
  -25.0120  -11.8990   20.7870 C   0  0  0  0  0  0  0  0  0  0  0  0
  -26.7230  -13.0530   20.2160 N   0  0  0  0  0  0  0  0  0  0  0  0
  -26.3060  -11.7890   20.4970 N   0  0  0  0  0  0  0  0  0  0  0  0
  -24.2090  -10.6840   20.9800 C   0  0  0  0  0  0  0  0  0  0  0  0
  -24.5660   -9.7010   21.9300 C   0  0  0  0  0  3  0  0  0  0  0  0
  -23.7620   -8.5550   22.1130 C   0  0  0  0  0  3  0  0  0  0  0  0
  -22.5860   -8.3830   21.3470 C   0  0  0  0  0  0  0  0  0  0  0  0
  -22.2450   -9.3530   20.3860 C   0  0  0  0  0  3  0  0  0  0  0  0
  -23.0490  -10.4900   20.2010 C   0  0  0  0  0  3  0  0  0  0  0  0
  -21.7580   -7.2900   21.4390 O   0  0  0  0  0  0  0  0  0  0  0  0
  -21.6190   -6.5890   22.6100 C   0  0  0  0  0  0  0  0  0  0  0  0
  -21.1430   -7.1970   23.7920 C   0  0  0  0  0  3  0  0  0  0  0  0
  -20.9490   -6.4230   24.9540 C   0  0  0  0  0  3  0  0  0  0  0  0
  -21.2230   -5.0420   24.9340 C   0  0  0  0  0  0  0  0  0  0  0  0
  -21.6900   -4.4330   23.7570 C   0  0  0  0  0  3  0  0  0  0  0  0
  -21.8840   -5.2040   22.5970 C   0  0  0  0  0  0  0  0  0  0  0  0
  -22.3150   -4.6080   21.4580 F   0  0  0  0  0  0  0  0  0  0  0  0
  -21.0290   -4.2960   26.0480 F   0  0  0  0  0  0  0  0  0  0  0  0
  -23.2500  -13.8360   21.0220 C   0  0  0  0  0  0  0  0  0  0  0  0
  -22.4730  -13.2180   21.9040 N   0  0  0  0  0  0  0  0  0  0  0  0
  -22.8790  -14.8630   20.4560 O   0  0  0  0  0  0  0  0  0  0  0  0
  -22.7810  -12.3860   22.3840 H   0  0  0  0  0  0  0  0  0  0  0  0
  -21.5500  -13.5820   22.0990 H   0  0  0  0  0  0  0  0  0  0  0  0
  -25.9630  -15.3410   20.2310 N   0  0  0  0  0  0  0  0  0  0  0  0
  -25.2170  -16.0240   20.3020 H   0  0  0  0  0  0  0  0  0  0  0  0
  -26.8190  -15.7220   19.8530 H   0  0  0  0  0  0  0  0  0  0  0  0
  -27.3160  -20.9860   20.8210 C   0  0  0  0  0  1  0  0  0  0  0  0
  -27.0530  -19.9580   19.7150 C   0  0  0  0  0  2  0  0  0  0  0  0
  -29.2900  -21.8070   17.8440 C   0  0  0  0  0  1  0  0  0  0  0  0
  -28.3590  -23.5440   17.8240 C   0  0  0  0  0  1  0  0  0  0  0  0
  -28.6320  -25.3090   17.9170 O   0  0  0  0  0  0  0  0  0  0  0  0
  -25.8590  -30.3840   23.1820 C   0  0  0  0  0  0  0  0  0  0  0  0
  -27.8120  -26.5580   18.3890 C   0  0  0  0  0  0  0  0  0  0  0  0
  -24.5470  -29.8760   21.1670 C   0  0  0  0  0  3  0  0  0  0  0  0
  -25.8120  -28.7320   19.1900 C   0  0  0  0  0  0  0  0  0  0  0  0
  -27.1280  -29.7370   21.0360 C   0  0  0  0  0  2  0  0  0  0  0  0
  -27.0300  -28.6670   19.8760 C   0  0  0  0  0  0  0  0  0  0  0  0
  -28.0170  -27.6240   19.4550 C   0  0  0  0  0  3  0  0  0  0  0  0
  -26.5840  -26.8490   17.7400 C   0  0  0  0  0  3  0  0  0  0  0  0
  -25.6330  -27.8520   18.1080 C   0  0  0  0  0  3  0  0  0  0  0  0
  -24.7300  -29.7350   19.6270 C   0  0  0  0  0  2  0  0  0  0  0  0
  -25.8720  -30.0080   21.8560 N   0  0  0  0  0  0  0  0  0  0  0  0
  -24.8000  -30.5940   23.7970 O   0  0  0  0  0  0  0  0  0  0  0  0
  -23.6950  -28.6950   21.7090 C   0  0  0  0  0  0  0  0  0  0  0  0
  -22.3550  -28.7620   21.5770 N   0  0  0  0  0  0  0  0  0  0  0  0
  -24.2540  -27.7240   22.2240 O   0  0  0  0  0  0  0  0  0  0  0  0
  -21.9590  -29.5950   21.1650 H   0  0  0  0  0  0  0  0  0  0  0  0
  -18.8320  -27.8740   21.7260 C   0  0  0  0  0  0  0  0  0  0  0  0
  -21.4060  -27.7060   21.9540 C   0  0  0  0  0  3  0  0  0  0  0  0
  -21.3200  -26.6160   20.8590 C   0  0  0  0  0  2  0  0  0  0  0  0
  -20.1930  -26.8610   19.8500 C   0  0  0  0  0  2  0  0  0  0  0  0
  -18.8380  -26.9020   20.5600 C   0  0  0  0  0  2  0  0  0  0  0  0
  -20.0380  -28.2650   22.3700 C   0  0  0  0  0  0  0  0  0  0  0  0
  -19.9730  -29.1950   23.4300 C   0  0  0  0  0  3  0  0  0  0  0  0
  -18.7400  -29.7340   23.8440 C   0  0  0  0  0  3  0  0  0  0  0  0
  -17.5500  -29.3340   23.2090 C   0  0  0  0  0  3  0  0  0  0  0  0
  -17.5970  -28.4020   22.1580 C   0  0  0  0  0  3  0  0  0  0  0  0
  -27.1770  -30.5850   23.9900 C   0  0  0  0  0  3  0  0  0  0  0  0
  -27.6210  -29.2900   24.7790 C   0  0  1  0  0  0  0  0  0  0  0  0
  -26.5080  -28.6930   25.6750 C   0  0  0  0  0  1  0  0  0  0  0  0
  -28.0810  -28.1790   23.8090 C   0  0  0  0  0  1  0  0  0  0  0  0
  -28.8390  -29.6160   25.6750 C   0  0  0  0  0  1  0  0  0  0  0  0
  -26.9740  -31.6980   24.9400 N   0  0  0  0  0  0  0  0  0  0  0  0
  -27.4540  -32.9400   24.7890 C   0  0  0  0  0  0  0  0  0  0  0  0
  -28.1720  -33.2620   23.8380 O   0  0  0  0  0  0  0  0  0  0  0  0
  -26.3510  -31.5190   25.7120 H   0  0  0  0  0  0  0  0  0  0  0  0
  -25.9720  -34.9080   25.3230 C   0  0  0  0  0  1  0  0  0  0  0  0
  -27.0850  -33.9940   25.8580 C   0  0  0  0  0  3  0  0  0  0  0  0
  -29.2190  -34.0750   27.0760 C   0  0  0  0  0  1  0  0  0  0  0  0
  -28.2330  -34.8200   26.2960 N   0  0  0  0  0  0  0  0  0  0  0  0
  -27.9170  -35.6070   26.8540 H   0  0  0  0  0  0  0  0  0  0  0  0
  1  7  1  0
  2  7  1  0
  3  4  1  0
  3  2  1  0
  5  4  1  0
  5 24  1  0
  5  6  1  0
  7  6  1  0
  8  1  2  0
  9 11  2  0
  9 50  1  0
 10 12  2  0
 10  9  1  0
 12 18  1  0
 12 13  1  0
 13 11  1  0
 13  1  1  0
 14 18  1  0
 16 14  2  0
 16 19  1  0
 17 15  1  0
 18 15  2  0
 19 17  2  0
 20 19  1  0
 21 22  2  0
 22 41  1  0
 23 22  1  0
 23 26  1  0
 24 21  1  0
 24 25  1  0
 25 23  2  0
 26 27  1  0
 27 28  2  0
 29 32  1  0
 29 28  1  0
 30 29  2  0
 31 30  1  0
 31 26  2  0
 32 33  1  0
 33 34  1  0
 34 35  2  0
 36 35  1  0
 36 40  1  0
 37 36  2  0
 38 33  2  0
 38 37  1  0
 39 38  1  0
 41 42  1  0
 42 45  1  0
 42 44  1  0
 43 41  2  0
 46 47  1  0
 46 21  1  0
 48 46  1  0
 50 49  1  0
 51 10  1  0
 52 53  1  0
 53 55  1  0
 54 65  2  0
 55 60  1  0
 56 66  1  0
 56 64  1  0
 57 63  1  0
 57 59  1  0
 58 64  1  0
 59 58  1  0
 60 59  2  0
 61 62  1  0
 61 55  2  0
 62 57  2  0
 63 56  1  0
 64 54  1  0
 66 68  2  0
 67 66  1  0
 69 67  1  0
 70 79  2  0
 70 75  1  0
 71 67  1  0
 71 75  1  0
 72 71  1  0
 73 74  1  0
 73 72  1  0
 74 70  1  0
 75 76  2  0
 76 77  1  0
 78 77  2  0
 79 78  1  0
 80 54  1  0
 80 81  1  0
 80 85  1  0
 81 84  1  1
 81 82  1  0
 83 81  1  0
 85 88  1  0
 86 85  1  0
 86 90  1  0
 87 86  2  0
 90 89  1  0
 90 92  1  0
 92 93  1  0
 92 91  1  0
M  ISO  4   1 100  13 100  52 101  53 101
M  END
>  <TORSDO>  (33) 
F 19

>  <SCORE>  (33) 
-10.788

>  <name>  (33) 
32

>  <ligand_id>  (33) 
32

>  <original_smiles>  (33) 
[H]c1c([H])c([H])c2c(c1[H])C([H])([H])C([H])([H])C([H])([H])C2([H])N([H])C(=O)C1([H])N(C(=O)C([H])(N([H])C(=O)C([H])(N([H])C([H])([H])[H])C([H])([H])[H])C(C([H])([H])[H])(C([H])([H])[H])C([H])([H])[H])C([H])([H])c2c([H])c(OC([H])([H])C([H])([H])C3=C(C([H])([H])C([H])([H])[H])C([H])([H])N(C(=O)N4C([H])([H])C([H])([H])C([H])([H])C([H])(n5nc(-c6c([H])c([H])c(Oc7c([H])c([H])c(F)c([H])c7F)c([H])c6[H])c(C(=O)N([H])[H])c5N([H])[H])C4([H])[H])C3([H])c3c([H])c([H])c(C([H])([H])[H])c([H])c3[H])c([H])c([H])c2C1([H])[H]

>  <smiles>  (33) 
[H]c1c([H])c([H])c2c(c1[H])C([H])([H])C([H])([H])C([H])([H])C2([H])N([H])C(=O)C1([H])N(C(=O)C([H])(N([H])C(=O)C([H])(N([H])C([H])([H])[H])C([H])([H])[H])C(C([H])([H])[H])(C([H])([H])[H])C([H])([H])[H])C([H])([H])c2c([H])c(OC([H])([H])C([H])([H])C3=C(C([H])([H])C([H])([H])[H])C([H])([H])N(C(=O)N4C([H])([H])C([H])([H])C([H])([H])C([H])(n5nc(-c6c([H])c([H])c(Oc7c([H])c([H])c(F)c([H])c7F)c([H])c6[H])c(C(=O)N([H])[H])c5N([H])[H])C4([H])[H])C3([H])c3c([H])c([H])c(C([H])([H])[H])c([H])c3[H])c([H])c([H])c2C1([H])[H]

$$$$
33:0:0
     RDKit          3D

 94103  0  0  1  0  0  0  0  0999 V2000
  -30.1580  -21.1950   23.6660 C   0  0  0  0  0  3  0  0  0  0  0  0
  -30.3360  -19.8090   23.4660 C   0  0  0  0  0  3  0  0  0  0  0  0
  -29.4710  -19.9910   21.1720 C   0  0  0  0  0  3  0  0  0  0  0  0
  -29.6350  -21.9530   22.6040 C   0  0  0  0  0  0  0  0  0  0  0  0
  -29.2960  -21.3700   21.3890 C   0  0  0  0  0  0  0  0  0  0  0  0
  -29.9980  -19.2090   22.2270 C   0  0  0  0  0  0  0  0  0  0  0  0
  -29.3570  -23.3880   22.5630 C   0  0  0  0  0  0  0  0  0  0  0  0
  -28.7620  -22.3840   20.4070 C   0  0  0  0  0  2  0  0  0  0  0  0
  -28.7290  -23.7210   21.1970 C   0  0  0  0  0  3  0  0  0  0  0  0
  -29.5490  -24.2060   23.4650 O   0  0  0  0  0  0  0  0  0  0  0  0
  -30.2240  -17.7220   22.0370 C   0  0  0  0  0  2  0  0  0  0  0  0
  -31.6220  -17.4300   21.4680 C   0  0  0  0  0  2  0  0  0  0  0  0
  -32.0800  -15.9790   21.6750 C   0  0  0  0  0  2  0  0  0  0  0  0
  -31.2370  -14.4350   19.9110 C   0  0  0  0  0  0  0  0  0  0  0  0
  -30.6870  -12.3490   18.7230 C   0  0  0  0  0  2  0  0  0  0  0  0
  -29.6680  -12.5290   17.5870 C   0  0  0  0  0  2  0  0  0  0  0  0
  -28.2320  -12.4380   18.1310 C   0  0  0  0  0  2  0  0  0  0  0  0
  -28.0050  -13.3640   19.3530 C   0  0  0  0  0  3  0  0  0  0  0  0
  -29.1170  -13.1740   20.4070 C   0  0  0  0  0  2  0  0  0  0  0  0
  -30.4300  -13.3580   19.7580 N   0  0  0  0  0  0  0  0  0  0  0  0
  -32.1140  -14.7590   19.1040 O   0  0  0  0  0  0  0  0  0  0  0  0
  -31.1450  -15.0080   21.1160 N   0  0  0  0  0  0  0  0  0  0  0  0
  -30.4460  -14.6270   21.7380 H   0  0  0  0  0  0  0  0  0  0  0  0
  -25.7220  -14.1000   20.2960 C   0  0  0  0  0  0  0  0  0  0  0  0
  -24.6320  -13.3850   20.7130 C   0  0  0  0  0  0  0  0  0  0  0  0
  -24.9840  -12.0080   20.5680 C   0  0  0  0  0  0  0  0  0  0  0  0
  -26.6760  -13.1620   19.9290 N   0  0  0  0  0  0  0  0  0  0  0  0
  -26.2360  -11.8960   20.1460 N   0  0  0  0  0  0  0  0  0  0  0  0
  -24.1830  -10.7910   20.7510 C   0  0  0  0  0  0  0  0  0  0  0  0
  -24.5800   -9.7720   21.6450 C   0  0  0  0  0  3  0  0  0  0  0  0
  -23.7830   -8.6190   21.8160 C   0  0  0  0  0  3  0  0  0  0  0  0
  -22.5740   -8.4780   21.0930 C   0  0  0  0  0  0  0  0  0  0  0  0
  -22.1960   -9.4840   20.1880 C   0  0  0  0  0  3  0  0  0  0  0  0
  -22.9920  -10.6290   20.0140 C   0  0  0  0  0  3  0  0  0  0  0  0
  -21.7500   -7.3820   21.1760 O   0  0  0  0  0  0  0  0  0  0  0  0
  -21.6260   -6.6610   22.3370 C   0  0  0  0  0  0  0  0  0  0  0  0
  -21.2090   -7.2600   23.5450 C   0  0  0  0  0  3  0  0  0  0  0  0
  -21.0280   -6.4680   24.6970 C   0  0  0  0  0  3  0  0  0  0  0  0
  -21.2540   -5.0800   24.6420 C   0  0  0  0  0  0  0  0  0  0  0  0
  -21.6630   -4.4810   23.4380 C   0  0  0  0  0  3  0  0  0  0  0  0
  -21.8460   -5.2700   22.2870 C   0  0  0  0  0  0  0  0  0  0  0  0
  -22.2210   -4.6840   21.1240 F   0  0  0  0  0  0  0  0  0  0  0  0
  -21.0720   -4.3180   25.7460 F   0  0  0  0  0  0  0  0  0  0  0  0
  -23.3030  -13.9420   21.1350 C   0  0  0  0  0  0  0  0  0  0  0  0
  -22.6130  -13.2610   22.0430 N   0  0  0  0  0  0  0  0  0  0  0  0
  -22.8900  -15.0130   20.6930 O   0  0  0  0  0  0  0  0  0  0  0  0
  -22.9610  -12.3920   22.4210 H   0  0  0  0  0  0  0  0  0  0  0  0
  -21.7240  -13.6150   22.3660 H   0  0  0  0  0  0  0  0  0  0  0  0
  -25.9770  -15.4630   20.1810 N   0  0  0  0  0  0  0  0  0  0  0  0
  -25.2780  -16.1670   20.3950 H   0  0  0  0  0  0  0  0  0  0  0  0
  -26.8380  -15.8570   19.8220 H   0  0  0  0  0  0  0  0  0  0  0  0
  -29.3980  -24.8930   20.4420 C   0  0  0  0  0  2  0  0  0  0  0  0
  -29.3170  -26.2460   21.1710 C   0  0  0  0  0  2  0  0  0  0  0  0
  -29.2560  -27.3190   20.2370 O   0  0  0  0  0  0  0  0  0  0  0  0
  -24.8260  -31.9150   23.3420 C   0  0  0  0  0  0  0  0  0  0  0  0
  -28.0300  -27.9280   20.2080 C   0  0  0  0  0  0  0  0  0  0  0  0
  -23.8380  -30.4860   21.5800 C   0  0  0  0  0  3  0  0  0  0  0  0
  -25.5000  -29.1610   20.1690 C   0  0  0  0  0  0  0  0  0  0  0  0
  -26.3190  -31.0980   21.5260 C   0  0  0  0  0  2  0  0  0  0  0  0
  -26.5670  -29.7750   20.8360 C   0  0  0  0  0  0  0  0  0  0  0  0
  -27.8370  -29.1640   20.8560 C   0  0  0  0  0  3  0  0  0  0  0  0
  -26.9510  -27.3120   19.5430 C   0  0  0  0  0  3  0  0  0  0  0  0
  -25.6840  -27.9250   19.5220 C   0  0  0  0  0  3  0  0  0  0  0  0
  -24.1760  -29.8910   20.1860 C   0  0  0  0  0  2  0  0  0  0  0  0
  -25.0080  -31.1780   22.2100 N   0  0  0  0  0  0  0  0  0  0  0  0
  -23.6990  -32.0610   23.8370 O   0  0  0  0  0  0  0  0  0  0  0  0
  -23.2420  -29.3650   22.4610 C   0  0  0  0  0  0  0  0  0  0  0  0
  -21.9380  -29.0980   22.2870 N   0  0  0  0  0  0  0  0  0  0  0  0
  -23.9510  -28.7410   23.2560 O   0  0  0  0  0  0  0  0  0  0  0  0
  -21.4250  -29.6600   21.6210 H   0  0  0  0  0  0  0  0  0  0  0  0
  -18.6390  -27.6720   22.6470 C   0  0  0  0  0  0  0  0  0  0  0  0
  -21.1730  -28.0610   22.9760 C   0  0  0  0  0  3  0  0  0  0  0  0
  -21.3700  -26.6830   22.3010 C   0  0  0  0  0  2  0  0  0  0  0  0
  -20.3000  -26.3680   21.2510 C   0  0  0  0  0  2  0  0  0  0  0  0
  -18.9050  -26.3860   21.8820 C   0  0  0  0  0  2  0  0  0  0  0  0
  -19.7050  -28.4670   23.1470 C   0  0  0  0  0  0  0  0  0  0  0  0
  -19.4040  -29.6710   23.8200 C   0  0  0  0  0  3  0  0  0  0  0  0
  -18.0710  -30.0820   23.9990 C   0  0  0  0  0  3  0  0  0  0  0  0
  -17.0190  -29.2830   23.5170 C   0  0  0  0  0  3  0  0  0  0  0  0
  -17.3050  -28.0800   22.8460 C   0  0  0  0  0  3  0  0  0  0  0  0
  -26.0170  -32.6300   24.0540 C   0  0  0  0  0  3  0  0  0  0  0  0
  -25.6060  -34.0160   24.3170 N   0  0  0  0  0  0  0  0  0  0  0  0
  -25.9360  -35.0640   23.5500 C   0  0  0  0  0  0  0  0  0  0  0  0
  -26.6870  -34.9700   22.5740 O   0  0  0  0  0  0  0  0  0  0  0  0
  -24.9460  -34.1590   25.0660 H   0  0  0  0  0  0  0  0  0  0  0  0
  -24.1280  -36.7300   23.0200 C   0  0  0  0  0  1  0  0  0  0  0  0
  -25.3360  -36.4330   23.9230 C   0  0  0  0  0  3  0  0  0  0  0  0
  -27.3600  -37.4700   24.8460 C   0  0  0  0  0  1  0  0  0  0  0  0
  -26.3070  -37.5440   23.8380 N   0  0  0  0  0  0  0  0  0  0  0  0
  -25.8380  -38.4400   23.9360 H   0  0  0  0  0  0  0  0  0  0  0  0
  -26.4640  -31.9170   25.3890 C   0  0  1  0  0  0  0  0  0  0  0  0
  -25.2920  -31.6030   26.3480 C   0  0  0  0  0  1  0  0  0  0  0  0
  -27.1890  -30.5860   25.0790 C   0  0  0  0  0  1  0  0  0  0  0  0
  -27.4780  -32.8070   26.1460 C   0  0  0  0  0  1  0  0  0  0  0  0
  2  1  1  0
  3  5  2  0
  3  6  1  0
  4  1  2  0
  5  4  1  0
  6  2  2  0
  7  4  1  0
  7 10  2  0
  8  9  1  0
  8  5  1  0
  9 52  1  0
  9  7  1  0
 11  6  1  0
 12 13  1  0
 12 11  1  0
 14 22  1  0
 15 20  1  0
 16 17  1  0
 16 15  1  0
 18 17  1  0
 18 27  1  0
 18 19  1  0
 20 14  1  0
 20 19  1  0
 21 14  2  0
 22 13  1  0
 22 23  1  0
 24 25  2  0
 25 44  1  0
 26 25  1  0
 26 29  1  0
 27 28  1  0
 27 24  1  0
 28 26  2  0
 29 30  1  0
 30 31  2  0
 32 35  1  0
 32 31  1  0
 33 32  2  0
 34 33  1  0
 34 29  2  0
 35 36  1  0
 36 37  1  0
 37 38  2  0
 39 38  1  0
 39 43  1  0
 40 39  2  0
 41 36  2  0
 41 40  1  0
 42 41  1  0
 44 45  1  0
 45 48  1  0
 45 47  1  0
 46 44  2  0
 49 24  1  0
 49 50  1  0
 51 49  1  0
 52 53  1  0
 54 53  1  0
 55 66  2  0
 56 54  1  0
 56 61  1  0
 57 65  1  0
 57 67  1  0
 58 64  1  0
 58 60  1  0
 59 65  1  0
 60 61  2  0
 60 59  1  0
 62 56  2  0
 63 62  1  0
 63 58  2  0
 64 57  1  0
 65 55  1  0
 67 69  2  0
 68 67  1  0
 70 68  1  0
 71 80  2  0
 71 76  1  0
 72 68  1  0
 72 76  1  0
 73 72  1  0
 74 75  1  0
 74 73  1  0
 75 71  1  0
 76 77  2  0
 77 78  1  0
 79 78  2  0
 80 79  1  0
 81 55  1  0
 81 82  1  0
 81 91  1  0
 82 85  1  0
 83 87  1  0
 83 82  1  0
 84 83  2  0
 87 86  1  0
 89 87  1  0
 89 90  1  0
 89 88  1  0
 91 94  1  1
 91 92  1  0
 93 91  1  0
M  ISO  4  14 100  22 100  53 101  54 101
M  END
>  <TORSDO>  (34) 
F 21

>  <SCORE>  (34) 
-9.988

>  <name>  (34) 
33

>  <ligand_id>  (34) 
33

>  <original_smiles>  (34) 
[H]c1c([H])c([H])c2c(c1[H])C([H])([H])C([H])([H])C([H])([H])C2([H])N([H])C(=O)C1([H])N(C(=O)C([H])(N([H])C(=O)C([H])(N([H])C([H])([H])[H])C([H])([H])[H])C(C([H])([H])[H])(C([H])([H])[H])C([H])([H])[H])C([H])([H])c2c([H])c(OC([H])([H])C([H])([H])C3([H])C(=O)c4c([H])c([H])c(C([H])([H])C([H])([H])C([H])([H])N([H])C(=O)N5C([H])([H])C([H])([H])C([H])([H])C([H])(n6nc(-c7c([H])c([H])c(Oc8c([H])c([H])c(F)c([H])c8F)c([H])c7[H])c(C(=O)N([H])[H])c6N([H])[H])C5([H])[H])c([H])c4C3([H])[H])c([H])c([H])c2C1([H])[H]

>  <smiles>  (34) 
[H]c1c([H])c([H])c2c(c1[H])C([H])([H])C([H])([H])C([H])([H])C2([H])N([H])C(=O)C1([H])N(C(=O)C([H])(N([H])C(=O)C([H])(N([H])C([H])([H])[H])C([H])([H])[H])C(C([H])([H])[H])(C([H])([H])[H])C([H])([H])[H])C([H])([H])c2c([H])c(OC([H])([H])C([H])([H])C3([H])C(=O)c4c([H])c([H])c(C([H])([H])C([H])([H])C([H])([H])N([H])C(=O)N5C([H])([H])C([H])([H])C([H])([H])C([H])(n6nc(-c7c([H])c([H])c(Oc8c([H])c([H])c(F)c([H])c8F)c([H])c7[H])c(C(=O)N([H])[H])c6N([H])[H])C5([H])[H])c([H])c4C3([H])[H])c([H])c([H])c2C1([H])[H]

$$$$
34:0:0
     RDKit          3D

 95103  0  0  1  0  0  0  0  0999 V2000
  -31.9780  -21.7970   21.5520 C   0  0  0  0  0  2  0  0  0  0  0  0
  -31.5070  -23.0460   20.8040 C   0  0  0  0  0  2  0  0  0  0  0  0
  -31.3660  -20.4960   21.0010 C   0  0  0  0  0  2  0  0  0  0  0  0
  -29.2000  -21.8980   20.8960 C   0  0  0  0  0  2  0  0  0  0  0  0
  -29.9900  -23.2590   20.9850 C   0  0  0  0  0  3  0  0  0  0  0  0
  -29.9530  -20.6140   20.3480 C   0  0  2  0  0  0  0  0  0  0  0  0
  -29.4840  -24.4680   20.1200 C   0  0  0  0  0  2  0  0  0  0  0  0
  -28.4060  -25.4030   20.7490 C   0  0  0  0  0  2  0  0  0  0  0  0
  -28.4050  -26.7080   20.1250 O   0  0  0  0  0  0  0  0  0  0  0  0
  -24.5900  -31.8900   23.2390 C   0  0  0  0  0  0  0  0  0  0  0  0
  -27.2300  -27.4370   20.1640 C   0  0  0  0  0  0  0  0  0  0  0  0
  -23.3810  -30.4930   21.5950 C   0  0  0  0  0  3  0  0  0  0  0  0
  -24.8340  -28.9530   20.1690 C   0  0  0  0  0  0  0  0  0  0  0  0
  -25.9070  -30.8520   21.3900 C   0  0  0  0  0  2  0  0  0  0  0  0
  -25.9930  -29.4800   20.7500 C   0  0  0  0  0  0  0  0  0  0  0  0
  -27.1980  -28.7320   20.7350 C   0  0  0  0  0  3  0  0  0  0  0  0
  -26.0520  -26.9250   19.5810 C   0  0  0  0  0  3  0  0  0  0  0  0
  -24.8570  -27.6750   19.5810 C   0  0  0  0  0  3  0  0  0  0  0  0
  -23.5880  -29.8140   20.2160 C   0  0  0  0  0  2  0  0  0  0  0  0
  -24.6450  -31.0930   22.1340 N   0  0  0  0  0  0  0  0  0  0  0  0
  -23.5090  -32.1600   23.7800 O   0  0  0  0  0  0  0  0  0  0  0  0
  -22.7300  -29.4710   22.5540 C   0  0  0  0  0  0  0  0  0  0  0  0
  -21.4040  -29.2920   22.4280 N   0  0  0  0  0  0  0  0  0  0  0  0
  -23.4120  -28.8410   23.3680 O   0  0  0  0  0  0  0  0  0  0  0  0
  -20.9140  -29.8460   21.7390 H   0  0  0  0  0  0  0  0  0  0  0  0
  -18.0280  -28.1060   22.9280 C   0  0  0  0  0  0  0  0  0  0  0  0
  -20.5870  -28.3530   23.1970 C   0  0  0  0  0  3  0  0  0  0  0  0
  -20.6850  -26.9240   22.6140 C   0  0  0  0  0  2  0  0  0  0  0  0
  -19.5790  -26.6100   21.6010 C   0  0  0  0  0  2  0  0  0  0  0  0
  -18.1980  -26.7580   22.2490 C   0  0  0  0  0  2  0  0  0  0  0  0
  -19.1490  -28.8610   23.3610 C   0  0  0  0  0  0  0  0  0  0  0  0
  -18.9360  -30.1230   23.9560 C   0  0  0  0  0  3  0  0  0  0  0  0
  -17.6330  -30.6280   24.1250 C   0  0  0  0  0  3  0  0  0  0  0  0
  -16.5260  -29.8680   23.7120 C   0  0  0  0  0  3  0  0  0  0  0  0
  -16.7240  -28.6100   23.1170 C   0  0  0  0  0  3  0  0  0  0  0  0
  -25.8760  -32.5180   23.8600 C   0  0  0  0  0  3  0  0  0  0  0  0
  -26.3970  -31.7420   25.1300 C   0  0  1  0  0  0  0  0  0  0  0  0
  -25.3070  -31.5000   26.2000 C   0  0  0  0  0  1  0  0  0  0  0  0
  -26.9800  -30.3680   24.7280 C   0  0  0  0  0  1  0  0  0  0  0  0
  -27.5520  -32.5320   25.7900 C   0  0  0  0  0  1  0  0  0  0  0  0
  -25.5660  -33.9150   24.1940 N   0  0  0  0  0  0  0  0  0  0  0  0
  -25.9000  -34.9700   23.4420 C   0  0  0  0  0  0  0  0  0  0  0  0
  -26.5740  -34.8720   22.4120 O   0  0  0  0  0  0  0  0  0  0  0  0
  -24.9640  -34.0650   24.9910 H   0  0  0  0  0  0  0  0  0  0  0  0
  -24.1740  -36.7650   23.0930 C   0  0  0  0  0  1  0  0  0  0  0  0
  -25.4130  -36.3570   23.9040 C   0  0  0  0  0  3  0  0  0  0  0  0
  -27.5480  -37.2320   24.7410 C   0  0  0  0  0  1  0  0  0  0  0  0
  -26.4460  -37.4100   23.7990 N   0  0  0  0  0  0  0  0  0  0  0  0
  -26.0410  -38.3280   23.9590 H   0  0  0  0  0  0  0  0  0  0  0  0
  -29.1570  -19.3080   20.7450 C   0  0  0  0  0  2  0  0  0  0  0  0
  -29.6390  -17.8930   20.2480 C   0  0  0  0  0  2  0  0  0  0  0  0
  -30.2660  -16.9330   21.3100 C   0  0  0  0  0  2  0  0  0  0  0  0
  -30.6370  -14.5240   20.5130 C   0  0  0  0  0  0  0  0  0  0  0  0
  -30.3660  -12.3540   19.3510 C   0  0  0  0  0  2  0  0  0  0  0  0
  -29.4340  -12.5440   18.1360 C   0  0  0  0  0  2  0  0  0  0  0  0
  -27.9550  -12.4100   18.5470 C   0  0  0  0  0  2  0  0  0  0  0  0
  -27.6050  -13.2530   19.8040 C   0  0  0  0  0  3  0  0  0  0  0  0
  -28.6450  -13.0250   20.9230 C   0  0  0  0  0  2  0  0  0  0  0  0
  -29.9760  -13.3380   20.3720 N   0  0  0  0  0  0  0  0  0  0  0  0
  -31.7580  -14.7290   20.0390 O   0  0  0  0  0  0  0  0  0  0  0  0
  -29.9230  -15.5080   21.0990 N   0  0  0  0  0  0  0  0  0  0  0  0
  -29.0240  -15.2180   21.4550 H   0  0  0  0  0  0  0  0  0  0  0  0
  -25.2000  -13.8770   20.4730 C   0  0  0  0  0  0  0  0  0  0  0  0
  -24.1250  -13.1130   20.8390 C   0  0  0  0  0  0  0  0  0  0  0  0
  -24.5810  -11.7590   20.8290 C   0  0  0  0  0  0  0  0  0  0  0  0
  -26.2450  -12.9900   20.2660 N   0  0  0  0  0  0  0  0  0  0  0  0
  -25.8760  -11.7120   20.5380 N   0  0  0  0  0  0  0  0  0  0  0  0
  -23.8480  -10.5020   21.0250 C   0  0  0  0  0  0  0  0  0  0  0  0
  -24.2760   -9.5390   21.9650 C   0  0  0  0  0  3  0  0  0  0  0  0
  -23.5450   -8.3450   22.1510 C   0  0  0  0  0  3  0  0  0  0  0  0
  -22.3710   -8.1080   21.3950 C   0  0  0  0  0  0  0  0  0  0  0  0
  -21.9640   -9.0590   20.4440 C   0  0  0  0  0  3  0  0  0  0  0  0
  -22.6940  -10.2440   20.2560 C   0  0  0  0  0  3  0  0  0  0  0  0
  -21.6120   -6.9670   21.4880 O   0  0  0  0  0  0  0  0  0  0  0  0
  -21.5670   -6.2230   22.6400 C   0  0  0  0  0  0  0  0  0  0  0  0
  -21.1600   -6.7820   23.8720 C   0  0  0  0  0  3  0  0  0  0  0  0
  -21.0630   -5.9660   25.0160 C   0  0  0  0  0  3  0  0  0  0  0  0
  -21.3600   -4.5920   24.9300 C   0  0  0  0  0  0  0  0  0  0  0  0
  -21.7590   -4.0340   23.7030 C   0  0  0  0  0  3  0  0  0  0  0  0
  -21.8590   -4.8470   22.5610 C   0  0  0  0  0  0  0  0  0  0  0  0
  -22.2210   -4.2990   21.3750 F   0  0  0  0  0  0  0  0  0  0  0  0
  -21.2590   -3.8070   26.0280 F   0  0  0  0  0  0  0  0  0  0  0  0
  -22.7250  -13.5960   21.0910 C   0  0  0  0  0  0  0  0  0  0  0  0
  -21.9870  -12.9100   21.9560 N   0  0  0  0  0  0  0  0  0  0  0  0
  -22.2950  -14.6170   20.5510 O   0  0  0  0  0  0  0  0  0  0  0  0
  -22.3470  -12.0840   22.4110 H   0  0  0  0  0  0  0  0  0  0  0  0
  -21.0460  -13.2130   22.1680 H   0  0  0  0  0  0  0  0  0  0  0  0
  -25.3730  -15.2430   20.2790 N   0  0  0  0  0  0  0  0  0  0  0  0
  -24.6140  -15.9080   20.3880 H   0  0  0  0  0  0  0  0  0  0  0  0
  -26.2270  -15.6730   19.9490 H   0  0  0  0  0  0  0  0  0  0  0  0
  -30.0950  -20.7270   18.7950 C   0  0  0  0  0  2  0  0  0  0  0  0
  -28.8110  -20.7180   18.0700 N   0  0  0  0  0  4  0  0  0  0  0  0
  -28.3300  -19.8460   18.1960 H   0  0  0  0  0  0  0  0  0  0  0  0
  -28.9830  -20.8370   17.0870 H   0  0  0  0  0  0  0  0  0  0  0  0
  -28.2200  -21.4710   18.3710 H   0  0  0  0  0  0  0  0  0  0  0  0
  2  5  1  0
  2  1  1  0
  3  1  1  0
  4  5  1  0
  5  7  1  0
  6 91  1  6
  6 50  1  0
  6  4  1  0
  6  3  1  0
  7  8  1  0
  9 11  1  0
  9  8  1  0
 10 21  2  0
 11 16  1  0
 12 20  1  0
 12 22  1  0
 13 19  1  0
 13 15  1  0
 14 20  1  0
 15 14  1  0
 16 15  2  0
 17 11  2  0
 18 17  1  0
 18 13  2  0
 19 12  1  0
 20 10  1  0
 22 24  2  0
 23 22  1  0
 25 23  1  0
 26 35  2  0
 26 31  1  0
 27 23  1  0
 27 31  1  0
 28 27  1  0
 29 30  1  0
 29 28  1  0
 30 26  1  0
 31 32  2  0
 32 33  1  0
 34 33  2  0
 35 34  1  0
 36 10  1  0
 36 41  1  0
 36 37  1  0
 37 40  1  1
 37 38  1  0
 39 37  1  0
 41 44  1  0
 42 46  1  0
 42 41  1  0
 43 42  2  0
 46 45  1  0
 48 46  1  0
 48 49  1  0
 48 47  1  0
 51 50  1  0
 51 52  1  0
 53 61  1  0
 54 59  1  0
 55 56  1  0
 55 54  1  0
 57 56  1  0
 57 66  1  0
 57 58  1  0
 59 53  1  0
 59 58  1  0
 60 53  2  0
 61 52  1  0
 61 62  1  0
 63 64  2  0
 64 83  1  0
 65 64  1  0
 65 68  1  0
 66 63  1  0
 66 67  1  0
 67 65  2  0
 68 69  1  0
 69 70  2  0
 71 74  1  0
 71 70  1  0
 72 71  2  0
 73 72  1  0
 73 68  2  0
 74 75  1  0
 75 76  1  0
 76 77  2  0
 78 77  1  0
 78 82  1  0
 79 78  2  0
 80 75  2  0
 80 79  1  0
 81 80  1  0
 83 84  1  0
 84 87  1  0
 84 86  1  0
 85 83  2  0
 88 89  1  0
 88 63  1  0
 90 88  1  0
 92 93  1  0
 92 95  1  0
 92 91  1  0
 94 92  1  0
M  ISO  4   8 101   9 101  53 100  61 100
M  END
>  <TORSDO>  (35) 
F 23

>  <SCORE>  (35) 
-12.929

>  <name>  (35) 
34

>  <ligand_id>  (35) 
34

>  <original_smiles>  (35) 
[H]c1c([H])c([H])c2c(c1[H])C([H])([H])C([H])([H])C([H])([H])C2([H])N([H])C(=O)C1([H])N(C(=O)C([H])(N([H])C(=O)C([H])(N([H])C([H])([H])[H])C([H])([H])[H])C(C([H])([H])[H])(C([H])([H])[H])C([H])([H])[H])C([H])([H])c2c([H])c(OC([H])([H])C([H])([H])C3([H])C([H])([H])C([H])([H])C([H])([H])C(C([H])([H])C([H])([H])C([H])([H])N([H])C(=O)N4C([H])([H])C([H])([H])C([H])([H])C([H])(n5nc(-c6c([H])c([H])c(Oc7c([H])c([H])c(F)c([H])c7F)c([H])c6[H])c(C(=O)N([H])[H])c5N([H])[H])C4([H])[H])(C([H])([H])[N+]([H])([H])[H])C3([H])[H])c([H])c([H])c2C1([H])[H]

>  <smiles>  (35) 
[H]c1c([H])c([H])c2c(c1[H])C([H])([H])C([H])([H])C([H])([H])C2([H])N([H])C(=O)C1([H])N(C(=O)C([H])(N([H])C(=O)C([H])(N([H])C([H])([H])[H])C([H])([H])[H])C(C([H])([H])[H])(C([H])([H])[H])C([H])([H])[H])C([H])([H])c2c([H])c(OC([H])([H])C([H])([H])C3([H])C([H])([H])C([H])([H])C([H])([H])C(C([H])([H])C([H])([H])C([H])([H])N([H])C(=O)N4C([H])([H])C([H])([H])C([H])([H])C([H])(n5nc(-c6c([H])c([H])c(Oc7c([H])c([H])c(F)c([H])c7F)c([H])c6[H])c(C(=O)N([H])[H])c5N([H])[H])C4([H])[H])(C([H])([H])[N+]([H])([H])[H])C3([H])[H])c([H])c([H])c2C1([H])[H]

$$$$
35:0:0
     RDKit          3D

 91 99  0  0  1  0  0  0  0  0999 V2000
  -32.2040  -19.3690   19.5680 C   0  0  0  0  0  2  0  0  0  0  0  0
  -31.7500  -20.7570   20.0390 C   0  0  0  0  0  2  0  0  0  0  0  0
  -32.1530  -18.3450   20.7080 C   0  0  0  0  0  2  0  0  0  0  0  0
  -30.2530  -19.6420   21.7570 C   0  0  0  0  0  2  0  0  0  0  0  0
  -30.3360  -20.7280   20.6570 C   0  0  0  0  0  3  0  0  0  0  0  0
  -30.7370  -18.2390   21.3090 C   0  0  0  0  0  3  0  0  0  0  0  0
  -29.9300  -22.1170   21.2140 C   0  0  0  0  0  2  0  0  0  0  0  0
  -29.5690  -23.1610   20.1380 C   0  0  0  0  0  2  0  0  0  0  0  0
  -29.2570  -24.5600   20.7130 C   0  0  0  0  0  2  0  0  0  0  0  0
  -28.6040  -25.4970   19.6790 C   0  0  0  0  0  2  0  0  0  0  0  0
  -28.4560  -26.8160   20.2240 O   0  0  0  0  0  0  0  0  0  0  0  0
  -24.5880  -31.9180   23.2930 C   0  0  0  0  0  0  0  0  0  0  0  0
  -27.2480  -27.4890   20.1930 C   0  0  0  0  0  0  0  0  0  0  0  0
  -23.3870  -30.5210   21.6430 C   0  0  0  0  0  3  0  0  0  0  0  0
  -24.8440  -28.9930   20.2150 C   0  0  0  0  0  0  0  0  0  0  0  0
  -25.9130  -30.8820   21.4540 C   0  0  0  0  0  2  0  0  0  0  0  0
  -25.9970  -29.5140   20.8080 C   0  0  0  0  0  0  0  0  0  0  0  0
  -27.1970  -28.7660   20.7990 C   0  0  0  0  0  3  0  0  0  0  0  0
  -26.0710  -26.9900   19.5850 C   0  0  0  0  0  3  0  0  0  0  0  0
  -24.8750  -27.7300   19.6040 C   0  0  0  0  0  3  0  0  0  0  0  0
  -23.5980  -29.8480   20.2610 C   0  0  0  0  0  2  0  0  0  0  0  0
  -24.6460  -31.1220   22.1870 N   0  0  0  0  0  0  0  0  0  0  0  0
  -23.5050  -32.1870   23.8310 O   0  0  0  0  0  0  0  0  0  0  0  0
  -22.7360  -29.4930   22.5980 C   0  0  0  0  0  0  0  0  0  0  0  0
  -21.4130  -29.3040   22.4590 N   0  0  0  0  0  0  0  0  0  0  0  0
  -23.4170  -28.8700   23.4150 O   0  0  0  0  0  0  0  0  0  0  0  0
  -20.9270  -29.8580   21.7690 H   0  0  0  0  0  0  0  0  0  0  0  0
  -18.0420  -28.0870   22.9210 C   0  0  0  0  0  0  0  0  0  0  0  0
  -20.5950  -28.3610   23.2220 C   0  0  0  0  0  3  0  0  0  0  0  0
  -20.7150  -26.9310   22.6460 C   0  0  0  0  0  2  0  0  0  0  0  0
  -19.6260  -26.6000   21.6210 C   0  0  0  0  0  2  0  0  0  0  0  0
  -18.2360  -26.7380   22.2490 C   0  0  0  0  0  2  0  0  0  0  0  0
  -19.1520  -28.8560   23.3630 C   0  0  0  0  0  0  0  0  0  0  0  0
  -18.9190  -30.1190   23.9500 C   0  0  0  0  0  3  0  0  0  0  0  0
  -17.6110  -30.6150   24.0980 C   0  0  0  0  0  3  0  0  0  0  0  0
  -16.5160  -29.8420   23.6750 C   0  0  0  0  0  3  0  0  0  0  0  0
  -16.7320  -28.5810   23.0920 C   0  0  0  0  0  3  0  0  0  0  0  0
  -25.8720  -32.5460   23.9170 C   0  0  0  0  0  3  0  0  0  0  0  0
  -25.5700  -33.9490   24.2300 N   0  0  0  0  0  0  0  0  0  0  0  0
  -25.9090  -34.9890   23.4570 C   0  0  0  0  0  0  0  0  0  0  0  0
  -26.5800  -34.8690   22.4280 O   0  0  0  0  0  0  0  0  0  0  0  0
  -24.9720  -34.1140   25.0270 H   0  0  0  0  0  0  0  0  0  0  0  0
  -24.1840  -36.7780   23.0840 C   0  0  0  0  0  1  0  0  0  0  0  0
  -25.4260  -36.3840   23.8960 C   0  0  0  0  0  3  0  0  0  0  0  0
  -27.5640  -37.2760   24.7090 C   0  0  0  0  0  1  0  0  0  0  0  0
  -26.4610  -37.4320   23.7640 N   0  0  0  0  0  0  0  0  0  0  0  0
  -26.0570  -38.3550   23.8980 H   0  0  0  0  0  0  0  0  0  0  0  0
  -26.3780  -31.7830   25.2020 C   0  0  1  0  0  0  0  0  0  0  0  0
  -25.2740  -31.5580   26.2620 C   0  0  0  0  0  1  0  0  0  0  0  0
  -26.9580  -30.3990   24.8250 C   0  0  0  0  0  1  0  0  0  0  0  0
  -27.5260  -32.5770   25.8650 C   0  0  0  0  0  1  0  0  0  0  0  0
  -30.6630  -17.2510   22.4980 C   0  0  0  0  0  2  0  0  0  0  0  0
  -31.1840  -15.8150   22.2630 C   0  0  0  0  0  2  0  0  0  0  0  0
  -30.5340  -14.3860   20.3210 C   0  0  0  0  0  0  0  0  0  0  0  0
  -30.0820  -12.4210   18.8970 C   0  0  0  0  0  2  0  0  0  0  0  0
  -29.0680  -12.7060   17.7750 C   0  0  0  0  0  2  0  0  0  0  0  0
  -27.6280  -12.5150   18.2840 C   0  0  0  0  0  2  0  0  0  0  0  0
  -27.3630  -13.2650   19.6150 C   0  0  0  0  0  3  0  0  0  0  0  0
  -28.4730  -12.9640   20.6450 C   0  0  0  0  0  2  0  0  0  0  0  0
  -29.7770  -13.2940   20.0400 N   0  0  0  0  0  0  0  0  0  0  0  0
  -31.4850  -14.7500   19.6210 O   0  0  0  0  0  0  0  0  0  0  0  0
  -30.2680  -14.9640   21.5010 N   0  0  0  0  0  0  0  0  0  0  0  0
  -29.4730  -14.5930   21.9990 H   0  0  0  0  0  0  0  0  0  0  0  0
  -24.9800  -13.8080   20.4260 C   0  0  0  0  0  0  0  0  0  0  0  0
  -23.9490  -13.0050   20.8350 C   0  0  0  0  0  0  0  0  0  0  0  0
  -24.4430  -11.6670   20.7770 C   0  0  0  0  0  0  0  0  0  0  0  0
  -26.0380  -12.9550   20.1480 N   0  0  0  0  0  0  0  0  0  0  0  0
  -25.7180  -11.6610   20.4130 N   0  0  0  0  0  0  0  0  0  0  0  0
  -23.7590  -10.3840   20.9900 C   0  0  0  0  0  0  0  0  0  0  0  0
  -24.2470   -9.4330   21.9130 C   0  0  0  0  0  3  0  0  0  0  0  0
  -23.5640   -8.2140   22.1130 C   0  0  0  0  0  3  0  0  0  0  0  0
  -22.3780   -7.9380   21.3910 C   0  0  0  0  0  0  0  0  0  0  0  0
  -21.9100   -8.8790   20.4570 C   0  0  0  0  0  3  0  0  0  0  0  0
  -22.5930  -10.0890   20.2550 C   0  0  0  0  0  3  0  0  0  0  0  0
  -21.6610   -6.7720   21.5030 O   0  0  0  0  0  0  0  0  0  0  0  0
  -21.6630   -6.0340   22.6600 C   0  0  0  0  0  0  0  0  0  0  0  0
  -21.2520   -6.5820   23.8950 C   0  0  0  0  0  3  0  0  0  0  0  0
  -21.2030   -5.7680   25.0450 C   0  0  0  0  0  3  0  0  0  0  0  0
  -21.5520   -4.4070   24.9610 C   0  0  0  0  0  0  0  0  0  0  0  0
  -21.9560   -3.8590   23.7310 C   0  0  0  0  0  3  0  0  0  0  0  0
  -22.0090   -4.6690   22.5830 C   0  0  0  0  0  0  0  0  0  0  0  0
  -22.3770   -4.1300   21.3960 F   0  0  0  0  0  0  0  0  0  0  0  0
  -21.4970   -3.6240   26.0630 F   0  0  0  0  0  0  0  0  0  0  0  0
  -22.5510  -13.4430   21.1700 C   0  0  0  0  0  0  0  0  0  0  0  0
  -21.8790  -12.7210   22.0620 N   0  0  0  0  0  0  0  0  0  0  0  0
  -22.0640  -14.4590   20.6770 O   0  0  0  0  0  0  0  0  0  0  0  0
  -22.2870  -11.9010   22.4850 H   0  0  0  0  0  0  0  0  0  0  0  0
  -20.9430  -12.9940   22.3240 H   0  0  0  0  0  0  0  0  0  0  0  0
  -25.1030  -15.1830   20.2520 N   0  0  0  0  0  0  0  0  0  0  0  0
  -24.3320  -15.8240   20.4020 H   0  0  0  0  0  0  0  0  0  0  0  0
  -25.9370  -15.6420   19.9070 H   0  0  0  0  0  0  0  0  0  0  0  0
  1  2  1  0
  1  3  1  0
  2  5  1  0
  3  6  1  0
  5  7  1  0
  5  4  1  0
  6  4  1  0
  6 52  1  0
  8  9  1  0
  8  7  1  0
 10 11  1  0
 10  9  1  0
 12 23  2  0
 13 11  1  0
 13 18  1  0
 14 22  1  0
 14 24  1  0
 15 21  1  0
 15 17  1  0
 16 22  1  0
 17 16  1  0
 18 17  2  0
 19 20  1  0
 19 13  2  0
 20 15  2  0
 21 14  1  0
 22 12  1  0
 24 26  2  0
 25 24  1  0
 27 25  1  0
 28 37  2  0
 28 33  1  0
 29 25  1  0
 29 33  1  0
 30 29  1  0
 31 32  1  0
 31 30  1  0
 32 28  1  0
 33 34  2  0
 34 35  1  0
 36 35  2  0
 37 36  1  0
 38 12  1  0
 38 39  1  0
 38 48  1  0
 39 42  1  0
 40 44  1  0
 40 39  1  0
 41 40  2  0
 44 43  1  0
 46 44  1  0
 46 47  1  0
 46 45  1  0
 48 51  1  1
 48 49  1  0
 50 48  1  0
 53 52  1  0
 54 62  1  0
 55 60  1  0
 56 57  1  0
 56 55  1  0
 58 57  1  0
 58 67  1  0
 58 59  1  0
 60 54  1  0
 60 59  1  0
 61 54  2  0
 62 63  1  0
 62 53  1  0
 64 65  2  0
 65 84  1  0
 66 65  1  0
 66 69  1  0
 67 68  1  0
 67 64  1  0
 68 66  2  0
 69 70  1  0
 70 71  2  0
 72 75  1  0
 72 71  1  0
 73 72  2  0
 74 73  1  0
 74 69  2  0
 75 76  1  0
 76 77  1  0
 77 78  2  0
 79 78  1  0
 79 83  1  0
 80 79  2  0
 81 76  2  0
 81 80  1  0
 82 81  1  0
 84 85  1  0
 85 88  1  0
 85 87  1  0
 86 84  2  0
 89 90  1  0
 89 64  1  0
 91 89  1  0
M  ISO  4  10 101  11 101  54 100  62 100
M  END
>  <TORSDO>  (36) 
F 22

>  <SCORE>  (36) 
-12.396

>  <name>  (36) 
35

>  <ligand_id>  (36) 
35

>  <original_smiles>  (36) 
[H]c1c([H])c([H])c2c(c1[H])C([H])([H])C([H])([H])C([H])([H])C2([H])N([H])C(=O)C1([H])N(C(=O)C([H])(N([H])C(=O)C([H])(N([H])C([H])([H])[H])C([H])([H])[H])C(C([H])([H])[H])(C([H])([H])[H])C([H])([H])[H])C([H])([H])c2c([H])c(OC([H])([H])C([H])([H])C([H])([H])C([H])([H])C3([H])C([H])([H])C([H])([H])C([H])([H])C([H])(C([H])([H])C([H])([H])N([H])C(=O)N4C([H])([H])C([H])([H])C([H])([H])C([H])(n5nc(-c6c([H])c([H])c(Oc7c([H])c([H])c(F)c([H])c7F)c([H])c6[H])c(C(=O)N([H])[H])c5N([H])[H])C4([H])[H])C3([H])[H])c([H])c([H])c2C1([H])[H]

>  <smiles>  (36) 
[H]c1c([H])c([H])c2c(c1[H])C([H])([H])C([H])([H])C([H])([H])C2([H])N([H])C(=O)C1([H])N(C(=O)C([H])(N([H])C(=O)C([H])(N([H])C([H])([H])[H])C([H])([H])[H])C(C([H])([H])[H])(C([H])([H])[H])C([H])([H])[H])C([H])([H])c2c([H])c(OC([H])([H])C([H])([H])C([H])([H])C([H])([H])C3([H])C([H])([H])C([H])([H])C([H])([H])C([H])(C([H])([H])C([H])([H])N([H])C(=O)N4C([H])([H])C([H])([H])C([H])([H])C([H])(n5nc(-c6c([H])c([H])c(Oc7c([H])c([H])c(F)c([H])c7F)c([H])c6[H])c(C(=O)N([H])[H])c5N([H])[H])C4([H])[H])C3([H])[H])c([H])c([H])c2C1([H])[H]

$$$$
36:0:0
     RDKit          3D

 91 99  0  0  1  0  0  0  0  0999 V2000
  -29.5910  -20.8510   22.6920 C   0  0  0  0  0  2  0  0  0  0  0  0
  -28.3700  -23.0110   22.0360 C   0  0  0  0  0  2  0  0  0  0  0  0
  -30.0180  -21.8810   20.4060 C   0  0  0  0  0  2  0  0  0  0  0  0
  -29.2190  -22.2980   23.1050 C   0  0  0  0  0  3  0  0  0  0  0  0
  -29.6070  -20.6020   21.1650 C   0  0  0  0  0  3  0  0  0  0  0  0
  -28.9860  -23.0070   20.6130 C   0  0  0  0  0  3  0  0  0  0  0  0
  -30.4500  -23.1310   23.5110 C   0  0  0  0  0  1  0  0  0  0  0  0
  -30.5080  -19.4150   20.7730 C   0  0  0  0  0  2  0  0  0  0  0  0
  -30.0130  -18.0250   21.2350 C   0  0  0  0  0  2  0  0  0  0  0  0
  -30.9000  -16.9140   20.6480 C   0  0  0  0  0  2  0  0  0  0  0  0
  -30.9970  -14.4960   20.2830 C   0  0  0  0  0  0  0  0  0  0  0  0
  -30.6030  -12.3700   19.1190 C   0  0  0  0  0  2  0  0  0  0  0  0
  -29.6560  -12.6140   17.9290 C   0  0  0  0  0  2  0  0  0  0  0  0
  -28.1860  -12.4990   18.3770 C   0  0  0  0  0  2  0  0  0  0  0  0
  -27.8790  -13.3220   19.6590 C   0  0  0  0  0  3  0  0  0  0  0  0
  -28.9490  -13.0930   20.7520 C   0  0  0  0  0  2  0  0  0  0  0  0
  -30.2700  -13.3560   20.1600 N   0  0  0  0  0  0  0  0  0  0  0  0
  -32.1150  -14.6350   19.7810 O   0  0  0  0  0  0  0  0  0  0  0  0
  -30.3740  -15.5550   20.8230 N   0  0  0  0  0  0  0  0  0  0  0  0
  -29.4420  -15.4290   21.1910 H   0  0  0  0  0  0  0  0  0  0  0  0
  -25.4900  -13.9370   20.3920 C   0  0  0  0  0  0  0  0  0  0  0  0
  -24.4230  -13.1680   20.7750 C   0  0  0  0  0  0  0  0  0  0  0  0
  -24.8780  -11.8140   20.7410 C   0  0  0  0  0  0  0  0  0  0  0  0
  -26.5300  -13.0520   20.1540 N   0  0  0  0  0  0  0  0  0  0  0  0
  -26.1670  -11.7710   20.4220 N   0  0  0  0  0  0  0  0  0  0  0  0
  -24.1490  -10.5540   20.9400 C   0  0  0  0  0  0  0  0  0  0  0  0
  -24.5580   -9.6120   21.9090 C   0  0  0  0  0  3  0  0  0  0  0  0
  -23.8320   -8.4150   22.0970 C   0  0  0  0  0  3  0  0  0  0  0  0
  -22.6820   -8.1530   21.3140 C   0  0  0  0  0  0  0  0  0  0  0  0
  -22.2920   -9.0840   20.3350 C   0  0  0  0  0  3  0  0  0  0  0  0
  -23.0180  -10.2710   20.1470 C   0  0  0  0  0  3  0  0  0  0  0  0
  -21.9310   -7.0070   21.4080 O   0  0  0  0  0  0  0  0  0  0  0  0
  -21.8090   -6.3190   22.5890 C   0  0  0  0  0  0  0  0  0  0  0  0
  -21.2660   -6.9160   23.7480 C   0  0  0  0  0  3  0  0  0  0  0  0
  -21.0980   -6.1540   24.9200 C   0  0  0  0  0  3  0  0  0  0  0  0
  -21.4600   -4.7930   24.9350 C   0  0  0  0  0  0  0  0  0  0  0  0
  -21.9940   -4.1940   23.7810 C   0  0  0  0  0  3  0  0  0  0  0  0
  -22.1660   -4.9550   22.6100 C   0  0  0  0  0  0  0  0  0  0  0  0
  -22.6620   -4.3690   21.4940 F   0  0  0  0  0  0  0  0  0  0  0  0
  -21.2890   -4.0580   26.0580 F   0  0  0  0  0  0  0  0  0  0  0  0
  -23.0300  -13.6490   21.0600 C   0  0  0  0  0  0  0  0  0  0  0  0
  -22.3070  -12.9570   21.9360 N   0  0  0  0  0  0  0  0  0  0  0  0
  -22.5870  -14.6720   20.5400 O   0  0  0  0  0  0  0  0  0  0  0  0
  -22.6790  -12.1300   22.3800 H   0  0  0  0  0  0  0  0  0  0  0  0
  -21.3700  -13.2590   22.1620 H   0  0  0  0  0  0  0  0  0  0  0  0
  -25.6580  -15.3050   20.2070 N   0  0  0  0  0  0  0  0  0  0  0  0
  -24.8980  -15.9660   20.3200 H   0  0  0  0  0  0  0  0  0  0  0  0
  -26.5060  -15.7360   19.8560 H   0  0  0  0  0  0  0  0  0  0  0  0
  -29.4900  -24.4070   20.1820 C   0  0  0  0  0  2  0  0  0  0  0  0
  -28.2860  -25.2770   19.7990 C   0  0  0  0  0  2  0  0  0  0  0  0
  -28.4870  -26.6930   19.8140 O   0  0  0  0  0  0  0  0  0  0  0  0
  -24.5700  -31.6540   23.0790 C   0  0  0  0  0  0  0  0  0  0  0  0
  -27.3070  -27.4120   19.8120 C   0  0  0  0  0  0  0  0  0  0  0  0
  -23.3880  -30.2780   21.4000 C   0  0  0  0  0  3  0  0  0  0  0  0
  -24.8710  -28.8470   19.9060 C   0  0  0  0  0  0  0  0  0  0  0  0
  -25.9010  -30.7190   21.1940 C   0  0  0  0  0  2  0  0  0  0  0  0
  -26.0220  -29.3790   20.5010 C   0  0  0  0  0  0  0  0  0  0  0  0
  -27.2430  -28.6700   20.4550 C   0  0  0  0  0  3  0  0  0  0  0  0
  -26.1320  -26.9070   19.1990 C   0  0  0  0  0  3  0  0  0  0  0  0
  -24.9220  -27.6090   19.2540 C   0  0  0  0  0  3  0  0  0  0  0  0
  -23.6020  -29.6610   19.9940 C   0  0  0  0  0  2  0  0  0  0  0  0
  -24.6380  -30.8960   21.9500 N   0  0  0  0  0  0  0  0  0  0  0  0
  -23.4870  -31.8770   23.6390 O   0  0  0  0  0  0  0  0  0  0  0  0
  -22.7770  -29.2020   22.3260 C   0  0  0  0  0  0  0  0  0  0  0  0
  -21.4590  -28.9820   22.1980 N   0  0  0  0  0  0  0  0  0  0  0  0
  -23.4840  -28.5710   23.1160 O   0  0  0  0  0  0  0  0  0  0  0  0
  -20.9480  -29.5470   21.5340 H   0  0  0  0  0  0  0  0  0  0  0  0
  -18.1200  -27.6890   22.6790 C   0  0  0  0  0  0  0  0  0  0  0  0
  -20.6740  -27.9950   22.9400 C   0  0  0  0  0  3  0  0  0  0  0  0
  -20.8040  -26.5900   22.3050 C   0  0  0  0  0  2  0  0  0  0  0  0
  -19.6980  -26.2820   21.2910 C   0  0  0  0  0  2  0  0  0  0  0  0
  -18.3200  -26.3700   21.9520 C   0  0  0  0  0  2  0  0  0  0  0  0
  -19.2240  -28.4600   23.1280 C   0  0  0  0  0  0  0  0  0  0  0  0
  -18.9830  -29.6960   23.7660 C   0  0  0  0  0  3  0  0  0  0  0  0
  -17.6680  -30.1600   23.9630 C   0  0  0  0  0  3  0  0  0  0  0  0
  -16.5790  -29.3860   23.5310 C   0  0  0  0  0  3  0  0  0  0  0  0
  -16.8040  -28.1530   22.8940 C   0  0  0  0  0  3  0  0  0  0  0  0
  -25.8460  -32.2960   23.7110 C   0  0  0  0  0  3  0  0  0  0  0  0
  -25.5080  -33.6770   24.0770 N   0  0  0  0  0  0  0  0  0  0  0  0
  -25.7910  -34.7520   23.3270 C   0  0  0  0  0  0  0  0  0  0  0  0
  -26.4350  -34.6860   22.2760 O   0  0  0  0  0  0  0  0  0  0  0  0
  -24.9320  -33.8010   24.8950 H   0  0  0  0  0  0  0  0  0  0  0  0
  -23.9950  -36.4920   23.0610 C   0  0  0  0  0  1  0  0  0  0  0  0
  -25.2760  -36.1170   23.8230 C   0  0  0  0  0  3  0  0  0  0  0  0
  -27.4050  -37.0600   24.6020 C   0  0  0  0  0  1  0  0  0  0  0  0
  -26.2710  -37.2030   23.6920 N   0  0  0  0  0  0  0  0  0  0  0  0
  -25.8410  -38.1080   23.8620 H   0  0  0  0  0  0  0  0  0  0  0  0
  -26.3880  -31.5030   24.9620 C   0  0  1  0  0  0  0  0  0  0  0  0
  -25.3070  -31.2130   26.0310 C   0  0  0  0  0  1  0  0  0  0  0  0
  -27.0000  -30.1510   24.5260 C   0  0  0  0  0  1  0  0  0  0  0  0
  -27.5220  -32.3080   25.6400 C   0  0  0  0  0  1  0  0  0  0  0  0
  1  4  1  0
  2  4  1  0
  3  6  1  0
  3  5  1  0
  4  7  1  0
  5  8  1  0
  5  1  1  0
  6 49  1  0
  6  2  1  0
  8  9  1  0
 10 19  1  0
 10  9  1  0
 11 19  1  0
 12 17  1  0
 13 14  1  0
 13 12  1  0
 15 14  1  0
 15 24  1  0
 15 16  1  0
 17 11  1  0
 17 16  1  0
 18 11  2  0
 19 20  1  0
 21 22  2  0
 22 41  1  0
 23 22  1  0
 23 26  1  0
 24 21  1  0
 24 25  1  0
 25 23  2  0
 26 27  1  0
 27 28  2  0
 29 32  1  0
 29 28  1  0
 30 29  2  0
 31 30  1  0
 31 26  2  0
 32 33  1  0
 33 38  2  0
 33 34  1  0
 34 35  2  0
 35 36  1  0
 36 40  1  0
 37 36  2  0
 38 37  1  0
 39 38  1  0
 41 42  1  0
 42 45  1  0
 42 44  1  0
 43 41  2  0
 46 47  1  0
 46 21  1  0
 48 46  1  0
 50 51  1  0
 50 49  1  0
 52 63  2  0
 53 51  1  0
 53 58  1  0
 54 62  1  0
 54 64  1  0
 55 61  1  0
 55 57  1  0
 56 62  1  0
 57 56  1  0
 58 57  2  0
 59 60  1  0
 59 53  2  0
 60 55  2  0
 61 54  1  0
 62 52  1  0
 64 66  2  0
 65 64  1  0
 67 65  1  0
 68 77  2  0
 68 73  1  0
 69 65  1  0
 69 73  1  0
 70 69  1  0
 71 72  1  0
 71 70  1  0
 72 68  1  0
 73 74  2  0
 74 75  1  0
 76 75  2  0
 77 76  1  0
 78 52  1  0
 78 79  1  0
 78 88  1  0
 79 82  1  0
 80 84  1  0
 80 79  1  0
 81 80  2  0
 84 83  1  0
 86 84  1  0
 86 87  1  0
 86 85  1  0
 88 91  1  1
 88 89  1  0
 90 88  1  0
M  ISO  4  11 100  19 100  50 101  51 101
M  END
>  <TORSDO>  (37) 
F 21

>  <SCORE>  (37) 
-12.171

>  <name>  (37) 
36

>  <ligand_id>  (37) 
36

>  <original_smiles>  (37) 
[H]c1c([H])c([H])c2c(c1[H])C([H])([H])C([H])([H])C([H])([H])C2([H])N([H])C(=O)C1([H])N(C(=O)C([H])(N([H])C(=O)C([H])(N([H])C([H])([H])[H])C([H])([H])[H])C(C([H])([H])[H])(C([H])([H])[H])C([H])([H])[H])C([H])([H])c2c([H])c(OC([H])([H])C([H])([H])C3([H])C([H])([H])C([H])(C([H])([H])[H])C([H])([H])C([H])(C([H])([H])C([H])([H])C([H])([H])N([H])C(=O)N4C([H])([H])C([H])([H])C([H])([H])C([H])(n5nc(-c6c([H])c([H])c(Oc7c([H])c([H])c(F)c([H])c7F)c([H])c6[H])c(C(=O)N([H])[H])c5N([H])[H])C4([H])[H])C3([H])[H])c([H])c([H])c2C1([H])[H]

>  <smiles>  (37) 
[H]c1c([H])c([H])c2c(c1[H])C([H])([H])C([H])([H])C([H])([H])C2([H])N([H])C(=O)C1([H])N(C(=O)C([H])(N([H])C(=O)C([H])(N([H])C([H])([H])[H])C([H])([H])[H])C(C([H])([H])[H])(C([H])([H])[H])C([H])([H])[H])C([H])([H])c2c([H])c(OC([H])([H])C([H])([H])C3([H])C([H])([H])C([H])(C([H])([H])[H])C([H])([H])C([H])(C([H])([H])C([H])([H])C([H])([H])N([H])C(=O)N4C([H])([H])C([H])([H])C([H])([H])C([H])(n5nc(-c6c([H])c([H])c(Oc7c([H])c([H])c(F)c([H])c7F)c([H])c6[H])c(C(=O)N([H])[H])c5N([H])[H])C4([H])[H])C3([H])[H])c([H])c([H])c2C1([H])[H]

$$$$
37:0:0
     RDKit          3D

 98107  0  0  1  0  0  0  0  0999 V2000
  -30.9850  -20.1980   19.3990 C   0  0  0  0  0  3  0  0  0  0  0  0
  -31.2450  -21.5100   18.9490 C   0  0  0  0  0  3  0  0  0  0  0  0
  -31.0400  -22.3280   21.2230 C   0  0  0  0  0  3  0  0  0  0  0  0
  -30.7470  -19.9260   20.7680 C   0  0  0  0  0  0  0  0  0  0  0  0
  -31.2890  -22.5880   19.8580 C   0  0  0  0  0  0  0  0  0  0  0  0
  -30.7730  -21.0170   21.6820 C   0  0  0  0  0  0  0  0  0  0  0  0
  -30.5360  -20.8190   23.1720 C   0  0  0  0  0  1  0  0  0  0  0  0
  -30.7070  -14.6190   20.0660 C   0  0  0  0  0  0  0  0  0  0  0  0
  -30.3020  -12.4570   18.9240 C   0  0  0  0  0  2  0  0  0  0  0  0
  -29.2920  -12.6060   17.7700 C   0  0  0  0  0  2  0  0  0  0  0  0
  -27.8520  -12.4460   18.2910 C   0  0  0  0  0  2  0  0  0  0  0  0
  -27.5770  -13.3180   19.5420 C   0  0  0  0  0  3  0  0  0  0  0  0
  -28.6960  -13.1490   20.5990 C   0  0  0  0  0  2  0  0  0  0  0  0
  -29.9840  -13.4630   19.9580 N   0  0  0  0  0  0  0  0  0  0  0  0
  -31.7300  -14.7990   19.3970 O   0  0  0  0  0  0  0  0  0  0  0  0
  -29.4000  -17.7310   20.4320 C   0  0  0  0  0  2  0  0  0  0  0  0
  -31.7580  -17.6070   21.2890 C   0  0  0  0  0  2  0  0  0  0  0  0
  -29.1520  -16.3270   21.0370 C   0  0  0  0  0  2  0  0  0  0  0  0
  -31.4410  -16.1840   21.8240 C   0  0  0  0  0  2  0  0  0  0  0  0
  -30.4870  -18.4770   21.2320 C   0  0  0  0  0  3  0  0  0  0  0  0
  -30.3810  -15.5070   21.0480 N   0  0  0  0  0  0  0  0  0  0  0  0
  -25.2400  -13.9400   20.4250 C   0  0  0  0  0  0  0  0  0  0  0  0
  -24.1880  -13.1710   20.8450 C   0  0  0  0  0  0  0  0  0  0  0  0
  -24.6280  -11.8140   20.7510 C   0  0  0  0  0  0  0  0  0  0  0  0
  -26.2550  -13.0510   20.1030 N   0  0  0  0  0  0  0  0  0  0  0  0
  -25.8930  -11.7670   20.3550 N   0  0  0  0  0  0  0  0  0  0  0  0
  -23.9000  -10.5560   20.9580 C   0  0  0  0  0  0  0  0  0  0  0  0
  -24.3420   -9.5910   21.8910 C   0  0  0  0  0  3  0  0  0  0  0  0
  -23.6120   -8.3970   22.0850 C   0  0  0  0  0  3  0  0  0  0  0  0
  -22.4290   -8.1610   21.3450 C   0  0  0  0  0  0  0  0  0  0  0  0
  -22.0080   -9.1140   20.4010 C   0  0  0  0  0  3  0  0  0  0  0  0
  -22.7360  -10.2990   20.2060 C   0  0  0  0  0  3  0  0  0  0  0  0
  -21.6730   -7.0170   21.4470 O   0  0  0  0  0  0  0  0  0  0  0  0
  -21.6180   -6.2940   22.6110 C   0  0  0  0  0  0  0  0  0  0  0  0
  -21.1370   -6.8550   23.8140 C   0  0  0  0  0  3  0  0  0  0  0  0
  -21.0320   -6.0560   24.9710 C   0  0  0  0  0  3  0  0  0  0  0  0
  -21.3980   -4.6970   24.9260 C   0  0  0  0  0  0  0  0  0  0  0  0
  -21.8730   -4.1360   23.7270 C   0  0  0  0  0  3  0  0  0  0  0  0
  -21.9800   -4.9330   22.5720 C   0  0  0  0  0  0  0  0  0  0  0  0
  -22.4180   -4.3810   21.4150 F   0  0  0  0  0  0  0  0  0  0  0  0
  -21.2900   -3.9280   26.0350 F   0  0  0  0  0  0  0  0  0  0  0  0
  -22.8190  -13.6580   21.2220 C   0  0  0  0  0  0  0  0  0  0  0  0
  -22.1390  -12.9420   22.1120 N   0  0  0  0  0  0  0  0  0  0  0  0
  -22.3630  -14.7040   20.7640 O   0  0  0  0  0  0  0  0  0  0  0  0
  -22.5180  -12.0920   22.4990 H   0  0  0  0  0  0  0  0  0  0  0  0
  -21.2240  -13.2510   22.4070 H   0  0  0  0  0  0  0  0  0  0  0  0
  -25.4100  -15.3120   20.2680 N   0  0  0  0  0  0  0  0  0  0  0  0
  -24.6640  -15.9740   20.4450 H   0  0  0  0  0  0  0  0  0  0  0  0
  -26.2390  -15.7460   19.8810 H   0  0  0  0  0  0  0  0  0  0  0  0
  -31.6930  -23.9920   19.3780 C   0  0  0  0  0  3  0  0  0  0  0  0
  -30.7030  -25.0550   19.7060 N   0  0  0  0  0  4  0  0  0  0  0  0
  -30.6630  -25.1870   20.7030 H   0  0  0  0  0  0  0  0  0  0  0  0
  -31.0550  -25.9150   19.3140 H   0  0  0  0  0  0  0  0  0  0  0  0
  -29.3220  -24.8450   19.1960 C   0  0  0  0  0  2  0  0  0  0  0  0
  -28.6240  -26.1480   18.7340 C   0  0  0  0  0  2  0  0  0  0  0  0
  -28.3000  -26.9920   19.8480 O   0  0  0  0  0  0  0  0  0  0  0  0
  -24.6180  -31.9790   23.3000 C   0  0  0  0  0  0  0  0  0  0  0  0
  -27.0980  -27.6790   19.8870 C   0  0  0  0  0  0  0  0  0  0  0  0
  -23.3190  -30.6460   21.6690 C   0  0  0  0  0  3  0  0  0  0  0  0
  -24.6890  -29.1660   20.1070 C   0  0  0  0  0  0  0  0  0  0  0  0
  -25.8290  -31.0130   21.3470 C   0  0  0  0  0  2  0  0  0  0  0  0
  -25.8750  -29.6690   20.6520 C   0  0  0  0  0  0  0  0  0  0  0  0
  -27.0750  -28.9270   20.5500 C   0  0  0  0  0  3  0  0  0  0  0  0
  -25.8840  -27.1780   19.3570 C   0  0  0  0  0  3  0  0  0  0  0  0
  -24.6870  -27.9150   19.4640 C   0  0  0  0  0  3  0  0  0  0  0  0
  -23.4490  -30.0190   20.2550 C   0  0  0  0  0  2  0  0  0  0  0  0
  -24.6090  -31.2240   22.1640 N   0  0  0  0  0  0  0  0  0  0  0  0
  -23.5680  -32.2300   23.9080 O   0  0  0  0  0  0  0  0  0  0  0  0
  -22.7160  -29.5890   22.6220 C   0  0  0  0  0  0  0  0  0  0  0  0
  -21.4050  -29.3370   22.4840 N   0  0  0  0  0  0  0  0  0  0  0  0
  -23.4260  -28.9980   23.4400 O   0  0  0  0  0  0  0  0  0  0  0  0
  -20.8880  -29.8660   21.7950 H   0  0  0  0  0  0  0  0  0  0  0  0
  -18.1280  -27.8650   22.8660 C   0  0  0  0  0  0  0  0  0  0  0  0
  -20.6360  -28.3550   23.2480 C   0  0  0  0  0  3  0  0  0  0  0  0
  -20.8920  -26.9230   22.7240 C   0  0  0  0  0  2  0  0  0  0  0  0
  -19.8720  -26.4740   21.6720 C   0  0  0  0  0  2  0  0  0  0  0  0
  -18.4530  -26.5180   22.2430 C   0  0  0  0  0  2  0  0  0  0  0  0
  -19.1540  -28.7340   23.3220 C   0  0  0  0  0  0  0  0  0  0  0  0
  -18.7970  -29.9910   23.8580 C   0  0  0  0  0  3  0  0  0  0  0  0
  -17.4480  -30.3820   23.9440 C   0  0  0  0  0  3  0  0  0  0  0  0
  -16.4370  -29.5110   23.5030 C   0  0  0  0  0  3  0  0  0  0  0  0
  -16.7760  -28.2540   22.9720 C   0  0  0  0  0  3  0  0  0  0  0  0
  -25.9380  -32.5840   23.8690 C   0  0  0  0  0  3  0  0  0  0  0  0
  -25.6680  -33.9860   24.2150 N   0  0  0  0  0  0  0  0  0  0  0  0
  -25.9730  -35.0330   23.4370 C   0  0  0  0  0  0  0  0  0  0  0  0
  -26.5820  -34.9200   22.3690 O   0  0  0  0  0  0  0  0  0  0  0  0
  -25.1190  -34.1500   25.0450 H   0  0  0  0  0  0  0  0  0  0  0  0
  -24.2380  -36.8400   23.1990 C   0  0  0  0  0  1  0  0  0  0  0  0
  -25.5320  -36.4280   23.9200 C   0  0  0  0  0  3  0  0  0  0  0  0
  -27.7180  -37.3100   24.6050 C   0  0  0  0  0  1  0  0  0  0  0  0
  -26.5620  -37.4720   23.7290 N   0  0  0  0  0  0  0  0  0  0  0  0
  -26.1700  -38.3960   23.8890 H   0  0  0  0  0  0  0  0  0  0  0  0
  -26.4910  -31.7970   25.1210 C   0  0  1  0  0  0  0  0  0  0  0  0
  -25.4350  -31.5620   26.2250 C   0  0  0  0  0  1  0  0  0  0  0  0
  -27.0440  -30.4150   24.6990 C   0  0  0  0  0  1  0  0  0  0  0  0
  -27.6740  -32.5700   25.7510 C   0  0  0  0  0  1  0  0  0  0  0  0
  -34.2300  -23.5110   19.2330 C   0  0  0  0  0  1  0  0  0  0  0  0
  -33.1160  -24.3680   19.8620 C   0  0  0  0  0  2  0  0  0  0  0  0
  1  4  1  0
  2  1  2  0
  2  5  1  0
  3  6  1  0
  4  6  2  0
  5  3  2  0
  6  7  1  0
  8 21  1  0
  9 14  1  0
 10 11  1  0
 10  9  1  0
 12 11  1  0
 12 25  1  0
 12 13  1  0
 14  8  1  0
 14 13  1  0
 15  8  2  0
 16 18  1  0
 16 20  1  0
 17 19  1  0
 18 21  1  0
 20  4  1  0
 20 17  1  0
 21 19  1  0
 22 23  2  0
 23 42  1  0
 24 23  1  0
 24 27  1  0
 25 26  1  0
 25 22  1  0
 26 24  2  0
 27 28  1  0
 28 29  2  0
 30 33  1  0
 30 29  1  0
 31 30  2  0
 32 31  1  0
 32 27  2  0
 33 34  1  0
 34 35  1  0
 35 36  2  0
 37 36  1  0
 37 41  1  0
 38 37  2  0
 39 34  2  0
 39 38  1  0
 40 39  1  0
 42 43  1  0
 43 46  1  0
 43 45  1  0
 44 42  2  0
 47 22  1  0
 47 48  1  0
 49 47  1  0
 50 51  1  0
 50  5  1  0
 50 98  1  0
 51 52  1  0
 53 51  1  0
 54 51  1  0
 55 54  1  0
 55 56  1  0
 56 58  1  0
 57 68  2  0
 58 63  1  0
 59 67  1  0
 59 69  1  0
 60 66  1  0
 60 62  1  0
 61 67  1  0
 62 61  1  0
 63 62  2  0
 64 65  1  0
 64 58  2  0
 65 60  2  0
 66 59  1  0
 67 57  1  0
 69 71  2  0
 70 69  1  0
 72 70  1  0
 73 82  2  0
 73 78  1  0
 74 70  1  0
 74 78  1  0
 75 74  1  0
 76 77  1  0
 76 75  1  0
 77 73  1  0
 78 79  2  0
 79 80  1  0
 81 80  2  0
 82 81  1  0
 83 57  1  0
 83 84  1  0
 83 93  1  0
 84 87  1  0
 85 89  1  0
 85 84  1  0
 86 85  2  0
 89 88  1  0
 91 92  1  0
 91 89  1  0
 91 90  1  0
 93 96  1  1
 93 94  1  0
 95 93  1  0
 97 98  1  0
M  ISO  4   8 100  21 100  55 101  56 101
M  END
>  <TORSDO>  (38) 
F 21

>  <SCORE>  (38) 
-13.244

>  <name>  (38) 
37

>  <ligand_id>  (38) 
37

>  <original_smiles>  (38) 
[H]c1c([H])c([H])c2c(c1[H])C([H])([H])C([H])([H])C([H])([H])C2([H])N([H])C(=O)C1([H])N(C(=O)C([H])(N([H])C(=O)C([H])(N([H])C([H])([H])[H])C([H])([H])[H])C(C([H])([H])[H])(C([H])([H])[H])C([H])([H])[H])C([H])([H])c2c([H])c(OC([H])([H])C([H])([H])[N+]([H])([H])C([H])(c3c([H])c([H])c(C4([H])C([H])([H])C([H])([H])N(C(=O)N5C([H])([H])C([H])([H])C([H])([H])C([H])(n6nc(-c7c([H])c([H])c(Oc8c([H])c([H])c(F)c([H])c8F)c([H])c7[H])c(C(=O)N([H])[H])c6N([H])[H])C5([H])[H])C([H])([H])C4([H])[H])c(C([H])([H])[H])c3[H])C([H])([H])C([H])([H])[H])c([H])c([H])c2C1([H])[H]

>  <smiles>  (38) 
[H]c1c([H])c([H])c2c(c1[H])C([H])([H])C([H])([H])C([H])([H])C2([H])N([H])C(=O)C1([H])N(C(=O)C([H])(N([H])C(=O)C([H])(N([H])C([H])([H])[H])C([H])([H])[H])C(C([H])([H])[H])(C([H])([H])[H])C([H])([H])[H])C([H])([H])c2c([H])c(OC([H])([H])C([H])([H])[N+]([H])([H])C([H])(c3c([H])c([H])c(C4([H])C([H])([H])C([H])([H])N(C(=O)N5C([H])([H])C([H])([H])C([H])([H])C([H])(n6nc(-c7c([H])c([H])c(Oc8c([H])c([H])c(F)c([H])c8F)c([H])c7[H])c(C(=O)N([H])[H])c6N([H])[H])C5([H])[H])C([H])([H])C4([H])[H])c(C([H])([H])[H])c3[H])C([H])([H])C([H])([H])[H])c([H])c([H])c2C1([H])[H]

$$$$
38:0:0
     RDKit          3D

 93102  0  0  1  0  0  0  0  0999 V2000
  -29.4480  -21.4530   19.7130 N   0  0  0  0  0  4  0  0  0  0  0  0
  -28.7220  -21.3560   19.0200 H   0  0  0  0  0  0  0  0  0  0  0  0
  -30.2750  -21.7520   19.2230 H   0  0  0  0  0  0  0  0  0  0  0  0
  -30.4220  -17.8400   19.1960 C   0  0  0  0  0  2  0  0  0  0  0  0
  -29.9210  -19.0900   19.0300 C   0  0  0  0  0  3  0  0  0  0  0  0
  -28.5660  -19.1010   18.3670 C   0  0  0  0  0  2  0  0  0  0  0  0
  -27.6580  -19.0340   19.6200 C   0  0  0  0  0  2  0  0  0  0  0  0
  -29.1980  -17.8930   21.4230 C   0  0  0  0  0  2  0  0  0  0  0  0
  -30.2900  -17.1300   20.5530 C   0  0  0  0  0  3  0  0  0  0  0  0
  -29.7630  -20.0530   20.2110 C   0  0  0  0  0  3  0  0  0  0  0  0
  -28.6080  -19.2550   20.8400 C   0  0  0  0  0  3  0  0  0  0  0  0
  -30.7360  -14.6030   20.0440 C   0  0  0  0  0  0  0  0  0  0  0  0
  -30.4310  -12.4030   18.9320 C   0  0  0  0  0  2  0  0  0  0  0  0
  -29.4270  -12.5740   17.7720 C   0  0  0  0  0  2  0  0  0  0  0  0
  -27.9760  -12.4250   18.2690 C   0  0  0  0  0  2  0  0  0  0  0  0
  -27.6930  -13.2590   19.5480 C   0  0  0  0  0  3  0  0  0  0  0  0
  -28.8070  -13.0680   20.6010 C   0  0  0  0  0  2  0  0  0  0  0  0
  -30.0880  -13.4000   19.9620 N   0  0  0  0  0  0  0  0  0  0  0  0
  -31.8800  -14.7560   19.6100 O   0  0  0  0  0  0  0  0  0  0  0  0
  -29.9760  -15.6630   20.4490 N   0  0  0  0  0  0  0  0  0  0  0  0
  -29.0410  -15.4030   20.7250 H   0  0  0  0  0  0  0  0  0  0  0  0
  -25.3500  -13.8650   20.4170 C   0  0  0  0  0  0  0  0  0  0  0  0
  -24.2980  -13.0920   20.8260 C   0  0  0  0  0  0  0  0  0  0  0  0
  -24.7410  -11.7380   20.7340 C   0  0  0  0  0  0  0  0  0  0  0  0
  -26.3690  -12.9790   20.0990 N   0  0  0  0  0  0  0  0  0  0  0  0
  -26.0130  -11.6940   20.3550 N   0  0  0  0  0  0  0  0  0  0  0  0
  -24.0120  -10.4780   20.9320 C   0  0  0  0  0  0  0  0  0  0  0  0
  -24.4390   -9.5170   21.8740 C   0  0  0  0  0  3  0  0  0  0  0  0
  -23.7100   -8.3220   22.0580 C   0  0  0  0  0  3  0  0  0  0  0  0
  -22.5410   -8.0790   21.2990 C   0  0  0  0  0  0  0  0  0  0  0  0
  -22.1340   -9.0270   20.3450 C   0  0  0  0  0  3  0  0  0  0  0  0
  -22.8630  -10.2140   20.1580 C   0  0  0  0  0  3  0  0  0  0  0  0
  -21.7840   -6.9370   21.3930 O   0  0  0  0  0  0  0  0  0  0  0  0
  -21.6640   -6.2450   22.5730 C   0  0  0  0  0  0  0  0  0  0  0  0
  -21.1390   -6.8440   23.7370 C   0  0  0  0  0  3  0  0  0  0  0  0
  -20.9700   -6.0780   24.9080 C   0  0  0  0  0  3  0  0  0  0  0  0
  -21.3160   -4.7140   24.9140 C   0  0  0  0  0  0  0  0  0  0  0  0
  -21.8360   -4.1140   23.7540 C   0  0  0  0  0  3  0  0  0  0  0  0
  -22.0070   -4.8770   22.5850 C   0  0  0  0  0  0  0  0  0  0  0  0
  -22.4870   -4.2890   21.4630 F   0  0  0  0  0  0  0  0  0  0  0  0
  -21.1470   -3.9770   26.0360 F   0  0  0  0  0  0  0  0  0  0  0  0
  -22.9220  -13.5750   21.1840 C   0  0  0  0  0  0  0  0  0  0  0  0
  -22.2340  -12.8640   22.0690 N   0  0  0  0  0  0  0  0  0  0  0  0
  -22.4690  -14.6170   20.7130 O   0  0  0  0  0  0  0  0  0  0  0  0
  -22.6150  -12.0230   22.4750 H   0  0  0  0  0  0  0  0  0  0  0  0
  -21.3100  -13.1650   22.3440 H   0  0  0  0  0  0  0  0  0  0  0  0
  -25.5240  -15.2380   20.2610 N   0  0  0  0  0  0  0  0  0  0  0  0
  -24.7720  -15.8990   20.4250 H   0  0  0  0  0  0  0  0  0  0  0  0
  -26.3460  -15.6670   19.8590 H   0  0  0  0  0  0  0  0  0  0  0  0
  -29.0610  -22.5810   20.6370 C   0  0  0  0  0  2  0  0  0  0  0  0
  -28.8640  -23.9810   19.9030 C   0  0  0  0  0  3  0  0  0  0  0  0
  -28.4140  -25.2180   20.7760 C   0  0  0  0  0  3  0  0  0  0  0  0
  -28.5180  -26.5580   20.1830 O   0  0  0  0  0  0  0  0  0  0  0  0
  -24.7010  -31.8340   23.2290 C   0  0  0  0  0  0  0  0  0  0  0  0
  -27.3700  -27.3460   20.1850 C   0  0  0  0  0  0  0  0  0  0  0  0
  -23.5080  -30.4190   21.5900 C   0  0  0  0  0  3  0  0  0  0  0  0
  -24.9760  -28.8840   20.1680 C   0  0  0  0  0  0  0  0  0  0  0  0
  -26.0330  -30.7910   21.3840 C   0  0  0  0  0  2  0  0  0  0  0  0
  -26.1350  -29.4090   20.7550 C   0  0  0  0  0  0  0  0  0  0  0  0
  -27.3390  -28.6520   20.7490 C   0  0  0  0  0  3  0  0  0  0  0  0
  -26.1940  -26.8560   19.5810 C   0  0  0  0  0  3  0  0  0  0  0  0
  -25.0060  -27.6130   19.5700 C   0  0  0  0  0  3  0  0  0  0  0  0
  -23.7240  -29.7380   20.2120 C   0  0  0  0  0  2  0  0  0  0  0  0
  -24.7670  -31.0290   22.1280 N   0  0  0  0  0  0  0  0  0  0  0  0
  -23.6170  -32.0980   23.7700 O   0  0  0  0  0  0  0  0  0  0  0  0
  -22.8630  -29.3950   22.5550 C   0  0  0  0  0  0  0  0  0  0  0  0
  -21.5400  -29.1990   22.4290 N   0  0  0  0  0  0  0  0  0  0  0  0
  -23.5520  -28.7790   23.3720 O   0  0  0  0  0  0  0  0  0  0  0  0
  -21.0430  -29.7510   21.7440 H   0  0  0  0  0  0  0  0  0  0  0  0
  -18.1790  -27.9680   22.9290 C   0  0  0  0  0  0  0  0  0  0  0  0
  -20.7340  -28.2540   23.2030 C   0  0  0  0  0  3  0  0  0  0  0  0
  -20.8520  -26.8230   22.6300 C   0  0  0  0  0  2  0  0  0  0  0  0
  -19.7540  -26.4860   21.6150 C   0  0  0  0  0  2  0  0  0  0  0  0
  -18.3710  -26.6190   22.2590 C   0  0  0  0  0  2  0  0  0  0  0  0
  -19.2890  -28.7420   23.3600 C   0  0  0  0  0  0  0  0  0  0  0  0
  -19.0560  -30.0050   23.9480 C   0  0  0  0  0  3  0  0  0  0  0  0
  -17.7460  -30.4930   24.1120 C   0  0  0  0  0  3  0  0  0  0  0  0
  -16.6500  -29.7150   23.7000 C   0  0  0  0  0  3  0  0  0  0  0  0
  -16.8680  -28.4550   23.1130 C   0  0  0  0  0  3  0  0  0  0  0  0
  -25.9800  -32.4820   23.8450 C   0  0  0  0  0  3  0  0  0  0  0  0
  -26.5110  -31.7140   25.1190 C   0  0  1  0  0  0  0  0  0  0  0  0
  -25.4250  -31.4570   26.1890 C   0  0  0  0  0  1  0  0  0  0  0  0
  -27.1150  -30.3480   24.7170 C   0  0  0  0  0  1  0  0  0  0  0  0
  -27.6510  -32.5210   25.7830 C   0  0  0  0  0  1  0  0  0  0  0  0
  -25.6560  -33.8760   24.1770 N   0  0  0  0  0  0  0  0  0  0  0  0
  -25.9770  -34.9320   23.4180 C   0  0  0  0  0  0  0  0  0  0  0  0
  -26.6500  -34.8360   22.3880 O   0  0  0  0  0  0  0  0  0  0  0  0
  -25.0580  -34.0230   24.9780 H   0  0  0  0  0  0  0  0  0  0  0  0
  -24.2390  -36.7140   23.0530 C   0  0  0  0  0  1  0  0  0  0  0  0
  -25.4750  -36.3150   23.8740 C   0  0  0  0  0  3  0  0  0  0  0  0
  -27.5910  -37.2210   24.7300 C   0  0  0  0  0  1  0  0  0  0  0  0
  -26.4980  -37.3770   23.7740 N   0  0  0  0  0  0  0  0  0  0  0  0
  -26.0810  -38.2920   23.9200 H   0  0  0  0  0  0  0  0  0  0  0  0
  1 50  1  0
  2  1  1  0
  3  1  1  0
  4  9  1  0
  5  6  1  0
  5  4  1  0
  5 10  1  0
  6  7  1  0
  9 20  1  0
  9  8  1  0
 10  1  1  0
 10 11  1  0
 11  7  1  0
 11  8  1  0
 12 20  1  0
 13 18  1  0
 14 15  1  0
 14 13  1  0
 16 15  1  0
 16 25  1  0
 16 17  1  0
 18 12  1  0
 18 17  1  0
 19 12  2  0
 20 21  1  0
 22 23  2  0
 23 42  1  0
 24 23  1  0
 24 27  1  0
 25 26  1  0
 25 22  1  0
 26 24  2  0
 27 28  1  0
 28 29  2  0
 30 33  1  0
 30 29  1  0
 31 30  2  0
 32 31  1  0
 32 27  2  0
 33 34  1  0
 34 39  2  0
 34 35  1  0
 35 36  2  0
 36 37  1  0
 37 41  1  0
 38 37  2  0
 39 38  1  0
 40 39  1  0
 42 43  1  0
 43 46  1  0
 43 45  1  0
 44 42  2  0
 47 22  1  0
 47 48  1  0
 49 47  1  0
 51 50  1  0
 51 52  2  0
 53 55  1  0
 53 52  1  0
 54 65  2  0
 55 60  1  0
 56 64  1  0
 56 66  1  0
 57 63  1  0
 57 59  1  0
 58 64  1  0
 59 58  1  0
 60 59  2  0
 61 55  2  0
 62 61  1  0
 62 57  2  0
 63 56  1  0
 64 54  1  0
 66 68  2  0
 67 66  1  0
 69 67  1  0
 70 79  2  0
 70 75  1  0
 71 67  1  0
 71 75  1  0
 72 71  1  0
 73 74  1  0
 73 72  1  0
 74 70  1  0
 75 76  2  0
 76 77  1  0
 78 77  2  0
 79 78  1  0
 80 54  1  0
 80 85  1  0
 80 81  1  0
 81 84  1  1
 81 82  1  0
 83 81  1  0
 85 88  1  0
 86 90  1  0
 86 85  1  0
 87 86  2  0
 90 89  1  0
 92 90  1  0
 92 93  1  0
 92 91  1  0
M  ISO  4  12 100  20 100  52 101  53 101
M  END
>  <TORSDO>  (39) 
F 20

>  <SCORE>  (39) 
-13.116

>  <name>  (39) 
38

>  <ligand_id>  (39) 
38

>  <original_smiles>  (39) 
[H]C1=C2C([H])([H])C([H])([H])C([H])(C([H])([H])C1([H])N([H])C(=O)N1C([H])([H])C([H])([H])C([H])([H])C([H])(n3nc(-c4c([H])c([H])c(Oc5c([H])c([H])c(F)c([H])c5F)c([H])c4[H])c(C(=O)N([H])[H])c3N([H])[H])C1([H])[H])C2([H])[N+]([H])([H])C([H])([H])C([H])([H])C([H])([H])Oc1c([H])c([H])c2c(c1[H])C([H])([H])N(C(=O)C([H])(N([H])C(=O)C([H])(N([H])C([H])([H])[H])C([H])([H])[H])C(C([H])([H])[H])(C([H])([H])[H])C([H])([H])[H])C([H])(C(=O)N([H])C1([H])c3c([H])c([H])c([H])c([H])c3C([H])([H])C([H])([H])C1([H])[H])C2([H])[H]

>  <smiles>  (39) 
[H]C1=C2C([H])([H])C([H])([H])C([H])(C([H])([H])C1([H])N([H])C(=O)N1C([H])([H])C([H])([H])C([H])([H])C([H])(n3nc(-c4c([H])c([H])c(Oc5c([H])c([H])c(F)c([H])c5F)c([H])c4[H])c(C(=O)N([H])[H])c3N([H])[H])C1([H])[H])C2([H])[N+]([H])([H])C([H])([H])C([H])([H])C([H])([H])Oc1c([H])c([H])c2c(c1[H])C([H])([H])N(C(=O)C([H])(N([H])C(=O)C([H])(N([H])C([H])([H])[H])C([H])([H])[H])C(C([H])([H])[H])(C([H])([H])[H])C([H])([H])[H])C([H])(C(=O)N([H])C1([H])c3c([H])c([H])c([H])c([H])c3C([H])([H])C([H])([H])C1([H])[H])C2([H])[H]

$$$$
39:0:0
     RDKit          3D

 97106  0  0  1  0  0  0  0  0999 V2000
  -27.6830  -21.0730   17.8740 C   0  0  0  0  0  3  0  0  0  0  0  0
  -28.0930  -19.7340   17.9700 C   0  0  0  0  0  3  0  0  0  0  0  0
  -27.8730  -19.8290   20.3950 C   0  0  0  0  0  3  0  0  0  0  0  0
  -27.3560  -21.8020   19.0360 C   0  0  0  0  0  0  0  0  0  0  0  0
  -27.5110  -21.1920   20.3090 C   0  0  0  0  0  0  0  0  0  0  0  0
  -28.1450  -19.0970   19.2230 C   0  0  0  0  0  0  0  0  0  0  0  0
  -26.7750  -23.1600   18.8840 C   0  0  0  0  0  0  0  0  0  0  0  0
  -27.2930  -21.9770   21.5930 C   0  0  0  0  0  2  0  0  0  0  0  0
  -26.4910  -23.2790   21.3990 C   0  0  0  0  0  2  0  0  0  0  0  0
  -26.7950  -24.0770   20.1090 C   0  0  0  0  0  3  0  0  0  0  0  0
  -26.2920  -23.5760   17.8280 O   0  0  0  0  0  0  0  0  0  0  0  0
  -28.3700  -17.6010   19.2610 C   0  0  0  0  0  2  0  0  0  0  0  0
  -29.2620  -17.0280   20.3750 C   0  0  0  0  0  2  0  0  0  0  0  0
  -30.2380  -15.9410   19.8610 C   0  0  0  0  0  2  0  0  0  0  0  0
  -31.5650  -16.4610   19.2810 C   0  0  0  0  0  2  0  0  0  0  0  0
  -32.8030  -15.6820   19.7880 C   0  0  0  0  0  2  0  0  0  0  0  0
  -33.5350  -13.3380   19.9120 C   0  0  0  0  0  0  0  0  0  0  0  0
  -33.2440  -11.1610   21.0370 C   0  0  0  0  0  2  0  0  0  0  0  0
  -32.5400  -10.1870   20.0700 C   0  0  0  0  0  2  0  0  0  0  0  0
  -31.0080  -10.3530   20.1380 C   0  0  0  0  0  2  0  0  0  0  0  0
  -30.5460  -11.8330   20.0680 C   0  0  0  0  0  3  0  0  0  0  0  0
  -31.3760  -12.6950   21.0470 C   0  0  0  0  0  2  0  0  0  0  0  0
  -32.7980  -12.5220   20.7080 N   0  0  0  0  0  0  0  0  0  0  0  0
  -34.7030  -13.1010   19.5950 O   0  0  0  0  0  0  0  0  0  0  0  0
  -32.8550  -14.3100   19.2850 N   0  0  0  0  0  0  0  0  0  0  0  0
  -33.1320  -14.3370   18.3150 H   0  0  0  0  0  0  0  0  0  0  0  0
  -28.2870  -13.0670   20.1620 C   0  0  0  0  0  0  0  0  0  0  0  0
  -27.0250  -12.6420   20.4790 C   0  0  0  0  0  0  0  0  0  0  0  0
  -27.1400  -11.2490   20.7580 C   0  0  0  0  0  0  0  0  0  0  0  0
  -29.1100  -11.9600   20.3100 N   0  0  0  0  0  0  0  0  0  0  0  0
  -28.4100  -10.8680   20.7090 N   0  0  0  0  0  0  0  0  0  0  0  0
  -26.1050  -10.2380   21.0060 C   0  0  0  0  0  0  0  0  0  0  0  0
  -26.0320   -9.5360   22.2290 C   0  0  0  0  0  3  0  0  0  0  0  0
  -25.0170   -8.5790   22.4460 C   0  0  0  0  0  3  0  0  0  0  0  0
  -24.0550   -8.3230   21.4400 C   0  0  0  0  0  0  0  0  0  0  0  0
  -24.1490   -9.0080   20.2150 C   0  0  0  0  0  3  0  0  0  0  0  0
  -25.1650   -9.9530   20.0000 C   0  0  0  0  0  3  0  0  0  0  0  0
  -23.0440   -7.4000   21.5590 O   0  0  0  0  0  0  0  0  0  0  0  0
  -22.3920   -7.1940   22.7490 C   0  0  0  0  0  0  0  0  0  0  0  0
  -21.7430   -8.2430   23.4360 C   0  0  0  0  0  3  0  0  0  0  0  0
  -21.0280   -7.9700   24.6190 C   0  0  0  0  0  3  0  0  0  0  0  0
  -20.9530   -6.6550   25.1110 C   0  0  0  0  0  0  0  0  0  0  0  0
  -21.5970   -5.6090   24.4280 C   0  0  0  0  0  3  0  0  0  0  0  0
  -22.3130   -5.8790   23.2480 C   0  0  0  0  0  0  0  0  0  0  0  0
  -22.9140   -4.8630   22.5820 F   0  0  0  0  0  0  0  0  0  0  0  0
  -20.2540   -6.3930   26.2400 F   0  0  0  0  0  0  0  0  0  0  0  0
  -25.7720  -13.4660   20.4160 C   0  0  0  0  0  0  0  0  0  0  0  0
  -24.7960  -13.1700   21.2680 N   0  0  0  0  0  0  0  0  0  0  0  0
  -25.6710  -14.4120   19.6370 O   0  0  0  0  0  0  0  0  0  0  0  0
  -24.8900  -12.4220   21.9360 H   0  0  0  0  0  0  0  0  0  0  0  0
  -23.9360  -13.7000   21.2430 H   0  0  0  0  0  0  0  0  0  0  0  0
  -28.7680  -14.2900   19.7330 N   0  0  0  0  0  0  0  0  0  0  0  0
  -28.1240  -15.0570   19.5690 H   0  0  0  0  0  0  0  0  0  0  0  0
  -29.7050  -14.4820   19.4000 H   0  0  0  0  0  0  0  0  0  0  0  0
  -28.0900  -24.9300   20.1530 C   0  0  0  0  0  2  0  0  0  0  0  0
  -28.4510  -25.6870   18.8320 C   0  0  0  0  0  2  0  0  0  0  0  0
  -28.3860  -27.1180   18.8880 O   0  0  0  0  0  0  0  0  0  0  0  0
  -24.3680  -31.3760   22.8310 C   0  0  0  0  0  0  0  0  0  0  0  0
  -27.1520  -27.7110   18.9880 C   0  0  0  0  0  0  0  0  0  0  0  0
  -23.1620  -30.0640   21.1120 C   0  0  0  0  0  3  0  0  0  0  0  0
  -24.6270  -28.9100   19.3720 C   0  0  0  0  0  0  0  0  0  0  0  0
  -25.6020  -30.7450   20.7630 C   0  0  0  0  0  2  0  0  0  0  0  0
  -25.7690  -29.4890   19.9360 C   0  0  0  0  0  0  0  0  0  0  0  0
  -27.0350  -28.8980   19.7390 C   0  0  0  0  0  3  0  0  0  0  0  0
  -26.0010  -27.1740   18.3730 C   0  0  0  0  0  3  0  0  0  0  0  0
  -24.7370  -27.7540   18.5820 C   0  0  0  0  0  3  0  0  0  0  0  0
  -23.3060  -29.5940   19.6390 C   0  0  0  0  0  2  0  0  0  0  0  0
  -24.3990  -30.7380   21.6280 N   0  0  0  0  0  0  0  0  0  0  0  0
  -23.3230  -31.4450   23.4910 O   0  0  0  0  0  0  0  0  0  0  0  0
  -22.7210  -28.8600   21.9740 C   0  0  0  0  0  0  0  0  0  0  0  0
  -21.4220  -28.5280   21.9150 N   0  0  0  0  0  0  0  0  0  0  0  0
  -23.5410  -28.2310   22.6480 O   0  0  0  0  0  0  0  0  0  0  0  0
  -20.8080  -29.1050   21.3560 H   0  0  0  0  0  0  0  0  0  0  0  0
  -18.2750  -26.8260   22.4390 C   0  0  0  0  0  0  0  0  0  0  0  0
  -20.7900  -27.4070   22.6080 C   0  0  0  0  0  3  0  0  0  0  0  0
  -21.0410  -26.0720   21.8680 C   0  0  0  0  0  2  0  0  0  0  0  0
  -19.9290  -25.7090   20.8800 C   0  0  0  0  0  2  0  0  0  0  0  0
  -18.5830  -25.5960   21.6040 C   0  0  0  0  0  2  0  0  0  0  0  0
  -19.3100  -27.6870   22.8940 C   0  0  0  0  0  0  0  0  0  0  0  0
  -18.9650  -28.8370   23.6360 C   0  0  0  0  0  3  0  0  0  0  0  0
  -17.6200  -29.1310   23.9260 C   0  0  0  0  0  3  0  0  0  0  0  0
  -16.6010  -28.2690   23.4840 C   0  0  0  0  0  3  0  0  0  0  0  0
  -16.9310  -27.1170   22.7490 C   0  0  0  0  0  3  0  0  0  0  0  0
  -25.6360  -32.0670   23.4230 C   0  0  0  0  0  3  0  0  0  0  0  0
  -25.2380  -33.4100   23.8650 N   0  0  0  0  0  0  0  0  0  0  0  0
  -25.4790  -34.5380   23.1840 C   0  0  0  0  0  0  0  0  0  0  0  0
  -26.1290  -34.5610   22.1350 O   0  0  0  0  0  0  0  0  0  0  0  0
  -24.6550  -33.4610   24.6870 H   0  0  0  0  0  0  0  0  0  0  0  0
  -23.6370  -36.2350   22.9800 C   0  0  0  0  0  1  0  0  0  0  0  0
  -24.9070  -35.8480   23.7540 C   0  0  0  0  0  3  0  0  0  0  0  0
  -26.9860  -36.7980   24.6530 C   0  0  0  0  0  1  0  0  0  0  0  0
  -25.8690  -36.9700   23.7260 N   0  0  0  0  0  0  0  0  0  0  0  0
  -25.4080  -37.8490   23.9440 H   0  0  0  0  0  0  0  0  0  0  0  0
  -26.2910  -31.2570   24.6090 C   0  0  1  0  0  0  0  0  0  0  0  0
  -25.2920  -30.8710   25.7240 C   0  0  0  0  0  1  0  0  0  0  0  0
  -26.9410  -29.9520   24.0910 C   0  0  0  0  0  1  0  0  0  0  0  0
  -27.4300  -32.0890   25.2470 C   0  0  0  0  0  1  0  0  0  0  0  0
  1  2  2  0
  1  4  1  0
  2  6  1  0
  4  5  2  0
  5  3  1  0
  5  8  1  0
  6 12  1  0
  6  3  2  0
  7  4  1  0
  7 10  1  0
  9  8  1  0
 10 55  1  0
 10  9  1  0
 11  7  2  0
 12 13  1  0
 14 13  1  0
 15 16  1  0
 15 14  1  0
 17 23  1  0
 19 20  1  0
 19 18  1  0
 21 20  1  0
 21 30  1  0
 21 22  1  0
 23 18  1  0
 23 22  1  0
 24 17  2  0
 25 16  1  0
 25 17  1  0
 26 25  1  0
 27 30  1  0
 27 28  2  0
 28 29  1  0
 29 32  1  0
 30 31  1  0
 31 29  2  0
 32 33  1  0
 33 34  2  0
 35 38  1  0
 35 34  1  0
 36 35  2  0
 37 36  1  0
 37 32  2  0
 38 39  1  0
 39 44  2  0
 39 40  1  0
 40 41  2  0
 41 42  1  0
 42 46  1  0
 43 42  2  0
 44 43  1  0
 45 44  1  0
 47 28  1  0
 47 48  1  0
 48 50  1  0
 49 47  2  0
 51 48  1  0
 52 27  1  0
 53 52  1  0
 54 52  1  0
 56 57  1  0
 56 55  1  0
 57 59  1  0
 58 69  2  0
 59 64  1  0
 60 68  1  0
 60 70  1  0
 61 67  1  0
 61 63  1  0
 62 68  1  0
 63 62  1  0
 64 63  2  0
 65 66  1  0
 65 59  2  0
 66 61  2  0
 67 60  1  0
 68 58  1  0
 70 72  2  0
 71 70  1  0
 73 71  1  0
 74 83  2  0
 74 79  1  0
 75 71  1  0
 75 79  1  0
 76 75  1  0
 77 78  1  0
 77 76  1  0
 78 74  1  0
 79 80  2  0
 80 81  1  0
 82 81  2  0
 83 82  1  0
 84 58  1  0
 84 85  1  0
 84 94  1  0
 85 88  1  0
 86 90  1  0
 86 85  1  0
 87 86  2  0
 90 89  1  0
 92 90  1  0
 92 93  1  0
 92 91  1  0
 94 97  1  1
 94 95  1  0
 96 94  1  0
M  ISO  4  17 100  25 100  56 101  57 101
M  END
>  <TORSDO>  (40) 
F 23

>  <SCORE>  (40) 
-7.921

>  <name>  (40) 
39

>  <ligand_id>  (40) 
39

>  <original_smiles>  (40) 
[H]c1c([H])c([H])c2c(c1[H])C([H])([H])C([H])([H])C([H])([H])C2([H])N([H])C(=O)C1([H])N(C(=O)C([H])(N([H])C(=O)C([H])(N([H])C([H])([H])[H])C([H])([H])[H])C(C([H])([H])[H])(C([H])([H])[H])C([H])([H])[H])C([H])([H])c2c([H])c(OC([H])([H])C([H])([H])C3([H])C(=O)c4c([H])c([H])c(C([H])([H])C([H])([H])C([H])([H])C([H])([H])C([H])([H])N([H])C(=O)N5C([H])([H])C([H])([H])C([H])([H])C([H])(n6nc(-c7c([H])c([H])c(Oc8c([H])c([H])c(F)c([H])c8F)c([H])c7[H])c(C(=O)N([H])[H])c6N([H])[H])C5([H])[H])c([H])c4C([H])([H])C3([H])[H])c([H])c([H])c2C1([H])[H]

>  <smiles>  (40) 
[H]c1c([H])c([H])c2c(c1[H])C([H])([H])C([H])([H])C([H])([H])C2([H])N([H])C(=O)C1([H])N(C(=O)C([H])(N([H])C(=O)C([H])(N([H])C([H])([H])[H])C([H])([H])[H])C(C([H])([H])[H])(C([H])([H])[H])C([H])([H])[H])C([H])([H])c2c([H])c(OC([H])([H])C([H])([H])C3([H])C(=O)c4c([H])c([H])c(C([H])([H])C([H])([H])C([H])([H])C([H])([H])C([H])([H])N([H])C(=O)N5C([H])([H])C([H])([H])C([H])([H])C([H])(n6nc(-c7c([H])c([H])c(Oc8c([H])c([H])c(F)c([H])c8F)c([H])c7[H])c(C(=O)N([H])[H])c6N([H])[H])C5([H])[H])c([H])c4C([H])([H])C3([H])[H])c([H])c([H])c2C1([H])[H]

$$$$
40:0:0
     RDKit          3D

 99 99  0  0  1  0  0  0  0  0999 V2000
  -19.3470  -27.3340   21.1990 C   0  0  0  0  0  1  0  0  0  0  0  0
  -19.5750  -29.0960   21.1000 C   0  0  0  0  0  2  0  0  0  0  0  0
  -21.4700  -29.4360   23.5780 C   0  0  0  0  0  1  0  0  0  0  0  0
  -21.5590  -27.5130   24.4370 C   0  0  0  0  0  1  0  0  0  0  0  0
  -20.7900  -25.8340   23.4550 C   0  0  0  0  0  1  0  0  0  0  0  0
  -20.9360  -29.7350   21.7600 N   0  0  2  0  0  4  0  0  0  0  0  0
  -21.3520  -28.8270   21.8650 H   0  0  0  0  0  0  0  0  0  0  0  0
  -22.2070  -27.0220   26.9200 C   0  0  0  0  0  1  0  0  0  0  0  0
  -21.2140  -27.6870   25.9460 C   0  0  0  0  0  2  0  0  0  0  0  0
  -19.6070  -23.7080   24.7070 C   0  0  0  0  0  1  0  0  0  0  0  0
  -20.0270  -25.1970   24.6950 C   0  0  0  0  0  2  0  0  0  0  0  0
  -22.2510  -23.8720   23.1310 C   0  0  0  0  0 15  0  0  0  0  0  0
  -24.2220  -21.4260   20.9920 C   0  0  0  0  0  2  0  0  0  0  0  0
  -25.5000  -20.2320   20.5880 C   0  0  0  0  0  2  0  0  0  0  0  0
  -25.1380  -20.5550   22.6730 C   0  0  0  0  0 15  0  0  0  0  0  0
  -23.9810  -22.3370   22.4140 C   0  0  0  0  0  1  0  0  0  0  0  0
  -26.5090  -19.3140   21.6120 C   0  0  0  0  0  1  0  0  0  0  0  0
  -28.8790  -16.2800   20.8730 C   0  0  0  0  0  0  0  0  0  0  0  0
  -30.0690  -13.7980   19.8040 C   0  0  0  0  0  2  0  0  0  0  0  0
  -29.5090  -12.9680   18.5600 C   0  0  0  0  0  2  0  0  0  0  0  0
  -28.1580  -12.3200   18.8750 C   0  0  0  0  0  2  0  0  0  0  0  0
  -27.4430  -13.2730   19.8370 C   0  0  0  0  0  3  0  0  0  0  0  0
  -28.2200  -13.6610   21.0940 C   0  0  0  0  0  2  0  0  0  0  0  0
  -29.0290  -14.7530   20.6030 N   0  0  0  0  0  0  0  0  0  0  0  0
  -30.1370  -16.4600   20.6250 O   0  0  0  0  0  0  0  0  0  0  0  0
  -27.5400  -17.4480   21.2630 N   0  0  0  0  0  2  0  0  0  0  0  0
  -26.7810  -16.7780   21.3430 H   0  0  0  0  0  0  0  0  0  0  0  0
  -25.1510  -13.8060   20.5550 C   0  0  0  0  0  0  0  0  0  0  0  0
  -24.1080  -13.0240   20.9320 C   0  0  0  0  0  0  0  0  0  0  0  0
  -24.5810  -11.6750   20.8790 C   0  0  0  0  0  0  0  0  0  0  0  0
  -26.1530  -12.9120   20.2610 N   0  0  0  0  0  0  0  0  0  0  0  0
  -25.8570  -11.6300   20.5390 N   0  0  0  0  0  0  0  0  0  0  0  0
  -23.8710  -10.4160   21.0490 C   0  0  0  0  0  0  0  0  0  0  0  0
  -24.3430   -9.4140   21.9230 C   0  0  0  0  0  3  0  0  0  0  0  0
  -23.6190   -8.2130   22.0760 C   0  0  0  0  0  3  0  0  0  0  0  0
  -22.4180   -8.0160   21.3540 C   0  0  0  0  0  0  0  0  0  0  0  0
  -21.9740   -9.0080   20.4650 C   0  0  0  0  0  3  0  0  0  0  0  0
  -22.6960  -10.1990   20.3080 C   0  0  0  0  0  3  0  0  0  0  0  0
  -21.6580   -6.8760   21.4240 O   0  0  0  0  0  0  0  0  0  0  0  0
  -21.6810   -6.0670   22.5300 C   0  0  0  0  0  0  0  0  0  0  0  0
  -21.3980   -6.5610   23.8220 C   0  0  0  0  0  3  0  0  0  0  0  0
  -21.3640   -5.6770   24.9190 C   0  0  0  0  0  3  0  0  0  0  0  0
  -21.6040   -4.3030   24.7250 C   0  0  0  0  0  0  0  0  0  0  0  0
  -21.8820   -3.8110   23.4380 C   0  0  0  0  0  3  0  0  0  0  0  0
  -21.9180   -4.6910   22.3430 C   0  0  0  0  0  0  0  0  0  0  0  0
  -22.1660   -4.2100   21.1000 F   0  0  0  0  0  0  0  0  0  0  0  0
  -21.5630   -3.4530   25.7770 F   0  0  0  0  0  0  0  0  0  0  0  0
  -22.7240  -13.5090   21.2060 C   0  0  0  0  0  0  0  0  0  0  0  0
  -21.9970  -12.8120   22.0660 N   0  0  0  0  0  0  0  0  0  0  0  0
  -22.3040  -14.5460   20.6920 O   0  0  0  0  0  0  0  0  0  0  0  0
  -22.3610  -11.9760   22.5000 H   0  0  0  0  0  0  0  0  0  0  0  0
  -21.0620  -13.1180   22.2970 H   0  0  0  0  0  0  0  0  0  0  0  0
  -25.3300  -15.1830   20.4090 N   0  0  0  0  0  0  0  0  0  0  0  0
  -24.4850  -15.7450   20.4300 H   0  0  0  0  0  0  0  0  0  0  0  0
  -25.9730  -15.5030   19.6950 H   0  0  0  0  0  0  0  0  0  0  0  0
  -21.7470  -29.4930   20.2810 C   0  0  0  0  0  2  0  0  0  0  0  0
  -22.8880  -28.1360   19.6180 C   0  0  0  0  0  2  0  0  0  0  0  0
  -24.2030  -26.9220   20.1460 C   0  0  0  0  0  2  0  0  0  0  0  0
  -25.8030  -26.8050   20.6030 O   0  0  0  0  0  0  0  0  0  0  0  0
  -24.7390  -31.9020   23.2510 C   0  0  0  0  0  0  0  0  0  0  0  0
  -26.9000  -27.4010   20.0560 C   0  0  0  0  0  3  0  0  0  0  0  0
  -23.8200  -30.4270   21.5400 C   0  0  0  0  0  3  0  0  0  0  0  0
  -25.3490  -29.5160   19.7390 C   0  0  0  0  0  3  0  0  0  0  0  0
  -26.2720  -30.8250   21.6010 C   0  0  0  0  0  2  0  0  0  0  0  0
  -26.3150  -29.6000   20.7120 C   0  0  0  0  0  3  0  0  0  0  0  0
  -27.2320  -28.5500   20.8110 C   0  0  0  0  0  2  0  0  0  0  0  0
  -26.4220  -27.5520   18.7850 C   0  0  0  0  0  2  0  0  0  0  0  0
  -25.5120  -28.6110   18.6560 C   0  0  0  0  0  2  0  0  0  0  0  0
  -24.2360  -30.4620   19.9890 C   0  0  0  0  0  2  0  0  0  0  0  0
  -24.9320  -31.1110   22.1740 N   0  0  0  0  0  0  0  0  0  0  0  0
  -23.6160  -32.1470   23.7210 O   0  0  0  0  0  0  0  0  0  0  0  0
  -23.7190  -29.0010   22.3040 C   0  0  0  0  0  0  0  0  0  0  0  0
  -22.8370  -27.9390   22.2410 N   0  0  0  0  0  0  0  0  0  0  0  0
  -24.3130  -28.8440   23.3460 O   0  0  0  0  0  0  0  0  0  0  0  0
  -23.3070  -27.2160   22.7740 H   0  0  0  0  0  0  0  0  0  0  0  0
  -18.1890  -27.2910   23.3150 C   0  0  0  0  0  0  0  0  0  0  0  0
  -21.3780  -27.4790   22.0990 C   0  0  0  0  0  2  0  0  0  0  0  0
  -21.1740  -25.8720   21.1920 C   0  0  0  0  0  2  0  0  0  0  0  0
  -19.5530  -25.0360   21.5350 C   0  0  0  0  0  3  0  0  0  0  0  0
  -18.2240  -25.7360   22.6110 C   0  0  0  0  0  3  0  0  0  0  0  0
  -19.4650  -28.1020   23.3630 C   0  0  0  0  0  3  0  0  0  0  0  0
  -18.9580  -29.4990   23.8070 C   0  0  0  0  0  3  0  0  0  0  0  0
  -17.6900  -30.0790   24.0060 C   0  0  0  0  0  3  0  0  0  0  0  0
  -16.6080  -29.2990   23.6820 C   0  0  0  0  0  3  0  0  0  0  0  0
  -16.8820  -27.9490   23.3480 C   0  0  0  0  0  3  0  0  0  0  0  0
  -25.9820  -32.5190   23.9170 C   0  0  0  0  0  3  0  0  0  0  0  0
  -25.6290  -33.8910   24.2830 N   0  0  0  0  0  0  0  0  0  0  0  0
  -25.9070  -34.9610   23.5280 C   0  0  0  0  0  0  0  0  0  0  0  0
  -26.5440  -34.8920   22.4720 O   0  0  0  0  0  0  0  0  0  0  0  0
  -25.0600  -34.0160   25.1070 H   0  0  0  0  0  0  0  0  0  0  0  0
  -24.1500  -36.7380   23.2560 C   0  0  0  0  0  1  0  0  0  0  0  0
  -25.4090  -36.3250   24.0340 C   0  0  0  0  0  3  0  0  0  0  0  0
  -27.5580  -37.1880   24.8460 C   0  0  0  0  0  1  0  0  0  0  0  0
  -26.4310  -37.3900   23.9390 N   0  0  0  0  0  0  0  0  0  0  0  0
  -26.0220  -38.2990   24.1370 H   0  0  0  0  0  0  0  0  0  0  0  0
  -26.4780  -31.6860   25.1570 C   0  0  1  0  0  0  0  0  0  0  0  0
  -25.3640  -31.3930   26.1870 C   0  0  0  0  0  1  0  0  0  0  0  0
  -27.1030  -30.3250   24.7630 C   0  0  0  0  0  1  0  0  0  0  0  0
  -27.6120  -32.4690   25.8480 C   0  0  0  0  0  1  0  0  0  0  0  0
  2  1  1  0
  2  6  1  0
  4  9  1  0
  5 11  1  0
  6  7  1  6
  6  3  1  0
  9  8  1  0
 11 10  1  0
 13 16  1  0
 14 13  1  0
 14 17  1  0
 18 26  1  0
 19 24  1  0
 20 21  1  0
 20 19  1  0
 22 21  1  0
 22 31  1  0
 22 23  1  0
 24 18  1  0
 24 23  1  0
 25 18  2  0
 26 27  1  0
 28 29  2  0
 29 48  1  0
 30 29  1  0
 30 33  1  0
 31 32  1  0
 31 28  1  0
 32 30  2  0
 33 34  1  0
 34 35  2  0
 36 39  1  0
 36 35  1  0
 37 36  2  0
 38 37  1  0
 38 33  2  0
 39 40  1  0
 40 41  1  0
 41 42  2  0
 43 42  1  0
 43 47  1  0
 44 43  2  0
 45 40  2  0
 45 44  1  0
 46 45  1  0
 48 49  1  0
 49 52  1  0
 49 51  1  0
 50 48  2  0
 53 54  1  0
 53 28  1  0
 55 53  1  0
 56  6  1  0
 57 58  1  0
 57 56  1  0
 58 59  1  0
 60 71  2  0
 61 59  1  0
 61 66  1  0
 62 70  1  0
 62 72  1  0
 63 68  1  0
 63 69  1  0
 63 65  1  0
 64 70  1  0
 65 66  1  0
 65 64  1  0
 67 61  1  0
 68 67  1  0
 69 62  1  0
 70 60  1  0
 72 74  2  0
 73 72  1  0
 73 75  1  0
 76 85  2  0
 76 81  1  0
 77 73  1  0
 78 79  1  0
 78 77  1  0
 79 80  2  0
 80 76  1  0
 81 82  2  0
 82 83  1  0
 84 83  2  0
 85 84  1  0
 86 60  1  0
 86 87  1  0
 86 96  1  0
 87 90  1  0
 88 92  1  0
 88 87  1  0
 89 88  2  0
 92 91  1  0
 94 92  1  0
 94 95  1  0
 94 93  1  0
 96 99  1  1
 96 97  1  0
 98 96  1  0
M  ISO  4  18 100  26 100  58 101  59 101
M  END
>  <TORSDO>  (41) 
F 23

>  <SCORE>  (41) 
54.849

>  <name>  (41) 
40

>  <ligand_id>  (41) 
40

>  <original_smiles>  (41) 
[H]c1c([H])c([H])c2c(c1[H])C([H])([H])C([H])([H])C([H])([H])C2([H])N([H])C(=O)C1([H])N(C(=O)C([H])(N([H])C(=O)C([H])(N([H])C([H])([H])[H])C([H])([H])[H])C(C([H])([H])[H])(C([H])([H])[H])C([H])([H])[H])C([H])([H])c2c([H])c(OC([H])([H])C([H])([H])C([H])([H])[N+]3([H])C([H])([H])C([H])([H])C(C([H])([H])C([H])([H])[H])(C([H])([H])C4([H])C([H])([H])C([H])([H])C([H])(N([H])C(=O)N5C([H])([H])C([H])([H])C([H])([H])C([H])(n6nc(-c7c([H])c([H])c(Oc8c([H])c([H])c(F)c([H])c8F)c([H])c7[H])c(C(=O)N([H])[H])c6N([H])[H])C5([H])[H])C4([H])[H])C([H])(C([H])([H])C([H])([H])[H])C3([H])[H])c([H])c([H])c2C1([H])[H]

>  <smiles>  (41) 
[H]c1c([H])c([H])c2c(c1[H])C([H])([H])C([H])([H])C([H])([H])C2([H])N([H])C(=O)C1([H])N(C(=O)C([H])(N([H])C(=O)C([H])(N([H])C([H])([H])[H])C([H])([H])[H])C(C([H])([H])[H])(C([H])([H])[H])C([H])([H])[H])C([H])([H])c2c([H])c(OC([H])([H])C([H])([H])C([H])([H])[N+]3([H])C([H])([H])C([H])([H])C(C([H])([H])C([H])([H])[H])(C([H])([H])C4([H])C([H])([H])C([H])([H])C([H])(N([H])C(=O)N5C([H])([H])C([H])([H])C([H])([H])C([H])(n6nc(-c7c([H])c([H])c(Oc8c([H])c([H])c(F)c([H])c8F)c([H])c7[H])c(C(=O)N([H])[H])c6N([H])[H])C5([H])[H])C4([H])[H])C([H])(C([H])([H])C([H])([H])[H])C3([H])[H])c([H])c([H])c2C1([H])[H]

$$$$
41:0:0
     RDKit          3D

 93101  0  0  1  0  0  0  0  0999 V2000
  -30.4780  -18.8810   23.2420 C   0  0  0  0  0  2  0  0  0  0  0  0
  -29.7650  -17.8470   22.3600 C   0  0  0  0  0  2  0  0  0  0  0  0
  -31.4210  -19.8430   22.5020 C   0  0  0  0  0  2  0  0  0  0  0  0
  -29.0880  -18.4150   21.1000 C   0  0  0  0  0  2  0  0  0  0  0  0
  -30.6860  -20.8280   21.5760 C   0  0  0  0  0  2  0  0  0  0  0  0
  -29.9980  -18.9690   19.9690 C   0  0  0  0  0  3  0  0  0  0  0  0
  -30.5170  -20.3880   20.1600 N   0  0  1  0  0  4  0  0  0  0  0  0
  -31.4350  -20.3950   19.7390 H   0  0  0  0  0  0  0  0  0  0  0  0
  -30.9570  -17.9300   19.2600 C   0  0  0  0  0  2  0  0  0  0  0  0
  -31.8730  -16.9080   20.0300 C   0  0  0  0  0  2  0  0  0  0  0  0
  -31.9120  -14.4050   19.5280 C   0  0  0  0  0  0  0  0  0  0  0  0
  -31.2150  -12.3700   18.3170 C   0  0  0  0  0  2  0  0  0  0  0  0
  -30.2010  -12.7890   17.2310 C   0  0  0  0  0  2  0  0  0  0  0  0
  -28.7690  -12.8330   17.8080 C   0  0  0  0  0  2  0  0  0  0  0  0
  -28.6880  -13.6150   19.1460 C   0  0  0  0  0  3  0  0  0  0  0  0
  -29.8010  -13.1670   20.1200 C   0  0  0  0  0  2  0  0  0  0  0  0
  -31.0900  -13.3250   19.4290 N   0  0  0  0  0  0  0  0  0  0  0  0
  -33.0280  -14.4420   18.9990 O   0  0  0  0  0  0  0  0  0  0  0  0
  -31.3480  -15.5170   20.0620 N   0  0  0  0  0  0  0  0  0  0  0  0
  -30.4320  -15.3830   20.4650 H   0  0  0  0  0  0  0  0  0  0  0  0
  -26.4900  -14.5140   20.1350 C   0  0  0  0  0  0  0  0  0  0  0  0
  -25.3620  -13.8810   20.5830 C   0  0  0  0  0  0  0  0  0  0  0  0
  -25.6140  -12.4810   20.4430 C   0  0  0  0  0  0  0  0  0  0  0  0
  -27.3650  -13.5080   19.7540 N   0  0  0  0  0  0  0  0  0  0  0  0
  -26.8470  -12.2780   19.9980 N   0  0  0  0  0  0  0  0  0  0  0  0
  -24.7330  -11.3260   20.6520 C   0  0  0  0  0  0  0  0  0  0  0  0
  -25.1480  -10.2090   21.4110 C   0  0  0  0  0  3  0  0  0  0  0  0
  -24.2770   -9.1170   21.6130 C   0  0  0  0  0  3  0  0  0  0  0  0
  -22.9750   -9.1360   21.0590 C   0  0  0  0  0  0  0  0  0  0  0  0
  -22.5740  -10.2400   20.2870 C   0  0  0  0  0  3  0  0  0  0  0  0
  -23.4450  -11.3240   20.0810 C   0  0  0  0  0  3  0  0  0  0  0  0
  -22.0690   -8.1120   21.1850 O   0  0  0  0  0  0  0  0  0  0  0  0
  -21.9120   -7.4280   22.3640 C   0  0  0  0  0  0  0  0  0  0  0  0
  -21.6190   -8.0900   23.5770 C   0  0  0  0  0  3  0  0  0  0  0  0
  -21.3960   -7.3430   24.7500 C   0  0  0  0  0  3  0  0  0  0  0  0
  -21.4580   -5.9370   24.7140 C   0  0  0  0  0  0  0  0  0  0  0  0
  -21.7460   -5.2770   23.5070 C   0  0  0  0  0  3  0  0  0  0  0  0
  -21.9690   -6.0200   22.3350 C   0  0  0  0  0  0  0  0  0  0  0  0
  -22.2260   -5.3780   21.1690 F   0  0  0  0  0  0  0  0  0  0  0  0
  -21.2360   -5.2200   25.8390 F   0  0  0  0  0  0  0  0  0  0  0  0
  -24.0840  -14.5340   21.0220 C   0  0  0  0  0  0  0  0  0  0  0  0
  -23.3880  -13.9340   21.9810 N   0  0  0  0  0  0  0  0  0  0  0  0
  -23.7180  -15.6070   20.5440 O   0  0  0  0  0  0  0  0  0  0  0  0
  -23.7010  -13.0640   22.3870 H   0  0  0  0  0  0  0  0  0  0  0  0
  -22.5300  -14.3510   22.3160 H   0  0  0  0  0  0  0  0  0  0  0  0
  -26.8360  -15.8560   20.0000 N   0  0  0  0  0  0  0  0  0  0  0  0
  -26.1740  -16.5970   20.2010 H   0  0  0  0  0  0  0  0  0  0  0  0
  -27.6760  -16.1860   19.5460 H   0  0  0  0  0  0  0  0  0  0  0  0
  -29.7130  -21.4300   19.4130 C   0  0  0  0  0  2  0  0  0  0  0  0
  -30.2430  -22.9090   19.4560 C   0  0  0  0  0  2  0  0  0  0  0  0
  -29.2340  -23.9990   19.9590 C   0  0  0  0  0  2  0  0  0  0  0  0
  -29.6280  -25.4640   19.5860 C   0  0  0  0  0  2  0  0  0  0  0  0
  -29.2120  -26.5060   20.4970 O   0  0  0  0  0  0  0  0  0  0  0  0
  -24.7900  -31.2920   23.3960 C   0  0  0  0  0  0  0  0  0  0  0  0
  -27.9810  -27.1320   20.3920 C   0  0  0  0  0  0  0  0  0  0  0  0
  -23.8180  -29.8640   21.6300 C   0  0  0  0  0  3  0  0  0  0  0  0
  -25.4840  -28.4780   20.2750 C   0  0  0  0  0  0  0  0  0  0  0  0
  -26.3210  -30.4000   21.6380 C   0  0  0  0  0  2  0  0  0  0  0  0
  -26.5520  -29.0580   20.9660 C   0  0  0  0  0  0  0  0  0  0  0  0
  -27.8000  -28.3900   21.0240 C   0  0  0  0  0  3  0  0  0  0  0  0
  -26.8880  -26.5710   19.6950 C   0  0  0  0  0  3  0  0  0  0  0  0
  -25.6460  -27.2360   19.6370 C   0  0  0  0  0  3  0  0  0  0  0  0
  -24.1790  -29.2460   20.2510 C   0  0  0  0  0  2  0  0  0  0  0  0
  -24.9890  -30.5350   22.2810 N   0  0  0  0  0  0  0  0  0  0  0  0
  -23.6540  -31.4660   23.8600 O   0  0  0  0  0  0  0  0  0  0  0  0
  -23.1770  -28.7660   22.5080 C   0  0  0  0  0  0  0  0  0  0  0  0
  -21.8710  -28.5240   22.3070 N   0  0  0  0  0  0  0  0  0  0  0  0
  -23.8530  -28.1360   23.3260 O   0  0  0  0  0  0  0  0  0  0  0  0
  -21.3860  -29.0860   21.6210 H   0  0  0  0  0  0  0  0  0  0  0  0
  -18.5390  -27.1610   22.6040 C   0  0  0  0  0  0  0  0  0  0  0  0
  -21.0700  -27.5110   22.9930 C   0  0  0  0  0  3  0  0  0  0  0  0
  -21.2590  -26.1210   22.3430 C   0  0  0  0  0  2  0  0  0  0  0  0
  -20.2120  -25.8110   21.2690 C   0  0  0  0  0  2  0  0  0  0  0  0
  -18.8010  -25.8600   21.8620 C   0  0  0  0  0  2  0  0  0  0  0  0
  -19.6050  -27.9440   23.1200 C   0  0  0  0  0  0  0  0  0  0  0  0
  -19.3060  -29.1610   23.7690 C   0  0  0  0  0  3  0  0  0  0  0  0
  -17.9750  -29.5970   23.9070 C   0  0  0  0  0  3  0  0  0  0  0  0
  -16.9240  -28.8100   23.4060 C   0  0  0  0  0  3  0  0  0  0  0  0
  -17.2060  -27.5930   22.7610 C   0  0  0  0  0  3  0  0  0  0  0  0
  -25.9750  -31.9950   24.1300 C   0  0  0  0  0  3  0  0  0  0  0  0
  -25.5990  -33.4010   24.3360 N   0  0  0  0  0  0  0  0  0  0  0  0
  -26.0090  -34.4170   23.5670 C   0  0  0  0  0  0  0  0  0  0  0  0
  -26.8110  -34.2760   22.6400 O   0  0  0  0  0  0  0  0  0  0  0  0
  -24.9060  -33.5840   25.0460 H   0  0  0  0  0  0  0  0  0  0  0  0
  -24.3150  -36.1390   22.8770 C   0  0  0  0  0  1  0  0  0  0  0  0
  -25.4390  -35.8150   23.8740 C   0  0  0  0  0  3  0  0  0  0  0  0
  -27.4400  -36.7790   24.9210 C   0  0  0  0  0  1  0  0  0  0  0  0
  -26.4580  -36.8880   23.8450 N   0  0  0  0  0  0  0  0  0  0  0  0
  -26.0210  -37.8040   23.9050 H   0  0  0  0  0  0  0  0  0  0  0  0
  -26.3480  -31.3130   25.5030 C   0  0  1  0  0  0  0  0  0  0  0  0
  -25.1310  -31.0660   26.4240 C   0  0  0  0  0  1  0  0  0  0  0  0
  -27.0430  -29.9530   25.2620 C   0  0  0  0  0  1  0  0  0  0  0  0
  -27.3570  -32.1990   26.2720 C   0  0  0  0  0  1  0  0  0  0  0  0
  2  1  1  0
  3  1  1  0
  4  2  1  0
  5  3  1  0
  6  9  1  0
  6  7  1  0
  6  4  1  0
  7  5  1  0
  7  8  1  6
  9 10  1  0
 10 19  1  0
 11 19  1  0
 12 17  1  0
 13 14  1  0
 13 12  1  0
 15 14  1  0
 15 24  1  0
 15 16  1  0
 17 11  1  0
 17 16  1  0
 18 11  2  0
 19 20  1  0
 21 22  2  0
 22 41  1  0
 23 22  1  0
 23 26  1  0
 24 25  1  0
 24 21  1  0
 25 23  2  0
 26 27  1  0
 27 28  2  0
 29 32  1  0
 29 28  1  0
 30 29  2  0
 31 30  1  0
 31 26  2  0
 32 33  1  0
 33 34  1  0
 34 35  2  0
 36 35  1  0
 36 40  1  0
 37 36  2  0
 38 33  2  0
 38 37  1  0
 39 38  1  0
 41 42  1  0
 42 45  1  0
 42 44  1  0
 43 41  2  0
 46 21  1  0
 46 47  1  0
 48 46  1  0
 49 50  1  0
 49  7  1  0
 50 51  1  0
 52 51  1  0
 52 53  1  0
 54 65  2  0
 55 53  1  0
 55 60  1  0
 56 64  1  0
 56 66  1  0
 57 59  1  0
 58 64  1  0
 59 60  2  0
 59 58  1  0
 61 55  2  0
 62 61  1  0
 62 57  2  0
 63 57  1  0
 63 56  1  0
 64 54  1  0
 66 68  2  0
 67 66  1  0
 69 67  1  0
 70 79  2  0
 70 75  1  0
 71 67  1  0
 71 75  1  0
 72 71  1  0
 73 74  1  0
 73 72  1  0
 74 70  1  0
 75 76  2  0
 76 77  1  0
 78 77  2  0
 79 78  1  0
 80 54  1  0
 80 81  1  0
 80 90  1  0
 81 84  1  0
 82 86  1  0
 82 81  1  0
 83 82  2  0
 86 85  1  0
 88 86  1  0
 88 89  1  0
 88 87  1  0
 90 93  1  1
 90 91  1  0
 92 90  1  0
M  ISO  4  11 100  19 100  52 101  53 101
M  END
>  <TORSDO>  (42) 
F 22

>  <SCORE>  (42) 
-8.253

>  <name>  (42) 
41

>  <ligand_id>  (42) 
41

>  <original_smiles>  (42) 
[H]c1c([H])c([H])c2c(c1[H])C([H])([H])C([H])([H])C([H])([H])C2([H])N([H])C(=O)C1([H])N(C(=O)C([H])(N([H])C(=O)C([H])(N([H])C([H])([H])[H])C([H])([H])[H])C(C([H])([H])[H])(C([H])([H])[H])C([H])([H])[H])C([H])([H])c2c([H])c(OC([H])([H])C([H])([H])C([H])([H])C([H])([H])[N+]3([H])C([H])([H])C([H])([H])C([H])([H])C([H])([H])C([H])([H])C3([H])C([H])([H])C([H])([H])N([H])C(=O)N3C([H])([H])C([H])([H])C([H])([H])C([H])(n4nc(-c5c([H])c([H])c(Oc6c([H])c([H])c(F)c([H])c6F)c([H])c5[H])c(C(=O)N([H])[H])c4N([H])[H])C3([H])[H])c([H])c([H])c2C1([H])[H]

>  <smiles>  (42) 
[H]c1c([H])c([H])c2c(c1[H])C([H])([H])C([H])([H])C([H])([H])C2([H])N([H])C(=O)C1([H])N(C(=O)C([H])(N([H])C(=O)C([H])(N([H])C([H])([H])[H])C([H])([H])[H])C(C([H])([H])[H])(C([H])([H])[H])C([H])([H])[H])C([H])([H])c2c([H])c(OC([H])([H])C([H])([H])C([H])([H])C([H])([H])[N+]3([H])C([H])([H])C([H])([H])C([H])([H])C([H])([H])C([H])([H])C3([H])C([H])([H])C([H])([H])N([H])C(=O)N3C([H])([H])C([H])([H])C([H])([H])C([H])(n4nc(-c5c([H])c([H])c(Oc6c([H])c([H])c(F)c([H])c6F)c([H])c5[H])c(C(=O)N([H])[H])c4N([H])[H])C3([H])[H])c([H])c([H])c2C1([H])[H]

$$$$
42:0:0
     RDKit          3D

 92100  0  0  1  0  0  0  0  0999 V2000
  -29.7380  -21.7070   19.0430 C   0  0  0  0  0  3  0  0  0  0  0  0
  -30.0290  -20.4410   19.4630 C   0  0  0  0  0  3  0  0  0  0  0  0
  -28.0170  -21.9530   20.8580 C   0  0  0  0  0  0  0  0  0  0  0  0
  -27.8670  -20.4250   20.7460 C   0  0  0  0  0  2  0  0  0  0  0  0
  -28.5730  -22.5900   19.5670 C   0  0  0  0  0  3  0  0  0  0  0  0
  -29.2280  -19.6820   20.5460 C   0  0  0  0  0  3  0  0  0  0  0  0
  -27.6950  -22.5910   21.9040 N   0  0  0  0  0  0  0  0  0  0  0  0
  -27.3300  -21.9940   22.6400 H   0  0  0  0  0  0  0  0  0  0  0  0
  -29.0320  -18.1190   20.2900 C   0  0  0  0  0  2  0  0  0  0  0  0
  -30.7300  -14.6750   20.2620 C   0  0  0  0  0  0  0  0  0  0  0  0
  -30.4920  -12.4580   19.1750 C   0  0  0  0  0  2  0  0  0  0  0  0
  -29.5260  -12.6020   17.9810 C   0  0  0  0  0  2  0  0  0  0  0  0
  -28.0590  -12.4270   18.4260 C   0  0  0  0  0  2  0  0  0  0  0  0
  -27.7140  -13.2900   19.6730 C   0  0  0  0  0  3  0  0  0  0  0  0
  -28.7900  -13.1500   20.7770 C   0  0  0  0  0  2  0  0  0  0  0  0
  -30.0940  -13.4680   20.1760 N   0  0  0  0  0  0  0  0  0  0  0  0
  -31.9210  -14.7830   19.9500 O   0  0  0  0  0  0  0  0  0  0  0  0
  -30.2130  -17.0980   20.4640 C   0  0  0  0  0  0  0  0  0  0  0  0
  -29.9170  -15.7580   20.4680 N   0  0  0  0  0  0  0  0  0  0  0  0
  -31.3590  -17.5400   20.5730 O   0  0  0  0  0  0  0  0  0  0  0  0
  -28.9410  -15.5240   20.5360 H   0  0  0  0  0  0  0  0  0  0  0  0
  -25.3320  -13.8840   20.4190 C   0  0  0  0  0  0  0  0  0  0  0  0
  -24.2720  -13.1040   20.8060 C   0  0  0  0  0  0  0  0  0  0  0  0
  -24.7450  -11.7580   20.7750 C   0  0  0  0  0  0  0  0  0  0  0  0
  -26.3750  -13.0090   20.1780 N   0  0  0  0  0  0  0  0  0  0  0  0
  -26.0310  -11.7260   20.4510 N   0  0  0  0  0  0  0  0  0  0  0  0
  -24.0260  -10.4900   20.9740 C   0  0  0  0  0  0  0  0  0  0  0  0
  -24.4590   -9.5340   21.9160 C   0  0  0  0  0  3  0  0  0  0  0  0
  -23.7400   -8.3330   22.1040 C   0  0  0  0  0  3  0  0  0  0  0  0
  -22.5710   -8.0750   21.3480 C   0  0  0  0  0  0  0  0  0  0  0  0
  -22.1570   -9.0210   20.3940 C   0  0  0  0  0  3  0  0  0  0  0  0
  -22.8780  -10.2140   20.2050 C   0  0  0  0  0  3  0  0  0  0  0  0
  -21.8240   -6.9260   21.4470 O   0  0  0  0  0  0  0  0  0  0  0  0
  -21.7670   -6.2070   22.6140 C   0  0  0  0  0  0  0  0  0  0  0  0
  -21.3010   -6.7730   23.8200 C   0  0  0  0  0  3  0  0  0  0  0  0
  -21.1880   -5.9720   24.9750 C   0  0  0  0  0  3  0  0  0  0  0  0
  -21.5370   -4.6090   24.9230 C   0  0  0  0  0  0  0  0  0  0  0  0
  -21.9980   -4.0430   23.7220 C   0  0  0  0  0  3  0  0  0  0  0  0
  -22.1110   -4.8410   22.5690 C   0  0  0  0  0  0  0  0  0  0  0  0
  -22.5330   -4.2840   21.4080 F   0  0  0  0  0  0  0  0  0  0  0  0
  -21.4240   -3.8390   26.0320 F   0  0  0  0  0  0  0  0  0  0  0  0
  -22.8760  -13.5730   21.0860 C   0  0  0  0  0  0  0  0  0  0  0  0
  -22.1550  -12.8730   21.9590 N   0  0  0  0  0  0  0  0  0  0  0  0
  -22.4290  -14.5930   20.5670 O   0  0  0  0  0  0  0  0  0  0  0  0
  -22.5210  -12.0450   22.4030 H   0  0  0  0  0  0  0  0  0  0  0  0
  -21.2190  -13.1770   22.1790 H   0  0  0  0  0  0  0  0  0  0  0  0
  -25.4870  -15.2520   20.2240 N   0  0  0  0  0  0  0  0  0  0  0  0
  -24.7140  -15.9030   20.3190 H   0  0  0  0  0  0  0  0  0  0  0  0
  -26.3030  -15.6850   19.8150 H   0  0  0  0  0  0  0  0  0  0  0  0
  -28.8310  -24.1740   19.4710 C   0  0  0  0  0  3  0  0  0  0  0  0
  -28.3270  -25.2230   20.5400 C   0  0  0  0  0  3  0  0  0  0  0  0
  -28.4630  -26.6370   20.1610 O   0  0  0  0  0  0  0  0  0  0  0  0
  -24.6200  -31.8840   23.2050 C   0  0  0  0  0  0  0  0  0  0  0  0
  -27.3100  -27.4200   20.1450 C   0  0  0  0  0  0  0  0  0  0  0  0
  -23.4360  -30.4890   21.5440 C   0  0  0  0  0  3  0  0  0  0  0  0
  -24.9100  -28.9590   20.1270 C   0  0  0  0  0  0  0  0  0  0  0  0
  -25.9710  -30.8500   21.3740 C   0  0  0  0  0  2  0  0  0  0  0  0
  -26.0680  -29.4800   20.7230 C   0  0  0  0  0  0  0  0  0  0  0  0
  -27.2710  -28.7220   20.7170 C   0  0  0  0  0  3  0  0  0  0  0  0
  -26.1310  -26.9320   19.5420 C   0  0  0  0  0  3  0  0  0  0  0  0
  -24.9420  -27.6870   19.5300 C   0  0  0  0  0  3  0  0  0  0  0  0
  -23.6600  -29.8160   20.1670 C   0  0  0  0  0  2  0  0  0  0  0  0
  -24.6940  -31.0900   22.0960 N   0  0  0  0  0  0  0  0  0  0  0  0
  -23.5330  -32.1450   23.7360 O   0  0  0  0  0  0  0  0  0  0  0  0
  -22.7790  -29.4610   22.4930 C   0  0  0  0  0  0  0  0  0  0  0  0
  -21.4540  -29.2760   22.3580 N   0  0  0  0  0  0  0  0  0  0  0  0
  -23.4580  -28.8290   23.3070 O   0  0  0  0  0  0  0  0  0  0  0  0
  -20.9590  -29.8240   21.6660 H   0  0  0  0  0  0  0  0  0  0  0  0
  -18.0820  -28.0840   22.8600 C   0  0  0  0  0  0  0  0  0  0  0  0
  -20.6410  -28.3340   23.1240 C   0  0  0  0  0  3  0  0  0  0  0  0
  -20.7380  -26.9100   22.5330 C   0  0  0  0  0  2  0  0  0  0  0  0
  -19.6340  -26.5970   21.5170 C   0  0  0  0  0  2  0  0  0  0  0  0
  -18.2530  -26.7420   22.1670 C   0  0  0  0  0  2  0  0  0  0  0  0
  -19.2030  -28.8370   23.2960 C   0  0  0  0  0  0  0  0  0  0  0  0
  -18.9870  -30.0930   23.9060 C   0  0  0  0  0  3  0  0  0  0  0  0
  -17.6830  -30.5930   24.0830 C   0  0  0  0  0  3  0  0  0  0  0  0
  -16.5770  -29.8360   23.6630 C   0  0  0  0  0  3  0  0  0  0  0  0
  -16.7780  -28.5850   23.0520 C   0  0  0  0  0  3  0  0  0  0  0  0
  -25.8950  -32.5200   23.8400 C   0  0  0  0  0  3  0  0  0  0  0  0
  -26.4010  -31.7520   25.1220 C   0  0  1  0  0  0  0  0  0  0  0  0
  -25.2970  -31.5130   26.1740 C   0  0  0  0  0  1  0  0  0  0  0  0
  -26.9960  -30.3750   24.7380 C   0  0  0  0  0  1  0  0  0  0  0  0
  -27.5400  -32.5550   25.7970 C   0  0  0  0  0  1  0  0  0  0  0  0
  -25.5740  -33.9180   24.1620 N   0  0  0  0  0  0  0  0  0  0  0  0
  -25.9080  -34.9700   23.4060 C   0  0  0  0  0  0  0  0  0  0  0  0
  -26.5910  -34.8690   22.3820 O   0  0  0  0  0  0  0  0  0  0  0  0
  -24.9690  -34.0740   24.9550 H   0  0  0  0  0  0  0  0  0  0  0  0
  -24.1810  -36.7610   23.0300 C   0  0  0  0  0  1  0  0  0  0  0  0
  -25.4090  -36.3560   23.8600 C   0  0  0  0  0  3  0  0  0  0  0  0
  -27.5250  -37.2520   24.7270 C   0  0  0  0  0  1  0  0  0  0  0  0
  -26.4410  -37.4130   23.7620 N   0  0  0  0  0  0  0  0  0  0  0  0
  -26.0270  -38.3310   23.9000 H   0  0  0  0  0  0  0  0  0  0  0  0
  1  2  2  0
  1  5  1  0
  2  6  1  0
  3  7  2  0
  4  3  1  0
  5 50  1  0
  5  3  1  0
  6  9  1  0
  6  4  1  0
  7  8  1  0
  9 18  1  0
 10 19  1  0
 11 16  1  0
 12 13  1  0
 12 11  1  0
 14 13  1  0
 14 25  1  0
 14 15  1  0
 16 10  1  0
 16 15  1  0
 17 10  2  0
 18 19  1  0
 18 20  2  0
 19 21  1  0
 22 23  2  0
 23 42  1  0
 24 23  1  0
 24 27  1  0
 25 22  1  0
 25 26  1  0
 26 24  2  0
 27 28  1  0
 28 29  2  0
 30 33  1  0
 30 29  1  0
 31 30  2  0
 32 31  1  0
 32 27  2  0
 33 34  1  0
 34 35  1  0
 35 36  2  0
 37 36  1  0
 37 41  1  0
 38 37  2  0
 39 34  2  0
 39 38  1  0
 40 39  1  0
 42 43  1  0
 43 46  1  0
 43 45  1  0
 44 42  2  0
 47 48  1  0
 47 22  1  0
 49 47  1  0
 50 51  2  0
 52 51  1  0
 53 64  2  0
 54 52  1  0
 54 59  1  0
 55 63  1  0
 55 65  1  0
 56 62  1  0
 56 58  1  0
 57 63  1  0
 58 57  1  0
 59 58  2  0
 60 54  2  0
 61 60  1  0
 61 56  2  0
 62 55  1  0
 63 53  1  0
 65 67  2  0
 66 65  1  0
 68 66  1  0
 69 78  2  0
 69 74  1  0
 70 66  1  0
 70 74  1  0
 71 70  1  0
 72 73  1  0
 72 71  1  0
 73 69  1  0
 74 75  2  0
 75 76  1  0
 77 76  2  0
 78 77  1  0
 79 53  1  0
 79 84  1  0
 79 80  1  0
 80 83  1  1
 80 81  1  0
 82 80  1  0
 84 87  1  0
 85 89  1  0
 85 84  1  0
 86 85  2  0
 89 88  1  0
 91 89  1  0
 91 92  1  0
 91 90  1  0
M  ISO  4  10 100  19 100  51 101  52 101
M  END
>  <TORSDO>  (43) 
F 19

>  <SCORE>  (43) 
-14.240

>  <name>  (43) 
42

>  <ligand_id>  (43) 
42

>  <original_smiles>  (43) 
[H]N=C1C([H])([H])C([H])(C([H])([H])C(=O)N([H])C(=O)N2C([H])([H])C([H])([H])C([H])([H])C([H])(n3nc(-c4c([H])c([H])c(Oc5c([H])c([H])c(F)c([H])c5F)c([H])c4[H])c(C(=O)N([H])[H])c3N([H])[H])C2([H])[H])C([H])=C([H])C1([H])C([H])([H])C([H])([H])Oc1c([H])c([H])c2c(c1[H])C([H])([H])N(C(=O)C([H])(N([H])C(=O)C([H])(N([H])C([H])([H])[H])C([H])([H])[H])C(C([H])([H])[H])(C([H])([H])[H])C([H])([H])[H])C([H])(C(=O)N([H])C1([H])c3c([H])c([H])c([H])c([H])c3C([H])([H])C([H])([H])C1([H])[H])C2([H])[H]

>  <smiles>  (43) 
[H]N=C1C([H])([H])C([H])(C([H])([H])C(=O)N([H])C(=O)N2C([H])([H])C([H])([H])C([H])([H])C([H])(n3nc(-c4c([H])c([H])c(Oc5c([H])c([H])c(F)c([H])c5F)c([H])c4[H])c(C(=O)N([H])[H])c3N([H])[H])C2([H])[H])C([H])=C([H])C1([H])C([H])([H])C([H])([H])Oc1c([H])c([H])c2c(c1[H])C([H])([H])N(C(=O)C([H])(N([H])C(=O)C([H])(N([H])C([H])([H])[H])C([H])([H])[H])C(C([H])([H])[H])(C([H])([H])[H])C([H])([H])[H])C([H])(C(=O)N([H])C1([H])c3c([H])c([H])c([H])c([H])c3C([H])([H])C([H])([H])C1([H])[H])C2([H])[H]

$$$$
43:0:0
     RDKit          3D

 94101  0  0  1  0  0  0  0  0999 V2000
  -27.5560  -19.1040   21.1270 C   0  0  0  0  0  2  0  0  0  0  0  0
  -28.3170  -19.9900   20.1240 C   0  0  0  0  0  2  0  0  0  0  0  0
  -29.2120  -21.0340   20.8000 C   0  0  0  0  0  2  0  0  0  0  0  0
  -29.8070  -22.0290   19.7920 C   0  0  0  0  0  2  0  0  0  0  0  0
  -30.7720  -23.0150   20.4580 C   0  0  0  0  0  2  0  0  0  0  0  0
  -31.4580  -23.9430   19.4480 C   0  0  0  0  0  2  0  0  0  0  0  0
  -32.1080  -25.1640   20.1220 C   0  0  0  0  0  2  0  0  0  0  0  0
  -31.7770  -26.3580   19.4240 O   0  0  0  0  0  0  0  0  0  0  0  0
  -26.8920  -28.9810   23.8810 C   0  0  0  0  0  0  0  0  0  0  0  0
  -30.4850  -26.7710   19.6140 C   0  0  0  0  0  0  0  0  0  0  0  0
  -26.0510  -28.2160   21.6840 C   0  0  0  0  0  3  0  0  0  0  0  0
  -27.8360  -27.6720   19.9460 C   0  0  0  0  0  0  0  0  0  0  0  0
  -28.4560  -29.0430   21.9450 C   0  0  0  0  0  2  0  0  0  0  0  0
  -28.8370  -28.0970   20.8280 C   0  0  0  0  0  0  0  0  0  0  0  0
  -30.1650  -27.6480   20.6700 C   0  0  0  0  0  3  0  0  0  0  0  0
  -29.4740  -26.3430   18.7310 C   0  0  0  0  0  3  0  0  0  0  0  0
  -28.1460  -26.7850   18.8980 C   0  0  0  0  0  3  0  0  0  0  0  0
  -26.4450  -28.2130   20.1810 C   0  0  0  0  0  2  0  0  0  0  0  0
  -27.1460  -28.7390   22.5650 N   0  0  0  0  0  0  0  0  0  0  0  0
  -25.7610  -28.8190   24.3570 O   0  0  0  0  0  0  0  0  0  0  0  0
  -25.5820  -26.7960   22.0690 C   0  0  0  0  0  0  0  0  0  0  0  0
  -24.4910  -26.3350   21.4360 N   0  0  0  0  0  0  0  0  0  0  0  0
  -26.2080  -26.1250   22.8940 O   0  0  0  0  0  0  0  0  0  0  0  0
  -24.0310  -26.9480   20.7790 H   0  0  0  0  0  0  0  0  0  0  0  0
  -21.9240  -24.1220   20.1860 C   0  0  0  0  0  0  0  0  0  0  0  0
  -23.8910  -25.0140   21.6090 C   0  0  0  0  0  3  0  0  0  0  0  0
  -24.7470  -23.9220   20.9280 C   0  0  0  0  0  2  0  0  0  0  0  0
  -24.3070  -23.6180   19.4910 C   0  0  0  0  0  2  0  0  0  0  0  0
  -22.8470  -23.1540   19.4640 C   0  0  0  0  0  2  0  0  0  0  0  0
  -22.4180  -25.0060   21.1820 C   0  0  0  0  0  0  0  0  0  0  0  0
  -21.5270  -25.9120   21.7960 C   0  0  0  0  0  3  0  0  0  0  0  0
  -20.1660  -25.9400   21.4370 C   0  0  0  0  0  3  0  0  0  0  0  0
  -19.6800  -25.0510   20.4620 C   0  0  0  0  0  3  0  0  0  0  0  0
  -20.5570  -24.1440   19.8420 C   0  0  0  0  0  3  0  0  0  0  0  0
  -28.0060  -29.4960   24.8490 C   0  0  0  0  0  3  0  0  0  0  0  0
  -28.4460  -28.4250   25.9220 C   0  0  1  0  0  0  0  0  0  0  0  0
  -27.2590  -27.7460   26.6430 C   0  0  0  0  0  1  0  0  0  0  0  0
  -29.2970  -27.3140   25.2650 C   0  0  0  0  0  1  0  0  0  0  0  0
  -29.3400  -29.0900   26.9950 C   0  0  0  0  0  1  0  0  0  0  0  0
  -27.4980  -30.7080   25.5040 N   0  0  0  0  0  0  0  0  0  0  0  0
  -27.8080  -31.9590   25.1360 C   0  0  0  0  0  0  0  0  0  0  0  0
  -28.6210  -32.2120   24.2440 O   0  0  0  0  0  0  0  0  0  0  0  0
  -26.7880  -30.5770   26.2110 H   0  0  0  0  0  0  0  0  0  0  0  0
  -25.9520  -33.6490   25.0130 C   0  0  0  0  0  1  0  0  0  0  0  0
  -27.1040  -33.1110   25.8760 C   0  0  0  0  0  3  0  0  0  0  0  0
  -28.9740  -33.8580   27.2810 C   0  0  0  0  0  1  0  0  0  0  0  0
  -28.0120  -34.2190   26.2420 N   0  0  0  0  0  0  0  0  0  0  0  0
  -27.4850  -35.0260   26.5650 H   0  0  0  0  0  0  0  0  0  0  0  0
  -27.2710  -17.6950   20.5820 C   0  0  0  0  0  2  0  0  0  0  0  0
  -27.7210  -17.4980   19.1240 C   0  0  0  0  0  2  0  0  0  0  0  0
  -28.6270  -16.2750   18.9050 C   0  0  0  0  0  2  0  0  0  0  0  0
  -30.0860  -16.6410   18.5580 C   0  0  0  0  0  2  0  0  0  0  0  0
  -32.6110  -14.0870   19.8030 C   0  0  0  0  0  0  0  0  0  0  0  0
  -32.6750  -12.2080   21.3950 C   0  0  0  0  0  2  0  0  0  0  0  0
  -32.1820  -10.9040   20.7390 C   0  0  0  0  0  2  0  0  0  0  0  0
  -30.6480  -10.7770   20.8340 C   0  0  0  0  0  2  0  0  0  0  0  0
  -29.9230  -12.0620   20.3540 C   0  0  0  0  0  3  0  0  0  0  0  0
  -30.5400  -13.3060   21.0280 C   0  0  0  0  0  2  0  0  0  0  0  0
  -31.9880  -13.3400   20.7540 N   0  0  0  0  0  0  0  0  0  0  0  0
  -33.7770  -13.9010   19.4320 O   0  0  0  0  0  0  0  0  0  0  0  0
  -31.0170  -15.9980   19.5450 C   0  0  0  0  0  0  0  0  0  0  0  0
  -31.8010  -14.9990   19.0600 N   0  0  0  0  0  0  0  0  0  0  0  0
  -31.0130  -16.4700   20.8150 N   0  0  0  0  0  4  0  0  0  0  0  0
  -32.0050  -15.1320   18.0850 H   0  0  0  0  0  0  0  0  0  0  0  0
  -30.4030  -17.2380   21.0680 H   0  0  0  0  0  0  0  0  0  0  0  0
  -31.6630  -16.1750   21.5310 H   0  0  0  0  0  0  0  0  0  0  0  0
  -27.5030  -12.9500   20.3830 C   0  0  0  0  0  0  0  0  0  0  0  0
  -26.3150  -12.3470   20.6960 C   0  0  0  0  0  0  0  0  0  0  0  0
  -26.6380  -11.0080   21.0760 C   0  0  0  0  0  0  0  0  0  0  0  0
  -28.4820  -11.9880   20.5890 N   0  0  0  0  0  0  0  0  0  0  0  0
  -27.9520  -10.8280   21.0560 N   0  0  0  0  0  0  0  0  0  0  0  0
  -25.7700   -9.8710   21.4010 C   0  0  0  0  0  0  0  0  0  0  0  0
  -25.5220   -9.4880   22.7390 C   0  0  0  0  0  3  0  0  0  0  0  0
  -24.6690   -8.4010   23.0260 C   0  0  0  0  0  3  0  0  0  0  0  0
  -24.0490   -7.6880   21.9720 C   0  0  0  0  0  0  0  0  0  0  0  0
  -24.3150   -8.0600   20.6420 C   0  0  0  0  0  3  0  0  0  0  0  0
  -25.1700   -9.1380   20.3590 C   0  0  0  0  0  3  0  0  0  0  0  0
  -23.2270   -6.6020   22.1550 O   0  0  0  0  0  0  0  0  0  0  0  0
  -22.2260   -6.6070   23.0950 C   0  0  0  0  0  0  0  0  0  0  0  0
  -21.1830   -7.5570   23.0670 C   0  0  0  0  0  3  0  0  0  0  0  0
  -20.1390   -7.4830   24.0100 C   0  0  0  0  0  3  0  0  0  0  0  0
  -20.1310   -6.4560   24.9730 C   0  0  0  0  0  0  0  0  0  0  0  0
  -21.1650   -5.5060   24.9990 C   0  0  0  0  0  3  0  0  0  0  0  0
  -22.2100   -5.5790   24.0590 C   0  0  0  0  0  0  0  0  0  0  0  0
  -23.1920   -4.6480   24.0760 F   0  0  0  0  0  0  0  0  0  0  0  0
  -19.1230   -6.3810   25.8730 F   0  0  0  0  0  0  0  0  0  0  0  0
  -24.9450  -12.9460   20.5580 C   0  0  0  0  0  0  0  0  0  0  0  0
  -24.0210  -12.5770   21.4380 N   0  0  0  0  0  0  0  0  0  0  0  0
  -24.6990  -13.7860   19.6920 O   0  0  0  0  0  0  0  0  0  0  0  0
  -24.2250  -11.9020   22.1610 H   0  0  0  0  0  0  0  0  0  0  0  0
  -23.0940  -12.9780   21.3900 H   0  0  0  0  0  0  0  0  0  0  0  0
  -27.8290  -14.2230   19.9230 N   0  0  0  0  0  0  0  0  0  0  0  0
  -27.1110  -14.9010   19.6920 H   0  0  0  0  0  0  0  0  0  0  0  0
  -28.7570  -14.5200   19.6480 H   0  0  0  0  0  0  0  0  0  0  0  0
  2  3  1  0
  2  1  1  0
  4  5  1  0
  4  3  1  0
  6  7  1  0
  6  5  1  0
  8 10  1  0
  8  7  1  0
  9 20  2  0
 10 15  1  0
 11 21  1  0
 11 19  1  0
 12 18  1  0
 12 14  1  0
 13 19  1  0
 14 13  1  0
 15 14  2  0
 16 17  1  0
 16 10  2  0
 17 12  2  0
 18 11  1  0
 19  9  1  0
 21 23  2  0
 22 21  1  0
 24 22  1  0
 25 30  1  0
 26 22  1  0
 27 26  1  0
 28 27  1  0
 29 28  1  0
 29 25  1  0
 30 26  1  0
 30 31  2  0
 32 31  1  0
 33 32  2  0
 34 25  2  0
 34 33  1  0
 35  9  1  0
 35 40  1  0
 35 36  1  0
 36 37  1  1
 36 39  1  0
 38 36  1  0
 40 43  1  0
 41 40  1  0
 41 45  1  0
 42 41  2  0
 45 44  1  0
 45 47  1  0
 47 48  1  0
 47 46  1  0
 49  1  1  0
 50 49  1  0
 51 50  1  0
 52 51  1  0
 52 61  1  0
 53 59  1  0
 55 56  1  0
 55 54  1  0
 57 70  1  0
 57 56  1  0
 57 58  1  0
 59 58  1  0
 59 54  1  0
 60 53  2  0
 61 63  2  0
 62 61  1  0
 62 53  1  0
 63 65  1  0
 63 66  1  0
 64 62  1  0
 67 70  1  0
 67 68  2  0
 68 69  1  0
 69 72  1  0
 70 71  1  0
 71 69  2  0
 72 73  1  0
 73 74  2  0
 75 78  1  0
 75 74  1  0
 76 75  2  0
 77 76  1  0
 77 72  2  0
 78 79  1  0
 79 84  1  0
 80 79  2  0
 80 81  1  0
 81 82  2  0
 82 83  1  0
 82 86  1  0
 84 85  1  0
 84 83  2  0
 87 68  1  0
 87 88  1  0
 88 90  1  0
 89 87  2  0
 91 88  1  0
 92 67  1  0
 93 92  1  0
 94 92  1  0
M  ISO  4   7 101   8 101  53 100  62 100
M  END
>  <TORSDO>  (44) 
F 26

>  <SCORE>  (44) 
-4.479

>  <name>  (44) 
43

>  <ligand_id>  (44) 
43

>  <original_smiles>  (44) 
[H]c1c([H])c([H])c2c(c1[H])C([H])([H])C([H])([H])C([H])([H])C2([H])N([H])C(=O)C1([H])N(C(=O)C([H])(N([H])C(=O)C([H])(N([H])C([H])([H])[H])C([H])([H])[H])C(C([H])([H])[H])(C([H])([H])[H])C([H])([H])[H])C([H])([H])c2c([H])c(OC([H])([H])C([H])([H])C([H])([H])C([H])([H])C([H])([H])C([H])([H])C([H])([H])C([H])([H])C([H])([H])C([H])([H])C([H])([H])C(N([H])C(=O)N3C([H])([H])C([H])([H])C([H])([H])C([H])(n4nc(-c5c([H])c([H])c(Oc6c([H])c([H])c(F)c([H])c6F)c([H])c5[H])c(C(=O)N([H])[H])c4N([H])[H])C3([H])[H])=[N+]([H])[H])c([H])c([H])c2C1([H])[H]

>  <smiles>  (44) 
[H]c1c([H])c([H])c2c(c1[H])C([H])([H])C([H])([H])C([H])([H])C2([H])N([H])C(=O)C1([H])N(C(=O)C([H])(N([H])C(=O)C([H])(N([H])C([H])([H])[H])C([H])([H])[H])C(C([H])([H])[H])(C([H])([H])[H])C([H])([H])[H])C([H])([H])c2c([H])c(OC([H])([H])C([H])([H])C([H])([H])C([H])([H])C([H])([H])C([H])([H])C([H])([H])C([H])([H])C([H])([H])C([H])([H])C([H])([H])C(N([H])C(=O)N3C([H])([H])C([H])([H])C([H])([H])C([H])(n4nc(-c5c([H])c([H])c(Oc6c([H])c([H])c(F)c([H])c6F)c([H])c5[H])c(C(=O)N([H])[H])c4N([H])[H])C3([H])[H])=[N+]([H])[H])c([H])c([H])c2C1([H])[H]

$$$$
44:0:0
     RDKit          3D

 92100  0  0  1  0  0  0  0  0999 V2000
  -31.1930  -21.7290   20.5950 C   0  0  0  0  0  2  0  0  0  0  0  0
  -31.6420  -20.2490   20.2770 C   0  0  0  0  0  2  0  0  0  0  0  0
  -29.4130  -20.3380   19.8650 C   0  0  0  0  0  2  0  0  0  0  0  0
  -29.6650  -21.8900   20.3810 C   0  0  0  0  0  3  0  0  0  0  0  0
  -30.4700  -19.2280   20.4910 C   0  0  2  0  0  0  0  0  0  0  0  0
  -30.1850  -19.0440   22.0020 C   0  0  0  0  0  0  0  0  0  0  0  0
  -31.1630  -19.2660   22.8790 N   0  0  0  0  0  0  0  0  0  0  0  0
  -29.0690  -18.7090   22.3900 O   0  0  0  0  0  0  0  0  0  0  0  0
  -32.0860  -19.5270   22.5540 H   0  0  0  0  0  0  0  0  0  0  0  0
  -30.9920  -19.1610   23.8710 H   0  0  0  0  0  0  0  0  0  0  0  0
  -29.1930  -23.3490   19.6480 C   0  0  0  0  0  2  0  0  0  0  0  0
  -28.6370  -24.7430   20.4380 C   0  0  0  0  0  2  0  0  0  0  0  0
  -28.6020  -26.2160   19.9460 O   0  0  0  0  0  0  0  0  0  0  0  0
  -24.7080  -31.6900   23.0340 C   0  0  0  0  0  0  0  0  0  0  0  0
  -27.4610  -27.0970   19.9940 C   0  0  0  0  0  0  0  0  0  0  0  0
  -23.5570  -30.2920   21.3580 C   0  0  0  0  0  3  0  0  0  0  0  0
  -25.0650  -28.7540   19.9460 C   0  0  0  0  0  0  0  0  0  0  0  0
  -26.1040  -30.6200   21.2310 C   0  0  0  0  0  2  0  0  0  0  0  0
  -26.2230  -29.2390   20.5660 C   0  0  0  0  0  0  0  0  0  0  0  0
  -27.4220  -28.4360   20.5620 C   0  0  0  0  0  3  0  0  0  0  0  0
  -26.2640  -26.6880   19.3690 C   0  0  0  0  0  3  0  0  0  0  0  0
  -25.0890  -27.4840   19.3460 C   0  0  0  0  0  3  0  0  0  0  0  0
  -23.8150  -29.6240   19.9810 C   0  0  0  0  0  2  0  0  0  0  0  0
  -24.8060  -30.8880   21.9290 N   0  0  0  0  0  0  0  0  0  0  0  0
  -23.6120  -31.9550   23.5510 O   0  0  0  0  0  0  0  0  0  0  0  0
  -22.8850  -29.2660   22.3020 C   0  0  0  0  0  0  0  0  0  0  0  0
  -21.5550  -29.1010   22.1770 N   0  0  0  0  0  0  0  0  0  0  0  0
  -23.5620  -28.6140   23.1010 O   0  0  0  0  0  0  0  0  0  0  0  0
  -21.0630  -29.6770   21.5070 H   0  0  0  0  0  0  0  0  0  0  0  0
  -18.1700  -27.9270   22.7010 C   0  0  0  0  0  0  0  0  0  0  0  0
  -20.7350  -28.1430   22.9270 C   0  0  0  0  0  3  0  0  0  0  0  0
  -20.8060  -26.7340   22.2960 C   0  0  0  0  0  2  0  0  0  0  0  0
  -19.6830  -26.4670   21.2890 C   0  0  0  0  0  2  0  0  0  0  0  0
  -18.3170  -26.6030   21.9680 C   0  0  0  0  0  2  0  0  0  0  0  0
  -19.3070  -28.6570   23.1360 C   0  0  0  0  0  0  0  0  0  0  0  0
  -19.1200  -29.8990   23.7800 C   0  0  0  0  0  3  0  0  0  0  0  0
  -17.8260  -30.4080   23.9940 C   0  0  0  0  0  3  0  0  0  0  0  0
  -16.7010  -29.6740   23.5760 C   0  0  0  0  0  3  0  0  0  0  0  0
  -16.8750  -28.4350   22.9340 C   0  0  0  0  0  3  0  0  0  0  0  0
  -25.9720  -32.3350   23.6850 C   0  0  0  0  0  3  0  0  0  0  0  0
  -26.5140  -31.5240   24.9260 C   0  0  1  0  0  0  0  0  0  0  0  0
  -25.4260  -31.2100   25.9760 C   0  0  0  0  0  1  0  0  0  0  0  0
  -27.1420  -30.1800   24.4830 C   0  0  0  0  0  1  0  0  0  0  0  0
  -27.6310  -32.3260   25.6350 C   0  0  0  0  0  1  0  0  0  0  0  0
  -25.6180  -33.7070   24.0820 N   0  0  0  0  0  0  0  0  0  0  0  0
  -25.9130  -34.8080   23.3790 C   0  0  0  0  0  0  0  0  0  0  0  0
  -26.5840  -34.7800   22.3430 O   0  0  0  0  0  0  0  0  0  0  0  0
  -25.0240  -33.8010   24.8920 H   0  0  0  0  0  0  0  0  0  0  0  0
  -24.1300  -36.5620   23.1260 C   0  0  0  0  0  1  0  0  0  0  0  0
  -25.3860  -36.1540   23.9120 C   0  0  0  0  0  3  0  0  0  0  0  0
  -27.4890  -37.0680   24.7970 C   0  0  0  0  0  1  0  0  0  0  0  0
  -26.3830  -37.2430   23.8580 N   0  0  0  0  0  0  0  0  0  0  0  0
  -25.9450  -38.1420   24.0480 H   0  0  0  0  0  0  0  0  0  0  0  0
  -30.8420  -17.7150   19.7780 C   0  0  0  0  0  2  0  0  0  0  0  0
  -31.1230  -14.9800   19.9060 C   0  0  0  0  0  0  0  0  0  0  0  0
  -30.8030  -12.6720   18.9080 C   0  0  0  0  0  2  0  0  0  0  0  0
  -29.7920  -12.7080   17.7410 C   0  0  0  0  0  2  0  0  0  0  0  0
  -28.3630  -12.5100   18.2780 C   0  0  0  0  0  2  0  0  0  0  0  0
  -28.0550  -13.3960   19.5140 C   0  0  0  0  0  3  0  0  0  0  0  0
  -29.2000  -13.3720   20.5580 C   0  0  0  0  0  2  0  0  0  0  0  0
  -30.4410  -13.7600   19.8710 N   0  0  0  0  0  0  0  0  0  0  0  0
  -32.2810  -14.9850   19.4810 O   0  0  0  0  0  0  0  0  0  0  0  0
  -30.4810  -16.2210   20.2040 N   0  0  0  0  0  0  0  0  0  0  0  0
  -29.5360  -16.1060   20.5420 H   0  0  0  0  0  0  0  0  0  0  0  0
  -25.7380  -13.9640   20.4630 C   0  0  0  0  0  0  0  0  0  0  0  0
  -24.6910  -13.1900   20.8720 C   0  0  0  0  0  0  0  0  0  0  0  0
  -25.1210  -11.8340   20.7340 C   0  0  0  0  0  0  0  0  0  0  0  0
  -26.7490  -13.0870   20.1000 N   0  0  0  0  0  0  0  0  0  0  0  0
  -26.3870  -11.7950   20.3250 N   0  0  0  0  0  0  0  0  0  0  0  0
  -24.3790  -10.5790   20.9190 C   0  0  0  0  0  0  0  0  0  0  0  0
  -24.7760   -9.6110   21.8690 C   0  0  0  0  0  3  0  0  0  0  0  0
  -24.0320   -8.4220   22.0380 C   0  0  0  0  0  3  0  0  0  0  0  0
  -22.8740   -8.1910   21.2530 C   0  0  0  0  0  0  0  0  0  0  0  0
  -22.4960   -9.1470   20.2910 C   0  0  0  0  0  3  0  0  0  0  0  0
  -23.2440  -10.3260   20.1230 C   0  0  0  0  0  3  0  0  0  0  0  0
  -22.1110   -7.0520   21.3280 O   0  0  0  0  0  0  0  0  0  0  0  0
  -21.9070   -6.4000   22.5160 C   0  0  0  0  0  0  0  0  0  0  0  0
  -21.3130   -7.0350   23.6310 C   0  0  0  0  0  3  0  0  0  0  0  0
  -21.0630   -6.3050   24.8070 C   0  0  0  0  0  3  0  0  0  0  0  0
  -21.3940   -4.9400   24.8770 C   0  0  0  0  0  0  0  0  0  0  0  0
  -21.9840   -4.3020   23.7690 C   0  0  0  0  0  3  0  0  0  0  0  0
  -22.2390   -5.0300   22.5920 C   0  0  0  0  0  0  0  0  0  0  0  0
  -22.7850   -4.4020   21.5230 F   0  0  0  0  0  0  0  0  0  0  0  0
  -21.1480   -4.2360   26.0060 F   0  0  0  0  0  0  0  0  0  0  0  0
  -23.3280  -13.6790   21.2700 C   0  0  0  0  0  0  0  0  0  0  0  0
  -22.6550  -12.9780   22.1750 N   0  0  0  0  0  0  0  0  0  0  0  0
  -22.8700  -14.7290   20.8170 O   0  0  0  0  0  0  0  0  0  0  0  0
  -23.0270  -12.1230   22.5640 H   0  0  0  0  0  0  0  0  0  0  0  0
  -21.7520  -13.3060   22.4870 H   0  0  0  0  0  0  0  0  0  0  0  0
  -25.9050  -15.3430   20.3370 N   0  0  0  0  0  0  0  0  0  0  0  0
  -25.1200  -15.9690   20.5010 H   0  0  0  0  0  0  0  0  0  0  0  0
  -26.7020  -15.8070   19.9220 H   0  0  0  0  0  0  0  0  0  0  0  0
  2  5  1  0
  2  1  1  0
  3  4  1  0
  3  5  1  0
  4 11  1  0
  4  1  1  0
  5 54  1  6
  5  6  1  0
  6  8  2  0
  6  7  1  0
  7 10  1  0
  9  7  1  0
 11 12  1  0
 13 15  1  0
 13 12  1  0
 14 25  2  0
 15 20  1  0
 16 24  1  0
 16 26  1  0
 17 23  1  0
 17 19  1  0
 18 24  1  0
 19 18  1  0
 20 19  2  0
 21 15  2  0
 22 21  1  0
 22 17  2  0
 23 16  1  0
 24 14  1  0
 26 28  2  0
 27 26  1  0
 29 27  1  0
 30 39  2  0
 30 35  1  0
 31 27  1  0
 31 35  1  0
 32 31  1  0
 33 34  1  0
 33 32  1  0
 34 30  1  0
 35 36  2  0
 36 37  1  0
 38 37  2  0
 39 38  1  0
 40 14  1  0
 40 45  1  0
 40 41  1  0
 41 44  1  1
 41 42  1  0
 43 41  1  0
 45 48  1  0
 46 50  1  0
 46 45  1  0
 47 46  2  0
 50 49  1  0
 52 50  1  0
 52 53  1  0
 52 51  1  0
 54 63  1  0
 55 63  1  0
 56 61  1  0
 57 58  1  0
 57 56  1  0
 59 58  1  0
 59 68  1  0
 59 60  1  0
 61 55  1  0
 61 60  1  0
 62 55  2  0
 63 64  1  0
 65 66  2  0
 66 85  1  0
 67 66  1  0
 67 70  1  0
 68 69  1  0
 68 65  1  0
 69 67  2  0
 70 71  1  0
 71 72  2  0
 73 76  1  0
 73 72  1  0
 74 73  2  0
 75 74  1  0
 75 70  2  0
 76 77  1  0
 77 82  2  0
 77 78  1  0
 78 79  2  0
 79 80  1  0
 80 84  1  0
 81 80  2  0
 82 81  1  0
 83 82  1  0
 85 86  1  0
 86 89  1  0
 86 88  1  0
 87 85  2  0
 90 65  1  0
 90 91  1  0
 92 90  1  0
M  ISO  4  12 101  13 101  55 100  63 100
M  END
>  <TORSDO>  (45) 
F 20

>  <SCORE>  (45) 
-12.446

>  <name>  (45) 
44

>  <ligand_id>  (45) 
44

>  <original_smiles>  (45) 
[H]c1c([H])c([H])c2c(c1[H])C([H])([H])C([H])([H])C([H])([H])C2([H])N([H])C(=O)C1([H])N(C(=O)C([H])(N([H])C(=O)C([H])(N([H])C([H])([H])[H])C([H])([H])[H])C(C([H])([H])[H])(C([H])([H])[H])C([H])([H])[H])C([H])([H])c2c([H])c(OC([H])([H])C([H])([H])C3([H])C([H])([H])C([H])([H])C(C(=O)N([H])[H])(C([H])([H])N([H])C(=O)N4C([H])([H])C([H])([H])C([H])([H])C([H])(n5nc(-c6c([H])c([H])c(Oc7c([H])c([H])c(F)c([H])c7F)c([H])c6[H])c(C(=O)N([H])[H])c5N([H])[H])C4([H])[H])C3([H])[H])c([H])c([H])c2C1([H])[H]

>  <smiles>  (45) 
[H]c1c([H])c([H])c2c(c1[H])C([H])([H])C([H])([H])C([H])([H])C2([H])N([H])C(=O)C1([H])N(C(=O)C([H])(N([H])C(=O)C([H])(N([H])C([H])([H])[H])C([H])([H])[H])C(C([H])([H])[H])(C([H])([H])[H])C([H])([H])[H])C([H])([H])c2c([H])c(OC([H])([H])C([H])([H])C3([H])C([H])([H])C([H])([H])C(C(=O)N([H])[H])(C([H])([H])N([H])C(=O)N4C([H])([H])C([H])([H])C([H])([H])C([H])(n5nc(-c6c([H])c([H])c(Oc7c([H])c([H])c(F)c([H])c7F)c([H])c6[H])c(C(=O)N([H])[H])c5N([H])[H])C4([H])[H])C3([H])[H])c([H])c([H])c2C1([H])[H]

$$$$
45:0:0
     RDKit          3D

 92101  0  0  1  0  0  0  0  0999 V2000
  -27.7170  -22.2690   20.0280 C   0  0  0  0  0  2  0  0  0  0  0  0
  -28.6570  -23.4070   20.3930 C   0  0  0  0  0  3  0  0  0  0  0  0
  -29.1490  -21.9200   19.8140 C   0  0  2  0  0  0  0  0  0  0  0  0
  -31.0470  -21.9480   15.9210 C   0  0  0  0  0  3  0  0  0  0  0  0
  -31.5780  -22.7190   16.9730 C   0  0  0  0  0  3  0  0  0  0  0  0
  -29.8800  -21.1880   16.1250 C   0  0  0  0  0  3  0  0  0  0  0  0
  -30.9440  -22.7140   18.2320 C   0  0  0  0  0  3  0  0  0  0  0  0
  -29.2350  -21.2050   17.3780 C   0  0  0  0  0  3  0  0  0  0  0  0
  -29.7720  -21.9540   18.4480 C   0  0  0  0  0  0  0  0  0  0  0  0
  -28.1230  -24.8220   19.7330 C   0  0  0  0  0  2  0  0  0  0  0  0
  -28.2520  -26.2760   20.2370 O   0  0  0  0  0  0  0  0  0  0  0  0
  -24.5900  -31.8980   23.2380 C   0  0  0  0  0  0  0  0  0  0  0  0
  -27.1760  -27.2270   20.1650 C   0  0  0  0  0  0  0  0  0  0  0  0
  -23.3870  -30.5020   21.6040 C   0  0  0  0  0  3  0  0  0  0  0  0
  -24.8310  -28.9400   20.1690 C   0  0  0  0  0  0  0  0  0  0  0  0
  -25.9380  -30.7740   21.4330 C   0  0  0  0  0  2  0  0  0  0  0  0
  -26.0090  -29.3860   20.7830 C   0  0  0  0  0  0  0  0  0  0  0  0
  -27.1770  -28.5410   20.7770 C   0  0  0  0  0  3  0  0  0  0  0  0
  -25.9770  -26.8960   19.4900 C   0  0  0  0  0  3  0  0  0  0  0  0
  -24.8270  -27.7050   19.5090 C   0  0  0  0  0  3  0  0  0  0  0  0
  -23.6030  -29.8320   20.2220 C   0  0  0  0  0  2  0  0  0  0  0  0
  -24.6600  -31.0780   22.1470 N   0  0  0  0  0  0  0  0  0  0  0  0
  -23.5050  -32.1790   23.7690 O   0  0  0  0  0  0  0  0  0  0  0  0
  -22.7140  -29.4900   22.5640 C   0  0  0  0  0  0  0  0  0  0  0  0
  -21.3860  -29.3140   22.4420 N   0  0  0  0  0  0  0  0  0  0  0  0
  -23.3900  -28.8620   23.3830 O   0  0  0  0  0  0  0  0  0  0  0  0
  -20.8910  -29.8760   21.7630 H   0  0  0  0  0  0  0  0  0  0  0  0
  -18.0070  -28.1140   22.9520 C   0  0  0  0  0  0  0  0  0  0  0  0
  -20.5680  -28.3780   23.2170 C   0  0  0  0  0  3  0  0  0  0  0  0
  -20.6690  -26.9420   22.6520 C   0  0  0  0  0  2  0  0  0  0  0  0
  -19.5690  -26.6150   21.6380 C   0  0  0  0  0  2  0  0  0  0  0  0
  -18.1860  -26.7630   22.2790 C   0  0  0  0  0  2  0  0  0  0  0  0
  -19.1270  -28.8780   23.3800 C   0  0  0  0  0  0  0  0  0  0  0  0
  -18.9070  -30.1430   23.9670 C   0  0  0  0  0  3  0  0  0  0  0  0
  -17.6010  -30.6450   24.1280 C   0  0  0  0  0  3  0  0  0  0  0  0
  -16.4980  -29.8800   23.7150 C   0  0  0  0  0  3  0  0  0  0  0  0
  -16.7010  -28.6160   23.1340 C   0  0  0  0  0  3  0  0  0  0  0  0
  -25.8700  -32.5360   23.8550 C   0  0  0  0  0  3  0  0  0  0  0  0
  -25.5610  -33.9400   24.1690 N   0  0  0  0  0  0  0  0  0  0  0  0
  -25.8980  -34.9860   23.4060 C   0  0  0  0  0  0  0  0  0  0  0  0
  -26.5680  -34.8740   22.3750 O   0  0  0  0  0  0  0  0  0  0  0  0
  -24.9640  -34.1020   24.9670 H   0  0  0  0  0  0  0  0  0  0  0  0
  -24.1800  -36.7890   23.0410 C   0  0  0  0  0  1  0  0  0  0  0  0
  -25.4190  -36.3810   23.8540 C   0  0  0  0  0  3  0  0  0  0  0  0
  -27.5550  -37.2650   24.6800 C   0  0  0  0  0  1  0  0  0  0  0  0
  -26.4540  -37.4290   23.7360 N   0  0  0  0  0  0  0  0  0  0  0  0
  -26.0490  -38.3500   23.8770 H   0  0  0  0  0  0  0  0  0  0  0  0
  -26.3750  -31.7790   25.1430 C   0  0  1  0  0  0  0  0  0  0  0  0
  -25.2750  -31.5650   26.2090 C   0  0  0  0  0  1  0  0  0  0  0  0
  -26.9510  -30.3930   24.7750 C   0  0  0  0  0  1  0  0  0  0  0  0
  -27.5250  -32.5740   25.8010 C   0  0  0  0  0  1  0  0  0  0  0  0
  -29.6690  -20.5440   20.5680 C   0  0  0  0  0  2  0  0  0  0  0  0
  -29.4690  -18.9830   19.9960 C   0  0  0  0  0  3  0  0  0  0  0  0
  -30.1690  -17.6350   20.6950 C   0  0  0  0  0  3  0  0  0  0  0  0
  -30.5460  -14.9490   20.3480 C   0  0  0  0  0  0  0  0  0  0  0  0
  -30.3930  -12.6180   19.3890 C   0  0  0  0  0  2  0  0  0  0  0  0
  -29.4590  -12.5760   18.1580 C   0  0  0  0  0  2  0  0  0  0  0  0
  -27.9940  -12.3710   18.5890 C   0  0  0  0  0  2  0  0  0  0  0  0
  -27.5780  -13.3050   19.7550 C   0  0  0  0  0  3  0  0  0  0  0  0
  -28.6340  -13.3210   20.8800 C   0  0  0  0  0  2  0  0  0  0  0  0
  -29.9140  -13.7120   20.2700 N   0  0  0  0  0  0  0  0  0  0  0  0
  -31.7620  -14.9980   20.1640 O   0  0  0  0  0  0  0  0  0  0  0  0
  -29.7870  -16.1390   20.4060 N   0  0  0  0  0  0  0  0  0  0  0  0
  -28.7940  -15.9660   20.3440 H   0  0  0  0  0  0  0  0  0  0  0  0
  -25.1970  -13.8770   20.4940 C   0  0  0  0  0  0  0  0  0  0  0  0
  -24.1330  -13.0970   20.8600 C   0  0  0  0  0  0  0  0  0  0  0  0
  -24.6050  -11.7480   20.8370 C   0  0  0  0  0  0  0  0  0  0  0  0
  -26.2440  -13.0010   20.2550 N   0  0  0  0  0  0  0  0  0  0  0  0
  -25.8980  -11.7180   20.5350 N   0  0  0  0  0  0  0  0  0  0  0  0
  -23.8830  -10.4840   21.0230 C   0  0  0  0  0  0  0  0  0  0  0  0
  -24.3090   -9.5220   21.9640 C   0  0  0  0  0  3  0  0  0  0  0  0
  -23.5910   -8.3210   22.1420 C   0  0  0  0  0  3  0  0  0  0  0  0
  -22.4270   -8.0720   21.3760 C   0  0  0  0  0  0  0  0  0  0  0  0
  -22.0190   -9.0210   20.4230 C   0  0  0  0  0  3  0  0  0  0  0  0
  -22.7390  -10.2140   20.2450 C   0  0  0  0  0  3  0  0  0  0  0  0
  -21.6760   -6.9250   21.4650 O   0  0  0  0  0  0  0  0  0  0  0  0
  -21.6160   -6.1910   22.6210 C   0  0  0  0  0  0  0  0  0  0  0  0
  -21.1610   -6.7470   23.8380 C   0  0  0  0  0  3  0  0  0  0  0  0
  -21.0540   -5.9370   24.9860 C   0  0  0  0  0  3  0  0  0  0  0  0
  -21.3840   -4.5700   24.9180 C   0  0  0  0  0  0  0  0  0  0  0  0
  -21.8290   -4.0120   23.7060 C   0  0  0  0  0  3  0  0  0  0  0  0
  -21.9410   -4.8190   22.5610 C   0  0  0  0  0  0  0  0  0  0  0  0
  -22.3500   -4.2720   21.3910 F   0  0  0  0  0  0  0  0  0  0  0  0
  -21.2710   -3.7900   26.0150 F   0  0  0  0  0  0  0  0  0  0  0  0
  -22.7310  -13.5660   21.1180 C   0  0  0  0  0  0  0  0  0  0  0  0
  -21.9970  -12.8670   21.9760 N   0  0  0  0  0  0  0  0  0  0  0  0
  -22.2930  -14.5870   20.5890 O   0  0  0  0  0  0  0  0  0  0  0  0
  -22.3680  -12.0390   22.4200 H   0  0  0  0  0  0  0  0  0  0  0  0
  -21.0540  -13.1550   22.1890 H   0  0  0  0  0  0  0  0  0  0  0  0
  -25.3560  -15.2480   20.3140 N   0  0  0  0  0  0  0  0  0  0  0  0
  -24.5810  -15.8950   20.3980 H   0  0  0  0  0  0  0  0  0  0  0  0
  -26.1980  -15.6850   19.9630 H   0  0  0  0  0  0  0  0  0  0  0  0
  1  2  1  0
  2 10  1  0
  3  1  1  0
  3  2  1  0
  3 52  1  1
  4  6  2  0
  4  5  1  0
  5  7  2  0
  6  8  1  0
  7  9  1  0
  8  9  2  0
  9  3  1  0
 10 11  1  0
 12 23  2  0
 13 11  1  0
 13 18  1  0
 14 22  1  0
 14 24  1  0
 15 21  1  0
 15 17  1  0
 16 22  1  0
 17 16  1  0
 18 17  2  0
 19 20  1  0
 19 13  2  0
 20 15  2  0
 21 14  1  0
 22 12  1  0
 24 26  2  0
 25 24  1  0
 27 25  1  0
 28 37  2  0
 28 33  1  0
 29 25  1  0
 29 33  1  0
 30 29  1  0
 31 32  1  0
 31 30  1  0
 32 28  1  0
 33 34  2  0
 34 35  1  0
 36 35  2  0
 37 36  1  0
 38 12  1  0
 38 39  1  0
 38 48  1  0
 39 42  1  0
 40 44  1  0
 40 39  1  0
 41 40  2  0
 44 43  1  0
 46 44  1  0
 46 47  1  0
 46 45  1  0
 48 51  1  1
 48 49  1  0
 50 48  1  0
 53 52  1  0
 53 54  2  0
 55 63  1  0
 56 61  1  0
 57 58  1  0
 57 56  1  0
 59 58  1  0
 59 68  1  0
 59 60  1  0
 61 55  1  0
 61 60  1  0
 62 55  2  0
 63 54  1  0
 64 63  1  0
 65 66  2  0
 66 85  1  0
 67 66  1  0
 67 70  1  0
 68 65  1  0
 68 69  1  0
 69 67  2  0
 70 71  1  0
 71 72  2  0
 73 76  1  0
 73 72  1  0
 74 73  2  0
 75 74  1  0
 75 70  2  0
 76 77  1  0
 77 78  1  0
 78 79  2  0
 80 79  1  0
 80 84  1  0
 81 80  2  0
 82 77  2  0
 82 81  1  0
 83 82  1  0
 85 86  1  0
 86 89  1  0
 86 88  1  0
 87 85  2  0
 90 91  1  0
 90 65  1  0
 92 90  1  0
M  ISO  4  10 101  11 101  55 100  63 100
M  END
>  <TORSDO>  (46) 
F 21

>  <SCORE>  (46) 
-13.447

>  <name>  (46) 
45

>  <ligand_id>  (46) 
45

>  <original_smiles>  (46) 
[H]c1c([H])c([H])c(C2(C([H])([H])C([H])([H])C([H])([H])N([H])C(=O)N3C([H])([H])C([H])([H])C([H])([H])C([H])(n4nc(-c5c([H])c([H])c(Oc6c([H])c([H])c(F)c([H])c6F)c([H])c5[H])c(C(=O)N([H])[H])c4N([H])[H])C3([H])[H])C([H])([H])C2([H])C([H])([H])Oc2c([H])c([H])c3c(c2[H])C([H])([H])N(C(=O)C([H])(N([H])C(=O)C([H])(N([H])C([H])([H])[H])C([H])([H])[H])C(C([H])([H])[H])(C([H])([H])[H])C([H])([H])[H])C([H])(C(=O)N([H])C2([H])c4c([H])c([H])c([H])c([H])c4C([H])([H])C([H])([H])C2([H])[H])C3([H])[H])c([H])c1[H]

>  <smiles>  (46) 
[H]c1c([H])c([H])c(C2(C([H])([H])C([H])([H])C([H])([H])N([H])C(=O)N3C([H])([H])C([H])([H])C([H])([H])C([H])(n4nc(-c5c([H])c([H])c(Oc6c([H])c([H])c(F)c([H])c6F)c([H])c5[H])c(C(=O)N([H])[H])c4N([H])[H])C3([H])[H])C([H])([H])C2([H])C([H])([H])Oc2c([H])c([H])c3c(c2[H])C([H])([H])N(C(=O)C([H])(N([H])C(=O)C([H])(N([H])C([H])([H])[H])C([H])([H])[H])C(C([H])([H])[H])(C([H])([H])[H])C([H])([H])[H])C([H])(C(=O)N([H])C2([H])c4c([H])c([H])c([H])c([H])c4C([H])([H])C([H])([H])C2([H])[H])C3([H])[H])c([H])c1[H]

$$$$
46:0:0
     RDKit          3D

 94103  0  0  1  0  0  0  0  0999 V2000
  -30.0930  -19.0130   21.3390 C   0  0  0  0  0  2  0  0  0  0  0  0
  -29.5650  -19.5740   19.1320 C   0  0  0  0  0  2  0  0  0  0  0  0
  -29.4620  -20.5040   21.2120 C   0  0  0  0  0  3  0  0  0  0  0  0
  -30.3060  -18.2700   19.9640 C   0  0  0  0  0  3  0  0  0  0  0  0
  -29.7070  -21.1650   19.8010 C   0  0  1  0  0  0  0  0  0  0  0  0
  -30.8120  -15.3330   20.0310 C   0  0  0  0  0  0  0  0  0  0  0  0
  -30.7870  -12.8170   19.3790 C   0  0  0  0  0  2  0  0  0  0  0  0
  -29.8970  -12.4890   18.1530 C   0  0  0  0  0  2  0  0  0  0  0  0
  -28.4370  -12.2700   18.5830 C   0  0  0  0  0  2  0  0  0  0  0  0
  -27.9600  -13.3510   19.5860 C   0  0  0  0  0  3  0  0  0  0  0  0
  -28.9770  -13.6060   20.7180 C   0  0  0  0  0  2  0  0  0  0  0  0
  -30.2260  -14.0360   20.0690 N   0  0  0  0  0  0  0  0  0  0  0  0
  -32.0420  -15.2990   19.8850 O   0  0  0  0  0  0  0  0  0  0  0  0
  -30.0550  -16.6100   19.9630 N   0  0  0  0  0  0  0  0  0  0  0  0
  -29.0700  -16.4020   19.9920 H   0  0  0  0  0  0  0  0  0  0  0  0
  -25.6050  -14.0160   20.3000 C   0  0  0  0  0  0  0  0  0  0  0  0
  -24.5070  -13.2880   20.6630 C   0  0  0  0  0  0  0  0  0  0  0  0
  -24.9190  -11.9190   20.6580 C   0  0  0  0  0  0  0  0  0  0  0  0
  -26.6150  -13.0960   20.0840 N   0  0  0  0  0  0  0  0  0  0  0  0
  -26.2140  -11.8310   20.3680 N   0  0  0  0  0  0  0  0  0  0  0  0
  -24.1390  -10.6900   20.8520 C   0  0  0  0  0  0  0  0  0  0  0  0
  -24.5610   -9.6760   21.7400 C   0  0  0  0  0  3  0  0  0  0  0  0
  -23.7800   -8.5160   21.9250 C   0  0  0  0  0  3  0  0  0  0  0  0
  -22.5610   -8.3620   21.2230 C   0  0  0  0  0  0  0  0  0  0  0  0
  -22.1560   -9.3630   20.3230 C   0  0  0  0  0  3  0  0  0  0  0  0
  -22.9390  -10.5140   20.1350 C   0  0  0  0  0  3  0  0  0  0  0  0
  -21.7510   -7.2560   21.3200 O   0  0  0  0  0  0  0  0  0  0  0  0
  -21.8180   -6.4070   22.3960 C   0  0  0  0  0  0  0  0  0  0  0  0
  -21.6170   -6.8610   23.7180 C   0  0  0  0  0  3  0  0  0  0  0  0
  -21.6260   -5.9420   24.7860 C   0  0  0  0  0  3  0  0  0  0  0  0
  -21.8270   -4.5710   24.5350 C   0  0  0  0  0  0  0  0  0  0  0  0
  -22.0220   -4.1170   23.2190 C   0  0  0  0  0  3  0  0  0  0  0  0
  -22.0140   -5.0320   22.1520 C   0  0  0  0  0  0  0  0  0  0  0  0
  -22.1810   -4.5870   20.8840 F   0  0  0  0  0  0  0  0  0  0  0  0
  -21.8280   -3.6870   25.5600 F   0  0  0  0  0  0  0  0  0  0  0  0
  -23.1260  -13.8260   20.8980 C   0  0  0  0  0  0  0  0  0  0  0  0
  -22.3670  -13.1960   21.7880 N   0  0  0  0  0  0  0  0  0  0  0  0
  -22.7310  -14.8420   20.3290 O   0  0  0  0  0  0  0  0  0  0  0  0
  -22.6990  -12.3740   22.2680 H   0  0  0  0  0  0  0  0  0  0  0  0
  -21.4390  -13.5420   21.9890 H   0  0  0  0  0  0  0  0  0  0  0  0
  -25.8230  -15.3780   20.1030 N   0  0  0  0  0  0  0  0  0  0  0  0
  -25.0750  -16.0570   20.1930 H   0  0  0  0  0  0  0  0  0  0  0  0
  -26.6770  -15.7760   19.7390 H   0  0  0  0  0  0  0  0  0  0  0  0
  -30.3180  -23.1930   24.5380 C   0  0  0  0  0  3  0  0  0  0  0  0
  -29.2340  -23.4460   23.6750 C   0  0  0  0  0  3  0  0  0  0  0  0
  -31.1270  -22.0590   24.3330 C   0  0  0  0  0  3  0  0  0  0  0  0
  -28.9610  -22.5660   22.6100 C   0  0  0  0  0  3  0  0  0  0  0  0
  -30.8500  -21.1780   23.2690 C   0  0  0  0  0  3  0  0  0  0  0  0
  -29.7670  -21.4260   22.3940 C   0  0  0  0  0  0  0  0  0  0  0  0
  -31.6780  -21.8770   18.2300 C   0  0  0  0  0  1  0  0  0  0  0  0
  -31.2070  -21.5490   19.6580 C   0  0  0  0  0  2  0  0  0  0  0  0
  -28.8260  -22.6970   19.3760 C   0  0  0  0  0  2  0  0  0  0  0  0
  -28.5860  -24.3390   20.1000 C   0  0  0  0  0  2  0  0  0  0  0  0
  -28.5230  -25.9210   19.6330 O   0  0  0  0  0  0  0  0  0  0  0  0
  -24.7730  -31.5640   23.0330 C   0  0  0  0  0  0  0  0  0  0  0  0
  -27.4420  -26.9380   19.7480 C   0  0  0  0  0  0  0  0  0  0  0  0
  -23.5990  -30.2150   21.3410 C   0  0  0  0  0  3  0  0  0  0  0  0
  -25.0740  -28.7280   19.8290 C   0  0  0  0  0  0  0  0  0  0  0  0
  -26.1530  -30.5260   21.1640 C   0  0  0  0  0  2  0  0  0  0  0  0
  -26.2600  -29.1490   20.4450 C   0  0  0  0  0  0  0  0  0  0  0  0
  -27.4390  -28.2820   20.3700 C   0  0  0  0  0  3  0  0  0  0  0  0
  -26.2160  -26.6590   19.1060 C   0  0  0  0  0  3  0  0  0  0  0  0
  -25.0750  -27.5030   19.1390 C   0  0  0  0  0  3  0  0  0  0  0  0
  -23.8270  -29.6040   19.9320 C   0  0  0  0  0  2  0  0  0  0  0  0
  -24.8640  -30.7940   21.9010 N   0  0  0  0  0  0  0  0  0  0  0  0
  -23.6830  -31.7860   23.5850 O   0  0  0  0  0  0  0  0  0  0  0  0
  -22.9540  -29.1500   22.2660 C   0  0  0  0  0  0  0  0  0  0  0  0
  -21.6300  -28.9380   22.1410 N   0  0  0  0  0  0  0  0  0  0  0  0
  -23.6500  -28.5160   23.0620 O   0  0  0  0  0  0  0  0  0  0  0  0
  -21.1200  -29.5040   21.4770 H   0  0  0  0  0  0  0  0  0  0  0  0
  -18.3130  -27.5310   22.5700 C   0  0  0  0  0  0  0  0  0  0  0  0
  -20.8520  -27.9320   22.8730 C   0  0  0  0  0  3  0  0  0  0  0  0
  -21.0410  -26.5270   22.2560 C   0  0  0  0  0  2  0  0  0  0  0  0
  -19.9690  -26.1740   21.2200 C   0  0  0  0  0  2  0  0  0  0  0  0
  -18.5740  -26.2180   21.8510 C   0  0  0  0  0  2  0  0  0  0  0  0
  -19.3820  -28.3440   23.0360 C   0  0  0  0  0  0  0  0  0  0  0  0
  -19.0830  -29.5690   23.6710 C   0  0  0  0  0  3  0  0  0  0  0  0
  -17.7480  -29.9830   23.8440 C   0  0  0  0  0  3  0  0  0  0  0  0
  -16.6950  -29.1690   23.3930 C   0  0  0  0  0  3  0  0  0  0  0  0
  -16.9790  -27.9450   22.7610 C   0  0  0  0  0  3  0  0  0  0  0  0
  -26.0310  -32.2160   23.6800 C   0  0  0  0  0  3  0  0  0  0  0  0
  -26.5680  -31.4180   24.9330 C   0  0  1  0  0  0  0  0  0  0  0  0
  -25.4860  -31.1300   26.0020 C   0  0  0  0  0  1  0  0  0  0  0  0
  -27.1690  -30.0590   24.5040 C   0  0  0  0  0  1  0  0  0  0  0  0
  -27.7110  -32.2110   25.6080 C   0  0  0  0  0  1  0  0  0  0  0  0
  -25.6790  -33.5930   24.0710 N   0  0  0  0  0  0  0  0  0  0  0  0
  -25.9890  -34.6930   23.3710 C   0  0  0  0  0  0  0  0  0  0  0  0
  -26.6610  -34.6580   22.3380 O   0  0  0  0  0  0  0  0  0  0  0  0
  -25.0820  -33.6930   24.8770 H   0  0  0  0  0  0  0  0  0  0  0  0
  -24.2080  -36.4570   23.1290 C   0  0  0  0  0  1  0  0  0  0  0  0
  -25.4720  -36.0460   23.9010 C   0  0  0  0  0  3  0  0  0  0  0  0
  -27.5910  -36.9590   24.7420 C   0  0  0  0  0  1  0  0  0  0  0  0
  -26.4730  -37.1340   23.8200 N   0  0  0  0  0  0  0  0  0  0  0  0
  -26.0410  -38.0330   24.0100 H   0  0  0  0  0  0  0  0  0  0  0  0
  2  5  1  0
  2  4  1  0
  3  1  1  0
  3 49  1  0
  4 14  1  0
  4  1  1  0
  5 52  1  6
  5  3  1  0
  6 12  1  0
  7 12  1  0
  8  9  1  0
  8  7  1  0
 10  9  1  0
 10 19  1  0
 10 11  1  0
 12 11  1  0
 13  6  2  0
 14 15  1  0
 14  6  1  0
 16 17  2  0
 17 36  1  0
 18 17  1  0
 18 21  1  0
 19 16  1  0
 19 20  1  0
 20 18  2  0
 21 22  1  0
 22 23  2  0
 24 27  1  0
 24 23  1  0
 25 24  2  0
 26 25  1  0
 26 21  2  0
 27 28  1  0
 28 29  1  0
 29 30  2  0
 31 30  1  0
 31 35  1  0
 32 31  2  0
 33 28  2  0
 33 32  1  0
 34 33  1  0
 36 37  1  0
 37 40  1  0
 37 39  1  0
 38 36  2  0
 41 42  1  0
 41 16  1  0
 43 41  1  0
 45 44  2  0
 46 44  1  0
 47 45  1  0
 48 46  2  0
 49 47  2  0
 49 48  1  0
 50 51  1  0
 51  5  1  0
 52 53  1  0
 54 56  1  0
 54 53  1  0
 55 66  2  0
 56 61  1  0
 57 65  1  0
 57 67  1  0
 58 64  1  0
 58 60  1  0
 59 65  1  0
 60 59  1  0
 61 60  2  0
 62 63  1  0
 62 56  2  0
 63 58  2  0
 64 57  1  0
 65 55  1  0
 67 69  2  0
 68 67  1  0
 70 68  1  0
 71 80  2  0
 71 76  1  0
 72 68  1  0
 72 76  1  0
 73 72  1  0
 74 75  1  0
 74 73  1  0
 75 71  1  0
 76 77  2  0
 77 78  1  0
 79 78  2  0
 80 79  1  0
 81 55  1  0
 81 86  1  0
 81 82  1  0
 82 85  1  1
 82 83  1  0
 84 82  1  0
 86 89  1  0
 87 91  1  0
 87 86  1  0
 88 87  2  0
 91 90  1  0
 93 91  1  0
 93 94  1  0
 93 92  1  0
M  ISO  4   6 100  14 100  53 101  54 101
M  END
>  <TORSDO>  (47) 
F 20

>  <SCORE>  (47) 
-13.612

>  <name>  (47) 
46

>  <ligand_id>  (47) 
46

>  <original_smiles>  (47) 
[H]c1c([H])c([H])c(C2([H])C([H])([H])C([H])(N([H])C(=O)N3C([H])([H])C([H])([H])C([H])([H])C([H])(n4nc(-c5c([H])c([H])c(Oc6c([H])c([H])c(F)c([H])c6F)c([H])c5[H])c(C(=O)N([H])[H])c4N([H])[H])C3([H])[H])C([H])([H])C2(C([H])([H])C([H])([H])[H])C([H])([H])C([H])([H])Oc2c([H])c([H])c3c(c2[H])C([H])([H])N(C(=O)C([H])(N([H])C(=O)C([H])(N([H])C([H])([H])[H])C([H])([H])[H])C(C([H])([H])[H])(C([H])([H])[H])C([H])([H])[H])C([H])(C(=O)N([H])C2([H])c4c([H])c([H])c([H])c([H])c4C([H])([H])C([H])([H])C2([H])[H])C3([H])[H])c([H])c1[H]

>  <smiles>  (47) 
[H]c1c([H])c([H])c(C2([H])C([H])([H])C([H])(N([H])C(=O)N3C([H])([H])C([H])([H])C([H])([H])C([H])(n4nc(-c5c([H])c([H])c(Oc6c([H])c([H])c(F)c([H])c6F)c([H])c5[H])c(C(=O)N([H])[H])c4N([H])[H])C3([H])[H])C([H])([H])C2(C([H])([H])C([H])([H])[H])C([H])([H])C([H])([H])Oc2c([H])c([H])c3c(c2[H])C([H])([H])N(C(=O)C([H])(N([H])C(=O)C([H])(N([H])C([H])([H])[H])C([H])([H])[H])C(C([H])([H])[H])(C([H])([H])[H])C([H])([H])[H])C([H])(C(=O)N([H])C2([H])c4c([H])c([H])c([H])c([H])c4C([H])([H])C([H])([H])C2([H])[H])C3([H])[H])c([H])c1[H]

$$$$
47:0:0
     RDKit          3D

 96103  0  0  1  0  0  0  0  0999 V2000
  -29.2130  -20.1720   21.8190 C   0  0  0  0  0  2  0  0  0  0  0  0
  -30.3590  -19.1570   21.9740 C   0  0  0  0  0  2  0  0  0  0  0  0
  -30.0490  -17.7780   21.3390 C   0  0  0  0  0  2  0  0  0  0  0  0
  -31.2870  -16.9590   20.8680 C   0  0  0  0  0  3  0  0  0  0  0  0
  -31.4640  -14.5610   19.9440 C   0  0  0  0  0  0  0  0  0  0  0  0
  -31.1060  -12.3100   18.9950 C   0  0  0  0  0  2  0  0  0  0  0  0
  -30.1250  -12.3760   17.8090 C   0  0  0  0  0  2  0  0  0  0  0  0
  -28.6620  -12.3140   18.2930 C   0  0  0  0  0  2  0  0  0  0  0  0
  -28.3730  -13.3010   19.4540 C   0  0  0  0  0  3  0  0  0  0  0  0
  -29.4490  -13.1730   20.5510 C   0  0  0  0  0  2  0  0  0  0  0  0
  -30.7630  -13.3980   19.9240 N   0  0  0  0  0  0  0  0  0  0  0  0
  -32.5390  -14.6870   19.3520 O   0  0  0  0  0  0  0  0  0  0  0  0
  -30.8640  -15.5660   20.6110 N   0  0  0  0  0  0  0  0  0  0  0  0
  -29.9710  -15.3140   21.0080 H   0  0  0  0  0  0  0  0  0  0  0  0
  -26.0620  -14.0510   20.3000 C   0  0  0  0  0  0  0  0  0  0  0  0
  -24.9640  -13.3430   20.7100 C   0  0  0  0  0  0  0  0  0  0  0  0
  -25.3300  -11.9650   20.6250 C   0  0  0  0  0  0  0  0  0  0  0  0
  -27.0310  -13.1070   19.9960 N   0  0  0  0  0  0  0  0  0  0  0  0
  -26.5940  -11.8460   20.2420 N   0  0  0  0  0  0  0  0  0  0  0  0
  -24.5320  -10.7480   20.8300 C   0  0  0  0  0  0  0  0  0  0  0  0
  -24.9000   -9.7770   21.7880 C   0  0  0  0  0  3  0  0  0  0  0  0
  -24.1080   -8.6240   21.9770 C   0  0  0  0  0  3  0  0  0  0  0  0
  -22.9360   -8.4340   21.2060 C   0  0  0  0  0  0  0  0  0  0  0  0
  -22.5880   -9.3930   20.2380 C   0  0  0  0  0  3  0  0  0  0  0  0
  -23.3810  -10.5380   20.0480 C   0  0  0  0  0  3  0  0  0  0  0  0
  -22.1180   -7.3340   21.3030 O   0  0  0  0  0  0  0  0  0  0  0  0
  -21.9380   -6.6730   22.4910 C   0  0  0  0  0  0  0  0  0  0  0  0
  -21.4100   -7.3200   23.6290 C   0  0  0  0  0  3  0  0  0  0  0  0
  -21.1750   -6.5880   24.8100 C   0  0  0  0  0  3  0  0  0  0  0  0
  -21.4610   -5.2090   24.8520 C   0  0  0  0  0  0  0  0  0  0  0  0
  -21.9840   -4.5630   23.7200 C   0  0  0  0  0  3  0  0  0  0  0  0
  -22.2200   -5.2930   22.5410 C   0  0  0  0  0  0  0  0  0  0  0  0
  -22.7030   -4.6620   21.4440 F   0  0  0  0  0  0  0  0  0  0  0  0
  -21.2290   -4.5040   25.9840 F   0  0  0  0  0  0  0  0  0  0  0  0
  -23.6190  -13.9040   21.0720 C   0  0  0  0  0  0  0  0  0  0  0  0
  -22.9070  -13.2470   21.9810 N   0  0  0  0  0  0  0  0  0  0  0  0
  -23.2140  -14.9580   20.5860 O   0  0  0  0  0  0  0  0  0  0  0  0
  -23.2500  -12.3930   22.3970 H   0  0  0  0  0  0  0  0  0  0  0  0
  -22.0060  -13.6030   22.2670 H   0  0  0  0  0  0  0  0  0  0  0  0
  -26.3120  -15.4110   20.1450 N   0  0  0  0  0  0  0  0  0  0  0  0
  -25.6100  -16.1210   20.3210 H   0  0  0  0  0  0  0  0  0  0  0  0
  -27.1780  -15.7930   19.7860 H   0  0  0  0  0  0  0  0  0  0  0  0
  -32.0810  -17.6500   19.7100 C   0  0  0  0  0  2  0  0  0  0  0  0
  -31.3130  -17.9780   18.4170 C   0  0  0  0  0  0  0  0  0  0  0  0
  -31.8610  -18.8680   17.6020 N   0  0  0  0  0  0  0  0  0  0  0  0
  -30.2390  -17.4440   18.1380 O   0  0  0  0  0  0  0  0  0  0  0  0
  -32.7530  -19.2880   17.8270 H   0  0  0  0  0  0  0  0  0  0  0  0
  -31.4020  -19.1130   16.7360 H   0  0  0  0  0  0  0  0  0  0  0  0
  -29.6130  -21.6000   22.2470 C   0  0  0  0  0  2  0  0  0  0  0  0
  -28.6930  -22.6130   21.6830 N   0  0  0  0  0  4  0  0  0  0  0  0
  -27.8040  -22.5490   22.1530 H   0  0  0  0  0  0  0  0  0  0  0  0
  -28.5400  -22.3860   20.7160 H   0  0  0  0  0  0  0  0  0  0  0  0
  -29.1860  -24.0070   21.7440 C   0  0  0  0  0  2  0  0  0  0  0  0
  -28.5270  -24.8810   20.6610 C   0  0  0  0  0  2  0  0  0  0  0  0
  -28.9940  -26.3480   20.6860 C   0  0  0  0  0  2  0  0  0  0  0  0
  -28.5390  -27.0110   19.5100 O   0  0  0  0  0  0  0  0  0  0  0  0
  -24.6150  -31.7570   23.0770 C   0  0  0  0  0  0  0  0  0  0  0  0
  -27.3420  -27.6640   19.6440 C   0  0  0  0  0  0  0  0  0  0  0  0
  -23.4140  -30.4130   21.3790 C   0  0  0  0  0  3  0  0  0  0  0  0
  -24.8860  -29.0330   19.8180 C   0  0  0  0  0  0  0  0  0  0  0  0
  -25.9100  -30.9010   21.1330 C   0  0  0  0  0  2  0  0  0  0  0  0
  -26.0350  -29.5770   20.4100 C   0  0  0  0  0  0  0  0  0  0  0  0
  -27.2680  -28.8970   20.3230 C   0  0  0  0  0  3  0  0  0  0  0  0
  -26.1850  -27.1260   19.0470 C   0  0  0  0  0  3  0  0  0  0  0  0
  -24.9550  -27.8050   19.1360 C   0  0  0  0  0  3  0  0  0  0  0  0
  -23.6090  -29.8300   19.9530 C   0  0  0  0  0  2  0  0  0  0  0  0
  -24.6660  -31.0340   21.9230 N   0  0  0  0  0  0  0  0  0  0  0  0
  -23.5420  -31.9500   23.6650 O   0  0  0  0  0  0  0  0  0  0  0  0
  -22.8360  -29.3070   22.2870 C   0  0  0  0  0  0  0  0  0  0  0  0
  -21.5190  -29.0750   22.1770 N   0  0  0  0  0  0  0  0  0  0  0  0
  -23.5680  -28.6620   23.0440 O   0  0  0  0  0  0  0  0  0  0  0  0
  -20.9920  -29.6500   21.5360 H   0  0  0  0  0  0  0  0  0  0  0  0
  -18.2140  -27.6910   22.6470 C   0  0  0  0  0  0  0  0  0  0  0  0
  -20.7600  -28.0540   22.9020 C   0  0  0  0  0  3  0  0  0  0  0  0
  -20.9220  -26.6670   22.2380 C   0  0  0  0  0  2  0  0  0  0  0  0
  -19.8200  -26.3510   21.2230 C   0  0  0  0  0  2  0  0  0  0  0  0
  -18.4430  -26.3930   21.8940 C   0  0  0  0  0  2  0  0  0  0  0  0
  -19.3020  -28.4790   23.1060 C   0  0  0  0  0  0  0  0  0  0  0  0
  -19.0370  -29.6950   23.7710 C   0  0  0  0  0  3  0  0  0  0  0  0
  -17.7140  -30.1260   23.9830 C   0  0  0  0  0  3  0  0  0  0  0  0
  -16.6400  -29.3350   23.5410 C   0  0  0  0  0  3  0  0  0  0  0  0
  -16.8900  -28.1180   22.8810 C   0  0  0  0  0  3  0  0  0  0  0  0
  -25.8960  -32.3960   23.6980 C   0  0  0  0  0  3  0  0  0  0  0  0
  -26.4650  -31.5820   24.9250 C   0  0  1  0  0  0  0  0  0  0  0  0
  -25.4030  -31.2640   26.0040 C   0  0  0  0  0  1  0  0  0  0  0  0
  -27.0770  -30.2420   24.4560 C   0  0  0  0  0  1  0  0  0  0  0  0
  -27.6050  -32.3810   25.6000 C   0  0  0  0  0  1  0  0  0  0  0  0
  -25.5560  -33.7670   24.0950 N   0  0  0  0  0  0  0  0  0  0  0  0
  -25.8510  -34.8610   23.3810 C   0  0  0  0  0  0  0  0  0  0  0  0
  -26.5110  -34.8220   22.3390 O   0  0  0  0  0  0  0  0  0  0  0  0
  -24.9600  -33.8700   24.9040 H   0  0  0  0  0  0  0  0  0  0  0  0
  -24.0580  -36.6090   23.1360 C   0  0  0  0  0  1  0  0  0  0  0  0
  -25.3290  -36.2130   23.9050 C   0  0  0  0  0  3  0  0  0  0  0  0
  -27.4490  -37.1370   24.7310 C   0  0  0  0  0  1  0  0  0  0  0  0
  -26.3240  -37.3030   23.8130 N   0  0  0  0  0  0  0  0  0  0  0  0
  -25.8930  -38.2040   24.0000 H   0  0  0  0  0  0  0  0  0  0  0  0
  1  2  1  0
  1 49  1  0
  3  2  1  0
  4 43  1  0
  4  3  1  0
  5 13  1  0
  6 11  1  0
  7  8  1  0
  7  6  1  0
  9  8  1  0
  9 18  1  0
  9 10  1  0
 11  5  1  0
 11 10  1  0
 12  5  2  0
 13  4  1  0
 13 14  1  0
 15 16  2  0
 16 35  1  0
 17 16  1  0
 17 20  1  0
 18 19  1  0
 18 15  1  0
 19 17  2  0
 20 21  1  0
 21 22  2  0
 23 26  1  0
 23 22  1  0
 24 23  2  0
 25 24  1  0
 25 20  2  0
 26 27  1  0
 27 32  2  0
 27 28  1  0
 28 29  2  0
 29 30  1  0
 30 34  1  0
 31 30  2  0
 32 31  1  0
 33 32  1  0
 35 36  1  0
 36 39  1  0
 36 38  1  0
 37 35  2  0
 40 15  1  0
 40 41  1  0
 42 40  1  0
 44 43  1  0
 45 47  1  0
 45 44  1  0
 46 44  2  0
 48 45  1  0
 50 53  1  0
 50 51  1  0
 50 49  1  0
 52 50  1  0
 54 55  1  0
 54 53  1  0
 56 58  1  0
 56 55  1  0
 57 68  2  0
 58 63  1  0
 59 67  1  0
 59 69  1  0
 60 66  1  0
 60 62  1  0
 61 67  1  0
 62 61  1  0
 63 62  2  0
 64 65  1  0
 64 58  2  0
 65 60  2  0
 66 59  1  0
 67 57  1  0
 69 71  2  0
 70 69  1  0
 72 70  1  0
 73 82  2  0
 73 78  1  0
 74 70  1  0
 74 78  1  0
 75 74  1  0
 76 77  1  0
 76 75  1  0
 77 73  1  0
 78 79  2  0
 79 80  1  0
 81 80  2  0
 82 81  1  0
 83 57  1  0
 83 88  1  0
 83 84  1  0
 84 87  1  1
 84 85  1  0
 86 84  1  0
 88 91  1  0
 89 93  1  0
 89 88  1  0
 90 89  2  0
 93 92  1  0
 95 93  1  0
 95 96  1  0
 95 94  1  0
M  ISO  4   5 100  13 100  55 101  56 101
M  END
>  <TORSDO>  (48) 
F 26

>  <SCORE>  (48) 
-10.257

>  <name>  (48) 
47

>  <ligand_id>  (48) 
47

>  <original_smiles>  (48) 
[H]c1c([H])c([H])c2c(c1[H])C([H])([H])C([H])([H])C([H])([H])C2([H])N([H])C(=O)C1([H])N(C(=O)C([H])(N([H])C(=O)C([H])(N([H])C([H])([H])[H])C([H])([H])[H])C(C([H])([H])[H])(C([H])([H])[H])C([H])([H])[H])C([H])([H])c2c([H])c(OC([H])([H])C([H])([H])C([H])([H])[N+]([H])([H])C([H])([H])C([H])([H])C([H])([H])C([H])([H])C([H])(N([H])C(=O)N3C([H])([H])C([H])([H])C([H])([H])C([H])(n4nc(-c5c([H])c([H])c(Oc6c([H])c([H])c(F)c([H])c6F)c([H])c5[H])c(C(=O)N([H])[H])c4N([H])[H])C3([H])[H])C([H])([H])C(=O)N([H])[H])c([H])c([H])c2C1([H])[H]

>  <smiles>  (48) 
[H]c1c([H])c([H])c2c(c1[H])C([H])([H])C([H])([H])C([H])([H])C2([H])N([H])C(=O)C1([H])N(C(=O)C([H])(N([H])C(=O)C([H])(N([H])C([H])([H])[H])C([H])([H])[H])C(C([H])([H])[H])(C([H])([H])[H])C([H])([H])[H])C([H])([H])c2c([H])c(OC([H])([H])C([H])([H])C([H])([H])[N+]([H])([H])C([H])([H])C([H])([H])C([H])([H])C([H])([H])C([H])(N([H])C(=O)N3C([H])([H])C([H])([H])C([H])([H])C([H])(n4nc(-c5c([H])c([H])c(Oc6c([H])c([H])c(F)c([H])c6F)c([H])c5[H])c(C(=O)N([H])[H])c4N([H])[H])C3([H])[H])C([H])([H])C(=O)N([H])[H])c([H])c([H])c2C1([H])[H]

$$$$
48:0:0
     RDKit          3D

 97104  0  0  1  0  0  0  0  0999 V2000
  -25.9100  -23.2920   16.3640 C   0  0  0  0  0  2  0  0  0  0  0  0
  -26.2150  -24.7950   16.2170 C   0  0  0  0  0  2  0  0  0  0  0  0
  -27.6520  -25.0460   15.9570 N   0  0  0  0  0  4  0  0  0  0  0  0
  -27.7370  -25.2750   14.9800 H   0  0  0  0  0  0  0  0  0  0  0  0
  -28.1840  -24.2070   16.1080 H   0  0  0  0  0  0  0  0  0  0  0  0
  -28.2540  -26.1500   16.7330 C   0  0  0  0  0  2  0  0  0  0  0  0
  -28.7650  -25.6790   18.1060 C   0  0  0  0  0  2  0  0  0  0  0  0
  -29.1440  -26.8360   19.0440 C   0  0  0  0  0  2  0  0  0  0  0  0
  -28.3820  -26.7760   20.2470 O   0  0  0  0  0  0  0  0  0  0  0  0
  -24.5920  -31.9400   23.2870 C   0  0  0  0  0  0  0  0  0  0  0  0
  -27.2150  -27.4950   20.2320 C   0  0  0  0  0  0  0  0  0  0  0  0
  -23.3700  -30.5310   21.6560 C   0  0  0  0  0  3  0  0  0  0  0  0
  -24.8150  -28.9720   20.2440 C   0  0  0  0  0  0  0  0  0  0  0  0
  -25.8920  -30.8820   21.4510 C   0  0  0  0  0  2  0  0  0  0  0  0
  -25.9730  -29.5100   20.8210 C   0  0  0  0  0  0  0  0  0  0  0  0
  -27.1760  -28.7760   20.8150 C   0  0  0  0  0  3  0  0  0  0  0  0
  -26.0400  -26.9500   19.6790 C   0  0  0  0  0  3  0  0  0  0  0  0
  -24.8380  -27.6850   19.6770 C   0  0  0  0  0  3  0  0  0  0  0  0
  -23.5710  -29.8320   20.2840 C   0  0  0  0  0  2  0  0  0  0  0  0
  -24.6350  -31.1290   22.1920 N   0  0  0  0  0  0  0  0  0  0  0  0
  -23.5150  -32.2240   23.8270 O   0  0  0  0  0  0  0  0  0  0  0  0
  -22.7120  -29.5260   22.6290 C   0  0  0  0  0  0  0  0  0  0  0  0
  -21.3880  -29.3510   22.5010 N   0  0  0  0  0  0  0  0  0  0  0  0
  -23.3930  -28.9040   23.4480 O   0  0  0  0  0  0  0  0  0  0  0  0
  -20.9050  -29.9110   21.8130 H   0  0  0  0  0  0  0  0  0  0  0  0
  -18.0080  -28.1730   22.9900 C   0  0  0  0  0  0  0  0  0  0  0  0
  -20.5660  -28.4250   23.2770 C   0  0  0  0  0  3  0  0  0  0  0  0
  -20.6680  -26.9870   22.7230 C   0  0  0  0  0  2  0  0  0  0  0  0
  -19.5720  -26.6540   21.7040 C   0  0  0  0  0  2  0  0  0  0  0  0
  -18.1890  -26.8140   22.3370 C   0  0  0  0  0  2  0  0  0  0  0  0
  -19.1270  -28.9350   23.4190 C   0  0  0  0  0  0  0  0  0  0  0  0
  -18.9110  -30.2080   23.9890 C   0  0  0  0  0  3  0  0  0  0  0  0
  -17.6100  -30.7210   24.1370 C   0  0  0  0  0  3  0  0  0  0  0  0
  -16.5040  -29.9540   23.7340 C   0  0  0  0  0  3  0  0  0  0  0  0
  -16.7040  -28.6830   23.1630 C   0  0  0  0  0  3  0  0  0  0  0  0
  -25.8870  -32.5630   23.8960 C   0  0  0  0  0  3  0  0  0  0  0  0
  -25.6010  -33.9690   24.2040 N   0  0  0  0  0  0  0  0  0  0  0  0
  -25.9520  -35.0020   23.4280 C   0  0  0  0  0  0  0  0  0  0  0  0
  -26.6260  -34.8730   22.4020 O   0  0  0  0  0  0  0  0  0  0  0  0
  -25.0110  -34.1460   25.0020 H   0  0  0  0  0  0  0  0  0  0  0  0
  -24.2500  -36.8120   23.0390 C   0  0  0  0  0  1  0  0  0  0  0  0
  -25.4800  -36.4010   23.8630 C   0  0  0  0  0  3  0  0  0  0  0  0
  -27.6230  -37.2680   24.6920 C   0  0  0  0  0  1  0  0  0  0  0  0
  -26.5260  -37.4400   23.7450 N   0  0  0  0  0  0  0  0  0  0  0  0
  -26.1310  -38.3670   23.8830 H   0  0  0  0  0  0  0  0  0  0  0  0
  -26.3980  -31.8030   25.1820 C   0  0  1  0  0  0  0  0  0  0  0  0
  -25.3080  -31.5910   26.2590 C   0  0  0  0  0  1  0  0  0  0  0  0
  -26.9700  -30.4160   24.8060 C   0  0  0  0  0  1  0  0  0  0  0  0
  -27.5580  -32.5940   25.8330 C   0  0  0  0  0  1  0  0  0  0  0  0
  -26.3470  -22.6870   17.7180 C   0  0  0  0  0  2  0  0  0  0  0  0
  -26.4200  -21.1480   17.7080 C   0  0  0  0  0  2  0  0  0  0  0  0
  -26.8360  -20.5750   19.0770 C   0  0  0  0  0  2  0  0  0  0  0  0
  -27.3940  -19.1410   19.0080 C   0  0  0  0  0  2  0  0  0  0  0  0
  -27.9860  -18.7230   20.3020 N   0  0  0  0  0  4  0  0  0  0  0  0
  -27.2530  -18.4030   20.9170 H   0  0  0  0  0  0  0  0  0  0  0  0
  -28.4060  -19.5340   20.7290 H   0  0  0  0  0  0  0  0  0  0  0  0
  -29.0360  -17.6870   20.1840 C   0  0  0  0  0  2  0  0  0  0  0  0
  -29.7820  -17.4430   21.5140 C   0  0  0  0  0  2  0  0  0  0  0  0
  -30.9670  -16.4620   21.3790 C   0  0  0  0  0  2  0  0  0  0  0  0
  -31.0540  -14.2440   20.1990 C   0  0  0  0  0  0  0  0  0  0  0  0
  -30.6300  -12.1520   18.9540 C   0  0  0  0  0  2  0  0  0  0  0  0
  -29.6520  -12.4160   17.7890 C   0  0  0  0  0  2  0  0  0  0  0  0
  -28.1860  -12.3440   18.2600 C   0  0  0  0  0  2  0  0  0  0  0  0
  -27.9350  -13.1840   19.5390 C   0  0  0  0  0  3  0  0  0  0  0  0
  -28.9990  -12.8480   20.6060 C   0  0  0  0  0  2  0  0  0  0  0  0
  -30.3280  -13.1100   20.0240 N   0  0  0  0  0  0  0  0  0  0  0  0
  -32.1020  -14.4870   19.5880 O   0  0  0  0  0  0  0  0  0  0  0  0
  -30.5100  -15.1090   21.0710 N   0  0  0  0  0  0  0  0  0  0  0  0
  -29.6760  -14.7880   21.5420 H   0  0  0  0  0  0  0  0  0  0  0  0
  -25.5920  -13.9410   20.2940 C   0  0  0  0  0  0  0  0  0  0  0  0
  -24.4890  -13.2330   20.6990 C   0  0  0  0  0  0  0  0  0  0  0  0
  -24.8700  -11.8570   20.6560 C   0  0  0  0  0  0  0  0  0  0  0  0
  -26.5770  -12.9980   20.0450 N   0  0  0  0  0  0  0  0  0  0  0  0
  -26.1470  -11.7410   20.3160 N   0  0  0  0  0  0  0  0  0  0  0  0
  -24.0760  -10.6400   20.8700 C   0  0  0  0  0  0  0  0  0  0  0  0
  -24.4710   -9.6620   21.8090 C   0  0  0  0  0  3  0  0  0  0  0  0
  -23.6860   -8.5060   22.0100 C   0  0  0  0  0  3  0  0  0  0  0  0
  -22.4920   -8.3220   21.2720 C   0  0  0  0  0  0  0  0  0  0  0  0
  -22.1160   -9.2890   20.3220 C   0  0  0  0  0  3  0  0  0  0  0  0
  -22.9010  -10.4370   20.1200 C   0  0  0  0  0  3  0  0  0  0  0  0
  -21.6800   -7.2200   21.3820 O   0  0  0  0  0  0  0  0  0  0  0  0
  -21.5880   -6.5110   22.5530 C   0  0  0  0  0  0  0  0  0  0  0  0
  -21.2030   -7.1200   23.7680 C   0  0  0  0  0  3  0  0  0  0  0  0
  -21.0540   -6.3370   24.9310 C   0  0  0  0  0  3  0  0  0  0  0  0
  -21.2800   -4.9490   24.8790 C   0  0  0  0  0  0  0  0  0  0  0  0
  -21.6570   -4.3400   23.6700 C   0  0  0  0  0  3  0  0  0  0  0  0
  -21.8090   -5.1200   22.5090 C   0  0  0  0  0  0  0  0  0  0  0  0
  -22.1530   -4.5250   21.3420 F   0  0  0  0  0  0  0  0  0  0  0  0
  -21.1290   -4.1960   25.9940 F   0  0  0  0  0  0  0  0  0  0  0  0
  -23.1310  -13.7930   21.0070 C   0  0  0  0  0  0  0  0  0  0  0  0
  -22.3970  -13.1470   21.9060 N   0  0  0  0  0  0  0  0  0  0  0  0
  -22.7320  -14.8350   20.4880 O   0  0  0  0  0  0  0  0  0  0  0  0
  -22.7350  -12.3050   22.3440 H   0  0  0  0  0  0  0  0  0  0  0  0
  -21.4860  -13.5000   22.1620 H   0  0  0  0  0  0  0  0  0  0  0  0
  -25.8280  -15.2970   20.0940 N   0  0  0  0  0  0  0  0  0  0  0  0
  -25.0610  -15.9600   20.1200 H   0  0  0  0  0  0  0  0  0  0  0  0
  -26.6290  -15.6290   19.5740 H   0  0  0  0  0  0  0  0  0  0  0  0
  1 50  1  0
  2  1  1  0
  3  5  1  0
  3  2  1  0
  3  6  1  0
  4  3  1  0
  6  7  1  0
  7  8  1  0
  8  9  1  0
 10 21  2  0
 11  9  1  0
 11 16  1  0
 12 20  1  0
 12 22  1  0
 13 19  1  0
 13 15  1  0
 14 20  1  0
 15 14  1  0
 16 15  2  0
 17 11  2  0
 18 17  1  0
 18 13  2  0
 19 12  1  0
 20 10  1  0
 22 24  2  0
 23 22  1  0
 25 23  1  0
 26 35  2  0
 26 31  1  0
 27 23  1  0
 27 31  1  0
 28 27  1  0
 29 30  1  0
 29 28  1  0
 30 26  1  0
 31 32  2  0
 32 33  1  0
 34 33  2  0
 35 34  1  0
 36 10  1  0
 36 37  1  0
 36 46  1  0
 37 40  1  0
 38 42  1  0
 38 37  1  0
 39 38  2  0
 42 41  1  0
 44 42  1  0
 44 45  1  0
 44 43  1  0
 46 49  1  1
 46 47  1  0
 48 46  1  0
 51 50  1  0
 51 52  1  0
 53 52  1  0
 53 54  1  0
 54 56  1  0
 54 55  1  0
 57 54  1  0
 57 58  1  0
 59 58  1  0
 60 68  1  0
 61 66  1  0
 62 63  1  0
 62 61  1  0
 64 63  1  0
 64 73  1  0
 64 65  1  0
 66 60  1  0
 66 65  1  0
 67 60  2  0
 68 59  1  0
 68 69  1  0
 70 71  2  0
 71 90  1  0
 72 71  1  0
 72 75  1  0
 73 70  1  0
 73 74  1  0
 74 72  2  0
 75 76  1  0
 76 77  2  0
 78 81  1  0
 78 77  1  0
 79 78  2  0
 80 79  1  0
 80 75  2  0
 81 82  1  0
 82 83  1  0
 83 84  2  0
 85 84  1  0
 85 89  1  0
 86 85  2  0
 87 82  2  0
 87 86  1  0
 88 87  1  0
 90 91  1  0
 91 94  1  0
 91 93  1  0
 92 90  2  0
 95 96  1  0
 95 70  1  0
 97 95  1  0
M  ISO  4   8 101   9 101  60 100  68 100
M  END
>  <TORSDO>  (49) 
F 29

>  <SCORE>  (49) 
-9.757

>  <name>  (49) 
48

>  <ligand_id>  (49) 
48

>  <original_smiles>  (49) 
[H]c1c([H])c([H])c2c(c1[H])C([H])([H])C([H])([H])C([H])([H])C2([H])N([H])C(=O)C1([H])N(C(=O)C([H])(N([H])C(=O)C([H])(N([H])C([H])([H])[H])C([H])([H])[H])C(C([H])([H])[H])(C([H])([H])[H])C([H])([H])[H])C([H])([H])c2c([H])c(OC([H])([H])C([H])([H])C([H])([H])[N+]([H])([H])C([H])([H])C([H])([H])C([H])([H])C([H])([H])C([H])([H])C([H])([H])[N+]([H])([H])C([H])([H])C([H])([H])C([H])([H])N([H])C(=O)N3C([H])([H])C([H])([H])C([H])([H])C([H])(n4nc(-c5c([H])c([H])c(Oc6c([H])c([H])c(F)c([H])c6F)c([H])c5[H])c(C(=O)N([H])[H])c4N([H])[H])C3([H])[H])c([H])c([H])c2C1([H])[H]

>  <smiles>  (49) 
[H]c1c([H])c([H])c2c(c1[H])C([H])([H])C([H])([H])C([H])([H])C2([H])N([H])C(=O)C1([H])N(C(=O)C([H])(N([H])C(=O)C([H])(N([H])C([H])([H])[H])C([H])([H])[H])C(C([H])([H])[H])(C([H])([H])[H])C([H])([H])[H])C([H])([H])c2c([H])c(OC([H])([H])C([H])([H])C([H])([H])[N+]([H])([H])C([H])([H])C([H])([H])C([H])([H])C([H])([H])C([H])([H])C([H])([H])[N+]([H])([H])C([H])([H])C([H])([H])C([H])([H])N([H])C(=O)N3C([H])([H])C([H])([H])C([H])([H])C([H])(n4nc(-c5c([H])c([H])c(Oc6c([H])c([H])c(F)c([H])c6F)c([H])c5[H])c(C(=O)N([H])[H])c4N([H])[H])C3([H])[H])c([H])c([H])c2C1([H])[H]

$$$$
49:0:0
     RDKit          3D

 92100  0  0  1  0  0  0  0  0999 V2000
  -30.4790  -20.3420   21.6500 C   0  0  0  0  0  0  0  0  0  0  0  0
  -30.6910  -21.1610   22.9260 C   0  0  0  0  0  2  0  0  0  0  0  0
  -30.2700  -22.6370   22.8080 C   0  0  0  0  0  2  0  0  0  0  0  0
  -30.5090  -23.1510   21.3860 C   0  0  0  0  0  2  0  0  0  0  0  0
  -29.7310  -22.2430   20.4120 C   0  0  0  0  0  3  0  0  0  0  0  0
  -30.1220  -20.8390   20.5230 N   0  0  0  0  0  0  0  0  0  0  0  0
  -30.8060  -18.8600   21.8200 C   0  0  0  0  0  2  0  0  0  0  0  0
  -30.9610  -18.0930   20.4910 C   0  0  0  0  0  2  0  0  0  0  0  0
  -31.9690  -16.9350   20.5420 C   0  0  0  0  0  2  0  0  0  0  0  0
  -31.8630  -14.5190   20.0420 C   0  0  0  0  0  0  0  0  0  0  0  0
  -31.3700  -12.2960   19.1100 C   0  0  0  0  0  2  0  0  0  0  0  0
  -30.4220  -12.4330   17.9050 C   0  0  0  0  0  2  0  0  0  0  0  0
  -28.9530  -12.4360   18.3670 C   0  0  0  0  0  2  0  0  0  0  0  0
  -28.6900  -13.4220   19.5390 C   0  0  0  0  0  3  0  0  0  0  0  0
  -29.7550  -13.2640   20.6490 C   0  0  0  0  0  2  0  0  0  0  0  0
  -31.0860  -13.4040   20.0360 N   0  0  0  0  0  0  0  0  0  0  0  0
  -32.9520  -14.5780   19.4660 O   0  0  0  0  0  0  0  0  0  0  0  0
  -31.3380  -15.6110   20.6160 N   0  0  0  0  0  0  0  0  0  0  0  0
  -30.4340  -15.5250   21.0560 H   0  0  0  0  0  0  0  0  0  0  0  0
  -26.4060  -14.2560   20.3870 C   0  0  0  0  0  0  0  0  0  0  0  0
  -25.2730  -13.5900   20.7680 C   0  0  0  0  0  0  0  0  0  0  0  0
  -25.5730  -12.1990   20.6480 C   0  0  0  0  0  0  0  0  0  0  0  0
  -27.3340  -13.2770   20.0640 N   0  0  0  0  0  0  0  0  0  0  0  0
  -26.8360  -12.0320   20.2760 N   0  0  0  0  0  0  0  0  0  0  0  0
  -24.7140  -11.0180   20.8070 C   0  0  0  0  0  0  0  0  0  0  0  0
  -25.0310   -9.9910   21.7250 C   0  0  0  0  0  3  0  0  0  0  0  0
  -24.1800   -8.8740   21.8720 C   0  0  0  0  0  3  0  0  0  0  0  0
  -22.9950   -8.7780   21.1030 C   0  0  0  0  0  0  0  0  0  0  0  0
  -22.6980   -9.7910   20.1740 C   0  0  0  0  0  3  0  0  0  0  0  0
  -23.5490  -10.8990   20.0250 C   0  0  0  0  0  3  0  0  0  0  0  0
  -22.1210   -7.7190   21.1630 O   0  0  0  0  0  0  0  0  0  0  0  0
  -21.9170   -7.0190   22.3240 C   0  0  0  0  0  0  0  0  0  0  0  0
  -21.4420   -7.6450   23.4980 C   0  0  0  0  0  3  0  0  0  0  0  0
  -21.1800   -6.8750   24.6490 C   0  0  0  0  0  3  0  0  0  0  0  0
  -21.3830   -5.4810   24.6260 C   0  0  0  0  0  0  0  0  0  0  0  0
  -21.8500   -4.8570   23.4560 C   0  0  0  0  0  3  0  0  0  0  0  0
  -22.1140   -5.6230   22.3080 C   0  0  0  0  0  0  0  0  0  0  0  0
  -22.5440   -5.0140   21.1770 F   0  0  0  0  0  0  0  0  0  0  0  0
  -21.1230   -4.7400   25.7280 F   0  0  0  0  0  0  0  0  0  0  0  0
  -23.9520  -14.2070   21.1300 C   0  0  0  0  0  0  0  0  0  0  0  0
  -23.2000  -13.5700   22.0220 N   0  0  0  0  0  0  0  0  0  0  0  0
  -23.6000  -15.2860   20.6570 O   0  0  0  0  0  0  0  0  0  0  0  0
  -23.4980  -12.6960   22.4310 H   0  0  0  0  0  0  0  0  0  0  0  0
  -22.3110  -13.9620   22.2980 H   0  0  0  0  0  0  0  0  0  0  0  0
  -26.7220  -15.6060   20.2710 N   0  0  0  0  0  0  0  0  0  0  0  0
  -26.0440  -16.3370   20.4530 H   0  0  0  0  0  0  0  0  0  0  0  0
  -27.6070  -15.9620   19.9360 H   0  0  0  0  0  0  0  0  0  0  0  0
  -29.7860  -22.7190   18.9430 C   0  0  0  0  0  2  0  0  0  0  0  0
  -31.1770  -23.1120   18.3990 C   0  0  0  0  0  2  0  0  0  0  0  0
  -31.2470  -24.5670   17.8840 C   0  0  0  0  0  2  0  0  0  0  0  0
  -30.8940  -25.6070   18.9630 C   0  0  0  0  0  2  0  0  0  0  0  0
  -30.6030  -26.8830   18.3850 O   0  0  0  0  0  0  0  0  0  0  0  0
  -26.1420  -28.9790   23.4970 C   0  0  0  0  0  0  0  0  0  0  0  0
  -29.3470  -27.3380   18.7020 C   0  0  0  0  0  0  0  0  0  0  0  0
  -25.1140  -28.5000   21.2950 C   0  0  0  0  0  3  0  0  0  0  0  0
  -26.7440  -28.1990   19.3560 C   0  0  0  0  0  0  0  0  0  0  0  0
  -27.5370  -29.3010   21.4590 C   0  0  0  0  0  2  0  0  0  0  0  0
  -27.8200  -28.5110   20.2000 C   0  0  0  0  0  0  0  0  0  0  0  0
  -29.1250  -28.0840   19.8770 C   0  0  0  0  0  3  0  0  0  0  0  0
  -28.2620  -27.0370   17.8530 C   0  0  0  0  0  3  0  0  0  0  0  0
  -26.9570  -27.4590   18.1790 C   0  0  0  0  0  3  0  0  0  0  0  0
  -25.3790  -28.6960   19.7780 C   0  0  0  0  0  2  0  0  0  0  0  0
  -26.2820  -28.9100   22.1420 N   0  0  0  0  0  0  0  0  0  0  0  0
  -25.0520  -28.7470   24.0390 O   0  0  0  0  0  0  0  0  0  0  0  0
  -24.6690  -27.0390   21.5340 C   0  0  0  0  0  0  0  0  0  0  0  0
  -23.4390  -26.7110   21.1070 N   0  0  0  0  0  0  0  0  0  0  0  0
  -25.4300  -26.2240   22.0620 O   0  0  0  0  0  0  0  0  0  0  0  0
  -22.8740  -27.4390   20.6930 H   0  0  0  0  0  0  0  0  0  0  0  0
  -20.4810  -24.8210   20.2530 C   0  0  0  0  0  0  0  0  0  0  0  0
  -22.8240  -25.3880   21.1860 C   0  0  0  0  0  3  0  0  0  0  0  0
  -23.3770  -24.4500   20.0880 C   0  0  0  0  0  2  0  0  0  0  0  0
  -22.5300  -24.4510   18.8120 C   0  0  0  0  0  2  0  0  0  0  0  0
  -21.0940  -24.0130   19.1210 C   0  0  0  0  0  2  0  0  0  0  0  0
  -21.2950  -25.4790   21.2140 C   0  0  0  0  0  0  0  0  0  0  0  0
  -20.6770  -26.2470   22.2240 C   0  0  0  0  0  3  0  0  0  0  0  0
  -19.2760  -26.3600   22.2890 C   0  0  0  0  0  3  0  0  0  0  0  0
  -18.4750  -25.6930   21.3460 C   0  0  0  0  0  3  0  0  0  0  0  0
  -19.0760  -24.9230   20.3340 C   0  0  0  0  0  3  0  0  0  0  0  0
  -27.3340  -29.3710   24.4250 C   0  0  0  0  0  3  0  0  0  0  0  0
  -26.8830  -30.4750   25.2820 N   0  0  0  0  0  0  0  0  0  0  0  0
  -27.1990  -31.7640   25.0920 C   0  0  0  0  0  0  0  0  0  0  0  0
  -27.9710  -32.1410   24.2060 O   0  0  0  0  0  0  0  0  0  0  0  0
  -26.2080  -30.2460   25.9960 H   0  0  0  0  0  0  0  0  0  0  0  0
  -25.3940  -33.5000   25.3150 C   0  0  0  0  0  1  0  0  0  0  0  0
  -26.5570  -32.7990   26.0360 C   0  0  0  0  0  3  0  0  0  0  0  0
  -28.4940  -33.2600   27.4730 C   0  0  0  0  0  1  0  0  0  0  0  0
  -27.5130  -33.8100   26.5400 N   0  0  0  0  0  0  0  0  0  0  0  0
  -27.0220  -34.5680   27.0040 H   0  0  0  0  0  0  0  0  0  0  0  0
  -27.8660  -28.1680   25.2990 C   0  0  1  0  0  0  0  0  0  0  0  0
  -26.7560  -27.4330   26.0850 C   0  0  0  0  0  1  0  0  0  0  0  0
  -28.5860  -27.1270   24.4110 C   0  0  0  0  0  1  0  0  0  0  0  0
  -28.9110  -28.6790   26.3170 C   0  0  0  0  0  1  0  0  0  0  0  0
  1  7  1  0
  1  2  1  0
  3  2  1  0
  4  3  1  0
  5 48  1  0
  5  6  1  0
  5  4  1  0
  6  1  2  0
  8  9  1  0
  8  7  1  0
  9 18  1  0
 10 18  1  0
 11 16  1  0
 12 13  1  0
 12 11  1  0
 14 13  1  0
 14 23  1  0
 14 15  1  0
 16 10  1  0
 16 15  1  0
 17 10  2  0
 18 19  1  0
 20 21  2  0
 21 40  1  0
 22 21  1  0
 22 25  1  0
 23 24  1  0
 23 20  1  0
 24 22  2  0
 25 26  1  0
 26 27  2  0
 28 31  1  0
 28 27  1  0
 29 28  2  0
 30 29  1  0
 30 25  2  0
 31 32  1  0
 32 33  1  0
 33 34  2  0
 35 34  1  0
 35 39  1  0
 36 35  2  0
 37 32  2  0
 37 36  1  0
 38 37  1  0
 40 41  1  0
 41 44  1  0
 41 43  1  0
 42 40  2  0
 45 20  1  0
 45 46  1  0
 47 45  1  0
 49 48  1  0
 50 49  1  0
 50 51  1  0
 52 54  1  0
 52 51  1  0
 53 64  2  0
 54 59  1  0
 55 65  1  0
 55 63  1  0
 56 62  1  0
 56 58  1  0
 57 63  1  0
 58 57  1  0
 59 58  2  0
 60 61  1  0
 60 54  2  0
 61 56  2  0
 62 55  1  0
 63 53  1  0
 65 67  2  0
 66 65  1  0
 68 66  1  0
 69 78  2  0
 69 74  1  0
 70 66  1  0
 70 74  1  0
 71 70  1  0
 72 73  1  0
 72 71  1  0
 73 69  1  0
 74 75  2  0
 75 76  1  0
 77 76  2  0
 78 77  1  0
 79 53  1  0
 79 80  1  0
 79 89  1  0
 80 83  1  0
 81 80  1  0
 81 85  1  0
 82 81  2  0
 85 84  1  0
 85 87  1  0
 87 88  1  0
 87 86  1  0
 89 90  1  1
 89 92  1  0
 91 89  1  0
M  ISO  4  10 100  18 100  51 101  52 101
M  END
>  <TORSDO>  (50) 
F 23

>  <SCORE>  (50) 
-8.395

>  <name>  (50) 
49

>  <ligand_id>  (50) 
49

>  <original_smiles>  (50) 
[H]c1c([H])c([H])c2c(c1[H])C([H])([H])C([H])([H])C([H])([H])C2([H])N([H])C(=O)C1([H])N(C(=O)C([H])(N([H])C(=O)C([H])(N([H])C([H])([H])[H])C([H])([H])[H])C(C([H])([H])[H])(C([H])([H])[H])C([H])([H])[H])C([H])([H])c2c([H])c(OC([H])([H])C([H])([H])C([H])([H])C([H])([H])C3([H])N=C(C([H])([H])C([H])([H])C([H])([H])N([H])C(=O)N4C([H])([H])C([H])([H])C([H])([H])C([H])(n5nc(-c6c([H])c([H])c(Oc7c([H])c([H])c(F)c([H])c7F)c([H])c6[H])c(C(=O)N([H])[H])c5N([H])[H])C4([H])[H])C([H])([H])C([H])([H])C3([H])[H])c([H])c([H])c2C1([H])[H]

>  <smiles>  (50) 
[H]c1c([H])c([H])c2c(c1[H])C([H])([H])C([H])([H])C([H])([H])C2([H])N([H])C(=O)C1([H])N(C(=O)C([H])(N([H])C(=O)C([H])(N([H])C([H])([H])[H])C([H])([H])[H])C(C([H])([H])[H])(C([H])([H])[H])C([H])([H])[H])C([H])([H])c2c([H])c(OC([H])([H])C([H])([H])C([H])([H])C([H])([H])C3([H])N=C(C([H])([H])C([H])([H])C([H])([H])N([H])C(=O)N4C([H])([H])C([H])([H])C([H])([H])C([H])(n5nc(-c6c([H])c([H])c(Oc7c([H])c([H])c(F)c([H])c7F)c([H])c6[H])c(C(=O)N([H])[H])c5N([H])[H])C4([H])[H])C([H])([H])C([H])([H])C3([H])[H])c([H])c([H])c2C1([H])[H]

$$$$
50:0:0
     RDKit          3D

 91100  0  0  1  0  0  0  0  0999 V2000
  -28.6120  -21.2830   20.3310 C   0  0  0  0  0  0  0  0  0  0  0  0
  -28.2190  -22.5820   20.1460 C   0  0  0  0  0  3  0  0  0  0  0  0
  -27.7320  -20.0440   20.3340 C   0  0  0  0  0  2  0  0  0  0  0  0
  -29.8990  -20.5160   20.7090 C   0  0  0  0  0  3  0  0  0  0  0  0
  -28.9440  -19.3250   20.9810 C   0  0  0  0  0  3  0  0  0  0  0  0
  -30.6120  -19.5790   19.6920 C   0  0  0  0  0  3  0  0  0  0  0  0
  -29.8220  -18.3200   20.1730 C   0  0  0  0  0  3  0  0  0  0  0  0
  -31.2930  -18.8590   17.3470 C   0  0  0  0  0  1  0  0  0  0  0  0
  -30.6220  -19.9370   18.2070 C   0  0  0  0  0  2  0  0  0  0  0  0
  -28.9590  -23.9500   20.1480 C   0  0  0  0  0  2  0  0  0  0  0  0
  -28.1080  -25.1550   20.7320 C   0  0  0  0  0  2  0  0  0  0  0  0
  -28.3540  -26.5320   20.2600 O   0  0  0  0  0  0  0  0  0  0  0  0
  -24.5840  -31.8910   23.2420 C   0  0  0  0  0  0  0  0  0  0  0  0
  -27.2360  -27.3710   20.2110 C   0  0  0  0  0  0  0  0  0  0  0  0
  -23.3940  -30.4850   21.5960 C   0  0  0  0  0  3  0  0  0  0  0  0
  -24.8610  -28.9460   20.1780 C   0  0  0  0  0  0  0  0  0  0  0  0
  -25.9290  -30.8280   21.4190 C   0  0  0  0  0  2  0  0  0  0  0  0
  -26.0210  -29.4500   20.7790 C   0  0  0  0  0  0  0  0  0  0  0  0
  -27.2160  -28.6740   20.7870 C   0  0  0  0  0  3  0  0  0  0  0  0
  -26.0620  -26.9200   19.5700 C   0  0  0  0  0  3  0  0  0  0  0  0
  -24.8820  -27.6850   19.5630 C   0  0  0  0  0  3  0  0  0  0  0  0
  -23.6160  -29.8070   20.2180 C   0  0  0  0  0  2  0  0  0  0  0  0
  -24.6540  -31.0850   22.1430 N   0  0  0  0  0  0  0  0  0  0  0  0
  -23.4970  -32.1620   23.7730 O   0  0  0  0  0  0  0  0  0  0  0  0
  -22.7350  -29.4650   22.5560 C   0  0  0  0  0  0  0  0  0  0  0  0
  -21.4080  -29.2900   22.4310 N   0  0  0  0  0  0  0  0  0  0  0  0
  -23.4150  -28.8360   23.3690 O   0  0  0  0  0  0  0  0  0  0  0  0
  -20.9190  -29.8500   21.7480 H   0  0  0  0  0  0  0  0  0  0  0  0
  -18.0280  -28.1090   22.9430 C   0  0  0  0  0  0  0  0  0  0  0  0
  -20.5890  -28.3510   23.2000 C   0  0  0  0  0  3  0  0  0  0  0  0
  -20.6800  -26.9230   22.6170 C   0  0  0  0  0  2  0  0  0  0  0  0
  -19.5710  -26.6120   21.6070 C   0  0  0  0  0  2  0  0  0  0  0  0
  -18.1930  -26.7630   22.2580 C   0  0  0  0  0  2  0  0  0  0  0  0
  -19.1530  -28.8620   23.3720 C   0  0  0  0  0  0  0  0  0  0  0  0
  -18.9460  -30.1230   23.9730 C   0  0  0  0  0  3  0  0  0  0  0  0
  -17.6440  -30.6320   24.1480 C   0  0  0  0  0  3  0  0  0  0  0  0
  -16.5340  -29.8760   23.7360 C   0  0  0  0  0  3  0  0  0  0  0  0
  -16.7250  -28.6160   23.1400 C   0  0  0  0  0  3  0  0  0  0  0  0
  -25.8610  -32.5310   23.8680 C   0  0  0  0  0  3  0  0  0  0  0  0
  -26.3690  -31.7700   25.1540 C   0  0  1  0  0  0  0  0  0  0  0  0
  -25.2680  -31.5400   26.2160 C   0  0  0  0  0  1  0  0  0  0  0  0
  -26.9560  -30.3900   24.7760 C   0  0  0  0  0  1  0  0  0  0  0  0
  -27.5170  -32.5680   25.8180 C   0  0  0  0  0  1  0  0  0  0  0  0
  -25.5510  -33.9310   24.1840 N   0  0  0  0  0  0  0  0  0  0  0  0
  -25.8950  -34.9780   23.4230 C   0  0  0  0  0  0  0  0  0  0  0  0
  -26.5800  -34.8680   22.4030 O   0  0  0  0  0  0  0  0  0  0  0  0
  -24.9490  -34.0930   24.9790 H   0  0  0  0  0  0  0  0  0  0  0  0
  -24.1850  -36.7770   23.0190 C   0  0  0  0  0  1  0  0  0  0  0  0
  -25.4040  -36.3700   23.8640 C   0  0  0  0  0  3  0  0  0  0  0  0
  -27.5190  -37.2500   24.7490 C   0  0  0  0  0  1  0  0  0  0  0  0
  -26.4440  -37.4190   23.7740 N   0  0  0  0  0  0  0  0  0  0  0  0
  -26.0380  -38.3410   23.9070 H   0  0  0  0  0  0  0  0  0  0  0  0
  -30.6070  -17.1290   20.8450 C   0  0  0  0  0  2  0  0  0  0  0  0
  -30.7480  -14.6440   20.2300 C   0  0  0  0  0  0  0  0  0  0  0  0
  -30.4300  -12.4520   19.1150 C   0  0  0  0  0  2  0  0  0  0  0  0
  -29.4600  -12.6110   17.9250 C   0  0  0  0  0  2  0  0  0  0  0  0
  -27.9990  -12.4590   18.3900 C   0  0  0  0  0  2  0  0  0  0  0  0
  -27.6800  -13.3090   19.6500 C   0  0  0  0  0  3  0  0  0  0  0  0
  -28.7660  -13.1450   20.7370 C   0  0  0  0  0  2  0  0  0  0  0  0
  -30.0640  -13.4640   20.1240 N   0  0  0  0  0  0  0  0  0  0  0  0
  -31.8990  -14.7570   19.8030 O   0  0  0  0  0  0  0  0  0  0  0  0
  -30.0640  -15.7400   20.6700 N   0  0  0  0  0  0  0  0  0  0  0  0
  -29.1100  -15.5870   20.9610 H   0  0  0  0  0  0  0  0  0  0  0  0
  -25.3040  -13.9020   20.4220 C   0  0  0  0  0  0  0  0  0  0  0  0
  -24.2450  -13.1260   20.8140 C   0  0  0  0  0  0  0  0  0  0  0  0
  -24.7100  -11.7750   20.7720 C   0  0  0  0  0  0  0  0  0  0  0  0
  -26.3450  -13.0240   20.1650 N   0  0  0  0  0  0  0  0  0  0  0  0
  -25.9940  -11.7400   20.4360 N   0  0  0  0  0  0  0  0  0  0  0  0
  -23.9900  -10.5110   20.9750 C   0  0  0  0  0  0  0  0  0  0  0  0
  -24.4330   -9.5500   21.9110 C   0  0  0  0  0  3  0  0  0  0  0  0
  -23.7120   -8.3520   22.1020 C   0  0  0  0  0  3  0  0  0  0  0  0
  -22.5350   -8.1050   21.3570 C   0  0  0  0  0  0  0  0  0  0  0  0
  -22.1110   -9.0540   20.4100 C   0  0  0  0  0  3  0  0  0  0  0  0
  -22.8320  -10.2430   20.2170 C   0  0  0  0  0  3  0  0  0  0  0  0
  -21.7860   -6.9570   21.4580 O   0  0  0  0  0  0  0  0  0  0  0  0
  -21.7380   -6.2280   22.6180 C   0  0  0  0  0  0  0  0  0  0  0  0
  -21.2930   -6.7900   23.8340 C   0  0  0  0  0  3  0  0  0  0  0  0
  -21.1950   -5.9850   24.9880 C   0  0  0  0  0  3  0  0  0  0  0  0
  -21.5310   -4.6200   24.9250 C   0  0  0  0  0  0  0  0  0  0  0  0
  -21.9670   -4.0570   23.7130 C   0  0  0  0  0  3  0  0  0  0  0  0
  -22.0680   -4.8580   22.5630 C   0  0  0  0  0  0  0  0  0  0  0  0
  -22.4700   -4.3060   21.3920 F   0  0  0  0  0  0  0  0  0  0  0  0
  -21.4280   -3.8450   26.0300 F   0  0  0  0  0  0  0  0  0  0  0  0
  -22.8530  -13.6000   21.1140 C   0  0  0  0  0  0  0  0  0  0  0  0
  -22.1410  -12.8990   21.9890 N   0  0  0  0  0  0  0  0  0  0  0  0
  -22.4030  -14.6290   20.6100 O   0  0  0  0  0  0  0  0  0  0  0  0
  -22.5180  -12.0670   22.4190 H   0  0  0  0  0  0  0  0  0  0  0  0
  -21.2080  -13.1960   22.2330 H   0  0  0  0  0  0  0  0  0  0  0  0
  -25.4640  -15.2720   20.2430 N   0  0  0  0  0  0  0  0  0  0  0  0
  -24.7030  -15.9300   20.3750 H   0  0  0  0  0  0  0  0  0  0  0  0
  -26.3090  -15.7100   19.8960 H   0  0  0  0  0  0  0  0  0  0  0  0
  1  3  1  0
  2 10  1  0
  2  1  2  0
  4  1  1  0
  4  5  1  0
  5  3  1  0
  6  9  1  0
  6  7  1  0
  6  4  1  0
  7 53  1  0
  7  5  1  0
  8  9  1  0
 10 11  1  0
 12 11  1  0
 13 24  2  0
 14 12  1  0
 14 19  1  0
 15 23  1  0
 15 25  1  0
 16 22  1  0
 16 18  1  0
 17 23  1  0
 18 19  2  0
 18 17  1  0
 20 14  2  0
 21 20  1  0
 21 16  2  0
 22 15  1  0
 23 13  1  0
 25 27  2  0
 26 25  1  0
 28 26  1  0
 29 38  2  0
 29 34  1  0
 30 26  1  0
 30 34  1  0
 31 30  1  0
 32 33  1  0
 32 31  1  0
 33 29  1  0
 34 35  2  0
 35 36  1  0
 37 36  2  0
 38 37  1  0
 39 13  1  0
 39 44  1  0
 39 40  1  0
 40 43  1  1
 40 41  1  0
 42 40  1  0
 44 47  1  0
 45 49  1  0
 45 44  1  0
 46 45  2  0
 49 48  1  0
 51 49  1  0
 51 52  1  0
 51 50  1  0
 54 62  1  0
 55 60  1  0
 56 57  1  0
 56 55  1  0
 58 57  1  0
 58 67  1  0
 58 59  1  0
 60 54  1  0
 60 59  1  0
 61 54  2  0
 62 53  1  0
 62 63  1  0
 64 65  2  0
 65 84  1  0
 66 65  1  0
 66 69  1  0
 67 64  1  0
 67 68  1  0
 68 66  2  0
 69 70  1  0
 70 71  2  0
 72 75  1  0
 72 71  1  0
 73 72  2  0
 74 73  1  0
 74 69  2  0
 75 76  1  0
 76 77  1  0
 77 78  2  0
 79 78  1  0
 79 83  1  0
 80 79  2  0
 81 76  2  0
 81 80  1  0
 82 81  1  0
 84 85  1  0
 85 88  1  0
 85 87  1  0
 86 84  2  0
 89 90  1  0
 89 64  1  0
 91 89  1  0
M  ISO  4  11 101  12 101  54 100  62 100
M  END
>  <TORSDO>  (51) 
F 20

>  <SCORE>  (51) 
-13.553

>  <name>  (51) 
50

>  <ligand_id>  (51) 
50

>  <original_smiles>  (51) 
[H]C(=C1C([H])([H])C2([H])C1([H])C([H])(C([H])([H])C([H])([H])[H])C2([H])C([H])([H])N([H])C(=O)N1C([H])([H])C([H])([H])C([H])([H])C([H])(n2nc(-c3c([H])c([H])c(Oc4c([H])c([H])c(F)c([H])c4F)c([H])c3[H])c(C(=O)N([H])[H])c2N([H])[H])C1([H])[H])C([H])([H])C([H])([H])Oc1c([H])c([H])c2c(c1[H])C([H])([H])N(C(=O)C([H])(N([H])C(=O)C([H])(N([H])C([H])([H])[H])C([H])([H])[H])C(C([H])([H])[H])(C([H])([H])[H])C([H])([H])[H])C([H])(C(=O)N([H])C1([H])c3c([H])c([H])c([H])c([H])c3C([H])([H])C([H])([H])C1([H])[H])C2([H])[H]

>  <smiles>  (51) 
[H]C(=C1C([H])([H])C2([H])C1([H])C([H])(C([H])([H])C([H])([H])[H])C2([H])C([H])([H])N([H])C(=O)N1C([H])([H])C([H])([H])C([H])([H])C([H])(n2nc(-c3c([H])c([H])c(Oc4c([H])c([H])c(F)c([H])c4F)c([H])c3[H])c(C(=O)N([H])[H])c2N([H])[H])C1([H])[H])C([H])([H])C([H])([H])Oc1c([H])c([H])c2c(c1[H])C([H])([H])N(C(=O)C([H])(N([H])C(=O)C([H])(N([H])C([H])([H])[H])C([H])([H])[H])C(C([H])([H])[H])(C([H])([H])[H])C([H])([H])[H])C([H])(C(=O)N([H])C1([H])c3c([H])c([H])c([H])c([H])c3C([H])([H])C([H])([H])C1([H])[H])C2([H])[H]

$$$$
51:0:0
     RDKit          3D

 93102  0  0  1  0  0  0  0  0999 V2000
  -30.4440  -22.8910   19.1390 C   0  0  0  0  0  2  0  0  0  0  0  0
  -29.8060  -22.6170   21.5250 C   0  0  0  0  0  2  0  0  0  0  0  0
  -32.1230  -18.5780   21.4630 C   0  0  0  0  0  2  0  0  0  0  0  0
  -29.7210  -18.4030   20.7640 C   0  0  0  0  0  2  0  0  0  0  0  0
  -31.3610  -21.6550   19.2030 C   0  0  0  0  0  2  0  0  0  0  0  0
  -30.6980  -21.3660   21.6670 C   0  0  0  0  0  2  0  0  0  0  0  0
  -32.3130  -19.7730   20.5210 C   0  0  0  0  0  2  0  0  0  0  0  0
  -29.8840  -19.6750   19.8890 C   0  0  0  0  0  2  0  0  0  0  0  0
  -30.4320  -23.5810   20.5070 C   0  0  0  0  0  3  0  0  0  0  0  0
  -31.0450  -17.6230   20.9330 C   0  0  0  0  0  3  0  0  0  0  0  0
  -31.0330  -20.6270   20.3310 C   0  0  2  0  0  0  0  0  0  0  0  0
  -29.9180  -25.0390   20.5280 C   0  0  0  0  0  2  0  0  0  0  0  0
  -28.4770  -25.3590   20.0900 C   0  0  0  0  0  2  0  0  0  0  0  0
  -28.4220  -26.7840   20.1720 O   0  0  0  0  0  0  0  0  0  0  0  0
  -24.5840  -31.8910   23.2400 C   0  0  0  0  0  0  0  0  0  0  0  0
  -27.2130  -27.4390   20.1750 C   0  0  0  0  0  0  0  0  0  0  0  0
  -23.3680  -30.4880   21.6020 C   0  0  0  0  0  3  0  0  0  0  0  0
  -24.8130  -28.9310   20.1870 C   0  0  0  0  0  0  0  0  0  0  0  0
  -25.8910  -30.8410   21.3960 C   0  0  0  0  0  2  0  0  0  0  0  0
  -25.9690  -29.4660   20.7650 C   0  0  0  0  0  0  0  0  0  0  0  0
  -27.1700  -28.7270   20.7510 C   0  0  0  0  0  3  0  0  0  0  0  0
  -26.0370  -26.9030   19.6040 C   0  0  0  0  0  3  0  0  0  0  0  0
  -24.8400  -27.6490   19.6040 C   0  0  0  0  0  3  0  0  0  0  0  0
  -23.5720  -29.7950   20.2260 C   0  0  0  0  0  2  0  0  0  0  0  0
  -24.6330  -31.0890   22.1380 N   0  0  0  0  0  0  0  0  0  0  0  0
  -23.5060  -32.1700   23.7810 O   0  0  0  0  0  0  0  0  0  0  0  0
  -22.7140  -29.4770   22.5680 C   0  0  0  0  0  0  0  0  0  0  0  0
  -21.3880  -29.3040   22.4430 N   0  0  0  0  0  0  0  0  0  0  0  0
  -23.3950  -28.8500   23.3840 O   0  0  0  0  0  0  0  0  0  0  0  0
  -20.9020  -29.8600   21.7530 H   0  0  0  0  0  0  0  0  0  0  0  0
  -18.0060  -28.1470   22.9540 C   0  0  0  0  0  0  0  0  0  0  0  0
  -20.5660  -28.3750   23.2160 C   0  0  0  0  0  3  0  0  0  0  0  0
  -20.6510  -26.9440   22.6370 C   0  0  0  0  0  2  0  0  0  0  0  0
  -19.5400  -26.6350   21.6260 C   0  0  0  0  0  2  0  0  0  0  0  0
  -18.1640  -26.7960   22.2760 C   0  0  0  0  0  2  0  0  0  0  0  0
  -19.1340  -28.8950   23.3810 C   0  0  0  0  0  0  0  0  0  0  0  0
  -18.9330  -30.1610   23.9730 C   0  0  0  0  0  3  0  0  0  0  0  0
  -17.6360  -30.6790   24.1450 C   0  0  0  0  0  3  0  0  0  0  0  0
  -16.5210  -29.9280   23.7330 C   0  0  0  0  0  3  0  0  0  0  0  0
  -16.7070  -28.6640   23.1450 C   0  0  0  0  0  3  0  0  0  0  0  0
  -25.8770  -32.5160   23.8560 C   0  0  0  0  0  3  0  0  0  0  0  0
  -26.3990  -31.7380   25.1260 C   0  0  1  0  0  0  0  0  0  0  0  0
  -25.3120  -31.4970   26.1990 C   0  0  0  0  0  1  0  0  0  0  0  0
  -26.9760  -30.3620   24.7220 C   0  0  0  0  0  1  0  0  0  0  0  0
  -27.5560  -32.5260   25.7860 C   0  0  0  0  0  1  0  0  0  0  0  0
  -25.5750  -33.9140   24.1910 N   0  0  0  0  0  0  0  0  0  0  0  0
  -25.9060  -34.9650   23.4300 C   0  0  0  0  0  0  0  0  0  0  0  0
  -26.5680  -34.8610   22.3940 O   0  0  0  0  0  0  0  0  0  0  0  0
  -24.9850  -34.0690   24.9960 H   0  0  0  0  0  0  0  0  0  0  0  0
  -24.1800  -36.7620   23.0860 C   0  0  0  0  0  1  0  0  0  0  0  0
  -25.4240  -36.3540   23.8900 C   0  0  0  0  0  3  0  0  0  0  0  0
  -27.5660  -37.2330   24.7100 C   0  0  0  0  0  1  0  0  0  0  0  0
  -26.4600  -37.4050   23.7720 N   0  0  0  0  0  0  0  0  0  0  0  0
  -26.0560  -38.3260   23.9220 H   0  0  0  0  0  0  0  0  0  0  0  0
  -30.9310  -16.3880   21.8630 C   0  0  0  0  0  2  0  0  0  0  0  0
  -30.7060  -14.4050   20.3730 C   0  0  0  0  0  0  0  0  0  0  0  0
  -30.3020  -12.3520   19.0620 C   0  0  0  0  0  2  0  0  0  0  0  0
  -29.3260  -12.6270   17.9030 C   0  0  0  0  0  2  0  0  0  0  0  0
  -27.8660  -12.4840   18.3720 C   0  0  0  0  0  2  0  0  0  0  0  0
  -27.5800  -13.2690   19.6800 C   0  0  0  0  0  3  0  0  0  0  0  0
  -28.6580  -12.9740   20.7440 C   0  0  0  0  0  2  0  0  0  0  0  0
  -29.9750  -13.2800   20.1560 N   0  0  0  0  0  0  0  0  0  0  0  0
  -31.7600  -14.6480   19.7780 O   0  0  0  0  0  0  0  0  0  0  0  0
  -30.2110  -15.2530   21.2880 N   0  0  0  0  0  0  0  0  0  0  0  0
  -29.3310  -14.9980   21.7110 H   0  0  0  0  0  0  0  0  0  0  0  0
  -25.1930  -13.8720   20.4330 C   0  0  0  0  0  0  0  0  0  0  0  0
  -24.1340  -13.0970   20.8230 C   0  0  0  0  0  0  0  0  0  0  0  0
  -24.5980  -11.7470   20.7820 C   0  0  0  0  0  0  0  0  0  0  0  0
  -26.2360  -12.9940   20.1830 N   0  0  0  0  0  0  0  0  0  0  0  0
  -25.8810  -11.7100   20.4480 N   0  0  0  0  0  0  0  0  0  0  0  0
  -23.8790  -10.4820   20.9870 C   0  0  0  0  0  0  0  0  0  0  0  0
  -24.3300   -9.5170   21.9140 C   0  0  0  0  0  3  0  0  0  0  0  0
  -23.6120   -8.3170   22.1050 C   0  0  0  0  0  3  0  0  0  0  0  0
  -22.4280   -8.0750   21.3700 C   0  0  0  0  0  0  0  0  0  0  0  0
  -21.9960   -9.0280   20.4320 C   0  0  0  0  0  3  0  0  0  0  0  0
  -22.7140  -10.2190   20.2390 C   0  0  0  0  0  3  0  0  0  0  0  0
  -21.6790   -6.9270   21.4700 O   0  0  0  0  0  0  0  0  0  0  0  0
  -21.6550   -6.1830   22.6220 C   0  0  0  0  0  0  0  0  0  0  0  0
  -21.2490   -6.7330   23.8580 C   0  0  0  0  0  3  0  0  0  0  0  0
  -21.1730   -5.9140   25.0030 C   0  0  0  0  0  3  0  0  0  0  0  0
  -21.4920   -4.5460   24.9120 C   0  0  0  0  0  0  0  0  0  0  0  0
  -21.8920   -3.9950   23.6820 C   0  0  0  0  0  3  0  0  0  0  0  0
  -21.9690   -4.8110   22.5400 C   0  0  0  0  0  0  0  0  0  0  0  0
  -22.3340   -4.2700   21.3530 F   0  0  0  0  0  0  0  0  0  0  0  0
  -21.4110   -3.7580   26.0100 F   0  0  0  0  0  0  0  0  0  0  0  0
  -22.7420  -13.5710   21.1250 C   0  0  0  0  0  0  0  0  0  0  0  0
  -22.0330  -12.8710   22.0050 N   0  0  0  0  0  0  0  0  0  0  0  0
  -22.2910  -14.5960   20.6160 O   0  0  0  0  0  0  0  0  0  0  0  0
  -22.4110  -12.0410   22.4370 H   0  0  0  0  0  0  0  0  0  0  0  0
  -21.1010  -13.1700   22.2500 H   0  0  0  0  0  0  0  0  0  0  0  0
  -25.3530  -15.2430   20.2530 N   0  0  0  0  0  0  0  0  0  0  0  0
  -24.5910  -15.9000   20.3790 H   0  0  0  0  0  0  0  0  0  0  0  0
  -26.2040  -15.6820   19.9230 H   0  0  0  0  0  0  0  0  0  0  0  0
  1  5  1  0
  1  9  1  0
  2  6  1  0
  4 10  1  0
  7  3  1  0
 11  8  1  6
  8  4  1  0
  9 12  1  0
  9  2  1  0
 10  3  1  0
 10 55  1  0
 11  5  1  0
 11  7  1  0
 11  6  1  0
 13 14  1  0
 13 12  1  0
 14 16  1  0
 15 26  2  0
 16 21  1  0
 17 25  1  0
 17 27  1  0
 18 24  1  0
 18 20  1  0
 19 25  1  0
 20 19  1  0
 21 20  2  0
 22 23  1  0
 22 16  2  0
 23 18  2  0
 24 17  1  0
 25 15  1  0
 27 29  2  0
 28 27  1  0
 30 28  1  0
 31 40  2  0
 31 36  1  0
 32 28  1  0
 32 36  1  0
 33 32  1  0
 34 35  1  0
 34 33  1  0
 35 31  1  0
 36 37  2  0
 37 38  1  0
 39 38  2  0
 40 39  1  0
 41 15  1  0
 41 46  1  0
 41 42  1  0
 42 45  1  1
 42 43  1  0
 44 42  1  0
 46 49  1  0
 47 51  1  0
 47 46  1  0
 48 47  2  0
 51 50  1  0
 53 51  1  0
 53 54  1  0
 53 52  1  0
 56 64  1  0
 57 62  1  0
 58 59  1  0
 58 57  1  0
 60 59  1  0
 60 69  1  0
 60 61  1  0
 62 56  1  0
 62 61  1  0
 63 56  2  0
 64 65  1  0
 64 55  1  0
 66 67  2  0
 67 86  1  0
 68 67  1  0
 68 71  1  0
 69 66  1  0
 69 70  1  0
 70 68  2  0
 71 72  1  0
 72 73  2  0
 74 77  1  0
 74 73  1  0
 75 74  2  0
 76 75  1  0
 76 71  2  0
 77 78  1  0
 78 79  1  0
 79 80  2  0
 81 80  1  0
 81 85  1  0
 82 81  2  0
 83 78  2  0
 83 82  1  0
 84 83  1  0
 86 87  1  0
 87 90  1  0
 87 89  1  0
 88 86  2  0
 91 92  1  0
 91 66  1  0
 93 91  1  0
M  ISO  4  13 101  14 101  56 100  64 100
M  END
>  <TORSDO>  (52) 
F 19

>  <SCORE>  (52) 
-14.512

>  <name>  (52) 
51

>  <ligand_id>  (52) 
51

>  <original_smiles>  (52) 
[H]c1c([H])c([H])c2c(c1[H])C([H])([H])C([H])([H])C([H])([H])C2([H])N([H])C(=O)C1([H])N(C(=O)C([H])(N([H])C(=O)C([H])(N([H])C([H])([H])[H])C([H])([H])[H])C(C([H])([H])[H])(C([H])([H])[H])C([H])([H])[H])C([H])([H])c2c([H])c(OC([H])([H])C([H])([H])C3([H])C([H])([H])C([H])([H])C4(C([H])([H])C([H])([H])C([H])(C([H])([H])N([H])C(=O)N5C([H])([H])C([H])([H])C([H])([H])C([H])(n6nc(-c7c([H])c([H])c(Oc8c([H])c([H])c(F)c([H])c8F)c([H])c7[H])c(C(=O)N([H])[H])c6N([H])[H])C5([H])[H])C([H])([H])C4([H])[H])C([H])([H])C3([H])[H])c([H])c([H])c2C1([H])[H]

>  <smiles>  (52) 
[H]c1c([H])c([H])c2c(c1[H])C([H])([H])C([H])([H])C([H])([H])C2([H])N([H])C(=O)C1([H])N(C(=O)C([H])(N([H])C(=O)C([H])(N([H])C([H])([H])[H])C([H])([H])[H])C(C([H])([H])[H])(C([H])([H])[H])C([H])([H])[H])C([H])([H])c2c([H])c(OC([H])([H])C([H])([H])C3([H])C([H])([H])C([H])([H])C4(C([H])([H])C([H])([H])C([H])(C([H])([H])N([H])C(=O)N5C([H])([H])C([H])([H])C([H])([H])C([H])(n6nc(-c7c([H])c([H])c(Oc8c([H])c([H])c(F)c([H])c8F)c([H])c7[H])c(C(=O)N([H])[H])c6N([H])[H])C5([H])[H])C([H])([H])C4([H])[H])C([H])([H])C3([H])[H])c([H])c([H])c2C1([H])[H]

$$$$
52:0:0
     RDKit          3D

 93102  0  0  1  0  0  0  0  0999 V2000
  -27.4170  -21.0760   20.6330 C   0  0  0  0  0  2  0  0  0  0  0  0
  -26.7320  -21.3860   19.2870 C   0  0  0  0  0  2  0  0  0  0  0  0
  -26.1000  -20.4290   16.9660 C   0  0  0  0  0  2  0  0  0  0  0  0
  -26.1600  -19.2320   17.8800 C   0  0  0  0  0  2  0  0  0  0  0  0
  -28.5450  -20.3380   17.8570 C   0  0  0  0  0  2  0  0  0  0  0  0
  -28.9410  -21.3010   20.6370 C   0  0  0  0  0  3  0  0  0  0  0  0
  -29.6940  -19.7700   20.0620 C   0  0  0  0  0  3  0  0  0  0  0  0
  -27.0510  -20.4310   18.1460 C   0  0  2  0  0  0  0  0  0  0  0  0
  -29.1980  -19.3510   18.7340 N   0  0  0  0  0  4  0  0  0  0  0  0
  -29.9880  -18.9730   18.2370 H   0  0  0  0  0  0  0  0  0  0  0  0
  -28.5530  -18.5920   18.8690 H   0  0  0  0  0  0  0  0  0  0  0  0
  -29.1900  -23.0390   20.2600 C   0  0  0  0  0  3  0  0  0  0  0  0
  -28.2110  -24.5050   20.5610 C   0  0  0  0  0  3  0  0  0  0  0  0
  -28.4270  -26.1130   20.3620 O   0  0  0  0  0  0  0  0  0  0  0  0
  -24.6880  -31.9730   23.2630 C   0  0  0  0  0  0  0  0  0  0  0  0
  -27.3750  -27.1570   20.3180 C   0  0  0  0  0  0  0  0  0  0  0  0
  -23.5420  -30.5500   21.6140 C   0  0  0  0  0  3  0  0  0  0  0  0
  -25.0390  -28.9670   20.2250 C   0  0  0  0  0  0  0  0  0  0  0  0
  -26.1030  -30.8160   21.5010 C   0  0  0  0  0  2  0  0  0  0  0  0
  -26.2090  -29.4070   20.8570 C   0  0  0  0  0  0  0  0  0  0  0  0
  -27.3750  -28.5250   20.8750 C   0  0  0  0  0  3  0  0  0  0  0  0
  -26.1730  -26.8590   19.6390 C   0  0  0  0  0  3  0  0  0  0  0  0
  -25.0420  -27.7130   19.5960 C   0  0  0  0  0  3  0  0  0  0  0  0
  -23.8030  -29.8630   20.2450 C   0  0  0  0  0  2  0  0  0  0  0  0
  -24.7980  -31.1400   22.1800 N   0  0  0  0  0  0  0  0  0  0  0  0
  -23.5860  -32.2480   23.7660 O   0  0  0  0  0  0  0  0  0  0  0  0
  -22.8520  -29.5460   22.5730 C   0  0  0  0  0  0  0  0  0  0  0  0
  -21.5270  -29.3570   22.4270 N   0  0  0  0  0  0  0  0  0  0  0  0
  -23.5140  -28.9370   23.4160 O   0  0  0  0  0  0  0  0  0  0  0  0
  -21.0460  -29.9000   21.7230 H   0  0  0  0  0  0  0  0  0  0  0  0
  -18.1480  -28.1300   22.9200 C   0  0  0  0  0  0  0  0  0  0  0  0
  -20.7070  -28.4090   23.1890 C   0  0  0  0  0  3  0  0  0  0  0  0
  -20.8160  -26.9810   22.6050 C   0  0  0  0  0  2  0  0  0  0  0  0
  -19.7170  -26.6600   21.5870 C   0  0  0  0  0  2  0  0  0  0  0  0
  -18.3340  -26.7900   22.2300 C   0  0  0  0  0  2  0  0  0  0  0  0
  -19.2610  -28.8980   23.3560 C   0  0  0  0  0  0  0  0  0  0  0  0
  -19.0310  -30.1520   23.9630 C   0  0  0  0  0  3  0  0  0  0  0  0
  -17.7210  -30.6380   24.1380 C   0  0  0  0  0  3  0  0  0  0  0  0
  -16.6240  -29.8680   23.7160 C   0  0  0  0  0  3  0  0  0  0  0  0
  -16.8380  -28.6160   23.1130 C   0  0  0  0  0  3  0  0  0  0  0  0
  -25.9400  -32.6380   23.9130 C   0  0  0  0  0  3  0  0  0  0  0  0
  -26.4290  -31.8940   25.2170 C   0  0  1  0  0  0  0  0  0  0  0  0
  -25.3020  -31.6270   26.2410 C   0  0  0  0  0  1  0  0  0  0  0  0
  -27.0750  -30.5360   24.8660 C   0  0  0  0  0  1  0  0  0  0  0  0
  -27.5240  -32.7330   25.9170 C   0  0  0  0  0  1  0  0  0  0  0  0
  -25.5980  -34.0360   24.2270 N   0  0  0  0  0  0  0  0  0  0  0  0
  -25.9180  -35.0930   23.4690 C   0  0  0  0  0  0  0  0  0  0  0  0
  -26.5970  -34.9950   22.4430 O   0  0  0  0  0  0  0  0  0  0  0  0
  -24.9960  -34.1840   25.0220 H   0  0  0  0  0  0  0  0  0  0  0  0
  -24.1680  -36.8640   23.0990 C   0  0  0  0  0  1  0  0  0  0  0  0
  -25.4100  -36.4780   23.9180 C   0  0  0  0  0  3  0  0  0  0  0  0
  -27.5220  -37.4060   24.7620 C   0  0  0  0  0  1  0  0  0  0  0  0
  -26.4280  -37.5470   23.8050 N   0  0  0  0  0  0  0  0  0  0  0  0
  -26.0060  -38.4610   23.9370 H   0  0  0  0  0  0  0  0  0  0  0  0
  -30.0390  -18.2310   20.8790 C   0  0  0  0  0  2  0  0  0  0  0  0
  -30.6780  -15.4070   20.3540 C   0  0  0  0  0  0  0  0  0  0  0  0
  -30.6440  -13.0120   19.3780 C   0  0  0  0  0  2  0  0  0  0  0  0
  -29.7100  -12.8520   18.1520 C   0  0  0  0  0  2  0  0  0  0  0  0
  -28.2580  -12.5900   18.5900 C   0  0  0  0  0  2  0  0  0  0  0  0
  -27.8200  -13.5150   19.7530 C   0  0  0  0  0  3  0  0  0  0  0  0
  -28.8790  -13.6060   20.8720 C   0  0  0  0  0  2  0  0  0  0  0  0
  -30.1070  -14.1160   20.2420 N   0  0  0  0  0  0  0  0  0  0  0  0
  -31.9040  -15.4330   20.1870 O   0  0  0  0  0  0  0  0  0  0  0  0
  -29.8850  -16.6400   20.4460 N   0  0  0  0  0  0  0  0  0  0  0  0
  -28.9100  -16.3800   20.4310 H   0  0  0  0  0  0  0  0  0  0  0  0
  -25.4410  -14.0490   20.5060 C   0  0  0  0  0  0  0  0  0  0  0  0
  -24.3860  -13.2590   20.8670 C   0  0  0  0  0  0  0  0  0  0  0  0
  -24.8660  -11.9140   20.8240 C   0  0  0  0  0  0  0  0  0  0  0  0
  -26.4930  -13.1850   20.2580 N   0  0  0  0  0  0  0  0  0  0  0  0
  -26.1580  -11.8950   20.5180 N   0  0  0  0  0  0  0  0  0  0  0  0
  -24.1490  -10.6420   20.9960 C   0  0  0  0  0  0  0  0  0  0  0  0
  -24.5300   -9.7060   21.9820 C   0  0  0  0  0  3  0  0  0  0  0  0
  -23.8110   -8.5020   22.1420 C   0  0  0  0  0  3  0  0  0  0  0  0
  -22.6960   -8.2250   21.3150 C   0  0  0  0  0  0  0  0  0  0  0  0
  -22.3350   -9.1500   20.3200 C   0  0  0  0  0  3  0  0  0  0  0  0
  -23.0550  -10.3460   20.1590 C   0  0  0  0  0  3  0  0  0  0  0  0
  -21.9530   -7.0710   21.3810 O   0  0  0  0  0  0  0  0  0  0  0  0
  -21.7720   -6.4000   22.5640 C   0  0  0  0  0  0  0  0  0  0  0  0
  -21.1460   -7.0070   23.6750 C   0  0  0  0  0  3  0  0  0  0  0  0
  -20.9160   -6.2590   24.8470 C   0  0  0  0  0  3  0  0  0  0  0  0
  -21.3000   -4.9060   24.9080 C   0  0  0  0  0  0  0  0  0  0  0  0
  -21.9180   -4.3000   23.8000 C   0  0  0  0  0  3  0  0  0  0  0  0
  -22.1490   -5.0440   22.6310 C   0  0  0  0  0  0  0  0  0  0  0  0
  -22.7260   -4.4490   21.5590 F   0  0  0  0  0  0  0  0  0  0  0  0
  -21.0720   -4.1850   26.0300 F   0  0  0  0  0  0  0  0  0  0  0  0
  -22.9830  -13.7200   21.1330 C   0  0  0  0  0  0  0  0  0  0  0  0
  -22.2600  -13.0160   21.9950 N   0  0  0  0  0  0  0  0  0  0  0  0
  -22.5380  -14.7430   20.6120 O   0  0  0  0  0  0  0  0  0  0  0  0
  -22.6340  -12.1890   22.4370 H   0  0  0  0  0  0  0  0  0  0  0  0
  -21.3190  -13.3080   22.2210 H   0  0  0  0  0  0  0  0  0  0  0  0
  -25.5850  -15.4220   20.3340 N   0  0  0  0  0  0  0  0  0  0  0  0
  -24.7910  -16.0490   20.4120 H   0  0  0  0  0  0  0  0  0  0  0  0
  -26.3940  -15.8610   19.9210 H   0  0  0  0  0  0  0  0  0  0  0  0
  1  6  1  0
  2  1  1  0
  3  4  1  0
  8  3  1  6
  4  8  1  0
  5  8  1  0
  5  9  1  0
  6 12  1  0
  7  6  1  0
  7 55  1  0
  8  2  1  0
  9 11  1  0
  9  7  1  0
 10  9  1  0
 12 13  2  0
 14 13  1  0
 15 26  2  0
 16 14  1  0
 16 21  1  0
 17 25  1  0
 17 27  1  0
 18 24  1  0
 18 20  1  0
 19 25  1  0
 20 21  2  0
 20 19  1  0
 22 16  2  0
 23 22  1  0
 23 18  2  0
 24 17  1  0
 25 15  1  0
 27 29  2  0
 28 27  1  0
 30 28  1  0
 31 40  2  0
 31 36  1  0
 32 28  1  0
 32 36  1  0
 33 32  1  0
 34 35  1  0
 34 33  1  0
 35 31  1  0
 36 37  2  0
 37 38  1  0
 39 38  2  0
 40 39  1  0
 41 15  1  0
 41 46  1  0
 41 42  1  0
 42 45  1  1
 42 43  1  0
 44 42  1  0
 46 49  1  0
 47 51  1  0
 47 46  1  0
 48 47  2  0
 51 50  1  0
 53 51  1  0
 53 54  1  0
 53 52  1  0
 56 64  1  0
 57 62  1  0
 58 59  1  0
 58 57  1  0
 60 59  1  0
 60 69  1  0
 60 61  1  0
 62 56  1  0
 62 61  1  0
 63 56  2  0
 64 55  1  0
 65 64  1  0
 66 67  2  0
 67 86  1  0
 68 67  1  0
 68 71  1  0
 69 66  1  0
 69 70  1  0
 70 68  2  0
 71 72  1  0
 72 73  2  0
 74 77  1  0
 74 73  1  0
 75 74  2  0
 76 75  1  0
 76 71  2  0
 77 78  1  0
 78 83  2  0
 78 79  1  0
 79 80  2  0
 80 81  1  0
 81 85  1  0
 82 81  2  0
 83 82  1  0
 84 83  1  0
 86 87  1  0
 87 90  1  0
 87 89  1  0
 88 86  2  0
 91 92  1  0
 91 66  1  0
 93 91  1  0
M  ISO  4  13 101  14 101  56 100  64 100
M  END
>  <TORSDO>  (53) 
F 19

>  <SCORE>  (53) 
-14.396

>  <name>  (53) 
52

>  <ligand_id>  (53) 
52

>  <original_smiles>  (53) 
[H]c1c([H])c([H])c2c(c1[H])C([H])([H])C([H])([H])C([H])([H])C2([H])N([H])C(=O)C1([H])N(C(=O)C([H])(N([H])C(=O)C([H])(N([H])C([H])([H])[H])C([H])([H])[H])C(C([H])([H])[H])(C([H])([H])[H])C([H])([H])[H])C([H])([H])c2c([H])c(OC([H])([H])C([H])([H])C3([H])C([H])([H])C([H])([H])C4(C([H])([H])C4([H])[H])C([H])([H])[N+]([H])([H])C3([H])C([H])([H])N([H])C(=O)N3C([H])([H])C([H])([H])C([H])([H])C([H])(n4nc(-c5c([H])c([H])c(Oc6c([H])c([H])c(F)c([H])c6F)c([H])c5[H])c(C(=O)N([H])[H])c4N([H])[H])C3([H])[H])c([H])c([H])c2C1([H])[H]

>  <smiles>  (53) 
[H]c1c([H])c([H])c2c(c1[H])C([H])([H])C([H])([H])C([H])([H])C2([H])N([H])C(=O)C1([H])N(C(=O)C([H])(N([H])C(=O)C([H])(N([H])C([H])([H])[H])C([H])([H])[H])C(C([H])([H])[H])(C([H])([H])[H])C([H])([H])[H])C([H])([H])c2c([H])c(OC([H])([H])C([H])([H])C3([H])C([H])([H])C([H])([H])C4(C([H])([H])C4([H])[H])C([H])([H])[N+]([H])([H])C3([H])C([H])([H])N([H])C(=O)N3C([H])([H])C([H])([H])C([H])([H])C([H])(n4nc(-c5c([H])c([H])c(Oc6c([H])c([H])c(F)c([H])c6F)c([H])c5[H])c(C(=O)N([H])[H])c4N([H])[H])C3([H])[H])c([H])c([H])c2C1([H])[H]

$$$$
53:0:0
     RDKit          3D

 90 99  0  0  1  0  0  0  0  0999 V2000
  -27.5060  -21.6790   21.1150 C   0  0  0  0  0  2  0  0  0  0  0  0
  -28.8530  -22.0080   21.7060 C   0  0  0  0  0  2  0  0  0  0  0  0
  -29.2400  -20.7380   19.4140 C   0  0  0  0  0  2  0  0  0  0  0  0
  -28.7680  -23.0920   19.2960 C   0  0  0  0  0  2  0  0  0  0  0  0
  -28.8120  -20.9570   17.9590 C   0  0  0  0  0  3  0  0  0  0  0  0
  -28.9870  -22.6470   17.8240 C   0  0  0  0  0  3  0  0  0  0  0  0
  -28.7020  -21.8890   20.2050 C   0  0  1  0  0  0  0  0  0  0  0  0
  -29.4440  -19.6460   17.1240 C   0  0  0  0  0  2  0  0  0  0  0  0
  -30.6700  -18.5750   17.5870 C   0  0  0  0  0  2  0  0  0  0  0  0
  -31.5570  -16.1270   18.4480 C   0  0  0  0  0  0  0  0  0  0  0  0
  -31.8840  -13.6370   18.7690 C   0  0  0  0  0  2  0  0  0  0  0  0
  -31.0210  -12.8340   17.7690 C   0  0  0  0  0  2  0  0  0  0  0  0
  -29.5970  -12.6230   18.3200 C   0  0  0  0  0  2  0  0  0  0  0  0
  -28.9890  -13.9210   18.9120 C   0  0  0  0  0  3  0  0  0  0  0  0
  -29.9820  -14.6600   19.8330 C   0  0  0  0  0  2  0  0  0  0  0  0
  -31.1830  -14.9240   19.0310 N   0  0  0  0  0  0  0  0  0  0  0  0
  -32.7460  -16.2750   18.1480 O   0  0  0  0  0  0  0  0  0  0  0  0
  -30.5800  -17.0690   18.0330 N   0  0  0  0  0  0  0  0  0  0  0  0
  -29.6390  -16.7630   18.2340 H   0  0  0  0  0  0  0  0  0  0  0  0
  -26.7620  -14.6050   19.9730 C   0  0  0  0  0  0  0  0  0  0  0  0
  -25.7010  -13.8770   20.4370 C   0  0  0  0  0  0  0  0  0  0  0  0
  -26.0670  -12.5040   20.2840 C   0  0  0  0  0  0  0  0  0  0  0  0
  -27.7060  -13.6790   19.5620 N   0  0  0  0  0  0  0  0  0  0  0  0
  -27.3050  -12.4050   19.8140 N   0  0  0  0  0  0  0  0  0  0  0  0
  -25.2850  -11.2790   20.5030 C   0  0  0  0  0  0  0  0  0  0  0  0
  -25.6220  -10.3590   21.5200 C   0  0  0  0  0  3  0  0  0  0  0  0
  -24.8420   -9.1990   21.7230 C   0  0  0  0  0  3  0  0  0  0  0  0
  -23.7110   -8.9530   20.9100 C   0  0  0  0  0  0  0  0  0  0  0  0
  -23.3930   -9.8600   19.8840 C   0  0  0  0  0  3  0  0  0  0  0  0
  -24.1730  -11.0100   19.6790 C   0  0  0  0  0  3  0  0  0  0  0  0
  -22.9110   -7.8410   21.0170 O   0  0  0  0  0  0  0  0  0  0  0  0
  -22.4530   -7.3990   22.2310 C   0  0  0  0  0  0  0  0  0  0  0  0
  -21.6030   -8.1880   23.0390 C   0  0  0  0  0  3  0  0  0  0  0  0
  -21.1000   -7.6680   24.2480 C   0  0  0  0  0  3  0  0  0  0  0  0
  -21.4360   -6.3600   24.6480 C   0  0  0  0  0  0  0  0  0  0  0  0
  -22.2760   -5.5720   23.8420 C   0  0  0  0  0  3  0  0  0  0  0  0
  -22.7810   -6.0890   22.6370 C   0  0  0  0  0  0  0  0  0  0  0  0
  -23.5730   -5.3180   21.8540 F   0  0  0  0  0  0  0  0  0  0  0  0
  -20.9460   -5.8580   25.8050 F   0  0  0  0  0  0  0  0  0  0  0  0
  -24.3830  -14.4220   20.9010 C   0  0  0  0  0  0  0  0  0  0  0  0
  -23.7620  -13.7730   21.8800 N   0  0  0  0  0  0  0  0  0  0  0  0
  -23.9190  -15.4590   20.4290 O   0  0  0  0  0  0  0  0  0  0  0  0
  -24.1540  -12.9330   22.2800 H   0  0  0  0  0  0  0  0  0  0  0  0
  -22.8840  -14.1210   22.2360 H   0  0  0  0  0  0  0  0  0  0  0  0
  -26.9920  -15.9710   19.8390 N   0  0  0  0  0  0  0  0  0  0  0  0
  -26.2850  -16.6600   20.0700 H   0  0  0  0  0  0  0  0  0  0  0  0
  -27.8060  -16.3760   19.3960 H   0  0  0  0  0  0  0  0  0  0  0  0
  -28.1950  -23.8350   16.9220 C   0  0  0  0  0  3  0  0  0  0  0  0
  -27.5400  -25.2410   17.6060 C   0  0  0  0  0  3  0  0  0  0  0  0
  -26.9900  -26.5380   16.9620 O   0  0  0  0  0  0  0  0  0  0  0  0
  -25.5820  -30.4060   23.0840 C   0  0  0  0  0  0  0  0  0  0  0  0
  -26.2100  -27.4860   17.7070 C   0  0  0  0  0  0  0  0  0  0  0  0
  -23.7460  -30.1120   21.4630 C   0  0  0  0  0  3  0  0  0  0  0  0
  -24.4160  -29.2630   19.1340 C   0  0  0  0  0  0  0  0  0  0  0  0
  -26.1860  -30.1490   20.6490 C   0  0  0  0  0  2  0  0  0  0  0  0
  -25.7740  -29.2400   19.4790 C   0  0  0  0  0  0  0  0  0  0  0  0
  -26.6750  -28.3780   18.7520 C   0  0  0  0  0  3  0  0  0  0  0  0
  -24.8430  -27.6050   17.3820 C   0  0  0  0  0  3  0  0  0  0  0  0
  -23.9620  -28.4640   18.0730 C   0  0  0  0  0  3  0  0  0  0  0  0
  -23.4840  -30.1590   19.9350 C   0  0  0  0  0  2  0  0  0  0  0  0
  -25.2080  -30.2120   21.7830 N   0  0  0  0  0  0  0  0  0  0  0  0
  -24.7410  -30.5170   23.9900 O   0  0  0  0  0  0  0  0  0  0  0  0
  -23.0740  -28.8490   22.0590 C   0  0  0  0  0  0  0  0  0  0  0  0
  -21.7310  -28.7850   22.0030 N   0  0  0  0  0  0  0  0  0  0  0  0
  -23.7610  -27.9420   22.5350 O   0  0  0  0  0  0  0  0  0  0  0  0
  -21.2350  -29.5730   21.6090 H   0  0  0  0  0  0  0  0  0  0  0  0
  -18.3710  -27.4350   22.0040 C   0  0  0  0  0  0  0  0  0  0  0  0
  -20.9070  -27.6630   22.4600 C   0  0  0  0  0  3  0  0  0  0  0  0
  -21.0780  -26.4350   21.5360 C   0  0  0  0  0  2  0  0  0  0  0  0
  -20.0330  -26.3720   20.4190 C   0  0  0  0  0  2  0  0  0  0  0  0
  -18.6190  -26.3160   21.0060 C   0  0  0  0  0  2  0  0  0  0  0  0
  -19.4450  -28.0770   22.6750 C   0  0  0  0  0  0  0  0  0  0  0  0
  -19.1600  -29.1340   23.5660 C   0  0  0  0  0  3  0  0  0  0  0  0
  -17.8340  -29.5460   23.7940 C   0  0  0  0  0  3  0  0  0  0  0  0
  -16.7740  -28.8970   23.1380 C   0  0  0  0  0  3  0  0  0  0  0  0
  -17.0430  -27.8420   22.2490 C   0  0  0  0  0  3  0  0  0  0  0  0
  -27.0820  -30.5160   23.4940 C   0  0  0  0  0  3  0  0  0  0  0  0
  -27.6780  -29.1550   24.0280 C   0  0  1  0  0  0  0  0  0  0  0  0
  -26.8400  -28.5040   25.1530 C   0  0  0  0  0  1  0  0  0  0  0  0
  -27.8060  -28.1240   22.8840 C   0  0  0  0  0  1  0  0  0  0  0  0
  -29.1070  -29.3880   24.5720 C   0  0  0  0  0  1  0  0  0  0  0  0
  -27.1910  -31.5620   24.5240 N   0  0  0  0  0  0  0  0  0  0  0  0
  -27.7410  -32.7670   24.3330 C   0  0  0  0  0  0  0  0  0  0  0  0
  -28.2760  -33.0970   23.2710 O   0  0  0  0  0  0  0  0  0  0  0  0
  -26.7270  -31.3800   25.4020 H   0  0  0  0  0  0  0  0  0  0  0  0
  -26.6190  -34.8340   25.2280 C   0  0  0  0  0  1  0  0  0  0  0  0
  -27.6930  -33.7690   25.5040 C   0  0  0  0  0  3  0  0  0  0  0  0
  -29.9940  -33.5260   26.3250 C   0  0  0  0  0  1  0  0  0  0  0  0
  -28.9890  -34.4300   25.7720 N   0  0  0  0  0  0  0  0  0  0  0  0
  -28.8710  -35.2070   26.4170 H   0  0  0  0  0  0  0  0  0  0  0  0
  1  2  1  0
  7  3  1  6
  4  7  1  0
  5  8  1  0
  5  3  1  0
  6 48  1  0
  6  5  1  0
  6  4  1  0
  7  1  1  0
  7  2  1  0
  8  9  1  0
  9 18  1  0
 10 16  1  0
 11 16  1  0
 12 13  1  0
 12 11  1  0
 14 13  1  0
 14 23  1  0
 14 15  1  0
 16 15  1  0
 17 10  2  0
 18 19  1  0
 18 10  1  0
 20 21  2  0
 21 40  1  0
 22 21  1  0
 22 25  1  0
 23 24  1  0
 23 20  1  0
 24 22  2  0
 25 26  1  0
 26 27  2  0
 28 31  1  0
 28 27  1  0
 29 28  2  0
 30 29  1  0
 30 25  2  0
 31 32  1  0
 32 37  2  0
 32 33  1  0
 33 34  2  0
 34 35  1  0
 35 39  1  0
 36 35  2  0
 37 36  1  0
 38 37  1  0
 40 41  1  0
 41 44  1  0
 41 43  1  0
 42 40  2  0
 45 20  1  0
 45 46  1  0
 47 45  1  0
 48 49  2  0
 50 49  1  0
 50 52  1  0
 51 62  2  0
 52 57  1  0
 53 61  1  0
 53 63  1  0
 54 56  1  0
 54 60  1  0
 55 61  1  0
 56 55  1  0
 57 56  2  0
 58 52  2  0
 58 59  1  0
 59 54  2  0
 60 53  1  0
 61 51  1  0
 63 65  2  0
 64 63  1  0
 66 64  1  0
 67 76  2  0
 67 72  1  0
 68 64  1  0
 68 72  1  0
 69 68  1  0
 70 71  1  0
 70 69  1  0
 71 67  1  0
 72 73  2  0
 73 74  1  0
 75 74  2  0
 76 75  1  0
 77 51  1  0
 77 78  1  0
 77 82  1  0
 78 81  1  1
 78 79  1  0
 80 78  1  0
 82 85  1  0
 83 82  1  0
 83 87  1  0
 84 83  2  0
 87 86  1  0
 87 89  1  0
 89 88  1  0
 89 90  1  0
M  ISO  4  10 100  18 100  49 101  50 101
M  END
>  <TORSDO>  (54) 
F 20

>  <SCORE>  (54) 
-8.928

>  <name>  (54) 
53

>  <ligand_id>  (54) 
53

>  <original_smiles>  (54) 
[H]c1c([H])c([H])c2c(c1[H])C([H])([H])C([H])([H])C([H])([H])C2([H])N([H])C(=O)C1([H])N(C(=O)C([H])(N([H])C(=O)C([H])(N([H])C([H])([H])[H])C([H])([H])[H])C(C([H])([H])[H])(C([H])([H])[H])C([H])([H])[H])C([H])([H])c2c([H])c(OC([H])([H])C([H])([H])C3([H])C([H])([H])C4(C([H])([H])C4([H])[H])C([H])([H])C3([H])C([H])([H])C([H])([H])N([H])C(=O)N3C([H])([H])C([H])([H])C([H])([H])C([H])(n4nc(-c5c([H])c([H])c(Oc6c([H])c([H])c(F)c([H])c6F)c([H])c5[H])c(C(=O)N([H])[H])c4N([H])[H])C3([H])[H])c([H])c([H])c2C1([H])[H]

>  <smiles>  (54) 
[H]c1c([H])c([H])c2c(c1[H])C([H])([H])C([H])([H])C([H])([H])C2([H])N([H])C(=O)C1([H])N(C(=O)C([H])(N([H])C(=O)C([H])(N([H])C([H])([H])[H])C([H])([H])[H])C(C([H])([H])[H])(C([H])([H])[H])C([H])([H])[H])C([H])([H])c2c([H])c(OC([H])([H])C([H])([H])C3([H])C([H])([H])C4(C([H])([H])C4([H])[H])C([H])([H])C3([H])C([H])([H])C([H])([H])N([H])C(=O)N3C([H])([H])C([H])([H])C([H])([H])C([H])(n4nc(-c5c([H])c([H])c(Oc6c([H])c([H])c(F)c([H])c6F)c([H])c5[H])c(C(=O)N([H])[H])c4N([H])[H])C3([H])[H])c([H])c([H])c2C1([H])[H]

$$$$
54:0:0
     RDKit          3D

 95103  0  0  1  0  0  0  0  0999 V2000
  -29.2000  -19.7120   21.6450 C   0  0  0  0  0  2  0  0  0  0  0  0
  -29.3180  -21.3270   21.5420 C   0  0  0  0  0  2  0  0  0  0  0  0
  -30.1800  -18.7760   19.5130 C   0  0  0  0  0  2  0  0  0  0  0  0
  -30.2850  -18.7080   21.0460 C   0  0  0  0  0  3  0  0  0  0  0  0
  -29.5520  -22.1310   20.1840 C   0  0  0  0  0  3  0  0  0  0  0  0
  -29.3690  -21.0850   19.0210 C   0  0  0  0  0  3  0  0  0  0  0  0
  -30.4430  -20.1190   19.0500 O   0  0  0  0  0  0  0  0  0  0  0  0
  -28.8370  -23.5960   19.9080 C   0  0  0  0  0  2  0  0  0  0  0  0
  -28.9020  -24.9220   20.8380 C   0  0  0  0  0  2  0  0  0  0  0  0
  -28.8820  -26.3440   20.3300 O   0  0  0  0  0  0  0  0  0  0  0  0
  -24.9120  -31.6510   23.3600 C   0  0  0  0  0  0  0  0  0  0  0  0
  -27.7380  -27.1690   20.3370 C   0  0  0  0  0  0  0  0  0  0  0  0
  -23.8220  -30.2970   21.6060 C   0  0  0  0  0  3  0  0  0  0  0  0
  -25.3680  -28.7890   20.2270 C   0  0  0  0  0  0  0  0  0  0  0  0
  -26.3670  -30.6300   21.5840 C   0  0  0  0  0  2  0  0  0  0  0  0
  -26.4980  -29.2670   20.9030 C   0  0  0  0  0  0  0  0  0  0  0  0
  -27.6880  -28.4730   20.9380 C   0  0  0  0  0  3  0  0  0  0  0  0
  -26.5850  -26.7440   19.6490 C   0  0  0  0  0  3  0  0  0  0  0  0
  -25.4170  -27.5370   19.5880 C   0  0  0  0  0  3  0  0  0  0  0  0
  -24.1260  -29.6610   20.2220 C   0  0  0  0  0  2  0  0  0  0  0  0
  -25.0490  -30.8770   22.2410 N   0  0  0  0  0  0  0  0  0  0  0  0
  -23.7950  -31.9030   23.8360 O   0  0  0  0  0  0  0  0  0  0  0  0
  -23.1090  -29.2490   22.4940 C   0  0  0  0  0  0  0  0  0  0  0  0
  -21.7820  -29.1150   22.3290 N   0  0  0  0  0  0  0  0  0  0  0  0
  -23.7520  -28.5600   23.2910 O   0  0  0  0  0  0  0  0  0  0  0  0
  -21.3250  -29.7220   21.6640 H   0  0  0  0  0  0  0  0  0  0  0  0
  -18.3530  -28.0420   22.7590 C   0  0  0  0  0  0  0  0  0  0  0  0
  -20.9220  -28.1560   23.0260 C   0  0  0  0  0  3  0  0  0  0  0  0
  -20.9520  -26.7750   22.3310 C   0  0  0  0  0  2  0  0  0  0  0  0
  -19.8310  -26.5930   21.3030 C   0  0  0  0  0  2  0  0  0  0  0  0
  -18.4600  -26.7480   21.9700 C   0  0  0  0  0  2  0  0  0  0  0  0
  -19.5090  -28.7100   23.2410 C   0  0  0  0  0  0  0  0  0  0  0  0
  -19.3550  -29.9270   23.9410 C   0  0  0  0  0  3  0  0  0  0  0  0
  -18.0760  -30.4730   24.1630 C   0  0  0  0  0  3  0  0  0  0  0  0
  -16.9340  -29.7990   23.6970 C   0  0  0  0  0  3  0  0  0  0  0  0
  -17.0740  -28.5850   23.0010 C   0  0  0  0  0  3  0  0  0  0  0  0
  -26.1460  -32.2740   24.0800 C   0  0  0  0  0  3  0  0  0  0  0  0
  -25.7960  -33.6520   24.4540 N   0  0  0  0  0  0  0  0  0  0  0  0
  -26.1680  -34.7450   23.7740 C   0  0  0  0  0  0  0  0  0  0  0  0
  -26.9080  -34.6990   22.7880 O   0  0  0  0  0  0  0  0  0  0  0  0
  -25.1460  -33.7620   25.2190 H   0  0  0  0  0  0  0  0  0  0  0  0
  -24.4490  -36.5430   23.3880 C   0  0  0  0  0  1  0  0  0  0  0  0
  -25.6330  -36.1060   24.2650 C   0  0  0  0  0  3  0  0  0  0  0  0
  -27.6880  -36.9660   25.2970 C   0  0  0  0  0  1  0  0  0  0  0  0
  -26.6590  -37.1700   24.2810 N   0  0  0  0  0  0  0  0  0  0  0  0
  -26.2330  -38.0790   24.4410 H   0  0  0  0  0  0  0  0  0  0  0  0
  -26.6020  -31.4560   25.3500 C   0  0  1  0  0  0  0  0  0  0  0  0
  -25.4570  -31.1650   26.3480 C   0  0  0  0  0  1  0  0  0  0  0  0
  -27.2220  -30.1020   24.9360 C   0  0  0  0  0  1  0  0  0  0  0  0
  -27.7080  -32.2330   26.1040 C   0  0  0  0  0  1  0  0  0  0  0  0
  -30.5510  -17.2470   21.7670 C   0  0  0  0  0  2  0  0  0  0  0  0
  -30.8760  -14.6960   21.1430 C   0  0  0  0  0  0  0  0  0  0  0  0
  -30.7500  -12.4240   20.0910 C   0  0  0  0  0  2  0  0  0  0  0  0
  -29.9090  -12.4890   18.7980 C   0  0  0  0  0  2  0  0  0  0  0  0
  -28.4100  -12.3190   19.1150 C   0  0  0  0  0  2  0  0  0  0  0  0
  -27.9450  -13.2130   20.2960 C   0  0  0  0  0  3  0  0  0  0  0  0
  -28.9100  -13.1250   21.4950 C   0  0  0  0  0  2  0  0  0  0  0  0
  -30.2430  -13.4810   20.9970 N   0  0  0  0  0  0  0  0  0  0  0  0
  -32.0940  -14.7690   20.9640 O   0  0  0  0  0  0  0  0  0  0  0  0
  -30.1080  -15.8490   21.3070 N   0  0  0  0  0  0  0  0  0  0  0  0
  -29.1120  -15.6870   21.3230 H   0  0  0  0  0  0  0  0  0  0  0  0
  -25.5240  -13.8260   20.8740 C   0  0  0  0  0  0  0  0  0  0  0  0
  -24.4210  -13.0610   21.1390 C   0  0  0  0  0  0  0  0  0  0  0  0
  -24.8620  -11.7020   21.0940 C   0  0  0  0  0  0  0  0  0  0  0  0
  -26.5660  -12.9340   20.6810 N   0  0  0  0  0  0  0  0  0  0  0  0
  -26.1710  -11.6490   20.8790 N   0  0  0  0  0  0  0  0  0  0  0  0
  -24.1020  -10.4490   21.1850 C   0  0  0  0  0  0  0  0  0  0  0  0
  -24.4640   -9.4290   22.0920 C   0  0  0  0  0  3  0  0  0  0  0  0
  -23.7060   -8.2410   22.1730 C   0  0  0  0  0  3  0  0  0  0  0  0
  -22.5710   -8.0660   21.3460 C   0  0  0  0  0  0  0  0  0  0  0  0
  -22.2290   -9.0740   20.4290 C   0  0  0  0  0  3  0  0  0  0  0  0
  -22.9880  -10.2530   20.3450 C   0  0  0  0  0  3  0  0  0  0  0  0
  -21.7900   -6.9340   21.3390 O   0  0  0  0  0  0  0  0  0  0  0  0
  -21.6810   -6.1280   22.4430 C   0  0  0  0  0  0  0  0  0  0  0  0
  -21.1950   -6.6150   23.6760 C   0  0  0  0  0  3  0  0  0  0  0  0
  -21.0330   -5.7350   24.7660 C   0  0  0  0  0  3  0  0  0  0  0  0
  -21.3470   -4.3710   24.6220 C   0  0  0  0  0  0  0  0  0  0  0  0
  -21.8260   -3.8840   23.3940 C   0  0  0  0  0  3  0  0  0  0  0  0
  -21.9900   -4.7600   22.3060 C   0  0  0  0  0  0  0  0  0  0  0  0
  -22.4310   -4.2810   21.1180 F   0  0  0  0  0  0  0  0  0  0  0  0
  -21.1850   -3.5240   25.6660 F   0  0  0  0  0  0  0  0  0  0  0  0
  -23.0150  -13.5560   21.3210 C   0  0  0  0  0  0  0  0  0  0  0  0
  -22.2160  -12.8510   22.1140 N   0  0  0  0  0  0  0  0  0  0  0  0
  -22.6340  -14.6010   20.7970 O   0  0  0  0  0  0  0  0  0  0  0  0
  -22.5360  -12.0050   22.5590 H   0  0  0  0  0  0  0  0  0  0  0  0
  -21.2690  -13.1630   22.2770 H   0  0  0  0  0  0  0  0  0  0  0  0
  -25.7230  -15.1980   20.7570 N   0  0  0  0  0  0  0  0  0  0  0  0
  -24.9590  -15.8600   20.8330 H   0  0  0  0  0  0  0  0  0  0  0  0
  -26.5930  -15.6310   20.4760 H   0  0  0  0  0  0  0  0  0  0  0  0
  -29.4080  -21.6910   17.6000 C   0  0  0  0  0  2  0  0  0  0  0  0
  -29.4380  -20.6330   16.4790 C   0  0  0  0  0  2  0  0  0  0  0  0
  -29.6420  -21.2290   15.1450 N   0  0  0  0  0  4  0  0  0  0  0  0
  -28.9080  -21.8760   14.9210 H   0  0  0  0  0  0  0  0  0  0  0  0
  -29.6440  -20.5080   14.4460 H   0  0  0  0  0  0  0  0  0  0  0  0
  -30.5230  -21.7070   15.0970 H   0  0  0  0  0  0  0  0  0  0  0  0
  2  1  1  0
  3  4  1  0
  4  1  1  0
  4 51  1  0
  5  8  1  0
  5  2  1  0
  6 90  1  0
  6  7  1  0
  6  5  1  0
  7  3  1  0
  8  9  1  0
 10 12  1  0
 10  9  1  0
 11 22  2  0
 12 17  1  0
 13 21  1  0
 13 23  1  0
 14 16  1  0
 15 21  1  0
 16 17  2  0
 16 15  1  0
 18 12  2  0
 19 18  1  0
 19 14  2  0
 20 14  1  0
 20 13  1  0
 21 11  1  0
 23 25  2  0
 24 23  1  0
 26 24  1  0
 27 36  2  0
 27 32  1  0
 28 24  1  0
 28 32  1  0
 29 28  1  0
 30 31  1  0
 30 29  1  0
 31 27  1  0
 32 33  2  0
 33 34  1  0
 35 34  2  0
 36 35  1  0
 37 11  1  0
 37 38  1  0
 37 47  1  0
 38 41  1  0
 39 43  1  0
 39 38  1  0
 40 39  2  0
 43 42  1  0
 43 45  1  0
 45 46  1  0
 45 44  1  0
 47 50  1  1
 47 48  1  0
 49 47  1  0
 52 60  1  0
 53 58  1  0
 54 55  1  0
 54 53  1  0
 56 55  1  0
 56 65  1  0
 56 57  1  0
 58 52  1  0
 58 57  1  0
 59 52  2  0
 60 61  1  0
 60 51  1  0
 62 63  2  0
 63 82  1  0
 64 63  1  0
 64 67  1  0
 65 62  1  0
 65 66  1  0
 66 64  2  0
 67 68  1  0
 68 69  2  0
 70 69  1  0
 71 70  2  0
 72 71  1  0
 72 67  2  0
 73 70  1  0
 73 74  1  0
 74 75  1  0
 75 76  2  0
 77 76  1  0
 77 81  1  0
 78 77  2  0
 79 74  2  0
 79 78  1  0
 80 79  1  0
 82 83  1  0
 83 86  1  0
 83 85  1  0
 84 82  2  0
 87 88  1  0
 87 62  1  0
 89 87  1  0
 91 90  1  0
 92 91  1  0
 93 92  1  0
 94 92  1  0
 95 92  1  0
M  ISO  4   9 101  10 101  52 100  60 100
M  END
>  <TORSDO>  (55) 
F 22

>  <SCORE>  (55) 
-11.636

>  <name>  (55) 
54

>  <ligand_id>  (55) 
54

>  <original_smiles>  (55) 
[H]c1c([H])c([H])c2c(c1[H])C([H])([H])C([H])([H])C([H])([H])C2([H])N([H])C(=O)C1([H])N(C(=O)C([H])(N([H])C(=O)C([H])(N([H])C([H])([H])[H])C([H])([H])[H])C(C([H])([H])[H])(C([H])([H])[H])C([H])([H])[H])C([H])([H])c2c([H])c(OC([H])([H])C([H])([H])C3([H])C([H])([H])C([H])([H])C([H])(C([H])([H])N([H])C(=O)N4C([H])([H])C([H])([H])C([H])([H])C([H])(n5nc(-c6c([H])c([H])c(Oc7c([H])c([H])c(F)c([H])c7F)c([H])c6[H])c(C(=O)N([H])[H])c5N([H])[H])C4([H])[H])C([H])([H])OC3([H])C([H])([H])C([H])([H])[N+]([H])([H])[H])c([H])c([H])c2C1([H])[H]

>  <smiles>  (55) 
[H]c1c([H])c([H])c2c(c1[H])C([H])([H])C([H])([H])C([H])([H])C2([H])N([H])C(=O)C1([H])N(C(=O)C([H])(N([H])C(=O)C([H])(N([H])C([H])([H])[H])C([H])([H])[H])C(C([H])([H])[H])(C([H])([H])[H])C([H])([H])[H])C([H])([H])c2c([H])c(OC([H])([H])C([H])([H])C3([H])C([H])([H])C([H])([H])C([H])(C([H])([H])N([H])C(=O)N4C([H])([H])C([H])([H])C([H])([H])C([H])(n5nc(-c6c([H])c([H])c(Oc7c([H])c([H])c(F)c([H])c7F)c([H])c6[H])c(C(=O)N([H])[H])c5N([H])[H])C4([H])[H])C([H])([H])OC3([H])C([H])([H])C([H])([H])[N+]([H])([H])[H])c([H])c([H])c2C1([H])[H]

$$$$
56:0:0
     RDKit          3D

 92 99  0  0  1  0  0  0  0  0999 V2000
  -30.3600  -24.1340   22.9640 C   0  0  0  0  0  0  0  0  0  0  0  0
  -29.1890  -24.4490   22.3930 N   0  0  0  0  0  0  0  0  0  0  0  0
  -31.3940  -24.7700   22.7540 O   0  0  0  0  0  0  0  0  0  0  0  0
  -28.3910  -23.8610   22.5920 H   0  0  0  0  0  0  0  0  0  0  0  0
  -30.3730  -22.9550   23.9420 C   0  0  0  0  0  2  0  0  0  0  0  0
  -31.2350  -21.7600   23.4820 C   0  0  0  0  0  2  0  0  0  0  0  0
  -30.6450  -21.0440   22.2550 C   0  0  0  0  0  2  0  0  0  0  0  0
  -31.2300  -19.6650   22.0180 C   0  0  0  0  0  3  0  0  0  0  0  0
  -30.5470  -18.5370   22.2770 C   0  0  0  0  0  3  0  0  0  0  0  0
  -31.0120  -17.1220   22.0030 C   0  0  0  0  0  2  0  0  0  0  0  0
  -30.0870  -16.4760   20.9590 C   0  0  0  0  0  2  0  0  0  0  0  0
  -30.6020  -14.1380   20.2820 C   0  0  0  0  0  0  0  0  0  0  0  0
  -30.3290  -11.9860   19.1150 C   0  0  0  0  0  2  0  0  0  0  0  0
  -29.3630  -12.1660   17.9250 C   0  0  0  0  0  2  0  0  0  0  0  0
  -27.8970  -12.0060   18.3760 C   0  0  0  0  0  2  0  0  0  0  0  0
  -27.5620  -12.8540   19.6300 C   0  0  0  0  0  3  0  0  0  0  0  0
  -28.6280  -12.6300   20.7290 C   0  0  0  0  0  2  0  0  0  0  0  0
  -29.9540  -12.9520   20.1570 N   0  0  0  0  0  0  0  0  0  0  0  0
  -31.6280  -14.4290   19.6570 O   0  0  0  0  0  0  0  0  0  0  0  0
  -29.9860  -15.0240   21.0700 N   0  0  0  0  0  0  0  0  0  0  0  0
  -29.1990  -14.6670   21.5900 H   0  0  0  0  0  0  0  0  0  0  0  0
  -25.1400  -13.4360   20.3030 C   0  0  0  0  0  0  0  0  0  0  0  0
  -24.0920  -12.6540   20.7100 C   0  0  0  0  0  0  0  0  0  0  0  0
  -24.5890  -11.3160   20.7400 C   0  0  0  0  0  0  0  0  0  0  0  0
  -26.2110  -12.5740   20.1170 N   0  0  0  0  0  0  0  0  0  0  0  0
  -25.8790  -11.2950   20.4300 N   0  0  0  0  0  0  0  0  0  0  0  0
  -23.8980  -10.0440   20.9910 C   0  0  0  0  0  0  0  0  0  0  0  0
  -24.2980   -9.1760   22.0310 C   0  0  0  0  0  3  0  0  0  0  0  0
  -23.6050   -7.9680   22.2630 C   0  0  0  0  0  3  0  0  0  0  0  0
  -22.4980   -7.6200   21.4510 C   0  0  0  0  0  0  0  0  0  0  0  0
  -22.1190   -8.4760   20.4030 C   0  0  0  0  0  3  0  0  0  0  0  0
  -22.8130   -9.6740   20.1710 C   0  0  0  0  0  3  0  0  0  0  0  0
  -21.7820   -6.4550   21.5850 O   0  0  0  0  0  0  0  0  0  0  0  0
  -21.6220   -5.8440   22.8030 C   0  0  0  0  0  0  0  0  0  0  0  0
  -21.0030   -6.5030   23.8880 C   0  0  0  0  0  3  0  0  0  0  0  0
  -20.7930   -5.8150   25.1010 C   0  0  0  0  0  3  0  0  0  0  0  0
  -21.1950   -4.4710   25.2280 C   0  0  0  0  0  0  0  0  0  0  0  0
  -21.8100   -3.8160   24.1480 C   0  0  0  0  0  3  0  0  0  0  0  0
  -22.0190   -4.4990   22.9380 C   0  0  0  0  0  0  0  0  0  0  0  0
  -22.5920   -3.8550   21.8920 F   0  0  0  0  0  0  0  0  0  0  0  0
  -20.9890   -3.8100   26.3910 F   0  0  0  0  0  0  0  0  0  0  0  0
  -22.6830  -13.1070   20.9650 C   0  0  0  0  0  0  0  0  0  0  0  0
  -21.9750  -12.4370   21.8680 N   0  0  0  0  0  0  0  0  0  0  0  0
  -22.2140  -14.0940   20.3990 O   0  0  0  0  0  0  0  0  0  0  0  0
  -22.3640  -11.6430   22.3550 H   0  0  0  0  0  0  0  0  0  0  0  0
  -21.0290  -12.7250   22.0770 H   0  0  0  0  0  0  0  0  0  0  0  0
  -25.2660  -14.8010   20.0630 N   0  0  0  0  0  0  0  0  0  0  0  0
  -24.4840  -15.4410   20.1520 H   0  0  0  0  0  0  0  0  0  0  0  0
  -26.1070  -15.2470   19.7190 H   0  0  0  0  0  0  0  0  0  0  0  0
  -28.9650  -25.6270   21.5610 C   0  0  0  0  0  2  0  0  0  0  0  0
  -27.8290  -25.4280   20.5450 C   0  0  0  0  0  2  0  0  0  0  0  0
  -27.7760  -26.5990   19.7360 O   0  0  0  0  0  0  0  0  0  0  0  0
  -24.4290  -31.8520   23.1630 C   0  0  0  0  0  0  0  0  0  0  0  0
  -26.6410  -27.3560   19.8660 C   0  0  0  0  0  0  0  0  0  0  0  0
  -23.0540  -30.5560   21.5650 C   0  0  0  0  0  3  0  0  0  0  0  0
  -24.3350  -28.9630   20.0420 C   0  0  0  0  0  0  0  0  0  0  0  0
  -25.5770  -30.7810   21.2300 C   0  0  0  0  0  2  0  0  0  0  0  0
  -25.5480  -29.4210   20.5700 C   0  0  0  0  0  0  0  0  0  0  0  0
  -26.7080  -28.6240   20.4750 C   0  0  0  0  0  3  0  0  0  0  0  0
  -25.4140  -26.8970   19.3440 C   0  0  0  0  0  3  0  0  0  0  0  0
  -24.2600  -27.7000   19.4260 C   0  0  0  0  0  3  0  0  0  0  0  0
  -23.1460  -29.8890   20.1670 C   0  0  0  0  0  2  0  0  0  0  0  0
  -24.3760  -31.0730   22.0440 N   0  0  0  0  0  0  0  0  0  0  0  0
  -23.3950  -32.1750   23.7660 O   0  0  0  0  0  0  0  0  0  0  0  0
  -22.3970  -29.5560   22.5420 C   0  0  0  0  0  0  0  0  0  0  0  0
  -21.0650  -29.4120   22.4440 N   0  0  0  0  0  0  0  0  0  0  0  0
  -23.0810  -28.9120   23.3420 O   0  0  0  0  0  0  0  0  0  0  0  0
  -20.5760  -29.9830   21.7680 H   0  0  0  0  0  0  0  0  0  0  0  0
  -17.6770  -28.2830   22.9770 C   0  0  0  0  0  0  0  0  0  0  0  0
  -20.2400  -28.5010   23.2320 C   0  0  0  0  0  3  0  0  0  0  0  0
  -20.3140  -27.0600   22.6760 C   0  0  0  0  0  2  0  0  0  0  0  0
  -19.1990  -26.7420   21.6720 C   0  0  0  0  0  2  0  0  0  0  0  0
  -17.8260  -26.9200   22.3220 C   0  0  0  0  0  2  0  0  0  0  0  0
  -18.8110  -29.0320   23.3900 C   0  0  0  0  0  0  0  0  0  0  0  0
  -18.6160  -30.3080   23.9620 C   0  0  0  0  0  3  0  0  0  0  0  0
  -17.3210  -30.8350   24.1240 C   0  0  0  0  0  3  0  0  0  0  0  0
  -16.2020  -30.0830   23.7270 C   0  0  0  0  0  3  0  0  0  0  0  0
  -16.3810  -28.8090   23.1590 C   0  0  0  0  0  3  0  0  0  0  0  0
  -25.7820  -32.3900   23.7220 C   0  0  0  0  0  3  0  0  0  0  0  0
  -25.5780  -33.7950   24.0950 N   0  0  0  0  0  0  0  0  0  0  0  0
  -25.9410  -34.8420   23.3420 C   0  0  0  0  0  0  0  0  0  0  0  0
  -26.5580  -34.7230   22.2790 O   0  0  0  0  0  0  0  0  0  0  0  0
  -25.0260  -33.9670   24.9230 H   0  0  0  0  0  0  0  0  0  0  0  0
  -24.3070  -36.7380   23.1090 C   0  0  0  0  0  1  0  0  0  0  0  0
  -25.5610  -36.2460   23.8500 C   0  0  0  0  0  3  0  0  0  0  0  0
  -27.7790  -36.9880   24.5960 C   0  0  0  0  0  1  0  0  0  0  0  0
  -26.6470  -37.2380   23.7060 N   0  0  0  0  0  0  0  0  0  0  0  0
  -26.3030  -38.1760   23.8860 H   0  0  0  0  0  0  0  0  0  0  0  0
  -26.3230  -31.5600   24.9490 C   0  0  1  0  0  0  0  0  0  0  0  0
  -25.2740  -31.3490   26.0660 C   0  0  0  0  0  1  0  0  0  0  0  0
  -26.8130  -30.1670   24.4930 C   0  0  0  0  0  1  0  0  0  0  0  0
  -27.5450  -32.2760   25.5710 C   0  0  0  0  0  1  0  0  0  0  0  0
  1  5  1  0
  2  4  1  0
  2  1  1  0
  3  1  2  0
  6  5  1  0
  7  6  1  0
  8  7  1  0
  8  9  2  0
 10  9  1  0
 11 20  1  0
 11 10  1  0
 12 20  1  0
 13 18  1  0
 14 15  1  0
 14 13  1  0
 16 15  1  0
 16 25  1  0
 16 17  1  0
 18 12  1  0
 18 17  1  0
 19 12  2  0
 20 21  1  0
 22 23  2  0
 23 24  1  0
 23 42  1  0
 24 27  1  0
 25 22  1  0
 25 26  1  0
 26 24  2  0
 27 28  1  0
 28 29  2  0
 30 33  1  0
 30 29  1  0
 31 30  2  0
 32 31  1  0
 32 27  2  0
 33 34  1  0
 34 39  2  0
 34 35  1  0
 35 36  2  0
 36 37  1  0
 37 41  1  0
 38 37  2  0
 39 38  1  0
 40 39  1  0
 42 43  1  0
 43 46  1  0
 43 45  1  0
 44 42  2  0
 47 48  1  0
 47 22  1  0
 49 47  1  0
 50  2  1  0
 51 50  1  0
 52 54  1  0
 52 51  1  0
 53 64  2  0
 54 59  1  0
 55 63  1  0
 55 65  1  0
 56 62  1  0
 56 58  1  0
 57 63  1  0
 58 57  1  0
 59 58  2  0
 60 61  1  0
 60 54  2  0
 61 56  2  0
 62 55  1  0
 63 53  1  0
 65 67  2  0
 66 65  1  0
 68 66  1  0
 69 78  2  0
 69 74  1  0
 70 66  1  0
 70 74  1  0
 71 70  1  0
 72 73  1  0
 72 71  1  0
 73 69  1  0
 74 75  2  0
 75 76  1  0
 77 76  2  0
 78 77  1  0
 79 53  1  0
 79 80  1  0
 79 89  1  0
 80 83  1  0
 81 85  1  0
 81 80  1  0
 82 81  2  0
 85 84  1  0
 87 85  1  0
 87 88  1  0
 87 86  1  0
 89 92  1  1
 89 90  1  0
 91 89  1  0
M  ISO  4  12 100  20 100  51 101  52 101
M  END
>  <TORSDO>  (56) 
F 24

>  <SCORE>  (56) 
-8.801

>  <name>  (56) 
56

>  <ligand_id>  (56) 
56

>  <original_smiles>  (56) 
[H]C(=C([H])C([H])([H])C([H])([H])C([H])([H])C(=O)N([H])C([H])([H])C([H])([H])Oc1c([H])c([H])c2c(c1[H])C([H])([H])N(C(=O)C([H])(N([H])C(=O)C([H])(N([H])C([H])([H])[H])C([H])([H])[H])C(C([H])([H])[H])(C([H])([H])[H])C([H])([H])[H])C([H])(C(=O)N([H])C1([H])c3c([H])c([H])c([H])c([H])c3C([H])([H])C([H])([H])C1([H])[H])C2([H])[H])C([H])([H])C([H])([H])N([H])C(=O)N1C([H])([H])C([H])([H])C([H])([H])C([H])(n2nc(-c3c([H])c([H])c(Oc4c([H])c([H])c(F)c([H])c4F)c([H])c3[H])c(C(=O)N([H])[H])c2N([H])[H])C1([H])[H]

>  <smiles>  (56) 
[H]C(=C([H])C([H])([H])C([H])([H])C([H])([H])C(=O)N([H])C([H])([H])C([H])([H])Oc1c([H])c([H])c2c(c1[H])C([H])([H])N(C(=O)C([H])(N([H])C(=O)C([H])(N([H])C([H])([H])[H])C([H])([H])[H])C(C([H])([H])[H])(C([H])([H])[H])C([H])([H])[H])C([H])(C(=O)N([H])C1([H])c3c([H])c([H])c([H])c([H])c3C([H])([H])C([H])([H])C1([H])[H])C2([H])[H])C([H])([H])C([H])([H])N([H])C(=O)N1C([H])([H])C([H])([H])C([H])([H])C([H])(n2nc(-c3c([H])c([H])c(Oc4c([H])c([H])c(F)c([H])c4F)c([H])c3[H])c(C(=O)N([H])[H])c2N([H])[H])C1([H])[H]

$$$$
57:0:0
     RDKit          3D

 92101  0  0  1  0  0  0  0  0999 V2000
  -29.8040  -22.3520   20.4640 C   0  0  0  0  0  0  0  0  0  0  0  0
  -30.8520  -22.9480   20.2040 O   0  0  0  0  0  0  0  0  0  0  0  0
  -30.9330  -20.8280   22.2420 C   0  0  0  0  0  2  0  0  0  0  0  0
  -29.7870  -21.0690   21.2710 C   0  0  0  0  0  3  0  0  0  0  0  0
  -30.8160  -19.9700   21.0070 C   0  0  0  0  0  3  0  0  0  0  0  0
  -30.6650  -14.4980   20.2000 C   0  0  0  0  0  0  0  0  0  0  0  0
  -30.3100  -12.4120   18.9020 C   0  0  0  0  0  2  0  0  0  0  0  0
  -29.2950  -12.6450   17.7650 C   0  0  0  0  0  2  0  0  0  0  0  0
  -27.8470  -12.4680   18.2660 C   0  0  0  0  0  2  0  0  0  0  0  0
  -27.5830  -13.2450   19.5810 C   0  0  0  0  0  3  0  0  0  0  0  0
  -28.6970  -12.9280   20.6090 C   0  0  0  0  0  2  0  0  0  0  0  0
  -29.9760  -13.3320   20.0060 N   0  0  0  0  0  0  0  0  0  0  0  0
  -31.7390  -14.7020   19.6190 O   0  0  0  0  0  0  0  0  0  0  0  0
  -28.6220  -16.9940   20.0130 C   0  0  0  0  0  2  0  0  0  0  0  0
  -29.7310  -18.0360   19.8020 C   0  0  0  0  0  2  0  0  0  0  0  0
  -31.5550  -17.5520   21.4970 C   0  0  0  0  0  2  0  0  0  0  0  0
  -28.8660  -16.0030   21.1690 C   0  0  0  0  0  2  0  0  0  0  0  0
  -31.1540  -16.1320   22.0010 C   0  0  0  0  0  2  0  0  0  0  0  0
  -30.3920  -18.5070   21.1110 C   0  0  0  0  0  3  0  0  0  0  0  0
  -30.2110  -15.3850   21.1390 N   0  0  0  0  0  0  0  0  0  0  0  0
  -25.2150  -13.8650   20.3940 C   0  0  0  0  0  0  0  0  0  0  0  0
  -24.1630  -13.0910   20.8040 C   0  0  0  0  0  0  0  0  0  0  0  0
  -24.6210  -11.7390   20.7360 C   0  0  0  0  0  0  0  0  0  0  0  0
  -26.2500  -12.9820   20.1130 N   0  0  0  0  0  0  0  0  0  0  0  0
  -25.8950  -11.6990   20.3710 N   0  0  0  0  0  0  0  0  0  0  0  0
  -23.9040  -10.4750   20.9400 C   0  0  0  0  0  0  0  0  0  0  0  0
  -24.3530   -9.5140   21.8720 C   0  0  0  0  0  3  0  0  0  0  0  0
  -23.6360   -8.3140   22.0620 C   0  0  0  0  0  3  0  0  0  0  0  0
  -22.4550   -8.0680   21.3210 C   0  0  0  0  0  0  0  0  0  0  0  0
  -22.0260   -9.0180   20.3770 C   0  0  0  0  0  3  0  0  0  0  0  0
  -22.7450  -10.2100   20.1850 C   0  0  0  0  0  3  0  0  0  0  0  0
  -21.7070   -6.9200   21.4210 O   0  0  0  0  0  0  0  0  0  0  0  0
  -21.6470   -6.2020   22.5890 C   0  0  0  0  0  0  0  0  0  0  0  0
  -21.2050   -6.7810   23.7990 C   0  0  0  0  0  3  0  0  0  0  0  0
  -21.0940   -5.9880   24.9590 C   0  0  0  0  0  3  0  0  0  0  0  0
  -21.4140   -4.6180   24.9090 C   0  0  0  0  0  0  0  0  0  0  0  0
  -21.8490   -4.0390   23.7040 C   0  0  0  0  0  3  0  0  0  0  0  0
  -21.9630   -4.8290   22.5470 C   0  0  0  0  0  0  0  0  0  0  0  0
  -22.3620   -4.2620   21.3840 F   0  0  0  0  0  0  0  0  0  0  0  0
  -21.2990   -3.8540   26.0210 F   0  0  0  0  0  0  0  0  0  0  0  0
  -22.7800  -13.5650   21.1450 C   0  0  0  0  0  0  0  0  0  0  0  0
  -22.0890  -12.8550   22.0310 N   0  0  0  0  0  0  0  0  0  0  0  0
  -22.3210  -14.6000   20.6620 O   0  0  0  0  0  0  0  0  0  0  0  0
  -22.4720  -12.0170   22.4430 H   0  0  0  0  0  0  0  0  0  0  0  0
  -21.1640  -13.1560   22.3040 H   0  0  0  0  0  0  0  0  0  0  0  0
  -25.3690  -15.2380   20.2220 N   0  0  0  0  0  0  0  0  0  0  0  0
  -24.6080  -15.8890   20.3840 H   0  0  0  0  0  0  0  0  0  0  0  0
  -26.2070  -15.6880   19.8770 H   0  0  0  0  0  0  0  0  0  0  0  0
  -28.4510  -22.8810   19.9610 C   0  0  0  0  0  2  0  0  0  0  0  0
  -28.4290  -24.3530   19.4680 C   0  0  0  0  0  2  0  0  0  0  0  0
  -28.3580  -25.4010   20.6000 C   0  0  0  0  0  2  0  0  0  0  0  0
  -28.3830  -26.7540   20.1190 O   0  0  0  0  0  0  0  0  0  0  0  0
  -24.5630  -31.9000   23.2230 C   0  0  0  0  0  0  0  0  0  0  0  0
  -27.1950  -27.4540   20.1440 C   0  0  0  0  0  0  0  0  0  0  0  0
  -23.3450  -30.4910   21.5930 C   0  0  0  0  0  3  0  0  0  0  0  0
  -24.7910  -28.9470   20.1680 C   0  0  0  0  0  0  0  0  0  0  0  0
  -25.8670  -30.8570   21.3720 C   0  0  0  0  0  2  0  0  0  0  0  0
  -25.9520  -29.4820   20.7380 C   0  0  0  0  0  0  0  0  0  0  0  0
  -27.1580  -28.7460   20.7160 C   0  0  0  0  0  3  0  0  0  0  0  0
  -26.0150  -26.9260   19.5790 C   0  0  0  0  0  3  0  0  0  0  0  0
  -24.8180  -27.6680   19.5850 C   0  0  0  0  0  3  0  0  0  0  0  0
  -23.5460  -29.8030   20.2150 C   0  0  0  0  0  2  0  0  0  0  0  0
  -24.6110  -31.0980   22.1210 N   0  0  0  0  0  0  0  0  0  0  0  0
  -23.4850  -32.1720   23.7700 O   0  0  0  0  0  0  0  0  0  0  0  0
  -22.7020  -29.4740   22.5620 C   0  0  0  0  0  0  0  0  0  0  0  0
  -21.3770  -29.2880   22.4420 N   0  0  0  0  0  0  0  0  0  0  0  0
  -23.3910  -28.8540   23.3770 O   0  0  0  0  0  0  0  0  0  0  0  0
  -20.8820  -29.8410   21.7570 H   0  0  0  0  0  0  0  0  0  0  0  0
  -18.0090  -28.0900   22.9600 C   0  0  0  0  0  0  0  0  0  0  0  0
  -20.5670  -28.3510   23.2200 C   0  0  0  0  0  3  0  0  0  0  0  0
  -20.6700  -26.9180   22.6490 C   0  0  0  0  0  2  0  0  0  0  0  0
  -19.5640  -26.5910   21.6390 C   0  0  0  0  0  2  0  0  0  0  0  0
  -18.1840  -26.7390   22.2870 C   0  0  0  0  0  2  0  0  0  0  0  0
  -19.1280  -28.8540   23.3830 C   0  0  0  0  0  0  0  0  0  0  0  0
  -18.9110  -30.1190   23.9690 C   0  0  0  0  0  3  0  0  0  0  0  0
  -17.6070  -30.6220   24.1380 C   0  0  0  0  0  3  0  0  0  0  0  0
  -16.5020  -29.8550   23.7320 C   0  0  0  0  0  3  0  0  0  0  0  0
  -16.7030  -28.5900   23.1490 C   0  0  0  0  0  3  0  0  0  0  0  0
  -25.8530  -32.5340   23.8310 C   0  0  0  0  0  3  0  0  0  0  0  0
  -26.3830  -31.7650   25.1030 C   0  0  1  0  0  0  0  0  0  0  0  0
  -25.3010  -31.5280   26.1830 C   0  0  0  0  0  1  0  0  0  0  0  0
  -26.9630  -30.3880   24.7050 C   0  0  0  0  0  1  0  0  0  0  0  0
  -27.5400  -32.5610   25.7520 C   0  0  0  0  0  1  0  0  0  0  0  0
  -25.5470  -33.9320   24.1590 N   0  0  0  0  0  0  0  0  0  0  0  0
  -25.8850  -34.9820   23.3990 C   0  0  0  0  0  0  0  0  0  0  0  0
  -26.5590  -34.8760   22.3710 O   0  0  0  0  0  0  0  0  0  0  0  0
  -24.9520  -34.0900   24.9590 H   0  0  0  0  0  0  0  0  0  0  0  0
  -24.1690  -36.7820   23.0250 C   0  0  0  0  0  1  0  0  0  0  0  0
  -25.3980  -36.3730   23.8520 C   0  0  0  0  0  3  0  0  0  0  0  0
  -27.5290  -37.2410   24.7090 C   0  0  0  0  0  1  0  0  0  0  0  0
  -26.4360  -37.4210   23.7560 N   0  0  0  0  0  0  0  0  0  0  0  0
  -26.0330  -38.3420   23.9100 H   0  0  0  0  0  0  0  0  0  0  0  0
  2  1  2  0
  4  1  1  0
  4  3  1  0
  5 19  1  0
  5  4  1  0
  5  3  1  0
  6 20  1  0
  7 12  1  0
  8  9  1  0
  8  7  1  0
 10  9  1  0
 10 24  1  0
 10 11  1  0
 12  6  1  0
 12 11  1  0
 13  6  2  0
 14 17  1  0
 15 14  1  0
 16 18  1  0
 19 15  1  0
 19 16  1  0
 20 17  1  0
 20 18  1  0
 21 22  2  0
 22 41  1  0
 23 22  1  0
 23 26  1  0
 24 25  1  0
 24 21  1  0
 25 23  2  0
 26 27  1  0
 27 28  2  0
 29 32  1  0
 29 28  1  0
 30 29  2  0
 31 30  1  0
 31 26  2  0
 32 33  1  0
 33 34  1  0
 34 35  2  0
 36 35  1  0
 36 40  1  0
 37 36  2  0
 38 33  2  0
 38 37  1  0
 39 38  1  0
 41 42  1  0
 42 45  1  0
 42 44  1  0
 43 41  2  0
 46 47  1  0
 46 21  1  0
 48 46  1  0
 49  1  1  0
 50 49  1  0
 50 51  1  0
 52 54  1  0
 52 51  1  0
 53 64  2  0
 54 59  1  0
 55 63  1  0
 55 65  1  0
 56 62  1  0
 56 58  1  0
 57 63  1  0
 58 57  1  0
 59 58  2  0
 60 61  1  0
 60 54  2  0
 61 56  2  0
 62 55  1  0
 63 53  1  0
 65 67  2  0
 66 65  1  0
 68 66  1  0
 69 78  2  0
 69 74  1  0
 70 66  1  0
 70 74  1  0
 71 70  1  0
 72 73  1  0
 72 71  1  0
 73 69  1  0
 74 75  2  0
 75 76  1  0
 77 76  2  0
 78 77  1  0
 79 53  1  0
 79 84  1  0
 79 80  1  0
 80 83  1  1
 80 81  1  0
 82 80  1  0
 84 87  1  0
 85 89  1  0
 85 84  1  0
 86 85  2  0
 89 88  1  0
 91 89  1  0
 91 92  1  0
 91 90  1  0
M  ISO  4   6 100  20 100  51 101  52 101
M  END
>  <TORSDO>  (57) 
F 20

>  <SCORE>  (57) 
-13.784

>  <name>  (57) 
57

>  <ligand_id>  (57) 
57

>  <original_smiles>  (57) 
[H]c1c([H])c([H])c2c(c1[H])C([H])([H])C([H])([H])C([H])([H])C2([H])N([H])C(=O)C1([H])N(C(=O)C([H])(N([H])C(=O)C([H])(N([H])C([H])([H])[H])C([H])([H])[H])C(C([H])([H])[H])(C([H])([H])[H])C([H])([H])[H])C([H])([H])c2c([H])c(OC([H])([H])C([H])([H])C([H])([H])C(=O)C3([H])C([H])([H])C3([H])C3([H])C([H])([H])C([H])([H])N(C(=O)N4C([H])([H])C([H])([H])C([H])([H])C([H])(n5nc(-c6c([H])c([H])c(Oc7c([H])c([H])c(F)c([H])c7F)c([H])c6[H])c(C(=O)N([H])[H])c5N([H])[H])C4([H])[H])C([H])([H])C([H])([H])C3([H])[H])c([H])c([H])c2C1([H])[H]

>  <smiles>  (57) 
[H]c1c([H])c([H])c2c(c1[H])C([H])([H])C([H])([H])C([H])([H])C2([H])N([H])C(=O)C1([H])N(C(=O)C([H])(N([H])C(=O)C([H])(N([H])C([H])([H])[H])C([H])([H])[H])C(C([H])([H])[H])(C([H])([H])[H])C([H])([H])[H])C([H])([H])c2c([H])c(OC([H])([H])C([H])([H])C([H])([H])C(=O)C3([H])C([H])([H])C3([H])C3([H])C([H])([H])C([H])([H])N(C(=O)N4C([H])([H])C([H])([H])C([H])([H])C([H])(n5nc(-c6c([H])c([H])c(Oc7c([H])c([H])c(F)c([H])c7F)c([H])c6[H])c(C(=O)N([H])[H])c5N([H])[H])C4([H])[H])C([H])([H])C([H])([H])C3([H])[H])c([H])c([H])c2C1([H])[H]

$$$$
58:0:0
     RDKit          3D

 90 99  0  0  1  0  0  0  0  0999 V2000
  -27.8040  -20.7520   18.2530 C   0  0  0  0  0  2  0  0  0  0  0  0
  -28.3300  -22.1890   18.4620 C   0  0  0  0  0  2  0  0  0  0  0  0
  -27.6270  -21.2960   20.5400 C   0  0  0  0  0  2  0  0  0  0  0  0
  -29.9060  -21.3510   20.3090 C   0  0  0  0  0  2  0  0  0  0  0  0
  -28.0030  -20.1040   19.6300 C   0  0  0  0  0  3  0  0  0  0  0  0
  -29.5200  -19.8740   19.8460 C   0  0  0  0  0  3  0  0  0  0  0  0
  -28.6570  -22.2880   19.9770 C   0  0  1  0  0  0  0  0  0  0  0  0
  -29.9180  -18.5490   20.6710 C   0  0  0  0  0  3  0  0  0  0  0  0
  -29.9000  -17.1550   19.8660 C   0  0  0  0  0  3  0  0  0  0  0  0
  -30.6950  -14.7130   20.3130 C   0  0  0  0  0  0  0  0  0  0  0  0
  -30.4880  -12.4470   19.3110 C   0  0  0  0  0  2  0  0  0  0  0  0
  -29.5520  -12.5480   18.0840 C   0  0  0  0  0  2  0  0  0  0  0  0
  -28.0760  -12.4040   18.5050 C   0  0  0  0  0  2  0  0  0  0  0  0
  -27.7110  -13.2890   19.7270 C   0  0  0  0  0  3  0  0  0  0  0  0
  -28.7630  -13.1630   20.8540 C   0  0  0  0  0  2  0  0  0  0  0  0
  -30.0760  -13.4870   20.2780 N   0  0  0  0  0  0  0  0  0  0  0  0
  -31.8550  -14.8460   19.9110 O   0  0  0  0  0  0  0  0  0  0  0  0
  -29.9030  -15.8090   20.5710 N   0  0  0  0  0  0  0  0  0  0  0  0
  -29.0150  -15.5580   20.9790 H   0  0  0  0  0  0  0  0  0  0  0  0
  -25.3140  -13.9010   20.4220 C   0  0  0  0  0  0  0  0  0  0  0  0
  -24.2440  -13.1340   20.7940 C   0  0  0  0  0  0  0  0  0  0  0  0
  -24.7040  -11.7800   20.7830 C   0  0  0  0  0  0  0  0  0  0  0  0
  -26.3590  -13.0150   20.2070 N   0  0  0  0  0  0  0  0  0  0  0  0
  -25.9980  -11.7340   20.4880 N   0  0  0  0  0  0  0  0  0  0  0  0
  -23.9730  -10.5210   20.9830 C   0  0  0  0  0  0  0  0  0  0  0  0
  -24.3990   -9.5600   21.9270 C   0  0  0  0  0  3  0  0  0  0  0  0
  -23.6640   -8.3690   22.1140 C   0  0  0  0  0  3  0  0  0  0  0  0
  -22.4910   -8.1300   21.3600 C   0  0  0  0  0  0  0  0  0  0  0  0
  -22.0850   -9.0800   20.4060 C   0  0  0  0  0  3  0  0  0  0  0  0
  -22.8190  -10.2620   20.2150 C   0  0  0  0  0  3  0  0  0  0  0  0
  -21.7320   -6.9890   21.4540 O   0  0  0  0  0  0  0  0  0  0  0  0
  -21.6790   -6.2570   22.6130 C   0  0  0  0  0  0  0  0  0  0  0  0
  -21.2650   -6.8250   23.8380 C   0  0  0  0  0  3  0  0  0  0  0  0
  -21.1580   -6.0180   24.9880 C   0  0  0  0  0  3  0  0  0  0  0  0
  -21.4590   -4.6440   24.9160 C   0  0  0  0  0  0  0  0  0  0  0  0
  -21.8660   -4.0760   23.6950 C   0  0  0  0  0  3  0  0  0  0  0  0
  -21.9730   -4.8800   22.5470 C   0  0  0  0  0  0  0  0  0  0  0  0
  -22.3440   -4.3240   21.3690 F   0  0  0  0  0  0  0  0  0  0  0  0
  -21.3520   -3.8650   26.0190 F   0  0  0  0  0  0  0  0  0  0  0  0
  -22.8460  -13.6180   21.0430 C   0  0  0  0  0  0  0  0  0  0  0  0
  -22.1060  -12.9350   21.9110 N   0  0  0  0  0  0  0  0  0  0  0  0
  -22.4120  -14.6340   20.5020 O   0  0  0  0  0  0  0  0  0  0  0  0
  -22.4700  -12.1170   22.3750 H   0  0  0  0  0  0  0  0  0  0  0  0
  -21.1660  -13.2430   22.1180 H   0  0  0  0  0  0  0  0  0  0  0  0
  -25.4850  -15.2680   20.2280 N   0  0  0  0  0  0  0  0  0  0  0  0
  -24.7320  -15.9340   20.3530 H   0  0  0  0  0  0  0  0  0  0  0  0
  -26.3350  -15.6960   19.8840 H   0  0  0  0  0  0  0  0  0  0  0  0
  -28.5650  -23.8050   20.5670 C   0  0  0  0  0  3  0  0  0  0  0  0
  -28.5060  -25.1070   19.6150 C   0  0  0  0  0  3  0  0  0  0  0  0
  -28.4150  -26.4860   20.1830 O   0  0  0  0  0  0  0  0  0  0  0  0
  -24.6470  -31.8640   23.1950 C   0  0  0  0  0  0  0  0  0  0  0  0
  -27.2630  -27.2990   20.1210 C   0  0  0  0  0  0  0  0  0  0  0  0
  -23.4430  -30.4640   21.5540 C   0  0  0  0  0  3  0  0  0  0  0  0
  -24.8900  -28.9160   20.1230 C   0  0  0  0  0  0  0  0  0  0  0  0
  -25.9820  -30.7840   21.3650 C   0  0  0  0  0  2  0  0  0  0  0  0
  -26.0600  -29.4050   20.7180 C   0  0  0  0  0  0  0  0  0  0  0  0
  -27.2420  -28.6060   20.7090 C   0  0  0  0  0  3  0  0  0  0  0  0
  -26.0620  -26.8610   19.5160 C   0  0  0  0  0  3  0  0  0  0  0  0
  -24.8940  -27.6510   19.5190 C   0  0  0  0  0  3  0  0  0  0  0  0
  -23.6530  -29.7870   20.1740 C   0  0  0  0  0  2  0  0  0  0  0  0
  -24.7100  -31.0580   22.0930 N   0  0  0  0  0  0  0  0  0  0  0  0
  -23.5630  -32.1370   23.7310 O   0  0  0  0  0  0  0  0  0  0  0  0
  -22.7840  -29.4470   22.5160 C   0  0  0  0  0  0  0  0  0  0  0  0
  -21.4560  -29.2770   22.3980 N   0  0  0  0  0  0  0  0  0  0  0  0
  -23.4660  -28.8130   23.3260 O   0  0  0  0  0  0  0  0  0  0  0  0
  -20.9660  -29.8400   21.7170 H   0  0  0  0  0  0  0  0  0  0  0  0
  -18.0780  -28.0950   22.9240 C   0  0  0  0  0  0  0  0  0  0  0  0
  -20.6400  -28.3390   23.1710 C   0  0  0  0  0  3  0  0  0  0  0  0
  -20.7280  -26.9120   22.5850 C   0  0  0  0  0  2  0  0  0  0  0  0
  -19.6150  -26.6020   21.5790 C   0  0  0  0  0  2  0  0  0  0  0  0
  -18.2400  -26.7510   22.2350 C   0  0  0  0  0  2  0  0  0  0  0  0
  -19.2040  -28.8480   23.3480 C   0  0  0  0  0  0  0  0  0  0  0  0
  -18.9990  -30.1060   23.9540 C   0  0  0  0  0  3  0  0  0  0  0  0
  -17.6990  -30.6130   24.1400 C   0  0  0  0  0  3  0  0  0  0  0  0
  -16.5870  -29.8590   23.7310 C   0  0  0  0  0  3  0  0  0  0  0  0
  -16.7760  -28.6010   23.1300 C   0  0  0  0  0  3  0  0  0  0  0  0
  -25.9280  -32.5000   23.8170 C   0  0  0  0  0  3  0  0  0  0  0  0
  -26.4540  -31.7210   25.0860 C   0  0  1  0  0  0  0  0  0  0  0  0
  -25.3700  -31.4700   26.1610 C   0  0  0  0  0  1  0  0  0  0  0  0
  -27.0420  -30.3490   24.6810 C   0  0  0  0  0  1  0  0  0  0  0  0
  -27.6010  -32.5190   25.7470 C   0  0  0  0  0  1  0  0  0  0  0  0
  -25.6100  -33.8940   24.1640 N   0  0  0  0  0  0  0  0  0  0  0  0
  -25.9250  -34.9560   23.4130 C   0  0  0  0  0  0  0  0  0  0  0  0
  -26.5840  -34.8670   22.3740 O   0  0  0  0  0  0  0  0  0  0  0  0
  -25.0290  -34.0370   24.9770 H   0  0  0  0  0  0  0  0  0  0  0  0
  -24.1780  -36.7390   23.0960 C   0  0  0  0  0  1  0  0  0  0  0  0
  -25.4330  -36.3380   23.8890 C   0  0  0  0  0  3  0  0  0  0  0  0
  -27.5700  -37.2310   24.7010 C   0  0  0  0  0  1  0  0  0  0  0  0
  -26.4550  -37.3990   23.7720 N   0  0  0  0  0  0  0  0  0  0  0  0
  -26.0460  -38.3140   23.9350 H   0  0  0  0  0  0  0  0  0  0  0  0
  1  2  1  0
  2  7  1  0
  5  1  1  0
  5  6  1  0
  5  3  1  0
  6  4  1  0
  6  8  1  0
  7  4  1  0
  7  3  1  0
  7 48  1  1
  9 18  1  0
  9  8  2  0
 10 18  1  0
 11 16  1  0
 12 13  1  0
 12 11  1  0
 14 13  1  0
 14 23  1  0
 14 15  1  0
 16 10  1  0
 16 15  1  0
 17 10  2  0
 18 19  1  0
 20 21  2  0
 21 40  1  0
 22 21  1  0
 22 25  1  0
 23 20  1  0
 23 24  1  0
 24 22  2  0
 25 26  1  0
 26 27  2  0
 28 31  1  0
 28 27  1  0
 29 28  2  0
 30 29  1  0
 30 25  2  0
 31 32  1  0
 32 33  1  0
 33 34  2  0
 35 34  1  0
 35 39  1  0
 36 35  2  0
 37 32  2  0
 37 36  1  0
 38 37  1  0
 40 41  1  0
 41 44  1  0
 41 43  1  0
 42 40  2  0
 45 46  1  0
 45 20  1  0
 47 45  1  0
 49 50  1  0
 49 48  2  0
 51 62  2  0
 52 50  1  0
 52 57  1  0
 53 61  1  0
 53 63  1  0
 54 60  1  0
 54 56  1  0
 55 61  1  0
 56 55  1  0
 57 56  2  0
 58 59  1  0
 58 52  2  0
 59 54  2  0
 60 53  1  0
 61 51  1  0
 63 65  2  0
 64 63  1  0
 66 64  1  0
 67 76  2  0
 67 72  1  0
 68 64  1  0
 68 72  1  0
 69 68  1  0
 70 71  1  0
 70 69  1  0
 71 67  1  0
 72 73  2  0
 73 74  1  0
 75 74  2  0
 76 75  1  0
 77 51  1  0
 77 82  1  0
 77 78  1  0
 78 81  1  1
 78 79  1  0
 80 78  1  0
 82 85  1  0
 83 87  1  0
 83 82  1  0
 84 83  2  0
 87 86  1  0
 89 87  1  0
 89 90  1  0
 89 88  1  0
M  ISO  4  10 100  18 100  49 101  50 101
M  END
>  <TORSDO>  (58) 
F 20

>  <SCORE>  (58) 
-13.702

>  <name>  (58) 
58

>  <ligand_id>  (58) 
58

>  <original_smiles>  (58) 
[H]c1c([H])c([H])c2c(c1[H])C([H])([H])C([H])([H])C([H])([H])C2([H])N([H])C(=O)C1([H])N(C(=O)C([H])(N([H])C(=O)C([H])(N([H])C([H])([H])[H])C([H])([H])[H])C(C([H])([H])[H])(C([H])([H])[H])C([H])([H])[H])C([H])([H])c2c([H])c(OC([H])([H])C([H])([H])C34C([H])([H])C([H])([H])C([H])(C3([H])[H])C([H])(C([H])([H])C([H])([H])N([H])C(=O)N3C([H])([H])C([H])([H])C([H])([H])C([H])(n5nc(-c6c([H])c([H])c(Oc7c([H])c([H])c(F)c([H])c7F)c([H])c6[H])c(C(=O)N([H])[H])c5N([H])[H])C3([H])[H])C4([H])[H])c([H])c([H])c2C1([H])[H]

>  <smiles>  (58) 
[H]c1c([H])c([H])c2c(c1[H])C([H])([H])C([H])([H])C([H])([H])C2([H])N([H])C(=O)C1([H])N(C(=O)C([H])(N([H])C(=O)C([H])(N([H])C([H])([H])[H])C([H])([H])[H])C(C([H])([H])[H])(C([H])([H])[H])C([H])([H])[H])C([H])([H])c2c([H])c(OC([H])([H])C([H])([H])C34C([H])([H])C([H])([H])C([H])(C3([H])[H])C([H])(C([H])([H])C([H])([H])N([H])C(=O)N3C([H])([H])C([H])([H])C([H])([H])C([H])(n5nc(-c6c([H])c([H])c(Oc7c([H])c([H])c(F)c([H])c7F)c([H])c6[H])c(C(=O)N([H])[H])c5N([H])[H])C3([H])[H])C4([H])[H])c([H])c([H])c2C1([H])[H]

$$$$
59:0:0
     RDKit          3D

 91100  0  0  1  0  0  0  0  0999 V2000
  -30.1210  -22.0000   22.0300 C   0  0  0  0  0  3  0  0  0  0  0  0
  -30.8380  -20.8390   22.4280 C   0  0  0  0  0  3  0  0  0  0  0  0
  -29.0550  -20.6580   20.3520 C   0  0  0  0  0  3  0  0  0  0  0  0
  -29.7910  -19.4090   20.7290 C   0  0  0  0  0  0  0  0  0  0  0  0
  -29.1820  -22.0040   20.9700 C   0  0  0  0  0  0  0  0  0  0  0  0
  -30.7020  -19.5760   21.7920 C   0  0  0  0  0  0  0  0  0  0  0  0
  -31.5950  -18.4260   22.2160 C   0  0  0  0  0  1  0  0  0  0  0  0
  -30.6070  -15.2340   20.3780 C   0  0  0  0  0  0  0  0  0  0  0  0
  -30.6280  -12.8080   19.5920 C   0  0  0  0  0  2  0  0  0  0  0  0
  -29.7290  -12.5470   18.3570 C   0  0  0  0  0  2  0  0  0  0  0  0
  -28.2460  -12.3790   18.7450 C   0  0  0  0  0  2  0  0  0  0  0  0
  -27.7630  -13.3570   19.8490 C   0  0  0  0  0  3  0  0  0  0  0  0
  -28.7900  -13.5040   20.9900 C   0  0  0  0  0  2  0  0  0  0  0  0
  -30.0580  -13.9400   20.3790 N   0  0  0  0  0  0  0  0  0  0  0  0
  -31.8440  -15.2920   20.3600 O   0  0  0  0  0  0  0  0  0  0  0  0
  -29.9590  -17.0490   17.6970 C   0  0  0  0  0  2  0  0  0  0  0  0
  -30.2750  -18.2970   18.4830 C   0  0  0  0  0  2  0  0  0  0  0  0
  -29.2140  -16.1540   18.6920 C   0  0  0  0  0  2  0  0  0  0  0  0
  -29.7190  -18.0030   19.8720 C   0  0  0  0  0  3  0  0  0  0  0  0
  -29.7710  -16.3830   20.0560 N   0  0  0  0  0  0  0  0  0  0  0  0
  -25.3580  -13.9310   20.5000 C   0  0  0  0  0  0  0  0  0  0  0  0
  -24.2910  -13.1490   20.8440 C   0  0  0  0  0  0  0  0  0  0  0  0
  -24.7770  -11.8060   20.8620 C   0  0  0  0  0  0  0  0  0  0  0  0
  -26.4210  -13.0580   20.3240 N   0  0  0  0  0  0  0  0  0  0  0  0
  -26.0790  -11.7800   20.6090 N   0  0  0  0  0  0  0  0  0  0  0  0
  -24.0640  -10.5360   21.0460 C   0  0  0  0  0  0  0  0  0  0  0  0
  -24.4780   -9.5900   22.0090 C   0  0  0  0  0  3  0  0  0  0  0  0
  -23.7620   -8.3860   22.1790 C   0  0  0  0  0  3  0  0  0  0  0  0
  -22.6200   -8.1190   21.3860 C   0  0  0  0  0  0  0  0  0  0  0  0
  -22.2270   -9.0540   20.4130 C   0  0  0  0  0  3  0  0  0  0  0  0
  -22.9440  -10.2510   20.2400 C   0  0  0  0  0  3  0  0  0  0  0  0
  -21.8780   -6.9660   21.4680 O   0  0  0  0  0  0  0  0  0  0  0  0
  -21.8070   -6.2380   22.6290 C   0  0  0  0  0  0  0  0  0  0  0  0
  -21.3280   -6.7990   23.8330 C   0  0  0  0  0  3  0  0  0  0  0  0
  -21.2070   -5.9970   24.9840 C   0  0  0  0  0  3  0  0  0  0  0  0
  -21.5540   -4.6330   24.9330 C   0  0  0  0  0  0  0  0  0  0  0  0
  -22.0260   -4.0710   23.7330 C   0  0  0  0  0  3  0  0  0  0  0  0
  -22.1500   -4.8700   22.5840 C   0  0  0  0  0  0  0  0  0  0  0  0
  -22.5850   -4.3180   21.4250 F   0  0  0  0  0  0  0  0  0  0  0  0
  -21.4280   -3.8610   26.0370 F   0  0  0  0  0  0  0  0  0  0  0  0
  -22.8780  -13.6080   21.0430 C   0  0  0  0  0  0  0  0  0  0  0  0
  -22.1240  -12.9220   21.8960 N   0  0  0  0  0  0  0  0  0  0  0  0
  -22.4490  -14.6130   20.4770 O   0  0  0  0  0  0  0  0  0  0  0  0
  -22.4740  -12.1050   22.3750 H   0  0  0  0  0  0  0  0  0  0  0  0
  -21.1750  -13.2200   22.0680 H   0  0  0  0  0  0  0  0  0  0  0  0
  -25.5130  -15.3010   20.2960 N   0  0  0  0  0  0  0  0  0  0  0  0
  -24.7470  -15.9640   20.3760 H   0  0  0  0  0  0  0  0  0  0  0  0
  -26.3840  -15.7370   20.0230 H   0  0  0  0  0  0  0  0  0  0  0  0
  -28.2400  -23.3740   20.8060 C   0  0  0  0  0  2  0  0  0  0  0  0
  -28.4900  -24.8360   19.9820 C   0  0  0  0  0  2  0  0  0  0  0  0
  -28.3240  -26.3240   20.4360 O   0  0  0  0  0  0  0  0  0  0  0  0
  -24.5830  -31.9490   23.2540 C   0  0  0  0  0  0  0  0  0  0  0  0
  -27.2230  -27.2440   20.2820 C   0  0  0  0  0  0  0  0  0  0  0  0
  -23.3960  -30.5390   21.6100 C   0  0  0  0  0  3  0  0  0  0  0  0
  -24.8630  -28.9540   20.2000 C   0  0  0  0  0  0  0  0  0  0  0  0
  -25.9410  -30.8240   21.4520 C   0  0  0  0  0  2  0  0  0  0  0  0
  -26.0290  -29.4230   20.8190 C   0  0  0  0  0  0  0  0  0  0  0  0
  -27.1960  -28.5810   20.8510 C   0  0  0  0  0  3  0  0  0  0  0  0
  -26.0360  -26.8670   19.6140 C   0  0  0  0  0  3  0  0  0  0  0  0
  -24.8830  -27.6890   19.5840 C   0  0  0  0  0  3  0  0  0  0  0  0
  -23.6260  -29.8440   20.2370 C   0  0  0  0  0  2  0  0  0  0  0  0
  -24.6590  -31.1280   22.1600 N   0  0  0  0  0  0  0  0  0  0  0  0
  -23.4950  -32.2280   23.7800 O   0  0  0  0  0  0  0  0  0  0  0  0
  -22.7220  -29.5380   22.5810 C   0  0  0  0  0  0  0  0  0  0  0  0
  -21.3950  -29.3630   22.4540 N   0  0  0  0  0  0  0  0  0  0  0  0
  -23.3950  -28.9200   23.4110 O   0  0  0  0  0  0  0  0  0  0  0  0
  -20.9050  -29.9170   21.7660 H   0  0  0  0  0  0  0  0  0  0  0  0
  -18.0210  -28.1510   22.9690 C   0  0  0  0  0  0  0  0  0  0  0  0
  -20.5790  -28.4240   23.2290 C   0  0  0  0  0  3  0  0  0  0  0  0
  -20.6830  -26.9900   22.6590 C   0  0  0  0  0  2  0  0  0  0  0  0
  -19.5800  -26.6600   21.6470 C   0  0  0  0  0  2  0  0  0  0  0  0
  -18.2000  -26.8000   22.2940 C   0  0  0  0  0  2  0  0  0  0  0  0
  -19.1370  -28.9190   23.3970 C   0  0  0  0  0  0  0  0  0  0  0  0
  -18.9160  -30.1790   23.9900 C   0  0  0  0  0  3  0  0  0  0  0  0
  -17.6080  -30.6740   24.1630 C   0  0  0  0  0  3  0  0  0  0  0  0
  -16.5070  -29.9050   23.7500 C   0  0  0  0  0  3  0  0  0  0  0  0
  -16.7120  -28.6460   23.1580 C   0  0  0  0  0  3  0  0  0  0  0  0
  -25.8570  -32.5930   23.8830 C   0  0  0  0  0  3  0  0  0  0  0  0
  -25.5440  -33.9960   24.1940 N   0  0  0  0  0  0  0  0  0  0  0  0
  -25.8910  -35.0450   23.4350 C   0  0  0  0  0  0  0  0  0  0  0  0
  -26.5740  -34.9300   22.4140 O   0  0  0  0  0  0  0  0  0  0  0  0
  -24.9350  -34.1590   24.9830 H   0  0  0  0  0  0  0  0  0  0  0  0
  -24.1820  -36.8490   23.0390 C   0  0  0  0  0  1  0  0  0  0  0  0
  -25.4040  -36.4390   23.8750 C   0  0  0  0  0  3  0  0  0  0  0  0
  -27.5290  -37.3210   24.7390 C   0  0  0  0  0  1  0  0  0  0  0  0
  -26.4450  -37.4870   23.7730 N   0  0  0  0  0  0  0  0  0  0  0  0
  -26.0420  -38.4120   23.9010 H   0  0  0  0  0  0  0  0  0  0  0  0
  -26.3580  -31.8420   25.1800 C   0  0  1  0  0  0  0  0  0  0  0  0
  -25.2550  -31.6230   26.2420 C   0  0  0  0  0  1  0  0  0  0  0  0
  -26.9440  -30.4580   24.8200 C   0  0  0  0  0  1  0  0  0  0  0  0
  -27.5040  -32.6460   25.8360 C   0  0  0  0  0  1  0  0  0  0  0  0
  1  2  1  0
  3  4  2  0
  3  5  1  0
  4  6  1  0
  5  1  2  0
  6  7  1  0
  6  2  2  0
  8 14  1  0
  9 14  1  0
 10 11  1  0
 10  9  1  0
 12 11  1  0
 12 24  1  0
 12 13  1  0
 14 13  1  0
 15  8  2  0
 16 17  1  0
 16 18  1  0
 17 19  1  0
 18 20  1  0
 19 20  1  0
 19  4  1  0
 20  8  1  0
 21 22  2  0
 22 23  1  0
 22 41  1  0
 23 26  1  0
 24 21  1  0
 24 25  1  0
 25 23  2  0
 26 27  1  0
 27 28  2  0
 29 32  1  0
 29 28  1  0
 30 29  2  0
 31 30  1  0
 31 26  2  0
 32 33  1  0
 33 34  1  0
 34 35  2  0
 36 35  1  0
 36 40  1  0
 37 36  2  0
 38 33  2  0
 38 37  1  0
 39 38  1  0
 41 42  1  0
 42 45  1  0
 42 44  1  0
 43 41  2  0
 46 47  1  0
 46 21  1  0
 48 46  1  0
 49  5  1  0
 50 51  1  0
 50 49  1  0
 52 63  2  0
 53 51  1  0
 53 58  1  0
 54 62  1  0
 54 64  1  0
 55 61  1  0
 55 57  1  0
 56 62  1  0
 57 58  2  0
 57 56  1  0
 59 53  2  0
 60 59  1  0
 60 55  2  0
 61 54  1  0
 62 52  1  0
 64 66  2  0
 65 64  1  0
 67 65  1  0
 68 77  2  0
 68 73  1  0
 69 65  1  0
 69 73  1  0
 70 69  1  0
 71 72  1  0
 71 70  1  0
 72 68  1  0
 73 74  2  0
 74 75  1  0
 76 75  2  0
 77 76  1  0
 78 52  1  0
 78 79  1  0
 78 88  1  0
 79 82  1  0
 80 84  1  0
 80 79  1  0
 81 80  2  0
 84 83  1  0
 86 84  1  0
 86 87  1  0
 86 85  1  0
 88 91  1  1
 88 89  1  0
 90 88  1  0
M  ISO  4   8 100  20 100  50 101  51 101
M  END
>  <TORSDO>  (59) 
F 18

>  <SCORE>  (59) 
-14.526

>  <name>  (59) 
59

>  <ligand_id>  (59) 
59

>  <original_smiles>  (59) 
[H]c1c([H])c([H])c2c(c1[H])C([H])([H])C([H])([H])C([H])([H])C2([H])N([H])C(=O)C1([H])N(C(=O)C([H])(N([H])C(=O)C([H])(N([H])C([H])([H])[H])C([H])([H])[H])C(C([H])([H])[H])(C([H])([H])[H])C([H])([H])[H])C([H])([H])c2c([H])c(OC([H])([H])C([H])([H])c3c([H])c([H])c(C([H])([H])[H])c(C4([H])N(C(=O)N5C([H])([H])C([H])([H])C([H])([H])C([H])(n6nc(-c7c([H])c([H])c(Oc8c([H])c([H])c(F)c([H])c8F)c([H])c7[H])c(C(=O)N([H])[H])c6N([H])[H])C5([H])[H])C([H])([H])C([H])([H])C4([H])[H])c3[H])c([H])c([H])c2C1([H])[H]

>  <smiles>  (59) 
[H]c1c([H])c([H])c2c(c1[H])C([H])([H])C([H])([H])C([H])([H])C2([H])N([H])C(=O)C1([H])N(C(=O)C([H])(N([H])C(=O)C([H])(N([H])C([H])([H])[H])C([H])([H])[H])C(C([H])([H])[H])(C([H])([H])[H])C([H])([H])[H])C([H])([H])c2c([H])c(OC([H])([H])C([H])([H])c3c([H])c([H])c(C([H])([H])[H])c(C4([H])N(C(=O)N5C([H])([H])C([H])([H])C([H])([H])C([H])(n6nc(-c7c([H])c([H])c(Oc8c([H])c([H])c(F)c([H])c8F)c([H])c7[H])c(C(=O)N([H])[H])c6N([H])[H])C5([H])[H])C([H])([H])C([H])([H])C4([H])[H])c3[H])c([H])c([H])c2C1([H])[H]

$$$$
60:0:0
     RDKit          3D

 94103  0  0  1  0  0  0  0  0999 V2000
  -25.6790  -24.5440   20.6100 C   0  0  0  0  0  0  0  0  0  0  0  0
  -26.7790  -23.5960   20.4720 C   0  0  0  0  0  3  0  0  0  0  0  0
  -27.5830  -24.8260   20.2720 C   0  0  0  0  0  3  0  0  0  0  0  0
  -25.4480  -28.3570   18.3240 C   0  0  0  0  0  2  0  0  0  0  0  0
  -26.2910  -28.4640   18.2370 C   0  0  0  0  0  3  0  0  0  0  0  0
  -25.7850  -26.3670   20.6030 C   0  0  0  0  0  2  0  0  0  0  0  0
  -26.7620  -26.4320   20.5360 C   0  0  0  0  0  3  0  0  0  0  0  0
  -24.3560  -23.9320   20.8490 C   0  0  0  0  0  3  0  0  0  0  0  0
  -23.3030  -24.5890   21.0780 N   0  0  0  0  0  0  0  0  0  0  0  0
  -23.5010  -25.5840   21.0540 H   0  0  0  0  0  0  0  0  0  0  0  0
  -27.3000  -21.8100   20.1620 C   0  0  0  0  0  2  0  0  0  0  0  0
  -28.3710  -20.2830   20.7630 C   0  0  0  0  0  2  0  0  0  0  0  0
  -29.1790  -18.6290   20.0860 C   0  0  0  0  0  2  0  0  0  0  0  0
  -30.3830  -15.6370   20.2960 C   0  0  0  0  0  0  0  0  0  0  0  0
  -30.6620  -13.0860   19.5070 C   0  0  0  0  0  2  0  0  0  0  0  0
  -29.8130  -12.6940   18.2590 C   0  0  0  0  0  2  0  0  0  0  0  0
  -28.3670  -12.3640   18.6610 C   0  0  0  0  0  2  0  0  0  0  0  0
  -27.8460  -13.3720   19.7110 C   0  0  0  0  0  3  0  0  0  0  0  0
  -28.8180  -13.6050   20.8790 C   0  0  0  0  0  2  0  0  0  0  0  0
  -29.9950  -14.2340   20.2800 N   0  0  0  0  0  0  0  0  0  0  0  0
  -31.6020  -15.6770   20.0100 O   0  0  0  0  0  0  0  0  0  0  0  0
  -29.4640  -16.8970   20.4750 N   0  0  0  0  0  0  0  0  0  0  0  0
  -28.5890  -16.5310   20.8240 H   0  0  0  0  0  0  0  0  0  0  0  0
  -25.4970  -13.9780   20.4220 C   0  0  0  0  0  0  0  0  0  0  0  0
  -24.4190  -13.2260   20.7890 C   0  0  0  0  0  0  0  0  0  0  0  0
  -24.8620  -11.8680   20.7810 C   0  0  0  0  0  0  0  0  0  0  0  0
  -26.5160  -13.0760   20.1920 N   0  0  0  0  0  0  0  0  0  0  0  0
  -26.1550  -11.8020   20.4810 N   0  0  0  0  0  0  0  0  0  0  0  0
  -24.1110  -10.6230   20.9760 C   0  0  0  0  0  0  0  0  0  0  0  0
  -24.5060   -9.6610   21.9320 C   0  0  0  0  0  3  0  0  0  0  0  0
  -23.7510   -8.4830   22.1140 C   0  0  0  0  0  3  0  0  0  0  0  0
  -22.5900   -8.2580   21.3380 C   0  0  0  0  0  0  0  0  0  0  0  0
  -22.2150   -9.2080   20.3710 C   0  0  0  0  0  3  0  0  0  0  0  0
  -22.9700  -10.3770   20.1870 C   0  0  0  0  0  3  0  0  0  0  0  0
  -21.8090   -7.1320   21.4270 O   0  0  0  0  0  0  0  0  0  0  0  0
  -21.6950   -6.4270   22.5980 C   0  0  0  0  0  0  0  0  0  0  0  0
  -21.2080   -7.0220   23.7830 C   0  0  0  0  0  3  0  0  0  0  0  0
  -21.0420   -6.2430   24.9450 C   0  0  0  0  0  3  0  0  0  0  0  0
  -21.3530   -4.8710   24.9230 C   0  0  0  0  0  0  0  0  0  0  0  0
  -21.8330   -4.2750   23.7440 C   0  0  0  0  0  3  0  0  0  0  0  0
  -22.0010   -5.0510   22.5840 C   0  0  0  0  0  0  0  0  0  0  0  0
  -22.4440   -4.4680   21.4440 F   0  0  0  0  0  0  0  0  0  0  0  0
  -21.1860   -4.1200   26.0380 F   0  0  0  0  0  0  0  0  0  0  0  0
  -23.0310  -13.7370   21.0270 C   0  0  0  0  0  0  0  0  0  0  0  0
  -22.2780  -13.0800   21.9010 N   0  0  0  0  0  0  0  0  0  0  0  0
  -22.6230  -14.7560   20.4700 O   0  0  0  0  0  0  0  0  0  0  0  0
  -22.6220  -12.2570   22.3730 H   0  0  0  0  0  0  0  0  0  0  0  0
  -21.3440  -13.4060   22.1050 H   0  0  0  0  0  0  0  0  0  0  0  0
  -25.6920  -15.3450   20.2310 N   0  0  0  0  0  0  0  0  0  0  0  0
  -24.9260  -16.0040   20.3120 H   0  0  0  0  0  0  0  0  0  0  0  0
  -26.5180  -15.7490   19.8130 H   0  0  0  0  0  0  0  0  0  0  0  0
  -27.9080  -26.6170   21.6540 C   0  0  0  0  0  2  0  0  0  0  0  0
  -29.1970  -27.1350   20.8240 C   0  0  0  0  0  2  0  0  0  0  0  0
  -28.9750  -27.2030   19.3500 O   0  0  0  0  0  0  0  0  0  0  0  0
  -24.7000  -32.1670   23.4180 C   0  0  0  0  0  0  0  0  0  0  0  0
  -27.8750  -27.9080   19.0190 C   0  0  0  0  0  3  0  0  0  0  0  0
  -23.2790  -30.8340   21.8510 C   0  0  0  0  0  3  0  0  0  0  0  0
  -24.2630  -28.8360   20.4240 C   0  0  0  0  0  3  0  0  0  0  0  0
  -25.7910  -30.9710   21.5200 C   0  0  0  0  0  2  0  0  0  0  0  0
  -25.8530  -29.5030   21.0230 C   0  0  0  0  0  3  0  0  0  0  0  0
  -27.5290  -29.1420   20.4810 C   0  0  0  0  0  2  0  0  0  0  0  0
  -26.1310  -27.1330   18.3010 C   0  0  0  0  0  1  0  0  0  0  0  0
  -24.3220  -27.5590   18.9620 C   0  0  0  0  0  2  0  0  0  0  0  0
  -23.2210  -29.9860   20.5260 C   0  0  0  0  0  2  0  0  0  0  0  0
  -24.6130  -31.3640   22.3030 N   0  0  0  0  0  0  0  0  0  0  0  0
  -23.6860  -32.4720   24.0630 O   0  0  0  0  0  0  0  0  0  0  0  0
  -22.7030  -29.8620   22.8650 C   0  0  0  0  0  0  0  0  0  0  0  0
  -21.4210  -29.5400   22.6740 N   0  0  0  0  0  0  0  0  0  0  0  0
  -23.4240  -29.3400   23.7150 O   0  0  0  0  0  0  0  0  0  0  0  0
  -20.9080  -30.0170   21.9460 H   0  0  0  0  0  0  0  0  0  0  0  0
  -18.3170  -27.7560   22.8070 C   0  0  0  0  0  0  0  0  0  0  0  0
  -20.7140  -28.4900   23.3820 C   0  0  0  0  0  3  0  0  0  0  0  0
  -21.1620  -27.0970   22.8890 C   0  0  0  0  0  2  0  0  0  0  0  0
  -20.2780  -26.5340   21.7740 C   0  0  0  0  0  2  0  0  0  0  0  0
  -18.8240  -26.4380   22.2460 C   0  0  0  0  0  2  0  0  0  0  0  0
  -19.2100  -28.7300   23.3190 C   0  0  0  0  0  0  0  0  0  0  0  0
  -18.7010  -29.9610   23.7850 C   0  0  0  0  0  3  0  0  0  0  0  0
  -17.3200  -30.2210   23.7580 C   0  0  0  0  0  3  0  0  0  0  0  0
  -16.4330  -29.2430   23.2730 C   0  0  0  0  0  3  0  0  0  0  0  0
  -16.9310  -28.0150   22.8010 C   0  0  0  0  0  3  0  0  0  0  0  0
  -26.0600  -32.7390   23.9510 C   0  0  0  0  0  3  0  0  0  0  0  0
  -25.8550  -34.1550   24.3100 N   0  0  0  0  0  0  0  0  0  0  0  0
  -26.1950  -35.2050   23.5470 C   0  0  0  0  0  0  0  0  0  0  0  0
  -26.7780  -35.0830   22.4680 O   0  0  0  0  0  0  0  0  0  0  0  0
  -25.3260  -34.3310   25.1510 H   0  0  0  0  0  0  0  0  0  0  0  0
  -24.5320  -37.0890   23.3770 C   0  0  0  0  0  1  0  0  0  0  0  0
  -25.8230  -36.6140   24.0590 C   0  0  0  0  0  3  0  0  0  0  0  0
  -28.0620  -37.4020   24.6950 C   0  0  0  0  0  1  0  0  0  0  0  0
  -26.8900  -37.6200   23.8520 N   0  0  0  0  0  0  0  0  0  0  0  0
  -26.5400  -38.5570   24.0310 H   0  0  0  0  0  0  0  0  0  0  0  0
  -26.6290  -31.9510   25.2030 C   0  0  1  0  0  0  0  0  0  0  0  0
  -25.5840  -31.7410   26.3230 C   0  0  0  0  0  1  0  0  0  0  0  0
  -27.1600  -30.5570   24.7970 C   0  0  0  0  0  1  0  0  0  0  0  0
  -27.8330  -32.7120   25.8130 C   0  0  0  0  0  1  0  0  0  0  0  0
  1  8  1  0
  2 11  1  0
  2  1  1  0
  3  2  1  0
  3  7  1  0
  3  1  1  0
  4 63  1  0
  5 62  1  0
  5  4  1  0
  5 56  1  0
  6  1  1  0
  7  6  1  0
  7 52  1  0
  8  9  2  0
 10  9  1  0
 11 12  1  0
 13 22  1  0
 13 12  1  0
 14 22  1  0
 15 20  1  0
 16 17  1  0
 16 15  1  0
 17 18  1  0
 18 27  1  0
 18 19  1  0
 20 14  1  0
 20 19  1  0
 21 14  2  0
 22 23  1  0
 24 25  2  0
 25 44  1  0
 26 25  1  0
 26 29  1  0
 27 24  1  0
 27 28  1  0
 28 26  2  0
 29 30  1  0
 30 31  2  0
 32 35  1  0
 32 31  1  0
 33 32  2  0
 34 33  1  0
 34 29  2  0
 35 36  1  0
 36 37  1  0
 37 38  2  0
 39 38  1  0
 39 43  1  0
 40 39  2  0
 41 36  2  0
 41 40  1  0
 42 41  1  0
 44 45  1  0
 45 48  1  0
 45 47  1  0
 46 44  2  0
 49 50  1  0
 49 24  1  0
 51 49  1  0
 53 52  1  0
 54 53  1  0
 55 81  1  0
 55 66  2  0
 56 54  1  0
 56 61  1  0
 57 65  1  0
 57 67  1  0
 58 64  1  0
 58 60  1  0
 59 65  1  0
 60 59  1  0
 61 60  1  0
 63 58  1  0
 64 57  1  0
 65 55  1  0
 67 69  2  0
 68 67  1  0
 68 72  1  0
 70 68  1  0
 71 76  1  0
 73 72  1  0
 74 75  1  0
 74 73  1  0
 75 71  1  0
 76 72  1  0
 76 77  2  0
 78 77  1  0
 79 78  2  0
 80 71  2  0
 80 79  1  0
 81 82  1  0
 81 91  1  0
 82 85  1  0
 83 87  1  0
 83 82  1  0
 84 83  2  0
 86 87  1  0
 89 90  1  0
 89 87  1  0
 89 88  1  0
 91 94  1  1
 91 92  1  0
 93 91  1  0
M  ISO  4  14 100  22 100  53 101  54 101
M  END
>  <TORSDO>  (60) 
F 22

>  <SCORE>  (60) 
-13.506

>  <name>  (60) 
60

>  <ligand_id>  (60) 
60

>  <original_smiles>  (60) 
[H]N=C([H])C1=C(C([H])([H])C([H])([H])C([H])([H])N([H])C(=O)N2C([H])([H])C([H])([H])C([H])([H])C([H])(n3nc(-c4c([H])c([H])c(Oc5c([H])c([H])c(F)c([H])c5F)c([H])c4[H])c(C(=O)N([H])[H])c3N([H])[H])C2([H])[H])C([H])([H])C2(C([H])([H])C([H])([H])Oc3c([H])c([H])c4c(c3[H])C([H])([H])N(C(=O)C([H])(N([H])C(=O)C([H])(N([H])C([H])([H])[H])C([H])([H])[H])C(C([H])([H])[H])(C([H])([H])[H])C([H])([H])[H])C([H])(C(=O)N([H])C3([H])c5c([H])c([H])c([H])c([H])c5C([H])([H])C([H])([H])C3([H])[H])C4([H])[H])C([H])([H])C([H])([H])C12[H]

>  <smiles>  (60) 
[H]N=C([H])C1=C(C([H])([H])C([H])([H])C([H])([H])N([H])C(=O)N2C([H])([H])C([H])([H])C([H])([H])C([H])(n3nc(-c4c([H])c([H])c(Oc5c([H])c([H])c(F)c([H])c5F)c([H])c4[H])c(C(=O)N([H])[H])c3N([H])[H])C2([H])[H])C([H])([H])C2(C([H])([H])C([H])([H])Oc3c([H])c([H])c4c(c3[H])C([H])([H])N(C(=O)C([H])(N([H])C(=O)C([H])(N([H])C([H])([H])[H])C([H])([H])[H])C(C([H])([H])[H])(C([H])([H])[H])C([H])([H])[H])C([H])(C(=O)N([H])C3([H])c5c([H])c([H])c([H])c([H])c5C([H])([H])C([H])([H])C3([H])[H])C4([H])[H])C([H])([H])C([H])([H])C12[H]

$$$$
61:0:0
     RDKit          3D

 95104  0  0  1  0  0  0  0  0999 V2000
  -30.2250  -18.4510   18.6340 C   0  0  0  0  0  3  0  0  0  0  0  0
  -29.8980  -19.5730   17.9260 C   0  0  0  0  0  0  0  0  0  0  0  0
  -26.7290  -21.4150   18.5650 C   0  0  0  0  0  2  0  0  0  0  0  0
  -27.8170  -20.9940   17.5890 C   0  0  0  0  0  2  0  0  0  0  0  0
  -27.2370  -20.9040   19.9050 C   0  0  0  0  0  2  0  0  0  0  0  0
  -29.3630  -19.6630   20.7400 C   0  0  0  0  0  2  0  0  0  0  0  0
  -30.0200  -18.1710   20.1080 C   0  0  0  0  0  3  0  0  0  0  0  0
  -29.1370  -20.8590   18.3890 C   0  0  0  0  0  3  0  0  0  0  0  0
  -28.7710  -21.0880   19.9000 C   0  0  1  0  0  0  0  0  0  0  0  0
  -30.5030  -15.2910   20.3440 C   0  0  0  0  0  0  0  0  0  0  0  0
  -30.4720  -12.8330   19.5380 C   0  0  0  0  0  2  0  0  0  0  0  0
  -29.5700  -12.6200   18.2980 C   0  0  0  0  0  2  0  0  0  0  0  0
  -28.1110  -12.3730   18.7190 C   0  0  0  0  0  2  0  0  0  0  0  0
  -27.6510  -13.3600   19.8220 C   0  0  0  0  0  3  0  0  0  0  0  0
  -28.6830  -13.5210   20.9590 C   0  0  0  0  0  2  0  0  0  0  0  0
  -29.9290  -13.9910   20.3360 N   0  0  0  0  0  0  0  0  0  0  0  0
  -31.7180  -15.2890   20.1010 O   0  0  0  0  0  0  0  0  0  0  0  0
  -29.7460  -16.5590   20.4160 N   0  0  0  0  0  0  0  0  0  0  0  0
  -28.7760  -16.3780   20.6300 H   0  0  0  0  0  0  0  0  0  0  0  0
  -25.2790  -13.9410   20.5560 C   0  0  0  0  0  0  0  0  0  0  0  0
  -24.2060  -13.1730   20.9150 C   0  0  0  0  0  0  0  0  0  0  0  0
  -24.6620  -11.8180   20.8850 C   0  0  0  0  0  0  0  0  0  0  0  0
  -26.3150  -13.0560   20.3190 N   0  0  0  0  0  0  0  0  0  0  0  0
  -25.9560  -11.7730   20.5860 N   0  0  0  0  0  0  0  0  0  0  0  0
  -23.9200  -10.5630   21.0660 C   0  0  0  0  0  0  0  0  0  0  0  0
  -24.3340   -9.5880   22.0000 C   0  0  0  0  0  3  0  0  0  0  0  0
  -23.5910   -8.3990   22.1700 C   0  0  0  0  0  3  0  0  0  0  0  0
  -22.4200   -8.1770   21.4060 C   0  0  0  0  0  0  0  0  0  0  0  0
  -22.0270   -9.1420   20.4610 C   0  0  0  0  0  3  0  0  0  0  0  0
  -22.7700  -10.3210   20.2880 C   0  0  0  0  0  3  0  0  0  0  0  0
  -21.6510   -7.0420   21.4840 O   0  0  0  0  0  0  0  0  0  0  0  0
  -21.5840   -6.2960   22.6340 C   0  0  0  0  0  0  0  0  0  0  0  0
  -21.1500   -6.8510   23.8570 C   0  0  0  0  0  3  0  0  0  0  0  0
  -21.0290   -6.0320   24.9990 C   0  0  0  0  0  3  0  0  0  0  0  0
  -21.3320   -4.6600   24.9160 C   0  0  0  0  0  0  0  0  0  0  0  0
  -21.7600   -4.1050   23.6970 C   0  0  0  0  0  3  0  0  0  0  0  0
  -21.8810   -4.9200   22.5580 C   0  0  0  0  0  0  0  0  0  0  0  0
  -22.2720   -4.3760   21.3810 F   0  0  0  0  0  0  0  0  0  0  0  0
  -21.2100   -3.8720   26.0100 F   0  0  0  0  0  0  0  0  0  0  0  0
  -22.8120  -13.6620   21.1700 C   0  0  0  0  0  0  0  0  0  0  0  0
  -22.0650  -12.9690   22.0200 N   0  0  0  0  0  0  0  0  0  0  0  0
  -22.3930  -14.6960   20.6500 O   0  0  0  0  0  0  0  0  0  0  0  0
  -22.4180  -12.1330   22.4630 H   0  0  0  0  0  0  0  0  0  0  0  0
  -21.1270  -13.2790   22.2330 H   0  0  0  0  0  0  0  0  0  0  0  0
  -25.4530  -15.3100   20.3810 N   0  0  0  0  0  0  0  0  0  0  0  0
  -24.6860  -15.9660   20.4810 H   0  0  0  0  0  0  0  0  0  0  0  0
  -26.2940  -15.7420   20.0200 H   0  0  0  0  0  0  0  0  0  0  0  0
  -30.3520  -19.5940   16.5350 C   0  0  0  0  0  0  0  0  0  0  0  0
  -30.0100  -18.5140   15.8380 N   0  0  0  0  0  0  0  0  0  0  0  0
  -30.9670  -20.5160   16.0010 O   0  0  0  0  0  0  0  0  0  0  0  0
  -29.4720  -17.7820   16.2770 H   0  0  0  0  0  0  0  0  0  0  0  0
  -30.2660  -18.4280   14.8660 H   0  0  0  0  0  0  0  0  0  0  0  0
  -28.9600  -22.8350   20.3180 C   0  0  0  0  0  3  0  0  0  0  0  0
  -28.0990  -24.3450   19.8540 C   0  0  0  0  0  3  0  0  0  0  0  0
  -28.2940  -25.9480   20.1420 O   0  0  0  0  0  0  0  0  0  0  0  0
  -24.6430  -31.8190   23.1070 C   0  0  0  0  0  0  0  0  0  0  0  0
  -27.2720  -27.0220   20.0580 C   0  0  0  0  0  0  0  0  0  0  0  0
  -23.4750  -30.4330   21.4400 C   0  0  0  0  0  3  0  0  0  0  0  0
  -24.9520  -28.8610   20.0110 C   0  0  0  0  0  0  0  0  0  0  0  0
  -26.0390  -30.6750   21.3200 C   0  0  0  0  0  2  0  0  0  0  0  0
  -26.1280  -29.2760   20.6490 C   0  0  0  0  0  0  0  0  0  0  0  0
  -27.2820  -28.3760   20.6500 C   0  0  0  0  0  3  0  0  0  0  0  0
  -26.0680  -26.7550   19.3700 C   0  0  0  0  0  3  0  0  0  0  0  0
  -24.9450  -27.6220   19.3520 C   0  0  0  0  0  3  0  0  0  0  0  0
  -23.7240  -29.7670   20.0580 C   0  0  0  0  0  2  0  0  0  0  0  0
  -24.7390  -31.0010   22.0100 N   0  0  0  0  0  0  0  0  0  0  0  0
  -23.5460  -32.0920   23.6220 O   0  0  0  0  0  0  0  0  0  0  0  0
  -22.7820  -29.4190   22.3860 C   0  0  0  0  0  0  0  0  0  0  0  0
  -21.4480  -29.2740   22.2730 N   0  0  0  0  0  0  0  0  0  0  0  0
  -23.4490  -28.7640   23.1920 O   0  0  0  0  0  0  0  0  0  0  0  0
  -20.9640  -29.8530   21.6020 H   0  0  0  0  0  0  0  0  0  0  0  0
  -18.0520  -28.1230   22.8190 C   0  0  0  0  0  0  0  0  0  0  0  0
  -20.6230  -28.3270   23.0290 C   0  0  0  0  0  3  0  0  0  0  0  0
  -20.6800  -26.9150   22.4010 C   0  0  0  0  0  2  0  0  0  0  0  0
  -19.5480  -26.6530   21.4020 C   0  0  0  0  0  2  0  0  0  0  0  0
  -18.1850  -26.7990   22.0850 C   0  0  0  0  0  2  0  0  0  0  0  0
  -19.1960  -28.8480   23.2480 C   0  0  0  0  0  0  0  0  0  0  0  0
  -19.0150  -30.0890   23.8980 C   0  0  0  0  0  3  0  0  0  0  0  0
  -17.7250  -30.6030   24.1200 C   0  0  0  0  0  3  0  0  0  0  0  0
  -16.5960  -29.8760   23.7050 C   0  0  0  0  0  3  0  0  0  0  0  0
  -16.7610  -28.6370   23.0590 C   0  0  0  0  0  3  0  0  0  0  0  0
  -25.9030  -32.4640   23.7600 C   0  0  0  0  0  3  0  0  0  0  0  0
  -26.3980  -31.6920   25.0450 C   0  0  1  0  0  0  0  0  0  0  0  0
  -25.2860  -31.4470   26.0930 C   0  0  0  0  0  1  0  0  0  0  0  0
  -26.9940  -30.3160   24.6700 C   0  0  0  0  0  1  0  0  0  0  0  0
  -27.5330  -32.4880   25.7310 C   0  0  0  0  0  1  0  0  0  0  0  0
  -25.5720  -33.8580   24.1030 N   0  0  0  0  0  0  0  0  0  0  0  0
  -25.9120  -34.9290   23.3740 C   0  0  0  0  0  0  0  0  0  0  0  0
  -26.5990  -34.8490   22.3520 O   0  0  0  0  0  0  0  0  0  0  0  0
  -24.9620  -33.9930   24.8960 H   0  0  0  0  0  0  0  0  0  0  0  0
  -24.1860  -36.7310   23.0280 C   0  0  0  0  0  1  0  0  0  0  0  0
  -25.4130  -36.3090   23.8520 C   0  0  0  0  0  3  0  0  0  0  0  0
  -27.5270  -37.1880   24.7440 C   0  0  0  0  0  1  0  0  0  0  0  0
  -26.4450  -37.3670   23.7780 N   0  0  0  0  0  0  0  0  0  0  0  0
  -26.0330  -38.2830   23.9320 H   0  0  0  0  0  0  0  0  0  0  0  0
  1  7  1  0
  2  8  1  0
  2  1  2  0
  3  5  1  0
  4  3  1  0
  7 18  1  0
  7  6  1  0
  8  4  1  0
  8  9  1  0
  9  5  1  0
  9 53  1  1
  9  6  1  0
 10 18  1  0
 11 16  1  0
 12 13  1  0
 12 11  1  0
 14 13  1  0
 14 23  1  0
 14 15  1  0
 16 10  1  0
 16 15  1  0
 17 10  2  0
 18 19  1  0
 20 21  2  0
 21 40  1  0
 22 21  1  0
 22 25  1  0
 23 20  1  0
 23 24  1  0
 24 22  2  0
 25 26  1  0
 26 27  2  0
 28 31  1  0
 28 27  1  0
 29 28  2  0
 30 29  1  0
 30 25  2  0
 31 32  1  0
 32 33  1  0
 33 34  2  0
 35 34  1  0
 35 39  1  0
 36 35  2  0
 37 32  2  0
 37 36  1  0
 38 37  1  0
 40 41  1  0
 41 44  1  0
 41 43  1  0
 42 40  2  0
 45 46  1  0
 45 20  1  0
 47 45  1  0
 48  2  1  0
 49 51  1  0
 49 48  1  0
 50 48  2  0
 52 49  1  0
 54 55  1  0
 54 53  2  0
 56 67  2  0
 57 55  1  0
 57 62  1  0
 58 66  1  0
 58 68  1  0
 59 65  1  0
 59 61  1  0
 60 66  1  0
 61 62  2  0
 61 60  1  0
 63 57  2  0
 64 63  1  0
 64 59  2  0
 65 58  1  0
 66 56  1  0
 68 70  2  0
 69 68  1  0
 71 69  1  0
 72 81  2  0
 72 77  1  0
 73 69  1  0
 73 77  1  0
 74 73  1  0
 75 76  1  0
 75 74  1  0
 76 72  1  0
 77 78  2  0
 78 79  1  0
 80 79  2  0
 81 80  1  0
 82 56  1  0
 82 87  1  0
 82 83  1  0
 83 86  1  1
 83 84  1  0
 85 83  1  0
 87 90  1  0
 88 92  1  0
 88 87  1  0
 89 88  2  0
 92 91  1  0
 94 92  1  0
 94 95  1  0
 94 93  1  0
M  ISO  4  10 100  18 100  54 101  55 101
M  END
>  <TORSDO>  (61) 
F 19

>  <SCORE>  (61) 
-15.148

>  <name>  (61) 
61

>  <ligand_id>  (61) 
61

>  <original_smiles>  (61) 
[H]C1=C(C(=O)N([H])[H])C2([H])C([H])([H])C([H])([H])C([H])([H])C2(C([H])([H])C([H])([H])Oc2c([H])c([H])c3c(c2[H])C([H])([H])N(C(=O)C([H])(N([H])C(=O)C([H])(N([H])C([H])([H])[H])C([H])([H])[H])C(C([H])([H])[H])(C([H])([H])[H])C([H])([H])[H])C([H])(C(=O)N([H])C2([H])c4c([H])c([H])c([H])c([H])c4C([H])([H])C([H])([H])C2([H])[H])C3([H])[H])C([H])([H])C1([H])N([H])C(=O)N1C([H])([H])C([H])([H])C([H])([H])C([H])(n2nc(-c3c([H])c([H])c(Oc4c([H])c([H])c(F)c([H])c4F)c([H])c3[H])c(C(=O)N([H])[H])c2N([H])[H])C1([H])[H]

>  <smiles>  (61) 
[H]C1=C(C(=O)N([H])[H])C2([H])C([H])([H])C([H])([H])C([H])([H])C2(C([H])([H])C([H])([H])Oc2c([H])c([H])c3c(c2[H])C([H])([H])N(C(=O)C([H])(N([H])C(=O)C([H])(N([H])C([H])([H])[H])C([H])([H])[H])C(C([H])([H])[H])(C([H])([H])[H])C([H])([H])[H])C([H])(C(=O)N([H])C2([H])c4c([H])c([H])c([H])c([H])c4C([H])([H])C([H])([H])C2([H])[H])C3([H])[H])C([H])([H])C1([H])N([H])C(=O)N1C([H])([H])C([H])([H])C([H])([H])C([H])(n2nc(-c3c([H])c([H])c(Oc4c([H])c([H])c(F)c([H])c4F)c([H])c3[H])c(C(=O)N([H])[H])c2N([H])[H])C1([H])[H]

$$$$
62:0:0
     RDKit          3D

100107  0  0  1  0  0  0  0  0999 V2000
  -30.9020  -17.9820   23.3510 C   0  0  0  0  0  2  0  0  0  0  0  0
  -30.5020  -19.3760   23.0820 N   0  0  0  0  0  4  0  0  0  0  0  0
  -30.8810  -19.6560   22.1910 H   0  0  0  0  0  0  0  0  0  0  0  0
  -29.4980  -19.4150   23.0190 H   0  0  0  0  0  0  0  0  0  0  0  0
  -30.9520  -20.3420   24.1090 C   0  0  0  0  0  2  0  0  0  0  0  0
  -30.2230  -21.6880   23.9740 C   0  0  0  0  0  2  0  0  0  0  0  0
  -30.5990  -22.4980   22.7180 C   0  0  0  0  0  2  0  0  0  0  0  0
  -29.4150  -23.3460   22.2390 C   0  0  0  0  0  2  0  0  0  0  0  0
  -29.7820  -24.4730   21.2630 C   0  0  0  0  0  2  0  0  0  0  0  0
  -28.5330  -24.9960   20.5420 C   0  0  0  0  0  2  0  0  0  0  0  0
  -28.6740  -26.3830   20.2340 O   0  0  0  0  0  0  0  0  0  0  0  0
  -24.5520  -31.3710   23.1260 C   0  0  0  0  0  0  0  0  0  0  0  0
  -27.4890  -27.0720   20.1450 C   0  0  0  0  0  0  0  0  0  0  0  0
  -23.4780  -29.9600   21.4020 C   0  0  0  0  0  3  0  0  0  0  0  0
  -25.0510  -28.4870   20.0410 C   0  0  0  0  0  0  0  0  0  0  0  0
  -25.9970  -30.3990   21.3470 C   0  0  0  0  0  2  0  0  0  0  0  0
  -26.1570  -29.0420   20.6970 C   0  0  0  0  0  0  0  0  0  0  0  0
  -27.3810  -28.3420   20.7440 C   0  0  0  0  0  3  0  0  0  0  0  0
  -26.3690  -26.5290   19.4730 C   0  0  0  0  0  3  0  0  0  0  0  0
  -25.1500  -27.2280   19.4260 C   0  0  0  0  0  3  0  0  0  0  0  0
  -23.7810  -29.3050   20.0290 C   0  0  0  0  0  2  0  0  0  0  0  0
  -24.6900  -30.5900   22.0180 N   0  0  0  0  0  0  0  0  0  0  0  0
  -23.4360  -31.6070   23.6080 O   0  0  0  0  0  0  0  0  0  0  0  0
  -22.8050  -28.9070   22.3110 C   0  0  0  0  0  0  0  0  0  0  0  0
  -21.4920  -28.7010   22.1130 N   0  0  0  0  0  0  0  0  0  0  0  0
  -23.4600  -28.2800   23.1470 O   0  0  0  0  0  0  0  0  0  0  0  0
  -21.0260  -29.2610   21.4140 H   0  0  0  0  0  0  0  0  0  0  0  0
  -18.1240  -27.4320   22.4120 C   0  0  0  0  0  0  0  0  0  0  0  0
  -20.6570  -27.7350   22.8260 C   0  0  0  0  0  3  0  0  0  0  0  0
  -20.8200  -26.3160   22.2340 C   0  0  0  0  0  2  0  0  0  0  0  0
  -19.7810  -25.9880   21.1580 C   0  0  0  0  0  2  0  0  0  0  0  0
  -18.3630  -26.0960   21.7290 C   0  0  0  0  0  2  0  0  0  0  0  0
  -19.2020  -28.2100   22.9130 C   0  0  0  0  0  0  0  0  0  0  0  0
  -18.9270  -29.4610   23.5060 C   0  0  0  0  0  3  0  0  0  0  0  0
  -17.6050  -29.9340   23.6070 C   0  0  0  0  0  3  0  0  0  0  0  0
  -16.5400  -29.1540   23.1240 C   0  0  0  0  0  3  0  0  0  0  0  0
  -16.8000  -27.9050   22.5350 C   0  0  0  0  0  3  0  0  0  0  0  0
  -25.7840  -32.0270   23.8230 C   0  0  0  0  0  3  0  0  0  0  0  0
  -25.4150  -33.4050   24.1690 N   0  0  0  0  0  0  0  0  0  0  0  0
  -25.7540  -34.4850   23.4520 C   0  0  0  0  0  0  0  0  0  0  0  0
  -26.4820  -34.4270   22.4570 O   0  0  0  0  0  0  0  0  0  0  0  0
  -24.7750  -33.5230   24.9410 H   0  0  0  0  0  0  0  0  0  0  0  0
  -24.0060  -36.2400   23.0220 C   0  0  0  0  0  1  0  0  0  0  0  0
  -25.1960  -35.8460   23.9110 C   0  0  0  0  0  3  0  0  0  0  0  0
  -27.2370  -36.7590   24.9250 C   0  0  0  0  0  1  0  0  0  0  0  0
  -26.2040  -36.9270   23.9060 N   0  0  0  0  0  0  0  0  0  0  0  0
  -25.7620  -37.8310   24.0500 H   0  0  0  0  0  0  0  0  0  0  0  0
  -26.2660  -31.2390   25.1030 C   0  0  1  0  0  0  0  0  0  0  0  0
  -25.1320  -30.9330   26.1090 C   0  0  0  0  0  1  0  0  0  0  0  0
  -26.9180  -29.8950   24.7020 C   0  0  0  0  0  1  0  0  0  0  0  0
  -27.3550  -32.0540   25.8420 C   0  0  0  0  0  1  0  0  0  0  0  0
  -30.7420  -17.0850   22.1100 C   0  0  0  0  0  2  0  0  0  0  0  0
  -31.3860  -15.7000   22.3070 C   0  0  0  0  0  2  0  0  0  0  0  0
  -31.6250  -14.9480   20.9800 C   0  0  0  0  0  3  0  0  0  0  0  0
  -30.2260  -13.8580   19.2760 C   0  0  0  0  0  0  0  0  0  0  0  0
  -29.4590  -11.9460   17.9320 C   0  0  0  0  0  2  0  0  0  0  0  0
  -28.2620  -12.2740   17.0270 C   0  0  0  0  0  2  0  0  0  0  0  0
  -26.9440  -12.0700   17.7910 C   0  0  0  0  0  2  0  0  0  0  0  0
  -26.9360  -12.7950   19.1610 C   0  0  0  0  0  3  0  0  0  0  0  0
  -28.2220  -12.4920   19.9670 C   0  0  0  0  0  2  0  0  0  0  0  0
  -29.3970  -12.7970   19.1300 N   0  0  0  0  0  0  0  0  0  0  0  0
  -30.9460  -14.2860   18.3700 O   0  0  0  0  0  0  0  0  0  0  0  0
  -30.3940  -14.2780   20.5380 N   0  0  0  0  0  0  0  0  0  0  0  0
  -29.8280  -13.8320   21.2420 H   0  0  0  0  0  0  0  0  0  0  0  0
  -24.7690  -13.3160   20.4520 C   0  0  0  0  0  0  0  0  0  0  0  0
  -23.8160  -12.5030   21.0040 C   0  0  0  0  0  0  0  0  0  0  0  0
  -24.2540  -11.1640   20.7690 C   0  0  0  0  0  0  0  0  0  0  0  0
  -25.7310  -12.4690   19.9230 N   0  0  0  0  0  0  0  0  0  0  0  0
  -25.4350  -11.1660   20.1650 N   0  0  0  0  0  0  0  0  0  0  0  0
  -23.5900   -9.8800   21.0330 C   0  0  0  0  0  0  0  0  0  0  0  0
  -24.1360   -8.9360   21.9310 C   0  0  0  0  0  3  0  0  0  0  0  0
  -23.4710   -7.7170   22.1820 C   0  0  0  0  0  3  0  0  0  0  0  0
  -22.2440   -7.4320   21.5350 C   0  0  0  0  0  0  0  0  0  0  0  0
  -21.7160   -8.3650   20.6250 C   0  0  0  0  0  3  0  0  0  0  0  0
  -22.3830   -9.5760   20.3730 C   0  0  0  0  0  3  0  0  0  0  0  0
  -21.5390   -6.2640   21.6980 O   0  0  0  0  0  0  0  0  0  0  0  0
  -21.5390   -5.5830   22.8900 C   0  0  0  0  0  0  0  0  0  0  0  0
  -21.0920   -6.1800   24.0880 C   0  0  0  0  0  3  0  0  0  0  0  0
  -21.0440   -5.4230   25.2770 C   0  0  0  0  0  3  0  0  0  0  0  0
  -21.4320   -4.0700   25.2660 C   0  0  0  0  0  0  0  0  0  0  0  0
  -21.8730   -3.4730   24.0720 C   0  0  0  0  0  3  0  0  0  0  0  0
  -21.9230   -4.2270   22.8860 C   0  0  0  0  0  0  0  0  0  0  0  0
  -22.3280   -3.6410   21.7340 F   0  0  0  0  0  0  0  0  0  0  0  0
  -21.3790   -3.3400   26.4050 F   0  0  0  0  0  0  0  0  0  0  0  0
  -22.5220  -12.9370   21.6320 C   0  0  0  0  0  0  0  0  0  0  0  0
  -22.0470  -12.2010   22.6310 N   0  0  0  0  0  0  0  0  0  0  0  0
  -21.9490  -13.9640   21.2700 O   0  0  0  0  0  0  0  0  0  0  0  0
  -22.5260  -11.3680   22.9390 H   0  0  0  0  0  0  0  0  0  0  0  0
  -21.1920  -12.4750   23.0930 H   0  0  0  0  0  0  0  0  0  0  0  0
  -24.8900  -14.6970   20.3380 N   0  0  0  0  0  0  0  0  0  0  0  0
  -24.1730  -15.3350   20.6660 H   0  0  0  0  0  0  0  0  0  0  0  0
  -25.6490  -15.1670   19.8610 H   0  0  0  0  0  0  0  0  0  0  0  0
  -32.7290  -13.8930   21.2100 C   0  0  0  0  0  0  0  0  0  0  0  0
  -32.5840  -12.9330   21.9740 O   0  0  0  0  0  0  0  0  0  0  0  0
  -34.0410  -14.0990   20.4460 C   0  0  0  0  0  2  0  0  0  0  0  0
  -35.0070  -12.9000   20.5300 C   0  0  0  0  0  2  0  0  0  0  0  0
  -36.2790  -13.1550   19.8290 N   0  0  0  0  0  4  0  0  0  0  0  0
  -36.1260  -13.3510   18.8570 H   0  0  0  0  0  0  0  0  0  0  0  0
  -36.8700  -12.3450   19.8920 H   0  0  0  0  0  0  0  0  0  0  0  0
  -36.7730  -13.9270   20.2430 H   0  0  0  0  0  0  0  0  0  0  0  0
  2  1  1  0
  2  5  1  0
  3  2  1  0
  4  2  1  0
  6  5  1  0
  7  6  1  0
  8  7  1  0
  9  8  1  0
 10  9  1  0
 11 10  1  0
 12 23  2  0
 13 11  1  0
 13 18  1  0
 14 22  1  0
 14 24  1  0
 15 17  1  0
 16 22  1  0
 17 18  2  0
 17 16  1  0
 19 13  2  0
 20 19  1  0
 20 15  2  0
 21 15  1  0
 21 14  1  0
 22 12  1  0
 24 26  2  0
 25 24  1  0
 27 25  1  0
 28 37  2  0
 28 33  1  0
 29 25  1  0
 29 33  1  0
 30 29  1  0
 31 32  1  0
 31 30  1  0
 32 28  1  0
 33 34  2  0
 34 35  1  0
 36 35  2  0
 37 36  1  0
 38 12  1  0
 38 39  1  0
 38 48  1  0
 39 42  1  0
 40 44  1  0
 40 39  1  0
 41 40  2  0
 44 43  1  0
 46 44  1  0
 46 47  1  0
 46 45  1  0
 48 51  1  1
 48 49  1  0
 50 48  1  0
 52 53  1  0
 52  1  1  0
 54 93  1  0
 54 53  1  0
 55 63  1  0
 56 61  1  0
 57 58  1  0
 57 56  1  0
 59 58  1  0
 59 68  1  0
 59 60  1  0
 61 55  1  0
 61 60  1  0
 62 55  2  0
 63 54  1  0
 63 64  1  0
 65 66  2  0
 66 85  1  0
 67 66  1  0
 67 70  1  0
 68 69  1  0
 68 65  1  0
 69 67  2  0
 70 71  1  0
 71 72  2  0
 73 76  1  0
 73 72  1  0
 74 73  2  0
 75 74  1  0
 75 70  2  0
 76 77  1  0
 77 78  1  0
 78 79  2  0
 80 79  1  0
 80 84  1  0
 81 80  2  0
 82 77  2  0
 82 81  1  0
 83 82  1  0
 85 86  1  0
 86 88  1  0
 86 89  1  0
 87 85  2  0
 90 65  1  0
 90 91  1  0
 92 90  1  0
 93 94  2  0
 95 96  1  0
 95 93  1  0
 97 99  1  0
 97100  1  0
 97 96  1  0
 98 97  1  0
M  ISO  4  10 101  11 101  55 100  63 100
M  END
>  <TORSDO>  (62) 
F 30

>  <SCORE>  (62) 
-7.007

>  <name>  (62) 
62

>  <ligand_id>  (62) 
62

>  <original_smiles>  (62) 
[H]c1c([H])c([H])c2c(c1[H])C([H])([H])C([H])([H])C([H])([H])C2([H])N([H])C(=O)C1([H])N(C(=O)C([H])(N([H])C(=O)C([H])(N([H])C([H])([H])[H])C([H])([H])[H])C(C([H])([H])[H])(C([H])([H])[H])C([H])([H])[H])C([H])([H])c2c([H])c(OC([H])([H])C([H])([H])C([H])([H])C([H])([H])C([H])([H])C([H])([H])[N+]([H])([H])C([H])([H])C([H])([H])C([H])([H])C([H])(C(=O)C([H])([H])C([H])([H])[N+]([H])([H])[H])N([H])C(=O)N3C([H])([H])C([H])([H])C([H])([H])C([H])(n4nc(-c5c([H])c([H])c(Oc6c([H])c([H])c(F)c([H])c6F)c([H])c5[H])c(C(=O)N([H])[H])c4N([H])[H])C3([H])[H])c([H])c([H])c2C1([H])[H]

>  <smiles>  (62) 
[H]c1c([H])c([H])c2c(c1[H])C([H])([H])C([H])([H])C([H])([H])C2([H])N([H])C(=O)C1([H])N(C(=O)C([H])(N([H])C(=O)C([H])(N([H])C([H])([H])[H])C([H])([H])[H])C(C([H])([H])[H])(C([H])([H])[H])C([H])([H])[H])C([H])([H])c2c([H])c(OC([H])([H])C([H])([H])C([H])([H])C([H])([H])C([H])([H])C([H])([H])[N+]([H])([H])C([H])([H])C([H])([H])C([H])([H])C([H])(C(=O)C([H])([H])C([H])([H])[N+]([H])([H])[H])N([H])C(=O)N3C([H])([H])C([H])([H])C([H])([H])C([H])(n4nc(-c5c([H])c([H])c(Oc6c([H])c([H])c(F)c([H])c6F)c([H])c5[H])c(C(=O)N([H])[H])c4N([H])[H])C3([H])[H])c([H])c([H])c2C1([H])[H]

$$$$
63:0:0
     RDKit          3D

 93102  0  0  1  0  0  0  0  0999 V2000
  -29.7450  -20.0600   22.4390 C   0  0  0  0  0  3  0  0  0  0  0  0
  -29.7830  -18.6730   22.1610 C   0  0  0  0  0  3  0  0  0  0  0  0
  -29.8340  -19.1220   19.7570 C   0  0  0  0  0  3  0  0  0  0  0  0
  -29.7170  -20.9660   21.3670 C   0  0  0  0  0  0  0  0  0  0  0  0
  -29.7910  -20.5230   20.0500 C   0  0  0  0  0  0  0  0  0  0  0  0
  -29.8050  -18.1720   20.8330 C   0  0  0  0  0  0  0  0  0  0  0  0
  -29.5750  -22.4380   21.4130 C   0  0  0  0  0  0  0  0  0  0  0  0
  -29.7680  -21.7330   19.1030 C   0  0  0  0  0  2  0  0  0  0  0  0
  -29.3130  -22.9570   19.9890 C   0  0  0  0  0  3  0  0  0  0  0  0
  -29.6140  -23.1560   22.4180 O   0  0  0  0  0  0  0  0  0  0  0  0
  -29.6660  -16.6290   20.6510 C   0  0  0  0  0  2  0  0  0  0  0  0
  -31.2560  -14.7320   19.9120 C   0  0  0  0  0  0  0  0  0  0  0  0
  -30.8300  -12.5050   18.9290 C   0  0  0  0  0  2  0  0  0  0  0  0
  -29.8370  -12.6340   17.7570 C   0  0  0  0  0  2  0  0  0  0  0  0
  -28.3870  -12.5240   18.2660 C   0  0  0  0  0  2  0  0  0  0  0  0
  -28.1120  -13.4140   19.5090 C   0  0  0  0  0  3  0  0  0  0  0  0
  -29.2370  -13.3110   20.5620 C   0  0  0  0  0  2  0  0  0  0  0  0
  -30.5060  -13.5880   19.8780 N   0  0  0  0  0  0  0  0  0  0  0  0
  -32.4300  -14.7320   19.5520 O   0  0  0  0  0  0  0  0  0  0  0  0
  -30.6440  -15.9400   19.7970 N   0  0  0  0  0  0  0  0  0  0  0  0
  -31.2720  -16.6020   19.3640 H   0  0  0  0  0  0  0  0  0  0  0  0
  -25.8140  -14.0480   20.4670 C   0  0  0  0  0  0  0  0  0  0  0  0
  -24.7430  -13.2960   20.8560 C   0  0  0  0  0  0  0  0  0  0  0  0
  -25.1350  -11.9320   20.6870 C   0  0  0  0  0  0  0  0  0  0  0  0
  -26.7960  -13.1490   20.0830 N   0  0  0  0  0  0  0  0  0  0  0  0
  -26.3960  -11.8640   20.2750 N   0  0  0  0  0  0  0  0  0  0  0  0
  -24.3610  -10.6920   20.8320 C   0  0  0  0  0  0  0  0  0  0  0  0
  -24.7470   -9.6820   21.7400 C   0  0  0  0  0  3  0  0  0  0  0  0
  -23.9750   -8.5090   21.8760 C   0  0  0  0  0  3  0  0  0  0  0  0
  -22.8020   -8.3360   21.1040 C   0  0  0  0  0  0  0  0  0  0  0  0
  -22.4350   -9.3340   20.1840 C   0  0  0  0  0  3  0  0  0  0  0  0
  -23.2070  -10.5000   20.0450 C   0  0  0  0  0  3  0  0  0  0  0  0
  -22.0030   -7.2190   21.1520 O   0  0  0  0  0  0  0  0  0  0  0  0
  -21.8130   -6.5200   22.3170 C   0  0  0  0  0  0  0  0  0  0  0  0
  -21.2390   -7.1200   23.4600 C   0  0  0  0  0  3  0  0  0  0  0  0
  -20.9940   -6.3470   24.6130 C   0  0  0  0  0  3  0  0  0  0  0  0
  -21.3130   -4.9760   24.6230 C   0  0  0  0  0  0  0  0  0  0  0  0
  -21.8800   -4.3760   23.4850 C   0  0  0  0  0  3  0  0  0  0  0  0
  -22.1250   -5.1460   22.3340 C   0  0  0  0  0  0  0  0  0  0  0  0
  -22.6510   -4.5580   21.2320 F   0  0  0  0  0  0  0  0  0  0  0  0
  -21.0730   -4.2330   25.7280 F   0  0  0  0  0  0  0  0  0  0  0  0
  -23.3940  -13.8100   21.2700 C   0  0  0  0  0  0  0  0  0  0  0  0
  -22.7080  -13.0970   22.1540 N   0  0  0  0  0  0  0  0  0  0  0  0
  -22.9590  -14.8800   20.8420 O   0  0  0  0  0  0  0  0  0  0  0  0
  -23.0740  -12.2320   22.5240 H   0  0  0  0  0  0  0  0  0  0  0  0
  -21.8040  -13.4200   22.4680 H   0  0  0  0  0  0  0  0  0  0  0  0
  -26.0280  -15.4220   20.3820 N   0  0  0  0  0  0  0  0  0  0  0  0
  -25.2980  -16.0930   20.5950 H   0  0  0  0  0  0  0  0  0  0  0  0
  -26.8580  -15.8530   19.9970 H   0  0  0  0  0  0  0  0  0  0  0  0
  -29.8800  -24.4090   19.7120 C   0  0  0  0  0  2  0  0  0  0  0  0
  -28.9120  -25.4020   19.0090 C   0  0  0  0  0  0  0  0  0  0  0  0
  -28.3880  -25.0680   17.9440 O   0  0  0  0  0  0  0  0  0  0  0  0
  -28.7290  -26.6480   19.6530 O   0  0  0  0  0  0  0  0  0  0  0  0
  -24.7500  -31.5450   23.0700 C   0  0  0  0  0  0  0  0  0  0  0  0
  -27.5400  -27.3910   19.6410 C   0  0  0  0  0  0  0  0  0  0  0  0
  -23.5860  -30.1980   21.3620 C   0  0  0  0  0  3  0  0  0  0  0  0
  -25.0780  -28.8390   19.8050 C   0  0  0  0  0  0  0  0  0  0  0  0
  -26.0910  -30.6810   21.1420 C   0  0  0  0  0  2  0  0  0  0  0  0
  -26.2320  -29.3580   20.4040 C   0  0  0  0  0  0  0  0  0  0  0  0
  -27.4610  -28.6450   20.3160 C   0  0  0  0  0  3  0  0  0  0  0  0
  -26.3470  -26.9070   19.0480 C   0  0  0  0  0  3  0  0  0  0  0  0
  -25.1350  -27.6160   19.1230 C   0  0  0  0  0  3  0  0  0  0  0  0
  -23.7980  -29.6340   19.9340 C   0  0  0  0  0  2  0  0  0  0  0  0
  -24.8300  -30.8200   21.9170 N   0  0  0  0  0  0  0  0  0  0  0  0
  -23.6660  -31.7230   23.6450 O   0  0  0  0  0  0  0  0  0  0  0  0
  -23.0040  -29.0820   22.2590 C   0  0  0  0  0  0  0  0  0  0  0  0
  -21.6940  -28.8180   22.1150 N   0  0  0  0  0  0  0  0  0  0  0  0
  -23.7270  -28.4570   23.0400 O   0  0  0  0  0  0  0  0  0  0  0  0
  -21.1700  -29.3740   21.4530 H   0  0  0  0  0  0  0  0  0  0  0  0
  -18.4180  -27.3440   22.5200 C   0  0  0  0  0  0  0  0  0  0  0  0
  -20.9450  -27.7820   22.8270 C   0  0  0  0  0  3  0  0  0  0  0  0
  -21.1680  -26.3930   22.1810 C   0  0  0  0  0  2  0  0  0  0  0  0
  -20.0920  -26.0010   21.1590 C   0  0  0  0  0  2  0  0  0  0  0  0
  -18.6990  -26.0390   21.7940 C   0  0  0  0  0  2  0  0  0  0  0  0
  -19.4710  -28.1660   22.9960 C   0  0  0  0  0  0  0  0  0  0  0  0
  -19.1520  -29.3770   23.6450 C   0  0  0  0  0  3  0  0  0  0  0  0
  -17.8110  -29.7700   23.8240 C   0  0  0  0  0  3  0  0  0  0  0  0
  -16.7720  -28.9430   23.3630 C   0  0  0  0  0  3  0  0  0  0  0  0
  -17.0760  -27.7330   22.7140 C   0  0  0  0  0  3  0  0  0  0  0  0
  -26.0120  -32.2020   23.7090 C   0  0  0  0  0  3  0  0  0  0  0  0
  -26.5650  -31.4040   24.9540 C   0  0  1  0  0  0  0  0  0  0  0  0
  -25.4900  -31.0910   26.0200 C   0  0  0  0  0  1  0  0  0  0  0  0
  -27.1910  -30.0630   24.5040 C   0  0  0  0  0  1  0  0  0  0  0  0
  -27.6930  -32.2120   25.6380 C   0  0  0  0  0  1  0  0  0  0  0  0
  -25.6530  -33.5760   24.0910 N   0  0  0  0  0  0  0  0  0  0  0  0
  -25.9440  -34.6650   23.3690 C   0  0  0  0  0  0  0  0  0  0  0  0
  -26.6160  -34.6240   22.3340 O   0  0  0  0  0  0  0  0  0  0  0  0
  -25.0590  -33.6800   24.9010 H   0  0  0  0  0  0  0  0  0  0  0  0
  -24.1480  -36.4050   23.0810 C   0  0  0  0  0  1  0  0  0  0  0  0
  -25.4050  -36.0180   23.8750 C   0  0  0  0  0  3  0  0  0  0  0  0
  -27.4990  -36.9600   24.7460 C   0  0  0  0  0  1  0  0  0  0  0  0
  -26.3960  -37.1120   23.7990 N   0  0  0  0  0  0  0  0  0  0  0  0
  -25.9540  -38.0100   23.9710 H   0  0  0  0  0  0  0  0  0  0  0  0
  2  1  1  0
  3  5  2  0
  3  6  1  0
  4  7  1  0
  4  1  2  0
  5  4  1  0
  6  2  2  0
  7 10  2  0
  8  9  1  0
  8  5  1  0
  9 50  1  0
  9  7  1  0
 11  6  1  0
 13 18  1  0
 14 15  1  0
 14 13  1  0
 16 15  1  0
 16 25  1  0
 16 17  1  0
 18 12  1  0
 18 17  1  0
 19 12  2  0
 20 12  1  0
 20 11  1  0
 21 20  1  0
 22 23  2  0
 23 42  1  0
 24 27  1  0
 24 23  1  0
 25 26  1  0
 25 22  1  0
 26 24  2  0
 27 28  1  0
 28 29  2  0
 30 33  1  0
 30 29  1  0
 31 30  2  0
 32 31  1  0
 32 27  2  0
 33 34  1  0
 34 39  2  0
 34 35  1  0
 35 36  2  0
 36 37  1  0
 37 41  1  0
 38 37  2  0
 39 38  1  0
 40 39  1  0
 42 43  1  0
 43 46  1  0
 43 45  1  0
 44 42  2  0
 47 22  1  0
 47 48  1  0
 49 47  1  0
 51 53  1  0
 51 50  1  0
 52 51  2  0
 54 65  2  0
 55 53  1  0
 55 60  1  0
 56 64  1  0
 56 66  1  0
 57 63  1  0
 57 59  1  0
 58 64  1  0
 59 58  1  0
 60 59  2  0
 61 62  1  0
 61 55  2  0
 62 57  2  0
 63 56  1  0
 64 54  1  0
 66 68  2  0
 67 66  1  0
 69 67  1  0
 70 79  2  0
 70 75  1  0
 71 67  1  0
 71 75  1  0
 72 71  1  0
 73 74  1  0
 73 72  1  0
 74 70  1  0
 75 76  2  0
 76 77  1  0
 78 77  2  0
 79 78  1  0
 80 54  1  0
 80 85  1  0
 80 81  1  0
 81 84  1  1
 81 82  1  0
 83 81  1  0
 85 88  1  0
 86 90  1  0
 86 85  1  0
 87 86  2  0
 90 89  1  0
 92 90  1  0
 92 93  1  0
 92 91  1  0
M  ISO  4  12 100  20 100  51 101  53 101
M  END
>  <TORSDO>  (63) 
F 19

>  <SCORE>  (63) 
-11.187

>  <name>  (63) 
63

>  <ligand_id>  (63) 
63

>  <original_smiles>  (63) 
[H]c1c([H])c([H])c2c(c1[H])C([H])([H])C([H])([H])C([H])([H])C2([H])N([H])C(=O)C1([H])N(C(=O)C([H])(N([H])C(=O)C([H])(N([H])C([H])([H])[H])C([H])([H])[H])C(C([H])([H])[H])(C([H])([H])[H])C([H])([H])[H])C([H])([H])c2c([H])c(OC(=O)C([H])([H])C3([H])C(=O)c4c([H])c([H])c(C([H])([H])N([H])C(=O)N5C([H])([H])C([H])([H])C([H])([H])C([H])(n6nc(-c7c([H])c([H])c(Oc8c([H])c([H])c(F)c([H])c8F)c([H])c7[H])c(C(=O)N([H])[H])c6N([H])[H])C5([H])[H])c([H])c4C3([H])[H])c([H])c([H])c2C1([H])[H]

>  <smiles>  (63) 
[H]c1c([H])c([H])c2c(c1[H])C([H])([H])C([H])([H])C([H])([H])C2([H])N([H])C(=O)C1([H])N(C(=O)C([H])(N([H])C(=O)C([H])(N([H])C([H])([H])[H])C([H])([H])[H])C(C([H])([H])[H])(C([H])([H])[H])C([H])([H])[H])C([H])([H])c2c([H])c(OC(=O)C([H])([H])C3([H])C(=O)c4c([H])c([H])c(C([H])([H])N([H])C(=O)N5C([H])([H])C([H])([H])C([H])([H])C([H])(n6nc(-c7c([H])c([H])c(Oc8c([H])c([H])c(F)c([H])c8F)c([H])c7[H])c(C(=O)N([H])[H])c6N([H])[H])C5([H])[H])c([H])c4C3([H])[H])c([H])c([H])c2C1([H])[H]

$$$$
64:0:0
     RDKit          3D

 94102  0  0  1  0  0  0  0  0999 V2000
  -27.3020  -20.8330   19.5250 C   0  0  0  0  0  2  0  0  0  0  0  0
  -27.7510  -19.9020   20.6460 C   0  0  0  0  0  2  0  0  0  0  0  0
  -29.4940  -21.5590   20.2540 C   0  0  0  0  0  2  0  0  0  0  0  0
  -28.1290  -22.0910   19.7750 C   0  0  0  0  0  3  0  0  0  0  0  0
  -29.2850  -20.0910   20.7410 C   0  0  1  0  0  0  0  0  0  0  0  0
  -29.7510  -19.9450   22.1370 N   0  0  0  0  0  4  0  0  0  0  0  0
  -29.2920  -20.6090   22.7350 H   0  0  0  0  0  0  0  0  0  0  0  0
  -30.7400  -20.1080   22.2030 H   0  0  0  0  0  0  0  0  0  0  0  0
  -29.5580  -19.0250   22.4970 H   0  0  0  0  0  0  0  0  0  0  0  0
  -28.1760  -23.0290   18.5580 C   0  0  0  0  0  2  0  0  0  0  0  0
  -28.4900  -24.4940   18.9100 C   0  0  0  0  0  2  0  0  0  0  0  0
  -28.3980  -25.4050   17.6680 C   0  0  0  0  0  2  0  0  0  0  0  0
  -28.3300  -26.7890   18.0080 O   0  0  0  0  0  0  0  0  0  0  0  0
  -24.7350  -30.9480   22.4860 C   0  0  0  0  0  0  0  0  0  0  0  0
  -27.1100  -27.3810   18.2650 C   0  0  0  0  0  0  0  0  0  0  0  0
  -23.3720  -29.8340   20.7470 C   0  0  0  0  0  3  0  0  0  0  0  0
  -24.6780  -28.7020   18.8710 C   0  0  0  0  0  0  0  0  0  0  0  0
  -25.8380  -30.3730   20.3280 C   0  0  0  0  0  2  0  0  0  0  0  0
  -25.8820  -29.1650   19.4160 C   0  0  0  0  0  0  0  0  0  0  0  0
  -27.0960  -28.5100   19.1140 C   0  0  0  0  0  3  0  0  0  0  0  0
  -25.8830  -26.9240   17.7250 C   0  0  0  0  0  3  0  0  0  0  0  0
  -24.6740  -27.5810   18.0230 C   0  0  0  0  0  3  0  0  0  0  0  0
  -23.4230  -29.4570   19.2410 C   0  0  0  0  0  2  0  0  0  0  0  0
  -24.6740  -30.3900   21.2430 N   0  0  0  0  0  0  0  0  0  0  0  0
  -23.7250  -31.0440   23.1960 O   0  0  0  0  0  0  0  0  0  0  0  0
  -22.8850  -28.6060   21.5460 C   0  0  0  0  0  0  0  0  0  0  0  0
  -21.5710  -28.3380   21.4880 N   0  0  0  0  0  0  0  0  0  0  0  0
  -23.6820  -27.9040   22.1770 O   0  0  0  0  0  0  0  0  0  0  0  0
  -20.9840  -28.9680   20.9580 H   0  0  0  0  0  0  0  0  0  0  0  0
  -18.3600  -26.7370   21.9060 C   0  0  0  0  0  0  0  0  0  0  0  0
  -20.8910  -27.2110   22.1260 C   0  0  0  0  0  3  0  0  0  0  0  0
  -21.1020  -25.9080   21.3200 C   0  0  0  0  0  2  0  0  0  0  0  0
  -19.9840  -25.6390   20.3080 C   0  0  0  0  0  2  0  0  0  0  0  0
  -18.6300  -25.5360   21.0160 C   0  0  0  0  0  2  0  0  0  0  0  0
  -19.4210  -27.5330   22.4120 C   0  0  0  0  0  0  0  0  0  0  0  0
  -19.1140  -28.6620   23.2030 C   0  0  0  0  0  3  0  0  0  0  0  0
  -17.7770  -28.9950   23.4930 C   0  0  0  0  0  3  0  0  0  0  0  0
  -16.7300  -28.1940   23.0010 C   0  0  0  0  0  3  0  0  0  0  0  0
  -17.0240  -27.0660   22.2150 C   0  0  0  0  0  3  0  0  0  0  0  0
  -26.0710  -31.5110   23.0630 C   0  0  0  0  0  3  0  0  0  0  0  0
  -26.8350  -30.4820   23.9840 C   0  0  1  0  0  0  0  0  0  0  0  0
  -25.9500  -29.8650   25.0940 C   0  0  0  0  0  1  0  0  0  0  0  0
  -27.4110  -29.3200   23.1410 C   0  0  0  0  0  1  0  0  0  0  0  0
  -28.0380  -31.1790   24.6610 C   0  0  0  0  0  1  0  0  0  0  0  0
  -25.7460  -32.7350   23.8080 N   0  0  0  0  0  0  0  0  0  0  0  0
  -25.9350  -33.9780   23.3460 C   0  0  0  0  0  0  0  0  0  0  0  0
  -26.4730  -34.2160   22.2620 O   0  0  0  0  0  0  0  0  0  0  0  0
  -25.2470  -32.6150   24.6780 H   0  0  0  0  0  0  0  0  0  0  0  0
  -24.1080  -35.6730   23.6890 C   0  0  0  0  0  1  0  0  0  0  0  0
  -25.4480  -35.1440   24.2280 C   0  0  0  0  0  3  0  0  0  0  0  0
  -27.6250  -35.9020   25.0710 C   0  0  0  0  0  1  0  0  0  0  0  0
  -26.4200  -36.2550   24.3240 N   0  0  0  0  0  0  0  0  0  0  0  0
  -25.9980  -37.0670   24.7680 H   0  0  0  0  0  0  0  0  0  0  0  0
  -30.0610  -19.1090   19.8070 C   0  0  0  0  0  2  0  0  0  0  0  0
  -29.8900  -17.5970   20.0940 C   0  0  0  0  0  2  0  0  0  0  0  0
  -31.0530  -16.7220   19.5850 C   0  0  0  0  0  2  0  0  0  0  0  0
  -31.4550  -14.2460   19.4610 C   0  0  0  0  0  0  0  0  0  0  0  0
  -31.1360  -11.8650   18.8990 C   0  0  0  0  0  2  0  0  0  0  0  0
  -30.1360  -11.7420   17.7300 C   0  0  0  0  0  2  0  0  0  0  0  0
  -28.6790  -11.7420   18.2400 C   0  0  0  0  0  2  0  0  0  0  0  0
  -28.3950  -12.8940   19.2420 C   0  0  0  0  0  3  0  0  0  0  0  0
  -29.4900  -12.9320   20.3320 C   0  0  0  0  0  2  0  0  0  0  0  0
  -30.7970  -13.0740   19.6610 N   0  0  0  0  0  0  0  0  0  0  0  0
  -32.5130  -14.3430   18.8350 O   0  0  0  0  0  0  0  0  0  0  0  0
  -30.7890  -15.3210   19.9040 N   0  0  0  0  0  0  0  0  0  0  0  0
  -29.9310  -15.1190   20.3950 H   0  0  0  0  0  0  0  0  0  0  0  0
  -26.1440  -13.7820   20.1290 C   0  0  0  0  0  0  0  0  0  0  0  0
  -25.0240  -13.1360   20.5820 C   0  0  0  0  0  0  0  0  0  0  0  0
  -25.3190  -11.7400   20.5150 C   0  0  0  0  0  0  0  0  0  0  0  0
  -27.0570  -12.7850   19.8190 N   0  0  0  0  0  0  0  0  0  0  0  0
  -26.5670  -11.5530   20.1050 N   0  0  0  0  0  0  0  0  0  0  0  0
  -24.4690  -10.5700   20.7620 C   0  0  0  0  0  0  0  0  0  0  0  0
  -24.8050   -9.6060   21.7400 C   0  0  0  0  0  3  0  0  0  0  0  0
  -23.9620   -8.4980   21.9720 C   0  0  0  0  0  3  0  0  0  0  0  0
  -22.7690   -8.3450   21.2270 C   0  0  0  0  0  0  0  0  0  0  0  0
  -22.4500   -9.2950   20.2400 C   0  0  0  0  0  3  0  0  0  0  0  0
  -23.2930  -10.3950   20.0050 C   0  0  0  0  0  3  0  0  0  0  0  0
  -21.9030   -7.2870   21.3660 O   0  0  0  0  0  0  0  0  0  0  0  0
  -21.7090   -6.6720   22.5770 C   0  0  0  0  0  0  0  0  0  0  0  0
  -21.2600   -7.3830   23.7110 C   0  0  0  0  0  3  0  0  0  0  0  0
  -21.0050   -6.6990   24.9160 C   0  0  0  0  0  3  0  0  0  0  0  0
  -21.1890   -5.3050   24.9880 C   0  0  0  0  0  0  0  0  0  0  0  0
  -21.6290   -4.5940   23.8580 C   0  0  0  0  0  3  0  0  0  0  0  0
  -21.8850   -5.2760   22.6550 C   0  0  0  0  0  0  0  0  0  0  0  0
  -22.2890   -4.5830   21.5630 F   0  0  0  0  0  0  0  0  0  0  0  0
  -20.9370   -4.6450   26.1430 F   0  0  0  0  0  0  0  0  0  0  0  0
  -23.7170  -13.7710   20.9640 C   0  0  0  0  0  0  0  0  0  0  0  0
  -22.9980  -13.1700   21.9080 N   0  0  0  0  0  0  0  0  0  0  0  0
  -23.3480  -14.8310   20.4620 O   0  0  0  0  0  0  0  0  0  0  0  0
  -23.3090  -12.3110   22.3330 H   0  0  0  0  0  0  0  0  0  0  0  0
  -22.1220  -13.5770   22.2070 H   0  0  0  0  0  0  0  0  0  0  0  0
  -26.4570  -15.1240   19.9360 N   0  0  0  0  0  0  0  0  0  0  0  0
  -25.7860  -15.8660   20.0970 H   0  0  0  0  0  0  0  0  0  0  0  0
  -27.3240  -15.4530   19.5280 H   0  0  0  0  0  0  0  0  0  0  0  0
  1  4  1  0
  1  2  1  0
  2  5  1  0
  3  5  1  0
  4 10  1  0
  4  3  1  0
  5 54  1  6
  5  6  1  0
  6  8  1  0
  6  9  1  0
  6  7  1  0
 10 11  1  0
 12 13  1  0
 12 11  1  0
 13 15  1  0
 14 25  2  0
 15 20  1  0
 16 24  1  0
 16 26  1  0
 17 23  1  0
 17 19  1  0
 18 24  1  0
 19 18  1  0
 20 19  2  0
 21 22  1  0
 21 15  2  0
 22 17  2  0
 23 16  1  0
 24 14  1  0
 26 28  2  0
 27 26  1  0
 29 27  1  0
 30 39  2  0
 30 35  1  0
 31 27  1  0
 31 35  1  0
 32 31  1  0
 33 34  1  0
 33 32  1  0
 34 30  1  0
 35 36  2  0
 36 37  1  0
 38 37  2  0
 39 38  1  0
 40 14  1  0
 40 45  1  0
 40 41  1  0
 41 44  1  1
 41 42  1  0
 43 41  1  0
 45 48  1  0
 46 45  1  0
 46 50  1  0
 47 46  2  0
 50 49  1  0
 50 52  1  0
 52 53  1  0
 52 51  1  0
 54 55  1  0
 56 65  1  0
 56 55  1  0
 57 63  1  0
 57 65  1  0
 58 63  1  0
 59 60  1  0
 59 58  1  0
 61 60  1  0
 61 70  1  0
 61 62  1  0
 63 62  1  0
 64 57  2  0
 65 66  1  0
 67 68  2  0
 68 87  1  0
 69 68  1  0
 69 72  1  0
 70 71  1  0
 70 67  1  0
 71 69  2  0
 72 73  1  0
 73 74  2  0
 75 78  1  0
 75 74  1  0
 76 75  2  0
 77 76  1  0
 77 72  2  0
 78 79  1  0
 79 84  2  0
 79 80  1  0
 80 81  2  0
 81 82  1  0
 82 86  1  0
 83 82  2  0
 84 83  1  0
 85 84  1  0
 87 88  1  0
 88 91  1  0
 88 90  1  0
 89 87  2  0
 92 93  1  0
 92 67  1  0
 94 92  1  0
M  ISO  4  12 101  13 101  57 100  65 100
M  END
>  <TORSDO>  (64) 
F 23

>  <SCORE>  (64) 
-8.631

>  <name>  (64) 
64

>  <ligand_id>  (64) 
64

>  <original_smiles>  (64) 
[H]c1c([H])c([H])c2c(c1[H])C([H])([H])C([H])([H])C([H])([H])C2([H])N([H])C(=O)C1([H])N(C(=O)C([H])(N([H])C(=O)C([H])(N([H])C([H])([H])[H])C([H])([H])[H])C(C([H])([H])[H])(C([H])([H])[H])C([H])([H])[H])C([H])([H])c2c([H])c(OC([H])([H])C([H])([H])C([H])([H])C3([H])C([H])([H])C([H])([H])C(C([H])([H])C([H])([H])C([H])([H])N([H])C(=O)N4C([H])([H])C([H])([H])C([H])([H])C([H])(n5nc(-c6c([H])c([H])c(Oc7c([H])c([H])c(F)c([H])c7F)c([H])c6[H])c(C(=O)N([H])[H])c5N([H])[H])C4([H])[H])([N+]([H])([H])[H])C3([H])[H])c([H])c([H])c2C1([H])[H]

>  <smiles>  (64) 
[H]c1c([H])c([H])c2c(c1[H])C([H])([H])C([H])([H])C([H])([H])C2([H])N([H])C(=O)C1([H])N(C(=O)C([H])(N([H])C(=O)C([H])(N([H])C([H])([H])[H])C([H])([H])[H])C(C([H])([H])[H])(C([H])([H])[H])C([H])([H])[H])C([H])([H])c2c([H])c(OC([H])([H])C([H])([H])C([H])([H])C3([H])C([H])([H])C([H])([H])C(C([H])([H])C([H])([H])C([H])([H])N([H])C(=O)N4C([H])([H])C([H])([H])C([H])([H])C([H])(n5nc(-c6c([H])c([H])c(Oc7c([H])c([H])c(F)c([H])c7F)c([H])c6[H])c(C(=O)N([H])[H])c5N([H])[H])C4([H])[H])([N+]([H])([H])[H])C3([H])[H])c([H])c([H])c2C1([H])[H]

$$$$
65:0:0
     RDKit          3D

 97105  0  0  1  0  0  0  0  0999 V2000
  -29.3460  -22.4500   23.7630 C   0  0  0  0  0  2  0  0  0  0  0  0
  -29.3250  -23.4130   22.5590 C   0  0  0  0  0  2  0  0  0  0  0  0
  -30.0770  -21.1200   23.4850 C   0  0  0  0  0  2  0  0  0  0  0  0
  -31.0450  -22.0420   21.2870 C   0  0  0  0  0  2  0  0  0  0  0  0
  -29.6440  -22.6940   21.2330 C   0  0  0  0  0  3  0  0  0  0  0  0
  -31.3500  -21.3130   22.6300 C   0  0  0  0  0  3  0  0  0  0  0  0
  -29.4570  -23.5560   19.9710 C   0  0  0  0  0  0  0  0  0  0  0  0
  -29.0650  -23.0370   18.9230 O   0  0  0  0  0  0  0  0  0  0  0  0
  -29.7770  -25.0530   20.0130 C   0  0  0  0  0  2  0  0  0  0  0  0
  -28.5310  -25.9040   20.3110 C   0  0  0  0  0  2  0  0  0  0  0  0
  -28.4960  -27.0820   19.5060 O   0  0  0  0  0  0  0  0  0  0  0  0
  -24.6830  -31.6910   23.3220 C   0  0  0  0  0  0  0  0  0  0  0  0
  -27.3130  -27.7650   19.6300 C   0  0  0  0  0  0  0  0  0  0  0  0
  -23.4400  -30.4470   21.5810 C   0  0  0  0  0  3  0  0  0  0  0  0
  -24.8710  -29.1430   19.9210 C   0  0  0  0  0  0  0  0  0  0  0  0
  -25.9370  -30.9270   21.3120 C   0  0  0  0  0  2  0  0  0  0  0  0
  -26.0370  -29.6460   20.5150 C   0  0  0  0  0  0  0  0  0  0  0  0
  -27.2620  -28.9640   20.3700 C   0  0  0  0  0  3  0  0  0  0  0  0
  -26.1370  -27.2690   19.0300 C   0  0  0  0  0  3  0  0  0  0  0  0
  -24.9140  -27.9500   19.1770 C   0  0  0  0  0  3  0  0  0  0  0  0
  -23.6040  -29.9400   20.1220 C   0  0  0  0  0  2  0  0  0  0  0  0
  -24.7070  -31.0290   22.1310 N   0  0  0  0  0  0  0  0  0  0  0  0
  -23.6220  -31.8600   23.9390 O   0  0  0  0  0  0  0  0  0  0  0  0
  -22.8700  -29.2970   22.4420 C   0  0  0  0  0  0  0  0  0  0  0  0
  -21.5640  -29.0260   22.2880 N   0  0  0  0  0  0  0  0  0  0  0  0
  -23.6000  -28.6560   23.2040 O   0  0  0  0  0  0  0  0  0  0  0  0
  -21.0340  -29.6010   21.6480 H   0  0  0  0  0  0  0  0  0  0  0  0
  -18.3100  -27.4850   22.5760 C   0  0  0  0  0  0  0  0  0  0  0  0
  -20.8190  -27.9680   22.9680 C   0  0  0  0  0  3  0  0  0  0  0  0
  -21.0840  -26.5950   22.3080 C   0  0  0  0  0  2  0  0  0  0  0  0
  -20.0540  -26.2350   21.2330 C   0  0  0  0  0  2  0  0  0  0  0  0
  -18.6430  -26.2050   21.8270 C   0  0  0  0  0  2  0  0  0  0  0  0
  -19.3330  -28.3190   23.0980 C   0  0  0  0  0  0  0  0  0  0  0  0
  -18.9720  -29.5170   23.7540 C   0  0  0  0  0  3  0  0  0  0  0  0
  -17.6200  -29.8790   23.8980 C   0  0  0  0  0  3  0  0  0  0  0  0
  -16.6110  -29.0400   23.3940 C   0  0  0  0  0  3  0  0  0  0  0  0
  -16.9560  -27.8460   22.7370 C   0  0  0  0  0  3  0  0  0  0  0  0
  -25.9800  -32.2900   23.9510 C   0  0  0  0  0  3  0  0  0  0  0  0
  -26.4840  -31.4900   25.2160 C   0  0  1  0  0  0  0  0  0  0  0  0
  -25.3790  -31.2240   26.2640 C   0  0  0  0  0  1  0  0  0  0  0  0
  -27.0790  -30.1250   24.7970 C   0  0  0  0  0  1  0  0  0  0  0  0
  -27.6240  -32.2720   25.9110 C   0  0  0  0  0  1  0  0  0  0  0  0
  -25.6970  -33.6890   24.2990 N   0  0  0  0  0  0  0  0  0  0  0  0
  -26.0710  -34.7440   23.5620 C   0  0  0  0  0  0  0  0  0  0  0  0
  -26.7610  -34.6410   22.5450 O   0  0  0  0  0  0  0  0  0  0  0  0
  -25.0930  -33.8450   25.0920 H   0  0  0  0  0  0  0  0  0  0  0  0
  -24.3900  -36.5780   23.1980 C   0  0  0  0  0  1  0  0  0  0  0  0
  -25.6040  -36.1350   24.0310 C   0  0  0  0  0  3  0  0  0  0  0  0
  -27.7320  -36.9640   24.9280 C   0  0  0  0  0  1  0  0  0  0  0  0
  -26.6610  -37.1670   23.9580 N   0  0  0  0  0  0  0  0  0  0  0  0
  -26.2700  -38.0930   24.1060 H   0  0  0  0  0  0  0  0  0  0  0  0
  -32.1610  -20.0030   22.4070 C   0  0  0  0  0  3  0  0  0  0  0  0
  -32.7240  -19.4870   23.6690 N   0  0  0  0  0  4  0  0  0  0  0  0
  -32.0000  -19.1870   24.2980 H   0  0  0  0  0  0  0  0  0  0  0  0
  -33.2680  -20.1960   24.1280 H   0  0  0  0  0  0  0  0  0  0  0  0
  -33.3310  -18.7060   23.4910 H   0  0  0  0  0  0  0  0  0  0  0  0
  -31.3610  -18.9030   21.6560 C   0  0  0  0  0  2  0  0  0  0  0  0
  -32.2310  -18.0270   20.7340 C   0  0  0  0  0  2  0  0  0  0  0  0
  -31.4050  -17.1100   19.8120 C   0  0  0  0  0  2  0  0  0  0  0  0
  -31.8350  -14.6830   20.0020 C   0  0  0  0  0  0  0  0  0  0  0  0
  -31.4730  -12.3720   19.2530 C   0  0  0  0  0  2  0  0  0  0  0  0
  -30.5100  -12.3990   18.0480 C   0  0  0  0  0  2  0  0  0  0  0  0
  -29.0430  -12.3740   18.5200 C   0  0  0  0  0  2  0  0  0  0  0  0
  -28.7500  -13.4170   19.6330 C   0  0  0  0  0  3  0  0  0  0  0  0
  -29.8250  -13.3550   20.7430 C   0  0  0  0  0  2  0  0  0  0  0  0
  -31.1470  -13.5190   20.1110 N   0  0  0  0  0  0  0  0  0  0  0  0
  -32.9320  -14.7740   19.4430 O   0  0  0  0  0  0  0  0  0  0  0  0
  -31.1540  -15.7790   20.3670 N   0  0  0  0  0  0  0  0  0  0  0  0
  -30.2650  -15.6250   20.8180 H   0  0  0  0  0  0  0  0  0  0  0  0
  -26.4790  -14.2210   20.5410 C   0  0  0  0  0  0  0  0  0  0  0  0
  -25.3540  -13.5400   20.9210 C   0  0  0  0  0  0  0  0  0  0  0  0
  -25.6570  -12.1540   20.7570 C   0  0  0  0  0  0  0  0  0  0  0  0
  -27.4040  -13.2540   20.1750 N   0  0  0  0  0  0  0  0  0  0  0  0
  -26.9130  -12.0010   20.3590 N   0  0  0  0  0  0  0  0  0  0  0  0
  -24.8060  -10.9650   20.9020 C   0  0  0  0  0  0  0  0  0  0  0  0
  -25.0990   -9.9590   21.8490 C   0  0  0  0  0  3  0  0  0  0  0  0
  -24.2570   -8.8350   21.9810 C   0  0  0  0  0  3  0  0  0  0  0  0
  -23.1080   -8.7090   21.1640 C   0  0  0  0  0  0  0  0  0  0  0  0
  -22.8340   -9.7020   20.2070 C   0  0  0  0  0  3  0  0  0  0  0  0
  -23.6750  -10.8180   20.0740 C   0  0  0  0  0  3  0  0  0  0  0  0
  -22.2470   -7.6390   21.2050 O   0  0  0  0  0  0  0  0  0  0  0  0
  -21.9340   -7.0110   22.3840 C   0  0  0  0  0  0  0  0  0  0  0  0
  -21.3160   -7.6950   23.4520 C   0  0  0  0  0  3  0  0  0  0  0  0
  -20.9490   -6.9950   24.6190 C   0  0  0  0  0  3  0  0  0  0  0  0
  -21.1890   -5.6110   24.7150 C   0  0  0  0  0  0  0  0  0  0  0  0
  -21.8000   -4.9270   23.6500 C   0  0  0  0  0  3  0  0  0  0  0  0
  -22.1680   -5.6240   22.4860 C   0  0  0  0  0  0  0  0  0  0  0  0
  -22.7360   -4.9550   21.4540 F   0  0  0  0  0  0  0  0  0  0  0  0
  -20.8300   -4.9370   25.8330 F   0  0  0  0  0  0  0  0  0  0  0  0
  -24.0380  -14.1400   21.3260 C   0  0  0  0  0  0  0  0  0  0  0  0
  -23.3030  -13.4700   22.2060 N   0  0  0  0  0  0  0  0  0  0  0  0
  -23.6760  -15.2360   20.8990 O   0  0  0  0  0  0  0  0  0  0  0  0
  -23.6090  -12.5800   22.5730 H   0  0  0  0  0  0  0  0  0  0  0  0
  -22.4220  -13.8510   22.5190 H   0  0  0  0  0  0  0  0  0  0  0  0
  -26.7870  -15.5760   20.4570 N   0  0  0  0  0  0  0  0  0  0  0  0
  -26.1070  -16.2980   20.6700 H   0  0  0  0  0  0  0  0  0  0  0  0
  -27.6620  -15.9460   20.1100 H   0  0  0  0  0  0  0  0  0  0  0  0
  2  1  1  0
  3  1  1  0
  4  6  1  0
  5  7  1  0
  5  4  1  0
  5  2  1  0
  6 52  1  0
  6  3  1  0
  7  9  1  0
  8  7  2  0
  9 10  1  0
 11 13  1  0
 11 10  1  0
 12 23  2  0
 13 18  1  0
 14 22  1  0
 14 24  1  0
 15 21  1  0
 15 17  1  0
 16 22  1  0
 17 16  1  0
 18 17  2  0
 19 20  1  0
 19 13  2  0
 20 15  2  0
 21 14  1  0
 22 12  1  0
 24 26  2  0
 25 24  1  0
 27 25  1  0
 28 37  2  0
 28 33  1  0
 29 25  1  0
 29 33  1  0
 30 29  1  0
 31 32  1  0
 31 30  1  0
 32 28  1  0
 33 34  2  0
 34 35  1  0
 36 35  2  0
 37 36  1  0
 38 12  1  0
 38 43  1  0
 38 39  1  0
 39 42  1  1
 39 40  1  0
 41 39  1  0
 43 46  1  0
 44 48  1  0
 44 43  1  0
 45 44  2  0
 48 47  1  0
 50 48  1  0
 50 51  1  0
 50 49  1  0
 52 57  1  0
 52 53  1  0
 53 55  1  0
 53 54  1  0
 56 53  1  0
 58 57  1  0
 59 68  1  0
 59 58  1  0
 60 66  1  0
 60 68  1  0
 61 66  1  0
 62 63  1  0
 62 61  1  0
 64 63  1  0
 64 73  1  0
 64 65  1  0
 66 65  1  0
 67 60  2  0
 68 69  1  0
 70 71  2  0
 71 90  1  0
 72 75  1  0
 72 71  1  0
 73 74  1  0
 73 70  1  0
 74 72  2  0
 75 76  1  0
 76 77  2  0
 78 81  1  0
 78 77  1  0
 79 78  2  0
 80 79  1  0
 80 75  2  0
 81 82  1  0
 82 87  2  0
 82 83  1  0
 83 84  2  0
 84 85  1  0
 85 89  1  0
 86 85  2  0
 87 86  1  0
 88 87  1  0
 90 91  1  0
 91 94  1  0
 91 93  1  0
 92 90  2  0
 95 70  1  0
 95 96  1  0
 97 95  1  0
M  ISO  4  10 101  11 101  60 100  68 100
M  END
>  <TORSDO>  (65) 
F 24

>  <SCORE>  (65) 
-9.803

>  <name>  (65) 
65

>  <ligand_id>  (65) 
65

>  <original_smiles>  (65) 
[H]c1c([H])c([H])c2c(c1[H])C([H])([H])C([H])([H])C([H])([H])C2([H])N([H])C(=O)C1([H])N(C(=O)C([H])(N([H])C(=O)C([H])(N([H])C([H])([H])[H])C([H])([H])[H])C(C([H])([H])[H])(C([H])([H])[H])C([H])([H])[H])C([H])([H])c2c([H])c(OC([H])([H])C([H])([H])C(=O)C3([H])C([H])([H])C([H])([H])C([H])([H])C([H])(C([H])(C([H])([H])C([H])([H])C([H])([H])N([H])C(=O)N4C([H])([H])C([H])([H])C([H])([H])C([H])(n5nc(-c6c([H])c([H])c(Oc7c([H])c([H])c(F)c([H])c7F)c([H])c6[H])c(C(=O)N([H])[H])c5N([H])[H])C4([H])[H])[N+]([H])([H])[H])C3([H])[H])c([H])c([H])c2C1([H])[H]

>  <smiles>  (65) 
[H]c1c([H])c([H])c2c(c1[H])C([H])([H])C([H])([H])C([H])([H])C2([H])N([H])C(=O)C1([H])N(C(=O)C([H])(N([H])C(=O)C([H])(N([H])C([H])([H])[H])C([H])([H])[H])C(C([H])([H])[H])(C([H])([H])[H])C([H])([H])[H])C([H])([H])c2c([H])c(OC([H])([H])C([H])([H])C(=O)C3([H])C([H])([H])C([H])([H])C([H])([H])C([H])(C([H])(C([H])([H])C([H])([H])C([H])([H])N([H])C(=O)N4C([H])([H])C([H])([H])C([H])([H])C([H])(n5nc(-c6c([H])c([H])c(Oc7c([H])c([H])c(F)c([H])c7F)c([H])c6[H])c(C(=O)N([H])[H])c5N([H])[H])C4([H])[H])[N+]([H])([H])[H])C3([H])[H])c([H])c([H])c2C1([H])[H]

$$$$
66:0:0
     RDKit          3D

 93102  0  0  1  0  0  0  0  0999 V2000
  -27.8660  -19.5230   19.5040 C   0  0  0  0  0  3  0  0  0  0  0  0
  -28.9190  -18.8350   18.9240 C   0  0  0  0  0  3  0  0  0  0  0  0
  -27.5270  -20.7840   19.0470 C   0  0  0  0  0  0  0  0  0  0  0  0
  -28.2120  -21.3500   17.9440 C   0  0  0  0  0  0  0  0  0  0  0  0
  -29.7220  -19.3140   17.8590 C   0  0  0  0  0  0  0  0  0  0  0  0
  -29.3130  -20.6860   17.2670 C   0  0  0  0  0  0  0  0  0  0  0  0
  -26.4270  -21.5050   19.8100 C   0  0  0  0  0  2  0  0  0  0  0  0
  -27.7510  -22.7480   17.5180 C   0  0  0  0  0  2  0  0  0  0  0  0
  -26.6080  -23.0160   19.7790 C   0  0  0  0  0  2  0  0  0  0  0  0
  -26.6500  -23.4560   18.3270 C   0  0  0  0  0  2  0  0  0  0  0  0
  -29.9640  -21.6520   16.0780 C   0  0  0  0  0  2  0  0  0  0  0  0
  -29.9230  -23.3720   15.8250 C   0  0  0  0  0  3  0  0  0  0  0  0
  -29.8390  -24.7160   16.8840 C   0  0  0  0  0  3  0  0  0  0  0  0
  -29.4760  -26.2170   16.6090 O   0  0  0  0  0  0  0  0  0  0  0  0
  -25.6230  -28.3240   22.5770 C   0  0  0  0  0  0  0  0  0  0  0  0
  -28.3740  -26.9110   17.2360 C   0  0  0  0  0  0  0  0  0  0  0  0
  -24.4820  -28.3810   20.3930 C   0  0  0  0  0  3  0  0  0  0  0  0
  -25.9920  -28.1890   18.3180 C   0  0  0  0  0  0  0  0  0  0  0  0
  -27.0290  -28.7260   20.5180 C   0  0  0  0  0  2  0  0  0  0  0  0
  -27.1520  -28.1340   19.1020 C   0  0  0  0  0  0  0  0  0  0  0  0
  -28.3450  -27.5240   18.5550 C   0  0  0  0  0  3  0  0  0  0  0  0
  -27.1830  -27.0580   16.4960 C   0  0  0  0  0  3  0  0  0  0  0  0
  -26.0190  -27.6730   17.0130 C   0  0  0  0  0  3  0  0  0  0  0  0
  -24.7390  -28.8070   18.9230 C   0  0  0  0  0  2  0  0  0  0  0  0
  -25.7300  -28.4570   21.2190 N   0  0  0  0  0  0  0  0  0  0  0  0
  -24.5230  -28.1630   23.1290 O   0  0  0  0  0  0  0  0  0  0  0  0
  -23.8210  -26.9800   20.4100 C   0  0  0  0  0  0  0  0  0  0  0  0
  -22.5780  -26.8800   19.9070 N   0  0  0  0  0  0  0  0  0  0  0  0
  -24.4370  -26.0050   20.8490 O   0  0  0  0  0  0  0  0  0  0  0  0
  -22.1320  -27.7230   19.5730 H   0  0  0  0  0  0  0  0  0  0  0  0
  -19.4960  -25.4790   18.6190 C   0  0  0  0  0  0  0  0  0  0  0  0
  -21.8020  -25.6440   19.7790 C   0  0  0  0  0  3  0  0  0  0  0  0
  -22.3310  -24.7730   18.6160 C   0  0  0  0  0  2  0  0  0  0  0  0
  -21.6010  -25.0260   17.2930 C   0  0  0  0  0  2  0  0  0  0  0  0
  -20.1050  -24.7380   17.4410 C   0  0  0  0  0  2  0  0  0  0  0  0
  -20.2950  -25.9180   19.7100 C   0  0  0  0  0  0  0  0  0  0  0  0
  -19.6830  -26.6320   20.7630 C   0  0  0  0  0  3  0  0  0  0  0  0
  -18.3020  -26.9060   20.7400 C   0  0  0  0  0  3  0  0  0  0  0  0
  -17.5150  -26.4580   19.6660 C   0  0  0  0  0  3  0  0  0  0  0  0
  -18.1100  -25.7420   18.6130 C   0  0  0  0  0  3  0  0  0  0  0  0
  -26.8750  -28.3900   23.5040 C   0  0  0  0  0  3  0  0  0  0  0  0
  -27.4600  -26.9670   23.8560 C   0  0  1  0  0  0  0  0  0  0  0  0
  -26.4070  -25.9780   24.4090 C   0  0  0  0  0  1  0  0  0  0  0  0
  -28.1070  -26.3140   22.6120 C   0  0  0  0  0  1  0  0  0  0  0  0
  -28.5830  -27.1080   24.9110 C   0  0  0  0  0  1  0  0  0  0  0  0
  -26.4870  -29.1010   24.7340 N   0  0  0  0  0  0  0  0  0  0  0  0
  -26.7670  -30.3840   24.9960 C   0  0  0  0  0  0  0  0  0  0  0  0
  -27.4470  -31.0850   24.2420 O   0  0  0  0  0  0  0  0  0  0  0  0
  -25.8790  -28.6040   25.3690 H   0  0  0  0  0  0  0  0  0  0  0  0
  -24.9440  -31.8030   25.9950 C   0  0  0  0  0  1  0  0  0  0  0  0
  -26.2090  -30.9850   26.3010 C   0  0  0  0  0  3  0  0  0  0  0  0
  -28.2860  -31.0740   27.6110 C   0  0  0  0  0  1  0  0  0  0  0  0
  -27.1830  -31.8320   27.0250 N   0  0  0  0  0  0  0  0  0  0  0  0
  -26.7250  -32.3530   27.7690 H   0  0  0  0  0  0  0  0  0  0  0  0
  -30.9040  -18.1620   17.6480 C   0  0  0  0  0  2  0  0  0  0  0  0
  -31.6760  -15.5860   18.6070 C   0  0  0  0  0  0  0  0  0  0  0  0
  -31.6070  -13.0410   18.6610 C   0  0  0  0  0  2  0  0  0  0  0  0
  -30.6190  -12.5050   17.5980 C   0  0  0  0  0  2  0  0  0  0  0  0
  -29.1850  -12.4600   18.1600 C   0  0  0  0  0  2  0  0  0  0  0  0
  -28.8040  -13.7640   18.9070 C   0  0  0  0  0  3  0  0  0  0  0  0
  -29.9090  -14.2230   19.8820 C   0  0  0  0  0  2  0  0  0  0  0  0
  -31.1350  -14.3910   19.0900 N   0  0  0  0  0  0  0  0  0  0  0  0
  -32.8550  -15.5540   18.2360 O   0  0  0  0  0  0  0  0  0  0  0  0
  -30.8390  -16.7210   18.3680 N   0  0  0  0  0  0  0  0  0  0  0  0
  -29.9140  -16.5320   18.7170 H   0  0  0  0  0  0  0  0  0  0  0  0
  -26.6700  -14.6980   19.9630 C   0  0  0  0  0  0  0  0  0  0  0  0
  -25.5330  -14.1010   20.4320 C   0  0  0  0  0  0  0  0  0  0  0  0
  -25.7330  -12.6960   20.2730 C   0  0  0  0  0  0  0  0  0  0  0  0
  -27.5000  -13.6700   19.5530 N   0  0  0  0  0  0  0  0  0  0  0  0
  -26.9510  -12.4520   19.8000 N   0  0  0  0  0  0  0  0  0  0  0  0
  -24.8080  -11.5740   20.4840 C   0  0  0  0  0  0  0  0  0  0  0  0
  -25.1330  -10.5020   21.3450 C   0  0  0  0  0  3  0  0  0  0  0  0
  -24.2190   -9.4470   21.5490 C   0  0  0  0  0  3  0  0  0  0  0  0
  -22.9640   -9.4570   20.8930 C   0  0  0  0  0  0  0  0  0  0  0  0
  -22.6560  -10.5150   20.0190 C   0  0  0  0  0  3  0  0  0  0  0  0
  -23.5700  -11.5620   19.8130 C   0  0  0  0  0  3  0  0  0  0  0  0
  -22.0250   -8.4610   21.0100 O   0  0  0  0  0  0  0  0  0  0  0  0
  -21.9310   -7.6900   22.1410 C   0  0  0  0  0  0  0  0  0  0  0  0
  -21.6560   -8.2540   23.4060 C   0  0  0  0  0  3  0  0  0  0  0  0
  -21.4990   -7.4180   24.5300 C   0  0  0  0  0  3  0  0  0  0  0  0
  -21.6060   -6.0210   24.3900 C   0  0  0  0  0  0  0  0  0  0  0  0
  -21.8750   -5.4580   23.1300 C   0  0  0  0  0  3  0  0  0  0  0  0
  -22.0330   -6.2910   22.0080 C   0  0  0  0  0  0  0  0  0  0  0  0
  -22.2710   -5.7430   20.7920 F   0  0  0  0  0  0  0  0  0  0  0  0
  -21.4490   -5.2180   25.4680 F   0  0  0  0  0  0  0  0  0  0  0  0
  -24.2900  -14.8000   20.9000 C   0  0  0  0  0  0  0  0  0  0  0  0
  -23.5510  -14.1870   21.8180 N   0  0  0  0  0  0  0  0  0  0  0  0
  -23.9940  -15.9200   20.4870 O   0  0  0  0  0  0  0  0  0  0  0  0
  -23.8070  -13.2780   22.1730 H   0  0  0  0  0  0  0  0  0  0  0  0
  -22.7180  -14.6360   22.1720 H   0  0  0  0  0  0  0  0  0  0  0  0
  -27.0500  -16.0260   19.8210 N   0  0  0  0  0  0  0  0  0  0  0  0
  -26.3880  -16.7730   20.0010 H   0  0  0  0  0  0  0  0  0  0  0  0
  -27.8420  -16.3300   19.2710 H   0  0  0  0  0  0  0  0  0  0  0  0
  2  1  2  0
  3  1  1  0
  3  7  1  0
  4  3  2  0
  5  2  1  0
  6  5  2  0
  6  4  1  0
  8  4  1  0
  8 10  1  0
  9  7  1  0
 10  9  1  0
 11  6  1  0
 12 11  1  0
 12 13  2  0
 14 13  1  0
 14 16  1  0
 15 26  2  0
 16 21  1  0
 17 27  1  0
 17 25  1  0
 18 24  1  0
 18 20  1  0
 19 25  1  0
 20 19  1  0
 21 20  2  0
 22 23  1  0
 22 16  2  0
 23 18  2  0
 24 17  1  0
 25 15  1  0
 27 29  2  0
 28 27  1  0
 30 28  1  0
 31 36  1  0
 32 28  1  0
 33 32  1  0
 34 35  1  0
 34 33  1  0
 35 31  1  0
 36 32  1  0
 36 37  2  0
 38 37  1  0
 39 38  2  0
 40 31  2  0
 40 39  1  0
 41 15  1  0
 41 42  1  0
 41 46  1  0
 42 43  1  1
 42 45  1  0
 44 42  1  0
 46 47  1  0
 46 49  1  0
 47 51  1  0
 48 47  2  0
 51 50  1  0
 51 53  1  0
 53 52  1  0
 53 54  1  0
 55  5  1  0
 55 64  1  0
 56 62  1  0
 57 62  1  0
 58 59  1  0
 58 57  1  0
 60 59  1  0
 60 69  1  0
 60 61  1  0
 62 61  1  0
 63 56  2  0
 64 56  1  0
 64 65  1  0
 66 67  2  0
 67 86  1  0
 68 67  1  0
 68 71  1  0
 69 70  1  0
 69 66  1  0
 70 68  2  0
 71 72  1  0
 72 73  2  0
 74 77  1  0
 74 73  1  0
 75 74  2  0
 76 75  1  0
 76 71  2  0
 77 78  1  0
 78 79  1  0
 79 80  2  0
 81 80  1  0
 81 85  1  0
 82 81  2  0
 83 78  2  0
 83 82  1  0
 84 83  1  0
 86 87  1  0
 87 90  1  0
 87 89  1  0
 88 86  2  0
 91 66  1  0
 91 92  1  0
 93 91  1  0
M  ISO  4  13 101  14 101  56 100  64 100
M  END
>  <TORSDO>  (66) 
F 20

>  <SCORE>  (66) 
-8.543

>  <name>  (66) 
66

>  <ligand_id>  (66) 
66

>  <original_smiles>  (66) 
[H]c1c([H])c([H])c2c(c1[H])C([H])([H])C([H])([H])C([H])([H])C2([H])N([H])C(=O)C1([H])N(C(=O)C([H])(N([H])C(=O)C([H])(N([H])C([H])([H])[H])C([H])([H])[H])C(C([H])([H])[H])(C([H])([H])[H])C([H])([H])[H])C([H])([H])c2c([H])c(OC([H])([H])C([H])([H])C([H])([H])c3c(C([H])([H])N([H])C(=O)N4C([H])([H])C([H])([H])C([H])([H])C([H])(n5nc(-c6c([H])c([H])c(Oc7c([H])c([H])c(F)c([H])c7F)c([H])c6[H])c(C(=O)N([H])[H])c5N([H])[H])C4([H])[H])c([H])c([H])c4c3C([H])([H])C([H])([H])C([H])([H])C4([H])[H])c([H])c([H])c2C1([H])[H]

>  <smiles>  (66) 
[H]c1c([H])c([H])c2c(c1[H])C([H])([H])C([H])([H])C([H])([H])C2([H])N([H])C(=O)C1([H])N(C(=O)C([H])(N([H])C(=O)C([H])(N([H])C([H])([H])[H])C([H])([H])[H])C(C([H])([H])[H])(C([H])([H])[H])C([H])([H])[H])C([H])([H])c2c([H])c(OC([H])([H])C([H])([H])C([H])([H])c3c(C([H])([H])N([H])C(=O)N4C([H])([H])C([H])([H])C([H])([H])C([H])(n5nc(-c6c([H])c([H])c(Oc7c([H])c([H])c(F)c([H])c7F)c([H])c6[H])c(C(=O)N([H])[H])c5N([H])[H])C4([H])[H])c([H])c([H])c4c3C([H])([H])C([H])([H])C([H])([H])C4([H])[H])c([H])c([H])c2C1([H])[H]

$$$$
67:0:0
     RDKit          3D

 92100  0  0  1  0  0  0  0  0999 V2000
  -30.7130  -14.8330   20.2730 C   0  0  0  0  0  0  0  0  0  0  0  0
  -30.4690  -12.5120   19.3560 C   0  0  0  0  0  2  0  0  0  0  0  0
  -29.5620  -12.5190   18.1090 C   0  0  0  0  0  2  0  0  0  0  0  0
  -28.0840  -12.3810   18.5210 C   0  0  0  0  0  2  0  0  0  0  0  0
  -27.6960  -13.3330   19.6870 C   0  0  0  0  0  3  0  0  0  0  0  0
  -28.7320  -13.3110   20.8270 C   0  0  0  0  0  2  0  0  0  0  0  0
  -30.0290  -13.6330   20.2270 N   0  0  0  0  0  0  0  0  0  0  0  0
  -31.9160  -14.8170   19.9870 O   0  0  0  0  0  0  0  0  0  0  0  0
  -29.7180  -18.5040   19.1180 C   0  0  0  0  0  2  0  0  0  0  0  0
  -28.9660  -18.2480   21.3390 C   0  0  0  0  0  2  0  0  0  0  0  0
  -30.4570  -17.0860   19.2090 C   0  0  0  0  0  2  0  0  0  0  0  0
  -29.6710  -16.8170   21.4740 C   0  0  0  0  0  2  0  0  0  0  0  0
  -29.6340  -19.3630   20.4330 C   0  0  1  0  0  0  0  0  0  0  0  0
  -30.0240  -16.0670   20.2310 N   0  0  0  0  0  0  0  0  0  0  0  0
  -25.3160  -13.9780   20.3820 C   0  0  0  0  0  0  0  0  0  0  0  0
  -24.2300  -13.2320   20.7500 C   0  0  0  0  0  0  0  0  0  0  0  0
  -24.6670  -11.8710   20.7490 C   0  0  0  0  0  0  0  0  0  0  0  0
  -26.3440  -13.0750   20.1720 N   0  0  0  0  0  0  0  0  0  0  0  0
  -25.9610  -11.8040   20.4580 N   0  0  0  0  0  0  0  0  0  0  0  0
  -23.9130  -10.6270   20.9510 C   0  0  0  0  0  0  0  0  0  0  0  0
  -24.3150   -9.6640   21.9030 C   0  0  0  0  0  3  0  0  0  0  0  0
  -23.5610   -8.4860   22.0940 C   0  0  0  0  0  3  0  0  0  0  0  0
  -22.3900   -8.2620   21.3310 C   0  0  0  0  0  0  0  0  0  0  0  0
  -22.0060   -9.2130   20.3680 C   0  0  0  0  0  3  0  0  0  0  0  0
  -22.7610  -10.3830   20.1760 C   0  0  0  0  0  3  0  0  0  0  0  0
  -21.6090   -7.1350   21.4280 O   0  0  0  0  0  0  0  0  0  0  0  0
  -21.5330   -6.4110   22.5900 C   0  0  0  0  0  0  0  0  0  0  0  0
  -21.1000   -6.9920   23.8030 C   0  0  0  0  0  3  0  0  0  0  0  0
  -20.9690   -6.1950   24.9570 C   0  0  0  0  0  3  0  0  0  0  0  0
  -21.2620   -4.8200   24.9010 C   0  0  0  0  0  0  0  0  0  0  0  0
  -21.6880   -4.2380   23.6940 C   0  0  0  0  0  3  0  0  0  0  0  0
  -21.8200   -5.0320   22.5420 C   0  0  0  0  0  0  0  0  0  0  0  0
  -22.2100   -4.4630   21.3750 F   0  0  0  0  0  0  0  0  0  0  0  0
  -21.1300   -4.0520   26.0090 F   0  0  0  0  0  0  0  0  0  0  0  0
  -22.8390  -13.7420   20.9920 C   0  0  0  0  0  0  0  0  0  0  0  0
  -22.0860  -13.0850   21.8660 N   0  0  0  0  0  0  0  0  0  0  0  0
  -22.4280  -14.7610   20.4380 O   0  0  0  0  0  0  0  0  0  0  0  0
  -22.4320  -12.2640   22.3400 H   0  0  0  0  0  0  0  0  0  0  0  0
  -21.1520  -13.4140   22.0660 H   0  0  0  0  0  0  0  0  0  0  0  0
  -25.5110  -15.3420   20.1850 N   0  0  0  0  0  0  0  0  0  0  0  0
  -24.7610  -16.0180   20.2860 H   0  0  0  0  0  0  0  0  0  0  0  0
  -26.3800  -15.7600   19.8790 H   0  0  0  0  0  0  0  0  0  0  0  0
  -31.0340  -19.7090   20.9970 C   0  0  0  0  0  0  0  0  0  0  0  0
  -32.0250  -19.9240   20.1420 N   0  0  0  0  0  0  0  0  0  0  0  0
  -31.2220  -19.8120   22.2080 O   0  0  0  0  0  0  0  0  0  0  0  0
  -31.8610  -19.8550   19.1480 H   0  0  0  0  0  0  0  0  0  0  0  0
  -32.9460  -20.1650   20.4760 H   0  0  0  0  0  0  0  0  0  0  0  0
  -28.7810  -20.7820   20.4190 C   0  0  0  0  0  2  0  0  0  0  0  0
  -29.2790  -22.2390   19.8520 C   0  0  0  0  0  2  0  0  0  0  0  0
  -28.6440  -23.6680   20.3710 C   0  0  0  0  0  3  0  0  0  0  0  0
  -28.7610  -25.0440   19.4910 C   0  0  0  0  0  3  0  0  0  0  0  0
  -28.6070  -26.4550   20.0240 O   0  0  0  0  0  0  0  0  0  0  0  0
  -24.5670  -31.6910   23.0110 C   0  0  0  0  0  0  0  0  0  0  0  0
  -27.4560  -27.2780   19.9120 C   0  0  0  0  0  0  0  0  0  0  0  0
  -23.4780  -30.3010   21.2850 C   0  0  0  0  0  3  0  0  0  0  0  0
  -25.0370  -28.8460   19.8590 C   0  0  0  0  0  0  0  0  0  0  0  0
  -26.0120  -30.7070   21.2060 C   0  0  0  0  0  2  0  0  0  0  0  0
  -26.1660  -29.3490   20.5140 C   0  0  0  0  0  0  0  0  0  0  0  0
  -27.3740  -28.5780   20.5280 C   0  0  0  0  0  3  0  0  0  0  0  0
  -26.2990  -26.8420   19.2320 C   0  0  0  0  0  3  0  0  0  0  0  0
  -25.1090  -27.6040   19.2070 C   0  0  0  0  0  3  0  0  0  0  0  0
  -23.7680  -29.6790   19.8930 C   0  0  0  0  0  2  0  0  0  0  0  0
  -24.7020  -30.9190   21.8910 N   0  0  0  0  0  0  0  0  0  0  0  0
  -23.4550  -31.9100   23.5140 O   0  0  0  0  0  0  0  0  0  0  0  0
  -22.8210  -29.2320   22.1910 C   0  0  0  0  0  0  0  0  0  0  0  0
  -21.4940  -29.0590   22.0650 N   0  0  0  0  0  0  0  0  0  0  0  0
  -23.5060  -28.5620   22.9700 O   0  0  0  0  0  0  0  0  0  0  0  0
  -21.0000  -29.6520   21.4130 H   0  0  0  0  0  0  0  0  0  0  0  0
  -18.1130  -27.8810   22.5870 C   0  0  0  0  0  0  0  0  0  0  0  0
  -20.6830  -28.0760   22.7860 C   0  0  0  0  0  3  0  0  0  0  0  0
  -20.7380  -26.6950   22.0900 C   0  0  0  0  0  2  0  0  0  0  0  0
  -19.5950  -26.4750   21.0940 C   0  0  0  0  0  2  0  0  0  0  0  0
  -18.2390  -26.5900   21.7960 C   0  0  0  0  0  2  0  0  0  0  0  0
  -19.2600  -28.5870   23.0380 C   0  0  0  0  0  0  0  0  0  0  0  0
  -19.0850  -29.7990   23.7400 C   0  0  0  0  0  3  0  0  0  0  0  0
  -17.7970  -30.3060   23.9940 C   0  0  0  0  0  3  0  0  0  0  0  0
  -16.6640  -29.5950   23.5580 C   0  0  0  0  0  3  0  0  0  0  0  0
  -16.8230  -28.3840   22.8620 C   0  0  0  0  0  3  0  0  0  0  0  0
  -25.8000  -32.3550   23.6990 C   0  0  0  0  0  3  0  0  0  0  0  0
  -26.3060  -31.5610   24.9650 C   0  0  1  0  0  0  0  0  0  0  0  0
  -25.1910  -31.2460   25.9900 C   0  0  0  0  0  1  0  0  0  0  0  0
  -26.9540  -30.2210   24.5470 C   0  0  0  0  0  1  0  0  0  0  0  0
  -27.4030  -32.3760   25.6900 C   0  0  0  0  0  1  0  0  0  0  0  0
  -25.4180  -33.7270   24.0710 N   0  0  0  0  0  0  0  0  0  0  0  0
  -25.7220  -34.8220   23.3630 C   0  0  0  0  0  0  0  0  0  0  0  0
  -26.4210  -34.7880   22.3460 O   0  0  0  0  0  0  0  0  0  0  0  0
  -24.8010  -33.8230   24.8630 H   0  0  0  0  0  0  0  0  0  0  0  0
  -23.9240  -36.5500   23.0350 C   0  0  0  0  0  1  0  0  0  0  0  0
  -25.1630  -36.1690   23.8600 C   0  0  0  0  0  3  0  0  0  0  0  0
  -27.2340  -37.1170   24.7780 C   0  0  0  0  0  1  0  0  0  0  0  0
  -26.1500  -37.2710   23.8120 N   0  0  0  0  0  0  0  0  0  0  0  0
  -25.7000  -38.1660   23.9800 H   0  0  0  0  0  0  0  0  0  0  0  0
  2  7  1  0
  3  4  1  0
  3  2  1  0
  5  4  1  0
  5 18  1  0
  5  6  1  0
  7  1  1  0
  7  6  1  0
  8  1  2  0
  9 11  1  0
  9 13  1  0
 10 12  1  0
 11 14  1  0
 13 48  1  6
 13 43  1  0
 13 10  1  0
 14  1  1  0
 14 12  1  0
 15 16  2  0
 16 35  1  0
 17 16  1  0
 17 20  1  0
 18 15  1  0
 18 19  1  0
 19 17  2  0
 20 21  1  0
 21 22  2  0
 23 26  1  0
 23 22  1  0
 24 23  2  0
 25 24  1  0
 25 20  2  0
 26 27  1  0
 27 28  1  0
 28 29  2  0
 30 29  1  0
 30 34  1  0
 31 30  2  0
 32 27  2  0
 32 31  1  0
 33 32  1  0
 35 36  1  0
 36 39  1  0
 36 38  1  0
 37 35  2  0
 40 41  1  0
 40 15  1  0
 42 40  1  0
 43 45  2  0
 44 47  1  0
 44 43  1  0
 46 44  1  0
 49 50  1  0
 49 48  1  0
 51 52  1  0
 51 50  2  0
 53 64  2  0
 54 52  1  0
 54 59  1  0
 55 63  1  0
 55 65  1  0
 56 62  1  0
 56 58  1  0
 57 63  1  0
 58 59  2  0
 58 57  1  0
 60 54  2  0
 61 60  1  0
 61 56  2  0
 62 55  1  0
 63 53  1  0
 65 67  2  0
 66 65  1  0
 68 66  1  0
 69 78  2  0
 69 74  1  0
 70 66  1  0
 70 74  1  0
 71 70  1  0
 72 73  1  0
 72 71  1  0
 73 69  1  0
 74 75  2  0
 75 76  1  0
 77 76  2  0
 78 77  1  0
 79 53  1  0
 79 84  1  0
 79 80  1  0
 80 83  1  1
 80 81  1  0
 82 80  1  0
 84 87  1  0
 85 89  1  0
 85 84  1  0
 86 85  2  0
 89 88  1  0
 91 89  1  0
 91 92  1  0
 91 90  1  0
M  ISO  4   1 100  14 100  51 101  52 101
M  END
>  <TORSDO>  (67) 
F 20

>  <SCORE>  (67) 
-13.124

>  <name>  (67) 
67

>  <ligand_id>  (67) 
67

>  <original_smiles>  (67) 
[H]c1c([H])c([H])c2c(c1[H])C([H])([H])C([H])([H])C([H])([H])C2([H])N([H])C(=O)C1([H])N(C(=O)C([H])(N([H])C(=O)C([H])(N([H])C([H])([H])[H])C([H])([H])[H])C(C([H])([H])[H])(C([H])([H])[H])C([H])([H])[H])C([H])([H])c2c([H])c(OC([H])([H])C([H])([H])C([H])([H])C([H])([H])C3(C(=O)N([H])[H])C([H])([H])C([H])([H])N(C(=O)N4C([H])([H])C([H])([H])C([H])([H])C([H])(n5nc(-c6c([H])c([H])c(Oc7c([H])c([H])c(F)c([H])c7F)c([H])c6[H])c(C(=O)N([H])[H])c5N([H])[H])C4([H])[H])C([H])([H])C3([H])[H])c([H])c([H])c2C1([H])[H]

>  <smiles>  (67) 
[H]c1c([H])c([H])c2c(c1[H])C([H])([H])C([H])([H])C([H])([H])C2([H])N([H])C(=O)C1([H])N(C(=O)C([H])(N([H])C(=O)C([H])(N([H])C([H])([H])[H])C([H])([H])[H])C(C([H])([H])[H])(C([H])([H])[H])C([H])([H])[H])C([H])([H])c2c([H])c(OC([H])([H])C([H])([H])C([H])([H])C([H])([H])C3(C(=O)N([H])[H])C([H])([H])C([H])([H])N(C(=O)N4C([H])([H])C([H])([H])C([H])([H])C([H])(n5nc(-c6c([H])c([H])c(Oc7c([H])c([H])c(F)c([H])c7F)c([H])c6[H])c(C(=O)N([H])[H])c5N([H])[H])C4([H])[H])C([H])([H])C3([H])[H])c([H])c([H])c2C1([H])[H]

$$$$
68:0:0
     RDKit          3D

 91 98  0  0  1  0  0  0  0  0999 V2000
  -27.5560  -24.2310   22.2720 C   0  0  0  0  0  2  0  0  0  0  0  0
  -28.3780  -25.5400   22.1840 C   0  0  0  0  0  3  0  0  0  0  0  0
  -27.6900  -26.4080   24.5370 C   0  0  0  0  0  1  0  0  0  0  0  0
  -27.7370  -26.6710   23.0240 C   0  0  0  0  0  2  0  0  0  0  0  0
  -28.6560  -25.9020   20.6870 C   0  0  0  0  0  2  0  0  0  0  0  0
  -28.7360  -27.2950   20.3770 O   0  0  0  0  0  0  0  0  0  0  0  0
  -24.6750  -32.1560   23.4990 C   0  0  0  0  0  0  0  0  0  0  0  0
  -27.5320  -27.9570   20.3210 C   0  0  0  0  0  0  0  0  0  0  0  0
  -23.5450  -30.7690   21.7900 C   0  0  0  0  0  3  0  0  0  0  0  0
  -25.0750  -29.3390   20.3380 C   0  0  0  0  0  0  0  0  0  0  0  0
  -26.0540  -31.2390   21.6430 C   0  0  0  0  0  2  0  0  0  0  0  0
  -26.1990  -29.9010   20.9550 C   0  0  0  0  0  0  0  0  0  0  0  0
  -27.4310  -29.2230   20.9330 C   0  0  0  0  0  3  0  0  0  0  0  0
  -26.3950  -27.4060   19.6850 C   0  0  0  0  0  3  0  0  0  0  0  0
  -25.1680  -28.0920   19.6960 C   0  0  0  0  0  3  0  0  0  0  0  0
  -23.7980  -30.1440   20.3920 C   0  0  0  0  0  2  0  0  0  0  0  0
  -24.7740  -31.3990   22.3700 N   0  0  0  0  0  0  0  0  0  0  0  0
  -23.5780  -32.3710   24.0290 O   0  0  0  0  0  0  0  0  0  0  0  0
  -22.9220  -29.6910   22.7040 C   0  0  0  0  0  0  0  0  0  0  0  0
  -21.6070  -29.4670   22.5470 N   0  0  0  0  0  0  0  0  0  0  0  0
  -23.6160  -29.0630   23.5070 O   0  0  0  0  0  0  0  0  0  0  0  0
  -21.1080  -30.0290   21.8710 H   0  0  0  0  0  0  0  0  0  0  0  0
  -18.2720  -28.1410   22.9470 C   0  0  0  0  0  0  0  0  0  0  0  0
  -20.8160  -28.4730   23.2710 C   0  0  0  0  0  3  0  0  0  0  0  0
  -20.9770  -27.0690   22.6450 C   0  0  0  0  0  2  0  0  0  0  0  0
  -19.9020  -26.7420   21.6050 C   0  0  0  0  0  2  0  0  0  0  0  0
  -18.5070  -26.8190   22.2340 C   0  0  0  0  0  2  0  0  0  0  0  0
  -19.3590  -28.9240   23.4200 C   0  0  0  0  0  0  0  0  0  0  0  0
  -19.0880  -30.1610   24.0450 C   0  0  0  0  0  3  0  0  0  0  0  0
  -17.7650  -30.6140   24.2060 C   0  0  0  0  0  3  0  0  0  0  0  0
  -16.6940  -29.8270   23.7500 C   0  0  0  0  0  3  0  0  0  0  0  0
  -16.9480  -28.5920   23.1260 C   0  0  0  0  0  3  0  0  0  0  0  0
  -25.9300  -32.8100   24.1590 C   0  0  0  0  0  3  0  0  0  0  0  0
  -26.4040  -32.0640   25.4670 C   0  0  1  0  0  0  0  0  0  0  0  0
  -25.2700  -31.8250   26.4890 C   0  0  0  0  0  1  0  0  0  0  0  0
  -27.0200  -30.6890   25.1190 C   0  0  0  0  0  1  0  0  0  0  0  0
  -27.5120  -32.8850   26.1690 C   0  0  0  0  0  1  0  0  0  0  0  0
  -25.6000  -34.2110   24.4490 N   0  0  0  0  0  0  0  0  0  0  0  0
  -25.9530  -35.2490   23.6790 C   0  0  0  0  0  0  0  0  0  0  0  0
  -26.6650  -35.1300   22.6780 O   0  0  0  0  0  0  0  0  0  0  0  0
  -24.9780  -34.3790   25.2250 H   0  0  0  0  0  0  0  0  0  0  0  0
  -24.2180  -37.0090   23.2170 C   0  0  0  0  0  1  0  0  0  0  0  0
  -25.4310  -36.6390   24.0850 C   0  0  0  0  0  3  0  0  0  0  0  0
  -27.5240  -37.5660   24.9740 C   0  0  0  0  0  1  0  0  0  0  0  0
  -26.4530  -37.7050   23.9910 N   0  0  0  0  0  0  0  0  0  0  0  0
  -26.0290  -38.6210   24.1080 H   0  0  0  0  0  0  0  0  0  0  0  0
  -28.2880  -23.0460   21.6280 C   0  0  0  0  0  2  0  0  0  0  0  0
  -27.4020  -21.8340   21.3010 C   0  0  0  0  0  2  0  0  0  0  0  0
  -28.2670  -20.7310   20.7290 C   0  0  0  0  0  3  0  0  0  0  0  0
  -29.0600  -20.0400   21.4440 N   0  0  0  0  0  0  0  0  0  0  0  0
  -30.0340  -19.2290   20.7360 C   0  0  0  0  0  2  0  0  0  0  0  0
  -30.5330  -18.0820   21.6310 C   0  0  0  0  0  2  0  0  0  0  0  0
  -31.4960  -17.1290   20.8910 C   0  0  0  0  0  2  0  0  0  0  0  0
  -31.7310  -14.7210   20.4030 C   0  0  0  0  0  0  0  0  0  0  0  0
  -31.3610  -12.5230   19.3640 C   0  0  0  0  0  2  0  0  0  0  0  0
  -30.4710  -12.7140   18.1200 C   0  0  0  0  0  2  0  0  0  0  0  0
  -28.9800  -12.6710   18.4990 C   0  0  0  0  0  2  0  0  0  0  0  0
  -28.6460  -13.6000   19.6960 C   0  0  0  0  0  3  0  0  0  0  0  0
  -29.6440  -13.3830   20.8560 C   0  0  0  0  0  2  0  0  0  0  0  0
  -31.0090  -13.5750   20.3280 N   0  0  0  0  0  0  0  0  0  0  0  0
  -32.8260  -14.8810   19.8570 O   0  0  0  0  0  0  0  0  0  0  0  0
  -31.1070  -15.7280   21.0230 N   0  0  0  0  0  0  0  0  0  0  0  0
  -30.2280  -15.5120   21.4690 H   0  0  0  0  0  0  0  0  0  0  0  0
  -26.2750  -14.3820   20.3350 C   0  0  0  0  0  0  0  0  0  0  0  0
  -25.1460  -13.6860   20.6760 C   0  0  0  0  0  0  0  0  0  0  0  0
  -25.5120  -12.3060   20.6550 C   0  0  0  0  0  0  0  0  0  0  0  0
  -27.2610  -13.4290   20.1320 N   0  0  0  0  0  0  0  0  0  0  0  0
  -26.8020  -12.1740   20.3760 N   0  0  0  0  0  0  0  0  0  0  0  0
  -24.6960  -11.0960   20.8260 C   0  0  0  0  0  0  0  0  0  0  0  0
  -25.0200  -10.1120   21.7880 C   0  0  0  0  0  3  0  0  0  0  0  0
  -24.2070   -8.9670   21.9440 C   0  0  0  0  0  3  0  0  0  0  0  0
  -23.0550   -8.8000   21.1380 C   0  0  0  0  0  0  0  0  0  0  0  0
  -22.7510   -9.7700   20.1670 C   0  0  0  0  0  3  0  0  0  0  0  0
  -23.5650  -10.9050   20.0100 C   0  0  0  0  0  3  0  0  0  0  0  0
  -22.2220   -7.7100   21.2010 O   0  0  0  0  0  0  0  0  0  0  0  0
  -22.0400   -7.0120   22.3680 C   0  0  0  0  0  0  0  0  0  0  0  0
  -21.5950   -7.6390   23.5520 C   0  0  0  0  0  3  0  0  0  0  0  0
  -21.3560   -6.8730   24.7090 C   0  0  0  0  0  3  0  0  0  0  0  0
  -21.5500   -5.4770   24.6820 C   0  0  0  0  0  0  0  0  0  0  0  0
  -21.9860   -4.8500   23.5030 C   0  0  0  0  0  3  0  0  0  0  0  0
  -22.2270   -5.6140   22.3480 C   0  0  0  0  0  0  0  0  0  0  0  0
  -22.6300   -5.0020   21.2090 F   0  0  0  0  0  0  0  0  0  0  0  0
  -21.3120   -4.7390   25.7910 F   0  0  0  0  0  0  0  0  0  0  0  0
  -23.7800  -14.2600   20.9180 C   0  0  0  0  0  0  0  0  0  0  0  0
  -22.9920  -13.6290   21.7800 N   0  0  0  0  0  0  0  0  0  0  0  0
  -23.4220  -15.3090   20.3800 O   0  0  0  0  0  0  0  0  0  0  0  0
  -23.2890  -12.7800   22.2380 H   0  0  0  0  0  0  0  0  0  0  0  0
  -22.0790  -14.0080   21.9900 H   0  0  0  0  0  0  0  0  0  0  0  0
  -26.5420  -15.7380   20.1620 N   0  0  0  0  0  0  0  0  0  0  0  0
  -25.8200  -16.4450   20.2570 H   0  0  0  0  0  0  0  0  0  0  0  0
  -27.4290  -16.1150   19.8550 H   0  0  0  0  0  0  0  0  0  0  0  0
  2  5  1  0
  2  1  1  0
  2  4  1  0
  4  3  1  0
  6  5  1  0
  7 18  2  0
  8  6  1  0
  8 13  1  0
  9 17  1  0
  9 19  1  0
 10 16  1  0
 10 12  1  0
 11 17  1  0
 12 11  1  0
 13 12  2  0
 14 15  1  0
 14  8  2  0
 15 10  2  0
 16  9  1  0
 17  7  1  0
 19 21  2  0
 20 19  1  0
 22 20  1  0
 23 32  2  0
 23 28  1  0
 24 20  1  0
 24 28  1  0
 25 24  1  0
 26 27  1  0
 26 25  1  0
 27 23  1  0
 28 29  2  0
 29 30  1  0
 31 30  2  0
 32 31  1  0
 33  7  1  0
 33 38  1  0
 33 34  1  0
 34 37  1  1
 34 35  1  0
 36 34  1  0
 38 41  1  0
 39 43  1  0
 39 38  1  0
 40 39  2  0
 43 42  1  0
 45 43  1  0
 45 46  1  0
 45 44  1  0
 47  1  1  0
 48 47  1  0
 49 48  1  0
 49 50  2  0
 51 50  1  0
 51 52  1  0
 53 62  1  0
 53 52  1  0
 54 62  1  0
 55 60  1  0
 56 57  1  0
 56 55  1  0
 58 57  1  0
 58 67  1  0
 58 59  1  0
 60 54  1  0
 60 59  1  0
 61 54  2  0
 62 63  1  0
 64 65  2  0
 65 84  1  0
 66 65  1  0
 66 69  1  0
 67 64  1  0
 67 68  1  0
 68 66  2  0
 69 70  1  0
 70 71  2  0
 72 75  1  0
 72 71  1  0
 73 72  2  0
 74 73  1  0
 74 69  2  0
 75 76  1  0
 76 77  1  0
 77 78  2  0
 79 78  1  0
 79 83  1  0
 80 79  2  0
 81 76  2  0
 81 80  1  0
 82 81  1  0
 84 85  1  0
 85 88  1  0
 85 87  1  0
 86 84  2  0
 89 90  1  0
 89 64  1  0
 91 89  1  0
M  ISO  4   5 101   6 101  54 100  62 100
M  END
>  <TORSDO>  (68) 
F 25

>  <SCORE>  (68) 
-10.192

>  <name>  (68) 
68

>  <ligand_id>  (68) 
68

>  <original_smiles>  (68) 
[H]C(=NC([H])([H])C([H])([H])C([H])([H])N([H])C(=O)N1C([H])([H])C([H])([H])C([H])([H])C([H])(n2nc(-c3c([H])c([H])c(Oc4c([H])c([H])c(F)c([H])c4F)c([H])c3[H])c(C(=O)N([H])[H])c2N([H])[H])C1([H])[H])C([H])([H])C([H])([H])C([H])([H])C([H])(C([H])([H])Oc1c([H])c([H])c2c(c1[H])C([H])([H])N(C(=O)C([H])(N([H])C(=O)C([H])(N([H])C([H])([H])[H])C([H])([H])[H])C(C([H])([H])[H])(C([H])([H])[H])C([H])([H])[H])C([H])(C(=O)N([H])C1([H])c3c([H])c([H])c([H])c([H])c3C([H])([H])C([H])([H])C1([H])[H])C2([H])[H])C([H])([H])C([H])([H])[H]

>  <smiles>  (68) 
[H]C(=NC([H])([H])C([H])([H])C([H])([H])N([H])C(=O)N1C([H])([H])C([H])([H])C([H])([H])C([H])(n2nc(-c3c([H])c([H])c(Oc4c([H])c([H])c(F)c([H])c4F)c([H])c3[H])c(C(=O)N([H])[H])c2N([H])[H])C1([H])[H])C([H])([H])C([H])([H])C([H])([H])C([H])(C([H])([H])Oc1c([H])c([H])c2c(c1[H])C([H])([H])N(C(=O)C([H])(N([H])C(=O)C([H])(N([H])C([H])([H])[H])C([H])([H])[H])C(C([H])([H])[H])(C([H])([H])[H])C([H])([H])[H])C([H])(C(=O)N([H])C1([H])c3c([H])c([H])c([H])c([H])c3C([H])([H])C([H])([H])C1([H])[H])C2([H])[H])C([H])([H])C([H])([H])[H]

$$$$
69:0:0
     RDKit          3D

 90 97  0  0  1  0  0  0  0  0999 V2000
  -28.5400  -21.8700   20.2430 N   0  0  0  0  0  4  0  0  0  0  0  0
  -27.8580  -21.7160   20.9680 H   0  0  0  0  0  0  0  0  0  0  0  0
  -28.0420  -21.7750   19.3700 H   0  0  0  0  0  0  0  0  0  0  0  0
  -29.5540  -20.6540   20.3020 C   0  0  0  0  0  3  0  0  0  0  0  0
  -29.1140  -19.0170   20.3890 C   0  0  0  0  0  3  0  0  0  0  0  0
  -30.6630  -17.7990   18.7540 C   0  0  0  0  0  1  0  0  0  0  0  0
  -30.1890  -17.7160   20.2220 C   0  0  2  0  0  0  0  0  0  0  0  0
  -30.5080  -14.9680   20.3140 C   0  0  0  0  0  0  0  0  0  0  0  0
  -30.3300  -12.6310   19.3680 C   0  0  0  0  0  2  0  0  0  0  0  0
  -29.3940  -12.6100   18.1400 C   0  0  0  0  0  2  0  0  0  0  0  0
  -27.9330  -12.4060   18.5800 C   0  0  0  0  0  2  0  0  0  0  0  0
  -27.5380  -13.3250   19.7670 C   0  0  0  0  0  3  0  0  0  0  0  0
  -28.6010  -13.3340   20.8860 C   0  0  0  0  0  2  0  0  0  0  0  0
  -29.8730  -13.7280   20.2680 N   0  0  0  0  0  0  0  0  0  0  0  0
  -31.7110  -14.9780   20.0360 O   0  0  0  0  0  0  0  0  0  0  0  0
  -29.7820  -16.1910   20.4470 N   0  0  0  0  0  0  0  0  0  0  0  0
  -28.8060  -16.0500   20.6540 H   0  0  0  0  0  0  0  0  0  0  0  0
  -25.1610  -13.8950   20.5230 C   0  0  0  0  0  0  0  0  0  0  0  0
  -24.1010  -13.1150   20.8940 C   0  0  0  0  0  0  0  0  0  0  0  0
  -24.5670  -11.7660   20.8550 C   0  0  0  0  0  0  0  0  0  0  0  0
  -26.2050  -13.0190   20.2730 N   0  0  0  0  0  0  0  0  0  0  0  0
  -25.8570  -11.7320   20.5390 N   0  0  0  0  0  0  0  0  0  0  0  0
  -23.8420  -10.5010   21.0390 C   0  0  0  0  0  0  0  0  0  0  0  0
  -24.2690   -9.5330   21.9750 C   0  0  0  0  0  3  0  0  0  0  0  0
  -23.5440   -8.3350   22.1490 C   0  0  0  0  0  3  0  0  0  0  0  0
  -22.3760   -8.0960   21.3880 C   0  0  0  0  0  0  0  0  0  0  0  0
  -21.9680   -9.0500   20.4380 C   0  0  0  0  0  3  0  0  0  0  0  0
  -22.6950  -10.2400   20.2630 C   0  0  0  0  0  3  0  0  0  0  0  0
  -21.6210   -6.9510   21.4700 O   0  0  0  0  0  0  0  0  0  0  0  0
  -21.5520   -6.2160   22.6270 C   0  0  0  0  0  0  0  0  0  0  0  0
  -21.1050   -6.7770   23.8420 C   0  0  0  0  0  3  0  0  0  0  0  0
  -20.9860   -5.9680   24.9900 C   0  0  0  0  0  3  0  0  0  0  0  0
  -21.3060   -4.5990   24.9220 C   0  0  0  0  0  0  0  0  0  0  0  0
  -21.7480   -4.0370   23.7120 C   0  0  0  0  0  3  0  0  0  0  0  0
  -21.8680   -4.8430   22.5670 C   0  0  0  0  0  0  0  0  0  0  0  0
  -22.2740   -4.2930   21.3970 F   0  0  0  0  0  0  0  0  0  0  0  0
  -21.1850   -3.8190   26.0220 F   0  0  0  0  0  0  0  0  0  0  0  0
  -22.7030  -13.5880   21.1710 C   0  0  0  0  0  0  0  0  0  0  0  0
  -21.9780  -12.8910   22.0370 N   0  0  0  0  0  0  0  0  0  0  0  0
  -22.2630  -14.6130   20.6520 O   0  0  0  0  0  0  0  0  0  0  0  0
  -22.3480  -12.0630   22.4800 H   0  0  0  0  0  0  0  0  0  0  0  0
  -21.0380  -13.1890   22.2620 H   0  0  0  0  0  0  0  0  0  0  0  0
  -25.3220  -15.2670   20.3510 N   0  0  0  0  0  0  0  0  0  0  0  0
  -24.5490  -15.9140   20.4610 H   0  0  0  0  0  0  0  0  0  0  0  0
  -26.1570  -15.7030   19.9830 H   0  0  0  0  0  0  0  0  0  0  0  0
  -31.1100  -17.8620   22.6420 C   0  0  0  0  0  1  0  0  0  0  0  0
  -31.3970  -18.0230   21.1420 C   0  0  0  0  0  2  0  0  0  0  0  0
  -28.9900  -23.3930   20.3460 C   0  0  0  0  0  3  0  0  0  0  0  0
  -27.9380  -24.6820   20.0960 C   0  0  0  0  0  3  0  0  0  0  0  0
  -28.2260  -26.2070   20.2410 O   0  0  0  0  0  0  0  0  0  0  0  0
  -24.6340  -31.9020   23.2410 C   0  0  0  0  0  0  0  0  0  0  0  0
  -27.1700  -27.1890   20.1870 C   0  0  0  0  0  0  0  0  0  0  0  0
  -23.4190  -30.5180   21.6050 C   0  0  0  0  0  3  0  0  0  0  0  0
  -24.8510  -28.9420   20.1700 C   0  0  0  0  0  0  0  0  0  0  0  0
  -25.9730  -30.7740   21.4260 C   0  0  0  0  0  2  0  0  0  0  0  0
  -26.0350  -29.3810   20.7740 C   0  0  0  0  0  0  0  0  0  0  0  0
  -27.1950  -28.5190   20.7700 C   0  0  0  0  0  3  0  0  0  0  0  0
  -25.9570  -26.8500   19.5440 C   0  0  0  0  0  3  0  0  0  0  0  0
  -24.8240  -27.6890   19.5400 C   0  0  0  0  0  3  0  0  0  0  0  0
  -23.6300  -29.8450   20.2230 C   0  0  0  0  0  2  0  0  0  0  0  0
  -24.6960  -31.0870   22.1460 N   0  0  0  0  0  0  0  0  0  0  0  0
  -23.5520  -32.1890   23.7760 O   0  0  0  0  0  0  0  0  0  0  0  0
  -22.7400  -29.5110   22.5660 C   0  0  0  0  0  0  0  0  0  0  0  0
  -21.4100  -29.3460   22.4460 N   0  0  0  0  0  0  0  0  0  0  0  0
  -23.4120  -28.8810   23.3860 O   0  0  0  0  0  0  0  0  0  0  0  0
  -20.9250  -29.9010   21.7570 H   0  0  0  0  0  0  0  0  0  0  0  0
  -18.0270  -28.1590   22.9540 C   0  0  0  0  0  0  0  0  0  0  0  0
  -20.5870  -28.4130   23.2200 C   0  0  0  0  0  3  0  0  0  0  0  0
  -20.6850  -26.9800   22.6460 C   0  0  0  0  0  2  0  0  0  0  0  0
  -19.5800  -26.6590   21.6350 C   0  0  0  0  0  2  0  0  0  0  0  0
  -18.1980  -26.8100   22.2780 C   0  0  0  0  0  2  0  0  0  0  0  0
  -19.1480  -28.9190   23.3820 C   0  0  0  0  0  0  0  0  0  0  0  0
  -18.9310  -30.1830   23.9750 C   0  0  0  0  0  3  0  0  0  0  0  0
  -17.6270  -30.6830   24.1460 C   0  0  0  0  0  3  0  0  0  0  0  0
  -16.5200  -29.9210   23.7330 C   0  0  0  0  0  3  0  0  0  0  0  0
  -16.7220  -28.6610   23.1410 C   0  0  0  0  0  3  0  0  0  0  0  0
  -25.9180  -32.5300   23.8660 C   0  0  0  0  0  3  0  0  0  0  0  0
  -26.4340  -31.7500   25.1380 C   0  0  1  0  0  0  0  0  0  0  0  0
  -25.3410  -31.5140   26.2070 C   0  0  0  0  0  1  0  0  0  0  0  0
  -27.0070  -30.3710   24.7400 C   0  0  0  0  0  1  0  0  0  0  0  0
  -27.5920  -32.5350   25.7970 C   0  0  0  0  0  1  0  0  0  0  0  0
  -25.6130  -33.9280   24.2100 N   0  0  0  0  0  0  0  0  0  0  0  0
  -25.9210  -34.9870   23.4500 C   0  0  0  0  0  0  0  0  0  0  0  0
  -26.5570  -34.8910   22.3970 O   0  0  0  0  0  0  0  0  0  0  0  0
  -25.0460  -34.0770   25.0300 H   0  0  0  0  0  0  0  0  0  0  0  0
  -24.1680  -36.7720   23.1780 C   0  0  0  0  0  1  0  0  0  0  0  0
  -25.4470  -36.3720   23.9310 C   0  0  0  0  0  3  0  0  0  0  0  0
  -27.6110  -37.2700   24.6660 C   0  0  0  0  0  1  0  0  0  0  0  0
  -26.4660  -37.4330   23.7720 N   0  0  0  0  0  0  0  0  0  0  0  0
  -26.0610  -38.3500   23.9400 H   0  0  0  0  0  0  0  0  0  0  0  0
  1  4  1  0
  1 48  1  0
  1  2  1  0
  3  1  1  0
  4  5  2  0
  7  6  1  6
  7  5  1  0
  7 16  1  0
  7 47  1  0
  8 16  1  0
  9 14  1  0
 10 11  1  0
 10  9  1  0
 12 11  1  0
 12 21  1  0
 12 13  1  0
 14  8  1  0
 14 13  1  0
 15  8  2  0
 16 17  1  0
 18 19  2  0
 19 38  1  0
 20 19  1  0
 20 23  1  0
 21 18  1  0
 21 22  1  0
 22 20  2  0
 23 24  1  0
 24 25  2  0
 26 29  1  0
 26 25  1  0
 27 26  2  0
 28 27  1  0
 28 23  2  0
 29 30  1  0
 30 31  1  0
 31 32  2  0
 33 32  1  0
 33 37  1  0
 34 33  2  0
 35 30  2  0
 35 34  1  0
 36 35  1  0
 38 39  1  0
 39 42  1  0
 39 41  1  0
 40 38  2  0
 43 44  1  0
 43 18  1  0
 45 43  1  0
 47 46  1  0
 49 50  1  0
 49 48  2  0
 51 62  2  0
 52 50  1  0
 52 57  1  0
 53 61  1  0
 53 63  1  0
 54 60  1  0
 54 56  1  0
 55 61  1  0
 56 55  1  0
 57 56  2  0
 58 52  2  0
 59 58  1  0
 59 54  2  0
 60 53  1  0
 61 51  1  0
 63 65  2  0
 64 63  1  0
 66 64  1  0
 67 76  2  0
 67 72  1  0
 68 64  1  0
 68 72  1  0
 69 68  1  0
 70 71  1  0
 70 69  1  0
 71 67  1  0
 72 73  2  0
 73 74  1  0
 75 74  2  0
 76 75  1  0
 77 51  1  0
 77 82  1  0
 77 78  1  0
 78 81  1  1
 78 79  1  0
 80 78  1  0
 82 85  1  0
 83 87  1  0
 83 82  1  0
 84 83  2  0
 87 86  1  0
 89 87  1  0
 89 90  1  0
 89 88  1  0
M  ISO  4   8 100  16 100  49 101  50 101
M  END
>  <TORSDO>  (69) 
F 22

>  <SCORE>  (69) 
-13.749

>  <name>  (69) 
69

>  <ligand_id>  (69) 
69

>  <original_smiles>  (69) 
[H]c1c([H])c([H])c2c(c1[H])C([H])([H])C([H])([H])C([H])([H])C2([H])N([H])C(=O)C1([H])N(C(=O)C([H])(N([H])C(=O)C([H])(N([H])C([H])([H])[H])C([H])([H])[H])C(C([H])([H])[H])(C([H])([H])[H])C([H])([H])[H])C([H])([H])c2c([H])c(OC([H])([H])C([H])([H])[N+]([H])([H])C([H])([H])C([H])([H])C(N([H])C(=O)N3C([H])([H])C([H])([H])C([H])([H])C([H])(n4nc(-c5c([H])c([H])c(Oc6c([H])c([H])c(F)c([H])c6F)c([H])c5[H])c(C(=O)N([H])[H])c4N([H])[H])C3([H])[H])(C([H])([H])[H])C([H])([H])C([H])([H])[H])c([H])c([H])c2C1([H])[H]

>  <smiles>  (69) 
[H]c1c([H])c([H])c2c(c1[H])C([H])([H])C([H])([H])C([H])([H])C2([H])N([H])C(=O)C1([H])N(C(=O)C([H])(N([H])C(=O)C([H])(N([H])C([H])([H])[H])C([H])([H])[H])C(C([H])([H])[H])(C([H])([H])[H])C([H])([H])[H])C([H])([H])c2c([H])c(OC([H])([H])C([H])([H])[N+]([H])([H])C([H])([H])C([H])([H])C(N([H])C(=O)N3C([H])([H])C([H])([H])C([H])([H])C([H])(n4nc(-c5c([H])c([H])c(Oc6c([H])c([H])c(F)c([H])c6F)c([H])c5[H])c(C(=O)N([H])[H])c4N([H])[H])C3([H])[H])(C([H])([H])[H])C([H])([H])C([H])([H])[H])c([H])c([H])c2C1([H])[H]

$$$$
70:0:0
     RDKit          3D

 89 98  0  0  1  0  0  0  0  0999 V2000
  -27.8860  -20.8060   19.7630 C   0  0  0  0  0  2  0  0  0  0  0  0
  -30.1270  -20.7160   20.6560 C   0  0  0  0  0  2  0  0  0  0  0  0
  -28.9750  -18.3500   18.9250 C   0  0  0  0  0  2  0  0  0  0  0  0
  -29.0950  -21.7970   19.9760 C   0  0  0  0  0  3  0  0  0  0  0  0
  -28.3040  -19.2810   19.9920 C   0  0  0  0  0  3  0  0  0  0  0  0
  -29.5990  -19.1720   20.7650 C   0  0  0  0  0  3  0  0  0  0  0  0
  -30.0580  -17.8130   19.9150 C   0  0  0  0  0  3  0  0  0  0  0  0
  -30.5700  -15.0810   20.0990 C   0  0  0  0  0  0  0  0  0  0  0  0
  -30.4090  -12.7250   19.1540 C   0  0  0  0  0  2  0  0  0  0  0  0
  -29.4290  -12.6900   17.9570 C   0  0  0  0  0  2  0  0  0  0  0  0
  -27.9840  -12.4760   18.4430 C   0  0  0  0  0  2  0  0  0  0  0  0
  -27.6280  -13.3820   19.6510 C   0  0  0  0  0  3  0  0  0  0  0  0
  -28.7290  -13.3910   20.7330 C   0  0  0  0  0  2  0  0  0  0  0  0
  -29.9720  -13.8160   20.0780 N   0  0  0  0  0  0  0  0  0  0  0  0
  -31.7490  -15.1330   19.7270 O   0  0  0  0  0  0  0  0  0  0  0  0
  -29.8200  -16.2850   20.3200 N   0  0  0  0  0  0  0  0  0  0  0  0
  -28.8880  -16.0970   20.6560 H   0  0  0  0  0  0  0  0  0  0  0  0
  -25.2870  -13.9450   20.5090 C   0  0  0  0  0  0  0  0  0  0  0  0
  -24.2370  -13.1640   20.9060 C   0  0  0  0  0  0  0  0  0  0  0  0
  -24.6940  -11.8130   20.8220 C   0  0  0  0  0  0  0  0  0  0  0  0
  -26.3140  -13.0710   20.2010 N   0  0  0  0  0  0  0  0  0  0  0  0
  -25.9700  -11.7810   20.4550 N   0  0  0  0  0  0  0  0  0  0  0  0
  -23.9700  -10.5500   21.0130 C   0  0  0  0  0  0  0  0  0  0  0  0
  -24.4140   -9.5740   21.9330 C   0  0  0  0  0  3  0  0  0  0  0  0
  -23.6870   -8.3770   22.1140 C   0  0  0  0  0  3  0  0  0  0  0  0
  -22.5030   -8.1460   21.3750 C   0  0  0  0  0  0  0  0  0  0  0  0
  -22.0770   -9.1110   20.4440 C   0  0  0  0  0  3  0  0  0  0  0  0
  -22.8050  -10.3000   20.2600 C   0  0  0  0  0  3  0  0  0  0  0  0
  -21.7480   -7.0020   21.4650 O   0  0  0  0  0  0  0  0  0  0  0  0
  -21.6870   -6.2700   22.6230 C   0  0  0  0  0  0  0  0  0  0  0  0
  -21.1930   -6.8170   23.8260 C   0  0  0  0  0  3  0  0  0  0  0  0
  -21.0830   -6.0080   24.9750 C   0  0  0  0  0  3  0  0  0  0  0  0
  -21.4580   -4.6530   24.9210 C   0  0  0  0  0  0  0  0  0  0  0  0
  -21.9450   -4.1040   23.7220 C   0  0  0  0  0  3  0  0  0  0  0  0
  -22.0560   -4.9100   22.5750 C   0  0  0  0  0  0  0  0  0  0  0  0
  -22.5060   -4.3710   21.4170 F   0  0  0  0  0  0  0  0  0  0  0  0
  -21.3450   -3.8730   26.0230 F   0  0  0  0  0  0  0  0  0  0  0  0
  -22.8550  -13.6410   21.2470 C   0  0  0  0  0  0  0  0  0  0  0  0
  -22.1590  -12.9240   22.1220 N   0  0  0  0  0  0  0  0  0  0  0  0
  -22.4040  -14.6830   20.7740 O   0  0  0  0  0  0  0  0  0  0  0  0
  -22.5380  -12.0800   22.5250 H   0  0  0  0  0  0  0  0  0  0  0  0
  -21.2330  -13.2240   22.3940 H   0  0  0  0  0  0  0  0  0  0  0  0
  -25.4470  -15.3200   20.3580 N   0  0  0  0  0  0  0  0  0  0  0  0
  -24.6880  -15.9710   20.5260 H   0  0  0  0  0  0  0  0  0  0  0  0
  -26.2720  -15.7660   19.9800 H   0  0  0  0  0  0  0  0  0  0  0  0
  -28.8860  -23.3650   20.5670 C   0  0  0  0  0  0  0  0  0  0  0  0
  -29.4180  -23.5980   21.6560 O   0  0  0  0  0  0  0  0  0  0  0  0
  -28.0790  -24.6530   19.8670 C   0  0  0  0  0  2  0  0  0  0  0  0
  -28.2580  -26.1590   20.3080 O   0  0  0  0  0  0  0  0  0  0  0  0
  -24.6240  -31.8990   23.2420 C   0  0  0  0  0  0  0  0  0  0  0  0
  -27.2160  -27.1670   20.2070 C   0  0  0  0  0  0  0  0  0  0  0  0
  -23.4330  -30.5040   21.5940 C   0  0  0  0  0  3  0  0  0  0  0  0
  -24.8890  -28.9340   20.1670 C   0  0  0  0  0  0  0  0  0  0  0  0
  -25.9880  -30.7650   21.4420 C   0  0  0  0  0  2  0  0  0  0  0  0
  -26.0660  -29.3720   20.7860 C   0  0  0  0  0  0  0  0  0  0  0  0
  -27.2270  -28.5030   20.7930 C   0  0  0  0  0  3  0  0  0  0  0  0
  -26.0160  -26.8480   19.5330 C   0  0  0  0  0  3  0  0  0  0  0  0
  -24.8790  -27.6880   19.5230 C   0  0  0  0  0  3  0  0  0  0  0  0
  -23.6600  -29.8310   20.2150 C   0  0  0  0  0  2  0  0  0  0  0  0
  -24.7010  -31.0790   22.1480 N   0  0  0  0  0  0  0  0  0  0  0  0
  -23.5350  -32.1810   23.7660 O   0  0  0  0  0  0  0  0  0  0  0  0
  -22.7500  -29.4950   22.5530 C   0  0  0  0  0  0  0  0  0  0  0  0
  -21.4250  -29.3140   22.4140 N   0  0  0  0  0  0  0  0  0  0  0  0
  -23.4180  -28.8770   23.3870 O   0  0  0  0  0  0  0  0  0  0  0  0
  -20.9430  -29.8630   21.7170 H   0  0  0  0  0  0  0  0  0  0  0  0
  -18.0460  -28.0970   22.8990 C   0  0  0  0  0  0  0  0  0  0  0  0
  -20.6030  -28.3720   23.1780 C   0  0  0  0  0  3  0  0  0  0  0  0
  -20.7140  -26.9410   22.6020 C   0  0  0  0  0  2  0  0  0  0  0  0
  -19.6190  -26.6160   21.5820 C   0  0  0  0  0  2  0  0  0  0  0  0
  -18.2330  -26.7520   22.2190 C   0  0  0  0  0  2  0  0  0  0  0  0
  -19.1590  -28.8650   23.3350 C   0  0  0  0  0  0  0  0  0  0  0  0
  -18.9300  -30.1230   23.9330 C   0  0  0  0  0  3  0  0  0  0  0  0
  -17.6200  -30.6150   24.0970 C   0  0  0  0  0  3  0  0  0  0  0  0
  -16.5220  -29.8450   23.6760 C   0  0  0  0  0  3  0  0  0  0  0  0
  -16.7370  -28.5880   23.0820 C   0  0  0  0  0  3  0  0  0  0  0  0
  -25.8980  -32.5360   23.8750 C   0  0  0  0  0  3  0  0  0  0  0  0
  -25.5870  -33.9400   24.1920 N   0  0  0  0  0  0  0  0  0  0  0  0
  -25.9150  -34.9870   23.4250 C   0  0  0  0  0  0  0  0  0  0  0  0
  -26.5760  -34.8740   22.3890 O   0  0  0  0  0  0  0  0  0  0  0  0
  -25.0000  -34.1010   24.9970 H   0  0  0  0  0  0  0  0  0  0  0  0
  -24.1870  -36.7850   23.0730 C   0  0  0  0  0  1  0  0  0  0  0  0
  -25.4360  -36.3820   23.8770 C   0  0  0  0  0  3  0  0  0  0  0  0
  -27.5710  -37.2800   24.6890 C   0  0  0  0  0  1  0  0  0  0  0  0
  -26.4680  -37.4320   23.7440 N   0  0  0  0  0  0  0  0  0  0  0  0
  -26.0640  -38.3540   23.8760 H   0  0  0  0  0  0  0  0  0  0  0  0
  -26.3910  -31.7790   25.1700 C   0  0  1  0  0  0  0  0  0  0  0  0
  -25.2790  -31.5560   26.2230 C   0  0  0  0  0  1  0  0  0  0  0  0
  -26.9770  -30.3950   24.8090 C   0  0  0  0  0  1  0  0  0  0  0  0
  -27.5330  -32.5780   25.8420 C   0  0  0  0  0  1  0  0  0  0  0  0
  1  4  1  0
  1  5  1  0
  3  7  1  0
  4 46  1  0
  4  2  1  0
  5  3  1  0
  5  6  1  0
  6  2  1  0
  7 16  1  0
  7  6  1  0
  8 16  1  0
  9 14  1  0
 10 11  1  0
 10  9  1  0
 12 11  1  0
 12 21  1  0
 12 13  1  0
 14  8  1  0
 14 13  1  0
 15  8  2  0
 16 17  1  0
 18 19  2  0
 19 38  1  0
 20 19  1  0
 20 23  1  0
 21 22  1  0
 21 18  1  0
 22 20  2  0
 23 24  1  0
 24 25  2  0
 26 29  1  0
 26 25  1  0
 27 26  2  0
 28 27  1  0
 28 23  2  0
 29 30  1  0
 30 31  1  0
 31 32  2  0
 33 32  1  0
 33 37  1  0
 34 33  2  0
 35 30  2  0
 35 34  1  0
 36 35  1  0
 38 39  1  0
 39 42  1  0
 39 41  1  0
 40 38  2  0
 43 18  1  0
 43 44  1  0
 45 43  1  0
 46 47  2  0
 48 49  1  0
 48 46  1  0
 50 61  2  0
 51 49  1  0
 51 56  1  0
 52 60  1  0
 52 62  1  0
 53 59  1  0
 53 55  1  0
 54 60  1  0
 55 56  2  0
 55 54  1  0
 57 51  2  0
 58 57  1  0
 58 53  2  0
 59 52  1  0
 60 50  1  0
 62 64  2  0
 63 62  1  0
 65 63  1  0
 66 75  2  0
 66 71  1  0
 67 63  1  0
 67 71  1  0
 68 67  1  0
 69 70  1  0
 69 68  1  0
 70 66  1  0
 71 72  2  0
 72 73  1  0
 74 73  2  0
 75 74  1  0
 76 50  1  0
 76 77  1  0
 76 86  1  0
 77 80  1  0
 78 82  1  0
 78 77  1  0
 79 78  2  0
 82 81  1  0
 84 85  1  0
 84 82  1  0
 84 83  1  0
 86 89  1  1
 86 87  1  0
 88 86  1  0
M  ISO  4   8 100  16 100  48 101  49 101
M  END
>  <TORSDO>  (70) 
F 18

>  <SCORE>  (70) 
-14.643

>  <name>  (70) 
70

>  <ligand_id>  (70) 
70

>  <original_smiles>  (70) 
[H]c1c([H])c([H])c2c(c1[H])C([H])([H])C([H])([H])C([H])([H])C2([H])N([H])C(=O)C1([H])N(C(=O)C([H])(N([H])C(=O)C([H])(N([H])C([H])([H])[H])C([H])([H])[H])C(C([H])([H])[H])(C([H])([H])[H])C([H])([H])[H])C([H])([H])c2c([H])c(OC([H])([H])C(=O)C3([H])C([H])([H])C4([H])C([H])([H])C([H])(N([H])C(=O)N5C([H])([H])C([H])([H])C([H])([H])C([H])(n6nc(-c7c([H])c([H])c(Oc8c([H])c([H])c(F)c([H])c8F)c([H])c7[H])c(C(=O)N([H])[H])c6N([H])[H])C5([H])[H])C4([H])C3([H])[H])c([H])c([H])c2C1([H])[H]

>  <smiles>  (70) 
[H]c1c([H])c([H])c2c(c1[H])C([H])([H])C([H])([H])C([H])([H])C2([H])N([H])C(=O)C1([H])N(C(=O)C([H])(N([H])C(=O)C([H])(N([H])C([H])([H])[H])C([H])([H])[H])C(C([H])([H])[H])(C([H])([H])[H])C([H])([H])[H])C([H])([H])c2c([H])c(OC([H])([H])C(=O)C3([H])C([H])([H])C4([H])C([H])([H])C([H])(N([H])C(=O)N5C([H])([H])C([H])([H])C([H])([H])C([H])(n6nc(-c7c([H])c([H])c(Oc8c([H])c([H])c(F)c([H])c8F)c([H])c7[H])c(C(=O)N([H])[H])c6N([H])[H])C5([H])[H])C4([H])C3([H])[H])c([H])c([H])c2C1([H])[H]

$$$$
71:0:0
     RDKit          3D

 90 98  0  0  1  0  0  0  0  0999 V2000
  -29.3120  -22.4320   21.9430 C   0  0  0  0  0  2  0  0  0  0  0  0
  -28.8230  -23.8720   21.7400 C   0  0  0  0  0  2  0  0  0  0  0  0
  -29.2200  -22.8750   19.5600 C   0  0  0  0  0  2  0  0  0  0  0  0
  -29.0010  -21.7480   20.6080 C   0  0  0  0  0  3  0  0  0  0  0  0
  -29.2360  -24.2420   20.3080 C   0  0  0  0  0  3  0  0  0  0  0  0
  -29.7800  -20.4260   20.3910 C   0  0  0  0  0  0  0  0  0  0  0  0
  -30.6300  -20.3120   19.5060 O   0  0  0  0  0  0  0  0  0  0  0  0
  -29.4450  -19.2460   21.3260 C   0  0  0  0  0  2  0  0  0  0  0  0
  -29.4540  -17.8290   20.6730 C   0  0  0  0  0  2  0  0  0  0  0  0
  -30.4520  -16.8300   21.3140 C   0  0  0  0  0  2  0  0  0  0  0  0
  -30.7400  -14.4970   20.3500 C   0  0  0  0  0  0  0  0  0  0  0  0
  -30.4170  -12.3740   19.1240 C   0  0  0  0  0  2  0  0  0  0  0  0
  -29.4480  -12.5980   17.9420 C   0  0  0  0  0  2  0  0  0  0  0  0
  -27.9790  -12.4730   18.3910 C   0  0  0  0  0  2  0  0  0  0  0  0
  -27.6760  -13.2930   19.6740 C   0  0  0  0  0  3  0  0  0  0  0  0
  -28.7420  -13.0130   20.7560 C   0  0  0  0  0  2  0  0  0  0  0  0
  -30.0640  -13.3280   20.1850 N   0  0  0  0  0  0  0  0  0  0  0  0
  -31.8310  -14.7280   19.8210 O   0  0  0  0  0  0  0  0  0  0  0  0
  -30.0780  -15.4300   21.0570 N   0  0  0  0  0  0  0  0  0  0  0  0
  -29.1980  -15.1240   21.4490 H   0  0  0  0  0  0  0  0  0  0  0  0
  -25.2920  -13.9340   20.4050 C   0  0  0  0  0  0  0  0  0  0  0  0
  -24.2190  -13.1760   20.7910 C   0  0  0  0  0  0  0  0  0  0  0  0
  -24.6640  -11.8200   20.7620 C   0  0  0  0  0  0  0  0  0  0  0  0
  -26.3260  -13.0380   20.1700 N   0  0  0  0  0  0  0  0  0  0  0  0
  -25.9500  -11.7640   20.4400 N   0  0  0  0  0  0  0  0  0  0  0  0
  -23.9260  -10.5680   20.9730 C   0  0  0  0  0  0  0  0  0  0  0  0
  -24.3700   -9.5980   21.8990 C   0  0  0  0  0  3  0  0  0  0  0  0
  -23.6350   -8.4080   22.0970 C   0  0  0  0  0  3  0  0  0  0  0  0
  -22.4420   -8.1810   21.3680 C   0  0  0  0  0  0  0  0  0  0  0  0
  -22.0200   -9.1400   20.4310 C   0  0  0  0  0  3  0  0  0  0  0  0
  -22.7530  -10.3210   20.2320 C   0  0  0  0  0  3  0  0  0  0  0  0
  -21.6800   -7.0450   21.4740 O   0  0  0  0  0  0  0  0  0  0  0  0
  -21.6540   -6.3000   22.6260 C   0  0  0  0  0  0  0  0  0  0  0  0
  -21.2810   -6.8590   23.8670 C   0  0  0  0  0  3  0  0  0  0  0  0
  -21.2030   -6.0410   25.0120 C   0  0  0  0  0  3  0  0  0  0  0  0
  -21.4840   -4.6660   24.9160 C   0  0  0  0  0  0  0  0  0  0  0  0
  -21.8480   -4.1060   23.6790 C   0  0  0  0  0  3  0  0  0  0  0  0
  -21.9290   -4.9210   22.5370 C   0  0  0  0  0  0  0  0  0  0  0  0
  -22.2600   -4.3720   21.3430 F   0  0  0  0  0  0  0  0  0  0  0  0
  -21.4010   -3.8790   26.0130 F   0  0  0  0  0  0  0  0  0  0  0  0
  -22.8320  -13.6720   21.0800 C   0  0  0  0  0  0  0  0  0  0  0  0
  -22.1100  -12.9890   21.9620 N   0  0  0  0  0  0  0  0  0  0  0  0
  -22.3950  -14.6980   20.5580 O   0  0  0  0  0  0  0  0  0  0  0  0
  -22.4790  -12.1570   22.4020 H   0  0  0  0  0  0  0  0  0  0  0  0
  -21.1800  -13.2980   22.2000 H   0  0  0  0  0  0  0  0  0  0  0  0
  -25.4740  -15.3010   20.2170 N   0  0  0  0  0  0  0  0  0  0  0  0
  -24.7210  -15.9700   20.3320 H   0  0  0  0  0  0  0  0  0  0  0  0
  -26.3290  -15.7220   19.8790 H   0  0  0  0  0  0  0  0  0  0  0  0
  -28.3200  -25.3080   19.6440 C   0  0  0  0  0  2  0  0  0  0  0  0
  -28.3730  -26.6500   20.2010 O   0  0  0  0  0  0  0  0  0  0  0  0
  -24.6000  -31.9110   23.2580 C   0  0  0  0  0  0  0  0  0  0  0  0
  -27.2180  -27.4280   20.1550 C   0  0  0  0  0  0  0  0  0  0  0  0
  -23.3890  -30.5140   21.6210 C   0  0  0  0  0  3  0  0  0  0  0  0
  -24.8340  -28.9860   20.1800 C   0  0  0  0  0  0  0  0  0  0  0  0
  -25.9240  -30.8500   21.4260 C   0  0  0  0  0  2  0  0  0  0  0  0
  -26.0000  -29.4820   20.7800 C   0  0  0  0  0  0  0  0  0  0  0  0
  -27.1880  -28.7050   20.7770 C   0  0  0  0  0  3  0  0  0  0  0  0
  -26.0320  -26.9860   19.5180 C   0  0  0  0  0  3  0  0  0  0  0  0
  -24.8510  -27.7390   19.5450 C   0  0  0  0  0  3  0  0  0  0  0  0
  -23.5890  -29.8400   20.2400 C   0  0  0  0  0  2  0  0  0  0  0  0
  -24.6570  -31.1090   22.1570 N   0  0  0  0  0  0  0  0  0  0  0  0
  -23.5200  -32.1830   23.8000 O   0  0  0  0  0  0  0  0  0  0  0  0
  -22.7460  -29.4850   22.5800 C   0  0  0  0  0  0  0  0  0  0  0  0
  -21.4210  -29.3000   22.4550 N   0  0  0  0  0  0  0  0  0  0  0  0
  -23.4310  -28.8580   23.3930 O   0  0  0  0  0  0  0  0  0  0  0  0
  -20.9300  -29.8570   21.7710 H   0  0  0  0  0  0  0  0  0  0  0  0
  -18.0500  -28.0870   22.9340 C   0  0  0  0  0  0  0  0  0  0  0  0
  -20.6050  -28.3570   23.2200 C   0  0  0  0  0  3  0  0  0  0  0  0
  -20.7160  -26.9260   22.6450 C   0  0  0  0  0  2  0  0  0  0  0  0
  -19.6190  -26.5940   21.6290 C   0  0  0  0  0  2  0  0  0  0  0  0
  -18.2320  -26.7370   22.2630 C   0  0  0  0  0  2  0  0  0  0  0  0
  -19.1620  -28.8570   23.3680 C   0  0  0  0  0  0  0  0  0  0  0  0
  -18.9350  -30.1220   23.9510 C   0  0  0  0  0  3  0  0  0  0  0  0
  -17.6260  -30.6170   24.1090 C   0  0  0  0  0  3  0  0  0  0  0  0
  -16.5280  -29.8420   23.6990 C   0  0  0  0  0  3  0  0  0  0  0  0
  -16.7400  -28.5810   23.1140 C   0  0  0  0  0  3  0  0  0  0  0  0
  -25.8880  -32.5400   23.8760 C   0  0  0  0  0  3  0  0  0  0  0  0
  -25.5780  -33.9390   24.2040 N   0  0  0  0  0  0  0  0  0  0  0  0
  -25.9050  -34.9900   23.4410 C   0  0  0  0  0  0  0  0  0  0  0  0
  -26.5710  -34.8860   22.4070 O   0  0  0  0  0  0  0  0  0  0  0  0
  -24.9930  -34.0950   25.0100 H   0  0  0  0  0  0  0  0  0  0  0  0
  -24.1700  -36.7770   23.0950 C   0  0  0  0  0  1  0  0  0  0  0  0
  -25.4170  -36.3780   23.9000 C   0  0  0  0  0  3  0  0  0  0  0  0
  -27.5560  -37.2670   24.7100 C   0  0  0  0  0  1  0  0  0  0  0  0
  -26.4440  -37.4340   23.7790 N   0  0  0  0  0  0  0  0  0  0  0  0
  -26.0370  -38.3530   23.9280 H   0  0  0  0  0  0  0  0  0  0  0  0
  -26.4050  -31.7730   25.1530 C   0  0  1  0  0  0  0  0  0  0  0  0
  -25.3100  -31.5380   26.2220 C   0  0  0  0  0  1  0  0  0  0  0  0
  -26.9920  -30.3960   24.7630 C   0  0  0  0  0  1  0  0  0  0  0  0
  -27.5560  -32.5710   25.8100 C   0  0  0  0  0  1  0  0  0  0  0  0
  2  1  1  0
  3  5  1  0
  3  4  1  0
  4  6  1  0
  4  1  1  0
  5 49  1  0
  5  2  1  0
  6  8  1  0
  7  6  2  0
  9 10  1  0
  9  8  1  0
 11 19  1  0
 12 17  1  0
 13 14  1  0
 13 12  1  0
 15 14  1  0
 15 24  1  0
 15 16  1  0
 17 11  1  0
 17 16  1  0
 18 11  2  0
 19 10  1  0
 19 20  1  0
 21 22  2  0
 22 41  1  0
 23 22  1  0
 23 26  1  0
 24 21  1  0
 24 25  1  0
 25 23  2  0
 26 27  1  0
 27 28  2  0
 29 32  1  0
 29 28  1  0
 30 29  2  0
 31 30  1  0
 31 26  2  0
 32 33  1  0
 33 34  1  0
 34 35  2  0
 36 35  1  0
 36 40  1  0
 37 36  2  0
 38 33  2  0
 38 37  1  0
 39 38  1  0
 41 42  1  0
 42 45  1  0
 42 44  1  0
 43 41  2  0
 46 47  1  0
 46 21  1  0
 48 46  1  0
 49 50  1  0
 51 62  2  0
 52 50  1  0
 52 57  1  0
 53 61  1  0
 53 63  1  0
 54 60  1  0
 54 56  1  0
 55 61  1  0
 56 55  1  0
 57 56  2  0
 58 59  1  0
 58 52  2  0
 59 54  2  0
 60 53  1  0
 61 51  1  0
 63 65  2  0
 64 63  1  0
 66 64  1  0
 67 76  2  0
 67 72  1  0
 68 64  1  0
 68 72  1  0
 69 68  1  0
 70 71  1  0
 70 69  1  0
 71 67  1  0
 72 73  2  0
 73 74  1  0
 75 74  2  0
 76 75  1  0
 77 51  1  0
 77 78  1  0
 77 87  1  0
 78 81  1  0
 79 83  1  0
 79 78  1  0
 80 79  2  0
 83 82  1  0
 85 83  1  0
 85 86  1  0
 85 84  1  0
 87 90  1  1
 87 88  1  0
 89 87  1  0
M  ISO  4  11 100  19 100  49 101  50 101
M  END
>  <TORSDO>  (71) 
F 21

>  <SCORE>  (71) 
-13.290

>  <name>  (71) 
71

>  <ligand_id>  (71) 
71

>  <original_smiles>  (71) 
[H]c1c([H])c([H])c2c(c1[H])C([H])([H])C([H])([H])C([H])([H])C2([H])N([H])C(=O)C1([H])N(C(=O)C([H])(N([H])C(=O)C([H])(N([H])C([H])([H])[H])C([H])([H])[H])C(C([H])([H])[H])(C([H])([H])[H])C([H])([H])[H])C([H])([H])c2c([H])c(OC([H])([H])C3([H])C([H])([H])C([H])([H])C([H])(C(=O)C([H])([H])C([H])([H])C([H])([H])N([H])C(=O)N4C([H])([H])C([H])([H])C([H])([H])C([H])(n5nc(-c6c([H])c([H])c(Oc7c([H])c([H])c(F)c([H])c7F)c([H])c6[H])c(C(=O)N([H])[H])c5N([H])[H])C4([H])[H])C3([H])[H])c([H])c([H])c2C1([H])[H]

>  <smiles>  (71) 
[H]c1c([H])c([H])c2c(c1[H])C([H])([H])C([H])([H])C([H])([H])C2([H])N([H])C(=O)C1([H])N(C(=O)C([H])(N([H])C(=O)C([H])(N([H])C([H])([H])[H])C([H])([H])[H])C(C([H])([H])[H])(C([H])([H])[H])C([H])([H])[H])C([H])([H])c2c([H])c(OC([H])([H])C3([H])C([H])([H])C([H])([H])C([H])(C(=O)C([H])([H])C([H])([H])C([H])([H])N([H])C(=O)N4C([H])([H])C([H])([H])C([H])([H])C([H])(n5nc(-c6c([H])c([H])c(Oc7c([H])c([H])c(F)c([H])c7F)c([H])c6[H])c(C(=O)N([H])[H])c5N([H])[H])C4([H])[H])C3([H])[H])c([H])c([H])c2C1([H])[H]

$$$$
72:0:0
     RDKit          3D

 95104  0  0  1  0  0  0  0  0999 V2000
  -28.9560  -21.3250   18.6640 C   0  0  0  0  0  0  0  0  0  0  0  0
  -28.1210  -22.3710   18.6390 N   0  0  0  0  0  0  0  0  0  0  0  0
  -30.1560  -21.4390   18.3980 O   0  0  0  0  0  0  0  0  0  0  0  0
  -27.1520  -22.2010   18.8780 H   0  0  0  0  0  0  0  0  0  0  0  0
  -27.2420  -19.5570   18.0240 C   0  0  0  0  0  2  0  0  0  0  0  0
  -27.9540  -18.7140   16.9500 C   0  0  0  0  0  2  0  0  0  0  0  0
  -28.8070  -16.7870   18.4810 C   0  0  0  0  0  2  0  0  0  0  0  0
  -28.3360  -19.9610   19.0500 C   0  0  0  0  0  3  0  0  0  0  0  0
  -29.0990  -18.0480   17.6890 C   0  0  0  0  0  3  0  0  0  0  0  0
  -29.3330  -18.7920   19.0010 C   0  0  0  0  0  3  0  0  0  0  0  0
  -29.1290  -17.4850   19.8180 C   0  0  1  0  0  0  0  0  0  0  0  0
  -27.9870  -17.4770   20.8540 C   0  0  0  0  0  1  0  0  0  0  0  0
  -30.3950  -16.9760   20.5330 C   0  0  0  0  0  2  0  0  0  0  0  0
  -30.9640  -14.5760   20.3640 C   0  0  0  0  0  0  0  0  0  0  0  0
  -30.6500  -12.4450   19.1910 C   0  0  0  0  0  2  0  0  0  0  0  0
  -29.7020  -12.6980   18.0020 C   0  0  0  0  0  2  0  0  0  0  0  0
  -28.2260  -12.5750   18.4370 C   0  0  0  0  0  2  0  0  0  0  0  0
  -27.9050  -13.3740   19.7290 C   0  0  0  0  0  3  0  0  0  0  0  0
  -28.9680  -13.1040   20.8190 C   0  0  0  0  0  2  0  0  0  0  0  0
  -30.2950  -13.4010   20.2480 N   0  0  0  0  0  0  0  0  0  0  0  0
  -32.0700  -14.7860   19.8600 O   0  0  0  0  0  0  0  0  0  0  0  0
  -30.2390  -15.5680   20.8900 N   0  0  0  0  0  0  0  0  0  0  0  0
  -29.3600  -15.3010   21.3030 H   0  0  0  0  0  0  0  0  0  0  0  0
  -25.4960  -13.9920   20.4090 C   0  0  0  0  0  0  0  0  0  0  0  0
  -24.4280  -13.2250   20.7820 C   0  0  0  0  0  0  0  0  0  0  0  0
  -24.8900  -11.8740   20.7600 C   0  0  0  0  0  0  0  0  0  0  0  0
  -26.5470  -13.1130   20.1970 N   0  0  0  0  0  0  0  0  0  0  0  0
  -26.1810  -11.8310   20.4540 N   0  0  0  0  0  0  0  0  0  0  0  0
  -24.1660  -10.6150   20.9530 C   0  0  0  0  0  0  0  0  0  0  0  0
  -24.5750   -9.6680   21.9180 C   0  0  0  0  0  3  0  0  0  0  0  0
  -23.8450   -8.4730   22.0980 C   0  0  0  0  0  3  0  0  0  0  0  0
  -22.6970   -8.2150   21.3110 C   0  0  0  0  0  0  0  0  0  0  0  0
  -22.3100   -9.1520   20.3370 C   0  0  0  0  0  3  0  0  0  0  0  0
  -23.0380  -10.3380   20.1540 C   0  0  0  0  0  3  0  0  0  0  0  0
  -21.9440   -7.0710   21.4000 O   0  0  0  0  0  0  0  0  0  0  0  0
  -21.8410   -6.3670   22.5730 C   0  0  0  0  0  0  0  0  0  0  0  0
  -21.2910   -6.9410   23.7380 C   0  0  0  0  0  3  0  0  0  0  0  0
  -21.1370   -6.1630   24.9020 C   0  0  0  0  0  3  0  0  0  0  0  0
  -21.5260   -4.8090   24.9020 C   0  0  0  0  0  0  0  0  0  0  0  0
  -22.0690   -4.2350   23.7390 C   0  0  0  0  0  3  0  0  0  0  0  0
  -22.2260   -5.0110   22.5780 C   0  0  0  0  0  0  0  0  0  0  0  0
  -22.7300   -4.4460   21.4540 F   0  0  0  0  0  0  0  0  0  0  0  0
  -21.3720   -4.0590   26.0170 F   0  0  0  0  0  0  0  0  0  0  0  0
  -23.0310  -13.7060   21.0570 C   0  0  0  0  0  0  0  0  0  0  0  0
  -22.3030  -13.0140   21.9240 N   0  0  0  0  0  0  0  0  0  0  0  0
  -22.5930  -14.7320   20.5380 O   0  0  0  0  0  0  0  0  0  0  0  0
  -22.6660  -12.1820   22.3670 H   0  0  0  0  0  0  0  0  0  0  0  0
  -21.3660  -13.3220   22.1490 H   0  0  0  0  0  0  0  0  0  0  0  0
  -25.6440  -15.3620   20.2160 N   0  0  0  0  0  0  0  0  0  0  0  0
  -24.8540  -15.9940   20.2790 H   0  0  0  0  0  0  0  0  0  0  0  0
  -26.4890  -15.8120   19.8890 H   0  0  0  0  0  0  0  0  0  0  0  0
  -28.4820  -23.7380   18.2760 C   0  0  0  0  0  2  0  0  0  0  0  0
  -28.3840  -24.6560   19.5000 C   0  0  0  0  0  2  0  0  0  0  0  0
  -28.7340  -26.1110   19.1670 C   0  0  0  0  0  2  0  0  0  0  0  0
  -28.4450  -26.9490   20.2830 O   0  0  0  0  0  0  0  0  0  0  0  0
  -24.5170  -32.0260   23.3440 C   0  0  0  0  0  0  0  0  0  0  0  0
  -27.2340  -27.6010   20.3020 C   0  0  0  0  0  0  0  0  0  0  0  0
  -23.3430  -30.6170   21.6860 C   0  0  0  0  0  3  0  0  0  0  0  0
  -24.8210  -29.0730   20.3070 C   0  0  0  0  0  0  0  0  0  0  0  0
  -25.8770  -30.9680   21.5490 C   0  0  0  0  0  2  0  0  0  0  0  0
  -25.9680  -29.5990   20.9180 C   0  0  0  0  0  0  0  0  0  0  0  0
  -27.1680  -28.8620   20.9300 C   0  0  0  0  0  3  0  0  0  0  0  0
  -26.0610  -27.0740   19.7090 C   0  0  0  0  0  3  0  0  0  0  0  0
  -24.8570  -27.8020   19.7170 C   0  0  0  0  0  3  0  0  0  0  0  0
  -23.5820  -29.9340   20.3160 C   0  0  0  0  0  2  0  0  0  0  0  0
  -24.5950  -31.2200   22.2490 N   0  0  0  0  0  0  0  0  0  0  0  0
  -23.4250  -32.3020   23.8590 O   0  0  0  0  0  0  0  0  0  0  0  0
  -22.6760  -29.5950   22.6350 C   0  0  0  0  0  0  0  0  0  0  0  0
  -21.3540  -29.4130   22.4840 N   0  0  0  0  0  0  0  0  0  0  0  0
  -23.3440  -28.9690   23.4610 O   0  0  0  0  0  0  0  0  0  0  0  0
  -20.8740  -29.9740   21.7930 H   0  0  0  0  0  0  0  0  0  0  0  0
  -17.9640  -28.2580   22.9550 C   0  0  0  0  0  0  0  0  0  0  0  0
  -20.5230  -28.4780   23.2410 C   0  0  0  0  0  3  0  0  0  0  0  0
  -20.6060  -27.0500   22.6540 C   0  0  0  0  0  2  0  0  0  0  0  0
  -19.5040  -26.7510   21.6320 C   0  0  0  0  0  2  0  0  0  0  0  0
  -18.1230  -26.9100   22.2710 C   0  0  0  0  0  2  0  0  0  0  0  0
  -19.0900  -29.0010   23.3970 C   0  0  0  0  0  0  0  0  0  0  0  0
  -18.8860  -30.2640   23.9940 C   0  0  0  0  0  3  0  0  0  0  0  0
  -17.5870  -30.7820   24.1550 C   0  0  0  0  0  3  0  0  0  0  0  0
  -16.4740  -30.0360   23.7300 C   0  0  0  0  0  3  0  0  0  0  0  0
  -16.6640  -28.7750   23.1360 C   0  0  0  0  0  3  0  0  0  0  0  0
  -25.7910  -32.6570   23.9870 C   0  0  0  0  0  3  0  0  0  0  0  0
  -25.4860  -34.0620   24.2860 N   0  0  0  0  0  0  0  0  0  0  0  0
  -25.8380  -35.0970   23.5130 C   0  0  0  0  0  0  0  0  0  0  0  0
  -26.5220  -34.9720   22.4930 O   0  0  0  0  0  0  0  0  0  0  0  0
  -24.8820  -34.2370   25.0770 H   0  0  0  0  0  0  0  0  0  0  0  0
  -24.1310  -36.8950   23.0840 C   0  0  0  0  0  1  0  0  0  0  0  0
  -25.3460  -36.4950   23.9350 C   0  0  0  0  0  3  0  0  0  0  0  0
  -27.4550  -37.3850   24.8210 C   0  0  0  0  0  1  0  0  0  0  0  0
  -26.3900  -37.5380   23.8360 N   0  0  0  0  0  0  0  0  0  0  0  0
  -25.9820  -38.4640   23.9530 H   0  0  0  0  0  0  0  0  0  0  0  0
  -26.2790  -31.9020   25.2850 C   0  0  1  0  0  0  0  0  0  0  0  0
  -25.1600  -31.6700   26.3270 C   0  0  0  0  0  1  0  0  0  0  0  0
  -26.8830  -30.5230   24.9240 C   0  0  0  0  0  1  0  0  0  0  0  0
  -27.4090  -32.7130   25.9660 C   0  0  0  0  0  1  0  0  0  0  0  0
  2  1  1  0
  2  4  1  0
  3  1  2  0
  5  8  1  0
  6  5  1  0
  7 11  1  0
  8  1  1  0
  9  6  1  0
  9  7  1  0
  9 10  1  0
 10  8  1  0
 10 11  1  0
 11 13  1  0
 11 12  1  1
 13 22  1  0
 14 22  1  0
 15 20  1  0
 16 17  1  0
 16 15  1  0
 17 18  1  0
 18 27  1  0
 18 19  1  0
 20 14  1  0
 20 19  1  0
 21 14  2  0
 22 23  1  0
 24 25  2  0
 25 44  1  0
 26 25  1  0
 26 29  1  0
 27 24  1  0
 27 28  1  0
 28 26  2  0
 29 30  1  0
 30 31  2  0
 32 35  1  0
 32 31  1  0
 33 32  2  0
 34 33  1  0
 34 29  2  0
 35 36  1  0
 36 41  2  0
 36 37  1  0
 37 38  2  0
 39 38  1  0
 39 43  1  0
 40 39  2  0
 41 40  1  0
 42 41  1  0
 44 45  1  0
 45 48  1  0
 45 47  1  0
 46 44  2  0
 49 50  1  0
 49 24  1  0
 51 49  1  0
 52  2  1  0
 52 53  1  0
 54 53  1  0
 54 55  1  0
 55 57  1  0
 56 67  2  0
 56 82  1  0
 57 62  1  0
 58 66  1  0
 58 68  1  0
 59 65  1  0
 59 61  1  0
 60 66  1  0
 61 62  2  0
 61 60  1  0
 63 64  1  0
 63 57  2  0
 64 59  2  0
 65 58  1  0
 66 56  1  0
 68 70  2  0
 69 68  1  0
 69 73  1  0
 71 69  1  0
 72 81  2  0
 72 77  1  0
 73 77  1  0
 74 73  1  0
 75 76  1  0
 75 74  1  0
 76 72  1  0
 77 78  2  0
 78 79  1  0
 80 79  2  0
 81 80  1  0
 82 83  1  0
 82 92  1  0
 83 86  1  0
 84 88  1  0
 84 83  1  0
 85 84  2  0
 87 88  1  0
 90 88  1  0
 90 91  1  0
 90 89  1  0
 92 95  1  1
 92 93  1  0
 94 92  1  0
M  ISO  4  14 100  22 100  54 101  55 101
M  END
>  <TORSDO>  (72) 
F 21

>  <SCORE>  (72) 
-12.857

>  <name>  (72) 
72

>  <ligand_id>  (72) 
72

>  <original_smiles>  (72) 
[H]c1c([H])c([H])c2c(c1[H])C([H])([H])C([H])([H])C([H])([H])C2([H])N([H])C(=O)C1([H])N(C(=O)C([H])(N([H])C(=O)C([H])(N([H])C([H])([H])[H])C([H])([H])[H])C(C([H])([H])[H])(C([H])([H])[H])C([H])([H])[H])C([H])([H])c2c([H])c(OC([H])([H])C([H])([H])C([H])([H])N([H])C(=O)C3([H])C([H])([H])C([H])([H])C4([H])C([H])([H])C(C([H])([H])[H])(C([H])([H])N([H])C(=O)N5C([H])([H])C([H])([H])C([H])([H])C([H])(n6nc(-c7c([H])c([H])c(Oc8c([H])c([H])c(F)c([H])c8F)c([H])c7[H])c(C(=O)N([H])[H])c6N([H])[H])C5([H])[H])C34[H])c([H])c([H])c2C1([H])[H]

>  <smiles>  (72) 
[H]c1c([H])c([H])c2c(c1[H])C([H])([H])C([H])([H])C([H])([H])C2([H])N([H])C(=O)C1([H])N(C(=O)C([H])(N([H])C(=O)C([H])(N([H])C([H])([H])[H])C([H])([H])[H])C(C([H])([H])[H])(C([H])([H])[H])C([H])([H])[H])C([H])([H])c2c([H])c(OC([H])([H])C([H])([H])C([H])([H])N([H])C(=O)C3([H])C([H])([H])C([H])([H])C4([H])C([H])([H])C(C([H])([H])[H])(C([H])([H])N([H])C(=O)N5C([H])([H])C([H])([H])C([H])([H])C([H])(n6nc(-c7c([H])c([H])c(Oc8c([H])c([H])c(F)c([H])c8F)c([H])c7[H])c(C(=O)N([H])[H])c6N([H])[H])C5([H])[H])C34[H])c([H])c([H])c2C1([H])[H]

$$$$
73:0:0
     RDKit          3D

 96105  0  0  1  0  0  0  0  0999 V2000
  -28.5440  -22.2050   19.9820 C   0  0  0  0  0  2  0  0  0  0  0  0
  -30.8910  -22.3850   20.8480 C   0  0  0  0  0  2  0  0  0  0  0  0
  -28.4980  -20.7410   20.4770 C   0  0  0  0  0  2  0  0  0  0  0  0
  -30.8390  -20.8890   21.2490 C   0  0  0  0  0  2  0  0  0  0  0  0
  -29.5050  -23.0570   20.8390 C   0  0  0  0  0  3  0  0  0  0  0  0
  -29.8720  -20.0120   20.3880 C   0  0  2  0  0  0  0  0  0  0  0  0
  -31.0550  -19.4930   16.1900 C   0  0  0  0  0  3  0  0  0  0  0  0
  -29.7620  -19.1450   16.6190 C   0  0  0  0  0  3  0  0  0  0  0  0
  -31.9820  -20.0020   17.1170 C   0  0  0  0  0  3  0  0  0  0  0  0
  -29.3970  -19.3170   17.9680 C   0  0  0  0  0  3  0  0  0  0  0  0
  -31.6150  -20.1730   18.4650 C   0  0  0  0  0  3  0  0  0  0  0  0
  -30.3090  -19.8520   18.9120 C   0  0  0  0  0  0  0  0  0  0  0  0
  -29.6070  -24.5470   20.4090 C   0  0  0  0  0  2  0  0  0  0  0  0
  -28.2550  -25.2640   20.2220 C   0  0  0  0  0  2  0  0  0  0  0  0
  -28.3960  -26.6920   20.1860 O   0  0  0  0  0  0  0  0  0  0  0  0
  -24.5820  -31.8690   23.2500 C   0  0  0  0  0  0  0  0  0  0  0  0
  -27.2210  -27.4200   20.1710 C   0  0  0  0  0  0  0  0  0  0  0  0
  -23.3750  -30.4690   21.6090 C   0  0  0  0  0  3  0  0  0  0  0  0
  -24.8270  -28.9330   20.1840 C   0  0  0  0  0  0  0  0  0  0  0  0
  -25.9020  -30.8250   21.4100 C   0  0  0  0  0  2  0  0  0  0  0  0
  -25.9860  -29.4550   20.7690 C   0  0  0  0  0  0  0  0  0  0  0  0
  -27.1870  -28.7080   20.7550 C   0  0  0  0  0  3  0  0  0  0  0  0
  -26.0360  -26.9150   19.5830 C   0  0  0  0  0  3  0  0  0  0  0  0
  -24.8470  -27.6630   19.5890 C   0  0  0  0  0  3  0  0  0  0  0  0
  -23.5830  -29.7910   20.2290 C   0  0  0  0  0  2  0  0  0  0  0  0
  -24.6380  -31.0680   22.1480 N   0  0  0  0  0  0  0  0  0  0  0  0
  -23.5010  -32.1420   23.7900 O   0  0  0  0  0  0  0  0  0  0  0  0
  -22.7230  -29.4470   22.5680 C   0  0  0  0  0  0  0  0  0  0  0  0
  -21.3980  -29.2660   22.4390 N   0  0  0  0  0  0  0  0  0  0  0  0
  -23.4050  -28.8200   23.3830 O   0  0  0  0  0  0  0  0  0  0  0  0
  -20.9100  -29.8240   21.7530 H   0  0  0  0  0  0  0  0  0  0  0  0
  -18.0210  -28.0840   22.9370 C   0  0  0  0  0  0  0  0  0  0  0  0
  -20.5800  -28.3290   23.2080 C   0  0  0  0  0  3  0  0  0  0  0  0
  -20.6760  -26.8990   22.6280 C   0  0  0  0  0  2  0  0  0  0  0  0
  -19.5720  -26.5830   21.6140 C   0  0  0  0  0  2  0  0  0  0  0  0
  -18.1910  -26.7340   22.2590 C   0  0  0  0  0  2  0  0  0  0  0  0
  -19.1430  -28.8400   23.3680 C   0  0  0  0  0  0  0  0  0  0  0  0
  -18.9320  -30.1030   23.9600 C   0  0  0  0  0  3  0  0  0  0  0  0
  -17.6310  -30.6120   24.1270 C   0  0  0  0  0  3  0  0  0  0  0  0
  -16.5220  -29.8530   23.7140 C   0  0  0  0  0  3  0  0  0  0  0  0
  -16.7180  -28.5920   23.1250 C   0  0  0  0  0  3  0  0  0  0  0  0
  -25.8690  -32.4980   23.8700 C   0  0  0  0  0  3  0  0  0  0  0  0
  -25.5630  -33.8970   24.1960 N   0  0  0  0  0  0  0  0  0  0  0  0
  -25.9030  -34.9460   23.4350 C   0  0  0  0  0  0  0  0  0  0  0  0
  -26.5770  -34.8380   22.4070 O   0  0  0  0  0  0  0  0  0  0  0  0
  -24.9660  -34.0550   24.9940 H   0  0  0  0  0  0  0  0  0  0  0  0
  -24.1820  -36.7420   23.0620 C   0  0  0  0  0  1  0  0  0  0  0  0
  -25.4150  -36.3370   23.8860 C   0  0  0  0  0  3  0  0  0  0  0  0
  -27.5450  -37.2140   24.7360 C   0  0  0  0  0  1  0  0  0  0  0  0
  -26.4520  -37.3860   23.7810 N   0  0  0  0  0  0  0  0  0  0  0  0
  -26.0480  -38.3070   23.9250 H   0  0  0  0  0  0  0  0  0  0  0  0
  -26.3850  -31.7270   25.1460 C   0  0  1  0  0  0  0  0  0  0  0  0
  -25.2920  -31.4900   26.2130 C   0  0  0  0  0  1  0  0  0  0  0  0
  -26.9670  -30.3500   24.7510 C   0  0  0  0  0  1  0  0  0  0  0  0
  -27.5360  -32.5210   25.8070 C   0  0  0  0  0  1  0  0  0  0  0  0
  -29.7410  -18.5930   21.0320 C   0  0  0  0  0  3  0  0  0  0  0  0
  -30.9940  -17.6860   20.9240 C   0  0  0  0  0  3  0  0  0  0  0  0
  -30.9640  -16.4100   21.7990 C   0  0  0  0  0  2  0  0  0  0  0  0
  -30.7180  -14.4070   20.3250 C   0  0  0  0  0  0  0  0  0  0  0  0
  -30.3000  -12.3390   19.0410 C   0  0  0  0  0  2  0  0  0  0  0  0
  -29.3250  -12.5990   17.8780 C   0  0  0  0  0  2  0  0  0  0  0  0
  -27.8650  -12.4670   18.3520 C   0  0  0  0  0  2  0  0  0  0  0  0
  -27.5830  -13.2700   19.6500 C   0  0  0  0  0  3  0  0  0  0  0  0
  -28.6630  -12.9880   20.7170 C   0  0  0  0  0  2  0  0  0  0  0  0
  -29.9800  -13.2830   20.1230 N   0  0  0  0  0  0  0  0  0  0  0  0
  -31.7740  -14.6340   19.7290 O   0  0  0  0  0  0  0  0  0  0  0  0
  -30.2300  -15.2760   21.2270 N   0  0  0  0  0  0  0  0  0  0  0  0
  -29.3480  -15.0330   21.6540 H   0  0  0  0  0  0  0  0  0  0  0  0
  -25.2040  -13.8910   20.4120 C   0  0  0  0  0  0  0  0  0  0  0  0
  -24.1400  -13.1250   20.8070 C   0  0  0  0  0  0  0  0  0  0  0  0
  -24.5920  -11.7710   20.7660 C   0  0  0  0  0  0  0  0  0  0  0  0
  -26.2380  -13.0040   20.1590 N   0  0  0  0  0  0  0  0  0  0  0  0
  -25.8740  -11.7230   20.4270 N   0  0  0  0  0  0  0  0  0  0  0  0
  -23.8640  -10.5140   20.9740 C   0  0  0  0  0  0  0  0  0  0  0  0
  -24.3130   -9.5440   21.9000 C   0  0  0  0  0  3  0  0  0  0  0  0
  -23.5850   -8.3510   22.0950 C   0  0  0  0  0  3  0  0  0  0  0  0
  -22.3950   -8.1170   21.3660 C   0  0  0  0  0  0  0  0  0  0  0  0
  -21.9650   -9.0750   20.4300 C   0  0  0  0  0  3  0  0  0  0  0  0
  -22.6920  -10.2600   20.2330 C   0  0  0  0  0  3  0  0  0  0  0  0
  -21.6370   -6.9760   21.4720 O   0  0  0  0  0  0  0  0  0  0  0  0
  -21.6110   -6.2330   22.6250 C   0  0  0  0  0  0  0  0  0  0  0  0
  -21.2170   -6.7900   23.8620 C   0  0  0  0  0  3  0  0  0  0  0  0
  -21.1380   -5.9750   25.0080 C   0  0  0  0  0  3  0  0  0  0  0  0
  -21.4420   -4.6030   24.9190 C   0  0  0  0  0  0  0  0  0  0  0  0
  -21.8280   -4.0450   23.6870 C   0  0  0  0  0  3  0  0  0  0  0  0
  -21.9090   -4.8580   22.5430 C   0  0  0  0  0  0  0  0  0  0  0  0
  -22.2610   -4.3120   21.3550 F   0  0  0  0  0  0  0  0  0  0  0  0
  -21.3570   -3.8180   26.0170 F   0  0  0  0  0  0  0  0  0  0  0  0
  -22.7530  -13.6110   21.1140 C   0  0  0  0  0  0  0  0  0  0  0  0
  -22.0430  -12.9180   21.9980 N   0  0  0  0  0  0  0  0  0  0  0  0
  -22.3070  -14.6390   20.6050 O   0  0  0  0  0  0  0  0  0  0  0  0
  -22.4170  -12.0860   22.4300 H   0  0  0  0  0  0  0  0  0  0  0  0
  -21.1130  -13.2240   22.2460 H   0  0  0  0  0  0  0  0  0  0  0  0
  -25.3730  -15.2610   20.2310 N   0  0  0  0  0  0  0  0  0  0  0  0
  -24.6160  -15.9230   20.3580 H   0  0  0  0  0  0  0  0  0  0  0  0
  -26.2270  -15.6930   19.8990 H   0  0  0  0  0  0  0  0  0  0  0  0
  1  3  1  0
  1  5  1  0
  2  4  1  0
  5 13  1  0
  5  2  1  0
  6  3  1  0
  6 56  1  1
  6  4  1  0
  7  8  2  0
  7  9  1  0
  8 10  1  0
  9 11  2  0
 10 12  2  0
 11 12  1  0
 12  6  1  0
 14 13  1  0
 15 14  1  0
 16 27  2  0
 17 15  1  0
 17 22  1  0
 18 26  1  0
 18 28  1  0
 19 25  1  0
 19 21  1  0
 20 26  1  0
 21 20  1  0
 22 21  2  0
 23 24  1  0
 23 17  2  0
 24 19  2  0
 25 18  1  0
 26 16  1  0
 28 30  2  0
 29 28  1  0
 31 29  1  0
 32 41  2  0
 32 37  1  0
 33 29  1  0
 33 37  1  0
 34 33  1  0
 35 36  1  0
 35 34  1  0
 36 32  1  0
 37 38  2  0
 38 39  1  0
 40 39  2  0
 41 40  1  0
 42 16  1  0
 42 43  1  0
 42 52  1  0
 43 46  1  0
 44 48  1  0
 44 43  1  0
 45 44  2  0
 48 47  1  0
 50 48  1  0
 50 51  1  0
 50 49  1  0
 52 55  1  1
 52 53  1  0
 54 52  1  0
 57 56  2  0
 57 58  1  0
 59 67  1  0
 60 65  1  0
 61 62  1  0
 61 60  1  0
 63 62  1  0
 63 72  1  0
 63 64  1  0
 65 59  1  0
 65 64  1  0
 66 59  2  0
 67 68  1  0
 67 58  1  0
 69 70  2  0
 70 89  1  0
 71 70  1  0
 71 74  1  0
 72 69  1  0
 72 73  1  0
 73 71  2  0
 74 75  1  0
 75 76  2  0
 77 80  1  0
 77 76  1  0
 78 77  2  0
 79 78  1  0
 79 74  2  0
 80 81  1  0
 81 82  1  0
 82 83  2  0
 84 83  1  0
 84 88  1  0
 85 84  2  0
 86 81  2  0
 86 85  1  0
 87 86  1  0
 89 90  1  0
 90 93  1  0
 90 92  1  0
 91 89  2  0
 94 95  1  0
 94 69  1  0
 96 94  1  0
M  ISO  4  14 101  15 101  59 100  67 100
M  END
>  <TORSDO>  (73) 
F 22

>  <SCORE>  (73) 
-13.511

>  <name>  (73) 
73

>  <ligand_id>  (73) 
73

>  <original_smiles>  (73) 
[H]c1c([H])c([H])c(C2(C([H])([H])C([H])([H])C([H])([H])N([H])C(=O)N3C([H])([H])C([H])([H])C([H])([H])C([H])(n4nc(-c5c([H])c([H])c(Oc6c([H])c([H])c(F)c([H])c6F)c([H])c5[H])c(C(=O)N([H])[H])c4N([H])[H])C3([H])[H])C([H])([H])C([H])([H])C([H])(C([H])([H])C([H])([H])Oc3c([H])c([H])c4c(c3[H])C([H])([H])N(C(=O)C([H])(N([H])C(=O)C([H])(N([H])C([H])([H])[H])C([H])([H])[H])C(C([H])([H])[H])(C([H])([H])[H])C([H])([H])[H])C([H])(C(=O)N([H])C3([H])c5c([H])c([H])c([H])c([H])c5C([H])([H])C([H])([H])C3([H])[H])C4([H])[H])C([H])([H])C2([H])[H])c([H])c1[H]

>  <smiles>  (73) 
[H]c1c([H])c([H])c(C2(C([H])([H])C([H])([H])C([H])([H])N([H])C(=O)N3C([H])([H])C([H])([H])C([H])([H])C([H])(n4nc(-c5c([H])c([H])c(Oc6c([H])c([H])c(F)c([H])c6F)c([H])c5[H])c(C(=O)N([H])[H])c4N([H])[H])C3([H])[H])C([H])([H])C([H])([H])C([H])(C([H])([H])C([H])([H])Oc3c([H])c([H])c4c(c3[H])C([H])([H])N(C(=O)C([H])(N([H])C(=O)C([H])(N([H])C([H])([H])[H])C([H])([H])[H])C(C([H])([H])[H])(C([H])([H])[H])C([H])([H])[H])C([H])(C(=O)N([H])C3([H])c5c([H])c([H])c([H])c([H])c5C([H])([H])C([H])([H])C3([H])[H])C4([H])[H])C([H])([H])C2([H])[H])c([H])c1[H]

$$$$
74:0:0
     RDKit          3D

 90 97  0  0  1  0  0  0  0  0999 V2000
  -28.2580  -24.9530   19.5500 C   0  0  1  0  0  0  0  0  0  0  0  0
  -26.6050  -22.8920   19.2570 C   0  0  0  0  0  1  0  0  0  0  0  0
  -26.9870  -24.1660   20.0430 C   0  0  0  0  0  2  0  0  0  0  0  0
  -27.8290  -24.5170   16.8990 C   0  0  0  0  0  1  0  0  0  0  0  0
  -28.3560  -25.4140   18.0370 C   0  0  0  0  0  2  0  0  0  0  0  0
  -28.2890  -26.3460   20.1810 O   0  0  0  0  0  0  0  0  0  0  0  0
  -24.6050  -31.8780   23.2290 C   0  0  0  0  0  0  0  0  0  0  0  0
  -27.1950  -27.2770   20.1210 C   0  0  0  0  0  0  0  0  0  0  0  0
  -23.3940  -30.4860   21.5950 C   0  0  0  0  0  3  0  0  0  0  0  0
  -24.8360  -28.9590   20.1400 C   0  0  0  0  0  0  0  0  0  0  0  0
  -25.9410  -30.7810   21.4130 C   0  0  0  0  0  2  0  0  0  0  0  0
  -26.0130  -29.4050   20.7570 C   0  0  0  0  0  0  0  0  0  0  0  0
  -27.1860  -28.5720   20.7570 C   0  0  0  0  0  3  0  0  0  0  0  0
  -26.0090  -26.9690   19.4080 C   0  0  0  0  0  3  0  0  0  0  0  0
  -24.8460  -27.7470   19.4460 C   0  0  0  0  0  3  0  0  0  0  0  0
  -23.6000  -29.8350   20.2050 C   0  0  0  0  0  2  0  0  0  0  0  0
  -24.6660  -31.0650   22.1350 N   0  0  0  0  0  0  0  0  0  0  0  0
  -23.5230  -32.1540   23.7640 O   0  0  0  0  0  0  0  0  0  0  0  0
  -22.7360  -29.4590   22.5460 C   0  0  0  0  0  0  0  0  0  0  0  0
  -21.4080  -29.2810   22.4280 N   0  0  0  0  0  0  0  0  0  0  0  0
  -23.4210  -28.8280   23.3570 O   0  0  0  0  0  0  0  0  0  0  0  0
  -20.9100  -29.8350   21.7460 H   0  0  0  0  0  0  0  0  0  0  0  0
  -18.0390  -28.0670   22.9400 C   0  0  0  0  0  0  0  0  0  0  0  0
  -20.5960  -28.3440   23.2040 C   0  0  0  0  0  3  0  0  0  0  0  0
  -20.7030  -26.9080   22.6360 C   0  0  0  0  0  2  0  0  0  0  0  0
  -19.6000  -26.5760   21.6250 C   0  0  0  0  0  2  0  0  0  0  0  0
  -18.2200  -26.7160   22.2690 C   0  0  0  0  0  2  0  0  0  0  0  0
  -19.1550  -28.8390   23.3640 C   0  0  0  0  0  0  0  0  0  0  0  0
  -18.9250  -30.1030   23.9500 C   0  0  0  0  0  3  0  0  0  0  0  0
  -17.6180  -30.5950   24.1160 C   0  0  0  0  0  3  0  0  0  0  0  0
  -16.5190  -29.8220   23.7040 C   0  0  0  0  0  3  0  0  0  0  0  0
  -16.7300  -28.5600   23.1220 C   0  0  0  0  0  3  0  0  0  0  0  0
  -25.8860  -32.5170   23.8430 C   0  0  0  0  0  3  0  0  0  0  0  0
  -25.5710  -33.9140   24.1800 N   0  0  0  0  0  0  0  0  0  0  0  0
  -25.8940  -34.9700   23.4200 C   0  0  0  0  0  0  0  0  0  0  0  0
  -26.5560  -34.8710   22.3830 O   0  0  0  0  0  0  0  0  0  0  0  0
  -24.9880  -34.0660   24.9900 H   0  0  0  0  0  0  0  0  0  0  0  0
  -24.1590  -36.7610   23.0760 C   0  0  0  0  0  1  0  0  0  0  0  0
  -25.4050  -36.3570   23.8830 C   0  0  0  0  0  3  0  0  0  0  0  0
  -27.5460  -37.2420   24.7000 C   0  0  0  0  0  1  0  0  0  0  0  0
  -26.4380  -37.4140   23.7640 N   0  0  0  0  0  0  0  0  0  0  0  0
  -26.0330  -38.3350   23.9090 H   0  0  0  0  0  0  0  0  0  0  0  0
  -26.4090  -31.7460   25.1150 C   0  0  1  0  0  0  0  0  0  0  0  0
  -25.3230  -31.5030   26.1910 C   0  0  0  0  0  1  0  0  0  0  0  0
  -26.9940  -30.3710   24.7160 C   0  0  0  0  0  1  0  0  0  0  0  0
  -27.5630  -32.5430   25.7660 C   0  0  0  0  0  1  0  0  0  0  0  0
  -29.5530  -23.9360   19.7730 C   0  0  0  0  0  2  0  0  0  0  0  0
  -29.7130  -22.4470   20.5370 C   0  0  0  0  0  2  0  0  0  0  0  0
  -29.2370  -20.8670   20.4620 C   0  0  0  0  0  2  0  0  0  0  0  0
  -30.1750  -19.7430   19.8490 C   0  0  0  0  0  3  0  0  0  0  0  0
  -30.4740  -18.4040   20.0780 C   0  0  0  0  0  3  0  0  0  0  0  0
  -30.0100  -17.3130   21.1030 C   0  0  0  0  0  2  0  0  0  0  0  0
  -30.6050  -14.7620   20.4730 C   0  0  0  0  0  0  0  0  0  0  0  0
  -30.4250  -12.5510   19.3240 C   0  0  0  0  0  2  0  0  0  0  0  0
  -29.4460  -12.5550   18.1290 C   0  0  0  0  0  2  0  0  0  0  0  0
  -28.0040  -12.3600   18.6120 C   0  0  0  0  0  2  0  0  0  0  0  0
  -27.6280  -13.2780   19.8010 C   0  0  0  0  0  3  0  0  0  0  0  0
  -28.6860  -13.1580   20.9150 C   0  0  0  0  0  2  0  0  0  0  0  0
  -29.9720  -13.5530   20.3160 N   0  0  0  0  0  0  0  0  0  0  0  0
  -31.8140  -14.8840   20.2470 O   0  0  0  0  0  0  0  0  0  0  0  0
  -29.7930  -15.8640   20.6700 N   0  0  0  0  0  0  0  0  0  0  0  0
  -28.8200  -15.6090   20.6720 H   0  0  0  0  0  0  0  0  0  0  0  0
  -25.2180  -13.8830   20.4590 C   0  0  0  0  0  0  0  0  0  0  0  0
  -24.1490  -13.1200   20.8230 C   0  0  0  0  0  0  0  0  0  0  0  0
  -24.6100  -11.7650   20.8150 C   0  0  0  0  0  0  0  0  0  0  0  0
  -26.2730  -13.0050   20.2710 N   0  0  0  0  0  0  0  0  0  0  0  0
  -25.9080  -11.7270   20.5480 N   0  0  0  0  0  0  0  0  0  0  0  0
  -23.8830  -10.5020   21.0130 C   0  0  0  0  0  0  0  0  0  0  0  0
  -24.2960   -9.5400   21.9670 C   0  0  0  0  0  3  0  0  0  0  0  0
  -23.5620   -8.3450   22.1450 C   0  0  0  0  0  3  0  0  0  0  0  0
  -22.3970   -8.1070   21.3770 C   0  0  0  0  0  0  0  0  0  0  0  0
  -22.0000   -9.0550   20.4140 C   0  0  0  0  0  3  0  0  0  0  0  0
  -22.7350  -10.2380   20.2370 C   0  0  0  0  0  3  0  0  0  0  0  0
  -21.6380   -6.9640   21.4690 O   0  0  0  0  0  0  0  0  0  0  0  0
  -21.5820   -6.2250   22.6220 C   0  0  0  0  0  0  0  0  0  0  0  0
  -21.1730   -6.7910   23.8510 C   0  0  0  0  0  3  0  0  0  0  0  0
  -21.0860   -5.9840   25.0010 C   0  0  0  0  0  3  0  0  0  0  0  0
  -21.3890   -4.6110   24.9230 C   0  0  0  0  0  0  0  0  0  0  0  0
  -21.7880   -4.0460   23.7010 C   0  0  0  0  0  3  0  0  0  0  0  0
  -21.8880   -4.8520   22.5510 C   0  0  0  0  0  0  0  0  0  0  0  0
  -22.2660   -4.3000   21.3720 F   0  0  0  0  0  0  0  0  0  0  0  0
  -21.2860   -3.8330   26.0250 F   0  0  0  0  0  0  0  0  0  0  0  0
  -22.7410  -13.5930   21.0430 C   0  0  0  0  0  0  0  0  0  0  0  0
  -21.9830  -12.9220   21.8980 N   0  0  0  0  0  0  0  0  0  0  0  0
  -22.3160  -14.6010   20.4800 O   0  0  0  0  0  0  0  0  0  0  0  0
  -22.3290  -12.1030   22.3770 H   0  0  0  0  0  0  0  0  0  0  0  0
  -21.0400  -13.2280   22.0730 H   0  0  0  0  0  0  0  0  0  0  0  0
  -25.4000  -15.2480   20.2560 N   0  0  0  0  0  0  0  0  0  0  0  0
  -24.6330  -15.9080   20.3140 H   0  0  0  0  0  0  0  0  0  0  0  0
  -26.2640  -15.6440   19.9050 H   0  0  0  0  0  0  0  0  0  0  0  0
  1 47  1  1
  1  3  1  0
  1  6  1  0
  2  3  1  0
  4  5  1  0
  5  1  1  0
  7 18  2  0
  8  6  1  0
  8 13  1  0
  9 17  1  0
  9 19  1  0
 10 16  1  0
 10 12  1  0
 11 17  1  0
 12 13  2  0
 12 11  1  0
 14 15  1  0
 14  8  2  0
 15 10  2  0
 16  9  1  0
 17  7  1  0
 19 21  2  0
 20 19  1  0
 22 20  1  0
 23 32  2  0
 23 28  1  0
 24 20  1  0
 24 28  1  0
 25 24  1  0
 26 27  1  0
 26 25  1  0
 27 23  1  0
 28 29  2  0
 29 30  1  0
 31 30  2  0
 32 31  1  0
 33  7  1  0
 33 34  1  0
 33 43  1  0
 34 37  1  0
 35 39  1  0
 35 34  1  0
 36 35  2  0
 39 38  1  0
 41 39  1  0
 41 42  1  0
 41 40  1  0
 43 46  1  1
 43 44  1  0
 45 43  1  0
 47 48  1  0
 49 48  1  0
 50 51  2  0
 50 49  1  0
 51 52  1  0
 53 61  1  0
 54 59  1  0
 55 56  1  0
 55 54  1  0
 57 56  1  0
 57 66  1  0
 57 58  1  0
 59 53  1  0
 59 58  1  0
 60 53  2  0
 61 62  1  0
 61 52  1  0
 63 64  2  0
 64 83  1  0
 65 64  1  0
 65 68  1  0
 66 63  1  0
 66 67  1  0
 67 65  2  0
 68 69  1  0
 69 70  2  0
 71 74  1  0
 71 70  1  0
 72 71  2  0
 73 72  1  0
 73 68  2  0
 74 75  1  0
 75 76  1  0
 76 77  2  0
 78 77  1  0
 78 82  1  0
 79 78  2  0
 80 75  2  0
 80 79  1  0
 81 80  1  0
 83 84  1  0
 84 87  1  0
 84 86  1  0
 85 83  2  0
 88 89  1  0
 88 63  1  0
 90 88  1  0
M  ISO  4   1 101   6 101  53 100  61 100
M  END
>  <TORSDO>  (74) 
F 23

>  <SCORE>  (74) 
-12.619

>  <name>  (74) 
74

>  <ligand_id>  (74) 
74

>  <original_smiles>  (74) 
[H]C(=C([H])C([H])([H])C([H])([H])C([H])([H])C(Oc1c([H])c([H])c2c(c1[H])C([H])([H])N(C(=O)C([H])(N([H])C(=O)C([H])(N([H])C([H])([H])[H])C([H])([H])[H])C(C([H])([H])[H])(C([H])([H])[H])C([H])([H])[H])C([H])(C(=O)N([H])C1([H])c3c([H])c([H])c([H])c([H])c3C([H])([H])C([H])([H])C1([H])[H])C2([H])[H])(C([H])([H])C([H])([H])[H])C([H])([H])C([H])([H])[H])C([H])([H])N([H])C(=O)N1C([H])([H])C([H])([H])C([H])([H])C([H])(n2nc(-c3c([H])c([H])c(Oc4c([H])c([H])c(F)c([H])c4F)c([H])c3[H])c(C(=O)N([H])[H])c2N([H])[H])C1([H])[H]

>  <smiles>  (74) 
[H]C(=C([H])C([H])([H])C([H])([H])C([H])([H])C(Oc1c([H])c([H])c2c(c1[H])C([H])([H])N(C(=O)C([H])(N([H])C(=O)C([H])(N([H])C([H])([H])[H])C([H])([H])[H])C(C([H])([H])[H])(C([H])([H])[H])C([H])([H])[H])C([H])(C(=O)N([H])C1([H])c3c([H])c([H])c([H])c([H])c3C([H])([H])C([H])([H])C1([H])[H])C2([H])[H])(C([H])([H])C([H])([H])[H])C([H])([H])C([H])([H])[H])C([H])([H])N([H])C(=O)N1C([H])([H])C([H])([H])C([H])([H])C([H])(n2nc(-c3c([H])c([H])c(Oc4c([H])c([H])c(F)c([H])c4F)c([H])c3[H])c(C(=O)N([H])[H])c2N([H])[H])C1([H])[H]

$$$$
75:0:0
     RDKit          3D

 95103  0  0  1  0  0  0  0  0999 V2000
  -27.3280  -22.5370   20.7720 C   0  0  0  0  0  2  0  0  0  0  0  0
  -26.9800  -21.2050   20.0800 C   0  0  0  0  0  2  0  0  0  0  0  0
  -29.6420  -21.6870   21.2740 C   0  0  0  0  0  2  0  0  0  0  0  0
  -28.8290  -22.8650   20.6620 C   0  0  0  0  0  3  0  0  0  0  0  0
  -27.8220  -19.9870   20.5470 C   0  0  0  0  0  3  0  0  0  0  0  0
  -29.3550  -20.3010   20.5990 C   0  0  0  0  0  3  0  0  0  0  0  0
  -29.1200  -24.2790   21.2750 C   0  0  0  0  0  2  0  0  0  0  0  0
  -29.0210  -25.4610   20.2520 C   0  0  0  0  0  2  0  0  0  0  0  0
  -28.8810  -26.7820   20.8560 O   0  0  0  0  0  0  0  0  0  0  0  0
  -24.8960  -32.0150   23.6940 C   0  0  0  0  0  0  0  0  0  0  0  0
  -27.6940  -27.5090   20.7710 C   0  0  0  0  0  0  0  0  0  0  0  0
  -23.7830  -30.6090   22.0000 C   0  0  0  0  0  3  0  0  0  0  0  0
  -25.3080  -29.0700   20.6600 C   0  0  0  0  0  0  0  0  0  0  0  0
  -26.3280  -30.9490   21.9470 C   0  0  0  0  0  2  0  0  0  0  0  0
  -26.4400  -29.5760   21.3040 C   0  0  0  0  0  0  0  0  0  0  0  0
  -27.6280  -28.8030   21.3570 C   0  0  0  0  0  3  0  0  0  0  0  0
  -26.5330  -27.0420   20.1050 C   0  0  0  0  0  3  0  0  0  0  0  0
  -25.3520  -27.8050   20.0580 C   0  0  0  0  0  3  0  0  0  0  0  0
  -24.0590  -29.9220   20.6400 C   0  0  0  0  0  2  0  0  0  0  0  0
  -25.0200  -31.2070   22.6020 N   0  0  0  0  0  0  0  0  0  0  0  0
  -23.7820  -32.2890   24.1620 O   0  0  0  0  0  0  0  0  0  0  0  0
  -23.0790  -29.5880   22.9230 C   0  0  0  0  0  0  0  0  0  0  0  0
  -21.7870  -29.3430   22.6660 N   0  0  0  0  0  0  0  0  0  0  0  0
  -23.6970  -29.0120   23.8210 O   0  0  0  0  0  0  0  0  0  0  0  0
  -21.3490  -29.8570   21.9120 H   0  0  0  0  0  0  0  0  0  0  0  0
  -18.4430  -27.9680   22.8450 C   0  0  0  0  0  0  0  0  0  0  0  0
  -20.9370  -28.3860   23.3710 C   0  0  0  0  0  3  0  0  0  0  0  0
  -21.1960  -26.9450   22.8710 C   0  0  0  0  0  2  0  0  0  0  0  0
  -20.2120  -26.4770   21.7940 C   0  0  0  0  0  2  0  0  0  0  0  0
  -18.7620  -26.5950   22.2760 C   0  0  0  0  0  2  0  0  0  0  0  0
  -19.4680  -28.8130   23.3510 C   0  0  0  0  0  0  0  0  0  0  0  0
  -19.1190  -30.0830   23.8590 C   0  0  0  0  0  3  0  0  0  0  0  0
  -17.7810  -30.5140   23.8580 C   0  0  0  0  0  3  0  0  0  0  0  0
  -16.7710  -29.6680   23.3670 C   0  0  0  0  0  3  0  0  0  0  0  0
  -17.1030  -28.3980   22.8660 C   0  0  0  0  0  3  0  0  0  0  0  0
  -26.1390  -32.6530   24.3860 C   0  0  0  0  0  3  0  0  0  0  0  0
  -26.5450  -31.9340   25.7300 C   0  0  1  0  0  0  0  0  0  0  0  0
  -25.3610  -31.7050   26.6970 C   0  0  0  0  0  1  0  0  0  0  0  0
  -27.1840  -30.5580   25.4390 C   0  0  0  0  0  1  0  0  0  0  0  0
  -27.6170  -32.7690   26.4690 C   0  0  0  0  0  1  0  0  0  0  0  0
  -25.8330  -34.0720   24.6270 N   0  0  0  0  0  0  0  0  0  0  0  0
  -26.2370  -35.0810   23.8470 C   0  0  0  0  0  0  0  0  0  0  0  0
  -26.9780  -34.9190   22.8710 O   0  0  0  0  0  0  0  0  0  0  0  0
  -25.1890  -34.2780   25.3790 H   0  0  0  0  0  0  0  0  0  0  0  0
  -24.5690  -36.8790   23.2830 C   0  0  0  0  0  1  0  0  0  0  0  0
  -25.7430  -36.5000   24.2010 C   0  0  0  0  0  3  0  0  0  0  0  0
  -27.8380  -37.3780   25.1280 C   0  0  0  0  0  1  0  0  0  0  0  0
  -26.8000  -37.5310   24.1120 N   0  0  0  0  0  0  0  0  0  0  0  0
  -26.4030  -38.4630   24.2000 H   0  0  0  0  0  0  0  0  0  0  0  0
  -30.1540  -19.1320   21.2950 C   0  0  0  0  0  2  0  0  0  0  0  0
  -30.7510  -18.0310   20.3580 C   0  0  0  0  0  2  0  0  0  0  0  0
  -31.6040  -16.9510   21.0940 C   0  0  0  0  0  2  0  0  0  0  0  0
  -31.6580  -14.5150   20.3980 C   0  0  0  0  0  0  0  0  0  0  0  0
  -31.2780  -12.2500   19.4580 C   0  0  0  0  0  2  0  0  0  0  0  0
  -30.4030  -12.3680   18.1930 C   0  0  0  0  0  2  0  0  0  0  0  0
  -28.9110  -12.3150   18.5760 C   0  0  0  0  0  2  0  0  0  0  0  0
  -28.5540  -13.2820   19.7360 C   0  0  0  0  0  3  0  0  0  0  0  0
  -29.5650  -13.1900   20.9040 C   0  0  0  0  0  2  0  0  0  0  0  0
  -30.9240  -13.3650   20.3580 N   0  0  0  0  0  0  0  0  0  0  0  0
  -32.7660  -14.6190   19.8640 O   0  0  0  0  0  0  0  0  0  0  0  0
  -31.0710  -15.5770   20.9830 N   0  0  0  0  0  0  0  0  0  0  0  0
  -30.1790  -15.3960   21.4230 H   0  0  0  0  0  0  0  0  0  0  0  0
  -26.1820  -14.0180   20.3820 C   0  0  0  0  0  0  0  0  0  0  0  0
  -25.0690  -13.3110   20.7530 C   0  0  0  0  0  0  0  0  0  0  0  0
  -25.4590  -11.9380   20.7490 C   0  0  0  0  0  0  0  0  0  0  0  0
  -27.1840  -13.0810   20.1960 N   0  0  0  0  0  0  0  0  0  0  0  0
  -26.7500  -11.8230   20.4700 N   0  0  0  0  0  0  0  0  0  0  0  0
  -24.6600  -10.7200   20.9380 C   0  0  0  0  0  0  0  0  0  0  0  0
  -24.9880   -9.7640   21.9250 C   0  0  0  0  0  3  0  0  0  0  0  0
  -24.1910   -8.6110   22.0990 C   0  0  0  0  0  3  0  0  0  0  0  0
  -23.0530   -8.4040   21.2810 C   0  0  0  0  0  0  0  0  0  0  0  0
  -22.7440   -9.3500   20.2890 C   0  0  0  0  0  3  0  0  0  0  0  0
  -23.5410  -10.4950   20.1140 C   0  0  0  0  0  3  0  0  0  0  0  0
  -22.2390   -7.2990   21.3550 O   0  0  0  0  0  0  0  0  0  0  0  0
  -22.0190   -6.6460   22.5410 C   0  0  0  0  0  0  0  0  0  0  0  0
  -21.5050   -7.3130   23.6750 C   0  0  0  0  0  3  0  0  0  0  0  0
  -21.2290   -6.5900   24.8520 C   0  0  0  0  0  3  0  0  0  0  0  0
  -21.4620   -5.2030   24.8970 C   0  0  0  0  0  0  0  0  0  0  0  0
  -21.9690   -4.5360   23.7670 C   0  0  0  0  0  3  0  0  0  0  0  0
  -22.2470   -5.2560   22.5930 C   0  0  0  0  0  0  0  0  0  0  0  0
  -22.7160   -4.6030   21.5020 F   0  0  0  0  0  0  0  0  0  0  0  0
  -21.1950   -4.5060   26.0270 F   0  0  0  0  0  0  0  0  0  0  0  0
  -23.6990  -13.8750   20.9880 C   0  0  0  0  0  0  0  0  0  0  0  0
  -22.9200  -13.2530   21.8670 N   0  0  0  0  0  0  0  0  0  0  0  0
  -23.3310  -14.9090   20.4360 O   0  0  0  0  0  0  0  0  0  0  0  0
  -23.2200  -12.4040   22.3210 H   0  0  0  0  0  0  0  0  0  0  0  0
  -22.0110  -13.6400   22.0790 H   0  0  0  0  0  0  0  0  0  0  0  0
  -26.4080  -15.3690   20.1500 N   0  0  0  0  0  0  0  0  0  0  0  0
  -25.5670  -15.7990   19.7790 H   0  0  0  0  0  0  0  0  0  0  0  0
  -27.1960  -15.5580   19.5420 H   0  0  0  0  0  0  0  0  0  0  0  0
  -27.5390  -18.7660   19.6210 C   0  0  0  0  0  2  0  0  0  0  0  0
  -26.2070  -18.1560   19.8110 N   0  0  0  0  0  4  0  0  0  0  0  0
  -26.0820  -17.8440   20.7600 H   0  0  0  0  0  0  0  0  0  0  0  0
  -26.1150  -17.3470   19.2170 H   0  0  0  0  0  0  0  0  0  0  0  0
  -25.4720  -18.7960   19.5790 H   0  0  0  0  0  0  0  0  0  0  0  0
  2  5  1  0
  2  1  1  0
  4  1  1  0
  4  3  1  0
  4  7  1  0
  5 91  1  0
  5  6  1  0
  6  3  1  0
  6 50  1  0
  8  9  1  0
  8  7  1  0
 10 21  2  0
 11  9  1  0
 11 16  1  0
 12 20  1  0
 12 22  1  0
 13 15  1  0
 14 20  1  0
 15 16  2  0
 15 14  1  0
 17 11  2  0
 18 17  1  0
 18 13  2  0
 19 13  1  0
 19 12  1  0
 20 10  1  0
 22 24  2  0
 23 22  1  0
 25 23  1  0
 26 35  2  0
 26 31  1  0
 27 23  1  0
 28 27  1  0
 29 30  1  0
 29 28  1  0
 30 26  1  0
 31 27  1  0
 31 32  2  0
 33 32  1  0
 34 33  2  0
 35 34  1  0
 36 10  1  0
 36 41  1  0
 36 37  1  0
 37 40  1  1
 37 38  1  0
 39 37  1  0
 41 44  1  0
 42 46  1  0
 42 41  1  0
 43 42  2  0
 46 45  1  0
 48 49  1  0
 48 46  1  0
 48 47  1  0
 51 52  1  0
 51 50  1  0
 53 61  1  0
 54 59  1  0
 55 56  1  0
 55 54  1  0
 57 56  1  0
 57 66  1  0
 57 58  1  0
 59 53  1  0
 59 58  1  0
 60 53  2  0
 61 52  1  0
 61 62  1  0
 63 64  2  0
 64 83  1  0
 65 64  1  0
 65 68  1  0
 66 63  1  0
 66 67  1  0
 67 65  2  0
 68 69  1  0
 69 70  2  0
 71 74  1  0
 71 70  1  0
 72 71  2  0
 73 72  1  0
 73 68  2  0
 74 75  1  0
 75 80  2  0
 75 76  1  0
 76 77  2  0
 77 78  1  0
 78 82  1  0
 79 78  2  0
 80 79  1  0
 81 80  1  0
 83 84  1  0
 84 87  1  0
 84 86  1  0
 85 83  2  0
 88 63  1  0
 89 88  1  0
 90 88  1  0
 91 92  1  0
 92 93  1  0
 94 92  1  0
 95 92  1  0
M  ISO  4   8 101   9 101  53 100  61 100
M  END
>  <TORSDO>  (75) 
F 23

>  <SCORE>  (75) 
-11.112

>  <name>  (75) 
75

>  <ligand_id>  (75) 
75

>  <original_smiles>  (75) 
[H]c1c([H])c([H])c2c(c1[H])C([H])([H])C([H])([H])C([H])([H])C2([H])N([H])C(=O)C1([H])N(C(=O)C([H])(N([H])C(=O)C([H])(N([H])C([H])([H])[H])C([H])([H])[H])C(C([H])([H])[H])(C([H])([H])[H])C([H])([H])[H])C([H])([H])c2c([H])c(OC([H])([H])C([H])([H])C3([H])C([H])([H])C([H])([H])C([H])(C([H])([H])[N+]([H])([H])[H])C([H])(C([H])([H])C([H])([H])C([H])([H])N([H])C(=O)N4C([H])([H])C([H])([H])C([H])([H])C([H])(n5nc(-c6c([H])c([H])c(Oc7c([H])c([H])c(F)c([H])c7F)c([H])c6[H])c(C(=O)N([H])[H])c5N([H])[H])C4([H])[H])C3([H])[H])c([H])c([H])c2C1([H])[H]

>  <smiles>  (75) 
[H]c1c([H])c([H])c2c(c1[H])C([H])([H])C([H])([H])C([H])([H])C2([H])N([H])C(=O)C1([H])N(C(=O)C([H])(N([H])C(=O)C([H])(N([H])C([H])([H])[H])C([H])([H])[H])C(C([H])([H])[H])(C([H])([H])[H])C([H])([H])[H])C([H])([H])c2c([H])c(OC([H])([H])C([H])([H])C3([H])C([H])([H])C([H])([H])C([H])(C([H])([H])[N+]([H])([H])[H])C([H])(C([H])([H])C([H])([H])C([H])([H])N([H])C(=O)N4C([H])([H])C([H])([H])C([H])([H])C([H])(n5nc(-c6c([H])c([H])c(Oc7c([H])c([H])c(F)c([H])c7F)c([H])c6[H])c(C(=O)N([H])[H])c5N([H])[H])C4([H])[H])C3([H])[H])c([H])c([H])c2C1([H])[H]

$$$$
76:0:0
     RDKit          3D

 97104  0  0  1  0  0  0  0  0999 V2000
  -29.1320  -22.0110   20.0030 C   0  0  0  0  0  3  0  0  0  0  0  0
  -28.7500  -20.5090   19.6270 N   0  0  0  0  0  4  0  0  0  0  0  0
  -27.8910  -20.3110   20.1160 H   0  0  0  0  0  0  0  0  0  0  0  0
  -28.4540  -20.6030   18.6680 H   0  0  0  0  0  0  0  0  0  0  0  0
  -29.5620  -19.1290   19.5740 C   0  0  0  0  0  2  0  0  0  0  0  0
  -29.3660  -17.8020   20.5840 C   0  0  0  0  0  2  0  0  0  0  0  0
  -30.6150  -15.1820   20.5220 C   0  0  0  0  0  0  0  0  0  0  0  0
  -30.6960  -12.7720   19.7170 C   0  0  0  0  0  2  0  0  0  0  0  0
  -29.8150  -12.6120   18.4540 C   0  0  0  0  0  2  0  0  0  0  0  0
  -28.3350  -12.3800   18.8200 C   0  0  0  0  0  2  0  0  0  0  0  0
  -27.8370  -13.3540   19.9180 C   0  0  0  0  0  3  0  0  0  0  0  0
  -28.8340  -13.4460   21.0880 C   0  0  0  0  0  2  0  0  0  0  0  0
  -30.1180  -13.8810   20.5200 N   0  0  0  0  0  0  0  0  0  0  0  0
  -31.8380  -15.3380   20.4150 O   0  0  0  0  0  0  0  0  0  0  0  0
  -29.6750  -16.2420   20.4140 N   0  0  0  0  0  0  0  0  0  0  0  0
  -28.7860  -15.7790   20.2980 H   0  0  0  0  0  0  0  0  0  0  0  0
  -25.4230  -13.9180   20.5640 C   0  0  0  0  0  0  0  0  0  0  0  0
  -24.3510  -13.1330   20.8890 C   0  0  0  0  0  0  0  0  0  0  0  0
  -24.8300  -11.7870   20.8780 C   0  0  0  0  0  0  0  0  0  0  0  0
  -26.4820  -13.0500   20.3640 N   0  0  0  0  0  0  0  0  0  0  0  0
  -26.1330  -11.7640   20.6210 N   0  0  0  0  0  0  0  0  0  0  0  0
  -24.1090  -10.5180   21.0380 C   0  0  0  0  0  0  0  0  0  0  0  0
  -24.4490   -9.5940   22.0510 C   0  0  0  0  0  3  0  0  0  0  0  0
  -23.7270   -8.3890   22.1930 C   0  0  0  0  0  3  0  0  0  0  0  0
  -22.6490   -8.1010   21.3240 C   0  0  0  0  0  0  0  0  0  0  0  0
  -22.3290   -9.0130   20.3030 C   0  0  0  0  0  3  0  0  0  0  0  0
  -23.0520  -10.2090   20.1580 C   0  0  0  0  0  3  0  0  0  0  0  0
  -21.9050   -6.9450   21.3740 O   0  0  0  0  0  0  0  0  0  0  0  0
  -21.6760   -6.2860   22.5560 C   0  0  0  0  0  0  0  0  0  0  0  0
  -21.0190   -6.9080   23.6400 C   0  0  0  0  0  3  0  0  0  0  0  0
  -20.7420   -6.1720   24.8110 C   0  0  0  0  0  3  0  0  0  0  0  0
  -21.1150   -4.8170   24.8970 C   0  0  0  0  0  0  0  0  0  0  0  0
  -21.7660   -4.1960   23.8160 C   0  0  0  0  0  3  0  0  0  0  0  0
  -22.0450   -4.9290   22.6480 C   0  0  0  0  0  0  0  0  0  0  0  0
  -22.6540   -4.3200   21.6030 F   0  0  0  0  0  0  0  0  0  0  0  0
  -20.8440   -4.1100   26.0170 F   0  0  0  0  0  0  0  0  0  0  0  0
  -22.9380  -13.5990   21.0930 C   0  0  0  0  0  0  0  0  0  0  0  0
  -22.1790  -12.9140   21.9410 N   0  0  0  0  0  0  0  0  0  0  0  0
  -22.5120  -14.6100   20.5320 O   0  0  0  0  0  0  0  0  0  0  0  0
  -22.5300  -12.1000   22.4230 H   0  0  0  0  0  0  0  0  0  0  0  0
  -21.2300  -13.2130   22.1160 H   0  0  0  0  0  0  0  0  0  0  0  0
  -25.5730  -15.2900   20.3820 N   0  0  0  0  0  0  0  0  0  0  0  0
  -24.7740  -15.9130   20.4250 H   0  0  0  0  0  0  0  0  0  0  0  0
  -26.3850  -15.7310   19.9730 H   0  0  0  0  0  0  0  0  0  0  0  0
  -30.6650  -22.2230   20.0660 C   0  0  0  0  0  2  0  0  0  0  0  0
  -31.3460  -21.2420   21.0430 C   0  0  0  0  0  2  0  0  0  0  0  0
  -32.8250  -21.3300   21.0370 N   0  0  0  0  0  4  0  0  0  0  0  0
  -33.0910  -22.2240   21.4200 H   0  0  0  0  0  0  0  0  0  0  0  0
  -33.1920  -21.2920   20.1000 H   0  0  0  0  0  0  0  0  0  0  0  0
  -33.6540  -18.9500   21.1530 C   0  0  0  0  0  1  0  0  0  0  0  0
  -33.4970  -20.3110   21.8750 C   0  0  0  0  0  3  0  0  0  0  0  0
  -34.8210  -20.8760   22.3640 C   0  0  0  0  0  3  0  0  0  0  0  0
  -35.8750  -20.9550   21.6630 N   0  0  0  0  0  0  0  0  0  0  0  0
  -35.7630  -20.5660   20.7340 H   0  0  0  0  0  0  0  0  0  0  0  0
  -28.3230  -23.3760   19.3710 C   0  0  0  0  0  2  0  0  0  0  0  0
  -27.9740  -24.8220   20.1990 C   0  0  0  0  0  2  0  0  0  0  0  0
  -28.1490  -26.3110   19.7440 O   0  0  0  0  0  0  0  0  0  0  0  0
  -24.7860  -31.8840   23.2860 C   0  0  0  0  0  0  0  0  0  0  0  0
  -27.0980  -27.2980   19.8570 C   0  0  0  0  0  0  0  0  0  0  0  0
  -23.4690  -30.6010   21.6450 C   0  0  0  0  0  3  0  0  0  0  0  0
  -24.8030  -29.0820   20.0580 C   0  0  0  0  0  0  0  0  0  0  0  0
  -26.0160  -30.8310   21.3490 C   0  0  0  0  0  2  0  0  0  0  0  0
  -26.0260  -29.4760   20.6190 C   0  0  0  0  0  0  0  0  0  0  0  0
  -27.1740  -28.6020   20.5000 C   0  0  0  0  0  3  0  0  0  0  0  0
  -25.8470  -27.0080   19.2700 C   0  0  0  0  0  3  0  0  0  0  0  0
  -24.7270  -27.8630   19.3670 C   0  0  0  0  0  3  0  0  0  0  0  0
  -23.5970  -29.9980   20.2230 C   0  0  0  0  0  2  0  0  0  0  0  0
  -24.7810  -31.1250   22.1480 N   0  0  0  0  0  0  0  0  0  0  0  0
  -23.7380  -32.1570   23.8890 O   0  0  0  0  0  0  0  0  0  0  0  0
  -22.8270  -29.5540   22.5890 C   0  0  0  0  0  0  0  0  0  0  0  0
  -21.5010  -29.3530   22.4730 N   0  0  0  0  0  0  0  0  0  0  0  0
  -23.5240  -28.9240   23.3870 O   0  0  0  0  0  0  0  0  0  0  0  0
  -20.9920  -29.9160   21.8080 H   0  0  0  0  0  0  0  0  0  0  0  0
  -18.1800  -27.9740   22.9020 C   0  0  0  0  0  0  0  0  0  0  0  0
  -20.7130  -28.3770   23.2300 C   0  0  0  0  0  3  0  0  0  0  0  0
  -20.9070  -26.9490   22.6690 C   0  0  0  0  0  2  0  0  0  0  0  0
  -19.8500  -26.5600   21.6300 C   0  0  0  0  0  2  0  0  0  0  0  0
  -18.4470  -26.6330   22.2400 C   0  0  0  0  0  2  0  0  0  0  0  0
  -19.2430  -28.7990   23.3530 C   0  0  0  0  0  0  0  0  0  0  0  0
  -18.9400  -30.0510   23.9330 C   0  0  0  0  0  3  0  0  0  0  0  0
  -17.6050  -30.4780   24.0670 C   0  0  0  0  0  3  0  0  0  0  0  0
  -16.5560  -29.6510   23.6300 C   0  0  0  0  0  3  0  0  0  0  0  0
  -16.8430  -28.4010   23.0530 C   0  0  0  0  0  3  0  0  0  0  0  0
  -26.1070  -32.4640   23.8740 C   0  0  0  0  0  3  0  0  0  0  0  0
  -26.6910  -31.6020   25.0600 C   0  0  1  0  0  0  0  0  0  0  0  0
  -25.6620  -31.3020   26.1760 C   0  0  0  0  0  1  0  0  0  0  0  0
  -27.2320  -30.2480   24.5460 C   0  0  0  0  0  1  0  0  0  0  0  0
  -27.8890  -32.3390   25.7040 C   0  0  0  0  0  1  0  0  0  0  0  0
  -25.8360  -33.8360   24.3260 N   0  0  0  0  0  0  0  0  0  0  0  0
  -26.2000  -34.9460   23.6670 C   0  0  0  0  0  0  0  0  0  0  0  0
  -26.8680  -34.9150   22.6300 O   0  0  0  0  0  0  0  0  0  0  0  0
  -25.2410  -33.9380   25.1370 H   0  0  0  0  0  0  0  0  0  0  0  0
  -24.5470  -36.8330   23.4610 C   0  0  0  0  0  1  0  0  0  0  0  0
  -25.7550  -36.3020   24.2510 C   0  0  0  0  0  3  0  0  0  0  0  0
  -27.9020  -37.0200   25.2020 C   0  0  0  0  0  1  0  0  0  0  0  0
  -26.8270  -37.3200   24.2590 N   0  0  0  0  0  0  0  0  0  0  0  0
  -26.4510  -38.2350   24.4880 H   0  0  0  0  0  0  0  0  0  0  0  0
  1 55  1  0
  1 45  1  0
  2  1  1  0
  2  3  1  0
  4  2  1  0
  5  2  1  0
  5  6  1  0
  8 13  1  0
  9 10  1  0
  9  8  1  0
 11 10  1  0
 11 20  1  0
 11 12  1  0
 13  7  1  0
 13 12  1  0
 14  7  2  0
 15  7  1  0
 15  6  1  0
 16 15  1  0
 17 18  2  0
 18 37  1  0
 19 18  1  0
 19 22  1  0
 20 17  1  0
 20 21  1  0
 21 19  2  0
 22 23  1  0
 23 24  2  0
 25 28  1  0
 25 24  1  0
 26 25  2  0
 27 26  1  0
 27 22  2  0
 28 29  1  0
 29 34  2  0
 29 30  1  0
 30 31  2  0
 31 32  1  0
 32 36  1  0
 33 32  2  0
 34 33  1  0
 35 34  1  0
 37 38  1  0
 38 41  1  0
 38 40  1  0
 39 37  2  0
 42 43  1  0
 42 17  1  0
 44 42  1  0
 45 46  1  0
 47 46  1  0
 47 48  1  0
 47 51  1  0
 49 47  1  0
 51 50  1  0
 51 52  1  0
 53 52  2  0
 54 53  1  0
 55 56  1  0
 57 59  1  0
 57 56  1  0
 58 69  2  0
 59 64  1  0
 60 68  1  0
 60 70  1  0
 61 67  1  0
 61 63  1  0
 62 68  1  0
 63 62  1  0
 64 63  2  0
 65 66  1  0
 65 59  2  0
 66 61  2  0
 67 60  1  0
 68 58  1  0
 70 72  2  0
 71 70  1  0
 73 71  1  0
 74 83  2  0
 74 79  1  0
 75 71  1  0
 75 79  1  0
 76 75  1  0
 77 78  1  0
 77 76  1  0
 78 74  1  0
 79 80  2  0
 80 81  1  0
 82 81  2  0
 83 82  1  0
 84 58  1  0
 84 89  1  0
 84 85  1  0
 85 88  1  1
 85 86  1  0
 87 85  1  0
 89 92  1  0
 90 94  1  0
 90 89  1  0
 91 90  2  0
 94 93  1  0
 94 96  1  0
 96 97  1  0
 96 95  1  0
M  ISO  4   7 100  15 100  56 101  57 101
M  END
>  <TORSDO>  (76) 
F 26

>  <SCORE>  (76) 
-12.164

>  <name>  (76) 
76

>  <ligand_id>  (76) 
76

>  <original_smiles>  (76) 
[H]N=C([H])C([H])(C([H])([H])[H])[N+]([H])([H])C([H])([H])C([H])([H])C([H])(C([H])([H])C([H])([H])Oc1c([H])c([H])c2c(c1[H])C([H])([H])N(C(=O)C([H])(N([H])C(=O)C([H])(N([H])C([H])([H])[H])C([H])([H])[H])C(C([H])([H])[H])(C([H])([H])[H])C([H])([H])[H])C([H])(C(=O)N([H])C1([H])c3c([H])c([H])c([H])c([H])c3C([H])([H])C([H])([H])C1([H])[H])C2([H])[H])[N+]([H])([H])C([H])([H])C([H])([H])N([H])C(=O)N1C([H])([H])C([H])([H])C([H])([H])C([H])(n2nc(-c3c([H])c([H])c(Oc4c([H])c([H])c(F)c([H])c4F)c([H])c3[H])c(C(=O)N([H])[H])c2N([H])[H])C1([H])[H]

>  <smiles>  (76) 
[H]N=C([H])C([H])(C([H])([H])[H])[N+]([H])([H])C([H])([H])C([H])([H])C([H])(C([H])([H])C([H])([H])Oc1c([H])c([H])c2c(c1[H])C([H])([H])N(C(=O)C([H])(N([H])C(=O)C([H])(N([H])C([H])([H])[H])C([H])([H])[H])C(C([H])([H])[H])(C([H])([H])[H])C([H])([H])[H])C([H])(C(=O)N([H])C1([H])c3c([H])c([H])c([H])c([H])c3C([H])([H])C([H])([H])C1([H])[H])C2([H])[H])[N+]([H])([H])C([H])([H])C([H])([H])N([H])C(=O)N1C([H])([H])C([H])([H])C([H])([H])C([H])(n2nc(-c3c([H])c([H])c(Oc4c([H])c([H])c(F)c([H])c4F)c([H])c3[H])c(C(=O)N([H])[H])c2N([H])[H])C1([H])[H]

$$$$
77:0:0
     RDKit          3D

 90 98  0  0  1  0  0  0  0  0999 V2000
  -28.6730  -21.1840   19.6040 C   0  0  0  0  0  2  0  0  0  0  0  0
  -31.0800  -21.8460   19.4690 C   0  0  0  0  0  2  0  0  0  0  0  0
  -29.0780  -19.6730   19.9830 C   0  0  0  0  0  2  0  0  0  0  0  0
  -31.3080  -20.2870   19.2690 C   0  0  0  0  0  2  0  0  0  0  0  0
  -29.6680  -22.3700   19.9000 C   0  0  0  0  0  3  0  0  0  0  0  0
  -30.5900  -19.2610   20.2310 C   0  0  1  0  0  0  0  0  0  0  0  0
  -30.5580  -18.5360   22.7580 C   0  0  0  0  0  1  0  0  0  0  0  0
  -32.4780  -19.9500   21.9690 C   0  0  0  0  0  1  0  0  0  0  0  0
  -30.9940  -19.5930   21.7220 C   0  0  0  0  0  3  0  0  0  0  0  0
  -29.3160  -23.8550   19.2870 C   0  0  0  0  0  2  0  0  0  0  0  0
  -28.4150  -24.9620   20.0490 C   0  0  0  0  0  2  0  0  0  0  0  0
  -28.5530  -26.4260   19.7260 O   0  0  0  0  0  0  0  0  0  0  0  0
  -24.7350  -31.6540   23.0470 C   0  0  0  0  0  0  0  0  0  0  0  0
  -27.4150  -27.2660   19.7750 C   0  0  0  0  0  0  0  0  0  0  0  0
  -23.5420  -30.2850   21.3810 C   0  0  0  0  0  3  0  0  0  0  0  0
  -25.0070  -28.8300   19.8720 C   0  0  0  0  0  0  0  0  0  0  0  0
  -26.0680  -30.6750   21.1630 C   0  0  0  0  0  2  0  0  0  0  0  0
  -26.1770  -29.3230   20.4670 C   0  0  0  0  0  0  0  0  0  0  0  0
  -27.3870  -28.5510   20.4110 C   0  0  0  0  0  3  0  0  0  0  0  0
  -26.2210  -26.8410   19.1490 C   0  0  0  0  0  3  0  0  0  0  0  0
  -25.0350  -27.5950   19.2090 C   0  0  0  0  0  3  0  0  0  0  0  0
  -23.7500  -29.6680   19.9730 C   0  0  0  0  0  2  0  0  0  0  0  0
  -24.8030  -30.8900   21.9190 N   0  0  0  0  0  0  0  0  0  0  0  0
  -23.6540  -31.8820   23.6090 O   0  0  0  0  0  0  0  0  0  0  0  0
  -22.9270  -29.2110   22.3120 C   0  0  0  0  0  0  0  0  0  0  0  0
  -21.6100  -28.9760   22.1780 N   0  0  0  0  0  0  0  0  0  0  0  0
  -23.6360  -28.5950   23.1140 O   0  0  0  0  0  0  0  0  0  0  0  0
  -21.0950  -29.5280   21.5040 H   0  0  0  0  0  0  0  0  0  0  0  0
  -18.3070  -27.5650   22.6050 C   0  0  0  0  0  0  0  0  0  0  0  0
  -20.8390  -27.9820   22.9260 C   0  0  0  0  0  3  0  0  0  0  0  0
  -21.0420  -26.5630   22.3460 C   0  0  0  0  0  2  0  0  0  0  0  0
  -19.9840  -26.1810   21.3070 C   0  0  0  0  0  2  0  0  0  0  0  0
  -18.5820  -26.2360   21.9220 C   0  0  0  0  0  2  0  0  0  0  0  0
  -19.3670  -28.3910   23.0630 C   0  0  0  0  0  0  0  0  0  0  0  0
  -19.0590  -29.6330   23.6600 C   0  0  0  0  0  3  0  0  0  0  0  0
  -17.7230  -30.0500   23.8070 C   0  0  0  0  0  3  0  0  0  0  0  0
  -16.6760  -29.2210   23.3630 C   0  0  0  0  0  3  0  0  0  0  0  0
  -16.9690  -27.9820   22.7690 C   0  0  0  0  0  3  0  0  0  0  0  0
  -26.0110  -32.3020   23.6670 C   0  0  0  0  0  3  0  0  0  0  0  0
  -25.6680  -33.6800   24.0530 N   0  0  0  0  0  0  0  0  0  0  0  0
  -25.9630  -34.7710   23.3320 C   0  0  0  0  0  0  0  0  0  0  0  0
  -26.6300  -34.7280   22.2920 O   0  0  0  0  0  0  0  0  0  0  0  0
  -25.0710  -33.7880   24.8630 H   0  0  0  0  0  0  0  0  0  0  0  0
  -24.1840  -36.5290   23.0670 C   0  0  0  0  0  1  0  0  0  0  0  0
  -25.4440  -36.1270   23.8500 C   0  0  0  0  0  3  0  0  0  0  0  0
  -27.5620  -37.0380   24.6950 C   0  0  0  0  0  1  0  0  0  0  0  0
  -26.4460  -37.2120   23.7690 N   0  0  0  0  0  0  0  0  0  0  0  0
  -26.0160  -38.1130   23.9580 H   0  0  0  0  0  0  0  0  0  0  0  0
  -26.5740  -31.5050   24.9040 C   0  0  1  0  0  0  0  0  0  0  0  0
  -25.5100  -31.2060   25.9840 C   0  0  0  0  0  1  0  0  0  0  0  0
  -27.1820  -30.1580   24.4540 C   0  0  0  0  0  1  0  0  0  0  0  0
  -27.7190  -32.3060   25.5670 C   0  0  0  0  0  1  0  0  0  0  0  0
  -31.0220  -17.7130   19.7930 C   0  0  0  0  0  3  0  0  0  0  0  0
  -30.3770  -16.2680   20.2440 C   0  0  0  0  0  3  0  0  0  0  0  0
  -31.0920  -14.8690   19.8870 C   0  0  0  0  0  0  0  0  0  0  0  0
  -30.7980  -12.5520   18.9900 C   0  0  0  0  0  2  0  0  0  0  0  0
  -29.8380  -12.6070   17.7830 C   0  0  0  0  0  2  0  0  0  0  0  0
  -28.3740  -12.4790   18.2470 C   0  0  0  0  0  2  0  0  0  0  0  0
  -28.0450  -13.4220   19.4320 C   0  0  0  0  0  3  0  0  0  0  0  0
  -29.1250  -13.3780   20.5320 C   0  0  0  0  0  2  0  0  0  0  0  0
  -30.4270  -13.6580   19.9030 N   0  0  0  0  0  0  0  0  0  0  0  0
  -32.2610  -14.8990   19.4950 O   0  0  0  0  0  0  0  0  0  0  0  0
  -25.7060  -14.0950   20.2340 C   0  0  0  0  0  0  0  0  0  0  0  0
  -24.6230  -13.3610   20.6400 C   0  0  0  0  0  0  0  0  0  0  0  0
  -25.0380  -11.9960   20.6010 C   0  0  0  0  0  0  0  0  0  0  0  0
  -26.7070  -13.1770   19.9660 N   0  0  0  0  0  0  0  0  0  0  0  0
  -26.3170  -11.9090   20.2520 N   0  0  0  0  0  0  0  0  0  0  0  0
  -24.2730  -10.7600   20.8230 C   0  0  0  0  0  0  0  0  0  0  0  0
  -24.6700   -9.8020   21.7830 C   0  0  0  0  0  3  0  0  0  0  0  0
  -23.9020   -8.6340   21.9870 C   0  0  0  0  0  3  0  0  0  0  0  0
  -22.7250   -8.4170   21.2330 C   0  0  0  0  0  0  0  0  0  0  0  0
  -22.3480   -9.3620   20.2640 C   0  0  0  0  0  3  0  0  0  0  0  0
  -23.1150  -10.5220   20.0560 C   0  0  0  0  0  3  0  0  0  0  0  0
  -21.9320   -7.3000   21.3470 O   0  0  0  0  0  0  0  0  0  0  0  0
  -21.8090   -6.6220   22.5300 C   0  0  0  0  0  0  0  0  0  0  0  0
  -21.3550   -7.2550   23.7100 C   0  0  0  0  0  3  0  0  0  0  0  0
  -21.1760   -6.5040   24.8880 C   0  0  0  0  0  3  0  0  0  0  0  0
  -21.4440   -5.1210   24.8910 C   0  0  0  0  0  0  0  0  0  0  0  0
  -21.8910   -4.4890   23.7170 C   0  0  0  0  0  3  0  0  0  0  0  0
  -22.0710   -5.2360   22.5430 C   0  0  0  0  0  0  0  0  0  0  0  0
  -22.4820   -4.6170   21.4080 F   0  0  0  0  0  0  0  0  0  0  0  0
  -21.2660   -4.3980   26.0220 F   0  0  0  0  0  0  0  0  0  0  0  0
  -23.2550  -13.8930   20.9520 C   0  0  0  0  0  0  0  0  0  0  0  0
  -22.5340  -13.2300   21.8520 N   0  0  0  0  0  0  0  0  0  0  0  0
  -22.8380  -14.9240   20.4340 O   0  0  0  0  0  0  0  0  0  0  0  0
  -22.8900  -12.3970   22.2920 H   0  0  0  0  0  0  0  0  0  0  0  0
  -21.6140  -13.5640   22.0990 H   0  0  0  0  0  0  0  0  0  0  0  0
  -25.9120  -15.4570   20.0450 N   0  0  0  0  0  0  0  0  0  0  0  0
  -25.1740  -16.1380   20.1820 H   0  0  0  0  0  0  0  0  0  0  0  0
  -26.7710  -15.8680   19.7020 H   0  0  0  0  0  0  0  0  0  0  0  0
  1  5  1  0
  1  3  1  0
  2  5  1  0
  3  6  1  0
  4  2  1  0
  4  6  1  0
  5 10  1  0
  6 53  1  0
  6  9  1  1
  9  8  1  0
  9  7  1  0
 10 11  1  0
 12 14  1  0
 12 11  1  0
 13 24  2  0
 14 19  1  0
 15 23  1  0
 15 25  1  0
 16 22  1  0
 16 18  1  0
 17 23  1  0
 18 17  1  0
 19 18  2  0
 20 21  1  0
 20 14  2  0
 21 16  2  0
 22 15  1  0
 23 13  1  0
 25 27  2  0
 26 25  1  0
 28 26  1  0
 29 38  2  0
 29 34  1  0
 30 26  1  0
 30 34  1  0
 31 30  1  0
 32 33  1  0
 32 31  1  0
 33 29  1  0
 34 35  2  0
 35 36  1  0
 37 36  2  0
 38 37  1  0
 39 13  1  0
 39 40  1  0
 39 49  1  0
 40 43  1  0
 41 45  1  0
 41 40  1  0
 42 41  2  0
 45 44  1  0
 47 45  1  0
 47 48  1  0
 47 46  1  0
 49 52  1  1
 49 50  1  0
 51 49  1  0
 53 54  2  0
 55 61  1  0
 55 54  1  0
 56 61  1  0
 57 58  1  0
 57 56  1  0
 59 58  1  0
 59 66  1  0
 59 60  1  0
 61 60  1  0
 62 55  2  0
 63 64  2  0
 64 83  1  0
 65 64  1  0
 65 68  1  0
 66 63  1  0
 66 67  1  0
 67 65  2  0
 68 69  1  0
 69 70  2  0
 71 74  1  0
 71 70  1  0
 72 71  2  0
 73 72  1  0
 73 68  2  0
 74 75  1  0
 75 80  2  0
 75 76  1  0
 76 77  2  0
 77 78  1  0
 78 82  1  0
 79 78  2  0
 80 79  1  0
 81 80  1  0
 83 84  1  0
 84 87  1  0
 84 86  1  0
 85 83  2  0
 88 89  1  0
 88 63  1  0
 90 88  1  0
M  ISO  4  11 101  12 101  54 100  55 100
M  END
>  <TORSDO>  (77) 
F 21

>  <SCORE>  (77) 
-12.302

>  <name>  (77) 
77

>  <ligand_id>  (77) 
77

>  <original_smiles>  (77) 
[H]c1c([H])c([H])c2c(c1[H])C([H])([H])C([H])([H])C([H])([H])C2([H])N([H])C(=O)C1([H])N(C(=O)C([H])(N([H])C(=O)C([H])(N([H])C([H])([H])[H])C([H])([H])[H])C(C([H])([H])[H])(C([H])([H])[H])C([H])([H])[H])C([H])([H])c2c([H])c(OC([H])([H])C([H])([H])C3([H])C([H])([H])C([H])([H])C(C([H])([H])C([H])([H])C(=O)N4C([H])([H])C([H])([H])C([H])([H])C([H])(n5nc(-c6c([H])c([H])c(Oc7c([H])c([H])c(F)c([H])c7F)c([H])c6[H])c(C(=O)N([H])[H])c5N([H])[H])C4([H])[H])(C([H])(C([H])([H])[H])C([H])([H])[H])C([H])([H])C3([H])[H])c([H])c([H])c2C1([H])[H]

>  <smiles>  (77) 
[H]c1c([H])c([H])c2c(c1[H])C([H])([H])C([H])([H])C([H])([H])C2([H])N([H])C(=O)C1([H])N(C(=O)C([H])(N([H])C(=O)C([H])(N([H])C([H])([H])[H])C([H])([H])[H])C(C([H])([H])[H])(C([H])([H])[H])C([H])([H])[H])C([H])([H])c2c([H])c(OC([H])([H])C([H])([H])C3([H])C([H])([H])C([H])([H])C(C([H])([H])C([H])([H])C(=O)N4C([H])([H])C([H])([H])C([H])([H])C([H])(n5nc(-c6c([H])c([H])c(Oc7c([H])c([H])c(F)c([H])c7F)c([H])c6[H])c(C(=O)N([H])[H])c5N([H])[H])C4([H])[H])(C([H])(C([H])([H])[H])C([H])([H])[H])C([H])([H])C3([H])[H])c([H])c([H])c2C1([H])[H]

$$$$
78:0:0
     RDKit          3D

 94101  0  0  1  0  0  0  0  0999 V2000
  -29.2210  -19.0170   20.0620 C   0  0  0  0  0  2  0  0  0  0  0  0
  -30.0500  -17.7200   20.7490 C   0  0  0  0  0  3  0  0  0  0  0  0
  -30.5230  -14.9790   20.3330 C   0  0  0  0  0  0  0  0  0  0  0  0
  -30.3590  -12.6500   19.3450 C   0  0  0  0  0  2  0  0  0  0  0  0
  -29.4130  -12.6270   18.1250 C   0  0  0  0  0  2  0  0  0  0  0  0
  -27.9550  -12.4220   18.5750 C   0  0  0  0  0  2  0  0  0  0  0  0
  -27.5650  -13.3340   19.7680 C   0  0  0  0  0  3  0  0  0  0  0  0
  -28.6350  -13.3330   20.8790 C   0  0  0  0  0  2  0  0  0  0  0  0
  -29.8960  -13.7390   20.2490 N   0  0  0  0  0  0  0  0  0  0  0  0
  -31.7380  -14.9990   20.1190 O   0  0  0  0  0  0  0  0  0  0  0  0
  -29.7600  -16.1790   20.4540 N   0  0  0  0  0  0  0  0  0  0  0  0
  -28.7730  -15.9730   20.4790 H   0  0  0  0  0  0  0  0  0  0  0  0
  -25.1930  -13.9080   20.5350 C   0  0  0  0  0  0  0  0  0  0  0  0
  -24.1330  -13.1290   20.9080 C   0  0  0  0  0  0  0  0  0  0  0  0
  -24.5970  -11.7790   20.8630 C   0  0  0  0  0  0  0  0  0  0  0  0
  -26.2350  -13.0320   20.2800 N   0  0  0  0  0  0  0  0  0  0  0  0
  -25.8870  -11.7450   20.5440 N   0  0  0  0  0  0  0  0  0  0  0  0
  -23.8710  -10.5140   21.0480 C   0  0  0  0  0  0  0  0  0  0  0  0
  -24.3000   -9.5440   21.9810 C   0  0  0  0  0  3  0  0  0  0  0  0
  -23.5720   -8.3490   22.1550 C   0  0  0  0  0  3  0  0  0  0  0  0
  -22.4010   -8.1120   21.3950 C   0  0  0  0  0  0  0  0  0  0  0  0
  -21.9920   -9.0700   20.4500 C   0  0  0  0  0  3  0  0  0  0  0  0
  -22.7210  -10.2580   20.2750 C   0  0  0  0  0  3  0  0  0  0  0  0
  -21.6460   -6.9680   21.4770 O   0  0  0  0  0  0  0  0  0  0  0  0
  -21.5810   -6.2290   22.6310 C   0  0  0  0  0  0  0  0  0  0  0  0
  -21.1200   -6.7840   23.8460 C   0  0  0  0  0  3  0  0  0  0  0  0
  -21.0040   -5.9730   24.9910 C   0  0  0  0  0  3  0  0  0  0  0  0
  -21.3390   -4.6080   24.9250 C   0  0  0  0  0  0  0  0  0  0  0  0
  -21.7930   -4.0520   23.7160 C   0  0  0  0  0  3  0  0  0  0  0  0
  -21.9130   -4.8600   22.5720 C   0  0  0  0  0  0  0  0  0  0  0  0
  -22.3300   -4.3150   21.4040 F   0  0  0  0  0  0  0  0  0  0  0  0
  -21.2200   -3.8260   26.0230 F   0  0  0  0  0  0  0  0  0  0  0  0
  -22.7380  -13.6040   21.1890 C   0  0  0  0  0  0  0  0  0  0  0  0
  -22.0110  -12.8950   22.0450 N   0  0  0  0  0  0  0  0  0  0  0  0
  -22.3000  -14.6370   20.6850 O   0  0  0  0  0  0  0  0  0  0  0  0
  -22.3780  -12.0570   22.4720 H   0  0  0  0  0  0  0  0  0  0  0  0
  -21.0760  -13.1950   22.2790 H   0  0  0  0  0  0  0  0  0  0  0  0
  -25.3510  -15.2800   20.3630 N   0  0  0  0  0  0  0  0  0  0  0  0
  -24.5770  -15.9270   20.4740 H   0  0  0  0  0  0  0  0  0  0  0  0
  -26.1780  -15.7210   19.9830 H   0  0  0  0  0  0  0  0  0  0  0  0
  -31.5620  -18.0420   20.6770 C   0  0  0  0  0  2  0  0  0  0  0  0
  -32.1450  -18.0320   19.2430 C   0  0  0  0  0  2  0  0  0  0  0  0
  -32.6330  -19.3970   18.7160 C   0  0  0  0  0  2  0  0  0  0  0  0
  -34.1290  -19.6840   18.9480 C   0  0  0  0  0  2  0  0  0  0  0  0
  -34.4620  -19.9070   20.3650 N   0  0  0  0  0  4  0  0  0  0  0  0
  -33.9470  -20.6850   20.7370 H   0  0  0  0  0  0  0  0  0  0  0  0
  -35.4420  -20.1130   20.4470 H   0  0  0  0  0  0  0  0  0  0  0  0
  -34.2730  -19.0880   20.9130 H   0  0  0  0  0  0  0  0  0  0  0  0
  -28.8590  -20.5070   20.7770 C   0  0  0  0  0  2  0  0  0  0  0  0
  -29.2450  -22.0300   20.2670 C   0  0  0  0  0  0  0  0  0  0  0  0
  -30.4260  -22.2110   19.9620 O   0  0  0  0  0  0  0  0  0  0  0  0
  -28.2340  -23.3320   20.1020 C   0  0  0  0  0  2  0  0  0  0  0  0
  -28.3680  -24.8450   20.8320 C   0  0  0  0  0  2  0  0  0  0  0  0
  -28.3740  -26.2900   20.2640 O   0  0  0  0  0  0  0  0  0  0  0  0
  -24.6180  -31.9160   23.2380 C   0  0  0  0  0  0  0  0  0  0  0  0
  -27.2710  -27.2050   20.2960 C   0  0  0  0  0  0  0  0  0  0  0  0
  -23.4500  -30.4990   21.5920 C   0  0  0  0  0  3  0  0  0  0  0  0
  -24.9260  -28.9120   20.2140 C   0  0  0  0  0  0  0  0  0  0  0  0
  -26.0010  -30.7840   21.4590 C   0  0  0  0  0  2  0  0  0  0  0  0
  -26.0940  -29.3830   20.8290 C   0  0  0  0  0  0  0  0  0  0  0  0
  -27.2700  -28.5490   20.8440 C   0  0  0  0  0  3  0  0  0  0  0  0
  -26.0750  -26.8160   19.6610 C   0  0  0  0  0  3  0  0  0  0  0  0
  -24.9300  -27.6410   19.6140 C   0  0  0  0  0  3  0  0  0  0  0  0
  -23.6930  -29.8040   20.2270 C   0  0  0  0  0  2  0  0  0  0  0  0
  -24.7090  -31.0880   22.1520 N   0  0  0  0  0  0  0  0  0  0  0  0
  -23.5230  -32.2000   23.7460 O   0  0  0  0  0  0  0  0  0  0  0  0
  -22.7610  -29.4990   22.5540 C   0  0  0  0  0  0  0  0  0  0  0  0
  -21.4350  -29.3250   22.4100 N   0  0  0  0  0  0  0  0  0  0  0  0
  -23.4220  -28.8790   23.3900 O   0  0  0  0  0  0  0  0  0  0  0  0
  -20.9570  -29.8760   21.7100 H   0  0  0  0  0  0  0  0  0  0  0  0
  -18.0450  -28.1410   22.8920 C   0  0  0  0  0  0  0  0  0  0  0  0
  -20.6040  -28.3920   23.1750 C   0  0  0  0  0  3  0  0  0  0  0  0
  -20.7020  -26.9590   22.6030 C   0  0  0  0  0  2  0  0  0  0  0  0
  -19.6060  -26.6410   21.5810 C   0  0  0  0  0  2  0  0  0  0  0  0
  -18.2210  -26.7910   22.2160 C   0  0  0  0  0  2  0  0  0  0  0  0
  -19.1640  -28.8990   23.3280 C   0  0  0  0  0  0  0  0  0  0  0  0
  -18.9470  -30.1610   23.9210 C   0  0  0  0  0  3  0  0  0  0  0  0
  -17.6430  -30.6670   24.0800 C   0  0  0  0  0  3  0  0  0  0  0  0
  -16.5380  -29.9070   23.6590 C   0  0  0  0  0  3  0  0  0  0  0  0
  -16.7390  -28.6450   23.0730 C   0  0  0  0  0  3  0  0  0  0  0  0
  -25.8830  -32.5600   23.8810 C   0  0  0  0  0  3  0  0  0  0  0  0
  -26.3740  -31.8060   25.1790 C   0  0  1  0  0  0  0  0  0  0  0  0
  -25.2600  -31.5760   26.2250 C   0  0  0  0  0  1  0  0  0  0  0  0
  -26.9710  -30.4250   24.8180 C   0  0  0  0  0  1  0  0  0  0  0  0
  -27.5090  -32.6120   25.8540 C   0  0  0  0  0  1  0  0  0  0  0  0
  -25.5620  -33.9620   24.1950 N   0  0  0  0  0  0  0  0  0  0  0  0
  -25.9020  -35.0110   23.4350 C   0  0  0  0  0  0  0  0  0  0  0  0
  -26.5860  -34.9030   22.4120 O   0  0  0  0  0  0  0  0  0  0  0  0
  -24.9530  -34.1190   24.9830 H   0  0  0  0  0  0  0  0  0  0  0  0
  -24.1770  -36.8030   23.0480 C   0  0  0  0  0  1  0  0  0  0  0  0
  -25.4070  -36.4020   23.8780 C   0  0  0  0  0  3  0  0  0  0  0  0
  -27.5230  -37.2990   24.7410 C   0  0  0  0  0  1  0  0  0  0  0  0
  -26.4390  -37.4550   23.7760 N   0  0  0  0  0  0  0  0  0  0  0  0
  -26.0280  -38.3750   23.9080 H   0  0  0  0  0  0  0  0  0  0  0  0
  1 49  1  0
  2  1  1  0
  3 11  1  0
  4  9  1  0
  5  6  1  0
  5  4  1  0
  7  6  1  0
  7 16  1  0
  7  8  1  0
  9  3  1  0
  9  8  1  0
 10  3  2  0
 11 12  1  0
 11  2  1  0
 13 14  2  0
 14 33  1  0
 15 14  1  0
 15 18  1  0
 16 13  1  0
 16 17  1  0
 17 15  2  0
 18 19  1  0
 19 20  2  0
 21 24  1  0
 21 20  1  0
 22 21  2  0
 23 22  1  0
 23 18  2  0
 24 25  1  0
 25 26  1  0
 26 27  2  0
 28 27  1  0
 28 32  1  0
 29 28  2  0
 30 25  2  0
 30 29  1  0
 31 30  1  0
 33 34  1  0
 34 37  1  0
 34 36  1  0
 35 33  2  0
 38 39  1  0
 38 13  1  0
 40 38  1  0
 41  2  1  0
 42 41  1  0
 43 44  1  0
 43 42  1  0
 44 45  1  0
 45 47  1  0
 45 46  1  0
 45 48  1  0
 50 49  1  0
 51 50  2  0
 52 50  1  0
 52 53  1  0
 54 56  1  0
 54 53  1  0
 55 66  2  0
 56 61  1  0
 57 65  1  0
 57 67  1  0
 58 64  1  0
 58 60  1  0
 59 65  1  0
 60 61  2  0
 60 59  1  0
 62 56  2  0
 63 62  1  0
 63 58  2  0
 64 57  1  0
 65 55  1  0
 67 69  2  0
 68 67  1  0
 70 68  1  0
 71 80  2  0
 71 76  1  0
 72 68  1  0
 72 76  1  0
 73 72  1  0
 74 75  1  0
 74 73  1  0
 75 71  1  0
 76 77  2  0
 77 78  1  0
 79 78  2  0
 80 79  1  0
 81 55  1  0
 81 86  1  0
 81 82  1  0
 82 85  1  1
 82 83  1  0
 84 82  1  0
 86 89  1  0
 87 91  1  0
 87 86  1  0
 88 87  2  0
 91 90  1  0
 93 91  1  0
 93 94  1  0
 93 92  1  0
M  ISO  4   3 100  11 100  53 101  54 101
M  END
>  <TORSDO>  (78) 
F 26

>  <SCORE>  (78) 
-12.117

>  <name>  (78) 
78

>  <ligand_id>  (78) 
78

>  <original_smiles>  (78) 
[H]c1c([H])c([H])c2c(c1[H])C([H])([H])C([H])([H])C([H])([H])C2([H])N([H])C(=O)C1([H])N(C(=O)C([H])(N([H])C(=O)C([H])(N([H])C([H])([H])[H])C([H])([H])[H])C(C([H])([H])[H])(C([H])([H])[H])C([H])([H])[H])C([H])([H])c2c([H])c(OC([H])([H])C([H])([H])C(=O)C([H])([H])C([H])([H])C([H])(N([H])C(=O)N3C([H])([H])C([H])([H])C([H])([H])C([H])(n4nc(-c5c([H])c([H])c(Oc6c([H])c([H])c(F)c([H])c6F)c([H])c5[H])c(C(=O)N([H])[H])c4N([H])[H])C3([H])[H])C([H])([H])C([H])([H])C([H])([H])C([H])([H])[N+]([H])([H])[H])c([H])c([H])c2C1([H])[H]

>  <smiles>  (78) 
[H]c1c([H])c([H])c2c(c1[H])C([H])([H])C([H])([H])C([H])([H])C2([H])N([H])C(=O)C1([H])N(C(=O)C([H])(N([H])C(=O)C([H])(N([H])C([H])([H])[H])C([H])([H])[H])C(C([H])([H])[H])(C([H])([H])[H])C([H])([H])[H])C([H])([H])c2c([H])c(OC([H])([H])C([H])([H])C(=O)C([H])([H])C([H])([H])C([H])(N([H])C(=O)N3C([H])([H])C([H])([H])C([H])([H])C([H])(n4nc(-c5c([H])c([H])c(Oc6c([H])c([H])c(F)c([H])c6F)c([H])c5[H])c(C(=O)N([H])[H])c4N([H])[H])C3([H])[H])C([H])([H])C([H])([H])C([H])([H])C([H])([H])[N+]([H])([H])[H])c([H])c([H])c2C1([H])[H]

$$$$
79:0:0
     RDKit          3D

 94102  0  0  1  0  0  0  0  0999 V2000
  -30.0400  -20.6090   20.3480 C   0  0  0  0  0  2  0  0  0  0  0  0
  -31.1090  -18.4350   18.2080 C   0  0  0  0  0  2  0  0  0  0  0  0
  -31.2080  -17.0770   18.9030 C   0  0  0  0  0  2  0  0  0  0  0  0
  -29.6970  -19.0200   18.3580 C   0  0  0  0  0  2  0  0  0  0  0  0
  -29.6320  -18.0200   20.7040 C   0  0  0  0  0  2  0  0  0  0  0  0
  -30.9050  -17.1410   20.4160 C   0  0  0  0  0  3  0  0  0  0  0  0
  -29.2980  -19.3100   19.8270 C   0  0  1  0  0  0  0  0  0  0  0  0
  -31.4710  -14.6480   20.6150 C   0  0  0  0  0  0  0  0  0  0  0  0
  -31.1590  -12.4450   19.5490 C   0  0  0  0  0  2  0  0  0  0  0  0
  -30.3160  -12.6690   18.2740 C   0  0  0  0  0  2  0  0  0  0  0  0
  -28.8080  -12.6350   18.5980 C   0  0  0  0  0  2  0  0  0  0  0  0
  -28.4390  -13.5260   19.8150 C   0  0  0  0  0  3  0  0  0  0  0  0
  -29.3970  -13.2680   21.0000 C   0  0  0  0  0  2  0  0  0  0  0  0
  -30.7740  -13.4800   20.5230 N   0  0  0  0  0  0  0  0  0  0  0  0
  -32.6480  -14.7500   20.2550 O   0  0  0  0  0  0  0  0  0  0  0  0
  -30.7130  -15.7400   20.8880 N   0  0  0  0  0  0  0  0  0  0  0  0
  -29.7870  -15.5210   21.2220 H   0  0  0  0  0  0  0  0  0  0  0  0
  -26.0530  -14.3220   20.3520 C   0  0  0  0  0  0  0  0  0  0  0  0
  -24.9070  -13.6380   20.6560 C   0  0  0  0  0  0  0  0  0  0  0  0
  -25.2650  -12.2550   20.6710 C   0  0  0  0  0  0  0  0  0  0  0  0
  -27.0410  -13.3610   20.2010 N   0  0  0  0  0  0  0  0  0  0  0  0
  -26.5660  -12.1130   20.4510 N   0  0  0  0  0  0  0  0  0  0  0  0
  -24.4350  -11.0540   20.8260 C   0  0  0  0  0  0  0  0  0  0  0  0
  -24.7810  -10.0300   21.7350 C   0  0  0  0  0  3  0  0  0  0  0  0
  -23.9570   -8.8920   21.8780 C   0  0  0  0  0  3  0  0  0  0  0  0
  -22.7740   -8.7720   21.1120 C   0  0  0  0  0  0  0  0  0  0  0  0
  -22.4460   -9.7830   20.1920 C   0  0  0  0  0  3  0  0  0  0  0  0
  -23.2690  -10.9130   20.0470 C   0  0  0  0  0  3  0  0  0  0  0  0
  -21.9270   -7.6920   21.1660 O   0  0  0  0  0  0  0  0  0  0  0  0
  -21.8500   -6.8920   22.2790 C   0  0  0  0  0  0  0  0  0  0  0  0
  -21.5500   -7.4170   23.5540 C   0  0  0  0  0  3  0  0  0  0  0  0
  -21.4130   -6.5520   24.6570 C   0  0  0  0  0  3  0  0  0  0  0  0
  -21.5640   -5.1620   24.4860 C   0  0  0  0  0  0  0  0  0  0  0  0
  -21.8570   -4.6370   23.2150 C   0  0  0  0  0  3  0  0  0  0  0  0
  -21.9960   -5.5000   22.1140 C   0  0  0  0  0  0  0  0  0  0  0  0
  -22.2580   -4.9870   20.8880 F   0  0  0  0  0  0  0  0  0  0  0  0
  -21.4230   -4.3290   25.5430 F   0  0  0  0  0  0  0  0  0  0  0  0
  -23.5340  -14.2230   20.8280 C   0  0  0  0  0  0  0  0  0  0  0  0
  -22.7170  -13.6260   21.6890 N   0  0  0  0  0  0  0  0  0  0  0  0
  -23.1950  -15.2440   20.2330 O   0  0  0  0  0  0  0  0  0  0  0  0
  -23.0020  -12.8010   22.1960 H   0  0  0  0  0  0  0  0  0  0  0  0
  -21.7920  -14.0010   21.8450 H   0  0  0  0  0  0  0  0  0  0  0  0
  -26.3320  -15.6740   20.1740 N   0  0  0  0  0  0  0  0  0  0  0  0
  -25.6090  -16.3820   20.2260 H   0  0  0  0  0  0  0  0  0  0  0  0
  -27.2300  -16.0460   19.8930 H   0  0  0  0  0  0  0  0  0  0  0  0
  -27.0220  -20.3900   18.8850 C   0  0  0  0  0  1  0  0  0  0  0  0
  -27.7400  -19.4930   19.9220 C   0  0  0  0  0  2  0  0  0  0  0  0
  -29.3040  -21.9050   20.1620 N   0  0  0  0  0  4  0  0  0  0  0  0
  -28.7850  -22.0640   21.0110 H   0  0  0  0  0  0  0  0  0  0  0  0
  -28.6360  -21.7890   19.4160 H   0  0  0  0  0  0  0  0  0  0  0  0
  -30.1270  -23.1210   19.8790 C   0  0  0  0  0  2  0  0  0  0  0  0
  -29.6390  -24.4710   20.5170 C   0  0  0  0  0  2  0  0  0  0  0  0
  -28.5050  -25.2730   19.8130 C   0  0  0  0  0  2  0  0  0  0  0  0
  -28.5570  -26.6870   20.1400 O   0  0  0  0  0  0  0  0  0  0  0  0
  -24.6820  -31.7610   23.3270 C   0  0  0  0  0  0  0  0  0  0  0  0
  -27.3870  -27.4350   20.1040 C   0  0  0  0  0  0  0  0  0  0  0  0
  -23.5080  -30.4340   21.6020 C   0  0  0  0  0  3  0  0  0  0  0  0
  -24.9900  -28.9640   20.1330 C   0  0  0  0  0  0  0  0  0  0  0  0
  -26.0380  -30.7990   21.4650 C   0  0  0  0  0  2  0  0  0  0  0  0
  -26.1380  -29.4560   20.7630 C   0  0  0  0  0  0  0  0  0  0  0  0
  -27.3390  -28.7020   20.7420 C   0  0  0  0  0  3  0  0  0  0  0  0
  -26.2160  -26.9710   19.4550 C   0  0  0  0  0  3  0  0  0  0  0  0
  -25.0260  -27.7230   19.4750 C   0  0  0  0  0  3  0  0  0  0  0  0
  -23.7440  -29.8190   20.1960 C   0  0  0  0  0  2  0  0  0  0  0  0
  -24.7600  -31.0110   22.1900 N   0  0  0  0  0  0  0  0  0  0  0  0
  -23.5910  -32.0070   23.8600 O   0  0  0  0  0  0  0  0  0  0  0  0
  -22.8420  -29.3700   22.5050 C   0  0  0  0  0  0  0  0  0  0  0  0
  -21.5180  -29.2030   22.3600 N   0  0  0  0  0  0  0  0  0  0  0  0
  -23.5150  -28.6990   23.2920 O   0  0  0  0  0  0  0  0  0  0  0  0
  -21.0360  -29.7970   21.7000 H   0  0  0  0  0  0  0  0  0  0  0  0
  -18.1280  -28.0230   22.7900 C   0  0  0  0  0  0  0  0  0  0  0  0
  -20.6900  -28.2320   23.0750 C   0  0  0  0  0  3  0  0  0  0  0  0
  -20.7750  -26.8360   22.4160 C   0  0  0  0  0  2  0  0  0  0  0  0
  -19.6700  -26.5860   21.3860 C   0  0  0  0  0  2  0  0  0  0  0  0
  -18.2900  -26.7120   22.0380 C   0  0  0  0  0  2  0  0  0  0  0  0
  -19.2560  -28.7440   23.2640 C   0  0  0  0  0  0  0  0  0  0  0  0
  -19.0550  -29.9730   23.9280 C   0  0  0  0  0  3  0  0  0  0  0  0
  -17.7570  -30.4820   24.1220 C   0  0  0  0  0  3  0  0  0  0  0  0
  -16.6440  -29.7570   23.6630 C   0  0  0  0  0  3  0  0  0  0  0  0
  -16.8300  -28.5290   23.0050 C   0  0  0  0  0  3  0  0  0  0  0  0
  -25.9550  -32.3680   23.9960 C   0  0  0  0  0  3  0  0  0  0  0  0
  -25.6490  -33.7610   24.3490 N   0  0  0  0  0  0  0  0  0  0  0  0
  -26.0330  -34.8290   23.6360 C   0  0  0  0  0  0  0  0  0  0  0  0
  -26.7520  -34.7430   22.6370 O   0  0  0  0  0  0  0  0  0  0  0  0
  -25.0150  -33.9030   25.1220 H   0  0  0  0  0  0  0  0  0  0  0  0
  -24.3430  -36.6500   23.2500 C   0  0  0  0  0  1  0  0  0  0  0  0
  -25.5410  -36.2110   24.1060 C   0  0  0  0  0  3  0  0  0  0  0  0
  -27.6400  -37.0520   25.0640 C   0  0  0  0  0  1  0  0  0  0  0  0
  -26.5900  -37.2520   24.0680 N   0  0  0  0  0  0  0  0  0  0  0  0
  -26.1870  -38.1740   24.2140 H   0  0  0  0  0  0  0  0  0  0  0  0
  -26.4320  -31.5620   25.2670 C   0  0  1  0  0  0  0  0  0  0  0  0
  -25.3090  -31.3110   26.2990 C   0  0  0  0  0  1  0  0  0  0  0  0
  -27.0130  -30.1880   24.8550 C   0  0  0  0  0  1  0  0  0  0  0  0
  -27.5700  -32.3290   25.9780 C   0  0  0  0  0  1  0  0  0  0  0  0
  2  4  1  0
  2  3  1  0
  3  6  1  0
  4  7  1  0
  6  5  1  0
  6 16  1  0
  7 47  1  6
  7  1  1  0
  7  5  1  0
  8 16  1  0
  9 14  1  0
 10 11  1  0
 10  9  1  0
 12 11  1  0
 12 21  1  0
 12 13  1  0
 14  8  1  0
 14 13  1  0
 15  8  2  0
 16 17  1  0
 18 19  2  0
 19 20  1  0
 19 38  1  0
 20 23  1  0
 21 18  1  0
 21 22  1  0
 22 20  2  0
 23 24  1  0
 24 25  2  0
 26 29  1  0
 26 25  1  0
 27 26  2  0
 28 27  1  0
 28 23  2  0
 29 30  1  0
 30 31  1  0
 31 32  2  0
 33 32  1  0
 33 37  1  0
 34 33  2  0
 35 30  2  0
 35 34  1  0
 36 35  1  0
 38 39  1  0
 39 42  1  0
 39 41  1  0
 40 38  2  0
 43 44  1  0
 43 18  1  0
 45 43  1  0
 46 47  1  0
 48  1  1  0
 48 49  1  0
 50 48  1  0
 51 48  1  0
 51 52  1  0
 53 54  1  0
 53 52  1  0
 55 66  2  0
 56 54  1  0
 56 61  1  0
 57 65  1  0
 57 67  1  0
 58 64  1  0
 58 60  1  0
 59 65  1  0
 60 59  1  0
 61 60  2  0
 62 63  1  0
 62 56  2  0
 63 58  2  0
 64 57  1  0
 65 55  1  0
 67 69  2  0
 68 67  1  0
 70 68  1  0
 71 80  2  0
 71 76  1  0
 72 68  1  0
 72 76  1  0
 73 72  1  0
 74 75  1  0
 74 73  1  0
 75 71  1  0
 76 77  2  0
 77 78  1  0
 79 78  2  0
 80 79  1  0
 81 55  1  0
 81 82  1  0
 81 91  1  0
 82 85  1  0
 83 87  1  0
 83 82  1  0
 84 83  2  0
 87 86  1  0
 89 87  1  0
 89 90  1  0
 89 88  1  0
 91 94  1  1
 91 92  1  0
 93 91  1  0
M  ISO  4   8 100  16 100  53 101  54 101
M  END
>  <TORSDO>  (79) 
F 22

>  <SCORE>  (79) 
-12.255

>  <name>  (79) 
79

>  <ligand_id>  (79) 
79

>  <original_smiles>  (79) 
[H]c1c([H])c([H])c2c(c1[H])C([H])([H])C([H])([H])C([H])([H])C2([H])N([H])C(=O)C1([H])N(C(=O)C([H])(N([H])C(=O)C([H])(N([H])C([H])([H])[H])C([H])([H])[H])C(C([H])([H])[H])(C([H])([H])[H])C([H])([H])[H])C([H])([H])c2c([H])c(OC([H])([H])C([H])([H])C([H])([H])[N+]([H])([H])C([H])([H])C3(C([H])([H])C([H])([H])[H])C([H])([H])C([H])([H])C([H])([H])C([H])(N([H])C(=O)N4C([H])([H])C([H])([H])C([H])([H])C([H])(n5nc(-c6c([H])c([H])c(Oc7c([H])c([H])c(F)c([H])c7F)c([H])c6[H])c(C(=O)N([H])[H])c5N([H])[H])C4([H])[H])C3([H])[H])c([H])c([H])c2C1([H])[H]

>  <smiles>  (79) 
[H]c1c([H])c([H])c2c(c1[H])C([H])([H])C([H])([H])C([H])([H])C2([H])N([H])C(=O)C1([H])N(C(=O)C([H])(N([H])C(=O)C([H])(N([H])C([H])([H])[H])C([H])([H])[H])C(C([H])([H])[H])(C([H])([H])[H])C([H])([H])[H])C([H])([H])c2c([H])c(OC([H])([H])C([H])([H])C([H])([H])[N+]([H])([H])C([H])([H])C3(C([H])([H])C([H])([H])[H])C([H])([H])C([H])([H])C([H])([H])C([H])(N([H])C(=O)N4C([H])([H])C([H])([H])C([H])([H])C([H])(n5nc(-c6c([H])c([H])c(Oc7c([H])c([H])c(F)c([H])c7F)c([H])c6[H])c(C(=O)N([H])[H])c5N([H])[H])C4([H])[H])C3([H])[H])c([H])c([H])c2C1([H])[H]

$$$$
80:0:0
     RDKit          3D

 91 90  0  0  1  0  0  0  0  0999 V2000
  -31.3370  -17.5210   20.1280 C   0  0  0  0  0  2  0  0  0  0  0  0
  -30.1610  -17.3570   20.7120 C   0  0  0  0  0  3  0  0  0  0  0  0
  -28.9120  -13.0740   20.1220 C   0  0  0  0  0  2  0  0  0  0  0  0
  -28.8860  -13.4660   20.8850 C   0  0  0  0  0  3  0  0  0  0  0  0
  -30.6190  -15.8720   18.3510 C   0  0  0  0  0  2  0  0  0  0  0  0
  -31.8010  -16.5180   19.1650 C   0  0  0  0  0  3  0  0  0  0  0  0
  -29.3610  -15.2620   19.1770 C   0  0  0  0  0  2  0  0  0  0  0  0
  -29.0070  -16.4250   20.0990 C   0  0  0  0  0  2  0  0  0  0  0  0
  -32.1170  -14.6890   20.8910 C   0  0  0  0  0  3  0  0  0  0  0  0
  -31.2890  -13.3980   19.0580 C   0  0  0  0  0 15  0  0  0  0  0  0
  -29.8640  -13.1210   17.5200 C   0  0  0  0  0 15  0  0  0  0  0  0
  -27.8300  -13.5500   17.9620 C   0  0  0  0  0 15  0  0  0  0  0  0
  -27.3000  -14.3460   19.9090 C   0  0  0  0  0  1  0  0  0  0  0  0
  -29.0940  -14.8160   21.6800 C   0  0  0  0  0  1  0  0  0  0  0  0
  -30.8980  -14.3560   20.7170 N   0  0  0  0  0  1  0  0  0  0  0  0
  -32.9560  -13.8440   21.0110 O   0  0  0  0  0  1  0  0  0  0  0  0
  -32.5550  -15.6430   20.0500 N   0  0  0  0  0  0  0  0  0  0  0  0
  -33.5600  -15.7150   19.9890 H   0  0  0  0  0  0  0  0  0  0  0  0
  -25.2910  -13.7750   21.0520 C   0  0  0  0  0  0  0  0  0  0  0  0
  -24.4100  -12.7960   21.2850 C   0  0  0  0  0  0  0  0  0  0  0  0
  -24.9740  -11.5340   20.9410 C   0  0  0  0  0  0  0  0  0  0  0  0
  -26.3040  -13.2590   20.4120 N   0  0  0  0  0  0  0  0  0  0  0  0
  -26.1830  -11.8220   20.3900 N   0  0  0  0  0  0  0  0  0  0  0  0
  -24.2960  -10.1890   21.0650 C   0  0  0  0  0  0  0  0  0  0  0  0
  -24.6520   -9.1770   21.9980 C   0  0  0  0  0  3  0  0  0  0  0  0
  -23.8610   -8.0030   22.1630 C   0  0  0  0  0  3  0  0  0  0  0  0
  -22.6800   -7.8150   21.4000 C   0  0  0  0  0  0  0  0  0  0  0  0
  -22.3310   -8.8070   20.4680 C   0  0  0  0  0  3  0  0  0  0  0  0
  -23.1230   -9.9620   20.3030 C   0  0  0  0  0  3  0  0  0  0  0  0
  -21.8650   -6.7000   21.4560 O   0  0  0  0  0  0  0  0  0  0  0  0
  -21.6220   -6.0130   22.6220 C   0  0  0  0  0  0  0  0  0  0  0  0
  -20.9780   -6.6190   23.7230 C   0  0  0  0  0  3  0  0  0  0  0  0
  -20.6850   -5.8610   24.8760 C   0  0  0  0  0  3  0  0  0  0  0  0
  -21.0260   -4.4960   24.9310 C   0  0  0  0  0  0  0  0  0  0  0  0
  -21.6540   -3.8860   23.8310 C   0  0  0  0  0  3  0  0  0  0  0  0
  -21.9450   -4.6400   22.6790 C   0  0  0  0  0  0  0  0  0  0  0  0
  -22.5280   -4.0350   21.6160 F   0  0  0  0  0  0  0  0  0  0  0  0
  -20.7470   -3.7690   26.0370 F   0  0  0  0  0  0  0  0  0  0  0  0
  -23.0500  -13.1540   21.7100 C   0  0  0  0  0  0  0  0  0  0  0  0
  -22.4600  -12.3690   22.5880 N   0  0  0  0  0  0  0  0  0  0  0  0
  -22.5530  -14.2090   21.3140 O   0  0  0  0  0  0  0  0  0  0  0  0
  -22.9110  -11.5290   22.9230 H   0  0  0  0  0  0  0  0  0  0  0  0
  -21.5420  -12.6050   22.9370 H   0  0  0  0  0  0  0  0  0  0  0  0
  -25.2760  -15.1380   21.2870 N   0  0  0  0  0  0  0  0  0  0  0  0
  -24.4660  -15.5980   21.6850 H   0  0  0  0  0  0  0  0  0  0  0  0
  -26.0300  -15.7770   21.0650 H   0  0  0  0  0  0  0  0  0  0  0  0
  -30.9450  -18.4360   22.9370 C   0  0  0  0  0  1  0  0  0  0  0  0
  -29.8400  -18.3280   21.8680 C   0  0  0  0  0  2  0  0  0  0  0  0
  -28.4850  -18.9460   19.6040 C   0  0  0  0  0 15  0  0  0  0  0  0
  -28.1600  -21.5020   19.9820 C   0  0  0  0  0 15  0  0  0  0  0  0
  -28.2240  -23.8100   19.8570 O   0  0  0  0  0  1  0  0  0  0  0  0
  -25.0800  -31.4760   22.8770 C   0  0  0  0  0  0  0  0  0  0  0  0
  -27.4860  -25.5120   19.9520 C   0  0  0  0  0  0  0  0  0  0  0  0
  -23.9950  -30.0630   21.2080 C   0  0  0  0  0  3  0  0  0  0  0  0
  -25.4560  -28.2280   19.8770 C   0  0  0  0  0  0  0  0  0  0  0  0
  -26.5940  -29.8780   21.3050 C   0  0  0  0  0  2  0  0  0  0  0  0
  -26.6350  -28.3470   20.6140 C   0  0  0  0  0  0  0  0  0  0  0  0
  -27.6010  -27.0540   20.5940 C   0  0  0  0  0  3  0  0  0  0  0  0
  -26.3140  -25.8810   19.1670 C   0  0  0  0  0  3  0  0  0  0  0  0
  -25.3980  -27.0290   19.1320 C   0  0  0  0  0  3  0  0  0  0  0  0
  -24.3230  -29.3170   19.8680 C   0  0  0  0  0  2  0  0  0  0  0  0
  -25.2660  -30.5340   21.8500 N   0  0  0  0  0  0  0  0  0  0  0  0
  -23.9470  -31.8110   23.2840 O   0  0  0  0  0  0  0  0  0  0  0  0
  -23.1630  -29.1560   22.1610 C   0  0  0  0  0  0  0  0  0  0  0  0
  -21.8260  -29.0620   21.9980 N   0  0  0  0  0  0  0  0  0  0  0  0
  -23.7510  -28.5240   23.0410 O   0  0  0  0  0  0  0  0  0  0  0  0
  -21.3890  -29.6220   21.2790 H   0  0  0  0  0  0  0  0  0  0  0  0
  -18.3760  -27.9990   22.5480 C   0  0  0  0  0  0  0  0  0  0  0  0
  -20.9560  -28.1320   22.7360 C   0  0  0  0  0  3  0  0  0  0  0  0
  -20.9610  -26.7320   22.0730 C   0  0  0  0  0  2  0  0  0  0  0  0
  -19.8200  -26.5380   21.0710 C   0  0  0  0  0  2  0  0  0  0  0  0
  -18.4650  -26.7010   21.7640 C   0  0  0  0  0  2  0  0  0  0  0  0
  -19.5430  -28.6810   22.9880 C   0  0  0  0  0  0  0  0  0  0  0  0
  -19.3970  -29.8940   23.6940 C   0  0  0  0  0  3  0  0  0  0  0  0
  -18.1200  -30.4280   23.9550 C   0  0  0  0  0  3  0  0  0  0  0  0
  -16.9690  -29.7460   23.5210 C   0  0  0  0  0  3  0  0  0  0  0  0
  -17.0990  -28.5320   22.8240 C   0  0  0  0  0  3  0  0  0  0  0  0
  -26.2560  -32.1970   23.6140 C   0  0  0  0  0  3  0  0  0  0  0  0
  -26.6860  -31.4620   24.9440 C   0  0  1  0  0  0  0  0  0  0  0  0
  -25.5170  -31.2070   25.9280 C   0  0  0  0  0  1  0  0  0  0  0  0
  -27.3330  -30.0980   24.6430 C   0  0  0  0  0  1  0  0  0  0  0  0
  -27.7620  -32.2940   25.6840 C   0  0  0  0  0  1  0  0  0  0  0  0
  -25.8540  -33.5910   23.9590 N   0  0  0  0  0  0  0  0  0  0  0  0
  -26.2370  -34.7100   23.3270 C   0  0  0  0  0  0  0  0  0  0  0  0
  -26.9990  -34.6850   22.3590 O   0  0  0  0  0  0  0  0  0  0  0  0
  -25.1760  -33.6810   24.7010 H   0  0  0  0  0  0  0  0  0  0  0  0
  -24.5260  -36.5380   22.9650 C   0  0  0  0  0  1  0  0  0  0  0  0
  -25.7030  -36.0730   23.8380 C   0  0  0  0  0  3  0  0  0  0  0  0
  -27.7400  -36.9510   24.9060 C   0  0  0  0  0  1  0  0  0  0  0  0
  -26.7290  -37.1430   23.8710 N   0  0  0  0  0  0  0  0  0  0  0  0
  -26.2970  -38.0520   24.0130 H   0  0  0  0  0  0  0  0  0  0  0  0
  1  2  1  0
  2 48  1  0
  3  4  2  0
  4 14  1  0
  5  6  1  0
  5  7  1  0
  6 17  1  0
  6  1  1  0
  7  8  1  0
  8  2  1  0
  9 15  1  0
  9 16  1  0
 13 22  1  0
 17  9  1  0
 18 17  1  0
 19 20  2  0
 19 44  1  0
 20 39  1  0
 21 24  1  0
 21 20  1  0
 22 19  1  0
 23 22  1  0
 23 21  2  0
 24 25  1  0
 25 26  2  0
 27 30  1  0
 27 26  1  0
 28 27  2  0
 29 28  1  0
 29 24  2  0
 30 31  1  0
 31 36  2  0
 31 32  1  0
 32 33  2  0
 33 34  1  0
 34 38  1  0
 35 34  2  0
 36 35  1  0
 37 36  1  0
 39 40  1  0
 40 42  1  0
 40 43  1  0
 41 39  2  0
 44 45  1  0
 46 44  1  0
 48 47  1  0
 51 53  1  0
 52 63  2  0
 53 58  1  0
 54 62  1  0
 54 64  1  0
 55 57  1  0
 56 62  1  0
 57 56  1  0
 58 57  2  0
 59 53  2  0
 60 59  1  0
 60 55  2  0
 61 55  1  0
 61 54  1  0
 62 52  1  0
 64 66  2  0
 65 64  1  0
 67 65  1  0
 68 77  2  0
 68 73  1  0
 69 65  1  0
 69 73  1  0
 70 69  1  0
 71 72  1  0
 71 70  1  0
 72 68  1  0
 73 74  2  0
 74 75  1  0
 76 75  2  0
 77 76  1  0
 78 52  1  0
 78 83  1  0
 78 79  1  0
 79 82  1  1
 79 80  1  0
 81 79  1  0
 83 86  1  0
 84 88  1  0
 84 83  1  0
 85 84  2  0
 88 87  1  0
 88 90  1  0
 90 91  1  0
 90 89  1  0
M  ISO  4   9 100  17 100  50 101  51 101
M  END
>  <TORSDO>  (80) 
F 19

>  <SCORE>  (80) 
-10.778

>  <name>  (80) 
80

>  <ligand_id>  (80) 
80

>  <original_smiles>  (80) 
[H]C1=C(C([H])([H])C([H])([H])[H])C2(C([H])([H])C([H])([H])Oc3c([H])c([H])c4c(c3[H])C([H])([H])N(C(=O)C([H])(N([H])C(=O)C([H])(N([H])C([H])([H])[H])C([H])([H])[H])C(C([H])([H])[H])(C([H])([H])[H])C([H])([H])[H])C([H])(C(=O)N([H])C3([H])c5c([H])c([H])c([H])c([H])c5C([H])([H])C([H])([H])C3([H])[H])C4([H])[H])C([H])([H])C([H])([H])C2([H])C([H])([H])C1([H])N([H])C(=O)N1C([H])([H])C([H])([H])C([H])([H])C([H])(n2nc(-c3c([H])c([H])c(Oc4c([H])c([H])c(F)c([H])c4F)c([H])c3[H])c(C(=O)N([H])[H])c2N([H])[H])C1([H])[H]

>  <smiles>  (80) 
[H]C1=C(C([H])([H])C([H])([H])[H])C2(C([H])([H])C([H])([H])Oc3c([H])c([H])c4c(c3[H])C([H])([H])N(C(=O)C([H])(N([H])C(=O)C([H])(N([H])C([H])([H])[H])C([H])([H])[H])C(C([H])([H])[H])(C([H])([H])[H])C([H])([H])[H])C([H])(C(=O)N([H])C3([H])c5c([H])c([H])c([H])c([H])c5C([H])([H])C([H])([H])C3([H])[H])C4([H])[H])C([H])([H])C([H])([H])C2([H])C([H])([H])C1([H])N([H])C(=O)N1C([H])([H])C([H])([H])C([H])([H])C([H])(n2nc(-c3c([H])c([H])c(Oc4c([H])c([H])c(F)c([H])c4F)c([H])c3[H])c(C(=O)N([H])[H])c2N([H])[H])C1([H])[H]

$$$$
81:0:0
     RDKit          3D

 94102  0  0  1  0  0  0  0  0999 V2000
  -28.5350  -22.1980   18.0490 C   0  0  0  0  0  2  0  0  0  0  0  0
  -31.1030  -20.3740   20.1310 C   0  0  0  0  0  2  0  0  0  0  0  0
  -30.7360  -21.5870   19.2590 C   0  0  0  0  0  2  0  0  0  0  0  0
  -29.0550  -19.8600   18.9840 C   0  0  0  0  0  2  0  0  0  0  0  0
  -30.2930  -19.1920   19.5830 C   0  0  0  0  0  3  0  0  0  0  0  0
  -29.6070  -21.1260   18.3170 C   0  0  0  0  0  3  0  0  0  0  0  0
  -29.9790  -18.0910   20.6140 C   0  0  0  0  0  2  0  0  0  0  0  0
  -31.2520  -17.4440   21.1870 C   0  0  0  0  0  2  0  0  0  0  0  0
  -31.0030  -16.2330   22.1090 C   0  0  0  0  0  2  0  0  0  0  0  0
  -30.7360  -14.3480   20.4760 C   0  0  0  0  0  0  0  0  0  0  0  0
  -30.3370  -12.3080   19.1430 C   0  0  0  0  0  2  0  0  0  0  0  0
  -29.3850  -12.5720   17.9620 C   0  0  0  0  0  2  0  0  0  0  0  0
  -27.9160  -12.4310   18.4040 C   0  0  0  0  0  2  0  0  0  0  0  0
  -27.6040  -13.2310   19.6950 C   0  0  0  0  0  3  0  0  0  0  0  0
  -28.6590  -12.9430   20.7850 C   0  0  0  0  0  2  0  0  0  0  0  0
  -29.9930  -13.2390   20.2280 N   0  0  0  0  0  0  0  0  0  0  0  0
  -31.7700  -14.6190   19.8580 O   0  0  0  0  0  0  0  0  0  0  0  0
  -30.2920  -15.1190   21.4780 N   0  0  0  0  0  0  0  0  0  0  0  0
  -29.4350  -14.8190   21.9180 H   0  0  0  0  0  0  0  0  0  0  0  0
  -25.1990  -13.8440   20.3890 C   0  0  0  0  0  0  0  0  0  0  0  0
  -24.1330  -13.0720   20.7670 C   0  0  0  0  0  0  0  0  0  0  0  0
  -24.5970  -11.7230   20.7540 C   0  0  0  0  0  0  0  0  0  0  0  0
  -26.2490  -12.9620   20.1730 N   0  0  0  0  0  0  0  0  0  0  0  0
  -25.8880  -11.6820   20.4460 N   0  0  0  0  0  0  0  0  0  0  0  0
  -23.8740  -10.4600   20.9580 C   0  0  0  0  0  0  0  0  0  0  0  0
  -24.3050   -9.5080   21.9070 C   0  0  0  0  0  3  0  0  0  0  0  0
  -23.5820   -8.3100   22.0990 C   0  0  0  0  0  3  0  0  0  0  0  0
  -22.4150   -8.0570   21.3410 C   0  0  0  0  0  0  0  0  0  0  0  0
  -22.0030   -8.9990   20.3800 C   0  0  0  0  0  3  0  0  0  0  0  0
  -22.7260  -10.1870   20.1880 C   0  0  0  0  0  3  0  0  0  0  0  0
  -21.6650   -6.9100   21.4400 O   0  0  0  0  0  0  0  0  0  0  0  0
  -21.6150   -6.1810   22.6010 C   0  0  0  0  0  0  0  0  0  0  0  0
  -21.1810   -6.7470   23.8190 C   0  0  0  0  0  3  0  0  0  0  0  0
  -21.0800   -5.9430   24.9720 C   0  0  0  0  0  3  0  0  0  0  0  0
  -21.4030   -4.5750   24.9090 C   0  0  0  0  0  0  0  0  0  0  0  0
  -21.8290   -4.0080   23.6950 C   0  0  0  0  0  3  0  0  0  0  0  0
  -21.9320   -4.8080   22.5430 C   0  0  0  0  0  0  0  0  0  0  0  0
  -22.3240   -4.2530   21.3720 F   0  0  0  0  0  0  0  0  0  0  0  0
  -21.2980   -3.8010   26.0140 F   0  0  0  0  0  0  0  0  0  0  0  0
  -22.7330  -13.5500   21.0330 C   0  0  0  0  0  0  0  0  0  0  0  0
  -22.0050  -12.8600   21.9040 N   0  0  0  0  0  0  0  0  0  0  0  0
  -22.2930  -14.5690   20.5020 O   0  0  0  0  0  0  0  0  0  0  0  0
  -22.3730  -12.0340   22.3540 H   0  0  0  0  0  0  0  0  0  0  0  0
  -21.0660  -13.1620   22.1230 H   0  0  0  0  0  0  0  0  0  0  0  0
  -25.3610  -15.2110   20.1950 N   0  0  0  0  0  0  0  0  0  0  0  0
  -24.5940  -15.8690   20.2950 H   0  0  0  0  0  0  0  0  0  0  0  0
  -26.2160  -15.6480   19.8710 H   0  0  0  0  0  0  0  0  0  0  0  0
  -29.0580  -23.3100   17.2250 N   0  0  0  0  0  4  0  0  0  0  0  0
  -29.2130  -22.9480   16.2970 H   0  0  0  0  0  0  0  0  0  0  0  0
  -29.9510  -23.6140   17.5730 H   0  0  0  0  0  0  0  0  0  0  0  0
  -28.1500  -24.4710   17.1090 C   0  0  0  0  0  2  0  0  0  0  0  0
  -28.5970  -25.6950   17.9370 C   0  0  0  0  0  2  0  0  0  0  0  0
  -28.4970  -25.5260   19.4690 C   0  0  0  0  0  2  0  0  0  0  0  0
  -28.4180  -26.7880   20.1400 O   0  0  0  0  0  0  0  0  0  0  0  0
  -24.5830  -31.9130   23.2540 C   0  0  0  0  0  0  0  0  0  0  0  0
  -27.2140  -27.4660   20.1600 C   0  0  0  0  0  0  0  0  0  0  0  0
  -23.3690  -30.5100   21.6200 C   0  0  0  0  0  3  0  0  0  0  0  0
  -24.8120  -28.9660   20.1990 C   0  0  0  0  0  0  0  0  0  0  0  0
  -25.8950  -30.8600   21.4180 C   0  0  0  0  0  2  0  0  0  0  0  0
  -25.9740  -29.4890   20.7810 C   0  0  0  0  0  0  0  0  0  0  0  0
  -27.1730  -28.7430   20.7640 C   0  0  0  0  0  3  0  0  0  0  0  0
  -26.0220  -26.9500   19.5920 C   0  0  0  0  0  3  0  0  0  0  0  0
  -24.8300  -27.6930   19.6100 C   0  0  0  0  0  3  0  0  0  0  0  0
  -23.5710  -29.8270   20.2430 C   0  0  0  0  0  2  0  0  0  0  0  0
  -24.6340  -31.1090   22.1540 N   0  0  0  0  0  0  0  0  0  0  0  0
  -23.5040  -32.1890   23.7970 O   0  0  0  0  0  0  0  0  0  0  0  0
  -22.7190  -29.4920   22.5840 C   0  0  0  0  0  0  0  0  0  0  0  0
  -21.3950  -29.3070   22.4550 N   0  0  0  0  0  0  0  0  0  0  0  0
  -23.4040  -28.8710   23.4020 O   0  0  0  0  0  0  0  0  0  0  0  0
  -20.9050  -29.8610   21.7670 H   0  0  0  0  0  0  0  0  0  0  0  0
  -18.0220  -28.1150   22.9480 C   0  0  0  0  0  0  0  0  0  0  0  0
  -20.5790  -28.3730   23.2300 C   0  0  0  0  0  3  0  0  0  0  0  0
  -20.6830  -26.9380   22.6640 C   0  0  0  0  0  2  0  0  0  0  0  0
  -19.5860  -26.6090   21.6470 C   0  0  0  0  0  2  0  0  0  0  0  0
  -18.2010  -26.7600   22.2830 C   0  0  0  0  0  2  0  0  0  0  0  0
  -19.1390  -28.8790   23.3780 C   0  0  0  0  0  0  0  0  0  0  0  0
  -18.9190  -30.1470   23.9580 C   0  0  0  0  0  3  0  0  0  0  0  0
  -17.6140  -30.6500   24.1140 C   0  0  0  0  0  3  0  0  0  0  0  0
  -16.5110  -29.8820   23.7030 C   0  0  0  0  0  3  0  0  0  0  0  0
  -16.7160  -28.6170   23.1230 C   0  0  0  0  0  3  0  0  0  0  0  0
  -25.8740  -32.5430   23.8650 C   0  0  0  0  0  3  0  0  0  0  0  0
  -25.5670  -33.9410   24.1940 N   0  0  0  0  0  0  0  0  0  0  0  0
  -25.9010  -34.9920   23.4340 C   0  0  0  0  0  0  0  0  0  0  0  0
  -26.5720  -34.8880   22.4030 O   0  0  0  0  0  0  0  0  0  0  0  0
  -24.9720  -34.0970   24.9950 H   0  0  0  0  0  0  0  0  0  0  0  0
  -24.1810  -36.7890   23.0710 C   0  0  0  0  0  1  0  0  0  0  0  0
  -25.4150  -36.3810   23.8900 C   0  0  0  0  0  3  0  0  0  0  0  0
  -27.5470  -37.2580   24.7360 C   0  0  0  0  0  1  0  0  0  0  0  0
  -26.4520  -37.4310   23.7850 N   0  0  0  0  0  0  0  0  0  0  0  0
  -26.0470  -38.3520   23.9300 H   0  0  0  0  0  0  0  0  0  0  0  0
  -26.3980  -31.7720   25.1390 C   0  0  1  0  0  0  0  0  0  0  0  0
  -25.3120  -31.5340   26.2130 C   0  0  0  0  0  1  0  0  0  0  0  0
  -26.9800  -30.3950   24.7430 C   0  0  0  0  0  1  0  0  0  0  0  0
  -27.5510  -32.5680   25.7940 C   0  0  0  0  0  1  0  0  0  0  0  0
  3  2  1  0
  4  5  1  0
  5  2  1  0
  5  7  1  0
  6  1  1  0
  6  4  1  0
  6  3  1  0
  7  8  1  0
  8  9  1  0
 10 18  1  0
 11 16  1  0
 12 13  1  0
 12 11  1  0
 14 13  1  0
 14 23  1  0
 14 15  1  0
 16 10  1  0
 16 15  1  0
 17 10  2  0
 18 19  1  0
 18  9  1  0
 20 21  2  0
 21 40  1  0
 22 21  1  0
 22 25  1  0
 23 20  1  0
 23 24  1  0
 24 22  2  0
 25 26  1  0
 26 27  2  0
 28 31  1  0
 28 27  1  0
 29 28  2  0
 30 29  1  0
 30 25  2  0
 31 32  1  0
 32 33  1  0
 33 34  2  0
 35 34  1  0
 35 39  1  0
 36 35  2  0
 37 32  2  0
 37 36  1  0
 38 37  1  0
 40 41  1  0
 41 44  1  0
 41 43  1  0
 42 40  2  0
 45 46  1  0
 45 20  1  0
 47 45  1  0
 48 50  1  0
 48  1  1  0
 49 48  1  0
 51 48  1  0
 51 52  1  0
 52 53  1  0
 53 54  1  0
 54 56  1  0
 55 66  2  0
 56 61  1  0
 57 65  1  0
 57 67  1  0
 58 64  1  0
 58 60  1  0
 59 65  1  0
 60 59  1  0
 61 60  2  0
 62 63  1  0
 62 56  2  0
 63 58  2  0
 64 57  1  0
 65 55  1  0
 67 69  2  0
 68 67  1  0
 70 68  1  0
 71 80  2  0
 71 76  1  0
 72 68  1  0
 72 76  1  0
 73 72  1  0
 74 75  1  0
 74 73  1  0
 75 71  1  0
 76 77  2  0
 77 78  1  0
 79 78  2  0
 80 79  1  0
 81 55  1  0
 81 82  1  0
 81 91  1  0
 82 85  1  0
 83 87  1  0
 83 82  1  0
 84 83  2  0
 87 86  1  0
 89 87  1  0
 89 90  1  0
 89 88  1  0
 91 94  1  1
 91 92  1  0
 93 91  1  0
M  ISO  4  10 100  18 100  53 101  54 101
M  END
>  <TORSDO>  (81) 
F 24

>  <SCORE>  (81) 
-12.411

>  <name>  (81) 
81

>  <ligand_id>  (81) 
81

>  <original_smiles>  (81) 
[H]c1c([H])c([H])c2c(c1[H])C([H])([H])C([H])([H])C([H])([H])C2([H])N([H])C(=O)C1([H])N(C(=O)C([H])(N([H])C(=O)C([H])(N([H])C([H])([H])[H])C([H])([H])[H])C(C([H])([H])[H])(C([H])([H])[H])C([H])([H])[H])C([H])([H])c2c([H])c(OC([H])([H])C([H])([H])C([H])([H])[N+]([H])([H])C([H])([H])C3([H])C([H])([H])C([H])([H])C([H])(C([H])([H])C([H])([H])C([H])([H])N([H])C(=O)N4C([H])([H])C([H])([H])C([H])([H])C([H])(n5nc(-c6c([H])c([H])c(Oc7c([H])c([H])c(F)c([H])c7F)c([H])c6[H])c(C(=O)N([H])[H])c5N([H])[H])C4([H])[H])C3([H])[H])c([H])c([H])c2C1([H])[H]

>  <smiles>  (81) 
[H]c1c([H])c([H])c2c(c1[H])C([H])([H])C([H])([H])C([H])([H])C2([H])N([H])C(=O)C1([H])N(C(=O)C([H])(N([H])C(=O)C([H])(N([H])C([H])([H])[H])C([H])([H])[H])C(C([H])([H])[H])(C([H])([H])[H])C([H])([H])[H])C([H])([H])c2c([H])c(OC([H])([H])C([H])([H])C([H])([H])[N+]([H])([H])C([H])([H])C3([H])C([H])([H])C([H])([H])C([H])(C([H])([H])C([H])([H])C([H])([H])N([H])C(=O)N4C([H])([H])C([H])([H])C([H])([H])C([H])(n5nc(-c6c([H])c([H])c(Oc7c([H])c([H])c(F)c([H])c7F)c([H])c6[H])c(C(=O)N([H])[H])c5N([H])[H])C4([H])[H])C3([H])[H])c([H])c([H])c2C1([H])[H]

$$$$
82:0:0
     RDKit          3D

 91100  0  0  1  0  0  0  0  0999 V2000
  -28.2840  -18.8470   21.3830 C   0  0  0  0  0  2  0  0  0  0  0  0
  -27.8200  -19.7980   20.2610 C   0  0  0  0  0  2  0  0  0  0  0  0
  -30.1480  -20.1150   20.6310 C   0  0  0  0  0  2  0  0  0  0  0  0
  -29.5210  -18.7770   18.7550 C   0  0  0  0  0  2  0  0  0  0  0  0
  -29.8000  -18.7100   21.1280 C   0  0  0  0  0  3  0  0  0  0  0  0
  -30.0930  -17.8560   19.8770 C   0  0  0  0  0  3  0  0  0  0  0  0
  -29.1260  -20.1000   19.4940 C   0  0  1  0  0  0  0  0  0  0  0  0
  -29.6320  -16.3620   19.9580 C   0  0  0  0  0  2  0  0  0  0  0  0
  -31.0380  -14.4310   19.1010 C   0  0  0  0  0  0  0  0  0  0  0  0
  -30.6400  -12.1250   18.3470 C   0  0  0  0  0  2  0  0  0  0  0  0
  -29.5380  -12.1590   17.2670 C   0  0  0  0  0  2  0  0  0  0  0  0
  -28.1430  -12.0640   17.9180 C   0  0  0  0  0  2  0  0  0  0  0  0
  -27.9600  -13.0580   19.0960 C   0  0  0  0  0  3  0  0  0  0  0  0
  -29.1690  -13.0290   20.0570 C   0  0  0  0  0  2  0  0  0  0  0  0
  -30.3770  -13.2520   19.2560 N   0  0  0  0  0  0  0  0  0  0  0  0
  -32.1630  -14.4930   18.6070 O   0  0  0  0  0  0  0  0  0  0  0  0
  -30.2640  -15.5220   18.9330 N   0  0  0  0  0  0  0  0  0  0  0  0
  -30.6460  -16.0980   18.1980 H   0  0  0  0  0  0  0  0  0  0  0  0
  -25.7940  -13.7580   20.2890 C   0  0  0  0  0  0  0  0  0  0  0  0
  -24.7470  -13.0310   20.7870 C   0  0  0  0  0  0  0  0  0  0  0  0
  -25.0790  -11.6600   20.5650 C   0  0  0  0  0  0  0  0  0  0  0  0
  -26.7000  -12.8320   19.8000 N   0  0  0  0  0  0  0  0  0  0  0  0
  -26.2850  -11.5590   20.0240 N   0  0  0  0  0  0  0  0  0  0  0  0
  -24.2910  -10.4390   20.7820 C   0  0  0  0  0  0  0  0  0  0  0  0
  -24.7170   -9.4380   21.6820 C   0  0  0  0  0  3  0  0  0  0  0  0
  -23.9350   -8.2820   21.8890 C   0  0  0  0  0  3  0  0  0  0  0  0
  -22.7110   -8.1190   21.1960 C   0  0  0  0  0  0  0  0  0  0  0  0
  -22.3040   -9.1080   20.2840 C   0  0  0  0  0  3  0  0  0  0  0  0
  -23.0860  -10.2560   20.0750 C   0  0  0  0  0  3  0  0  0  0  0  0
  -21.8980   -7.0170   21.3140 O   0  0  0  0  0  0  0  0  0  0  0  0
  -21.7440   -6.3620   22.5090 C   0  0  0  0  0  0  0  0  0  0  0  0
  -21.2340   -7.0110   23.6540 C   0  0  0  0  0  3  0  0  0  0  0  0
  -21.0250   -6.2820   24.8420 C   0  0  0  0  0  3  0  0  0  0  0  0
  -21.3160   -4.9050   24.8840 C   0  0  0  0  0  0  0  0  0  0  0  0
  -21.8190   -4.2560   23.7440 C   0  0  0  0  0  3  0  0  0  0  0  0
  -22.0300   -4.9830   22.5580 C   0  0  0  0  0  0  0  0  0  0  0  0
  -22.4940   -4.3470   21.4550 F   0  0  0  0  0  0  0  0  0  0  0  0
  -21.1080   -4.2030   26.0220 F   0  0  0  0  0  0  0  0  0  0  0  0
  -23.4680  -13.5780   21.3480 C   0  0  0  0  0  0  0  0  0  0  0  0
  -22.8590  -12.8670   22.2910 N   0  0  0  0  0  0  0  0  0  0  0  0
  -23.0240  -14.6680   20.9870 O   0  0  0  0  0  0  0  0  0  0  0  0
  -23.2370  -11.9820   22.6000 H   0  0  0  0  0  0  0  0  0  0  0  0
  -22.0060  -13.2110   22.7080 H   0  0  0  0  0  0  0  0  0  0  0  0
  -26.0380  -15.1240   20.1870 N   0  0  0  0  0  0  0  0  0  0  0  0
  -25.3530  -15.8150   20.4670 H   0  0  0  0  0  0  0  0  0  0  0  0
  -26.8360  -15.5240   19.7090 H   0  0  0  0  0  0  0  0  0  0  0  0
  -29.0780  -21.3960   18.6120 C   0  0  0  0  0  3  0  0  0  0  0  0
  -28.8720  -22.7480   19.3690 C   0  0  0  0  0  3  0  0  0  0  0  0
  -28.7210  -24.0250   18.4830 C   0  0  0  0  0  2  0  0  0  0  0  0
  -28.5030  -25.3270   19.3100 C   0  0  0  0  0  2  0  0  0  0  0  0
  -28.3890  -26.5470   18.5400 O   0  0  0  0  0  0  0  0  0  0  0  0
  -24.6080  -31.0720   22.5730 C   0  0  0  0  0  0  0  0  0  0  0  0
  -27.2130  -27.2460   18.7190 C   0  0  0  0  0  0  0  0  0  0  0  0
  -23.3490  -29.8490   20.8310 C   0  0  0  0  0  3  0  0  0  0  0  0
  -24.7640  -28.6110   19.1040 C   0  0  0  0  0  0  0  0  0  0  0  0
  -25.8360  -30.3730   20.5160 C   0  0  0  0  0  2  0  0  0  0  0  0
  -25.9390  -29.1120   19.6790 C   0  0  0  0  0  0  0  0  0  0  0  0
  -27.1700  -28.4410   19.4770 C   0  0  0  0  0  3  0  0  0  0  0  0
  -26.0210  -26.7640   18.1390 C   0  0  0  0  0  3  0  0  0  0  0  0
  -24.8000  -27.4380   18.3280 C   0  0  0  0  0  3  0  0  0  0  0  0
  -23.4880  -29.3850   19.3560 C   0  0  0  0  0  2  0  0  0  0  0  0
  -24.6200  -30.4390   21.3650 N   0  0  0  0  0  0  0  0  0  0  0  0
  -23.5580  -31.2030   23.2190 O   0  0  0  0  0  0  0  0  0  0  0  0
  -22.8200  -28.6680   21.6750 C   0  0  0  0  0  0  0  0  0  0  0  0
  -21.5040  -28.4110   21.5870 N   0  0  0  0  0  0  0  0  0  0  0  0
  -23.5860  -27.9930   22.3670 O   0  0  0  0  0  0  0  0  0  0  0  0
  -20.9420  -29.0180   21.0070 H   0  0  0  0  0  0  0  0  0  0  0  0
  -18.2530  -26.9000   22.0450 C   0  0  0  0  0  0  0  0  0  0  0  0
  -20.7940  -27.3240   22.2610 C   0  0  0  0  0  3  0  0  0  0  0  0
  -20.9770  -25.9860   21.5090 C   0  0  0  0  0  2  0  0  0  0  0  0
  -19.8600  -25.7040   20.4990 C   0  0  0  0  0  2  0  0  0  0  0  0
  -18.5000  -25.6600   21.2010 C   0  0  0  0  0  2  0  0  0  0  0  0
  -19.3290  -27.6900   22.5290 C   0  0  0  0  0  0  0  0  0  0  0  0
  -19.0440  -28.8510   23.2800 C   0  0  0  0  0  3  0  0  0  0  0  0
  -17.7140  -29.2250   23.5490 C   0  0  0  0  0  3  0  0  0  0  0  0
  -16.6520  -28.4320   23.0800 C   0  0  0  0  0  3  0  0  0  0  0  0
  -16.9240  -27.2700   22.3340 C   0  0  0  0  0  3  0  0  0  0  0  0
  -25.9060  -31.6810   23.1900 C   0  0  0  0  0  3  0  0  0  0  0  0
  -25.5580  -33.0000   23.7360 N   0  0  0  0  0  0  0  0  0  0  0  0
  -25.8210  -34.1660   23.1290 C   0  0  0  0  0  0  0  0  0  0  0  0
  -26.4530  -34.2440   22.0720 O   0  0  0  0  0  0  0  0  0  0  0  0
  -24.9910  -33.0100   24.5700 H   0  0  0  0  0  0  0  0  0  0  0  0
  -24.0150  -35.9160   23.1020 C   0  0  0  0  0  1  0  0  0  0  0  0
  -25.3000  -35.4490   23.8030 C   0  0  0  0  0  3  0  0  0  0  0  0
  -27.4230  -36.2980   24.7000 C   0  0  0  0  0  1  0  0  0  0  0  0
  -26.2870  -36.5510   23.8160 N   0  0  0  0  0  0  0  0  0  0  0  0
  -25.8510  -37.4230   24.1010 H   0  0  0  0  0  0  0  0  0  0  0  0
  -26.5520  -30.7690   24.3040 C   0  0  1  0  0  0  0  0  0  0  0  0
  -25.5570  -30.3340   25.4050 C   0  0  0  0  0  1  0  0  0  0  0  0
  -27.1580  -29.4900   23.6800 C   0  0  0  0  0  1  0  0  0  0  0  0
  -27.7180  -31.5220   24.9870 C   0  0  0  0  0  1  0  0  0  0  0  0
  2  1  1  0
  4  7  1  0
  4  6  1  0
  5  3  1  0
  5  1  1  0
  6  8  1  0
  6  5  1  0
  7 47  1  6
  7  2  1  0
  7  3  1  0
  9 15  1  0
 10 15  1  0
 11 12  1  0
 11 10  1  0
 13 12  1  0
 13 22  1  0
 13 14  1  0
 15 14  1  0
 16  9  2  0
 17  9  1  0
 17  8  1  0
 18 17  1  0
 19 20  2  0
 20 39  1  0
 21 24  1  0
 21 20  1  0
 22 23  1  0
 22 19  1  0
 23 21  2  0
 24 25  1  0
 25 26  2  0
 27 30  1  0
 27 26  1  0
 28 27  2  0
 29 28  1  0
 29 24  2  0
 30 31  1  0
 31 36  2  0
 31 32  1  0
 32 33  2  0
 33 34  1  0
 34 38  1  0
 35 34  2  0
 36 35  1  0
 37 36  1  0
 39 40  1  0
 40 42  1  0
 40 43  1  0
 41 39  2  0
 44 19  1  0
 44 45  1  0
 46 44  1  0
 47 48  2  0
 49 50  1  0
 49 48  1  0
 51 53  1  0
 51 50  1  0
 52 63  2  0
 53 58  1  0
 54 62  1  0
 54 64  1  0
 55 61  1  0
 55 57  1  0
 56 62  1  0
 57 56  1  0
 58 57  2  0
 59 60  1  0
 59 53  2  0
 60 55  2  0
 61 54  1  0
 62 52  1  0
 64 66  2  0
 65 64  1  0
 67 65  1  0
 68 77  2  0
 68 73  1  0
 69 65  1  0
 69 73  1  0
 70 69  1  0
 71 72  1  0
 71 70  1  0
 72 68  1  0
 73 74  2  0
 74 75  1  0
 76 75  2  0
 77 76  1  0
 78 52  1  0
 78 79  1  0
 78 88  1  0
 79 82  1  0
 80 79  1  0
 80 84  1  0
 81 80  2  0
 84 83  1  0
 84 86  1  0
 86 87  1  0
 86 85  1  0
 88 91  1  1
 88 89  1  0
 90 88  1  0
M  ISO  4   9 100  17 100  50 101  51 101
M  END
>  <TORSDO>  (82) 
F 21

>  <SCORE>  (82) 
-8.705

>  <name>  (82) 
82

>  <ligand_id>  (82) 
82

>  <original_smiles>  (82) 
[H]c1c([H])c([H])c2c(c1[H])C([H])([H])C([H])([H])C([H])([H])C2([H])N([H])C(=O)C1([H])N(C(=O)C([H])(N([H])C(=O)C([H])(N([H])C([H])([H])[H])C([H])([H])[H])C(C([H])([H])[H])(C([H])([H])[H])C([H])([H])[H])C([H])([H])c2c([H])c(OC([H])([H])C([H])([H])C([H])([H])C([H])([H])C34C([H])([H])C([H])([H])C([H])(C3([H])[H])C([H])(C([H])([H])N([H])C(=O)N3C([H])([H])C([H])([H])C([H])([H])C([H])(n5nc(-c6c([H])c([H])c(Oc7c([H])c([H])c(F)c([H])c7F)c([H])c6[H])c(C(=O)N([H])[H])c5N([H])[H])C3([H])[H])C4([H])[H])c([H])c([H])c2C1([H])[H]

>  <smiles>  (82) 
[H]c1c([H])c([H])c2c(c1[H])C([H])([H])C([H])([H])C([H])([H])C2([H])N([H])C(=O)C1([H])N(C(=O)C([H])(N([H])C(=O)C([H])(N([H])C([H])([H])[H])C([H])([H])[H])C(C([H])([H])[H])(C([H])([H])[H])C([H])([H])[H])C([H])([H])c2c([H])c(OC([H])([H])C([H])([H])C([H])([H])C([H])([H])C34C([H])([H])C([H])([H])C([H])(C3([H])[H])C([H])(C([H])([H])N([H])C(=O)N3C([H])([H])C([H])([H])C([H])([H])C([H])(n5nc(-c6c([H])c([H])c(Oc7c([H])c([H])c(F)c([H])c7F)c([H])c6[H])c(C(=O)N([H])[H])c5N([H])[H])C3([H])[H])C4([H])[H])c([H])c([H])c2C1([H])[H]

$$$$
83:0:0
     RDKit          3D

 93101  0  0  1  0  0  0  0  0999 V2000
  -27.9410  -22.5500   20.6430 N   0  0  0  0  0  4  0  0  0  0  0  0
  -27.2270  -22.5650   19.9300 H   0  0  0  0  0  0  0  0  0  0  0  0
  -28.8250  -22.4060   20.1850 H   0  0  0  0  0  0  0  0  0  0  0  0
  -27.6910  -21.4040   21.5350 C   0  0  0  0  0  2  0  0  0  0  0  0
  -28.7190  -20.2880   21.3100 C   0  0  0  0  0  2  0  0  0  0  0  0
  -28.7800  -19.8040   19.8490 C   0  0  0  0  0  2  0  0  0  0  0  0
  -28.9030  -18.2800   19.7220 C   0  0  0  0  0  2  0  0  0  0  0  0
  -31.8790  -14.5790   19.3070 C   0  0  0  0  0  0  0  0  0  0  0  0
  -31.4070  -12.2410   18.6290 C   0  0  0  0  0  2  0  0  0  0  0  0
  -30.3620  -12.1770   17.4980 C   0  0  0  0  0  2  0  0  0  0  0  0
  -28.9290  -12.1860   18.0660 C   0  0  0  0  0  2  0  0  0  0  0  0
  -28.7200  -13.3140   19.1030 C   0  0  0  0  0  3  0  0  0  0  0  0
  -29.8560  -13.2720   20.1550 C   0  0  0  0  0  2  0  0  0  0  0  0
  -31.1380  -13.4380   19.4460 N   0  0  0  0  0  0  0  0  0  0  0  0
  -32.8750  -14.6150   18.5720 O   0  0  0  0  0  0  0  0  0  0  0  0
  -32.7940  -17.8020   20.0580 C   0  0  0  0  0  2  0  0  0  0  0  0
  -31.4550  -18.5520   20.1430 C   0  0  0  0  0  2  0  0  0  0  0  0
  -32.7090  -16.4180   20.7290 C   0  0  0  0  0  2  0  0  0  0  0  0
  -30.3260  -16.3080   20.2450 C   0  0  0  0  0  2  0  0  0  0  0  0
  -30.3220  -17.6890   19.5670 C   0  0  0  0  0  3  0  0  0  0  0  0
  -31.6210  -15.6120   20.1520 N   0  0  0  0  0  0  0  0  0  0  0  0
  -26.5340  -14.2660   20.0890 C   0  0  0  0  0  0  0  0  0  0  0  0
  -25.4100  -13.6540   20.5690 C   0  0  0  0  0  0  0  0  0  0  0  0
  -25.6460  -12.2520   20.4540 C   0  0  0  0  0  0  0  0  0  0  0  0
  -27.3990  -13.2440   19.7250 N   0  0  0  0  0  0  0  0  0  0  0  0
  -26.8700  -12.0250   19.9960 N   0  0  0  0  0  0  0  0  0  0  0  0
  -24.7610  -11.1080   20.6980 C   0  0  0  0  0  0  0  0  0  0  0  0
  -25.0870  -10.1130   21.6430 C   0  0  0  0  0  3  0  0  0  0  0  0
  -24.2130   -9.0300   21.8710 C   0  0  0  0  0  3  0  0  0  0  0  0
  -22.9970   -8.9370   21.1520 C   0  0  0  0  0  0  0  0  0  0  0  0
  -22.6890   -9.9200   20.1950 C   0  0  0  0  0  3  0  0  0  0  0  0
  -23.5630  -10.9940   19.9660 C   0  0  0  0  0  3  0  0  0  0  0  0
  -22.0990   -7.9070   21.2870 O   0  0  0  0  0  0  0  0  0  0  0  0
  -21.9190   -7.2620   22.4850 C   0  0  0  0  0  0  0  0  0  0  0  0
  -21.5270   -7.9530   23.6520 C   0  0  0  0  0  3  0  0  0  0  0  0
  -21.2870   -7.2400   24.8440 C   0  0  0  0  0  3  0  0  0  0  0  0
  -21.4300   -5.8390   24.8690 C   0  0  0  0  0  0  0  0  0  0  0  0
  -21.8160   -5.1500   23.7060 C   0  0  0  0  0  3  0  0  0  0  0  0
  -22.0570   -5.8600   22.5170 C   0  0  0  0  0  0  0  0  0  0  0  0
  -22.4090   -5.1890   21.3940 F   0  0  0  0  0  0  0  0  0  0  0  0
  -21.1920   -5.1530   26.0110 F   0  0  0  0  0  0  0  0  0  0  0  0
  -24.1420  -14.3300   21.0120 C   0  0  0  0  0  0  0  0  0  0  0  0
  -23.4350  -13.7370   21.9670 N   0  0  0  0  0  0  0  0  0  0  0  0
  -23.7960  -15.4140   20.5420 O   0  0  0  0  0  0  0  0  0  0  0  0
  -23.7280  -12.8590   22.3680 H   0  0  0  0  0  0  0  0  0  0  0  0
  -22.5850  -14.1690   22.3010 H   0  0  0  0  0  0  0  0  0  0  0  0
  -26.8780  -15.6020   19.9130 N   0  0  0  0  0  0  0  0  0  0  0  0
  -26.2220  -16.3510   20.1050 H   0  0  0  0  0  0  0  0  0  0  0  0
  -27.7180  -15.9180   19.4460 H   0  0  0  0  0  0  0  0  0  0  0  0
  -27.9910  -23.8530   21.3260 C   0  0  0  0  0  2  0  0  0  0  0  0
  -28.5550  -24.9310   20.4020 C   0  0  0  0  0  2  0  0  0  0  0  0
  -28.7320  -26.2790   21.1120 C   0  0  0  0  0  2  0  0  0  0  0  0
  -28.6340  -27.3160   20.1450 O   0  0  0  0  0  0  0  0  0  0  0  0
  -24.7370  -32.1520   23.5750 C   0  0  0  0  0  0  0  0  0  0  0  0
  -27.4490  -27.9980   20.2110 C   0  0  0  0  0  0  0  0  0  0  0  0
  -23.5500  -30.8560   21.8280 C   0  0  0  0  0  3  0  0  0  0  0  0
  -25.0290  -29.4290   20.3180 C   0  0  0  0  0  0  0  0  0  0  0  0
  -26.0680  -31.2580   21.6720 C   0  0  0  0  0  2  0  0  0  0  0  0
  -26.1700  -29.9350   20.9520 C   0  0  0  0  0  0  0  0  0  0  0  0
  -27.3830  -29.2190   20.9080 C   0  0  0  0  0  3  0  0  0  0  0  0
  -26.2990  -27.4940   19.5690 C   0  0  0  0  0  3  0  0  0  0  0  0
  -25.0840  -28.2040   19.6290 C   0  0  0  0  0  3  0  0  0  0  0  0
  -23.7770  -30.2700   20.4070 C   0  0  0  0  0  2  0  0  0  0  0  0
  -24.8010  -31.4310   22.4200 N   0  0  0  0  0  0  0  0  0  0  0  0
  -23.6520  -32.3780   24.1280 O   0  0  0  0  0  0  0  0  0  0  0  0
  -22.9000  -29.7670   22.7120 C   0  0  0  0  0  0  0  0  0  0  0  0
  -21.5870  -29.5570   22.5330 N   0  0  0  0  0  0  0  0  0  0  0  0
  -23.5790  -29.1170   23.5130 O   0  0  0  0  0  0  0  0  0  0  0  0
  -21.1000  -30.1390   21.8680 H   0  0  0  0  0  0  0  0  0  0  0  0
  -18.2420  -28.2420   22.8480 C   0  0  0  0  0  0  0  0  0  0  0  0
  -20.7760  -28.5580   23.2290 C   0  0  0  0  0  3  0  0  0  0  0  0
  -20.9460  -27.1590   22.5900 C   0  0  0  0  0  2  0  0  0  0  0  0
  -19.8910  -26.8520   21.5220 C   0  0  0  0  0  2  0  0  0  0  0  0
  -18.4820  -26.9310   22.1190 C   0  0  0  0  0  2  0  0  0  0  0  0
  -19.3180  -29.0130   23.3570 C   0  0  0  0  0  0  0  0  0  0  0  0
  -19.0400  -30.2400   23.9970 C   0  0  0  0  0  3  0  0  0  0  0  0
  -17.7160  -30.6980   24.1360 C   0  0  0  0  0  3  0  0  0  0  0  0
  -16.6530  -29.9220   23.6410 C   0  0  0  0  0  3  0  0  0  0  0  0
  -16.9150  -28.6970   23.0030 C   0  0  0  0  0  3  0  0  0  0  0  0
  -26.0180  -32.7440   24.2430 C   0  0  0  0  0  3  0  0  0  0  0  0
  -26.4690  -31.9560   25.5330 C   0  0  1  0  0  0  0  0  0  0  0  0
  -25.3270  -31.7210   26.5470 C   0  0  0  0  0  1  0  0  0  0  0  0
  -27.0550  -30.5740   25.1520 C   0  0  0  0  0  1  0  0  0  0  0  0
  -27.5960  -32.7320   26.2560 C   0  0  0  0  0  1  0  0  0  0  0  0
  -25.7420  -34.1510   24.5600 N   0  0  0  0  0  0  0  0  0  0  0  0
  -26.1420  -35.1900   23.8150 C   0  0  0  0  0  0  0  0  0  0  0  0
  -26.8550  -35.0630   22.8150 O   0  0  0  0  0  0  0  0  0  0  0  0
  -25.1180  -34.3270   25.3340 H   0  0  0  0  0  0  0  0  0  0  0  0
  -24.4950  -37.0360   23.3630 C   0  0  0  0  0  1  0  0  0  0  0  0
  -25.6750  -36.5930   24.2430 C   0  0  0  0  0  3  0  0  0  0  0  0
  -27.7900  -37.4050   25.1890 C   0  0  0  0  0  1  0  0  0  0  0  0
  -26.7460  -37.6110   24.1890 N   0  0  0  0  0  0  0  0  0  0  0  0
  -26.3630  -38.5430   24.3190 H   0  0  0  0  0  0  0  0  0  0  0  0
  1 50  1  0
  1  4  1  0
  2  1  1  0
  3  1  1  0
  5  4  1  0
  6  5  1  0
  7  6  1  0
  8 14  1  0
  8 21  1  0
  9 14  1  0
 10 11  1  0
 10  9  1  0
 12 11  1  0
 12 25  1  0
 12 13  1  0
 14 13  1  0
 15  8  2  0
 16 17  1  0
 16 18  1  0
 20  7  1  0
 20 17  1  0
 20 19  1  0
 21 19  1  0
 21 18  1  0
 22 23  2  0
 23 42  1  0
 24 23  1  0
 24 27  1  0
 25 26  1  0
 25 22  1  0
 26 24  2  0
 27 28  1  0
 28 29  2  0
 30 33  1  0
 30 29  1  0
 31 30  2  0
 32 31  1  0
 32 27  2  0
 33 34  1  0
 34 39  2  0
 34 35  1  0
 35 36  2  0
 36 37  1  0
 37 41  1  0
 38 37  2  0
 39 38  1  0
 40 39  1  0
 42 43  1  0
 43 46  1  0
 43 45  1  0
 44 42  2  0
 47 22  1  0
 47 48  1  0
 49 47  1  0
 51 52  1  0
 51 50  1  0
 53 55  1  0
 53 52  1  0
 54 65  2  0
 55 60  1  0
 56 64  1  0
 56 66  1  0
 57 63  1  0
 57 59  1  0
 58 64  1  0
 59 58  1  0
 60 59  2  0
 61 62  1  0
 61 55  2  0
 62 57  2  0
 63 56  1  0
 64 54  1  0
 66 68  2  0
 67 66  1  0
 69 67  1  0
 70 79  2  0
 70 75  1  0
 71 67  1  0
 71 75  1  0
 72 71  1  0
 73 74  1  0
 73 72  1  0
 74 70  1  0
 75 76  2  0
 76 77  1  0
 78 77  2  0
 79 78  1  0
 80 54  1  0
 80 85  1  0
 80 81  1  0
 81 84  1  1
 81 82  1  0
 83 81  1  0
 85 88  1  0
 86 90  1  0
 86 85  1  0
 87 86  2  0
 90 89  1  0
 92 90  1  0
 92 93  1  0
 92 91  1  0
M  ISO  4   8 100  21 100  52 101  53 101
M  END
>  <TORSDO>  (83) 
F 23

>  <SCORE>  (83) 
-9.680

>  <name>  (83) 
83

>  <ligand_id>  (83) 
83

>  <original_smiles>  (83) 
[H]c1c([H])c([H])c2c(c1[H])C([H])([H])C([H])([H])C([H])([H])C2([H])N([H])C(=O)C1([H])N(C(=O)C([H])(N([H])C(=O)C([H])(N([H])C([H])([H])[H])C([H])([H])[H])C(C([H])([H])[H])(C([H])([H])[H])C([H])([H])[H])C([H])([H])c2c([H])c(OC([H])([H])C([H])([H])C([H])([H])[N+]([H])([H])C([H])([H])C([H])([H])C([H])([H])C([H])([H])C3([H])C([H])([H])N(C(=O)N4C([H])([H])C([H])([H])C([H])([H])C([H])(n5nc(-c6c([H])c([H])c(Oc7c([H])c([H])c(F)c([H])c7F)c([H])c6[H])c(C(=O)N([H])[H])c5N([H])[H])C4([H])[H])C([H])([H])C([H])([H])C3([H])[H])c([H])c([H])c2C1([H])[H]

>  <smiles>  (83) 
[H]c1c([H])c([H])c2c(c1[H])C([H])([H])C([H])([H])C([H])([H])C2([H])N([H])C(=O)C1([H])N(C(=O)C([H])(N([H])C(=O)C([H])(N([H])C([H])([H])[H])C([H])([H])[H])C(C([H])([H])[H])(C([H])([H])[H])C([H])([H])[H])C([H])([H])c2c([H])c(OC([H])([H])C([H])([H])C([H])([H])[N+]([H])([H])C([H])([H])C([H])([H])C([H])([H])C([H])([H])C3([H])C([H])([H])N(C(=O)N4C([H])([H])C([H])([H])C([H])([H])C([H])(n5nc(-c6c([H])c([H])c(Oc7c([H])c([H])c(F)c([H])c7F)c([H])c6[H])c(C(=O)N([H])[H])c5N([H])[H])C4([H])[H])C([H])([H])C([H])([H])C3([H])[H])c([H])c([H])c2C1([H])[H]

$$$$
84:0:0
     RDKit          3D

 95 96  0  0  1  0  0  0  0  0999 V2000
  -27.3770  -17.7780   19.0490 C   0  0  0  0  0  2  0  0  0  0  0  0
  -26.9490  -19.0190   19.5480 C   0  0  0  0  0  2  0  0  0  0  0  0
  -26.5980  -16.3580   19.0510 C   0  0  0  0  0  2  0  0  0  0  0  0
  -29.6340  -14.0250   20.9220 C   0  0  0  0  0  0  0  0  0  0  0  0
  -30.8970  -12.2800   19.4750 C   0  0  0  0  0  2  0  0  0  0  0  0
  -30.0440  -12.0840   18.1510 C   0  0  0  0  0  2  0  0  0  0  0  0
  -28.5470  -11.5960   18.3610 C   0  0  0  0  0  2  0  0  0  0  0  0
  -28.0790  -12.1910   19.6560 C   0  0  0  0  0  3  0  0  0  0  0  0
  -29.0730  -11.7940   20.7800 C   0  0  0  0  0  2  0  0  0  0  0  0
  -30.0660  -12.7600   20.6320 N   0  0  0  0  0  0  0  0  0  0  0  0
  -30.5860  -14.8230   20.6080 O   0  0  0  0  0  0  0  0  0  0  0  0
  -23.3210  -12.3730   19.4960 C   0  0  0  0  0  3  0  0  0  0  0  0
  -24.9650  -13.6050   18.6350 C   0  0  0  0  0 15  0  0  0  0  0  0
  -24.7200  -11.8600   22.8710 C   0  0  0  0  0 15  0  0  0  0  0  0
  -26.9380  -12.9470   22.6840 C   0  0  0  0  0 15  0  0  0  0  0  0
  -27.0290  -14.7280   19.2710 C   0  0  0  0  0  1  0  0  0  0  0  0
  -23.1670  -11.7060   21.1880 N   0  0  0  0  0  2  0  0  0  0  0  0
  -28.0740  -14.1580   21.1420 N   0  0  0  0  0  1  0  0  0  0  0  0
  -22.3790  -12.1930   18.7230 O   0  0  0  0  0  0  0  0  0  0  0  0
  -22.2890  -11.2530   21.4220 H   0  0  0  0  0  0  0  0  0  0  0  0
  -25.7640  -13.6890   20.8380 C   0  0  0  0  0  2  0  0  0  0  0  0
  -24.9240  -13.1900   21.0760 C   0  0  0  0  0  0  0  0  0  0  0  0
  -25.4440  -11.5090   20.6860 C   0  0  0  0  0  0  0  0  0  0  0  0
  -26.6810  -12.4680   20.1640 N   0  0  0  0  0  2  0  0  0  0  0  0
  -26.4800  -11.2590   20.2380 N   0  0  0  0  0  2  0  0  0  0  0  0
  -24.8400   -9.9550   20.8170 C   0  0  0  0  0  0  0  0  0  0  0  0
  -25.0550   -9.0500   21.9090 C   0  0  0  0  0  3  0  0  0  0  0  0
  -24.2220   -7.9140   22.1690 C   0  0  0  0  0  3  0  0  0  0  0  0
  -23.0410   -7.6860   21.4170 C   0  0  0  0  0  0  0  0  0  0  0  0
  -22.8010   -8.5240   20.3310 C   0  0  0  0  0  3  0  0  0  0  0  0
  -23.7650   -9.4860   19.9670 C   0  0  0  0  0  3  0  0  0  0  0  0
  -22.1470   -6.6430   21.5620 O   0  0  0  0  0  0  0  0  0  0  0  0
  -21.9920   -5.9640   22.7390 C   0  0  0  0  0  0  0  0  0  0  0  0
  -21.3460   -6.5550   23.8470 C   0  0  0  0  0  3  0  0  0  0  0  0
  -21.1340   -5.8070   25.0220 C   0  0  0  0  0  3  0  0  0  0  0  0
  -21.5630   -4.4680   25.0910 C   0  0  0  0  0  0  0  0  0  0  0  0
  -22.1830   -3.8660   23.9810 C   0  0  0  0  0  3  0  0  0  0  0  0
  -22.3900   -4.6090   22.8050 C   0  0  0  0  0  0  0  0  0  0  0  0
  -22.9650   -4.0130   21.7340 F   0  0  0  0  0  0  0  0  0  0  0  0
  -21.3560   -3.7520   26.2210 F   0  0  0  0  0  0  0  0  0  0  0  0
  -23.5390  -14.0970   21.6100 C   0  0  0  0  0  0  0  0  0  0  0  0
  -22.6530  -13.6800   22.5530 N   0  0  0  0  0  0  0  0  0  0  0  0
  -23.1000  -14.9940   20.9030 O   0  0  0  0  0  0  0  0  0  0  0  0
  -21.8110  -14.2170   22.7170 H   0  0  0  0  0  0  0  0  0  0  0  0
  -22.7980  -12.8320   23.0790 H   0  0  0  0  0  0  0  0  0  0  0  0
  -25.7930  -15.0940   21.3220 N   0  0  0  0  0  0  0  0  0  0  0  0
  -24.9320  -15.6150   21.3990 H   0  0  0  0  0  0  0  0  0  0  0  0
  -26.6050  -15.6820   21.1750 H   0  0  0  0  0  0  0  0  0  0  0  0
  -27.3390  -20.5410   19.1430 C   0  0  0  0  0  2  0  0  0  0  0  0
  -27.7620  -21.7020   20.0890 N   0  0  0  0  0  4  0  0  0  0  0  0
  -28.7120  -21.4900   20.3670 H   0  0  0  0  0  0  0  0  0  0  0  0
  -27.2100  -21.6460   20.9270 H   0  0  0  0  0  0  0  0  0  0  0  0
  -27.7400  -23.1910   19.5840 C   0  0  0  0  0  3  0  0  0  0  0  0
  -28.1310  -24.4540   20.5900 C   0  0  0  0  0  3  0  0  0  0  0  0
  -28.4420  -25.9290   20.2600 O   0  0  0  0  0  0  0  0  0  0  0  0
  -24.6070  -31.5190   23.0910 C   0  0  0  0  0  0  0  0  0  0  0  0
  -27.4110  -26.8940   20.2050 C   0  0  0  0  0  0  0  0  0  0  0  0
  -23.5440  -30.0930   21.3910 C   0  0  0  0  0  3  0  0  0  0  0  0
  -25.0940  -28.5680   20.0560 C   0  0  0  0  0  0  0  0  0  0  0  0
  -26.0950  -30.4270   21.3760 C   0  0  0  0  0  2  0  0  0  0  0  0
  -26.2310  -29.0420   20.7280 C   0  0  0  0  0  0  0  0  0  0  0  0
  -27.4060  -28.2160   20.7910 C   0  0  0  0  0  3  0  0  0  0  0  0
  -26.2630  -26.5060   19.5040 C   0  0  0  0  0  3  0  0  0  0  0  0
  -25.1190  -27.3130   19.4370 C   0  0  0  0  0  3  0  0  0  0  0  0
  -23.8580  -29.4370   20.0250 C   0  0  0  0  0  2  0  0  0  0  0  0
  -24.7660  -30.7020   22.0060 N   0  0  0  0  0  0  0  0  0  0  0  0
  -23.4830  -31.7720   23.5510 O   0  0  0  0  0  0  0  0  0  0  0  0
  -22.8460  -29.0580   22.3060 C   0  0  0  0  0  0  0  0  0  0  0  0
  -21.5230  -28.8900   22.1390 N   0  0  0  0  0  0  0  0  0  0  0  0
  -23.4970  -28.4110   23.1320 O   0  0  0  0  0  0  0  0  0  0  0  0
  -21.0570  -29.4630   21.4490 H   0  0  0  0  0  0  0  0  0  0  0  0
  -18.1140  -27.7570   22.5890 C   0  0  0  0  0  0  0  0  0  0  0  0
  -20.6790  -27.9410   22.8680 C   0  0  0  0  0  3  0  0  0  0  0  0
  -20.7440  -26.5330   22.2330 C   0  0  0  0  0  2  0  0  0  0  0  0
  -19.6360  -26.2810   21.2070 C   0  0  0  0  0  2  0  0  0  0  0  0
  -18.2580  -26.4340   21.8560 C   0  0  0  0  0  2  0  0  0  0  0  0
  -19.2510  -28.4720   23.0510 C   0  0  0  0  0  0  0  0  0  0  0  0
  -19.0610  -29.7130   23.6980 C   0  0  0  0  0  3  0  0  0  0  0  0
  -17.7690  -30.2360   23.8860 C   0  0  0  0  0  3  0  0  0  0  0  0
  -16.6460  -29.5170   23.4390 C   0  0  0  0  0  3  0  0  0  0  0  0
  -16.8200  -28.2790   22.7960 C   0  0  0  0  0  3  0  0  0  0  0  0
  -25.8260  -32.1890   23.7920 C   0  0  0  0  0  3  0  0  0  0  0  0
  -25.4530  -33.5780   24.0970 N   0  0  0  0  0  0  0  0  0  0  0  0
  -25.7830  -34.6400   23.3500 C   0  0  0  0  0  0  0  0  0  0  0  0
  -26.5010  -34.5560   22.3510 O   0  0  0  0  0  0  0  0  0  0  0  0
  -24.8140  -33.7140   24.8670 H   0  0  0  0  0  0  0  0  0  0  0  0
  -24.0210  -36.3830   22.9070 C   0  0  0  0  0  1  0  0  0  0  0  0
  -25.2300  -36.0130   23.7800 C   0  0  0  0  0  3  0  0  0  0  0  0
  -27.2780  -36.9760   24.7340 C   0  0  0  0  0  1  0  0  0  0  0  0
  -26.2330  -37.0980   23.7210 N   0  0  0  0  0  0  0  0  0  0  0  0
  -25.7890  -38.0050   23.8330 H   0  0  0  0  0  0  0  0  0  0  0  0
  -26.2750  -31.4390   25.1060 C   0  0  1  0  0  0  0  0  0  0  0  0
  -25.1190  -31.1790   26.0990 C   0  0  0  0  0  1  0  0  0  0  0  0
  -26.9200  -30.0740   24.7690 C   0  0  0  0  0  1  0  0  0  0  0  0
  -27.3560  -32.2680   25.8370 C   0  0  0  0  0  1  0  0  0  0  0  0
  1  3  1  0
  1  2  1  0
  3 16  1  0
  4 18  1  0
  5 10  1  0
  6  7  1  0
  6  5  1  0
  7  8  1  0
  8 24  1  0
  8  9  1  0
 10  9  1  0
 10  4  1  0
 11  4  2  0
 12 17  1  0
 17 20  1  0
 19 12  2  0
 21 22  1  0
 21 46  1  0
 22 41  1  0
 23 26  1  0
 23 22  2  0
 24 25  1  0
 25 23  1  0
 26 27  1  0
 27 28  2  0
 29 32  1  0
 29 28  1  0
 30 29  2  0
 31 30  1  0
 31 26  2  0
 32 33  1  0
 33 38  2  0
 33 34  1  0
 34 35  2  0
 35 36  1  0
 36 40  1  0
 37 36  2  0
 38 37  1  0
 39 38  1  0
 41 42  1  0
 42 44  1  0
 42 45  1  0
 43 41  2  0
 46 47  1  0
 48 46  1  0
 49  2  1  0
 49 50  1  0
 50 51  1  0
 50 52  1  0
 53 50  1  0
 53 54  2  0
 55 54  1  0
 56 67  2  0
 57 55  1  0
 57 62  1  0
 58 66  1  0
 58 68  1  0
 59 61  1  0
 60 66  1  0
 61 62  2  0
 61 60  1  0
 63 57  2  0
 64 63  1  0
 64 59  2  0
 65 59  1  0
 65 58  1  0
 66 56  1  0
 68 70  2  0
 69 68  1  0
 71 69  1  0
 72 81  2  0
 72 77  1  0
 73 69  1  0
 73 77  1  0
 74 73  1  0
 75 76  1  0
 75 74  1  0
 76 72  1  0
 77 78  2  0
 78 79  1  0
 80 79  2  0
 81 80  1  0
 82 56  1  0
 82 83  1  0
 82 92  1  0
 83 86  1  0
 84 88  1  0
 84 83  1  0
 85 84  2  0
 88 87  1  0
 90 88  1  0
 90 91  1  0
 90 89  1  0
 92 95  1  1
 92 93  1  0
 94 92  1  0
M  ISO  4   4 100  18 100  54 101  55 101
M  END
>  <TORSDO>  (84) 
F 21

>  <SCORE>  (84) 
-4.151

>  <name>  (84) 
84

>  <ligand_id>  (84) 
84

>  <original_smiles>  (84) 
[H]C(=C([H])C([H])([H])[N+]([H])([H])C([H])([H])C([H])([H])Oc1c([H])c([H])c2c(c1[H])C([H])([H])N(C(=O)C([H])(N([H])C(=O)C([H])(N([H])C([H])([H])[H])C([H])([H])[H])C(C([H])([H])[H])(C([H])([H])[H])C([H])([H])[H])C([H])(C(=O)N([H])C1([H])c3c([H])c([H])c([H])c([H])c3C([H])([H])C([H])([H])C1([H])[H])C2([H])[H])C([H])([H])C1([H])N(C(=O)N2C([H])([H])C([H])([H])C([H])([H])C([H])(n3nc(-c4c([H])c([H])c(Oc5c([H])c([H])c(F)c([H])c5F)c([H])c4[H])c(C(=O)N([H])[H])c3N([H])[H])C2([H])[H])C([H])([H])C([H])([H])N([H])C(=O)C1([H])[H]

>  <smiles>  (84) 
[H]C(=C([H])C([H])([H])[N+]([H])([H])C([H])([H])C([H])([H])Oc1c([H])c([H])c2c(c1[H])C([H])([H])N(C(=O)C([H])(N([H])C(=O)C([H])(N([H])C([H])([H])[H])C([H])([H])[H])C(C([H])([H])[H])(C([H])([H])[H])C([H])([H])[H])C([H])(C(=O)N([H])C1([H])c3c([H])c([H])c([H])c([H])c3C([H])([H])C([H])([H])C1([H])[H])C2([H])[H])C([H])([H])C1([H])N(C(=O)N2C([H])([H])C([H])([H])C([H])([H])C([H])(n3nc(-c4c([H])c([H])c(Oc5c([H])c([H])c(F)c([H])c5F)c([H])c4[H])c(C(=O)N([H])[H])c3N([H])[H])C2([H])[H])C([H])([H])C([H])([H])N([H])C(=O)C1([H])[H]

$$$$
85:0:0
     RDKit          3D

 92 97  0  0  1  0  0  0  0  0999 V2000
  -27.0520  -24.5460   17.6730 C   0  0  0  0  0  2  0  0  0  0  0  0
  -25.7590  -25.4610   18.1310 C   0  0  0  0  0  1  0  0  0  0  0  0
  -25.6370  -22.9640   18.8560 C   0  0  0  0  0  2  0  0  0  0  0  0
  -25.9950  -23.4350   20.8750 C   0  0  0  0  0  2  0  0  0  0  0  0
  -26.9940  -22.8480   18.2650 C   0  0  0  0  0  3  0  0  0  0  0  0
  -27.2470  -22.1830   20.0180 C   0  0  0  0  0  2  0  0  0  0  0  0
  -25.6120  -24.4440   20.0710 C   0  0  0  0  0  2  0  0  0  0  0  0
  -26.3570  -25.7940   22.1230 C   0  0  0  0  0  1  0  0  0  0  0  0
  -27.9290  -25.8240   22.7900 C   0  0  0  0  0  3  0  0  0  0  0  0
  -29.2800  -26.3530   22.5120 C   0  0  0  0  0  3  0  0  0  0  0  0
  -29.8630  -27.0420   21.2710 C   0  0  0  0  0  2  0  0  0  0  0  0
  -28.9170  -27.4190   20.1950 O   0  0  0  0  0  0  0  0  0  0  0  0
  -24.5480  -32.0120   23.3100 C   0  0  0  0  0  0  0  0  0  0  0  0
  -27.5790  -27.9150   20.2850 C   0  0  0  0  0  0  0  0  0  0  0  0
  -23.1690  -30.5650   21.7270 C   0  0  0  0  0  3  0  0  0  0  0  0
  -24.6330  -28.9220   20.4700 C   0  0  0  0  0  0  0  0  0  0  0  0
  -25.6270  -30.9360   21.3160 C   0  0  0  0  0  2  0  0  0  0  0  0
  -25.8270  -29.6380   20.7660 C   0  0  0  0  0  0  0  0  0  0  0  0
  -27.0390  -29.1850   20.4830 C   0  0  0  0  0  3  0  0  0  0  0  0
  -26.5480  -27.3610   20.2260 C   0  0  0  0  0  3  0  0  0  0  0  0
  -24.9780  -27.6850   20.3660 C   0  0  0  0  0  3  0  0  0  0  0  0
  -23.3650  -29.5610   20.5130 C   0  0  0  0  0  2  0  0  0  0  0  0
  -24.4800  -31.2020   22.1930 N   0  0  0  0  0  0  0  0  0  0  0  0
  -23.5230  -32.3480   23.8980 O   0  0  0  0  0  0  0  0  0  0  0  0
  -22.5070  -29.7880   22.8650 C   0  0  0  0  0  0  0  0  0  0  0  0
  -21.2270  -29.4860   22.7120 N   0  0  0  0  0  0  0  0  0  0  0  0
  -23.2060  -29.3750   23.7810 O   0  0  0  0  0  0  0  0  0  0  0  0
  -20.6560  -29.7960   21.9470 H   0  0  0  0  0  0  0  0  0  0  0  0
  -18.1230  -27.8910   22.8640 C   0  0  0  0  0  0  0  0  0  0  0  0
  -20.5400  -28.5260   23.5160 C   0  0  0  0  0  3  0  0  0  0  0  0
  -20.9680  -27.1120   23.0430 C   0  0  0  0  0  2  0  0  0  0  0  0
  -20.0970  -26.5930   21.9060 C   0  0  0  0  0  2  0  0  0  0  0  0
  -18.6240  -26.5490   22.3420 C   0  0  0  0  0  2  0  0  0  0  0  0
  -19.0410  -28.8300   23.4020 C   0  0  0  0  0  0  0  0  0  0  0  0
  -18.5980  -30.1180   23.7840 C   0  0  0  0  0  3  0  0  0  0  0  0
  -17.2380  -30.4400   23.7360 C   0  0  0  0  0  3  0  0  0  0  0  0
  -16.3120  -29.4830   23.2870 C   0  0  0  0  0  3  0  0  0  0  0  0
  -16.7530  -28.2250   22.8320 C   0  0  0  0  0  3  0  0  0  0  0  0
  -25.8530  -32.6040   23.8870 C   0  0  0  0  0  3  0  0  0  0  0  0
  -25.6790  -34.0290   24.2740 N   0  0  0  0  0  0  0  0  0  0  0  0
  -26.1130  -35.1020   23.6120 C   0  0  0  0  0  0  0  0  0  0  0  0
  -26.7860  -35.0100   22.5950 O   0  0  0  0  0  0  0  0  0  0  0  0
  -25.1690  -34.1410   25.1310 H   0  0  0  0  0  0  0  0  0  0  0  0
  -24.4920  -37.0300   23.4570 C   0  0  0  0  0  1  0  0  0  0  0  0
  -25.7490  -36.4800   24.1600 C   0  0  0  0  0  3  0  0  0  0  0  0
  -27.9460  -37.4030   24.8880 C   0  0  0  0  0  1  0  0  0  0  0  0
  -26.7950  -37.5220   23.9970 N   0  0  0  0  0  0  0  0  0  0  0  0
  -26.3780  -38.4420   24.1440 H   0  0  0  0  0  0  0  0  0  0  0  0
  -26.4210  -31.8510   25.2120 C   0  0  1  0  0  0  0  0  0  0  0  0
  -25.3630  -31.7150   26.3380 C   0  0  0  0  0  1  0  0  0  0  0  0
  -26.9970  -30.4610   24.8550 C   0  0  0  0  0  1  0  0  0  0  0  0
  -27.5740  -32.6290   25.8830 C   0  0  0  0  0  1  0  0  0  0  0  0
  -27.9040  -20.2950   20.1850 C   0  0  0  0  0 15  0  0  0  0  0  0
  -29.2290  -18.7650   20.3770 C   0  0  0  0  0  1  0  0  0  0  0  0
  -30.2670  -15.5550   20.3340 C   0  0  0  0  0  0  0  0  0  0  0  0
  -30.5850  -12.9070   19.3720 C   0  0  0  0  0  2  0  0  0  0  0  0
  -29.6800  -12.2960   18.2240 C   0  0  0  0  0  2  0  0  0  0  0  0
  -28.2670  -11.9650   18.7580 C   0  0  0  0  0  2  0  0  0  0  0  0
  -27.7870  -13.0830   19.7240 C   0  0  0  0  0  3  0  0  0  0  0  0
  -28.8160  -13.4070   20.8260 C   0  0  0  0  0  2  0  0  0  0  0  0
  -29.9000  -14.1100   20.1310 N   0  0  0  0  0  0  0  0  0  0  0  0
  -31.5020  -15.6170   20.4970 O   0  0  0  0  0  0  0  0  0  0  0  0
  -29.4300  -16.9210   20.1880 N   0  0  0  0  0  0  0  0  0  0  0  0
  -28.8210  -16.6560   19.4620 H   0  0  0  0  0  0  0  0  0  0  0  0
  -25.5120  -13.7150   20.5910 C   0  0  0  0  0  0  0  0  0  0  0  0
  -24.4330  -12.9750   20.9730 C   0  0  0  0  0  0  0  0  0  0  0  0
  -24.8680  -11.6240   20.9190 C   0  0  0  0  0  0  0  0  0  0  0  0
  -26.4990  -12.8090   20.2820 N   0  0  0  0  0  0  0  0  0  0  0  0
  -26.1360  -11.5500   20.5580 N   0  0  0  0  0  0  0  0  0  0  0  0
  -24.1340  -10.3790   21.0970 C   0  0  0  0  0  0  0  0  0  0  0  0
  -24.5580   -9.3890   22.0100 C   0  0  0  0  0  3  0  0  0  0  0  0
  -23.8290   -8.1880   22.1600 C   0  0  0  0  0  3  0  0  0  0  0  0
  -22.6620   -7.9720   21.3910 C   0  0  0  0  0  0  0  0  0  0  0  0
  -22.2590   -8.9460   20.4620 C   0  0  0  0  0  3  0  0  0  0  0  0
  -22.9910  -10.1390   20.3130 C   0  0  0  0  0  3  0  0  0  0  0  0
  -21.9120   -6.8280   21.4510 O   0  0  0  0  0  0  0  0  0  0  0  0
  -21.8220   -6.0970   22.6060 C   0  0  0  0  0  0  0  0  0  0  0  0
  -21.3260   -6.6580   23.8030 C   0  0  0  0  0  3  0  0  0  0  0  0
  -21.1790   -5.8490   24.9480 C   0  0  0  0  0  3  0  0  0  0  0  0
  -21.5270   -4.4850   24.8950 C   0  0  0  0  0  0  0  0  0  0  0  0
  -22.0110   -3.9240   23.7000 C   0  0  0  0  0  3  0  0  0  0  0  0
  -22.1590   -4.7300   22.5590 C   0  0  0  0  0  0  0  0  0  0  0  0
  -22.6110   -4.1890   21.4030 F   0  0  0  0  0  0  0  0  0  0  0  0
  -21.3770   -3.7030   25.9900 F   0  0  0  0  0  0  0  0  0  0  0  0
  -23.0590  -13.4800   21.2790 C   0  0  0  0  0  0  0  0  0  0  0  0
  -22.3230  -12.7960   22.1410 N   0  0  0  0  0  0  0  0  0  0  0  0
  -22.6460  -14.5260   20.7870 O   0  0  0  0  0  0  0  0  0  0  0  0
  -22.6650  -11.9470   22.5660 H   0  0  0  0  0  0  0  0  0  0  0  0
  -21.3940  -13.1210   22.3700 H   0  0  0  0  0  0  0  0  0  0  0  0
  -25.7220  -15.0820   20.4230 N   0  0  0  0  0  0  0  0  0  0  0  0
  -25.0010  -15.7720   20.6070 H   0  0  0  0  0  0  0  0  0  0  0  0
  -26.5410  -15.4790   19.9910 H   0  0  0  0  0  0  0  0  0  0  0  0
  1  2  1  0
  1  5  1  0
  3  7  1  0
  5  3  1  0
  5  6  1  0
  6  4  1  0
  7  4  1  0
  8  9  1  0
 10  9  2  0
 11 10  1  0
 12 14  1  0
 12 11  1  0
 13 24  2  0
 14 19  1  0
 15 23  1  0
 15 25  1  0
 16 22  1  0
 16 18  1  0
 17 23  1  0
 18 17  1  0
 19 18  2  0
 20 14  2  0
 20 21  1  0
 21 16  2  0
 22 15  1  0
 23 13  1  0
 25 27  2  0
 26 25  1  0
 28 26  1  0
 29 34  1  0
 30 26  1  0
 31 30  1  0
 32 33  1  0
 32 31  1  0
 33 29  1  0
 34 30  1  0
 34 35  2  0
 36 35  1  0
 37 36  2  0
 38 29  2  0
 38 37  1  0
 39 13  1  0
 39 40  1  0
 39 49  1  0
 40 43  1  0
 41 45  1  0
 41 40  1  0
 42 41  2  0
 45 44  1  0
 47 48  1  0
 47 45  1  0
 47 46  1  0
 49 52  1  1
 49 50  1  0
 51 49  1  0
 55 62  2  0
 56 61  1  0
 57 58  1  0
 57 56  1  0
 59 58  1  0
 59 68  1  0
 59 60  1  0
 61 55  1  0
 61 60  1  0
 63 55  1  0
 63 54  1  0
 64 63  1  0
 65 66  2  0
 66 85  1  0
 67 66  1  0
 67 70  1  0
 68 69  1  0
 68 65  1  0
 69 67  2  0
 70 71  1  0
 71 72  2  0
 73 76  1  0
 73 72  1  0
 74 73  2  0
 75 74  1  0
 75 70  2  0
 76 77  1  0
 77 78  1  0
 78 79  2  0
 80 79  1  0
 80 84  1  0
 81 80  2  0
 82 77  2  0
 82 81  1  0
 83 82  1  0
 85 86  1  0
 86 89  1  0
 86 88  1  0
 87 85  2  0
 90 65  1  0
 90 91  1  0
 92 90  1  0
M  ISO  4  11 101  12 101  55 100  63 100
M  END
>  <TORSDO>  (85) 
F 21

>  <SCORE>  (85) 
-14.469

>  <name>  (85) 
85

>  <ligand_id>  (85) 
85

>  <original_smiles>  (85) 
[H]C(=C([H])C([H])([H])C12C([H])([H])C([H])([H])C([H])(C1([H])[H])C([H])(C([H])([H])C([H])([H])N([H])C(=O)N1C([H])([H])C([H])([H])C([H])([H])C([H])(n3nc(-c4c([H])c([H])c(Oc5c([H])c([H])c(F)c([H])c5F)c([H])c4[H])c(C(=O)N([H])[H])c3N([H])[H])C1([H])[H])C2([H])[H])C([H])([H])Oc1c([H])c([H])c2c(c1[H])C([H])([H])N(C(=O)C([H])(N([H])C(=O)C([H])(N([H])C([H])([H])[H])C([H])([H])[H])C(C([H])([H])[H])(C([H])([H])[H])C([H])([H])[H])C([H])(C(=O)N([H])C1([H])c3c([H])c([H])c([H])c([H])c3C([H])([H])C([H])([H])C1([H])[H])C2([H])[H]

>  <smiles>  (85) 
[H]C(=C([H])C([H])([H])C12C([H])([H])C([H])([H])C([H])(C1([H])[H])C([H])(C([H])([H])C([H])([H])N([H])C(=O)N1C([H])([H])C([H])([H])C([H])([H])C([H])(n3nc(-c4c([H])c([H])c(Oc5c([H])c([H])c(F)c([H])c5F)c([H])c4[H])c(C(=O)N([H])[H])c3N([H])[H])C1([H])[H])C2([H])[H])C([H])([H])Oc1c([H])c([H])c2c(c1[H])C([H])([H])N(C(=O)C([H])(N([H])C(=O)C([H])(N([H])C([H])([H])[H])C([H])([H])[H])C(C([H])([H])[H])(C([H])([H])[H])C([H])([H])[H])C([H])(C(=O)N([H])C1([H])c3c([H])c([H])c([H])c([H])c3C([H])([H])C([H])([H])C1([H])[H])C2([H])[H]

$$$$
86:0:0
     RDKit          3D

 88 97  0  0  1  0  0  0  0  0999 V2000
  -27.1300  -19.4860   20.3210 C   0  0  0  0  0  2  0  0  0  0  0  0
  -27.3790  -19.0590   19.0710 C   0  0  0  0  0  2  0  0  0  0  0  0
  -29.5510  -19.1740   20.9770 C   0  0  0  0  0  2  0  0  0  0  0  0
  -28.3570  -20.2730   20.7830 C   0  0  0  0  0  3  0  0  0  0  0  0
  -28.8190  -19.4720   18.7720 C   0  0  0  0  0  3  0  0  0  0  0  0
  -28.5550  -21.0640   19.4420 C   0  0  0  0  0  3  0  0  0  0  0  0
  -29.6500  -18.2470   19.6860 C   0  0  0  0  0  3  0  0  0  0  0  0
  -30.6090  -15.3670   19.6410 C   0  0  0  0  0  0  0  0  0  0  0  0
  -30.6240  -12.8720   18.9320 C   0  0  0  0  0  2  0  0  0  0  0  0
  -29.6350  -12.5640   17.7780 C   0  0  0  0  0  2  0  0  0  0  0  0
  -28.2180  -12.3010   18.3200 C   0  0  0  0  0  2  0  0  0  0  0  0
  -27.8100  -13.3270   19.4060 C   0  0  0  0  0  3  0  0  0  0  0  0
  -28.9190  -13.5620   20.4510 C   0  0  0  0  0  2  0  0  0  0  0  0
  -30.0940  -14.0460   19.7110 N   0  0  0  0  0  0  0  0  0  0  0  0
  -31.8200  -15.4160   19.3830 O   0  0  0  0  0  0  0  0  0  0  0  0
  -29.7500  -16.5690   19.6690 N   0  0  0  0  0  0  0  0  0  0  0  0
  -28.8100  -16.2140   19.7630 H   0  0  0  0  0  0  0  0  0  0  0  0
  -25.5220  -13.9020   20.3800 C   0  0  0  0  0  0  0  0  0  0  0  0
  -24.4780  -13.1300   20.8060 C   0  0  0  0  0  0  0  0  0  0  0  0
  -24.9120  -11.7740   20.6820 C   0  0  0  0  0  0  0  0  0  0  0  0
  -26.5220  -13.0180   20.0130 N   0  0  0  0  0  0  0  0  0  0  0  0
  -26.1720  -11.7290   20.2630 N   0  0  0  0  0  0  0  0  0  0  0  0
  -24.1740  -10.5180   20.8800 C   0  0  0  0  0  0  0  0  0  0  0  0
  -24.5940   -9.5520   21.8200 C   0  0  0  0  0  3  0  0  0  0  0  0
  -23.8550   -8.3640   22.0060 C   0  0  0  0  0  3  0  0  0  0  0  0
  -22.6790   -8.1330   21.2490 C   0  0  0  0  0  0  0  0  0  0  0  0
  -22.2780   -9.0870   20.2980 C   0  0  0  0  0  3  0  0  0  0  0  0
  -23.0190  -10.2660   20.1110 C   0  0  0  0  0  3  0  0  0  0  0  0
  -21.9120   -6.9970   21.3450 O   0  0  0  0  0  0  0  0  0  0  0  0
  -21.7610   -6.3280   22.5330 C   0  0  0  0  0  0  0  0  0  0  0  0
  -21.2070   -6.9510   23.6730 C   0  0  0  0  0  3  0  0  0  0  0  0
  -21.0040   -6.2080   24.8520 C   0  0  0  0  0  3  0  0  0  0  0  0
  -21.3450   -4.8430   24.8930 C   0  0  0  0  0  0  0  0  0  0  0  0
  -21.8920   -4.2190   23.7570 C   0  0  0  0  0  3  0  0  0  0  0  0
  -22.0960   -4.9600   22.5790 C   0  0  0  0  0  0  0  0  0  0  0  0
  -22.6030   -4.3490   21.4820 F   0  0  0  0  0  0  0  0  0  0  0  0
  -21.1440   -4.1260   26.0230 F   0  0  0  0  0  0  0  0  0  0  0  0
  -23.1180  -13.6220   21.2060 C   0  0  0  0  0  0  0  0  0  0  0  0
  -22.4430  -12.9020   22.0950 N   0  0  0  0  0  0  0  0  0  0  0  0
  -22.6670  -14.6770   20.7640 O   0  0  0  0  0  0  0  0  0  0  0  0
  -22.8240  -12.0460   22.4710 H   0  0  0  0  0  0  0  0  0  0  0  0
  -21.5340  -13.2110   22.4050 H   0  0  0  0  0  0  0  0  0  0  0  0
  -25.6960  -15.2760   20.2420 N   0  0  0  0  0  0  0  0  0  0  0  0
  -24.9440  -15.9290   20.4330 H   0  0  0  0  0  0  0  0  0  0  0  0
  -26.4930  -15.7130   19.8020 H   0  0  0  0  0  0  0  0  0  0  0  0
  -28.9080  -22.8150   19.2480 C   0  0  0  0  0  3  0  0  0  0  0  0
  -27.8720  -24.2870   19.3560 C   0  0  0  0  0  3  0  0  0  0  0  0
  -28.1140  -25.9150   19.4000 O   0  0  0  0  0  0  0  0  0  0  0  0
  -24.6050  -31.5780   22.9540 C   0  0  0  0  0  0  0  0  0  0  0  0
  -27.0800  -26.9850   19.4760 C   0  0  0  0  0  0  0  0  0  0  0  0
  -23.3530  -30.2860   21.2740 C   0  0  0  0  0  3  0  0  0  0  0  0
  -24.7540  -28.8160   19.6730 C   0  0  0  0  0  0  0  0  0  0  0  0
  -25.9070  -30.5540   21.0260 C   0  0  0  0  0  2  0  0  0  0  0  0
  -25.9640  -29.1980   20.2660 C   0  0  0  0  0  0  0  0  0  0  0  0
  -27.1220  -28.3060   20.1420 C   0  0  0  0  0  3  0  0  0  0  0  0
  -25.8330  -26.7530   18.8520 C   0  0  0  0  0  3  0  0  0  0  0  0
  -24.7110  -27.6150   18.9490 C   0  0  0  0  0  3  0  0  0  0  0  0
  -23.5270  -29.7100   19.8420 C   0  0  0  0  0  2  0  0  0  0  0  0
  -24.6450  -30.8290   21.8060 N   0  0  0  0  0  0  0  0  0  0  0  0
  -23.5380  -31.8110   23.5450 O   0  0  0  0  0  0  0  0  0  0  0  0
  -22.7180  -29.2110   22.1930 C   0  0  0  0  0  0  0  0  0  0  0  0
  -21.3860  -29.0340   22.1140 N   0  0  0  0  0  0  0  0  0  0  0  0
  -23.4280  -28.5400   22.9460 O   0  0  0  0  0  0  0  0  0  0  0  0
  -20.8610  -29.6320   21.4910 H   0  0  0  0  0  0  0  0  0  0  0  0
  -18.0510  -27.7170   22.6640 C   0  0  0  0  0  0  0  0  0  0  0  0
  -20.6110  -28.0280   22.8490 C   0  0  0  0  0  3  0  0  0  0  0  0
  -20.7200  -26.6380   22.1800 C   0  0  0  0  0  2  0  0  0  0  0  0
  -19.5880  -26.3550   21.1880 C   0  0  0  0  0  2  0  0  0  0  0  0
  -18.2290  -26.4230   21.8890 C   0  0  0  0  0  2  0  0  0  0  0  0
  -19.1680  -28.4790   23.1010 C   0  0  0  0  0  0  0  0  0  0  0  0
  -18.9430  -29.6900   23.7890 C   0  0  0  0  0  3  0  0  0  0  0  0
  -17.6340  -30.1420   24.0420 C   0  0  0  0  0  3  0  0  0  0  0  0
  -16.5320  -29.3790   23.6190 C   0  0  0  0  0  3  0  0  0  0  0  0
  -16.7410  -28.1680   22.9360 C   0  0  0  0  0  3  0  0  0  0  0  0
  -25.8960  -32.1920   23.5750 C   0  0  0  0  0  3  0  0  0  0  0  0
  -25.5740  -33.5540   24.0360 N   0  0  0  0  0  0  0  0  0  0  0  0
  -25.8350  -34.6770   23.3540 C   0  0  0  0  0  0  0  0  0  0  0  0
  -26.4350  -34.6770   22.2770 O   0  0  0  0  0  0  0  0  0  0  0  0
  -25.0290  -33.6250   24.8830 H   0  0  0  0  0  0  0  0  0  0  0  0
  -24.0400  -36.4430   23.2970 C   0  0  0  0  0  1  0  0  0  0  0  0
  -25.3560  -36.0120   23.9620 C   0  0  0  0  0  3  0  0  0  0  0  0
  -27.5290  -36.9040   24.6820 C   0  0  0  0  0  1  0  0  0  0  0  0
  -26.3500  -37.1030   23.8450 N   0  0  0  0  0  0  0  0  0  0  0  0
  -25.9330  -37.9970   24.0910 H   0  0  0  0  0  0  0  0  0  0  0  0
  -26.4760  -31.3370   24.7700 C   0  0  1  0  0  0  0  0  0  0  0  0
  -25.4340  -31.0120   25.8670 C   0  0  0  0  0  1  0  0  0  0  0  0
  -27.0530  -29.9960   24.2620 C   0  0  0  0  0  1  0  0  0  0  0  0
  -27.6480  -32.0950   25.4360 C   0  0  0  0  0  1  0  0  0  0  0  0
  2  1  1  0
  4  1  1  0
  4  3  1  0
  5  2  1  0
  5  6  1  0
  5  7  1  0
  6 46  1  0
  6  4  1  0
  7 16  1  0
  7  3  1  0
  8 16  1  0
  8 14  1  0
  9 14  1  0
 10 11  1  0
 10  9  1  0
 12 11  1  0
 12 21  1  0
 12 13  1  0
 14 13  1  0
 15  8  2  0
 16 17  1  0
 18 19  2  0
 19 38  1  0
 20 19  1  0
 20 23  1  0
 21 22  1  0
 21 18  1  0
 22 20  2  0
 23 24  1  0
 24 25  2  0
 26 29  1  0
 26 25  1  0
 27 26  2  0
 28 27  1  0
 28 23  2  0
 29 30  1  0
 30 35  2  0
 30 31  1  0
 31 32  2  0
 32 33  1  0
 33 37  1  0
 34 33  2  0
 35 34  1  0
 36 35  1  0
 38 39  1  0
 39 42  1  0
 39 41  1  0
 40 38  2  0
 43 18  1  0
 43 44  1  0
 45 43  1  0
 46 47  2  0
 47 48  1  0
 48 50  1  0
 49 60  2  0
 50 55  1  0
 51 59  1  0
 51 61  1  0
 52 58  1  0
 52 54  1  0
 53 59  1  0
 54 53  1  0
 55 54  2  0
 56 57  1  0
 56 50  2  0
 57 52  2  0
 58 51  1  0
 59 49  1  0
 61 63  2  0
 62 61  1  0
 64 62  1  0
 65 74  2  0
 65 70  1  0
 66 62  1  0
 66 70  1  0
 67 66  1  0
 68 69  1  0
 68 67  1  0
 69 65  1  0
 70 71  2  0
 71 72  1  0
 73 72  2  0
 74 73  1  0
 75 49  1  0
 75 76  1  0
 75 85  1  0
 76 79  1  0
 77 81  1  0
 77 76  1  0
 78 77  2  0
 81 80  1  0
 83 81  1  0
 83 84  1  0
 83 82  1  0
 85 88  1  1
 85 86  1  0
 87 85  1  0
M  ISO  4   8 100  16 100  47 101  48 101
M  END
>  <TORSDO>  (86) 
F 18

>  <SCORE>  (86) 
-14.432

>  <name>  (86) 
86

>  <ligand_id>  (86) 
86

>  <original_smiles>  (86) 
[H]C1=C([H])C2([H])C([H])(N([H])C(=O)N3C([H])([H])C([H])([H])C([H])([H])C([H])(n4nc(-c5c([H])c([H])c(Oc6c([H])c([H])c(F)c([H])c6F)c([H])c5[H])c(C(=O)N([H])[H])c4N([H])[H])C3([H])[H])C([H])([H])C1([H])C2([H])C([H])([H])C([H])([H])Oc1c([H])c([H])c2c(c1[H])C([H])([H])N(C(=O)C([H])(N([H])C(=O)C([H])(N([H])C([H])([H])[H])C([H])([H])[H])C(C([H])([H])[H])(C([H])([H])[H])C([H])([H])[H])C([H])(C(=O)N([H])C1([H])c3c([H])c([H])c([H])c([H])c3C([H])([H])C([H])([H])C1([H])[H])C2([H])[H]

>  <smiles>  (86) 
[H]C1=C([H])C2([H])C([H])(N([H])C(=O)N3C([H])([H])C([H])([H])C([H])([H])C([H])(n4nc(-c5c([H])c([H])c(Oc6c([H])c([H])c(F)c([H])c6F)c([H])c5[H])c(C(=O)N([H])[H])c4N([H])[H])C3([H])[H])C([H])([H])C1([H])C2([H])C([H])([H])C([H])([H])Oc1c([H])c([H])c2c(c1[H])C([H])([H])N(C(=O)C([H])(N([H])C(=O)C([H])(N([H])C([H])([H])[H])C([H])([H])[H])C(C([H])([H])[H])(C([H])([H])[H])C([H])([H])[H])C([H])(C(=O)N([H])C1([H])c3c([H])c([H])c([H])c([H])c3C([H])([H])C([H])([H])C1([H])[H])C2([H])[H]

$$$$
87:0:0
     RDKit          3D

 97105  0  0  1  0  0  0  0  0999 V2000
  -29.8160  -21.2920   20.0560 C   0  0  0  0  0  2  0  0  0  0  0  0
  -28.0190  -20.0410   18.7050 C   0  0  0  0  0  2  0  0  0  0  0  0
  -27.4260  -22.2290   19.8540 C   0  0  0  0  0  2  0  0  0  0  0  0
  -29.1100  -19.8810   19.8080 C   0  0  0  0  0  3  0  0  0  0  0  0
  -28.8380  -22.5050   20.4390 C   0  0  0  0  0  3  0  0  0  0  0  0
  -27.3720  -21.4560   18.5070 C   0  0  1  0  0  0  0  0  0  0  0  0
  -30.0140  -18.5810   19.4890 C   0  0  0  0  0  2  0  0  0  0  0  0
  -30.2620  -17.4630   20.6080 C   0  0  0  0  0  2  0  0  0  0  0  0
  -30.8360  -14.9410   20.0720 C   0  0  0  0  0  0  0  0  0  0  0  0
  -30.6530  -12.6680   19.0740 C   0  0  0  0  0  2  0  0  0  0  0  0
  -29.6580  -12.7230   17.8930 C   0  0  0  0  0  2  0  0  0  0  0  0
  -28.2040  -12.5550   18.3840 C   0  0  0  0  0  2  0  0  0  0  0  0
  -27.8730  -13.4500   19.6070 C   0  0  0  0  0  3  0  0  0  0  0  0
  -28.9760  -13.3470   20.6830 C   0  0  0  0  0  2  0  0  0  0  0  0
  -30.2450  -13.7060   20.0360 N   0  0  0  0  0  0  0  0  0  0  0  0
  -32.0110  -15.1030   19.7290 O   0  0  0  0  0  0  0  0  0  0  0  0
  -29.9990  -16.0020   20.3140 N   0  0  0  0  0  0  0  0  0  0  0  0
  -29.0450  -15.7170   20.4730 H   0  0  0  0  0  0  0  0  0  0  0  0
  -25.5280  -14.0430   20.4680 C   0  0  0  0  0  0  0  0  0  0  0  0
  -24.4730  -13.2650   20.8590 C   0  0  0  0  0  0  0  0  0  0  0  0
  -24.9180  -11.9110   20.7540 C   0  0  0  0  0  0  0  0  0  0  0  0
  -26.5490  -13.1630   20.1500 N   0  0  0  0  0  0  0  0  0  0  0  0
  -26.1920  -11.8740   20.3830 N   0  0  0  0  0  0  0  0  0  0  0  0
  -24.1890  -10.6490   20.9270 C   0  0  0  0  0  0  0  0  0  0  0  0
  -24.5970   -9.6850   21.8750 C   0  0  0  0  0  3  0  0  0  0  0  0
  -23.8690   -8.4880   22.0360 C   0  0  0  0  0  3  0  0  0  0  0  0
  -22.7180   -8.2450   21.2470 C   0  0  0  0  0  0  0  0  0  0  0  0
  -22.3300   -9.1970   20.2900 C   0  0  0  0  0  3  0  0  0  0  0  0
  -23.0590  -10.3880   20.1270 C   0  0  0  0  0  3  0  0  0  0  0  0
  -21.9630   -7.0980   21.3160 O   0  0  0  0  0  0  0  0  0  0  0  0
  -21.8240   -6.3990   22.4890 C   0  0  0  0  0  0  0  0  0  0  0  0
  -21.2550   -6.9820   23.6420 C   0  0  0  0  0  3  0  0  0  0  0  0
  -21.0660   -6.2050   24.8040 C   0  0  0  0  0  3  0  0  0  0  0  0
  -21.4370   -4.8470   24.8120 C   0  0  0  0  0  0  0  0  0  0  0  0
  -22.0000   -4.2650   23.6620 C   0  0  0  0  0  3  0  0  0  0  0  0
  -22.1900   -5.0380   22.5030 C   0  0  0  0  0  0  0  0  0  0  0  0
  -22.7120   -4.4650   21.3920 F   0  0  0  0  0  0  0  0  0  0  0  0
  -21.2500   -4.1000   25.9250 F   0  0  0  0  0  0  0  0  0  0  0  0
  -23.0940  -13.7420   21.2150 C   0  0  0  0  0  0  0  0  0  0  0  0
  -22.4010  -13.0190   22.0880 N   0  0  0  0  0  0  0  0  0  0  0  0
  -22.6430  -14.7920   20.7570 O   0  0  0  0  0  0  0  0  0  0  0  0
  -22.7790  -12.1690   22.4790 H   0  0  0  0  0  0  0  0  0  0  0  0
  -21.4790  -13.3210   22.3700 H   0  0  0  0  0  0  0  0  0  0  0  0
  -25.6960  -15.4190   20.3360 N   0  0  0  0  0  0  0  0  0  0  0  0
  -24.9320  -16.0630   20.5040 H   0  0  0  0  0  0  0  0  0  0  0  0
  -26.5300  -15.8700   19.9840 H   0  0  0  0  0  0  0  0  0  0  0  0
  -29.3290  -24.0310   20.2550 C   0  0  0  0  0  3  0  0  0  0  0  0
  -28.4530  -25.2030   20.9140 C   0  0  0  0  0  3  0  0  0  0  0  0
  -28.6640  -26.6360   20.5770 O   0  0  0  0  0  0  0  0  0  0  0  0
  -24.6130  -31.9840   23.3090 C   0  0  0  0  0  0  0  0  0  0  0  0
  -27.5290  -27.4560   20.4870 C   0  0  0  0  0  0  0  0  0  0  0  0
  -23.5500  -30.5290   21.6230 C   0  0  0  0  0  3  0  0  0  0  0  0
  -25.1250  -28.9970   20.3110 C   0  0  0  0  0  0  0  0  0  0  0  0
  -26.0860  -30.9150   21.5880 C   0  0  0  0  0  2  0  0  0  0  0  0
  -26.2420  -29.5290   20.9690 C   0  0  0  0  0  0  0  0  0  0  0  0
  -27.4500  -28.7710   21.0440 C   0  0  0  0  0  3  0  0  0  0  0  0
  -26.3920  -26.9780   19.8000 C   0  0  0  0  0  3  0  0  0  0  0  0
  -25.2010  -27.7260   19.7180 C   0  0  0  0  0  3  0  0  0  0  0  0
  -23.8650  -29.8390   20.2700 C   0  0  0  0  0  2  0  0  0  0  0  0
  -24.7650  -31.1610   22.2310 N   0  0  0  0  0  0  0  0  0  0  0  0
  -23.4920  -32.2390   23.7720 O   0  0  0  0  0  0  0  0  0  0  0  0
  -22.8590  -29.5070   22.5580 C   0  0  0  0  0  0  0  0  0  0  0  0
  -21.5440  -29.3060   22.3650 N   0  0  0  0  0  0  0  0  0  0  0  0
  -23.5060  -28.9000   23.4150 O   0  0  0  0  0  0  0  0  0  0  0  0
  -21.0820  -29.8490   21.6500 H   0  0  0  0  0  0  0  0  0  0  0  0
  -18.1450  -28.1370   22.7780 C   0  0  0  0  0  0  0  0  0  0  0  0
  -20.7000  -28.3630   23.1020 C   0  0  0  0  0  3  0  0  0  0  0  0
  -20.7990  -26.9420   22.5010 C   0  0  0  0  0  2  0  0  0  0  0  0
  -19.7120  -26.6510   21.4600 C   0  0  0  0  0  2  0  0  0  0  0  0
  -18.3200  -26.8000   22.0790 C   0  0  0  0  0  2  0  0  0  0  0  0
  -19.2630  -28.8800   23.2430 C   0  0  0  0  0  0  0  0  0  0  0  0
  -19.0460  -30.1340   23.8520 C   0  0  0  0  0  3  0  0  0  0  0  0
  -17.7440  -30.6450   24.0050 C   0  0  0  0  0  3  0  0  0  0  0  0
  -16.6390  -29.9000   23.5550 C   0  0  0  0  0  3  0  0  0  0  0  0
  -16.8410  -28.6490   22.9470 C   0  0  0  0  0  3  0  0  0  0  0  0
  -25.8400  -32.6600   23.9960 C   0  0  0  0  0  3  0  0  0  0  0  0
  -26.2880  -31.9290   25.3210 C   0  0  1  0  0  0  0  0  0  0  0  0
  -25.1260  -31.6470   26.3030 C   0  0  0  0  0  1  0  0  0  0  0  0
  -26.9680  -30.5800   24.9950 C   0  0  0  0  0  1  0  0  0  0  0  0
  -27.3390  -32.7910   26.0640 C   0  0  0  0  0  1  0  0  0  0  0  0
  -25.4750  -34.0570   24.2730 N   0  0  0  0  0  0  0  0  0  0  0  0
  -25.8150  -35.1000   23.5040 C   0  0  0  0  0  0  0  0  0  0  0  0
  -26.5360  -34.9900   22.5080 O   0  0  0  0  0  0  0  0  0  0  0  0
  -24.8330  -34.2120   25.0370 H   0  0  0  0  0  0  0  0  0  0  0  0
  -24.0420  -36.8260   23.0450 C   0  0  0  0  0  1  0  0  0  0  0  0
  -25.2720  -36.4860   23.9030 C   0  0  0  0  0  3  0  0  0  0  0  0
  -27.3440  -37.4720   24.7740 C   0  0  0  0  0  1  0  0  0  0  0  0
  -26.2740  -37.5670   23.7860 N   0  0  0  0  0  0  0  0  0  0  0  0
  -25.8320  -38.4780   23.8850 H   0  0  0  0  0  0  0  0  0  0  0  0
  -28.1130  -22.2370   17.3720 C   0  0  0  0  0  2  0  0  0  0  0  0
  -28.6810  -24.4540   16.2370 C   0  0  0  0  0  1  0  0  0  0  0  0
  -27.7050  -23.7110   17.1560 C   0  0  0  0  0  2  0  0  0  0  0  0
  -25.8680  -21.2820   18.1310 C   0  0  0  0  0  2  0  0  0  0  0  0
  -25.6470  -20.5630   16.8600 N   0  0  0  0  0  4  0  0  0  0  0  0
  -26.0740  -21.0480   16.0920 H   0  0  0  0  0  0  0  0  0  0  0  0
  -24.6610  -20.5010   16.6780 H   0  0  0  0  0  0  0  0  0  0  0  0
  -26.0150  -19.6310   16.9040 H   0  0  0  0  0  0  0  0  0  0  0  0
  1  5  1  0
  2  4  1  0
  3  5  1  0
  4  7  1  0
  4  1  1  0
  5 47  1  0
  6 90  1  6
  6  2  1  0
  6  3  1  0
  7  8  1  0
  9 17  1  0
 10 15  1  0
 11 12  1  0
 11 10  1  0
 13 12  1  0
 13 22  1  0
 13 14  1  0
 15  9  1  0
 15 14  1  0
 16  9  2  0
 17 18  1  0
 17  8  1  0
 19 20  2  0
 20 39  1  0
 21 20  1  0
 21 24  1  0
 22 23  1  0
 22 19  1  0
 23 21  2  0
 24 25  1  0
 25 26  2  0
 27 30  1  0
 27 26  1  0
 28 27  2  0
 29 28  1  0
 29 24  2  0
 30 31  1  0
 31 36  2  0
 31 32  1  0
 32 33  2  0
 33 34  1  0
 34 38  1  0
 35 34  2  0
 36 35  1  0
 37 36  1  0
 39 40  1  0
 40 43  1  0
 40 42  1  0
 41 39  2  0
 44 19  1  0
 44 45  1  0
 46 44  1  0
 47 48  2  0
 49 48  1  0
 50 61  2  0
 51 49  1  0
 51 56  1  0
 52 60  1  0
 52 62  1  0
 53 55  1  0
 54 60  1  0
 55 56  2  0
 55 54  1  0
 57 51  2  0
 58 57  1  0
 58 53  2  0
 59 53  1  0
 59 52  1  0
 60 50  1  0
 62 64  2  0
 63 62  1  0
 65 63  1  0
 66 75  2  0
 66 71  1  0
 67 63  1  0
 67 71  1  0
 68 67  1  0
 69 70  1  0
 69 68  1  0
 70 66  1  0
 71 72  2  0
 72 73  1  0
 74 73  2  0
 75 74  1  0
 76 50  1  0
 76 81  1  0
 76 77  1  0
 77 80  1  1
 77 78  1  0
 79 77  1  0
 81 84  1  0
 82 86  1  0
 82 81  1  0
 83 82  2  0
 86 85  1  0
 88 89  1  0
 88 86  1  0
 88 87  1  0
 91 92  1  0
 92 90  1  0
 93  6  1  0
 94 97  1  0
 94 93  1  0
 95 94  1  0
 96 94  1  0
M  ISO  4   9 100  17 100  48 101  49 101
M  END
>  <TORSDO>  (87) 
F 24

>  <SCORE>  (87) 
-11.953

>  <name>  (87) 
87

>  <ligand_id>  (87) 
87

>  <original_smiles>  (87) 
[H]c1c([H])c([H])c2c(c1[H])C([H])([H])C([H])([H])C([H])([H])C2([H])N([H])C(=O)C1([H])N(C(=O)C([H])(N([H])C(=O)C([H])(N([H])C([H])([H])[H])C([H])([H])[H])C(C([H])([H])[H])(C([H])([H])[H])C([H])([H])[H])C([H])([H])c2c([H])c(OC([H])([H])C([H])([H])C3([H])C([H])([H])C([H])(C([H])([H])C([H])([H])N([H])C(=O)N4C([H])([H])C([H])([H])C([H])([H])C([H])(n5nc(-c6c([H])c([H])c(Oc7c([H])c([H])c(F)c([H])c7F)c([H])c6[H])c(C(=O)N([H])[H])c5N([H])[H])C4([H])[H])C([H])([H])C(C([H])([H])C([H])([H])C([H])([H])[H])(C([H])([H])[N+]([H])([H])[H])C3([H])[H])c([H])c([H])c2C1([H])[H]

>  <smiles>  (87) 
[H]c1c([H])c([H])c2c(c1[H])C([H])([H])C([H])([H])C([H])([H])C2([H])N([H])C(=O)C1([H])N(C(=O)C([H])(N([H])C(=O)C([H])(N([H])C([H])([H])[H])C([H])([H])[H])C(C([H])([H])[H])(C([H])([H])[H])C([H])([H])[H])C([H])([H])c2c([H])c(OC([H])([H])C([H])([H])C3([H])C([H])([H])C([H])(C([H])([H])C([H])([H])N([H])C(=O)N4C([H])([H])C([H])([H])C([H])([H])C([H])(n5nc(-c6c([H])c([H])c(Oc7c([H])c([H])c(F)c([H])c7F)c([H])c6[H])c(C(=O)N([H])[H])c5N([H])[H])C4([H])[H])C([H])([H])C(C([H])([H])C([H])([H])C([H])([H])[H])(C([H])([H])[N+]([H])([H])[H])C3([H])[H])c([H])c([H])c2C1([H])[H]

$$$$
88:0:0
     RDKit          3D

 90 99  0  0  1  0  0  0  0  0999 V2000
  -30.7390  -20.6940   20.6180 C   0  0  0  0  0  2  0  0  0  0  0  0
  -28.4340  -20.4300   21.5340 C   0  0  0  0  0  2  0  0  0  0  0  0
  -30.5180  -22.2410   20.5870 C   0  0  0  0  0  2  0  0  0  0  0  0
  -28.1940  -21.9710   21.4530 C   0  0  0  0  0  2  0  0  0  0  0  0
  -28.8310  -21.1770   19.3370 C   0  0  0  0  0  2  0  0  0  0  0  0
  -29.3490  -20.0830   20.3340 C   0  0  1  0  0  0  0  0  0  0  0  0
  -29.0210  -22.4450   20.2380 C   0  0  2  0  0  0  0  0  0  0  0  0
  -29.3210  -18.5230   19.8820 C   0  0  0  0  0  3  0  0  0  0  0  0
  -30.1860  -17.3820   20.6230 C   0  0  0  0  0  3  0  0  0  0  0  0
  -30.5960  -14.8140   20.1190 C   0  0  0  0  0  0  0  0  0  0  0  0
  -30.3490  -12.5750   19.0430 C   0  0  0  0  0  2  0  0  0  0  0  0
  -29.3590  -12.6910   17.8650 C   0  0  0  0  0  2  0  0  0  0  0  0
  -27.9070  -12.5200   18.3510 C   0  0  0  0  0  2  0  0  0  0  0  0
  -27.5910  -13.3790   19.6040 C   0  0  0  0  0  3  0  0  0  0  0  0
  -28.6910  -13.2390   20.6780 C   0  0  0  0  0  2  0  0  0  0  0  0
  -29.9670  -13.5960   20.0420 N   0  0  0  0  0  0  0  0  0  0  0  0
  -31.7680  -14.9390   19.7540 O   0  0  0  0  0  0  0  0  0  0  0  0
  -29.8200  -15.9150   20.4280 N   0  0  0  0  0  0  0  0  0  0  0  0
  -28.8610  -15.6850   20.6410 H   0  0  0  0  0  0  0  0  0  0  0  0
  -25.2300  -13.9720   20.4170 C   0  0  0  0  0  0  0  0  0  0  0  0
  -24.1780  -13.1960   20.8220 C   0  0  0  0  0  0  0  0  0  0  0  0
  -24.6390  -11.8450   20.7700 C   0  0  0  0  0  0  0  0  0  0  0  0
  -26.2640  -13.0920   20.1410 N   0  0  0  0  0  0  0  0  0  0  0  0
  -25.9170  -11.8080   20.4150 N   0  0  0  0  0  0  0  0  0  0  0  0
  -23.9190  -10.5820   20.9800 C   0  0  0  0  0  0  0  0  0  0  0  0
  -24.3800   -9.6130   21.8980 C   0  0  0  0  0  3  0  0  0  0  0  0
  -23.6600   -8.4150   22.0950 C   0  0  0  0  0  3  0  0  0  0  0  0
  -22.4650   -8.1780   21.3740 C   0  0  0  0  0  0  0  0  0  0  0  0
  -22.0240   -9.1360   20.4460 C   0  0  0  0  0  3  0  0  0  0  0  0
  -22.7440  -10.3250   20.2460 C   0  0  0  0  0  3  0  0  0  0  0  0
  -21.7150   -7.0330   21.4830 O   0  0  0  0  0  0  0  0  0  0  0  0
  -21.6990   -6.2880   22.6350 C   0  0  0  0  0  0  0  0  0  0  0  0
  -21.3050   -6.8400   23.8740 C   0  0  0  0  0  3  0  0  0  0  0  0
  -21.2370   -6.0210   25.0190 C   0  0  0  0  0  3  0  0  0  0  0  0
  -21.5520   -4.6520   24.9280 C   0  0  0  0  0  0  0  0  0  0  0  0
  -21.9410   -4.1010   23.6940 C   0  0  0  0  0  3  0  0  0  0  0  0
  -22.0100   -4.9160   22.5500 C   0  0  0  0  0  0  0  0  0  0  0  0
  -22.3640   -4.3750   21.3600 F   0  0  0  0  0  0  0  0  0  0  0  0
  -21.4800   -3.8650   26.0250 F   0  0  0  0  0  0  0  0  0  0  0  0
  -22.7900  -13.6730   21.1440 C   0  0  0  0  0  0  0  0  0  0  0  0
  -22.0930  -12.9720   22.0300 N   0  0  0  0  0  0  0  0  0  0  0  0
  -22.3360  -14.7010   20.6450 O   0  0  0  0  0  0  0  0  0  0  0  0
  -22.4740  -12.1400   22.4560 H   0  0  0  0  0  0  0  0  0  0  0  0
  -21.1630  -13.2730   22.2890 H   0  0  0  0  0  0  0  0  0  0  0  0
  -25.3870  -15.3430   20.2380 N   0  0  0  0  0  0  0  0  0  0  0  0
  -24.6180  -15.9920   20.3720 H   0  0  0  0  0  0  0  0  0  0  0  0
  -26.2090  -15.7830   19.8470 H   0  0  0  0  0  0  0  0  0  0  0  0
  -28.6550  -23.9100   19.6370 C   0  0  0  0  0  3  0  0  0  0  0  0
  -28.4400  -25.2000   20.5740 C   0  0  0  0  0  3  0  0  0  0  0  0
  -28.4890  -26.5920   20.0370 O   0  0  0  0  0  0  0  0  0  0  0  0
  -24.6490  -31.8730   23.1900 C   0  0  0  0  0  0  0  0  0  0  0  0
  -27.3460  -27.4070   20.0670 C   0  0  0  0  0  0  0  0  0  0  0  0
  -23.4750  -30.4890   21.5140 C   0  0  0  0  0  3  0  0  0  0  0  0
  -24.9570  -28.9810   20.0710 C   0  0  0  0  0  0  0  0  0  0  0  0
  -26.0090  -30.8500   21.3480 C   0  0  0  0  0  2  0  0  0  0  0  0
  -26.1150  -29.4830   20.6770 C   0  0  0  0  0  0  0  0  0  0  0  0
  -27.3160  -28.7100   20.6580 C   0  0  0  0  0  3  0  0  0  0  0  0
  -26.1650  -26.9500   19.4490 C   0  0  0  0  0  3  0  0  0  0  0  0
  -24.9840  -27.7220   19.4460 C   0  0  0  0  0  3  0  0  0  0  0  0
  -23.7070  -29.8390   20.1240 C   0  0  0  0  0  2  0  0  0  0  0  0
  -24.7300  -31.0880   22.0750 N   0  0  0  0  0  0  0  0  0  0  0  0
  -23.5590  -32.1220   23.7260 O   0  0  0  0  0  0  0  0  0  0  0  0
  -22.8220  -29.4460   22.4520 C   0  0  0  0  0  0  0  0  0  0  0  0
  -21.4980  -29.2550   22.3160 N   0  0  0  0  0  0  0  0  0  0  0  0
  -23.5050  -28.8130   23.2600 O   0  0  0  0  0  0  0  0  0  0  0  0
  -21.0060  -29.8190   21.6380 H   0  0  0  0  0  0  0  0  0  0  0  0
  -18.1360  -28.0050   22.7770 C   0  0  0  0  0  0  0  0  0  0  0  0
  -20.6890  -28.2900   23.0630 C   0  0  0  0  0  3  0  0  0  0  0  0
  -20.8120  -26.8730   22.4560 C   0  0  0  0  0  2  0  0  0  0  0  0
  -19.7170  -26.5600   21.4300 C   0  0  0  0  0  2  0  0  0  0  0  0
  -18.3310  -26.6730   22.0720 C   0  0  0  0  0  2  0  0  0  0  0  0
  -19.2430  -28.7720   23.2280 C   0  0  0  0  0  0  0  0  0  0  0  0
  -19.0050  -30.0180   23.8480 C   0  0  0  0  0  3  0  0  0  0  0  0
  -17.6930  -30.4980   24.0190 C   0  0  0  0  0  3  0  0  0  0  0  0
  -16.6000  -29.7290   23.5840 C   0  0  0  0  0  3  0  0  0  0  0  0
  -16.8220  -28.4830   22.9690 C   0  0  0  0  0  3  0  0  0  0  0  0
  -25.9200  -32.5110   23.8330 C   0  0  0  0  0  3  0  0  0  0  0  0
  -26.4270  -31.7330   25.1090 C   0  0  1  0  0  0  0  0  0  0  0  0
  -25.3240  -31.4770   26.1620 C   0  0  0  0  0  1  0  0  0  0  0  0
  -27.0260  -30.3640   24.7120 C   0  0  0  0  0  1  0  0  0  0  0  0
  -27.5640  -32.5310   25.7910 C   0  0  0  0  0  1  0  0  0  0  0  0
  -25.5930  -33.9030   24.1740 N   0  0  0  0  0  0  0  0  0  0  0  0
  -25.9220  -34.9670   23.4300 C   0  0  0  0  0  0  0  0  0  0  0  0
  -26.6020  -34.8810   22.4040 O   0  0  0  0  0  0  0  0  0  0  0  0
  -24.9900  -34.0440   24.9710 H   0  0  0  0  0  0  0  0  0  0  0  0
  -24.1850  -36.7530   23.0780 C   0  0  0  0  0  1  0  0  0  0  0  0
  -25.4200  -36.3470   23.8990 C   0  0  0  0  0  3  0  0  0  0  0  0
  -27.5370  -37.2400   24.7650 C   0  0  0  0  0  1  0  0  0  0  0  0
  -26.4450  -37.4090   23.8100 N   0  0  0  0  0  0  0  0  0  0  0  0
  -26.0300  -38.3250   23.9610 H   0  0  0  0  0  0  0  0  0  0  0  0
  3  1  1  0
  4  2  1  0
  5  7  1  0
  5  6  1  0
  6  8  1  6
  6  1  1  0
  6  2  1  0
  7 48  1  6
  7  3  1  0
  7  4  1  0
  8  9  2  0
 10 18  1  0
 11 16  1  0
 12 13  1  0
 12 11  1  0
 14 13  1  0
 14 23  1  0
 14 15  1  0
 16 10  1  0
 16 15  1  0
 17 10  2  0
 18  9  1  0
 18 19  1  0
 20 21  2  0
 21 40  1  0
 22 21  1  0
 22 25  1  0
 23 24  1  0
 23 20  1  0
 24 22  2  0
 25 26  1  0
 26 27  2  0
 28 31  1  0
 28 27  1  0
 29 28  2  0
 30 29  1  0
 30 25  2  0
 31 32  1  0
 32 33  1  0
 33 34  2  0
 35 34  1  0
 35 39  1  0
 36 35  2  0
 37 32  2  0
 37 36  1  0
 38 37  1  0
 40 41  1  0
 41 44  1  0
 41 43  1  0
 42 40  2  0
 45 46  1  0
 45 20  1  0
 47 45  1  0
 48 49  2  0
 50 52  1  0
 50 49  1  0
 51 62  2  0
 52 57  1  0
 53 61  1  0
 53 63  1  0
 54 60  1  0
 54 56  1  0
 55 61  1  0
 56 55  1  0
 57 56  2  0
 58 52  2  0
 59 58  1  0
 59 54  2  0
 60 53  1  0
 61 51  1  0
 63 65  2  0
 64 63  1  0
 66 64  1  0
 67 76  2  0
 67 72  1  0
 68 64  1  0
 68 72  1  0
 69 68  1  0
 70 71  1  0
 70 69  1  0
 71 67  1  0
 72 73  2  0
 73 74  1  0
 75 74  2  0
 76 75  1  0
 77 51  1  0
 77 82  1  0
 77 78  1  0
 78 81  1  1
 78 79  1  0
 80 78  1  0
 82 85  1  0
 83 87  1  0
 83 82  1  0
 84 83  2  0
 87 86  1  0
 89 87  1  0
 89 90  1  0
 89 88  1  0
M  ISO  4  10 100  18 100  49 101  50 101
M  END
>  <TORSDO>  (88) 
F 20

>  <SCORE>  (88) 
-13.244

>  <name>  (88) 
88

>  <ligand_id>  (88) 
88

>  <original_smiles>  (88) 
[H]c1c([H])c([H])c2c(c1[H])C([H])([H])C([H])([H])C([H])([H])C2([H])N([H])C(=O)C1([H])N(C(=O)C([H])(N([H])C(=O)C([H])(N([H])C([H])([H])[H])C([H])([H])[H])C(C([H])([H])[H])(C([H])([H])[H])C([H])([H])[H])C([H])([H])c2c([H])c(OC([H])([H])C([H])([H])C34C([H])([H])C([H])([H])C(C([H])([H])C([H])([H])N([H])C(=O)N5C([H])([H])C([H])([H])C([H])([H])C([H])(n6nc(-c7c([H])c([H])c(Oc8c([H])c([H])c(F)c([H])c8F)c([H])c7[H])c(C(=O)N([H])[H])c6N([H])[H])C5([H])[H])(C([H])([H])C3([H])[H])C4([H])[H])c([H])c([H])c2C1([H])[H]

>  <smiles>  (88) 
[H]c1c([H])c([H])c2c(c1[H])C([H])([H])C([H])([H])C([H])([H])C2([H])N([H])C(=O)C1([H])N(C(=O)C([H])(N([H])C(=O)C([H])(N([H])C([H])([H])[H])C([H])([H])[H])C(C([H])([H])[H])(C([H])([H])[H])C([H])([H])[H])C([H])([H])c2c([H])c(OC([H])([H])C([H])([H])C34C([H])([H])C([H])([H])C(C([H])([H])C([H])([H])N([H])C(=O)N5C([H])([H])C([H])([H])C([H])([H])C([H])(n6nc(-c7c([H])c([H])c(Oc8c([H])c([H])c(F)c([H])c8F)c([H])c7[H])c(C(=O)N([H])[H])c6N([H])[H])C5([H])[H])(C([H])([H])C3([H])[H])C4([H])[H])c([H])c([H])c2C1([H])[H]

$$$$
89:0:0
     RDKit          3D

 95102  0  0  1  0  0  0  0  0999 V2000
  -30.6420  -21.1600   18.4980 C   0  0  0  0  0  2  0  0  0  0  0  0
  -30.7220  -22.4020   19.2990 N   0  0  0  0  0  4  0  0  0  0  0  0
  -31.6700  -22.7480   19.2660 H   0  0  0  0  0  0  0  0  0  0  0  0
  -30.4970  -22.1850   20.2550 H   0  0  0  0  0  0  0  0  0  0  0  0
  -29.7810  -23.4420   18.8250 C   0  0  0  0  0  2  0  0  0  0  0  0
  -29.7130  -24.6980   19.7190 C   0  0  0  0  0  2  0  0  0  0  0  0
  -28.4300  -25.4880   19.4140 C   0  0  0  0  0  2  0  0  0  0  0  0
  -28.3770  -26.7320   20.1140 O   0  0  0  0  0  0  0  0  0  0  0  0
  -24.5330  -31.8720   23.1930 C   0  0  0  0  0  0  0  0  0  0  0  0
  -27.1840  -27.4330   20.1000 C   0  0  0  0  0  0  0  0  0  0  0  0
  -23.3310  -30.4760   21.5450 C   0  0  0  0  0  3  0  0  0  0  0  0
  -24.7840  -28.9410   20.1230 C   0  0  0  0  0  0  0  0  0  0  0  0
  -25.8590  -30.8260   21.3580 C   0  0  0  0  0  2  0  0  0  0  0  0
  -25.9410  -29.4550   20.7210 C   0  0  0  0  0  0  0  0  0  0  0  0
  -27.1380  -28.7050   20.7170 C   0  0  0  0  0  3  0  0  0  0  0  0
  -26.0030  -26.9360   19.4930 C   0  0  0  0  0  3  0  0  0  0  0  0
  -24.8100  -27.6770   19.5120 C   0  0  0  0  0  3  0  0  0  0  0  0
  -23.5430  -29.8010   20.1650 C   0  0  0  0  0  2  0  0  0  0  0  0
  -24.5930  -31.0730   22.0900 N   0  0  0  0  0  0  0  0  0  0  0  0
  -23.4500  -32.1470   23.7270 O   0  0  0  0  0  0  0  0  0  0  0  0
  -22.6720  -29.4540   22.4990 C   0  0  0  0  0  0  0  0  0  0  0  0
  -21.3470  -29.2780   22.3660 N   0  0  0  0  0  0  0  0  0  0  0  0
  -23.3500  -28.8220   23.3130 O   0  0  0  0  0  0  0  0  0  0  0  0
  -20.8630  -29.8410   21.6800 H   0  0  0  0  0  0  0  0  0  0  0  0
  -17.9620  -28.1140   22.8520 C   0  0  0  0  0  0  0  0  0  0  0  0
  -20.5210  -28.3430   23.1280 C   0  0  0  0  0  3  0  0  0  0  0  0
  -20.6100  -26.9150   22.5400 C   0  0  0  0  0  2  0  0  0  0  0  0
  -19.5050  -26.6120   21.5230 C   0  0  0  0  0  2  0  0  0  0  0  0
  -18.1250  -26.7670   22.1690 C   0  0  0  0  0  2  0  0  0  0  0  0
  -19.0890  -28.8630   23.2880 C   0  0  0  0  0  0  0  0  0  0  0  0
  -18.8830  -30.1260   23.8850 C   0  0  0  0  0  3  0  0  0  0  0  0
  -17.5830  -30.6390   24.0510 C   0  0  0  0  0  3  0  0  0  0  0  0
  -16.4720  -29.8880   23.6330 C   0  0  0  0  0  3  0  0  0  0  0  0
  -16.6620  -28.6280   23.0390 C   0  0  0  0  0  3  0  0  0  0  0  0
  -25.8170  -32.4960   23.8190 C   0  0  0  0  0  3  0  0  0  0  0  0
  -26.3350  -31.7140   25.0890 C   0  0  1  0  0  0  0  0  0  0  0  0
  -25.2420  -31.4630   26.1530 C   0  0  0  0  0  1  0  0  0  0  0  0
  -26.9180  -30.3410   24.6800 C   0  0  0  0  0  1  0  0  0  0  0  0
  -27.4850  -32.5020   25.7580 C   0  0  0  0  0  1  0  0  0  0  0  0
  -25.5110  -33.8920   24.1570 N   0  0  0  0  0  0  0  0  0  0  0  0
  -25.8470  -34.9480   23.4030 C   0  0  0  0  0  0  0  0  0  0  0  0
  -26.5220  -34.8500   22.3740 O   0  0  0  0  0  0  0  0  0  0  0  0
  -24.9090  -34.0450   24.9540 H   0  0  0  0  0  0  0  0  0  0  0  0
  -24.1260  -36.7470   23.0430 C   0  0  0  0  0  1  0  0  0  0  0  0
  -25.3580  -36.3340   23.8650 C   0  0  0  0  0  3  0  0  0  0  0  0
  -27.4860  -37.2090   24.7250 C   0  0  0  0  0  1  0  0  0  0  0  0
  -26.3950  -37.3850   23.7690 N   0  0  0  0  0  0  0  0  0  0  0  0
  -25.9900  -38.3060   23.9150 H   0  0  0  0  0  0  0  0  0  0  0  0
  -30.9450  -19.8820   19.3070 C   0  0  0  0  0  2  0  0  0  0  0  0
  -30.5660  -18.6300   18.4880 C   0  0  0  0  0  2  0  0  0  0  0  0
  -30.7280  -17.2590   19.1830 C   0  0  0  0  0  2  0  0  0  0  0  0
  -29.8610  -16.9460   20.4450 C   0  0  0  0  0  3  0  0  0  0  0  0
  -30.6140  -14.4900   20.4760 C   0  0  0  0  0  0  0  0  0  0  0  0
  -30.3790  -12.3080   19.3860 C   0  0  0  0  0  2  0  0  0  0  0  0
  -29.4390  -12.5010   18.1750 C   0  0  0  0  0  2  0  0  0  0  0  0
  -27.9620  -12.3530   18.5970 C   0  0  0  0  0  2  0  0  0  0  0  0
  -27.6140  -13.1950   19.8520 C   0  0  0  0  0  3  0  0  0  0  0  0
  -28.6640  -12.9840   20.9680 C   0  0  0  0  0  2  0  0  0  0  0  0
  -29.9910  -13.2870   20.4080 N   0  0  0  0  0  0  0  0  0  0  0  0
  -31.7670  -14.6800   20.0780 O   0  0  0  0  0  0  0  0  0  0  0  0
  -29.7730  -15.5040   20.7560 N   0  0  0  0  0  0  0  0  0  0  0  0
  -28.9010  -15.1970   21.1580 H   0  0  0  0  0  0  0  0  0  0  0  0
  -25.2230  -13.8280   20.5550 C   0  0  0  0  0  0  0  0  0  0  0  0
  -24.1460  -13.0600   20.9110 C   0  0  0  0  0  0  0  0  0  0  0  0
  -24.5990  -11.7060   20.8830 C   0  0  0  0  0  0  0  0  0  0  0  0
  -26.2580  -12.9350   20.3240 N   0  0  0  0  0  0  0  0  0  0  0  0
  -25.8890  -11.6580   20.5830 N   0  0  0  0  0  0  0  0  0  0  0  0
  -23.8690  -10.4440   21.0690 C   0  0  0  0  0  0  0  0  0  0  0  0
  -24.3020   -9.4710   21.9960 C   0  0  0  0  0  3  0  0  0  0  0  0
  -23.5740   -8.2730   22.1700 C   0  0  0  0  0  3  0  0  0  0  0  0
  -22.4020   -8.0400   21.4130 C   0  0  0  0  0  0  0  0  0  0  0  0
  -21.9900   -9.0040   20.4750 C   0  0  0  0  0  3  0  0  0  0  0  0
  -22.7160  -10.1930   20.3010 C   0  0  0  0  0  3  0  0  0  0  0  0
  -21.6470   -6.8950   21.4930 O   0  0  0  0  0  0  0  0  0  0  0  0
  -21.6020   -6.1400   22.6390 C   0  0  0  0  0  0  0  0  0  0  0  0
  -21.1750   -6.6830   23.8700 C   0  0  0  0  0  3  0  0  0  0  0  0
  -21.0780   -5.8590   25.0080 C   0  0  0  0  0  3  0  0  0  0  0  0
  -21.3990   -4.4900   24.9160 C   0  0  0  0  0  0  0  0  0  0  0  0
  -21.8170   -3.9460   23.6880 C   0  0  0  0  0  3  0  0  0  0  0  0
  -21.9150   -4.7700   22.5520 C   0  0  0  0  0  0  0  0  0  0  0  0
  -22.3000   -4.2380   21.3670 F   0  0  0  0  0  0  0  0  0  0  0  0
  -21.2970   -3.6950   26.0060 F   0  0  0  0  0  0  0  0  0  0  0  0
  -22.7490  -13.5420   21.1810 C   0  0  0  0  0  0  0  0  0  0  0  0
  -22.0130  -12.8400   22.0370 N   0  0  0  0  0  0  0  0  0  0  0  0
  -22.3240  -14.5740   20.6670 O   0  0  0  0  0  0  0  0  0  0  0  0
  -22.3690  -12.0020   22.4700 H   0  0  0  0  0  0  0  0  0  0  0  0
  -21.0760  -13.1470   22.2600 H   0  0  0  0  0  0  0  0  0  0  0  0
  -25.4230  -15.1990   20.3950 N   0  0  0  0  0  0  0  0  0  0  0  0
  -24.5350  -15.5490   20.0440 H   0  0  0  0  0  0  0  0  0  0  0  0
  -25.4220  -15.5670   21.3420 H   0  0  0  0  0  0  0  0  0  0  0  0
  -28.4260  -17.5390   20.3810 C   0  0  0  0  0  2  0  0  0  0  0  0
  -27.5960  -16.9720   19.3000 N   0  0  0  0  0  4  0  0  0  0  0  0
  -28.1590  -16.6690   18.5270 H   0  0  0  0  0  0  0  0  0  0  0  0
  -26.9630  -17.6800   18.9700 H   0  0  0  0  0  0  0  0  0  0  0  0
  -27.0150  -16.2050   19.6230 H   0  0  0  0  0  0  0  0  0  0  0  0
  1  2  1  0
  1 49  1  0
  2  4  1  0
  3  2  1  0
  5  2  1  0
  5  6  1  0
  7  6  1  0
  7  8  1  0
  9 20  2  0
 10  8  1  0
 10 15  1  0
 11 19  1  0
 11 21  1  0
 12 18  1  0
 12 14  1  0
 13 19  1  0
 14 13  1  0
 15 14  2  0
 16 17  1  0
 16 10  2  0
 17 12  2  0
 18 11  1  0
 19  9  1  0
 21 23  2  0
 22 21  1  0
 24 22  1  0
 25 34  2  0
 25 30  1  0
 26 22  1  0
 26 30  1  0
 27 26  1  0
 28 29  1  0
 28 27  1  0
 29 25  1  0
 30 31  2  0
 31 32  1  0
 33 32  2  0
 34 33  1  0
 35  9  1  0
 35 40  1  0
 35 36  1  0
 36 39  1  1
 36 37  1  0
 38 36  1  0
 40 43  1  0
 41 45  1  0
 41 40  1  0
 42 41  2  0
 45 44  1  0
 47 45  1  0
 47 48  1  0
 47 46  1  0
 50 51  1  0
 50 49  1  0
 52 51  1  0
 52 61  1  0
 53 61  1  0
 54 59  1  0
 55 56  1  0
 55 54  1  0
 57 56  1  0
 57 66  1  0
 57 58  1  0
 59 53  1  0
 59 58  1  0
 60 53  2  0
 61 62  1  0
 63 64  2  0
 64 83  1  0
 65 64  1  0
 65 68  1  0
 66 63  1  0
 66 67  1  0
 67 65  2  0
 68 69  1  0
 69 70  2  0
 71 74  1  0
 71 70  1  0
 72 71  2  0
 73 72  1  0
 73 68  2  0
 74 75  1  0
 75 76  1  0
 76 77  2  0
 78 77  1  0
 78 82  1  0
 79 78  2  0
 80 75  2  0
 80 79  1  0
 81 80  1  0
 83 84  1  0
 84 87  1  0
 84 86  1  0
 85 83  2  0
 88 63  1  0
 88 90  1  0
 89 88  1  0
 91 52  1  0
 92 95  1  0
 92 91  1  0
 93 92  1  0
 94 92  1  0
M  ISO  4   7 101   8 101  53 100  61 100
M  END
>  <TORSDO>  (89) 
F 26

>  <SCORE>  (89) 
-12.067

>  <name>  (89) 
89

>  <ligand_id>  (89) 
89

>  <original_smiles>  (89) 
[H]c1c([H])c([H])c2c(c1[H])C([H])([H])C([H])([H])C([H])([H])C2([H])N([H])C(=O)C1([H])N(C(=O)C([H])(N([H])C(=O)C([H])(N([H])C([H])([H])[H])C([H])([H])[H])C(C([H])([H])[H])(C([H])([H])[H])C([H])([H])[H])C([H])([H])c2c([H])c(OC([H])([H])C([H])([H])C([H])([H])[N+]([H])([H])C([H])([H])C([H])([H])C([H])([H])C([H])([H])C([H])(N([H])C(=O)N3C([H])([H])C([H])([H])C([H])([H])C([H])(n4nc(-c5c([H])c([H])c(Oc6c([H])c([H])c(F)c([H])c6F)c([H])c5[H])c(C(=O)N([H])[H])c4N([H])[H])C3([H])[H])C([H])([H])[N+]([H])([H])[H])c([H])c([H])c2C1([H])[H]

>  <smiles>  (89) 
[H]c1c([H])c([H])c2c(c1[H])C([H])([H])C([H])([H])C([H])([H])C2([H])N([H])C(=O)C1([H])N(C(=O)C([H])(N([H])C(=O)C([H])(N([H])C([H])([H])[H])C([H])([H])[H])C(C([H])([H])[H])(C([H])([H])[H])C([H])([H])[H])C([H])([H])c2c([H])c(OC([H])([H])C([H])([H])C([H])([H])[N+]([H])([H])C([H])([H])C([H])([H])C([H])([H])C([H])([H])C([H])(N([H])C(=O)N3C([H])([H])C([H])([H])C([H])([H])C([H])(n4nc(-c5c([H])c([H])c(Oc6c([H])c([H])c(F)c([H])c6F)c([H])c5[H])c(C(=O)N([H])[H])c4N([H])[H])C3([H])[H])C([H])([H])[N+]([H])([H])[H])c([H])c([H])c2C1([H])[H]

$$$$
90:0:0
     RDKit          3D

 93102  0  0  1  0  0  0  0  0999 V2000
  -31.0320  -15.7190   20.5660 C   0  0  0  0  0  0  0  0  0  0  0  0
  -30.8460  -13.4090   19.4100 C   0  0  0  0  0  2  0  0  0  0  0  0
  -29.9540  -13.4070   18.1460 C   0  0  0  0  0  2  0  0  0  0  0  0
  -28.4930  -13.1360   18.5340 C   0  0  0  0  0  2  0  0  0  0  0  0
  -28.0580  -13.9700   19.7660 C   0  0  0  0  0  3  0  0  0  0  0  0
  -29.0920  -13.9690   20.9140 C   0  0  0  0  0  2  0  0  0  0  0  0
  -30.3510  -14.4840   20.3510 N   0  0  0  0  0  0  0  0  0  0  0  0
  -32.2440  -15.6050   20.3240 O   0  0  0  0  0  0  0  0  0  0  0  0
  -30.8430  -19.3020   22.2870 C   0  0  0  0  0  2  0  0  0  0  0  0
  -31.3810  -17.8380   21.9580 C   0  0  0  0  0  2  0  0  0  0  0  0
  -29.7630  -18.3750   20.4730 C   0  0  0  0  0  3  0  0  0  0  0  0
  -30.2390  -19.9580   21.0280 C   0  0  0  0  0  3  0  0  0  0  0  0
  -30.5160  -17.0490   21.0290 N   0  0  0  0  0  0  0  0  0  0  0  0
  -30.6900  -17.8850   16.7770 C   0  0  0  0  0  3  0  0  0  0  0  0
  -29.4760  -18.1490   16.1180 C   0  0  0  0  0  3  0  0  0  0  0  0
  -30.7640  -17.9920   18.1790 C   0  0  0  0  0  3  0  0  0  0  0  0
  -28.3450  -18.5170   16.8660 C   0  0  0  0  0  3  0  0  0  0  0  0
  -29.6250  -18.3330   18.9480 C   0  0  0  0  0  0  0  0  0  0  0  0
  -28.4000  -18.6120   18.2740 C   0  0  0  0  0  0  0  0  0  0  0  0
  -27.1230  -19.0330   18.9920 C   0  0  0  0  0  1  0  0  0  0  0  0
  -25.6560  -14.4920   20.4280 C   0  0  0  0  0  0  0  0  0  0  0  0
  -24.5900  -13.7010   20.7510 C   0  0  0  0  0  0  0  0  0  0  0  0
  -25.0730  -12.3570   20.7360 C   0  0  0  0  0  0  0  0  0  0  0  0
  -26.7170  -13.6310   20.2240 N   0  0  0  0  0  0  0  0  0  0  0  0
  -26.3770  -12.3400   20.4800 N   0  0  0  0  0  0  0  0  0  0  0  0
  -24.3530  -11.0860   20.8910 C   0  0  0  0  0  0  0  0  0  0  0  0
  -24.7430  -10.1260   21.8500 C   0  0  0  0  0  3  0  0  0  0  0  0
  -24.0200   -8.9220   21.9960 C   0  0  0  0  0  3  0  0  0  0  0  0
  -22.8900   -8.6700   21.1830 C   0  0  0  0  0  0  0  0  0  0  0  0
  -22.5190   -9.6180   20.2140 C   0  0  0  0  0  3  0  0  0  0  0  0
  -23.2430  -10.8120   20.0660 C   0  0  0  0  0  3  0  0  0  0  0  0
  -22.1420   -7.5180   21.2390 O   0  0  0  0  0  0  0  0  0  0  0  0
  -21.9530   -6.8360   22.4140 C   0  0  0  0  0  0  0  0  0  0  0  0
  -21.3730   -7.4470   23.5460 C   0  0  0  0  0  3  0  0  0  0  0  0
  -21.1370   -6.6890   24.7120 C   0  0  0  0  0  3  0  0  0  0  0  0
  -21.4680   -5.3210   24.7420 C   0  0  0  0  0  0  0  0  0  0  0  0
  -22.0410   -4.7100   23.6130 C   0  0  0  0  0  3  0  0  0  0  0  0
  -22.2800   -5.4650   22.4520 C   0  0  0  0  0  0  0  0  0  0  0  0
  -22.8120   -4.8660   21.3590 F   0  0  0  0  0  0  0  0  0  0  0  0
  -21.2340   -4.5920   25.8570 F   0  0  0  0  0  0  0  0  0  0  0  0
  -23.1780  -14.1630   20.9590 C   0  0  0  0  0  0  0  0  0  0  0  0
  -22.4430  -13.5130   21.8570 N   0  0  0  0  0  0  0  0  0  0  0  0
  -22.7310  -15.1370   20.3550 O   0  0  0  0  0  0  0  0  0  0  0  0
  -22.8180  -12.7310   22.3720 H   0  0  0  0  0  0  0  0  0  0  0  0
  -21.4930  -13.8070   22.0320 H   0  0  0  0  0  0  0  0  0  0  0  0
  -25.8180  -15.8630   20.2630 N   0  0  0  0  0  0  0  0  0  0  0  0
  -25.0520  -16.5200   20.3580 H   0  0  0  0  0  0  0  0  0  0  0  0
  -26.6820  -16.2950   19.9650 H   0  0  0  0  0  0  0  0  0  0  0  0
  -29.3390  -21.4580   21.2610 C   0  0  0  0  0  0  0  0  0  0  0  0
  -28.2830  -21.3040   21.8770 O   0  0  0  0  0  0  0  0  0  0  0  0
  -29.6380  -23.1310   20.8160 C   0  0  0  0  0  3  0  0  0  0  0  0
  -28.5460  -24.5560   20.5450 C   0  0  0  0  0  3  0  0  0  0  0  0
  -28.7260  -26.1870   20.2980 O   0  0  0  0  0  0  0  0  0  0  0  0
  -24.7930  -31.9210   23.2960 C   0  0  0  0  0  0  0  0  0  0  0  0
  -27.6630  -27.2390   20.2420 C   0  0  0  0  0  0  0  0  0  0  0  0
  -23.7160  -30.5140   21.5890 C   0  0  0  0  0  3  0  0  0  0  0  0
  -25.2800  -29.0130   20.1740 C   0  0  0  0  0  0  0  0  0  0  0  0
  -26.2730  -30.8460   21.5230 C   0  0  0  0  0  2  0  0  0  0  0  0
  -26.4290  -29.4560   20.8380 C   0  0  0  0  0  0  0  0  0  0  0  0
  -27.6150  -28.5910   20.8480 C   0  0  0  0  0  3  0  0  0  0  0  0
  -26.4730  -26.9450   19.5400 C   0  0  0  0  0  3  0  0  0  0  0  0
  -25.3240  -27.7780   19.5070 C   0  0  0  0  0  3  0  0  0  0  0  0
  -24.0180  -29.8750   20.2040 C   0  0  0  0  0  2  0  0  0  0  0  0
  -24.9470  -31.1210   22.1910 N   0  0  0  0  0  0  0  0  0  0  0  0
  -23.6740  -32.1450   23.7890 O   0  0  0  0  0  0  0  0  0  0  0  0
  -23.0400  -29.4620   22.5080 C   0  0  0  0  0  0  0  0  0  0  0  0
  -21.7470  -29.1720   22.2740 N   0  0  0  0  0  0  0  0  0  0  0  0
  -23.6890  -28.9110   23.3980 O   0  0  0  0  0  0  0  0  0  0  0  0
  -21.2740  -29.6710   21.5340 H   0  0  0  0  0  0  0  0  0  0  0  0
  -18.4140  -27.7950   22.6680 C   0  0  0  0  0  0  0  0  0  0  0  0
  -20.9540  -28.1650   22.9870 C   0  0  0  0  0  3  0  0  0  0  0  0
  -21.1300  -26.7670   22.3480 C   0  0  0  0  0  2  0  0  0  0  0  0
  -20.0590  -26.4430   21.3020 C   0  0  0  0  0  2  0  0  0  0  0  0
  -18.6630  -26.4910   21.9280 C   0  0  0  0  0  2  0  0  0  0  0  0
  -19.4880  -28.5890   23.1500 C   0  0  0  0  0  0  0  0  0  0  0  0
  -19.2000  -29.8050   23.8050 C   0  0  0  0  0  3  0  0  0  0  0  0
  -17.8690  -30.2320   23.9790 C   0  0  0  0  0  3  0  0  0  0  0  0
  -16.8100  -29.4370   23.5100 C   0  0  0  0  0  3  0  0  0  0  0  0
  -17.0810  -28.2190   22.8610 C   0  0  0  0  0  3  0  0  0  0  0  0
  -26.0100  -32.6050   23.9850 C   0  0  0  0  0  3  0  0  0  0  0  0
  -26.4500  -31.8840   25.3200 C   0  0  1  0  0  0  0  0  0  0  0  0
  -25.2690  -31.5320   26.2560 C   0  0  0  0  0  1  0  0  0  0  0  0
  -27.2090  -30.5730   25.0130 C   0  0  0  0  0  1  0  0  0  0  0  0
  -27.4350  -32.7850   26.1000 C   0  0  0  0  0  1  0  0  0  0  0  0
  -25.6490  -34.0070   24.2640 N   0  0  0  0  0  0  0  0  0  0  0  0
  -25.9680  -35.0510   23.4870 C   0  0  0  0  0  0  0  0  0  0  0  0
  -26.6560  -34.9380   22.4710 O   0  0  0  0  0  0  0  0  0  0  0  0
  -25.0350  -34.1640   25.0480 H   0  0  0  0  0  0  0  0  0  0  0  0
  -24.1920  -36.7870   23.0700 C   0  0  0  0  0  1  0  0  0  0  0  0
  -25.4380  -36.4410   23.9000 C   0  0  0  0  0  3  0  0  0  0  0  0
  -27.5440  -37.4110   24.7110 C   0  0  0  0  0  1  0  0  0  0  0  0
  -26.4410  -37.5200   23.7590 N   0  0  0  0  0  0  0  0  0  0  0  0
  -26.0100  -38.4330   23.8780 H   0  0  0  0  0  0  0  0  0  0  0  0
  1 13  1  0
  2  7  1  0
  3  4  1  0
  3  2  1  0
  5  4  1  0
  5 24  1  0
  5  6  1  0
  7  1  1  0
  7  6  1  0
  8  1  2  0
 10  9  1  0
 11 18  1  0
 11 12  1  0
 11 13  1  0
 12 49  1  0
 12  9  1  0
 13 10  1  0
 14 16  1  0
 15 14  2  0
 15 17  1  0
 16 18  2  0
 17 19  2  0
 19 18  1  0
 19 20  1  0
 21 22  2  0
 22 41  1  0
 23 22  1  0
 23 26  1  0
 24 21  1  0
 24 25  1  0
 25 23  2  0
 26 27  1  0
 27 28  2  0
 29 32  1  0
 29 28  1  0
 30 29  2  0
 31 30  1  0
 31 26  2  0
 32 33  1  0
 33 38  2  0
 33 34  1  0
 34 35  2  0
 35 36  1  0
 36 40  1  0
 37 36  2  0
 38 37  1  0
 39 38  1  0
 41 42  1  0
 42 45  1  0
 42 44  1  0
 43 41  2  0
 46 47  1  0
 46 21  1  0
 48 46  1  0
 49 50  2  0
 51 49  1  0
 52 51  2  0
 53 52  1  0
 54 65  2  0
 55 53  1  0
 55 60  1  0
 56 64  1  0
 56 66  1  0
 57 63  1  0
 57 59  1  0
 58 64  1  0
 59 60  2  0
 59 58  1  0
 61 55  2  0
 62 61  1  0
 62 57  2  0
 63 56  1  0
 64 54  1  0
 66 68  2  0
 67 66  1  0
 69 67  1  0
 70 79  2  0
 70 75  1  0
 71 67  1  0
 71 75  1  0
 72 71  1  0
 73 74  1  0
 73 72  1  0
 74 70  1  0
 75 76  2  0
 76 77  1  0
 78 77  2  0
 79 78  1  0
 80 54  1  0
 80 85  1  0
 80 81  1  0
 81 84  1  1
 81 82  1  0
 83 81  1  0
 85 88  1  0
 86 90  1  0
 86 85  1  0
 87 86  2  0
 90 89  1  0
 92 93  1  0
 92 90  1  0
 92 91  1  0
M  ISO  4   1 100  13 100  52 101  53 101
M  END
>  <TORSDO>  (90) 
F 19

>  <SCORE>  (90) 
-14.893

>  <name>  (90) 
90

>  <ligand_id>  (90) 
90

>  <original_smiles>  (90) 
[H]c1c([H])c([H])c(C2([H])N(C(=O)N3C([H])([H])C([H])([H])C([H])([H])C([H])(n4nc(-c5c([H])c([H])c(Oc6c([H])c([H])c(F)c([H])c6F)c([H])c5[H])c(C(=O)N([H])[H])c4N([H])[H])C3([H])[H])C([H])([H])C([H])([H])C2([H])C(=O)C([H])([H])C([H])([H])Oc2c([H])c([H])c3c(c2[H])C([H])([H])N(C(=O)C([H])(N([H])C(=O)C([H])(N([H])C([H])([H])[H])C([H])([H])[H])C(C([H])([H])[H])(C([H])([H])[H])C([H])([H])[H])C([H])(C(=O)N([H])C2([H])c4c([H])c([H])c([H])c([H])c4C([H])([H])C([H])([H])C2([H])[H])C3([H])[H])c(C([H])([H])[H])c1[H]

>  <smiles>  (90) 
[H]c1c([H])c([H])c(C2([H])N(C(=O)N3C([H])([H])C([H])([H])C([H])([H])C([H])(n4nc(-c5c([H])c([H])c(Oc6c([H])c([H])c(F)c([H])c6F)c([H])c5[H])c(C(=O)N([H])[H])c4N([H])[H])C3([H])[H])C([H])([H])C([H])([H])C2([H])C(=O)C([H])([H])C([H])([H])Oc2c([H])c([H])c3c(c2[H])C([H])([H])N(C(=O)C([H])(N([H])C(=O)C([H])(N([H])C([H])([H])[H])C([H])([H])[H])C(C([H])([H])[H])(C([H])([H])[H])C([H])([H])[H])C([H])(C(=O)N([H])C2([H])c4c([H])c([H])c([H])c([H])c4C([H])([H])C([H])([H])C2([H])[H])C3([H])[H])c(C([H])([H])[H])c1[H]

$$$$
91:0:0
     RDKit          3D

 98106  0  0  1  0  0  0  0  0999 V2000
  -30.5740  -21.4400   15.3830 C   0  0  0  0  0  2  0  0  0  0  0  0
  -30.7900  -19.9180   15.4020 C   0  0  0  0  0  2  0  0  0  0  0  0
  -30.8180  -20.7650   17.6820 C   0  0  0  0  0  2  0  0  0  0  0  0
  -31.0270  -21.9830   16.7470 C   0  0  0  0  0  3  0  0  0  0  0  0
  -31.1820  -19.5080   16.8450 C   0  0  0  0  0  3  0  0  0  0  0  0
  -30.3010  -23.3190   17.1090 C   0  0  0  0  0  2  0  0  0  0  0  0
  -30.8360  -24.1030   18.3400 C   0  0  0  0  0  2  0  0  0  0  0  0
  -30.3100  -25.5010   18.4490 N   0  0  0  0  0  4  0  0  0  0  0  0
  -29.3050  -25.4880   18.3590 H   0  0  0  0  0  0  0  0  0  0  0  0
  -30.6750  -26.0570   17.6890 H   0  0  0  0  0  0  0  0  0  0  0  0
  -30.6150  -26.1940   19.7350 C   0  0  0  0  0  2  0  0  0  0  0  0
  -29.6190  -27.3390   20.0600 C   0  0  0  0  0  2  0  0  0  0  0  0
  -28.3080  -26.7910   20.0060 O   0  0  0  0  0  0  0  0  0  0  0  0
  -24.5220  -31.9620   23.3050 C   0  0  0  0  0  0  0  0  0  0  0  0
  -27.1970  -27.6010   20.1170 C   0  0  0  0  0  0  0  0  0  0  0  0
  -23.3130  -30.5720   21.6550 C   0  0  0  0  0  3  0  0  0  0  0  0
  -24.7720  -29.0610   20.2090 C   0  0  0  0  0  0  0  0  0  0  0  0
  -25.8330  -30.9550   21.4390 C   0  0  0  0  0  2  0  0  0  0  0  0
  -25.9350  -29.5940   20.7800 C   0  0  0  0  0  0  0  0  0  0  0  0
  -27.1550  -28.8780   20.7330 C   0  0  0  0  0  3  0  0  0  0  0  0
  -26.0090  -27.0710   19.5740 C   0  0  0  0  0  3  0  0  0  0  0  0
  -24.8010  -27.7910   19.6130 C   0  0  0  0  0  3  0  0  0  0  0  0
  -23.5200  -29.9090   20.2690 C   0  0  0  0  0  2  0  0  0  0  0  0
  -24.5750  -31.1770   22.1910 N   0  0  0  0  0  0  0  0  0  0  0  0
  -23.4440  -32.2210   23.8560 O   0  0  0  0  0  0  0  0  0  0  0  0
  -22.6740  -29.5360   22.6080 C   0  0  0  0  0  0  0  0  0  0  0  0
  -21.3510  -29.3410   22.4820 N   0  0  0  0  0  0  0  0  0  0  0  0
  -23.3670  -28.9090   23.4140 O   0  0  0  0  0  0  0  0  0  0  0  0
  -20.8510  -29.9030   21.8060 H   0  0  0  0  0  0  0  0  0  0  0  0
  -17.9940  -28.0910   22.9560 C   0  0  0  0  0  0  0  0  0  0  0  0
  -20.5460  -28.3860   23.2430 C   0  0  0  0  0  3  0  0  0  0  0  0
  -20.6730  -26.9590   22.6640 C   0  0  0  0  0  2  0  0  0  0  0  0
  -19.5830  -26.6230   21.6420 C   0  0  0  0  0  2  0  0  0  0  0  0
  -18.1950  -26.7460   22.2770 C   0  0  0  0  0  2  0  0  0  0  0  0
  -19.0990  -28.8680   23.3950 C   0  0  0  0  0  0  0  0  0  0  0  0
  -18.8590  -30.1260   23.9890 C   0  0  0  0  0  3  0  0  0  0  0  0
  -17.5460  -30.6090   24.1480 C   0  0  0  0  0  3  0  0  0  0  0  0
  -16.4550  -29.8290   23.7250 C   0  0  0  0  0  3  0  0  0  0  0  0
  -16.6800  -28.5730   23.1360 C   0  0  0  0  0  3  0  0  0  0  0  0
  -25.8070  -32.5950   23.9220 C   0  0  0  0  0  3  0  0  0  0  0  0
  -26.3210  -31.8340   25.2060 C   0  0  1  0  0  0  0  0  0  0  0  0
  -25.2270  -31.6130   26.2740 C   0  0  0  0  0  1  0  0  0  0  0  0
  -26.8990  -30.4510   24.8290 C   0  0  0  0  0  1  0  0  0  0  0  0
  -27.4710  -32.6340   25.8650 C   0  0  0  0  0  1  0  0  0  0  0  0
  -25.5060  -33.9970   24.2340 N   0  0  0  0  0  0  0  0  0  0  0  0
  -25.8670  -35.0410   23.4740 C   0  0  0  0  0  0  0  0  0  0  0  0
  -26.5620  -34.9230   22.4590 O   0  0  0  0  0  0  0  0  0  0  0  0
  -24.8900  -34.1650   25.0150 H   0  0  0  0  0  0  0  0  0  0  0  0
  -24.1770  -36.8540   23.0460 C   0  0  0  0  0  1  0  0  0  0  0  0
  -25.3810  -36.4360   23.9070 C   0  0  0  0  0  3  0  0  0  0  0  0
  -27.4970  -37.2900   24.8140 C   0  0  0  0  0  1  0  0  0  0  0  0
  -26.4300  -37.4760   23.8330 N   0  0  0  0  0  0  0  0  0  0  0  0
  -26.0320  -38.4010   23.9730 H   0  0  0  0  0  0  0  0  0  0  0  0
  -30.5340  -18.1450   17.2910 C   0  0  0  0  0  3  0  0  0  0  0  0
  -30.9950  -17.0750   16.3820 N   0  0  0  0  0  4  0  0  0  0  0  0
  -31.8380  -16.6420   16.7170 H   0  0  0  0  0  0  0  0  0  0  0  0
  -31.1870  -17.4580   15.4750 H   0  0  0  0  0  0  0  0  0  0  0  0
  -30.2860  -16.3710   16.2700 H   0  0  0  0  0  0  0  0  0  0  0  0
  -30.7410  -17.7010   18.7860 C   0  0  0  0  0  2  0  0  0  0  0  0
  -29.7750  -16.5500   19.2180 C   0  0  0  0  0  2  0  0  0  0  0  0
  -30.8340  -14.8930   20.7180 C   0  0  0  0  0  0  0  0  0  0  0  0
  -30.7150  -12.6010   19.9150 C   0  0  0  0  0  2  0  0  0  0  0  0
  -29.8790  -12.6340   18.6190 C   0  0  0  0  0  2  0  0  0  0  0  0
  -28.3760  -12.5160   18.9330 C   0  0  0  0  0  2  0  0  0  0  0  0
  -27.9000  -13.4540   20.0730 C   0  0  0  0  0  3  0  0  0  0  0  0
  -28.8730  -13.4020   21.2810 C   0  0  0  0  0  2  0  0  0  0  0  0
  -30.2330  -13.6770   20.7900 N   0  0  0  0  0  0  0  0  0  0  0  0
  -32.0230  -15.0530   20.4490 O   0  0  0  0  0  0  0  0  0  0  0  0
  -29.9640  -15.9020   20.5370 N   0  0  0  0  0  0  0  0  0  0  0  0
  -29.0940  -15.7320   21.0180 H   0  0  0  0  0  0  0  0  0  0  0  0
  -25.4510  -14.0450   20.5970 C   0  0  0  0  0  0  0  0  0  0  0  0
  -24.3710  -13.2630   20.9020 C   0  0  0  0  0  0  0  0  0  0  0  0
  -24.8530  -11.9170   20.9320 C   0  0  0  0  0  0  0  0  0  0  0  0
  -26.5230  -13.1740   20.4640 N   0  0  0  0  0  0  0  0  0  0  0  0
  -26.1620  -11.8920   20.7240 N   0  0  0  0  0  0  0  0  0  0  0  0
  -24.1360  -10.6460   21.0970 C   0  0  0  0  0  0  0  0  0  0  0  0
  -24.5070   -9.7090   22.0840 C   0  0  0  0  0  3  0  0  0  0  0  0
  -23.7960   -8.4990   22.2300 C   0  0  0  0  0  3  0  0  0  0  0  0
  -22.6960   -8.2210   21.3870 C   0  0  0  0  0  0  0  0  0  0  0  0
  -22.3450   -9.1440   20.3880 C   0  0  0  0  0  3  0  0  0  0  0  0
  -23.0580  -10.3440   20.2410 C   0  0  0  0  0  3  0  0  0  0  0  0
  -21.9620   -7.0590   21.4370 O   0  0  0  0  0  0  0  0  0  0  0  0
  -21.8130   -6.3550   22.6030 C   0  0  0  0  0  0  0  0  0  0  0  0
  -21.2270   -6.9290   23.7510 C   0  0  0  0  0  3  0  0  0  0  0  0
  -21.0360   -6.1500   24.9100 C   0  0  0  0  0  3  0  0  0  0  0  0
  -21.4090   -4.7950   24.9180 C   0  0  0  0  0  0  0  0  0  0  0  0
  -21.9850   -4.2160   23.7740 C   0  0  0  0  0  3  0  0  0  0  0  0
  -22.1860   -4.9930   22.6190 C   0  0  0  0  0  0  0  0  0  0  0  0
  -22.7240   -4.4300   21.5130 F   0  0  0  0  0  0  0  0  0  0  0  0
  -21.2100   -4.0460   26.0290 F   0  0  0  0  0  0  0  0  0  0  0  0
  -22.9520  -13.7190   21.0640 C   0  0  0  0  0  0  0  0  0  0  0  0
  -22.1800  -13.0230   21.8910 N   0  0  0  0  0  0  0  0  0  0  0  0
  -22.5350  -14.7260   20.4970 O   0  0  0  0  0  0  0  0  0  0  0  0
  -22.5380  -12.2060   22.3650 H   0  0  0  0  0  0  0  0  0  0  0  0
  -21.2230  -13.3090   22.0460 H   0  0  0  0  0  0  0  0  0  0  0  0
  -25.6000  -15.4140   20.4060 N   0  0  0  0  0  0  0  0  0  0  0  0
  -24.8060  -16.0450   20.4380 H   0  0  0  0  0  0  0  0  0  0  0  0
  -26.4560  -15.8820   20.1300 H   0  0  0  0  0  0  0  0  0  0  0  0
  1  2  1  0
  1  4  1  0
  2  5  1  0
  4  6  1  0
  4  3  1  0
  5 54  1  0
  5  3  1  0
  6  7  1  0
  7  8  1  0
  8 11  1  0
  9  8  1  0
 10  8  1  0
 11 12  1  0
 13 12  1  0
 13 15  1  0
 14 25  2  0
 15 20  1  0
 16 24  1  0
 16 26  1  0
 17 23  1  0
 17 19  1  0
 18 24  1  0
 19 18  1  0
 20 19  2  0
 21 22  1  0
 21 15  2  0
 22 17  2  0
 23 16  1  0
 24 14  1  0
 26 28  2  0
 27 26  1  0
 29 27  1  0
 30 39  2  0
 30 35  1  0
 31 27  1  0
 31 35  1  0
 32 31  1  0
 33 34  1  0
 33 32  1  0
 34 30  1  0
 35 36  2  0
 36 37  1  0
 38 37  2  0
 39 38  1  0
 40 14  1  0
 40 45  1  0
 40 41  1  0
 41 44  1  1
 41 42  1  0
 43 41  1  0
 45 48  1  0
 46 50  1  0
 46 45  1  0
 47 46  2  0
 50 49  1  0
 52 50  1  0
 52 53  1  0
 52 51  1  0
 54 59  1  0
 55 56  1  0
 55 54  1  0
 57 55  1  0
 58 55  1  0
 59 60  1  0
 60 69  1  0
 61 67  1  0
 62 67  1  0
 63 64  1  0
 63 62  1  0
 65 64  1  0
 65 74  1  0
 65 66  1  0
 67 66  1  0
 68 61  2  0
 69 61  1  0
 69 70  1  0
 71 72  2  0
 72 73  1  0
 72 91  1  0
 73 76  1  0
 74 71  1  0
 74 75  1  0
 75 73  2  0
 76 77  1  0
 77 78  2  0
 79 82  1  0
 79 78  1  0
 80 79  2  0
 81 80  1  0
 81 76  2  0
 82 83  1  0
 83 88  2  0
 83 84  1  0
 84 85  2  0
 85 86  1  0
 86 90  1  0
 87 86  2  0
 88 87  1  0
 89 88  1  0
 91 92  1  0
 92 95  1  0
 92 94  1  0
 93 91  2  0
 96 97  1  0
 96 71  1  0
 98 96  1  0
M  ISO  4  12 101  13 101  61 100  69 100
M  END
>  <TORSDO>  (91) 
F 25

>  <SCORE>  (91) 
-11.720

>  <name>  (91) 
91

>  <ligand_id>  (91) 
91

>  <original_smiles>  (91) 
[H]c1c([H])c([H])c2c(c1[H])C([H])([H])C([H])([H])C([H])([H])C2([H])N([H])C(=O)C1([H])N(C(=O)C([H])(N([H])C(=O)C([H])(N([H])C([H])([H])[H])C([H])([H])[H])C(C([H])([H])[H])(C([H])([H])[H])C([H])([H])[H])C([H])([H])c2c([H])c(OC([H])([H])C([H])([H])[N+]([H])([H])C([H])([H])C([H])([H])C3([H])C([H])([H])C([H])([H])C([H])(C([H])(C([H])([H])C([H])([H])N([H])C(=O)N4C([H])([H])C([H])([H])C([H])([H])C([H])(n5nc(-c6c([H])c([H])c(Oc7c([H])c([H])c(F)c([H])c7F)c([H])c6[H])c(C(=O)N([H])[H])c5N([H])[H])C4([H])[H])[N+]([H])([H])[H])C3([H])[H])c([H])c([H])c2C1([H])[H]

>  <smiles>  (91) 
[H]c1c([H])c([H])c2c(c1[H])C([H])([H])C([H])([H])C([H])([H])C2([H])N([H])C(=O)C1([H])N(C(=O)C([H])(N([H])C(=O)C([H])(N([H])C([H])([H])[H])C([H])([H])[H])C(C([H])([H])[H])(C([H])([H])[H])C([H])([H])[H])C([H])([H])c2c([H])c(OC([H])([H])C([H])([H])[N+]([H])([H])C([H])([H])C([H])([H])C3([H])C([H])([H])C([H])([H])C([H])(C([H])(C([H])([H])C([H])([H])N([H])C(=O)N4C([H])([H])C([H])([H])C([H])([H])C([H])(n5nc(-c6c([H])c([H])c(Oc7c([H])c([H])c(F)c([H])c7F)c([H])c6[H])c(C(=O)N([H])[H])c5N([H])[H])C4([H])[H])[N+]([H])([H])[H])C3([H])[H])c([H])c([H])c2C1([H])[H]

$$$$
92:0:0
     RDKit          3D

 93102  0  0  1  0  0  0  0  0999 V2000
  -27.7900  -20.3790   20.9310 C   0  0  0  0  0  3  0  0  0  0  0  0
  -28.4440  -19.1320   20.8140 C   0  0  0  0  0  3  0  0  0  0  0  0
  -29.8950  -20.0130   19.0390 C   0  0  0  0  0  3  0  0  0  0  0  0
  -28.2130  -21.4250   20.0960 C   0  0  0  0  0  0  0  0  0  0  0  0
  -29.2400  -21.2530   19.1740 C   0  0  0  0  0  0  0  0  0  0  0  0
  -29.4870  -18.9390   19.8700 C   0  0  0  0  0  0  0  0  0  0  0  0
  -27.7010  -22.7940   20.0140 C   0  0  0  0  0  0  0  0  0  0  0  0
  -29.5120  -22.5300   18.4060 C   0  0  0  0  0  2  0  0  0  0  0  0
  -28.6470  -23.6150   19.1170 C   0  0  0  0  0  3  0  0  0  0  0  0
  -26.6890  -23.2420   20.5610 O   0  0  0  0  0  0  0  0  0  0  0  0
  -30.0870  -17.5480   19.7020 C   0  0  0  0  0  2  0  0  0  0  0  0
  -30.9030  -17.0230   20.9110 C   0  0  0  0  0  2  0  0  0  0  0  0
  -31.2450  -14.6270   20.2060 C   0  0  0  0  0  0  0  0  0  0  0  0
  -30.7540  -12.4640   19.1020 C   0  0  0  0  0  2  0  0  0  0  0  0
  -29.8510  -12.6650   17.8610 C   0  0  0  0  0  2  0  0  0  0  0  0
  -28.3820  -13.0030   18.2040 C   0  0  0  0  0  2  0  0  0  0  0  0
  -28.1040  -12.9210   19.7050 C   0  0  0  0  0  3  0  0  0  0  0  0
  -29.1320  -13.4120   20.7150 C   0  0  0  0  0  2  0  0  0  0  0  0
  -30.4690  -13.5150   20.0960 N   0  0  0  0  0  0  0  0  0  0  0  0
  -32.2740  -14.8090   19.5590 O   0  0  0  0  0  0  0  0  0  0  0  0
  -30.7600  -15.5700   21.0300 N   0  0  0  0  0  0  0  0  0  0  0  0
  -29.9690  -15.2670   21.5760 H   0  0  0  0  0  0  0  0  0  0  0  0
  -25.7580  -14.0150   20.3490 C   0  0  0  0  0  0  0  0  0  0  0  0
  -24.6250  -13.3390   20.7440 C   0  0  0  0  0  0  0  0  0  0  0  0
  -24.9690  -11.9570   20.7190 C   0  0  0  0  0  0  0  0  0  0  0  0
  -26.7140  -13.0110   20.1340 N   0  0  0  0  0  0  0  0  0  0  0  0
  -26.2170  -11.7970   20.3960 N   0  0  0  0  0  0  0  0  0  0  0  0
  -24.2070  -10.7350   20.9210 C   0  0  0  0  0  0  0  0  0  0  0  0
  -24.6100   -9.7860   21.8840 C   0  0  0  0  0  3  0  0  0  0  0  0
  -23.8760   -8.5980   22.0550 C   0  0  0  0  0  3  0  0  0  0  0  0
  -22.7290   -8.3620   21.2620 C   0  0  0  0  0  0  0  0  0  0  0  0
  -22.3570   -9.2980   20.2820 C   0  0  0  0  0  3  0  0  0  0  0  0
  -23.0940  -10.4750   20.1050 C   0  0  0  0  0  3  0  0  0  0  0  0
  -21.9570   -7.2310   21.3470 O   0  0  0  0  0  0  0  0  0  0  0  0
  -21.8000   -6.5610   22.5320 C   0  0  0  0  0  0  0  0  0  0  0  0
  -21.2340   -7.1790   23.6680 C   0  0  0  0  0  3  0  0  0  0  0  0
  -21.0290   -6.4340   24.8450 C   0  0  0  0  0  3  0  0  0  0  0  0
  -21.3770   -5.0700   24.8840 C   0  0  0  0  0  0  0  0  0  0  0  0
  -21.9340   -4.4510   23.7520 C   0  0  0  0  0  3  0  0  0  0  0  0
  -22.1450   -5.1960   22.5780 C   0  0  0  0  0  0  0  0  0  0  0  0
  -22.6650   -4.5940   21.4800 F   0  0  0  0  0  0  0  0  0  0  0  0
  -21.1680   -4.3510   26.0110 F   0  0  0  0  0  0  0  0  0  0  0  0
  -23.2630  -13.8950   21.0540 C   0  0  0  0  0  0  0  0  0  0  0  0
  -22.5260  -13.2300   21.9380 N   0  0  0  0  0  0  0  0  0  0  0  0
  -22.8590  -14.9400   20.5450 O   0  0  0  0  0  0  0  0  0  0  0  0
  -22.8680  -12.3870   22.3790 H   0  0  0  0  0  0  0  0  0  0  0  0
  -21.6110  -13.5790   22.1880 H   0  0  0  0  0  0  0  0  0  0  0  0
  -26.0360  -15.3670   20.1640 N   0  0  0  0  0  0  0  0  0  0  0  0
  -26.9360  -15.7260   19.8720 H   0  0  0  0  0  0  0  0  0  0  0  0
  -25.3300  -16.0870   20.2600 H   0  0  0  0  0  0  0  0  0  0  0  0
  -29.5270  -24.5890   19.9440 C   0  0  0  0  0  2  0  0  0  0  0  0
  -28.7920  -25.7030   20.7170 C   0  0  0  0  0  2  0  0  0  0  0  0
  -28.7100  -26.8890   19.9340 O   0  0  0  0  0  0  0  0  0  0  0  0
  -24.6380  -31.7560   23.1630 C   0  0  0  0  0  0  0  0  0  0  0  0
  -27.5040  -27.5400   19.9950 C   0  0  0  0  0  0  0  0  0  0  0  0
  -23.5100  -30.3540   21.4660 C   0  0  0  0  0  3  0  0  0  0  0  0
  -25.0450  -28.9150   20.0240 C   0  0  0  0  0  0  0  0  0  0  0  0
  -26.0150  -30.8310   21.3040 C   0  0  0  0  0  2  0  0  0  0  0  0
  -26.1690  -29.4810   20.6360 C   0  0  0  0  0  0  0  0  0  0  0  0
  -27.4050  -28.8000   20.6200 C   0  0  0  0  0  3  0  0  0  0  0  0
  -26.3650  -26.9710   19.3920 C   0  0  0  0  0  3  0  0  0  0  0  0
  -25.1340  -27.6560   19.4000 C   0  0  0  0  0  3  0  0  0  0  0  0
  -23.7650  -29.7190   20.0720 C   0  0  0  0  0  2  0  0  0  0  0  0
  -24.7380  -30.9940   22.0390 N   0  0  0  0  0  0  0  0  0  0  0  0
  -23.5410  -31.9680   23.6970 O   0  0  0  0  0  0  0  0  0  0  0  0
  -22.8880  -29.2810   22.3880 C   0  0  0  0  0  0  0  0  0  0  0  0
  -21.5720  -29.0550   22.2350 N   0  0  0  0  0  0  0  0  0  0  0  0
  -23.5860  -28.6550   23.1900 O   0  0  0  0  0  0  0  0  0  0  0  0
  -21.0700  -29.6200   21.5650 H   0  0  0  0  0  0  0  0  0  0  0  0
  -18.2310  -27.7570   22.6740 C   0  0  0  0  0  0  0  0  0  0  0  0
  -20.7800  -28.0670   22.9650 C   0  0  0  0  0  3  0  0  0  0  0  0
  -20.9200  -26.6640   22.3270 C   0  0  0  0  0  2  0  0  0  0  0  0
  -19.8280  -26.3580   21.2970 C   0  0  0  0  0  2  0  0  0  0  0  0
  -18.4420  -26.4400   21.9420 C   0  0  0  0  0  2  0  0  0  0  0  0
  -19.3290  -28.5280   23.1390 C   0  0  0  0  0  0  0  0  0  0  0  0
  -19.0790  -29.7610   23.7790 C   0  0  0  0  0  3  0  0  0  0  0  0
  -17.7620  -30.2250   23.9580 C   0  0  0  0  0  3  0  0  0  0  0  0
  -16.6790  -29.4500   23.5070 C   0  0  0  0  0  3  0  0  0  0  0  0
  -16.9130  -28.2180   22.8740 C   0  0  0  0  0  3  0  0  0  0  0  0
  -25.8930  -32.4150   23.8210 C   0  0  0  0  0  3  0  0  0  0  0  0
  -26.3890  -31.6530   25.1100 C   0  0  1  0  0  0  0  0  0  0  0  0
  -25.2690  -31.3890   26.1410 C   0  0  0  0  0  1  0  0  0  0  0  0
  -27.0140  -30.2910   24.7260 C   0  0  0  0  0  1  0  0  0  0  0  0
  -27.5010  -32.4690   25.8100 C   0  0  0  0  0  1  0  0  0  0  0  0
  -25.5480  -33.8070   24.1380 N   0  0  0  0  0  0  0  0  0  0  0  0
  -25.8910  -34.8640   23.3900 C   0  0  0  0  0  0  0  0  0  0  0  0
  -26.6020  -34.7690   22.3850 O   0  0  0  0  0  0  0  0  0  0  0  0
  -24.9180  -33.9530   24.9140 H   0  0  0  0  0  0  0  0  0  0  0  0
  -24.1520  -36.6240   22.9460 C   0  0  0  0  0  1  0  0  0  0  0  0
  -25.3570  -36.2420   23.8210 C   0  0  0  0  0  3  0  0  0  0  0  0
  -27.4260  -37.1660   24.7650 C   0  0  0  0  0  1  0  0  0  0  0  0
  -26.3760  -37.3120   23.7600 N   0  0  0  0  0  0  0  0  0  0  0  0
  -25.9480  -38.2260   23.8780 H   0  0  0  0  0  0  0  0  0  0  0  0
  2  1  1  0
  3  5  2  0
  3  6  1  0
  4  1  2  0
  5  4  1  0
  6  2  2  0
  7  4  1  0
  7 10  2  0
  8  9  1  0
  8  5  1  0
  9 51  1  0
  9  7  1  0
 11  6  1  0
 11 12  1  0
 12 21  1  0
 13 21  1  0
 14 19  1  0
 15 16  1  0
 15 14  1  0
 17 16  1  0
 17 26  1  0
 17 18  1  0
 19 13  1  0
 19 18  1  0
 20 13  2  0
 21 22  1  0
 23 24  2  0
 24 43  1  0
 25 24  1  0
 25 28  1  0
 26 23  1  0
 26 27  1  0
 27 25  2  0
 28 29  1  0
 29 30  2  0
 31 34  1  0
 31 30  1  0
 32 31  2  0
 33 32  1  0
 33 28  2  0
 34 35  1  0
 35 40  2  0
 35 36  1  0
 36 37  2  0
 37 38  1  0
 38 42  1  0
 39 38  2  0
 40 39  1  0
 41 40  1  0
 43 44  1  0
 44 47  1  0
 44 46  1  0
 45 43  2  0
 48 50  1  0
 48 23  1  0
 49 48  1  0
 51 52  1  0
 53 55  1  0
 53 52  1  0
 54 65  2  0
 55 60  1  0
 56 64  1  0
 56 66  1  0
 57 63  1  0
 57 59  1  0
 58 64  1  0
 59 58  1  0
 60 59  2  0
 61 62  1  0
 61 55  2  0
 62 57  2  0
 63 56  1  0
 64 54  1  0
 66 68  2  0
 67 66  1  0
 69 67  1  0
 70 79  2  0
 70 75  1  0
 71 67  1  0
 71 75  1  0
 72 71  1  0
 73 74  1  0
 73 72  1  0
 74 70  1  0
 75 76  2  0
 76 77  1  0
 78 77  2  0
 79 78  1  0
 80 54  1  0
 80 85  1  0
 80 81  1  0
 81 84  1  1
 81 82  1  0
 83 81  1  0
 85 88  1  0
 86 90  1  0
 86 85  1  0
 87 86  2  0
 90 89  1  0
 92 90  1  0
 92 93  1  0
 92 91  1  0
M  ISO  4  13 100  21 100  52 101  53 101
M  END
>  <TORSDO>  (92) 
F 20

>  <SCORE>  (92) 
-12.722

>  <name>  (92) 
92

>  <ligand_id>  (92) 
92

>  <original_smiles>  (92) 
[H]c1c([H])c([H])c2c(c1[H])C([H])([H])C([H])([H])C([H])([H])C2([H])N([H])C(=O)C1([H])N(C(=O)C([H])(N([H])C(=O)C([H])(N([H])C([H])([H])[H])C([H])([H])[H])C(C([H])([H])[H])(C([H])([H])[H])C([H])([H])[H])C([H])([H])c2c([H])c(OC([H])([H])C([H])([H])C3([H])C(=O)c4c([H])c([H])c(C([H])([H])C([H])([H])N([H])C(=O)N5C([H])([H])C([H])([H])C([H])([H])C([H])(n6nc(-c7c([H])c([H])c(Oc8c([H])c([H])c(F)c([H])c8F)c([H])c7[H])c(C(=O)N([H])[H])c6N([H])[H])C5([H])[H])c([H])c4C3([H])[H])c([H])c([H])c2C1([H])[H]

>  <smiles>  (92) 
[H]c1c([H])c([H])c2c(c1[H])C([H])([H])C([H])([H])C([H])([H])C2([H])N([H])C(=O)C1([H])N(C(=O)C([H])(N([H])C(=O)C([H])(N([H])C([H])([H])[H])C([H])([H])[H])C(C([H])([H])[H])(C([H])([H])[H])C([H])([H])[H])C([H])([H])c2c([H])c(OC([H])([H])C([H])([H])C3([H])C(=O)c4c([H])c([H])c(C([H])([H])C([H])([H])N([H])C(=O)N5C([H])([H])C([H])([H])C([H])([H])C([H])(n6nc(-c7c([H])c([H])c(Oc8c([H])c([H])c(F)c([H])c8F)c([H])c7[H])c(C(=O)N([H])[H])c6N([H])[H])C5([H])[H])c([H])c4C3([H])[H])c([H])c([H])c2C1([H])[H]

$$$$
93:0:0
     RDKit          3D

 91100  0  0  1  0  0  0  0  0999 V2000
  -29.4660  -19.0030   20.5680 C   0  0  0  0  0  0  0  0  0  0  0  0
  -28.4950  -20.2490   17.7470 C   0  0  0  0  0  2  0  0  0  0  0  0
  -28.1930  -21.6600   18.2680 C   0  0  0  0  0  2  0  0  0  0  0  0
  -30.0850  -18.2690   18.4110 C   0  0  0  0  0  2  0  0  0  0  0  0
  -29.7170  -20.4230   19.8190 C   0  0  0  0  0  3  0  0  0  0  0  0
  -30.2400  -17.7690   19.8720 C   0  0  0  0  0  3  0  0  0  0  0  0
  -29.8250  -19.8350   18.3930 C   0  0  0  0  0  3  0  0  0  0  0  0
  -28.6880  -21.7660   19.7280 C   0  0  0  0  0  3  0  0  0  0  0  0
  -28.7300  -18.8590   21.5830 N   0  0  0  0  0  0  0  0  0  0  0  0
  -28.3290  -19.7430   21.8760 H   0  0  0  0  0  0  0  0  0  0  0  0
  -30.6610  -15.0510   19.8770 C   0  0  0  0  0  0  0  0  0  0  0  0
  -30.4560  -12.7180   18.9130 C   0  0  0  0  0  2  0  0  0  0  0  0
  -29.4340  -12.6990   17.7530 C   0  0  0  0  0  2  0  0  0  0  0  0
  -28.0060  -12.4870   18.2900 C   0  0  0  0  0  2  0  0  0  0  0  0
  -27.6940  -13.3910   19.5100 C   0  0  0  0  0  3  0  0  0  0  0  0
  -28.8290  -13.3760   20.5560 C   0  0  0  0  0  2  0  0  0  0  0  0
  -30.0540  -13.7960   19.8630 N   0  0  0  0  0  0  0  0  0  0  0  0
  -31.8320  -15.1120   19.4880 O   0  0  0  0  0  0  0  0  0  0  0  0
  -29.9170  -16.2380   20.1160 N   0  0  0  0  0  0  0  0  0  0  0  0
  -28.9840  -16.0780   20.4640 H   0  0  0  0  0  0  0  0  0  0  0  0
  -25.3840  -13.9610   20.4490 C   0  0  0  0  0  0  0  0  0  0  0  0
  -24.3420  -13.1820   20.8700 C   0  0  0  0  0  0  0  0  0  0  0  0
  -24.7890  -11.8300   20.7540 C   0  0  0  0  0  0  0  0  0  0  0  0
  -26.3950  -13.0860   20.0980 N   0  0  0  0  0  0  0  0  0  0  0  0
  -26.0520  -11.7950   20.3470 N   0  0  0  0  0  0  0  0  0  0  0  0
  -24.0650  -10.5660   20.9500 C   0  0  0  0  0  0  0  0  0  0  0  0
  -24.5090   -9.5930   21.8730 C   0  0  0  0  0  3  0  0  0  0  0  0
  -23.7830   -8.3970   22.0580 C   0  0  0  0  0  3  0  0  0  0  0  0
  -22.5970   -8.1650   21.3190 C   0  0  0  0  0  0  0  0  0  0  0  0
  -22.1720   -9.1260   20.3860 C   0  0  0  0  0  3  0  0  0  0  0  0
  -22.8990  -10.3130   20.1980 C   0  0  0  0  0  3  0  0  0  0  0  0
  -21.8420   -7.0210   21.4140 O   0  0  0  0  0  0  0  0  0  0  0  0
  -21.7500   -6.3150   22.5860 C   0  0  0  0  0  0  0  0  0  0  0  0
  -21.1990   -6.8820   23.7560 C   0  0  0  0  0  3  0  0  0  0  0  0
  -21.0600   -6.0970   24.9200 C   0  0  0  0  0  3  0  0  0  0  0  0
  -21.4620   -4.7470   24.9130 C   0  0  0  0  0  0  0  0  0  0  0  0
  -22.0060   -4.1810   23.7470 C   0  0  0  0  0  3  0  0  0  0  0  0
  -22.1480   -4.9610   22.5860 C   0  0  0  0  0  0  0  0  0  0  0  0
  -22.6520   -4.4050   21.4590 F   0  0  0  0  0  0  0  0  0  0  0  0
  -21.3210   -3.9930   26.0280 F   0  0  0  0  0  0  0  0  0  0  0  0
  -22.9740  -13.6590   21.2610 C   0  0  0  0  0  0  0  0  0  0  0  0
  -22.3100  -12.9420   22.1610 N   0  0  0  0  0  0  0  0  0  0  0  0
  -22.5070  -14.7030   20.8060 O   0  0  0  0  0  0  0  0  0  0  0  0
  -22.7050  -12.0980   22.5490 H   0  0  0  0  0  0  0  0  0  0  0  0
  -21.3950  -13.2410   22.4650 H   0  0  0  0  0  0  0  0  0  0  0  0
  -25.5480  -15.3370   20.3100 N   0  0  0  0  0  0  0  0  0  0  0  0
  -24.8010  -15.9930   20.5080 H   0  0  0  0  0  0  0  0  0  0  0  0
  -26.3630  -15.7790   19.9080 H   0  0  0  0  0  0  0  0  0  0  0  0
  -29.0850  -23.3970   19.9820 C   0  0  0  0  0  3  0  0  0  0  0  0
  -28.0300  -24.7080   19.8240 C   0  0  0  0  0  3  0  0  0  0  0  0
  -28.2960  -26.2300   20.0400 O   0  0  0  0  0  0  0  0  0  0  0  0
  -24.6060  -31.8020   23.1600 C   0  0  0  0  0  0  0  0  0  0  0  0
  -27.2300  -27.2030   19.9990 C   0  0  0  0  0  0  0  0  0  0  0  0
  -23.4210  -30.4420   21.4830 C   0  0  0  0  0  3  0  0  0  0  0  0
  -24.8840  -28.9250   20.0140 C   0  0  0  0  0  0  0  0  0  0  0  0
  -25.9720  -30.7390   21.3250 C   0  0  0  0  0  2  0  0  0  0  0  0
  -26.0600  -29.3680   20.6330 C   0  0  0  0  0  0  0  0  0  0  0  0
  -27.2330  -28.5230   20.6070 C   0  0  0  0  0  3  0  0  0  0  0  0
  -26.0230  -26.8620   19.3470 C   0  0  0  0  0  3  0  0  0  0  0  0
  -24.8770  -27.6860   19.3580 C   0  0  0  0  0  3  0  0  0  0  0  0
  -23.6480  -29.8070   20.0860 C   0  0  0  0  0  2  0  0  0  0  0  0
  -24.6860  -31.0140   22.0440 N   0  0  0  0  0  0  0  0  0  0  0  0
  -23.5170  -32.0610   23.6950 O   0  0  0  0  0  0  0  0  0  0  0  0
  -22.7530  -29.4000   22.4150 C   0  0  0  0  0  0  0  0  0  0  0  0
  -21.4260  -29.2260   22.2910 N   0  0  0  0  0  0  0  0  0  0  0  0
  -23.4340  -28.7510   23.2140 O   0  0  0  0  0  0  0  0  0  0  0  0
  -20.9330  -29.8010   21.6220 H   0  0  0  0  0  0  0  0  0  0  0  0
  -18.0480  -28.0290   22.8150 C   0  0  0  0  0  0  0  0  0  0  0  0
  -20.6140  -28.2610   23.0370 C   0  0  0  0  0  3  0  0  0  0  0  0
  -20.6920  -26.8540   22.4010 C   0  0  0  0  0  2  0  0  0  0  0  0
  -19.5670  -26.5840   21.3960 C   0  0  0  0  0  2  0  0  0  0  0  0
  -18.2000  -26.7100   22.0750 C   0  0  0  0  0  2  0  0  0  0  0  0
  -19.1810  -28.7650   23.2530 C   0  0  0  0  0  0  0  0  0  0  0  0
  -18.9830  -29.9990   23.9080 C   0  0  0  0  0  3  0  0  0  0  0  0
  -17.6840  -30.4990   24.1270 C   0  0  0  0  0  3  0  0  0  0  0  0
  -16.5660  -29.7600   23.7030 C   0  0  0  0  0  3  0  0  0  0  0  0
  -16.7490  -28.5270   23.0540 C   0  0  0  0  0  3  0  0  0  0  0  0
  -25.8770  -32.4340   23.8040 C   0  0  0  0  0  3  0  0  0  0  0  0
  -25.5520  -33.8230   24.1640 N   0  0  0  0  0  0  0  0  0  0  0  0
  -25.8300  -34.8950   23.4090 C   0  0  0  0  0  0  0  0  0  0  0  0
  -26.4540  -34.8170   22.3480 O   0  0  0  0  0  0  0  0  0  0  0  0
  -24.9880  -33.9550   24.9920 H   0  0  0  0  0  0  0  0  0  0  0  0
  -24.0390  -36.6490   23.1860 C   0  0  0  0  0  1  0  0  0  0  0  0
  -25.3400  -36.2680   23.9100 C   0  0  0  0  0  3  0  0  0  0  0  0
  -27.4910  -37.2150   24.6210 C   0  0  0  0  0  1  0  0  0  0  0  0
  -26.3380  -37.3470   23.7360 N   0  0  0  0  0  0  0  0  0  0  0  0
  -25.9150  -38.2570   23.9030 H   0  0  0  0  0  0  0  0  0  0  0  0
  -26.3890  -31.6440   25.0720 C   0  0  1  0  0  0  0  0  0  0  0  0
  -25.2850  -31.3730   26.1210 C   0  0  0  0  0  1  0  0  0  0  0  0
  -26.9930  -30.2810   24.6640 C   0  0  0  0  0  1  0  0  0  0  0  0
  -27.5220  -32.4390   25.7610 C   0  0  0  0  0  1  0  0  0  0  0  0
  1  9  2  0
  2  3  1  0
  3  8  1  0
  4  6  1  0
  5  1  1  0
  6 19  1  0
  6  1  1  0
  7  2  1  0
  7  4  1  0
  7  5  1  0
  8  5  1  0
  8 49  1  0
  9 10  1  0
 11 19  1  0
 12 17  1  0
 13 14  1  0
 13 12  1  0
 15 14  1  0
 15 24  1  0
 15 16  1  0
 17 11  1  0
 17 16  1  0
 18 11  2  0
 19 20  1  0
 21 22  2  0
 22 41  1  0
 23 22  1  0
 23 26  1  0
 24 25  1  0
 24 21  1  0
 25 23  2  0
 26 27  1  0
 27 28  2  0
 29 32  1  0
 29 28  1  0
 30 29  2  0
 31 30  1  0
 31 26  2  0
 32 33  1  0
 33 34  1  0
 34 35  2  0
 36 35  1  0
 36 40  1  0
 37 36  2  0
 38 33  2  0
 38 37  1  0
 39 38  1  0
 41 42  1  0
 42 45  1  0
 42 44  1  0
 43 41  2  0
 46 21  1  0
 46 47  1  0
 48 46  1  0
 50 49  2  0
 50 51  1  0
 52 63  2  0
 53 51  1  0
 53 58  1  0
 54 62  1  0
 54 64  1  0
 55 61  1  0
 55 57  1  0
 56 62  1  0
 57 56  1  0
 58 57  2  0
 59 60  1  0
 59 53  2  0
 60 55  2  0
 61 54  1  0
 62 52  1  0
 64 66  2  0
 65 64  1  0
 67 65  1  0
 68 77  2  0
 68 73  1  0
 69 65  1  0
 69 73  1  0
 70 69  1  0
 71 72  1  0
 71 70  1  0
 72 68  1  0
 73 74  2  0
 74 75  1  0
 76 75  2  0
 77 76  1  0
 78 52  1  0
 78 79  1  0
 78 88  1  0
 79 82  1  0
 80 84  1  0
 80 79  1  0
 81 80  2  0
 84 83  1  0
 86 87  1  0
 86 84  1  0
 86 85  1  0
 88 91  1  1
 88 89  1  0
 90 88  1  0
M  ISO  4  11 100  19 100  50 101  51 101
M  END
>  <TORSDO>  (93) 
F 18

>  <SCORE>  (93) 
-14.434

>  <name>  (93) 
93

>  <ligand_id>  (93) 
93

>  <original_smiles>  (93) 
[H]N=C1C([H])(N([H])C(=O)N2C([H])([H])C([H])([H])C([H])([H])C([H])(n3nc(-c4c([H])c([H])c(Oc5c([H])c([H])c(F)c([H])c5F)c([H])c4[H])c(C(=O)N([H])[H])c3N([H])[H])C2([H])[H])C([H])([H])C2([H])C([H])([H])C([H])([H])C([H])(C([H])([H])C([H])([H])Oc3c([H])c([H])c4c(c3[H])C([H])([H])N(C(=O)C([H])(N([H])C(=O)C([H])(N([H])C([H])([H])[H])C([H])([H])[H])C(C([H])([H])[H])(C([H])([H])[H])C([H])([H])[H])C([H])(C(=O)N([H])C3([H])c5c([H])c([H])c([H])c([H])c5C([H])([H])C([H])([H])C3([H])[H])C4([H])[H])C12[H]

>  <smiles>  (93) 
[H]N=C1C([H])(N([H])C(=O)N2C([H])([H])C([H])([H])C([H])([H])C([H])(n3nc(-c4c([H])c([H])c(Oc5c([H])c([H])c(F)c([H])c5F)c([H])c4[H])c(C(=O)N([H])[H])c3N([H])[H])C2([H])[H])C([H])([H])C2([H])C([H])([H])C([H])([H])C([H])(C([H])([H])C([H])([H])Oc3c([H])c([H])c4c(c3[H])C([H])([H])N(C(=O)C([H])(N([H])C(=O)C([H])(N([H])C([H])([H])[H])C([H])([H])[H])C(C([H])([H])[H])(C([H])([H])[H])C([H])([H])[H])C([H])(C(=O)N([H])C3([H])c5c([H])c([H])c([H])c([H])c5C([H])([H])C([H])([H])C3([H])[H])C4([H])[H])C12[H]

$$$$
94:0:0
     RDKit          3D

 90 98  0  0  1  0  0  0  0  0999 V2000
  -28.6680  -22.1520   20.6910 C   0  0  0  0  0  2  0  0  0  0  0  0
  -28.2980  -19.6030   19.6970 C   0  0  0  0  0  2  0  0  0  0  0  0
  -30.2830  -19.9530   21.1400 C   0  0  0  0  0  2  0  0  0  0  0  0
  -28.8790  -18.1790   19.2470 C   0  0  0  0  0  2  0  0  0  0  0  0
  -30.0950  -18.3840   21.3980 C   0  0  0  0  0  2  0  0  0  0  0  0
  -29.3060  -20.7210   20.1550 C   0  0  0  0  0  3  0  0  0  0  0  0
  -29.9740  -17.4610   20.1380 C   0  0  0  0  0  3  0  0  0  0  0  0
  -30.5410  -14.8240   20.1670 C   0  0  0  0  0  0  0  0  0  0  0  0
  -30.3530  -12.5340   19.1650 C   0  0  0  0  0  2  0  0  0  0  0  0
  -29.3840  -12.5940   17.9620 C   0  0  0  0  0  2  0  0  0  0  0  0
  -27.9280  -12.4040   18.4290 C   0  0  0  0  0  2  0  0  0  0  0  0
  -27.5770  -13.2870   19.6550 C   0  0  0  0  0  3  0  0  0  0  0  0
  -28.6620  -13.2100   20.7500 C   0  0  0  0  0  2  0  0  0  0  0  0
  -29.9370  -13.5840   20.1250 N   0  0  0  0  0  0  0  0  0  0  0  0
  -31.7180  -14.9340   19.8130 O   0  0  0  0  0  0  0  0  0  0  0  0
  -29.7450  -15.9490   20.3880 N   0  0  0  0  0  0  0  0  0  0  0  0
  -28.8010  -15.7130   20.6540 H   0  0  0  0  0  0  0  0  0  0  0  0
  -25.2070  -13.8670   20.4420 C   0  0  0  0  0  0  0  0  0  0  0  0
  -24.1540  -13.0870   20.8350 C   0  0  0  0  0  0  0  0  0  0  0  0
  -24.6220  -11.7380   20.7900 C   0  0  0  0  0  0  0  0  0  0  0  0
  -26.2470  -12.9920   20.1780 N   0  0  0  0  0  0  0  0  0  0  0  0
  -25.9040  -11.7070   20.4510 N   0  0  0  0  0  0  0  0  0  0  0  0
  -23.9040  -10.4730   20.9920 C   0  0  0  0  0  0  0  0  0  0  0  0
  -24.3580   -9.5060   21.9150 C   0  0  0  0  0  3  0  0  0  0  0  0
  -23.6410   -8.3050   22.1060 C   0  0  0  0  0  3  0  0  0  0  0  0
  -22.4560   -8.0630   21.3720 C   0  0  0  0  0  0  0  0  0  0  0  0
  -22.0210   -9.0190   20.4350 C   0  0  0  0  0  3  0  0  0  0  0  0
  -22.7380  -10.2110   20.2450 C   0  0  0  0  0  3  0  0  0  0  0  0
  -21.7080   -6.9150   21.4720 O   0  0  0  0  0  0  0  0  0  0  0  0
  -21.6780   -6.1730   22.6250 C   0  0  0  0  0  0  0  0  0  0  0  0
  -21.2650   -6.7270   23.8570 C   0  0  0  0  0  3  0  0  0  0  0  0
  -21.1840   -5.9110   25.0030 C   0  0  0  0  0  3  0  0  0  0  0  0
  -21.5060   -4.5430   24.9190 C   0  0  0  0  0  0  0  0  0  0  0  0
  -21.9110   -3.9890   23.6920 C   0  0  0  0  0  3  0  0  0  0  0  0
  -21.9950   -4.8020   22.5470 C   0  0  0  0  0  0  0  0  0  0  0  0
  -22.3650   -4.2580   21.3630 F   0  0  0  0  0  0  0  0  0  0  0  0
  -21.4200   -3.7580   26.0170 F   0  0  0  0  0  0  0  0  0  0  0  0
  -22.7600  -13.5570   21.1380 C   0  0  0  0  0  0  0  0  0  0  0  0
  -22.0550  -12.8580   22.0180 N   0  0  0  0  0  0  0  0  0  0  0  0
  -22.3080  -14.5830   20.6300 O   0  0  0  0  0  0  0  0  0  0  0  0
  -22.4370  -12.0310   22.4530 H   0  0  0  0  0  0  0  0  0  0  0  0
  -21.1200  -13.1530   22.2600 H   0  0  0  0  0  0  0  0  0  0  0  0
  -25.3610  -15.2390   20.2630 N   0  0  0  0  0  0  0  0  0  0  0  0
  -24.5880  -15.8840   20.3790 H   0  0  0  0  0  0  0  0  0  0  0  0
  -26.1900  -15.6810   19.8860 H   0  0  0  0  0  0  0  0  0  0  0  0
  -28.7470  -23.6050   19.9280 C   0  0  0  0  0  3  0  0  0  0  0  0
  -28.4330  -24.6120   17.5600 C   0  0  0  0  0  1  0  0  0  0  0  0
  -28.1550  -23.4400   18.5120 C   0  0  0  0  0  2  0  0  0  0  0  0
  -28.0710  -24.9140   20.6570 C   0  0  0  0  0  2  0  0  0  0  0  0
  -28.3130  -26.3640   20.2740 O   0  0  0  0  0  0  0  0  0  0  0  0
  -24.6200  -31.9000   23.2590 C   0  0  0  0  0  0  0  0  0  0  0  0
  -27.2240  -27.2730   20.2430 C   0  0  0  0  0  0  0  0  0  0  0  0
  -23.4230  -30.4970   21.6200 C   0  0  0  0  0  3  0  0  0  0  0  0
  -24.8780  -28.9360   20.2000 C   0  0  0  0  0  0  0  0  0  0  0  0
  -25.9670  -30.8000   21.4460 C   0  0  0  0  0  2  0  0  0  0  0  0
  -26.0480  -29.4110   20.8070 C   0  0  0  0  0  0  0  0  0  0  0  0
  -27.2270  -28.5930   20.8130 C   0  0  0  0  0  3  0  0  0  0  0  0
  -26.0340  -26.8720   19.5990 C   0  0  0  0  0  3  0  0  0  0  0  0
  -24.8780  -27.6770   19.5820 C   0  0  0  0  0  3  0  0  0  0  0  0
  -23.6440  -29.8180   20.2420 C   0  0  0  0  0  2  0  0  0  0  0  0
  -24.6890  -31.0840   22.1650 N   0  0  0  0  0  0  0  0  0  0  0  0
  -23.5330  -32.1800   23.7870 O   0  0  0  0  0  0  0  0  0  0  0  0
  -22.7530  -29.4850   22.5800 C   0  0  0  0  0  0  0  0  0  0  0  0
  -21.4250  -29.3170   22.4530 N   0  0  0  0  0  0  0  0  0  0  0  0
  -23.4260  -28.8550   23.3990 O   0  0  0  0  0  0  0  0  0  0  0  0
  -20.9410  -29.8800   21.7680 H   0  0  0  0  0  0  0  0  0  0  0  0
  -18.0400  -28.1320   22.9520 C   0  0  0  0  0  0  0  0  0  0  0  0
  -20.5990  -28.3830   23.2210 C   0  0  0  0  0  3  0  0  0  0  0  0
  -20.6960  -26.9510   22.6460 C   0  0  0  0  0  2  0  0  0  0  0  0
  -19.5940  -26.6330   21.6310 C   0  0  0  0  0  2  0  0  0  0  0  0
  -18.2110  -26.7820   22.2750 C   0  0  0  0  0  2  0  0  0  0  0  0
  -19.1610  -28.8900   23.3810 C   0  0  0  0  0  0  0  0  0  0  0  0
  -18.9480  -30.1520   23.9750 C   0  0  0  0  0  3  0  0  0  0  0  0
  -17.6450  -30.6570   24.1430 C   0  0  0  0  0  3  0  0  0  0  0  0
  -16.5380  -29.8970   23.7300 C   0  0  0  0  0  3  0  0  0  0  0  0
  -16.7350  -28.6360   23.1400 C   0  0  0  0  0  3  0  0  0  0  0  0
  -25.8970  -32.5360   23.8870 C   0  0  0  0  0  3  0  0  0  0  0  0
  -26.4010  -31.7720   25.1730 C   0  0  1  0  0  0  0  0  0  0  0  0
  -25.2990  -31.5470   26.2360 C   0  0  0  0  0  1  0  0  0  0  0  0
  -26.9850  -30.3910   24.7960 C   0  0  0  0  0  1  0  0  0  0  0  0
  -27.5480  -32.5690   25.8390 C   0  0  0  0  0  1  0  0  0  0  0  0
  -25.5850  -33.9360   24.2080 N   0  0  0  0  0  0  0  0  0  0  0  0
  -25.9170  -34.9860   23.4460 C   0  0  0  0  0  0  0  0  0  0  0  0
  -26.5880  -34.8770   22.4150 O   0  0  0  0  0  0  0  0  0  0  0  0
  -24.9900  -34.0950   25.0080 H   0  0  0  0  0  0  0  0  0  0  0  0
  -24.1880  -36.7800   23.0870 C   0  0  0  0  0  1  0  0  0  0  0  0
  -25.4320  -36.3790   23.8970 C   0  0  0  0  0  3  0  0  0  0  0  0
  -27.5720  -37.2650   24.7140 C   0  0  0  0  0  1  0  0  0  0  0  0
  -26.4650  -37.4310   23.7750 N   0  0  0  0  0  0  0  0  0  0  0  0
  -26.0620  -38.3530   23.9190 H   0  0  0  0  0  0  0  0  0  0  0  0
  2  6  1  0
  3  5  1  0
  4  2  1  0
  4  7  1  0
  6  1  1  0
  6  3  1  0
  7 16  1  0
  7  5  1  0
  8 16  1  0
  9 14  1  0
 10 11  1  0
 10  9  1  0
 12 11  1  0
 12 21  1  0
 12 13  1  0
 14  8  1  0
 14 13  1  0
 15  8  2  0
 16 17  1  0
 18 19  2  0
 19 38  1  0
 20 19  1  0
 20 23  1  0
 21 18  1  0
 21 22  1  0
 22 20  2  0
 23 24  1  0
 24 25  2  0
 26 29  1  0
 26 25  1  0
 27 26  2  0
 28 27  1  0
 28 23  2  0
 29 30  1  0
 30 31  1  0
 31 32  2  0
 33 32  1  0
 33 37  1  0
 34 33  2  0
 35 30  2  0
 35 34  1  0
 36 35  1  0
 38 39  1  0
 39 42  1  0
 39 41  1  0
 40 38  2  0
 43 44  1  0
 43 18  1  0
 45 43  1  0
 46 48  1  0
 46 49  1  0
 46  1  1  0
 47 48  1  0
 50 49  1  0
 51 62  2  0
 52 50  1  0
 52 57  1  0
 53 61  1  0
 53 63  1  0
 54 60  1  0
 54 56  1  0
 55 61  1  0
 56 57  2  0
 56 55  1  0
 58 52  2  0
 59 58  1  0
 59 54  2  0
 60 53  1  0
 61 51  1  0
 63 65  2  0
 64 63  1  0
 66 64  1  0
 67 76  2  0
 67 72  1  0
 68 64  1  0
 68 72  1  0
 69 68  1  0
 70 71  1  0
 70 69  1  0
 71 67  1  0
 72 73  2  0
 73 74  1  0
 75 74  2  0
 76 75  1  0
 77 51  1  0
 77 82  1  0
 77 78  1  0
 78 81  1  1
 78 79  1  0
 80 78  1  0
 82 85  1  0
 83 87  1  0
 83 82  1  0
 84 83  2  0
 87 86  1  0
 89 87  1  0
 89 90  1  0
 89 88  1  0
M  ISO  4   8 100  16 100  49 101  50 101
M  END
>  <TORSDO>  (94) 
F 20

>  <SCORE>  (94) 
-13.806

>  <name>  (94) 
94

>  <ligand_id>  (94) 
94

>  <original_smiles>  (94) 
[H]c1c([H])c([H])c2c(c1[H])C([H])([H])C([H])([H])C([H])([H])C2([H])N([H])C(=O)C1([H])N(C(=O)C([H])(N([H])C(=O)C([H])(N([H])C([H])([H])[H])C([H])([H])[H])C(C([H])([H])[H])(C([H])([H])[H])C([H])([H])[H])C([H])([H])c2c([H])c(OC([H])([H])C([H])(C([H])([H])C([H])([H])[H])C([H])([H])C3([H])C([H])([H])C([H])([H])C([H])(N([H])C(=O)N4C([H])([H])C([H])([H])C([H])([H])C([H])(n5nc(-c6c([H])c([H])c(Oc7c([H])c([H])c(F)c([H])c7F)c([H])c6[H])c(C(=O)N([H])[H])c5N([H])[H])C4([H])[H])C([H])([H])C3([H])[H])c([H])c([H])c2C1([H])[H]

>  <smiles>  (94) 
[H]c1c([H])c([H])c2c(c1[H])C([H])([H])C([H])([H])C([H])([H])C2([H])N([H])C(=O)C1([H])N(C(=O)C([H])(N([H])C(=O)C([H])(N([H])C([H])([H])[H])C([H])([H])[H])C(C([H])([H])[H])(C([H])([H])[H])C([H])([H])[H])C([H])([H])c2c([H])c(OC([H])([H])C([H])(C([H])([H])C([H])([H])[H])C([H])([H])C3([H])C([H])([H])C([H])([H])C([H])(N([H])C(=O)N4C([H])([H])C([H])([H])C([H])([H])C([H])(n5nc(-c6c([H])c([H])c(Oc7c([H])c([H])c(F)c([H])c7F)c([H])c6[H])c(C(=O)N([H])[H])c5N([H])[H])C4([H])[H])C([H])([H])C3([H])[H])c([H])c([H])c2C1([H])[H]

$$$$
95:0:0
     RDKit          3D

 95105  0  0  1  0  0  0  0  0999 V2000
  -29.1130  -20.4240   18.6100 C   0  0  0  0  0  2  0  0  0  0  0  0
  -28.9460  -20.0120   20.0620 C   0  0  0  0  0  3  0  0  0  0  0  0
  -29.0210  -21.5580   19.6090 C   0  0  0  0  0  3  0  0  0  0  0  0
  -32.0650  -18.8350   22.9710 C   0  0  0  0  0  3  0  0  0  0  0  0
  -31.4790  -17.7810   22.2590 C   0  0  0  0  0  3  0  0  0  0  0  0
  -30.6400  -20.3660   21.7790 C   0  0  0  0  0  3  0  0  0  0  0  0
  -30.0330  -19.3460   20.9930 C   0  0  0  0  0  0  0  0  0  0  0  0
  -31.6350  -20.1390   22.7370 C   0  0  0  0  0  0  0  0  0  0  0  0
  -30.4750  -17.9510   21.2590 C   0  0  0  0  0  0  0  0  0  0  0  0
  -32.2300  -21.2940   23.5200 C   0  0  0  0  0  1  0  0  0  0  0  0
  -30.7520  -15.4860   20.6030 C   0  0  0  0  0  0  0  0  0  0  0  0
  -30.7770  -13.0700   19.9460 C   0  0  0  0  0  2  0  0  0  0  0  0
  -29.9650  -12.8340   18.6570 C   0  0  0  0  0  2  0  0  0  0  0  0
  -28.4860  -12.5800   18.9990 C   0  0  0  0  0  2  0  0  0  0  0  0
  -27.9180  -13.6210   20.0010 C   0  0  0  0  0  3  0  0  0  0  0  0
  -28.8680  -13.8640   21.1950 C   0  0  0  0  0  2  0  0  0  0  0  0
  -30.1760  -14.2340   20.6430 N   0  0  0  0  0  0  0  0  0  0  0  0
  -31.9410  -15.5800   20.2860 O   0  0  0  0  0  0  0  0  0  0  0  0
  -29.9930  -16.6480   20.7340 N   0  0  0  0  0  0  0  0  0  0  0  0
  -28.9920  -16.5380   20.6670 H   0  0  0  0  0  0  0  0  0  0  0  0
  -25.5100  -14.1150   20.7250 C   0  0  0  0  0  0  0  0  0  0  0  0
  -24.4450  -13.2990   20.9930 C   0  0  0  0  0  0  0  0  0  0  0  0
  -24.9250  -11.9610   20.8470 C   0  0  0  0  0  0  0  0  0  0  0  0
  -26.5690  -13.2720   20.4340 N   0  0  0  0  0  0  0  0  0  0  0  0
  -26.2240  -11.9660   20.5710 N   0  0  0  0  0  0  0  0  0  0  0  0
  -24.2090  -10.6800   20.8990 C   0  0  0  0  0  0  0  0  0  0  0  0
  -24.6250   -9.6320   21.7510 C   0  0  0  0  0  3  0  0  0  0  0  0
  -23.9070   -8.4190   21.7970 C   0  0  0  0  0  3  0  0  0  0  0  0
  -22.7570   -8.2420   20.9910 C   0  0  0  0  0  0  0  0  0  0  0  0
  -22.3600   -9.2790   20.1280 C   0  0  0  0  0  3  0  0  0  0  0  0
  -23.0790  -10.4850   20.0790 C   0  0  0  0  0  3  0  0  0  0  0  0
  -22.0120   -7.0880   20.9520 O   0  0  0  0  0  0  0  0  0  0  0  0
  -21.9130   -6.2580   22.0400 C   0  0  0  0  0  0  0  0  0  0  0  0
  -21.4110   -6.7100   23.2790 C   0  0  0  0  0  3  0  0  0  0  0  0
  -21.2610   -5.8070   24.3500 C   0  0  0  0  0  3  0  0  0  0  0  0
  -21.6030   -4.4520   24.1830 C   0  0  0  0  0  0  0  0  0  0  0  0
  -22.0980   -3.9980   22.9460 C   0  0  0  0  0  3  0  0  0  0  0  0
  -22.2490   -4.8980   21.8780 C   0  0  0  0  0  0  0  0  0  0  0  0
  -22.7070   -4.4520   20.6830 F   0  0  0  0  0  0  0  0  0  0  0  0
  -21.4510   -3.5820   25.2080 F   0  0  0  0  0  0  0  0  0  0  0  0
  -23.0360  -13.7360   21.2700 C   0  0  0  0  0  0  0  0  0  0  0  0
  -22.2980  -12.9620   22.0580 N   0  0  0  0  0  0  0  0  0  0  0  0
  -22.5980  -14.7970   20.8270 O   0  0  0  0  0  0  0  0  0  0  0  0
  -22.6650  -12.1020   22.4380 H   0  0  0  0  0  0  0  0  0  0  0  0
  -21.3530  -13.2340   22.2840 H   0  0  0  0  0  0  0  0  0  0  0  0
  -25.6600  -15.4980   20.6780 N   0  0  0  0  0  0  0  0  0  0  0  0
  -24.8820  -16.1310   20.8240 H   0  0  0  0  0  0  0  0  0  0  0  0
  -26.5090  -15.9760   20.4010 H   0  0  0  0  0  0  0  0  0  0  0  0
  -27.8650  -22.6610   19.6780 C   0  0  0  0  0  3  0  0  0  0  0  0
  -26.3260  -23.4740   21.6870 C   0  0  0  0  0  2  0  0  0  0  0  0
  -26.8240  -22.0880   22.0330 C   0  0  0  0  0  2  0  0  0  0  0  0
  -27.6520  -22.9890   21.1480 C   0  0  0  0  0  3  0  0  0  0  0  0
  -28.0390  -24.0500   18.8450 C   0  0  0  0  0  3  0  0  0  0  0  0
  -27.1510  -25.3460   19.2400 C   0  0  0  0  0  3  0  0  0  0  0  0
  -27.2990  -26.6980   18.5980 O   0  0  0  0  0  0  0  0  0  0  0  0
  -24.8580  -31.6830   23.2890 C   0  0  0  0  0  0  0  0  0  0  0  0
  -26.3520  -27.6900   18.9340 C   0  0  0  0  0  0  0  0  0  0  0  0
  -23.2640  -30.8560   21.5960 C   0  0  0  0  0  3  0  0  0  0  0  0
  -24.2770  -29.5380   19.6500 C   0  0  0  0  0  0  0  0  0  0  0  0
  -25.7790  -30.9160   21.0860 C   0  0  0  0  0  2  0  0  0  0  0  0
  -25.5730  -29.7280   20.1470 C   0  0  0  0  0  0  0  0  0  0  0  0
  -26.6160  -28.8190   19.7800 C   0  0  0  0  0  3  0  0  0  0  0  0
  -25.0440  -27.5830   18.4140 C   0  0  0  0  0  3  0  0  0  0  0  0
  -24.0150  -28.4750   18.7730 C   0  0  0  0  0  3  0  0  0  0  0  0
  -23.1970  -30.5090   20.0850 C   0  0  0  0  0  2  0  0  0  0  0  0
  -24.6620  -31.1550   22.0450 N   0  0  0  0  0  0  0  0  0  0  0  0
  -23.9040  -31.9430   24.0370 O   0  0  0  0  0  0  0  0  0  0  0  0
  -22.5910  -29.7190   22.4040 C   0  0  0  0  0  0  0  0  0  0  0  0
  -21.2510  -29.6340   22.3320 N   0  0  0  0  0  0  0  0  0  0  0  0
  -23.2710  -28.9240   23.0580 O   0  0  0  0  0  0  0  0  0  0  0  0
  -20.7610  -30.3280   21.7850 H   0  0  0  0  0  0  0  0  0  0  0  0
  -17.8480  -28.4670   22.7360 C   0  0  0  0  0  0  0  0  0  0  0  0
  -20.4190  -28.6170   22.9770 C   0  0  0  0  0  3  0  0  0  0  0  0
  -20.4650  -27.2820   22.2000 C   0  0  0  0  0  2  0  0  0  0  0  0
  -19.3350  -27.1390   21.1750 C   0  0  0  0  0  2  0  0  0  0  0  0
  -17.9720  -27.2260   21.8660 C   0  0  0  0  0  2  0  0  0  0  0  0
  -18.9980  -29.1290   23.2440 C   0  0  0  0  0  0  0  0  0  0  0  0
  -18.8300  -30.2970   24.0180 C   0  0  0  0  0  3  0  0  0  0  0  0
  -17.5450  -30.8040   24.2870 C   0  0  0  0  0  3  0  0  0  0  0  0
  -16.4100  -30.1380   23.7950 C   0  0  0  0  0  3  0  0  0  0  0  0
  -16.5620  -28.9700   23.0250 C   0  0  0  0  0  3  0  0  0  0  0  0
  -26.2880  -32.0070   23.8200 C   0  0  0  0  0  3  0  0  0  0  0  0
  -26.2230  -33.3010   24.5130 N   0  0  0  0  0  0  0  0  0  0  0  0
  -26.6390  -34.4650   23.9960 C   0  0  0  0  0  0  0  0  0  0  0  0
  -27.1900  -34.5480   22.8950 O   0  0  0  0  0  0  0  0  0  0  0  0
  -25.7340  -33.3150   25.3960 H   0  0  0  0  0  0  0  0  0  0  0  0
  -25.1960  -36.5050   24.2870 C   0  0  0  0  0  1  0  0  0  0  0  0
  -26.4110  -35.7380   24.8340 C   0  0  0  0  0  3  0  0  0  0  0  0
  -28.7090  -36.0800   25.6290 C   0  0  0  0  0  1  0  0  0  0  0  0
  -27.5870  -36.6340   24.8770 N   0  0  0  0  0  0  0  0  0  0  0  0
  -27.3420  -37.5300   25.2890 H   0  0  0  0  0  0  0  0  0  0  0  0
  -26.8600  -30.8910   24.7800 C   0  0  1  0  0  0  0  0  0  0  0  0
  -25.9020  -30.5110   25.9340 C   0  0  0  0  0  1  0  0  0  0  0  0
  -27.1810  -29.6000   23.9910 C   0  0  0  0  0  1  0  0  0  0  0  0
  -28.1930  -31.3700   25.4010 C   0  0  0  0  0  1  0  0  0  0  0  0
  1  3  1  0
  1  2  1  0
  2  7  1  0
  3 49  1  0
  3  2  1  0
  5  4  2  0
  6  8  2  0
  7  9  2  0
  7  6  1  0
  8  4  1  0
  8 10  1  0
  9  5  1  0
 11 17  1  0
 11 19  1  0
 12 17  1  0
 13 14  1  0
 13 12  1  0
 15 14  1  0
 15 24  1  0
 15 16  1  0
 17 16  1  0
 18 11  2  0
 19  9  1  0
 20 19  1  0
 21 22  2  0
 22 41  1  0
 23 26  1  0
 23 22  1  0
 24 25  1  0
 24 21  1  0
 25 23  2  0
 26 27  1  0
 27 28  2  0
 29 28  1  0
 30 29  2  0
 31 30  1  0
 31 26  2  0
 32 29  1  0
 32 33  1  0
 33 34  1  0
 34 35  2  0
 36 35  1  0
 36 40  1  0
 37 36  2  0
 38 33  2  0
 38 37  1  0
 39 38  1  0
 41 42  1  0
 42 45  1  0
 42 44  1  0
 43 41  2  0
 46 21  1  0
 46 47  1  0
 48 46  1  0
 49 53  1  0
 49 52  1  0
 50 51  1  0
 52 50  1  0
 52 51  1  0
 53 54  2  0
 55 57  1  0
 55 54  1  0
 56 67  2  0
 57 62  1  0
 58 66  1  0
 58 68  1  0
 59 65  1  0
 59 61  1  0
 60 66  1  0
 61 60  1  0
 62 61  2  0
 63 64  1  0
 63 57  2  0
 64 59  2  0
 65 58  1  0
 66 56  1  0
 68 70  2  0
 69 68  1  0
 71 69  1  0
 72 81  2  0
 72 77  1  0
 73 69  1  0
 73 77  1  0
 74 73  1  0
 75 76  1  0
 75 74  1  0
 76 72  1  0
 77 78  2  0
 78 79  1  0
 80 79  2  0
 81 80  1  0
 82 56  1  0
 82 83  1  0
 82 92  1  0
 83 86  1  0
 84 83  1  0
 84 88  1  0
 85 84  2  0
 88 87  1  0
 88 90  1  0
 90 91  1  0
 90 89  1  0
 92 95  1  1
 92 93  1  0
 94 92  1  0
M  ISO  4  11 100  19 100  54 101  55 101
M  END
>  <TORSDO>  (95) 
F 21

>  <SCORE>  (95) 
-9.638

>  <name>  (95) 
95

>  <ligand_id>  (95) 
95

>  <original_smiles>  (95) 
[H]c1c([H])c([H])c2c(c1[H])C([H])([H])C([H])([H])C([H])([H])C2([H])N([H])C(=O)C1([H])N(C(=O)C([H])(N([H])C(=O)C([H])(N([H])C([H])([H])[H])C([H])([H])[H])C(C([H])([H])[H])(C([H])([H])[H])C([H])([H])[H])C([H])([H])c2c([H])c(OC([H])([H])C([H])([H])C([H])(C3([H])C([H])([H])C3([H])[H])C3([H])C([H])([H])C3([H])c3c([H])c(C([H])([H])[H])c([H])c([H])c3N([H])C(=O)N3C([H])([H])C([H])([H])C([H])([H])C([H])(n4nc(-c5c([H])c([H])c(Oc6c([H])c([H])c(F)c([H])c6F)c([H])c5[H])c(C(=O)N([H])[H])c4N([H])[H])C3([H])[H])c([H])c([H])c2C1([H])[H]

>  <smiles>  (95) 
[H]c1c([H])c([H])c2c(c1[H])C([H])([H])C([H])([H])C([H])([H])C2([H])N([H])C(=O)C1([H])N(C(=O)C([H])(N([H])C(=O)C([H])(N([H])C([H])([H])[H])C([H])([H])[H])C(C([H])([H])[H])(C([H])([H])[H])C([H])([H])[H])C([H])([H])c2c([H])c(OC([H])([H])C([H])([H])C([H])(C3([H])C([H])([H])C3([H])[H])C3([H])C([H])([H])C3([H])c3c([H])c(C([H])([H])[H])c([H])c([H])c3N([H])C(=O)N3C([H])([H])C([H])([H])C([H])([H])C([H])(n4nc(-c5c([H])c([H])c(Oc6c([H])c([H])c(F)c([H])c6F)c([H])c5[H])c(C(=O)N([H])[H])c4N([H])[H])C3([H])[H])c([H])c([H])c2C1([H])[H]

$$$$
96:0:0
     RDKit          3D

 96105  0  0  1  0  0  0  0  0999 V2000
  -31.1610  -20.2240   20.7530 C   0  0  0  0  0  3  0  0  0  0  0  0
  -28.9520  -21.1520   20.4640 C   0  0  0  0  0  3  0  0  0  0  0  0
  -30.8990  -22.6310   20.1940 C   0  0  0  0  0  0  0  0  0  0  0  0
  -31.7120  -21.4930   20.4920 C   0  0  0  0  0  0  0  0  0  0  0  0
  -29.7800  -19.9910   20.7340 C   0  0  0  0  0  0  0  0  0  0  0  0
  -29.4660  -22.4880   20.1710 C   0  0  0  0  0  0  0  0  0  0  0  0
  -31.6150  -23.9400   19.8970 C   0  0  0  0  0  0  0  0  0  0  0  0
  -33.2300  -21.5780   20.4900 C   0  0  0  0  0  2  0  0  0  0  0  0
  -33.1230  -23.9230   19.6210 C   0  0  0  0  0  2  0  0  0  0  0  0
  -33.7100  -22.5290   19.4020 C   0  0  0  0  0  2  0  0  0  0  0  0
  -31.0880  -25.0510   19.8790 O   0  0  0  0  0  0  0  0  0  0  0  0
  -29.2560  -18.5090   21.0010 C   0  0  0  0  0  3  0  0  0  0  0  0
  -30.3000  -17.2690   21.0070 C   0  0  0  0  0  3  0  0  0  0  0  0
  -30.5730  -14.6960   20.6890 C   0  0  0  0  0  0  0  0  0  0  0  0
  -30.3630  -12.4820   19.5640 C   0  0  0  0  0  2  0  0  0  0  0  0
  -29.4410  -12.6240   18.3330 C   0  0  0  0  0  2  0  0  0  0  0  0
  -27.9640  -12.4460   18.7370 C   0  0  0  0  0  2  0  0  0  0  0  0
  -27.5810  -13.2750   19.9920 C   0  0  0  0  0  3  0  0  0  0  0  0
  -28.6250  -13.1240   21.1200 C   0  0  0  0  0  2  0  0  0  0  0  0
  -29.9300  -13.4890   20.5580 N   0  0  0  0  0  0  0  0  0  0  0  0
  -31.7640  -14.8020   20.3900 O   0  0  0  0  0  0  0  0  0  0  0  0
  -29.8170  -15.8240   20.9490 N   0  0  0  0  0  0  0  0  0  0  0  0
  -28.8370  -15.6670   21.1260 H   0  0  0  0  0  0  0  0  0  0  0  0
  -25.1710  -13.8340   20.6690 C   0  0  0  0  0  0  0  0  0  0  0  0
  -24.1070  -13.0450   21.0080 C   0  0  0  0  0  0  0  0  0  0  0  0
  -24.5860  -11.7000   20.9800 C   0  0  0  0  0  0  0  0  0  0  0  0
  -26.2300  -12.9690   20.4510 N   0  0  0  0  0  0  0  0  0  0  0  0
  -25.8840  -11.6800   20.7020 N   0  0  0  0  0  0  0  0  0  0  0  0
  -23.8700  -10.4280   21.1430 C   0  0  0  0  0  0  0  0  0  0  0  0
  -24.2850   -9.4630   22.0870 C   0  0  0  0  0  3  0  0  0  0  0  0
  -23.5690   -8.2570   22.2400 C   0  0  0  0  0  3  0  0  0  0  0  0
  -22.4240   -8.0050   21.4460 C   0  0  0  0  0  0  0  0  0  0  0  0
  -22.0310   -8.9580   20.4900 C   0  0  0  0  0  3  0  0  0  0  0  0
  -22.7470  -10.1570   20.3380 C   0  0  0  0  0  3  0  0  0  0  0  0
  -21.6830   -6.8510   21.5070 O   0  0  0  0  0  0  0  0  0  0  0  0
  -21.6040   -6.1050   22.6550 C   0  0  0  0  0  0  0  0  0  0  0  0
  -21.0990   -6.6410   23.8610 C   0  0  0  0  0  3  0  0  0  0  0  0
  -20.9730   -5.8190   24.9980 C   0  0  0  0  0  3  0  0  0  0  0  0
  -21.3400   -4.4620   24.9320 C   0  0  0  0  0  0  0  0  0  0  0  0
  -21.8380   -3.9250   23.7310 C   0  0  0  0  0  3  0  0  0  0  0  0
  -21.9660   -4.7440   22.5960 C   0  0  0  0  0  0  0  0  0  0  0  0
  -22.4260   -4.2170   21.4360 F   0  0  0  0  0  0  0  0  0  0  0  0
  -21.2110   -3.6700   26.0210 F   0  0  0  0  0  0  0  0  0  0  0  0
  -22.6970  -13.5040   21.2490 C   0  0  0  0  0  0  0  0  0  0  0  0
  -21.9560  -12.7920   22.0900 N   0  0  0  0  0  0  0  0  0  0  0  0
  -22.2620  -14.5290   20.7260 O   0  0  0  0  0  0  0  0  0  0  0  0
  -22.3210  -11.9610   22.5340 H   0  0  0  0  0  0  0  0  0  0  0  0
  -21.0100  -13.0800   22.2930 H   0  0  0  0  0  0  0  0  0  0  0  0
  -25.3230  -15.2080   20.5010 N   0  0  0  0  0  0  0  0  0  0  0  0
  -24.5430  -15.8500   20.5920 H   0  0  0  0  0  0  0  0  0  0  0  0
  -26.1630  -15.6560   20.1630 H   0  0  0  0  0  0  0  0  0  0  0  0
  -28.5410  -23.7010   19.6480 C   0  0  0  0  0  3  0  0  0  0  0  0
  -27.6670  -22.4510   17.5400 C   0  0  0  0  0  1  0  0  0  0  0  0
  -27.3200  -23.2250   18.8250 C   0  0  0  0  0  2  0  0  0  0  0  0
  -28.0970  -24.9080   20.6290 C   0  0  0  0  0  2  0  0  0  0  0  0
  -28.2520  -26.3320   20.1900 O   0  0  0  0  0  0  0  0  0  0  0  0
  -24.6600  -31.7880   23.3440 C   0  0  0  0  0  0  0  0  0  0  0  0
  -27.1500  -27.2040   20.2110 C   0  0  0  0  0  0  0  0  0  0  0  0
  -23.4250  -30.4590   21.6700 C   0  0  0  0  0  3  0  0  0  0  0  0
  -24.8350  -28.8900   20.2240 C   0  0  0  0  0  0  0  0  0  0  0  0
  -25.9740  -30.7050   21.5030 C   0  0  0  0  0  2  0  0  0  0  0  0
  -26.0170  -29.3360   20.8280 C   0  0  0  0  0  0  0  0  0  0  0  0
  -27.1820  -28.5080   20.8020 C   0  0  0  0  0  3  0  0  0  0  0  0
  -25.9440  -26.8090   19.5980 C   0  0  0  0  0  3  0  0  0  0  0  0
  -24.8010  -27.6330   19.6000 C   0  0  0  0  0  3  0  0  0  0  0  0
  -23.6250  -29.8020   20.2800 C   0  0  0  0  0  2  0  0  0  0  0  0
  -24.7060  -31.0000   22.2290 N   0  0  0  0  0  0  0  0  0  0  0  0
  -23.5830  -32.0860   23.8790 O   0  0  0  0  0  0  0  0  0  0  0  0
  -22.7260  -29.4450   22.6070 C   0  0  0  0  0  0  0  0  0  0  0  0
  -21.4040  -29.2770   22.4400 N   0  0  0  0  0  0  0  0  0  0  0  0
  -23.3760  -28.8100   23.4430 O   0  0  0  0  0  0  0  0  0  0  0  0
  -20.9400  -29.8390   21.7410 H   0  0  0  0  0  0  0  0  0  0  0  0
  -18.0150  -28.0600   22.7960 C   0  0  0  0  0  0  0  0  0  0  0  0
  -20.5560  -28.3430   23.1830 C   0  0  0  0  0  3  0  0  0  0  0  0
  -20.6960  -26.9050   22.6320 C   0  0  0  0  0  2  0  0  0  0  0  0
  -19.6450  -26.5620   21.5700 C   0  0  0  0  0  2  0  0  0  0  0  0
  -18.2330  -26.7040   22.1450 C   0  0  0  0  0  2  0  0  0  0  0  0
  -19.1060  -28.8360   23.2680 C   0  0  0  0  0  0  0  0  0  0  0  0
  -18.8500  -30.1040   23.8330 C   0  0  0  0  0  3  0  0  0  0  0  0
  -17.5350  -30.5960   23.9310 C   0  0  0  0  0  3  0  0  0  0  0  0
  -16.4570  -29.8180   23.4750 C   0  0  0  0  0  3  0  0  0  0  0  0
  -16.6980  -28.5510   22.9130 C   0  0  0  0  0  3  0  0  0  0  0  0
  -25.9570  -32.3700   23.9850 C   0  0  0  0  0  3  0  0  0  0  0  0
  -25.6930  -33.7750   24.3270 N   0  0  0  0  0  0  0  0  0  0  0  0
  -26.0780  -34.8240   23.5890 C   0  0  0  0  0  0  0  0  0  0  0  0
  -26.7620  -34.7090   22.5680 O   0  0  0  0  0  0  0  0  0  0  0  0
  -25.0880  -33.9410   25.1180 H   0  0  0  0  0  0  0  0  0  0  0  0
  -24.4260  -36.6870   23.2250 C   0  0  0  0  0  1  0  0  0  0  0  0
  -25.6340  -36.2240   24.0550 C   0  0  0  0  0  3  0  0  0  0  0  0
  -27.7790  -37.0220   24.9450 C   0  0  0  0  0  1  0  0  0  0  0  0
  -26.7090  -37.2390   23.9770 N   0  0  0  0  0  0  0  0  0  0  0  0
  -26.3340  -38.1730   24.1220 H   0  0  0  0  0  0  0  0  0  0  0  0
  -26.4320  -31.5700   25.2600 C   0  0  1  0  0  0  0  0  0  0  0  0
  -25.3190  -31.3590   26.3130 C   0  0  0  0  0  1  0  0  0  0  0  0
  -26.9740  -30.1770   24.8640 C   0  0  0  0  0  1  0  0  0  0  0  0
  -27.6010  -32.3190   25.9430 C   0  0  0  0  0  1  0  0  0  0  0  0
  2  5  2  0
  3  4  1  0
  4  1  2  0
  5  1  1  0
  5 12  1  0
  6  3  2  0
  6  2  1  0
  7  3  1  0
  8  4  1  0
  9  7  1  0
 10  9  1  0
 10  8  1  0
 11  7  2  0
 12 13  2  0
 14 22  1  0
 15 20  1  0
 16 17  1  0
 16 15  1  0
 18 17  1  0
 18 27  1  0
 18 19  1  0
 20 14  1  0
 20 19  1  0
 21 14  2  0
 22 13  1  0
 22 23  1  0
 24 25  2  0
 25 44  1  0
 26 25  1  0
 26 29  1  0
 27 24  1  0
 27 28  1  0
 28 26  2  0
 29 30  1  0
 30 31  2  0
 32 35  1  0
 32 31  1  0
 33 32  2  0
 34 33  1  0
 34 29  2  0
 35 36  1  0
 36 37  1  0
 37 38  2  0
 39 38  1  0
 39 43  1  0
 40 39  2  0
 41 36  2  0
 41 40  1  0
 42 41  1  0
 44 45  1  0
 45 48  1  0
 45 47  1  0
 46 44  2  0
 49 50  1  0
 49 24  1  0
 51 49  1  0
 52 54  1  0
 52  6  1  0
 52 55  1  0
 53 54  1  0
 56 58  1  0
 56 55  1  0
 57 68  2  0
 58 63  1  0
 59 67  1  0
 59 69  1  0
 60 66  1  0
 60 62  1  0
 61 67  1  0
 62 61  1  0
 63 62  2  0
 64 65  1  0
 64 58  2  0
 65 60  2  0
 66 59  1  0
 67 57  1  0
 69 71  2  0
 70 69  1  0
 72 70  1  0
 73 82  2  0
 73 78  1  0
 74 70  1  0
 74 78  1  0
 75 74  1  0
 76 77  1  0
 76 75  1  0
 77 73  1  0
 78 79  2  0
 79 80  1  0
 81 80  2  0
 82 81  1  0
 83 57  1  0
 83 84  1  0
 83 93  1  0
 84 87  1  0
 85 89  1  0
 85 84  1  0
 86 85  2  0
 89 88  1  0
 91 89  1  0
 91 92  1  0
 91 90  1  0
 93 96  1  1
 93 94  1  0
 95 93  1  0
M  ISO  4  14 100  22 100  55 101  56 101
M  END
>  <TORSDO>  (96) 
F 21

>  <SCORE>  (96) 
-13.161

>  <name>  (96) 
96

>  <ligand_id>  (96) 
96

>  <original_smiles>  (96) 
[H]c1c([H])c([H])c2c(c1[H])C([H])([H])C([H])([H])C([H])([H])C2([H])N([H])C(=O)C1([H])N(C(=O)C([H])(N([H])C(=O)C([H])(N([H])C([H])([H])[H])C([H])([H])[H])C(C([H])([H])[H])(C([H])([H])[H])C([H])([H])[H])C([H])([H])c2c([H])c(OC([H])([H])C([H])(c3c([H])c(C([H])([H])C([H])([H])N([H])C(=O)N4C([H])([H])C([H])([H])C([H])([H])C([H])(n5nc(-c6c([H])c([H])c(Oc7c([H])c([H])c(F)c([H])c7F)c([H])c6[H])c(C(=O)N([H])[H])c5N([H])[H])C4([H])[H])c([H])c4c3C(=O)C([H])([H])C([H])([H])C4([H])[H])C([H])([H])C([H])([H])[H])c([H])c([H])c2C1([H])[H]

>  <smiles>  (96) 
[H]c1c([H])c([H])c2c(c1[H])C([H])([H])C([H])([H])C([H])([H])C2([H])N([H])C(=O)C1([H])N(C(=O)C([H])(N([H])C(=O)C([H])(N([H])C([H])([H])[H])C([H])([H])[H])C(C([H])([H])[H])(C([H])([H])[H])C([H])([H])[H])C([H])([H])c2c([H])c(OC([H])([H])C([H])(c3c([H])c(C([H])([H])C([H])([H])N([H])C(=O)N4C([H])([H])C([H])([H])C([H])([H])C([H])(n5nc(-c6c([H])c([H])c(Oc7c([H])c([H])c(F)c([H])c7F)c([H])c6[H])c(C(=O)N([H])[H])c5N([H])[H])C4([H])[H])c([H])c4c3C(=O)C([H])([H])C([H])([H])C4([H])[H])C([H])([H])C([H])([H])[H])c([H])c([H])c2C1([H])[H]

$$$$
97:0:0
     RDKit          3D

 94 92  0  0  1  0  0  0  0  0999 V2000
  -28.1470  -11.7370   20.4040 C   0  0  0  0  0  2  0  0  0  0  0  0
  -29.2880  -12.4740   20.1060 C   0  0  0  0  0  1  0  0  0  0  0  0
  -28.7000  -14.4020   17.7830 C   0  0  0  0  0  2  0  0  0  0  0  0
  -27.2490  -12.5700   19.8610 C   0  0  0  0  0  1  0  0  0  0  0  0
  -27.2580  -13.9280   18.2260 C   0  0  0  0  0  1  0  0  0  0  0  0
  -29.8480  -13.8680   18.7590 C   0  0  0  0  0  2  0  0  0  0  0  0
  -27.0080  -13.4780   21.8410 C   0  0  0  0  0  2  0  0  0  0  0  0
  -26.9240  -15.9530   18.5540 C   0  0  0  0  0 15  0  0  0  0  0  0
  -26.9770  -15.6400   21.7860 C   0  0  0  0  0 15  0  0  0  0  0  0
  -27.0550  -17.2020   20.2270 C   0  0  0  0  0 15  0  0  0  0  0  0
  -26.9190  -12.8630   22.9070 O   0  0  0  0  0  0  0  0  0  0  0  0
  -31.1090  -14.6970   18.3360 C   0  0  0  0  0  2  0  0  0  0  0  0
  -31.2210  -16.0630   19.0670 C   0  0  0  0  0  2  0  0  0  0  0  0
  -31.9970  -14.7620   20.9310 C   0  0  0  0  0  0  0  0  0  0  0  0
  -31.6780  -12.3870   19.8490 C   0  0  0  0  0  3  0  0  0  0  0  0
  -30.6020  -11.5880   18.4170 C   0  0  0  0  0  3  0  0  0  0  0  0
  -28.7490  -12.0110   18.1590 C   0  0  0  0  0  1  0  0  0  0  0  0
  -28.2160  -14.5240   20.1620 C   0  0  0  0  0  1  0  0  0  0  0  0
  -29.6310  -14.4520   21.4440 C   0  0  0  0  0  2  0  0  0  0  0  0
  -31.1760  -13.7670   20.9680 N   0  0  0  0  0  0  0  0  0  0  0  0
  -33.1670  -14.5610   20.8270 O   0  0  0  0  0  0  0  0  0  0  0  0
  -31.5490  -15.9380   20.4860 N   0  0  0  0  0  0  0  0  0  0  0  0
  -32.1000  -16.7200   20.8140 H   0  0  0  0  0  0  0  0  0  0  0  0
  -24.7430  -14.5110   20.7710 C   0  0  0  0  0  3  0  0  0  0  0  0
  -24.0070  -13.3930   21.1420 C   0  0  1  0  0  0  0  0  0  0  0  0
  -24.5990  -12.1660   20.7980 C   0  0  0  0  0  3  0  0  0  0  0  0
  -25.8250  -14.2490   20.0950 N   0  0  0  0  0  2  0  0  0  0  0  0
  -25.0420  -12.9140   19.7530 N   0  0  0  0  0  0  0  0  0  0  0  0
  -24.0860  -10.6780   20.8890 C   0  0  0  0  0  0  0  0  0  0  0  0
  -24.4670   -9.7210   21.8970 C   0  0  0  0  0  3  0  0  0  0  0  0
  -23.7910   -8.4700   22.1040 C   0  0  0  0  0  3  0  0  0  0  0  0
  -22.6740   -8.1100   21.3110 C   0  0  0  0  0  0  0  0  0  0  0  0
  -22.3230   -9.0070   20.2850 C   0  0  0  0  0  3  0  0  0  0  0  0
  -23.0050  -10.2340   20.0780 C   0  0  0  0  0  3  0  0  0  0  0  0
  -21.9340   -6.9340   21.4100 O   0  0  0  0  0  0  0  0  0  0  0  0
  -21.7770   -6.1920   22.5670 C   0  0  0  0  0  0  0  0  0  0  0  0
  -21.2980   -6.7640   23.7660 C   0  0  0  0  0  3  0  0  0  0  0  0
  -21.0920   -5.9610   24.9090 C   0  0  0  0  0  3  0  0  0  0  0  0
  -21.3530   -4.5770   24.8590 C   0  0  0  0  0  0  0  0  0  0  0  0
  -21.8050   -3.9970   23.6630 C   0  0  0  0  0  3  0  0  0  0  0  0
  -22.0060   -4.7970   22.5220 C   0  0  0  0  0  0  0  0  0  0  0  0
  -22.4140   -4.2110   21.3710 F   0  0  0  0  0  0  0  0  0  0  0  0
  -21.1680   -3.8080   25.9590 F   0  0  0  0  0  0  0  0  0  0  0  0
  -22.5640  -13.5230   21.0970 C   0  0  0  0  0  0  0  0  0  0  0  0
  -21.8710  -12.7300   21.8820 N   0  0  0  0  0  0  0  0  0  0  0  0
  -22.0760  -14.3440   20.3250 O   0  0  0  0  0  0  0  0  0  0  0  0
  -22.3170  -12.0970   22.5270 H   0  0  0  0  0  0  0  0  0  0  0  0
  -20.8630  -12.7540   21.8530 H   0  0  0  0  0  0  0  0  0  0  0  0
  -24.4900  -15.8110   20.6680 N   0  0  0  0  0  0  0  0  0  0  0  0
  -24.6040  -16.1330   19.7170 H   0  0  0  0  0  0  0  0  0  0  0  0
  -23.5540  -16.0370   20.9840 H   0  0  0  0  0  0  0  0  0  0  0  0
  -27.5490  -19.5780   20.3350 C   0  0  0  0  0 15  0  0  0  0  0  0
  -27.3220  -21.9770   20.0760 C   0  0  0  0  0 15  0  0  0  0  0  0
  -27.8330  -24.0670   20.2840 O   0  0  0  0  0  1  0  0  0  0  0  0
  -25.3280  -31.5400   23.2050 C   0  0  0  0  0  0  0  0  0  0  0  0
  -27.3150  -25.7440   20.2310 C   0  0  0  0  0  0  0  0  0  0  0  0
  -24.1550  -30.2120   21.5250 C   0  0  0  0  0  3  0  0  0  0  0  0
  -25.5210  -28.4370   20.1000 C   0  0  0  0  0  0  0  0  0  0  0  0
  -26.7410  -30.0050   21.5540 C   0  0  0  0  0  2  0  0  0  0  0  0
  -26.6890  -28.5160   20.8540 C   0  0  0  0  0  0  0  0  0  0  0  0
  -27.5670  -27.2150   20.8740 C   0  0  0  0  0  3  0  0  0  0  0  0
  -26.2450  -26.1070   19.3550 C   0  0  0  0  0  3  0  0  0  0  0  0
  -25.4030  -27.2800   19.3090 C   0  0  0  0  0  3  0  0  0  0  0  0
  -24.4260  -29.5400   20.1400 C   0  0  0  0  0  2  0  0  0  0  0  0
  -25.4480  -30.6430   22.1440 N   0  0  0  0  0  0  0  0  0  0  0  0
  -24.2200  -31.8870   23.6630 O   0  0  0  0  0  0  0  0  0  0  0  0
  -23.3570  -29.2600   22.4590 C   0  0  0  0  0  0  0  0  0  0  0  0
  -22.0180  -29.1740   22.3200 N   0  0  0  0  0  0  0  0  0  0  0  0
  -23.9650  -28.5950   23.3020 O   0  0  0  0  0  0  0  0  0  0  0  0
  -21.5710  -29.7630   21.6320 H   0  0  0  0  0  0  0  0  0  0  0  0
  -18.5830  -28.0540   22.7890 C   0  0  0  0  0  0  0  0  0  0  0  0
  -21.1520  -28.2440   23.0610 C   0  0  0  0  0  3  0  0  0  0  0  0
  -21.2080  -26.8260   22.4430 C   0  0  0  0  0  2  0  0  0  0  0  0
  -20.1040  -26.5750   21.4110 C   0  0  0  0  0  2  0  0  0  0  0  0
  -18.7230  -26.7310   22.0540 C   0  0  0  0  0  2  0  0  0  0  0  0
  -19.7210  -28.7720   23.2460 C   0  0  0  0  0  0  0  0  0  0  0  0
  -19.5280  -30.0070   23.9020 C   0  0  0  0  0  3  0  0  0  0  0  0
  -18.2330  -30.5260   24.0980 C   0  0  0  0  0  3  0  0  0  0  0  0
  -17.1120  -29.8070   23.6500 C   0  0  0  0  0  3  0  0  0  0  0  0
  -17.2880  -28.5720   23.0010 C   0  0  0  0  0  3  0  0  0  0  0  0
  -26.5600  -32.1910   23.9090 C   0  0  0  0  0  3  0  0  0  0  0  0
  -27.0340  -31.3880   25.1840 C   0  0  1  0  0  0  0  0  0  0  0  0
  -25.9090  -31.1260   26.2140 C   0  0  0  0  0  1  0  0  0  0  0  0
  -27.6270  -30.0180   24.7990 C   0  0  0  0  0  1  0  0  0  0  0  0
  -28.1690  -32.1610   25.8980 C   0  0  0  0  0  1  0  0  0  0  0  0
  -26.2060  -33.5740   24.3210 N   0  0  0  0  0  0  0  0  0  0  0  0
  -26.5240  -34.7010   23.6670 C   0  0  0  0  0  0  0  0  0  0  0  0
  -27.1880  -34.6920   22.6280 O   0  0  0  0  0  0  0  0  0  0  0  0
  -25.6090  -33.6530   25.1310 H   0  0  0  0  0  0  0  0  0  0  0  0
  -24.7610  -36.5070   23.5200 C   0  0  0  0  0  1  0  0  0  0  0  0
  -26.0380  -36.0510   24.2470 C   0  0  0  0  0  3  0  0  0  0  0  0
  -28.1910  -36.9220   25.0590 C   0  0  0  0  0  1  0  0  0  0  0  0
  -27.0480  -37.1330   24.1740 N   0  0  0  0  0  0  0  0  0  0  0  0
  -26.6310  -38.0300   24.4050 H   0  0  0  0  0  0  0  0  0  0  0  0
  2  1  1  0
  3  5  1  0
  3  6  1  0
  4  1  1  0
  7 11  2  0
 12  6  1  0
 12 13  1  0
 13 22  1  0
 14 20  1  0
 15 20  1  0
 16 15  2  0
 17 16  1  0
 18 19  1  0
 20 19  1  0
 21 14  2  0
 22 23  1  0
 22 14  1  0
 24 49  1  0
 24 25  1  0
 25 44  1  1
 26 29  1  0
 26 25  1  0
 27 24  1  0
 28 27  1  0
 28 26  1  0
 28 25  1  0
 29 30  1  0
 30 31  2  0
 32 35  1  0
 32 31  1  0
 33 32  2  0
 34 33  1  0
 34 29  2  0
 35 36  1  0
 36 37  1  0
 37 38  2  0
 39 38  1  0
 39 43  1  0
 40 39  2  0
 41 36  2  0
 41 40  1  0
 42 41  1  0
 44 45  1  0
 45 47  1  0
 46 44  2  0
 48 45  1  0
 49 51  1  0
 50 49  1  0
 55 66  2  0
 56 54  1  0
 56 61  1  0
 57 65  1  0
 57 67  1  0
 58 64  1  0
 58 60  1  0
 59 65  1  0
 60 61  2  0
 60 59  1  0
 62 56  2  0
 63 62  1  0
 63 58  2  0
 64 57  1  0
 65 55  1  0
 67 69  2  0
 68 67  1  0
 70 68  1  0
 71 80  2  0
 71 76  1  0
 72 68  1  0
 72 76  1  0
 73 72  1  0
 74 75  1  0
 74 73  1  0
 75 71  1  0
 76 77  2  0
 77 78  1  0
 79 78  2  0
 80 79  1  0
 81 55  1  0
 81 86  1  0
 81 82  1  0
 82 85  1  1
 82 83  1  0
 84 82  1  0
 86 89  1  0
 87 91  1  0
 87 86  1  0
 88 87  2  0
 91 90  1  0
 93 91  1  0
 93 94  1  0
 93 92  1  0
M  ISO  4  14 100  22 100  53 101  54 101
M  END
>  <TORSDO>  (97) 
F 20

>  <SCORE>  (97) 
-6.079

>  <name>  (97) 
97

>  <ligand_id>  (97) 
97

>  <original_smiles>  (97) 
[H]c1c([H])c([H])c2c(c1[H])C([H])([H])C([H])([H])C([H])([H])C2([H])N([H])C(=O)C1([H])N(C(=O)C([H])(N([H])C(=O)C([H])(N([H])C([H])([H])[H])C([H])([H])[H])C(C([H])([H])[H])(C([H])([H])[H])C([H])([H])[H])C([H])([H])c2c([H])c(OC([H])([H])C([H])([H])C3([H])C([H])([H])C(=O)c4c([H])c([H])c(C([H])([H])C([H])([H])N([H])C(=O)N5C([H])([H])C([H])([H])C([H])([H])C([H])(n6nc(-c7c([H])c([H])c(Oc8c([H])c([H])c(F)c([H])c8F)c([H])c7[H])c(C(=O)N([H])[H])c6N([H])[H])C5([H])[H])c([H])c4C3([H])[H])c([H])c([H])c2C1([H])[H]

>  <smiles>  (97) 
[H]c1c([H])c([H])c2c(c1[H])C([H])([H])C([H])([H])C([H])([H])C2([H])N([H])C(=O)C1([H])N(C(=O)C([H])(N([H])C(=O)C([H])(N([H])C([H])([H])[H])C([H])([H])[H])C(C([H])([H])[H])(C([H])([H])[H])C([H])([H])[H])C([H])([H])c2c([H])c(OC([H])([H])C([H])([H])C3([H])C([H])([H])C(=O)c4c([H])c([H])c(C([H])([H])C([H])([H])N([H])C(=O)N5C([H])([H])C([H])([H])C([H])([H])C([H])(n6nc(-c7c([H])c([H])c(Oc8c([H])c([H])c(F)c([H])c8F)c([H])c7[H])c(C(=O)N([H])[H])c6N([H])[H])C5([H])[H])c([H])c4C3([H])[H])c([H])c([H])c2C1([H])[H]

$$$$
