0:0:0
     RDKit          3D

 93102  0  0  1  0  0  0  0  0999 V2000
  -29.8980  -19.8580   21.2890 C   0  0  0  0  0  2  0  0  0  0  0  0
  -28.6910  -19.9290   19.2470 C   0  0  0  0  0  2  0  0  0  0  0  0
  -29.6130  -21.3480   20.8080 C   0  0  0  0  0  3  0  0  0  0  0  0
  -29.2300  -18.8210   20.3320 C   0  0  0  0  0  3  0  0  0  0  0  0
  -28.3460  -21.3930   19.9110 C   0  0  0  0  0  3  0  0  0  0  0  0
  -29.8090  -24.5300   23.7790 C   0  0  0  0  0  3  0  0  0  0  0  0
  -29.9400  -24.8180   22.4080 C   0  0  0  0  0  3  0  0  0  0  0  0
  -29.6090  -23.2010   24.1990 C   0  0  0  0  0  3  0  0  0  0  0  0
  -29.8780  -23.7780   21.4610 C   0  0  0  0  0  3  0  0  0  0  0  0
  -29.5380  -22.1610   23.2500 C   0  0  0  0  0  3  0  0  0  0  0  0
  -29.6790  -22.4400   21.8720 C   0  0  0  0  0  0  0  0  0  0  0  0
  -28.0580  -22.8370   19.0560 C   0  0  0  0  0  2  0  0  0  0  0  0
  -27.3690  -24.2670   19.6380 C   0  0  0  0  0  2  0  0  0  0  0  0
  -27.5520  -25.7330   19.1420 O   0  0  0  0  0  0  0  0  0  0  0  0
  -24.6700  -31.2980   23.0590 C   0  0  0  0  0  0  0  0  0  0  0  0
  -26.5710  -26.7660   19.3440 C   0  0  0  0  0  0  0  0  0  0  0  0
  -23.2290  -30.2100   21.3790 C   0  0  0  0  0  3  0  0  0  0  0  0
  -24.4140  -28.6850   19.6840 C   0  0  0  0  0  0  0  0  0  0  0  0
  -25.7780  -30.2730   21.0370 C   0  0  0  0  0  2  0  0  0  0  0  0
  -25.6710  -28.9640   20.2360 C   0  0  0  0  0  0  0  0  0  0  0  0
  -26.7530  -28.0260   20.0420 C   0  0  0  0  0  3  0  0  0  0  0  0
  -25.2910  -26.5820   18.7780 C   0  0  0  0  0  3  0  0  0  0  0  0
  -24.2350  -27.5050   18.9420 C   0  0  0  0  0  3  0  0  0  0  0  0
  -23.2840  -29.6770   19.9230 C   0  0  0  0  0  2  0  0  0  0  0  0
  -24.5850  -30.6060   21.8800 N   0  0  0  0  0  0  0  0  0  0  0  0
  -23.6560  -31.6120   23.7010 O   0  0  0  0  0  0  0  0  0  0  0  0
  -22.5260  -29.1630   22.2790 C   0  0  0  0  0  0  0  0  0  0  0  0
  -21.1840  -29.0970   22.2080 N   0  0  0  0  0  0  0  0  0  0  0  0
  -23.1870  -28.4150   23.0040 O   0  0  0  0  0  0  0  0  0  0  0  0
  -20.7090  -29.7520   21.6020 H   0  0  0  0  0  0  0  0  0  0  0  0
  -17.7550  -28.0610   22.7460 C   0  0  0  0  0  0  0  0  0  0  0  0
  -20.3330  -28.1460   22.9290 C   0  0  0  0  0  3  0  0  0  0  0  0
  -20.3230  -26.7670   22.2320 C   0  0  0  0  0  2  0  0  0  0  0  0
  -19.1680  -26.5980   21.2400 C   0  0  0  0  0  2  0  0  0  0  0  0
  -17.8220  -26.7680   21.9490 C   0  0  0  0  0  2  0  0  0  0  0  0
  -18.9330  -28.7170   23.1910 C   0  0  0  0  0  0  0  0  0  0  0  0
  -18.8150  -29.9330   23.8970 C   0  0  0  0  0  3  0  0  0  0  0  0
  -17.5510  -30.4910   24.1640 C   0  0  0  0  0  3  0  0  0  0  0  0
  -16.3870  -29.8300   23.7340 C   0  0  0  0  0  3  0  0  0  0  0  0
  -16.4910  -28.6180   23.0300 C   0  0  0  0  0  3  0  0  0  0  0  0
  -26.0450  -31.7400   23.6470 C   0  0  0  0  0  3  0  0  0  0  0  0
  -26.6100  -30.7370   24.7270 C   0  0  1  0  0  0  0  0  0  0  0  0
  -25.6030  -30.3990   25.8520 C   0  0  0  0  0  1  0  0  0  0  0  0
  -27.0450  -29.4060   24.0730 C   0  0  0  0  0  1  0  0  0  0  0  0
  -27.8740  -31.3380   25.3850 C   0  0  0  0  0  1  0  0  0  0  0  0
  -25.8690  -33.0810   24.2310 N   0  0  0  0  0  0  0  0  0  0  0  0
  -26.2900  -34.2220   23.6700 C   0  0  0  0  0  0  0  0  0  0  0  0
  -26.9330  -34.2490   22.6170 O   0  0  0  0  0  0  0  0  0  0  0  0
  -25.3040  -33.1400   25.0650 H   0  0  0  0  0  0  0  0  0  0  0  0
  -24.7640  -36.2280   23.6830 C   0  0  0  0  0  1  0  0  0  0  0  0
  -25.9430  -35.5400   24.3900 C   0  0  0  0  0  3  0  0  0  0  0  0
  -28.1420  -36.0250   25.3740 C   0  0  0  0  0  1  0  0  0  0  0  0
  -27.0830  -36.4800   24.4800 N   0  0  0  0  0  0  0  0  0  0  0  0
  -26.7710  -37.3940   24.7960 H   0  0  0  0  0  0  0  0  0  0  0  0
  -30.1550  -17.4460   19.9720 C   0  0  0  0  0  2  0  0  0  0  0  0
  -30.5560  -14.7420   20.0470 C   0  0  0  0  0  0  0  0  0  0  0  0
  -30.2670  -12.4880   18.9400 C   0  0  0  0  0  2  0  0  0  0  0  0
  -29.2490  -12.6010   17.7800 C   0  0  0  0  0  2  0  0  0  0  0  0
  -27.8120  -12.4040   18.2990 C   0  0  0  0  0  2  0  0  0  0  0  0
  -27.5280  -13.2230   19.5890 C   0  0  0  0  0  3  0  0  0  0  0  0
  -28.6650  -13.0910   20.6250 C   0  0  0  0  0  2  0  0  0  0  0  0
  -29.9030  -13.5140   19.9610 N   0  0  0  0  0  0  0  0  0  0  0  0
  -31.7220  -14.7910   19.6380 O   0  0  0  0  0  0  0  0  0  0  0  0
  -29.8620  -15.9410   20.3640 N   0  0  0  0  0  0  0  0  0  0  0  0
  -28.9380  -15.7770   20.7330 H   0  0  0  0  0  0  0  0  0  0  0  0
  -25.1940  -13.7880   20.4750 C   0  0  0  0  0  0  0  0  0  0  0  0
  -24.1500  -13.0060   20.8830 C   0  0  0  0  0  0  0  0  0  0  0  0
  -24.6040  -11.6540   20.7880 C   0  0  0  0  0  0  0  0  0  0  0  0
  -26.2190  -12.9140   20.1520 N   0  0  0  0  0  0  0  0  0  0  0  0
  -25.8760  -11.6240   20.4040 N   0  0  0  0  0  0  0  0  0  0  0  0
  -23.8800  -10.3910   20.9830 C   0  0  0  0  0  0  0  0  0  0  0  0
  -24.3420   -9.4070   21.8820 C   0  0  0  0  0  3  0  0  0  0  0  0
  -23.6190   -8.2100   22.0690 C   0  0  0  0  0  3  0  0  0  0  0  0
  -22.4170   -7.9890   21.3560 C   0  0  0  0  0  0  0  0  0  0  0  0
  -21.9710   -8.9620   20.4450 C   0  0  0  0  0  3  0  0  0  0  0  0
  -22.6950  -10.1510   20.2580 C   0  0  0  0  0  3  0  0  0  0  0  0
  -21.6620   -6.8460   21.4550 O   0  0  0  0  0  0  0  0  0  0  0  0
  -21.6020   -6.1200   22.6170 C   0  0  0  0  0  0  0  0  0  0  0  0
  -21.1280   -6.6780   23.8240 C   0  0  0  0  0  3  0  0  0  0  0  0
  -21.0190   -5.8750   24.9770 C   0  0  0  0  0  3  0  0  0  0  0  0
  -21.3770   -4.5140   24.9250 C   0  0  0  0  0  0  0  0  0  0  0  0
  -21.8430   -3.9550   23.7220 C   0  0  0  0  0  3  0  0  0  0  0  0
  -21.9540   -4.7560   22.5720 C   0  0  0  0  0  0  0  0  0  0  0  0
  -22.3820   -4.2070   21.4100 F   0  0  0  0  0  0  0  0  0  0  0  0
  -21.2680   -3.7400   26.0290 F   0  0  0  0  0  0  0  0  0  0  0  0
  -22.7720  -13.4810   21.2440 C   0  0  0  0  0  0  0  0  0  0  0  0
  -22.0950  -12.7750   22.1400 N   0  0  0  0  0  0  0  0  0  0  0  0
  -22.3110  -14.5180   20.7690 O   0  0  0  0  0  0  0  0  0  0  0  0
  -22.4810  -11.9350   22.5460 H   0  0  0  0  0  0  0  0  0  0  0  0
  -21.1750  -13.0830   22.4260 H   0  0  0  0  0  0  0  0  0  0  0  0
  -25.3470  -15.1630   20.3220 N   0  0  0  0  0  0  0  0  0  0  0  0
  -24.5720  -15.8010   20.4700 H   0  0  0  0  0  0  0  0  0  0  0  0
  -26.1520  -15.6080   19.8990 H   0  0  0  0  0  0  0  0  0  0  0  0
  2  5  1  0
  2  4  1  0
  3  1  1  0
  3 11  1  0
  4 55  1  0
  4  1  1  0
  5 12  1  0
  5  3  1  0
  6  8  1  0
  7  6  2  0
  9 11  2  0
  9  7  1  0
 10  8  2  0
 11 10  1  0
 12 13  1  0
 14 16  1  0
 14 13  1  0
 15 26  2  0
 16 21  1  0
 17 25  1  0
 17 27  1  0
 18 24  1  0
 18 20  1  0
 19 25  1  0
 20 19  1  0
 21 20  2  0
 22 23  1  0
 22 16  2  0
 23 18  2  0
 24 17  1  0
 25 15  1  0
 27 29  2  0
 28 27  1  0
 30 28  1  0
 31 40  2  0
 31 36  1  0
 32 28  1  0
 32 36  1  0
 33 32  1  0
 34 35  1  0
 34 33  1  0
 35 31  1  0
 36 37  2  0
 37 38  1  0
 39 38  2  0
 40 39  1  0
 41 15  1  0
 41 46  1  0
 41 42  1  0
 42 45  1  1
 42 43  1  0
 44 42  1  0
 46 49  1  0
 47 46  1  0
 47 51  1  0
 48 47  2  0
 51 50  1  0
 51 53  1  0
 53 54  1  0
 53 52  1  0
 55 64  1  0
 56 64  1  0
 57 62  1  0
 58 59  1  0
 58 57  1  0
 60 59  1  0
 60 69  1  0
 60 61  1  0
 62 56  1  0
 62 61  1  0
 63 56  2  0
 64 65  1  0
 66 67  2  0
 67 86  1  0
 68 67  1  0
 68 71  1  0
 69 70  1  0
 69 66  1  0
 70 68  2  0
 71 72  1  0
 72 73  2  0
 74 77  1  0
 74 73  1  0
 75 74  2  0
 76 75  1  0
 76 71  2  0
 77 78  1  0
 78 79  1  0
 79 80  2  0
 81 80  1  0
 81 85  1  0
 82 81  2  0
 83 78  2  0
 83 82  1  0
 84 83  1  0
 86 87  1  0
 87 90  1  0
 87 89  1  0
 88 86  2  0
 91 92  1  0
 91 66  1  0
 93 91  1  0
M  ISO  4  13 101  14 101  56 100  64 100
M  END
>  <TORSDO>  (1) 
F 20

>  <SCORE>  (1) 
-13.128

>  <name>  (1) 
0

>  <ligand_id>  (1) 
0

>  <original_smiles>  (1) 
[H]c1c([H])c([H])c(C2([H])C([H])([H])C([H])(C([H])([H])N([H])C(=O)N3C([H])([H])C([H])([H])C([H])([H])C([H])(n4nc(-c5c([H])c([H])c(Oc6c([H])c([H])c(F)c([H])c6F)c([H])c5[H])c(C(=O)N([H])[H])c4N([H])[H])C3([H])[H])C([H])([H])C2([H])C([H])([H])C([H])([H])Oc2c([H])c([H])c3c(c2[H])C([H])([H])N(C(=O)C([H])(N([H])C(=O)C([H])(N([H])C([H])([H])[H])C([H])([H])[H])C(C([H])([H])[H])(C([H])([H])[H])C([H])([H])[H])C([H])(C(=O)N([H])C2([H])c4c([H])c([H])c([H])c([H])c4C([H])([H])C([H])([H])C2([H])[H])C3([H])[H])c([H])c1[H]

>  <smiles>  (1) 
[H]c1c([H])c([H])c(C2([H])C([H])([H])C([H])(C([H])([H])N([H])C(=O)N3C([H])([H])C([H])([H])C([H])([H])C([H])(n4nc(-c5c([H])c([H])c(Oc6c([H])c([H])c(F)c([H])c6F)c([H])c5[H])c(C(=O)N([H])[H])c4N([H])[H])C3([H])[H])C([H])([H])C2([H])C([H])([H])C([H])([H])Oc2c([H])c([H])c3c(c2[H])C([H])([H])N(C(=O)C([H])(N([H])C(=O)C([H])(N([H])C([H])([H])[H])C([H])([H])[H])C(C([H])([H])[H])(C([H])([H])[H])C([H])([H])[H])C([H])(C(=O)N([H])C2([H])c4c([H])c([H])c([H])c([H])c4C([H])([H])C([H])([H])C2([H])[H])C3([H])[H])c([H])c1[H]

$$$$
1:0:0
     RDKit          3D

 91100  0  0  1  0  0  0  0  0999 V2000
  -29.5280  -20.3640   19.1620 C   0  0  0  0  0  2  0  0  0  0  0  0
  -29.9550  -21.8690   19.1370 C   0  0  0  0  0  2  0  0  0  0  0  0
  -28.4260  -20.5120   21.3870 C   0  0  0  0  0  2  0  0  0  0  0  0
  -29.9070  -22.6670   21.6010 C   0  0  0  0  0  2  0  0  0  0  0  0
  -29.5000  -19.7250   20.5750 C   0  0  0  0  0  3  0  0  0  0  0  0
  -28.5650  -22.0460   21.3340 C   0  0  0  0  0  3  0  0  0  0  0  0
  -29.3070  -22.7700   20.2080 C   0  0  2  0  0  0  0  0  0  0  0  0
  -29.2650  -18.1680   20.5690 C   0  0  0  0  0  0  0  0  0  0  0  0
  -28.1190  -17.7080   20.6060 O   0  0  0  0  0  0  0  0  0  0  0  0
  -30.4740  -17.1890   20.5360 C   0  0  0  0  0  2  0  0  0  0  0  0
  -30.8020  -14.6890   20.1900 C   0  0  0  0  0  0  0  0  0  0  0  0
  -30.4890  -12.5040   19.0740 C   0  0  0  0  0  2  0  0  0  0  0  0
  -29.5020  -12.6930   17.9020 C   0  0  0  0  0  2  0  0  0  0  0  0
  -28.0460  -12.5470   18.3880 C   0  0  0  0  0  2  0  0  0  0  0  0
  -27.7520  -13.3820   19.6630 C   0  0  0  0  0  3  0  0  0  0  0  0
  -28.8520  -13.1800   20.7290 C   0  0  0  0  0  2  0  0  0  0  0  0
  -30.1440  -13.4970   20.1060 N   0  0  0  0  0  0  0  0  0  0  0  0
  -31.9350  -14.8470   19.7260 O   0  0  0  0  0  0  0  0  0  0  0  0
  -30.0820  -15.7500   20.6260 N   0  0  0  0  0  0  0  0  0  0  0  0
  -29.1490  -15.5690   20.9640 H   0  0  0  0  0  0  0  0  0  0  0  0
  -25.3940  -13.9810   20.4960 C   0  0  0  0  0  0  0  0  0  0  0  0
  -24.3380  -13.2060   20.8890 C   0  0  0  0  0  0  0  0  0  0  0  0
  -24.7900  -11.8530   20.8090 C   0  0  0  0  0  0  0  0  0  0  0  0
  -26.4230  -13.1000   20.1970 N   0  0  0  0  0  0  0  0  0  0  0  0
  -26.0650  -11.8130   20.4450 N   0  0  0  0  0  0  0  0  0  0  0  0
  -24.0630  -10.5910   21.0010 C   0  0  0  0  0  0  0  0  0  0  0  0
  -24.5030   -9.6210   21.9290 C   0  0  0  0  0  3  0  0  0  0  0  0
  -23.7790   -8.4220   22.1100 C   0  0  0  0  0  3  0  0  0  0  0  0
  -22.6010   -8.1860   21.3620 C   0  0  0  0  0  0  0  0  0  0  0  0
  -22.1810   -9.1430   20.4220 C   0  0  0  0  0  3  0  0  0  0  0  0
  -22.9050  -10.3320   20.2410 C   0  0  0  0  0  3  0  0  0  0  0  0
  -21.8470   -7.0410   21.4520 O   0  0  0  0  0  0  0  0  0  0  0  0
  -21.7730   -6.3170   22.6160 C   0  0  0  0  0  0  0  0  0  0  0  0
  -21.2620   -6.8740   23.8080 C   0  0  0  0  0  3  0  0  0  0  0  0
  -21.1380   -6.0750   24.9620 C   0  0  0  0  0  3  0  0  0  0  0  0
  -21.5130   -4.7180   24.9240 C   0  0  0  0  0  0  0  0  0  0  0  0
  -22.0160   -4.1610   23.7370 C   0  0  0  0  0  3  0  0  0  0  0  0
  -22.1420   -4.9570   22.5840 C   0  0  0  0  0  0  0  0  0  0  0  0
  -22.6080   -4.4080   21.4370 F   0  0  0  0  0  0  0  0  0  0  0  0
  -21.3870   -3.9500   26.0300 F   0  0  0  0  0  0  0  0  0  0  0  0
  -22.9570  -13.6840   21.2330 C   0  0  0  0  0  0  0  0  0  0  0  0
  -22.2620  -12.9660   22.1080 N   0  0  0  0  0  0  0  0  0  0  0  0
  -22.5050  -14.7280   20.7620 O   0  0  0  0  0  0  0  0  0  0  0  0
  -22.6410  -12.1220   22.5110 H   0  0  0  0  0  0  0  0  0  0  0  0
  -21.3370  -13.2660   22.3810 H   0  0  0  0  0  0  0  0  0  0  0  0
  -25.5600  -15.3560   20.3530 N   0  0  0  0  0  0  0  0  0  0  0  0
  -24.8080  -16.0100   20.5430 H   0  0  0  0  0  0  0  0  0  0  0  0
  -26.4210  -15.8190   20.0840 H   0  0  0  0  0  0  0  0  0  0  0  0
  -28.9750  -24.2030   19.6470 C   0  0  0  0  0  3  0  0  0  0  0  0
  -28.3730  -25.3150   20.5860 C   0  0  0  0  0  3  0  0  0  0  0  0
  -28.5030  -26.6910   20.1020 O   0  0  0  0  0  0  0  0  0  0  0  0
  -24.6530  -31.8900   23.2130 C   0  0  0  0  0  0  0  0  0  0  0  0
  -27.3570  -27.4750   20.0970 C   0  0  0  0  0  0  0  0  0  0  0  0
  -23.4810  -30.5070   21.5320 C   0  0  0  0  0  3  0  0  0  0  0  0
  -24.9640  -29.0080   20.0930 C   0  0  0  0  0  0  0  0  0  0  0  0
  -26.0090  -30.8790   21.3730 C   0  0  0  0  0  2  0  0  0  0  0  0
  -26.1160  -29.5190   20.7040 C   0  0  0  0  0  0  0  0  0  0  0  0
  -27.3200  -28.7650   20.6930 C   0  0  0  0  0  3  0  0  0  0  0  0
  -26.1880  -26.9950   19.4700 C   0  0  0  0  0  3  0  0  0  0  0  0
  -24.9990  -27.7490   19.4670 C   0  0  0  0  0  3  0  0  0  0  0  0
  -23.7140  -29.8590   20.1410 C   0  0  0  0  0  2  0  0  0  0  0  0
  -24.7320  -31.1090   22.0970 N   0  0  0  0  0  0  0  0  0  0  0  0
  -23.5630  -32.1410   23.7460 O   0  0  0  0  0  0  0  0  0  0  0  0
  -22.8290  -29.4620   22.4670 C   0  0  0  0  0  0  0  0  0  0  0  0
  -21.5030  -29.2850   22.3380 N   0  0  0  0  0  0  0  0  0  0  0  0
  -23.5130  -28.8140   23.2650 O   0  0  0  0  0  0  0  0  0  0  0  0
  -21.0110  -29.8580   21.6680 H   0  0  0  0  0  0  0  0  0  0  0  0
  -18.1230  -28.1120   22.8510 C   0  0  0  0  0  0  0  0  0  0  0  0
  -20.6880  -28.3290   23.0900 C   0  0  0  0  0  3  0  0  0  0  0  0
  -20.7630  -26.9200   22.4570 C   0  0  0  0  0  2  0  0  0  0  0  0
  -19.6410  -26.6510   21.4490 C   0  0  0  0  0  2  0  0  0  0  0  0
  -18.2720  -26.7870   22.1200 C   0  0  0  0  0  2  0  0  0  0  0  0
  -19.2580  -28.8430   23.2910 C   0  0  0  0  0  0  0  0  0  0  0  0
  -19.0640  -30.0850   23.9330 C   0  0  0  0  0  3  0  0  0  0  0  0
  -17.7680  -30.5930   24.1430 C   0  0  0  0  0  3  0  0  0  0  0  0
  -16.6490  -29.8590   23.7180 C   0  0  0  0  0  3  0  0  0  0  0  0
  -16.8270  -28.6200   23.0770 C   0  0  0  0  0  3  0  0  0  0  0  0
  -25.9240  -32.5240   23.8590 C   0  0  0  0  0  3  0  0  0  0  0  0
  -26.4210  -31.7540   25.1430 C   0  0  1  0  0  0  0  0  0  0  0  0
  -25.3100  -31.5090   26.1910 C   0  0  0  0  0  1  0  0  0  0  0  0
  -27.0190  -30.3790   24.7610 C   0  0  0  0  0  1  0  0  0  0  0  0
  -27.5540  -32.5530   25.8280 C   0  0  0  0  0  1  0  0  0  0  0  0
  -25.6040  -33.9210   24.1850 N   0  0  0  0  0  0  0  0  0  0  0  0
  -25.9460  -34.9760   23.4320 C   0  0  0  0  0  0  0  0  0  0  0  0
  -26.6340  -34.8750   22.4130 O   0  0  0  0  0  0  0  0  0  0  0  0
  -24.9960  -34.0730   24.9770 H   0  0  0  0  0  0  0  0  0  0  0  0
  -24.2310  -36.7720   23.0320 C   0  0  0  0  0  1  0  0  0  0  0  0
  -25.4450  -36.3620   23.8810 C   0  0  0  0  0  3  0  0  0  0  0  0
  -27.5470  -37.2470   24.7930 C   0  0  0  0  0  1  0  0  0  0  0  0
  -26.4810  -37.4140   23.8080 N   0  0  0  0  0  0  0  0  0  0  0  0
  -26.0710  -38.3350   23.9380 H   0  0  0  0  0  0  0  0  0  0  0  0
  1  5  1  0
  2  1  1  0
  2  7  1  0
  5  8  1  0
  5  3  1  0
  6  3  1  0
  6  4  1  0
  7 49  1  6
  7  6  1  0
  7  4  1  0
  8  9  2  0
 10  8  1  0
 10 19  1  0
 11 19  1  0
 12 17  1  0
 13 14  1  0
 13 12  1  0
 15 14  1  0
 15 24  1  0
 15 16  1  0
 17 11  1  0
 17 16  1  0
 18 11  2  0
 19 20  1  0
 21 22  2  0
 22 41  1  0
 23 22  1  0
 23 26  1  0
 24 25  1  0
 24 21  1  0
 25 23  2  0
 26 27  1  0
 27 28  2  0
 29 32  1  0
 29 28  1  0
 30 29  2  0
 31 30  1  0
 31 26  2  0
 32 33  1  0
 33 34  1  0
 34 35  2  0
 36 35  1  0
 36 40  1  0
 37 36  2  0
 38 33  2  0
 38 37  1  0
 39 38  1  0
 41 42  1  0
 42 45  1  0
 42 44  1  0
 43 41  2  0
 46 21  1  0
 46 47  1  0
 48 46  1  0
 49 50  2  0
 51 50  1  0
 52 63  2  0
 53 51  1  0
 53 58  1  0
 54 62  1  0
 54 64  1  0
 55 61  1  0
 55 57  1  0
 56 62  1  0
 57 56  1  0
 58 57  2  0
 59 53  2  0
 60 59  1  0
 60 55  2  0
 61 54  1  0
 62 52  1  0
 64 66  2  0
 65 64  1  0
 67 65  1  0
 68 77  2  0
 68 73  1  0
 69 65  1  0
 69 73  1  0
 70 69  1  0
 71 72  1  0
 71 70  1  0
 72 68  1  0
 73 74  2  0
 74 75  1  0
 76 75  2  0
 77 76  1  0
 78 52  1  0
 78 83  1  0
 78 79  1  0
 79 82  1  1
 79 80  1  0
 81 79  1  0
 83 86  1  0
 84 88  1  0
 84 83  1  0
 85 84  2  0
 88 87  1  0
 90 88  1  0
 90 91  1  0
 90 89  1  0
M  ISO  4  11 100  19 100  50 101  51 101
M  END
>  <TORSDO>  (2) 
F 20

>  <SCORE>  (2) 
-13.580

>  <name>  (2) 
1

>  <ligand_id>  (2) 
1

>  <original_smiles>  (2) 
[H]c1c([H])c([H])c2c(c1[H])C([H])([H])C([H])([H])C([H])([H])C2([H])N([H])C(=O)C1([H])N(C(=O)C([H])(N([H])C(=O)C([H])(N([H])C([H])([H])[H])C([H])([H])[H])C(C([H])([H])[H])(C([H])([H])[H])C([H])([H])[H])C([H])([H])c2c([H])c(OC([H])([H])C([H])([H])C34C([H])([H])C([H])([H])C([H])(C(=O)C([H])([H])N([H])C(=O)N5C([H])([H])C([H])([H])C([H])([H])C([H])(n6nc(-c7c([H])c([H])c(Oc8c([H])c([H])c(F)c([H])c8F)c([H])c7[H])c(C(=O)N([H])[H])c6N([H])[H])C5([H])[H])C([H])([H])C3([H])C4([H])[H])c([H])c([H])c2C1([H])[H]

>  <smiles>  (2) 
[H]c1c([H])c([H])c2c(c1[H])C([H])([H])C([H])([H])C([H])([H])C2([H])N([H])C(=O)C1([H])N(C(=O)C([H])(N([H])C(=O)C([H])(N([H])C([H])([H])[H])C([H])([H])[H])C(C([H])([H])[H])(C([H])([H])[H])C([H])([H])[H])C([H])([H])c2c([H])c(OC([H])([H])C([H])([H])C34C([H])([H])C([H])([H])C([H])(C(=O)C([H])([H])N([H])C(=O)N5C([H])([H])C([H])([H])C([H])([H])C([H])(n6nc(-c7c([H])c([H])c(Oc8c([H])c([H])c(F)c([H])c8F)c([H])c7[H])c(C(=O)N([H])[H])c6N([H])[H])C5([H])[H])C([H])([H])C3([H])C4([H])[H])c([H])c([H])c2C1([H])[H]

$$$$
2:0:0
     RDKit          3D

 95103  0  0  1  0  0  0  0  0999 V2000
  -33.7860  -20.3250   18.9750 C   0  0  0  0  0  2  0  0  0  0  0  0
  -32.6670  -19.6340   18.1930 C   0  0  0  0  0  2  0  0  0  0  0  0
  -33.0600  -21.0880   20.0830 C   0  0  0  0  0  2  0  0  0  0  0  0
  -31.3530  -20.3390   18.6120 C   0  0  0  0  0  3  0  0  0  0  0  0
  -31.7330  -21.4460   19.5290 N   0  0  2  0  0  4  0  0  0  0  0  0
  -31.0590  -21.4500   20.2800 H   0  0  0  0  0  0  0  0  0  0  0  0
  -30.3610  -19.3980   19.3120 C   0  0  0  0  0  0  0  0  0  0  0  0
  -28.9320  -19.4560   18.7860 C   0  0  0  0  0  1  0  0  0  0  0  0
  -30.7460  -18.6360   20.2660 N   0  0  0  0  0  0  0  0  0  0  0  0
  -29.8330  -17.6580   20.8340 C   0  0  0  0  0  2  0  0  0  0  0  0
  -30.6030  -16.6710   21.7370 C   0  0  0  0  0  2  0  0  0  0  0  0
  -30.7090  -14.4500   20.6190 C   0  0  0  0  0  0  0  0  0  0  0  0
  -30.3730  -12.3750   19.3310 C   0  0  0  0  0  2  0  0  0  0  0  0
  -29.4300  -12.6340   18.1400 C   0  0  0  0  0  2  0  0  0  0  0  0
  -27.9580  -12.4800   18.5670 C   0  0  0  0  0  2  0  0  0  0  0  0
  -27.6260  -13.2790   19.8560 C   0  0  0  0  0  3  0  0  0  0  0  0
  -28.6740  -12.9970   20.9550 C   0  0  0  0  0  2  0  0  0  0  0  0
  -30.0120  -13.3040   20.4120 N   0  0  0  0  0  0  0  0  0  0  0  0
  -31.7490  -14.7290   20.0160 O   0  0  0  0  0  0  0  0  0  0  0  0
  -30.1670  -15.2950   21.5060 N   0  0  0  0  0  0  0  0  0  0  0  0
  -29.3310  -14.9840   21.9820 H   0  0  0  0  0  0  0  0  0  0  0  0
  -25.2140  -13.8740   20.5390 C   0  0  0  0  0  0  0  0  0  0  0  0
  -24.1490  -13.0950   20.9030 C   0  0  0  0  0  0  0  0  0  0  0  0
  -24.6190  -11.7470   20.8780 C   0  0  0  0  0  0  0  0  0  0  0  0
  -26.2690  -13.0000   20.3210 N   0  0  0  0  0  0  0  0  0  0  0  0
  -25.9110  -11.7150   20.5790 N   0  0  0  0  0  0  0  0  0  0  0  0
  -23.9010  -10.4800   21.0670 C   0  0  0  0  0  0  0  0  0  0  0  0
  -24.3420   -9.5150   22.0010 C   0  0  0  0  0  3  0  0  0  0  0  0
  -23.6250   -8.3110   22.1770 C   0  0  0  0  0  3  0  0  0  0  0  0
  -22.4540   -8.0650   21.4220 C   0  0  0  0  0  0  0  0  0  0  0  0
  -22.0330   -9.0200   20.4780 C   0  0  0  0  0  3  0  0  0  0  0  0
  -22.7500  -10.2140   20.3000 C   0  0  0  0  0  3  0  0  0  0  0  0
  -21.7080   -6.9140   21.5080 O   0  0  0  0  0  0  0  0  0  0  0  0
  -21.6730   -6.1640   22.6560 C   0  0  0  0  0  0  0  0  0  0  0  0
  -21.2600   -6.7110   23.8910 C   0  0  0  0  0  3  0  0  0  0  0  0
  -21.1720   -5.8860   25.0300 C   0  0  0  0  0  3  0  0  0  0  0  0
  -21.4870   -4.5180   24.9370 C   0  0  0  0  0  0  0  0  0  0  0  0
  -21.8920   -3.9700   23.7070 C   0  0  0  0  0  3  0  0  0  0  0  0
  -21.9830   -4.7920   22.5690 C   0  0  0  0  0  0  0  0  0  0  0  0
  -22.3530   -4.2560   21.3810 F   0  0  0  0  0  0  0  0  0  0  0  0
  -21.3950   -3.7240   26.0290 F   0  0  0  0  0  0  0  0  0  0  0  0
  -22.7470  -13.5620   21.1660 C   0  0  0  0  0  0  0  0  0  0  0  0
  -22.0190  -12.8620   22.0290 N   0  0  0  0  0  0  0  0  0  0  0  0
  -22.3040  -14.5840   20.6430 O   0  0  0  0  0  0  0  0  0  0  0  0
  -22.3880  -12.0350   22.4760 H   0  0  0  0  0  0  0  0  0  0  0  0
  -21.0780  -13.1570   22.2480 H   0  0  0  0  0  0  0  0  0  0  0  0
  -25.3710  -15.2460   20.3570 N   0  0  0  0  0  0  0  0  0  0  0  0
  -24.5990  -15.8960   20.4570 H   0  0  0  0  0  0  0  0  0  0  0  0
  -26.2230  -15.6870   20.0350 H   0  0  0  0  0  0  0  0  0  0  0  0
  -31.7030  -22.7800   18.8640 C   0  0  0  0  0  2  0  0  0  0  0  0
  -31.7380  -23.9830   19.8360 C   0  0  0  0  0  2  0  0  0  0  0  0
  -30.3500  -24.4920   20.2690 C   0  0  0  0  0  2  0  0  0  0  0  0
  -30.4410  -25.8140   21.0550 C   0  0  0  0  0  2  0  0  0  0  0  0
  -29.0810  -26.4660   21.3470 C   0  0  0  0  0  2  0  0  0  0  0  0
  -28.4380  -26.7450   20.1060 O   0  0  0  0  0  0  0  0  0  0  0  0
  -24.6030  -31.8910   23.2320 C   0  0  0  0  0  0  0  0  0  0  0  0
  -27.2790  -27.4760   20.1780 C   0  0  0  0  0  0  0  0  0  0  0  0
  -23.4010  -30.4760   21.5940 C   0  0  0  0  0  3  0  0  0  0  0  0
  -24.8650  -28.9370   20.1810 C   0  0  0  0  0  0  0  0  0  0  0  0
  -25.9200  -30.8550   21.3940 C   0  0  0  0  0  2  0  0  0  0  0  0
  -26.0140  -29.4790   20.7710 C   0  0  0  0  0  0  0  0  0  0  0  0
  -27.2240  -28.7540   20.7760 C   0  0  0  0  0  3  0  0  0  0  0  0
  -26.1210  -26.9430   19.5790 C   0  0  0  0  0  3  0  0  0  0  0  0
  -24.9110  -27.6630   19.5850 C   0  0  0  0  0  3  0  0  0  0  0  0
  -23.6150  -29.7860   20.2180 C   0  0  0  0  0  2  0  0  0  0  0  0
  -24.6590  -31.0890   22.1320 N   0  0  0  0  0  0  0  0  0  0  0  0
  -23.5210  -32.1610   23.7720 O   0  0  0  0  0  0  0  0  0  0  0  0
  -22.7560  -29.4570   22.5580 C   0  0  0  0  0  0  0  0  0  0  0  0
  -21.4310  -29.2730   22.4330 N   0  0  0  0  0  0  0  0  0  0  0  0
  -23.4420  -28.8350   23.3730 O   0  0  0  0  0  0  0  0  0  0  0  0
  -20.9400  -29.8280   21.7460 H   0  0  0  0  0  0  0  0  0  0  0  0
  -18.0580  -28.0890   22.9400 C   0  0  0  0  0  0  0  0  0  0  0  0
  -20.6170  -28.3370   23.2060 C   0  0  0  0  0  3  0  0  0  0  0  0
  -20.7130  -26.9060   22.6280 C   0  0  0  0  0  2  0  0  0  0  0  0
  -19.6070  -26.5870   21.6170 C   0  0  0  0  0  2  0  0  0  0  0  0
  -18.2280  -26.7390   22.2650 C   0  0  0  0  0  2  0  0  0  0  0  0
  -19.1810  -28.8460   23.3680 C   0  0  0  0  0  0  0  0  0  0  0  0
  -18.9680  -30.1110   23.9580 C   0  0  0  0  0  3  0  0  0  0  0  0
  -17.6670  -30.6190   24.1270 C   0  0  0  0  0  3  0  0  0  0  0  0
  -16.5590  -29.8570   23.7160 C   0  0  0  0  0  3  0  0  0  0  0  0
  -16.7550  -28.5950   23.1290 C   0  0  0  0  0  3  0  0  0  0  0  0
  -25.8890  -32.5270   23.8490 C   0  0  0  0  0  3  0  0  0  0  0  0
  -25.5770  -33.9230   24.1780 N   0  0  0  0  0  0  0  0  0  0  0  0
  -25.9070  -34.9750   23.4180 C   0  0  0  0  0  0  0  0  0  0  0  0
  -26.5810  -34.8730   22.3880 O   0  0  0  0  0  0  0  0  0  0  0  0
  -24.9790  -34.0770   24.9780 H   0  0  0  0  0  0  0  0  0  0  0  0
  -24.1770  -36.7610   23.0520 C   0  0  0  0  0  1  0  0  0  0  0  0
  -25.4150  -36.3620   23.8710 C   0  0  0  0  0  3  0  0  0  0  0  0
  -27.5430  -37.2510   24.7130 C   0  0  0  0  0  1  0  0  0  0  0  0
  -26.4450  -37.4160   23.7630 N   0  0  0  0  0  0  0  0  0  0  0  0
  -26.0360  -38.3360   23.9100 H   0  0  0  0  0  0  0  0  0  0  0  0
  -26.4160  -31.7550   25.1210 C   0  0  1  0  0  0  0  0  0  0  0  0
  -25.3290  -31.5120   26.1930 C   0  0  0  0  0  1  0  0  0  0  0  0
  -27.0030  -30.3810   24.7210 C   0  0  0  0  0  1  0  0  0  0  0  0
  -27.5660  -32.5540   25.7790 C   0  0  0  0  0  1  0  0  0  0  0  0
  1  3  1  0
  2  4  1  0
  2  1  1  0
  4  7  1  0
  4  5  1  0
  5  3  1  0
  5  6  1  1
  7  9  2  0
  8  7  1  0
  9 10  1  0
 10 11  1  0
 12 20  1  0
 13 18  1  0
 14 15  1  0
 14 13  1  0
 16 15  1  0
 16 25  1  0
 16 17  1  0
 18 12  1  0
 18 17  1  0
 19 12  2  0
 20 11  1  0
 20 21  1  0
 22 23  2  0
 23 42  1  0
 24 23  1  0
 24 27  1  0
 25 22  1  0
 25 26  1  0
 26 24  2  0
 27 28  1  0
 28 29  2  0
 30 33  1  0
 30 29  1  0
 31 30  2  0
 32 31  1  0
 32 27  2  0
 33 34  1  0
 34 35  1  0
 35 36  2  0
 37 36  1  0
 37 41  1  0
 38 37  2  0
 39 34  2  0
 39 38  1  0
 40 39  1  0
 42 43  1  0
 43 46  1  0
 43 45  1  0
 44 42  2  0
 47 48  1  0
 47 22  1  0
 49 47  1  0
 50  5  1  0
 50 51  1  0
 51 52  1  0
 52 53  1  0
 53 54  1  0
 55 57  1  0
 55 54  1  0
 56 67  2  0
 57 62  1  0
 58 66  1  0
 58 68  1  0
 59 65  1  0
 59 61  1  0
 60 66  1  0
 61 62  2  0
 61 60  1  0
 63 64  1  0
 63 57  2  0
 64 59  2  0
 65 58  1  0
 66 56  1  0
 68 70  2  0
 69 68  1  0
 71 69  1  0
 72 81  2  0
 72 77  1  0
 73 69  1  0
 73 77  1  0
 74 73  1  0
 75 76  1  0
 75 74  1  0
 76 72  1  0
 77 78  2  0
 78 79  1  0
 80 79  2  0
 81 80  1  0
 82 56  1  0
 82 83  1  0
 82 92  1  0
 83 86  1  0
 84 88  1  0
 84 83  1  0
 85 84  2  0
 88 87  1  0
 90 88  1  0
 90 91  1  0
 90 89  1  0
 92 95  1  1
 92 93  1  0
 94 92  1  0
M  ISO  4  12 100  20 100  54 101  55 101
M  END
>  <TORSDO>  (3) 
F 24

>  <SCORE>  (3) 
-12.647

>  <name>  (3) 
2

>  <ligand_id>  (3) 
2

>  <original_smiles>  (3) 
[H]c1c([H])c([H])c2c(c1[H])C([H])([H])C([H])([H])C([H])([H])C2([H])N([H])C(=O)C1([H])N(C(=O)C([H])(N([H])C(=O)C([H])(N([H])C([H])([H])[H])C([H])([H])[H])C(C([H])([H])[H])(C([H])([H])[H])C([H])([H])[H])C([H])([H])c2c([H])c(OC([H])([H])C([H])([H])C([H])([H])C([H])([H])C([H])([H])[N+]3([H])C([H])([H])C([H])([H])C([H])([H])C3([H])C(=NC([H])([H])C([H])([H])N([H])C(=O)N3C([H])([H])C([H])([H])C([H])([H])C([H])(n4nc(-c5c([H])c([H])c(Oc6c([H])c([H])c(F)c([H])c6F)c([H])c5[H])c(C(=O)N([H])[H])c4N([H])[H])C3([H])[H])C([H])([H])[H])c([H])c([H])c2C1([H])[H]

>  <smiles>  (3) 
[H]c1c([H])c([H])c2c(c1[H])C([H])([H])C([H])([H])C([H])([H])C2([H])N([H])C(=O)C1([H])N(C(=O)C([H])(N([H])C(=O)C([H])(N([H])C([H])([H])[H])C([H])([H])[H])C(C([H])([H])[H])(C([H])([H])[H])C([H])([H])[H])C([H])([H])c2c([H])c(OC([H])([H])C([H])([H])C([H])([H])C([H])([H])C([H])([H])[N+]3([H])C([H])([H])C([H])([H])C([H])([H])C3([H])C(=NC([H])([H])C([H])([H])N([H])C(=O)N3C([H])([H])C([H])([H])C([H])([H])C([H])(n4nc(-c5c([H])c([H])c(Oc6c([H])c([H])c(F)c([H])c6F)c([H])c5[H])c(C(=O)N([H])[H])c4N([H])[H])C3([H])[H])C([H])([H])[H])c([H])c([H])c2C1([H])[H]

$$$$
3:0:0
     RDKit          3D

 96104  0  0  1  0  0  0  0  0999 V2000
  -30.8970  -20.4780   21.8080 C   0  0  0  0  0  3  0  0  0  0  0  0
  -30.8710  -21.2870   22.8930 C   0  0  0  0  0  0  0  0  0  0  0  0
  -29.6170  -21.9900   23.4400 C   0  0  0  0  0  2  0  0  0  0  0  0
  -28.3900  -22.1310   22.5110 C   0  0  0  0  0  2  0  0  0  0  0  0
  -29.1630  -21.2750   20.1790 C   0  0  0  0  0  2  0  0  0  0  0  0
  -29.7100  -20.0510   20.9600 C   0  0  0  0  0  3  0  0  0  0  0  0
  -28.6720  -22.4840   21.0330 C   0  0  0  0  0  3  0  0  0  0  0  0
  -32.1640  -21.5520   23.5340 C   0  0  0  0  0  0  0  0  0  0  0  0
  -32.0720  -21.8500   24.8240 N   0  0  0  0  0  0  0  0  0  0  0  0
  -33.2670  -21.5170   22.9880 O   0  0  0  0  0  0  0  0  0  0  0  0
  -31.1660  -21.8710   25.2690 H   0  0  0  0  0  0  0  0  0  0  0  0
  -32.9000  -22.0440   25.3680 H   0  0  0  0  0  0  0  0  0  0  0  0
  -30.0690  -18.8450   20.0380 C   0  0  0  0  0  2  0  0  0  0  0  0
  -29.3690  -17.4960   20.3680 C   0  0  0  0  0  2  0  0  0  0  0  0
  -30.0760  -16.3210   19.6520 C   0  0  0  0  0  2  0  0  0  0  0  0
  -30.3060  -13.8760   19.5510 C   0  0  0  0  0  0  0  0  0  0  0  0
  -29.8050  -11.7440   18.4410 C   0  0  0  0  0  2  0  0  0  0  0  0
  -28.7000  -11.9960   17.3930 C   0  0  0  0  0  2  0  0  0  0  0  0
  -27.3090  -11.8400   18.0360 C   0  0  0  0  0  2  0  0  0  0  0  0
  -27.1660  -12.6430   19.3570 C   0  0  0  0  0  3  0  0  0  0  0  0
  -28.3780  -12.4190   20.2910 C   0  0  0  0  0  2  0  0  0  0  0  0
  -29.6010  -12.7130   19.5310 N   0  0  0  0  0  0  0  0  0  0  0  0
  -31.3690  -14.0120   18.9430 O   0  0  0  0  0  0  0  0  0  0  0  0
  -29.6830  -14.9580   20.0590 N   0  0  0  0  0  0  0  0  0  0  0  0
  -28.7960  -14.8250   20.5240 H   0  0  0  0  0  0  0  0  0  0  0  0
  -24.8990  -13.2130   20.4310 C   0  0  0  0  0  0  0  0  0  0  0  0
  -23.9010  -12.4240   20.9370 C   0  0  0  0  0  0  0  0  0  0  0  0
  -24.3580  -11.0770   20.8060 C   0  0  0  0  0  0  0  0  0  0  0  0
  -25.9020  -12.3460   20.0280 N   0  0  0  0  0  0  0  0  0  0  0  0
  -25.5880  -11.0550   20.3090 N   0  0  0  0  0  0  0  0  0  0  0  0
  -23.6730   -9.8060   21.0730 C   0  0  0  0  0  0  0  0  0  0  0  0
  -24.1950   -8.8630   21.9860 C   0  0  0  0  0  3  0  0  0  0  0  0
  -23.5090   -7.6560   22.2400 C   0  0  0  0  0  3  0  0  0  0  0  0
  -22.2870   -7.3820   21.5810 C   0  0  0  0  0  0  0  0  0  0  0  0
  -21.7840   -8.3130   20.6550 C   0  0  0  0  0  3  0  0  0  0  0  0
  -22.4700   -9.5120   20.4010 C   0  0  0  0  0  3  0  0  0  0  0  0
  -21.5650   -6.2250   21.7460 O   0  0  0  0  0  0  0  0  0  0  0  0
  -21.5650   -5.5400   22.9340 C   0  0  0  0  0  0  0  0  0  0  0  0
  -21.1400   -6.1390   24.1400 C   0  0  0  0  0  3  0  0  0  0  0  0
  -21.0880   -5.3770   25.3240 C   0  0  0  0  0  3  0  0  0  0  0  0
  -21.4520   -4.0170   25.3050 C   0  0  0  0  0  0  0  0  0  0  0  0
  -21.8700   -3.4180   24.1040 C   0  0  0  0  0  3  0  0  0  0  0  0
  -21.9230   -4.1770   22.9210 C   0  0  0  0  0  0  0  0  0  0  0  0
  -22.3070   -3.5880   21.7620 F   0  0  0  0  0  0  0  0  0  0  0  0
  -21.3960   -3.2830   26.4400 F   0  0  0  0  0  0  0  0  0  0  0  0
  -22.5590  -12.8840   21.4270 C   0  0  0  0  0  0  0  0  0  0  0  0
  -21.9690  -12.1630   22.3740 N   0  0  0  0  0  0  0  0  0  0  0  0
  -22.0440  -13.9190   21.0030 O   0  0  0  0  0  0  0  0  0  0  0  0
  -22.4020  -11.3280   22.7400 H   0  0  0  0  0  0  0  0  0  0  0  0
  -21.0730  -12.4520   22.7400 H   0  0  0  0  0  0  0  0  0  0  0  0
  -25.0280  -14.5870   20.2600 N   0  0  0  0  0  0  0  0  0  0  0  0
  -24.2760  -15.2290   20.4860 H   0  0  0  0  0  0  0  0  0  0  0  0
  -25.8160  -15.0410   19.8160 H   0  0  0  0  0  0  0  0  0  0  0  0
  -29.4630  -23.8280   20.8690 C   0  0  0  0  0  2  0  0  0  0  0  0
  -28.6980  -24.8740   20.0240 C   0  0  0  0  0  2  0  0  0  0  0  0
  -29.0070  -26.2550   20.3090 O   0  0  0  0  0  0  0  0  0  0  0  0
  -25.2750  -31.2860   23.7020 C   0  0  0  0  0  0  0  0  0  0  0  0
  -27.9150  -27.1080   20.2610 C   0  0  0  0  0  0  0  0  0  0  0  0
  -24.1320  -30.1830   21.8080 C   0  0  0  0  0  3  0  0  0  0  0  0
  -25.6140  -28.7600   20.2990 C   0  0  0  0  0  0  0  0  0  0  0  0
  -26.6830  -30.4050   21.8430 C   0  0  0  0  0  2  0  0  0  0  0  0
  -26.7490  -29.1260   21.0310 C   0  0  0  0  0  0  0  0  0  0  0  0
  -27.9060  -28.3090   21.0100 C   0  0  0  0  0  3  0  0  0  0  0  0
  -26.7670  -26.7800   19.5000 C   0  0  0  0  0  3  0  0  0  0  0  0
  -25.6190  -27.5890   19.5270 C   0  0  0  0  0  3  0  0  0  0  0  0
  -24.4130  -29.6760   20.3710 C   0  0  0  0  0  2  0  0  0  0  0  0
  -25.3780  -30.6300   22.5120 N   0  0  0  0  0  0  0  0  0  0  0  0
  -24.1700  -31.5530   24.1940 O   0  0  0  0  0  0  0  0  0  0  0  0
  -23.3560  -29.0870   22.5740 C   0  0  0  0  0  0  0  0  0  0  0  0
  -22.0380  -29.0040   22.3310 N   0  0  0  0  0  0  0  0  0  0  0  0
  -23.9410  -28.3200   23.3450 O   0  0  0  0  0  0  0  0  0  0  0  0
  -21.6340  -29.6730   21.6900 H   0  0  0  0  0  0  0  0  0  0  0  0
  -18.5650  -28.0170   22.4890 C   0  0  0  0  0  0  0  0  0  0  0  0
  -21.1160  -28.0290   22.9120 C   0  0  0  0  0  3  0  0  0  0  0  0
  -21.1480  -26.6970   22.1290 C   0  0  0  0  0  2  0  0  0  0  0  0
  -20.0870  -26.6160   21.0270 C   0  0  0  0  0  2  0  0  0  0  0  0
  -18.6850  -26.7720   21.6230 C   0  0  0  0  0  2  0  0  0  0  0  0
  -19.7100  -28.6150   23.0800 C   0  0  0  0  0  0  0  0  0  0  0  0
  -19.5480  -29.7890   23.8480 C   0  0  0  0  0  3  0  0  0  0  0  0
  -18.2770  -30.3640   24.0270 C   0  0  0  0  0  3  0  0  0  0  0  0
  -17.1460  -29.7580   23.4530 C   0  0  0  0  0  3  0  0  0  0  0  0
  -17.2900  -28.5850   22.6910 C   0  0  0  0  0  3  0  0  0  0  0  0
  -26.5400  -31.7530   24.4900 C   0  0  0  0  0  3  0  0  0  0  0  0
  -26.3350  -33.1590   24.8610 N   0  0  0  0  0  0  0  0  0  0  0  0
  -26.8340  -34.2030   24.1850 C   0  0  0  0  0  0  0  0  0  0  0  0
  -27.5850  -34.0750   23.2150 O   0  0  0  0  0  0  0  0  0  0  0  0
  -25.6880  -33.3400   25.6140 H   0  0  0  0  0  0  0  0  0  0  0  0
  -25.3190  -36.1660   23.7640 C   0  0  0  0  0  1  0  0  0  0  0  0
  -26.4370  -35.6130   24.6630 C   0  0  0  0  0  3  0  0  0  0  0  0
  -28.5550  -36.2560   25.7270 C   0  0  0  0  0  1  0  0  0  0  0  0
  -27.5700  -36.5640   24.6930 N   0  0  0  0  0  0  0  0  0  0  0  0
  -27.2390  -37.5130   24.8440 H   0  0  0  0  0  0  0  0  0  0  0  0
  -26.8370  -30.8740   25.7660 C   0  0  1  0  0  0  0  0  0  0  0  0
  -25.6130  -30.6930   26.6940 C   0  0  0  0  0  1  0  0  0  0  0  0
  -27.3330  -29.4670   25.3580 C   0  0  0  0  0  1  0  0  0  0  0  0
  -27.9720  -31.5200   26.5940 C   0  0  0  0  0  1  0  0  0  0  0  0
  1  2  2  0
  2  3  1  0
  2  8  1  0
  4  3  1  0
  5  6  1  0
  5  7  1  0
  6 13  1  0
  6  1  1  0
  7 54  1  0
  7  4  1  0
  8  9  1  0
  9 11  1  0
  9 12  1  0
 10  8  2  0
 13 14  1  0
 15 24  1  0
 15 14  1  0
 16 24  1  0
 17 22  1  0
 18 19  1  0
 18 17  1  0
 20 19  1  0
 20 29  1  0
 20 21  1  0
 22 16  1  0
 22 21  1  0
 23 16  2  0
 24 25  1  0
 26 27  2  0
 27 46  1  0
 28 27  1  0
 28 31  1  0
 29 30  1  0
 29 26  1  0
 30 28  2  0
 31 32  1  0
 32 33  2  0
 34 37  1  0
 34 33  1  0
 35 34  2  0
 36 35  1  0
 36 31  2  0
 37 38  1  0
 38 39  1  0
 39 40  2  0
 41 40  1  0
 41 45  1  0
 42 41  2  0
 43 38  2  0
 43 42  1  0
 44 43  1  0
 46 47  1  0
 47 49  1  0
 47 50  1  0
 48 46  2  0
 51 26  1  0
 51 52  1  0
 53 51  1  0
 55 56  1  0
 55 54  1  0
 57 68  2  0
 58 56  1  0
 58 63  1  0
 59 67  1  0
 59 69  1  0
 60 66  1  0
 60 62  1  0
 61 67  1  0
 62 61  1  0
 63 62  2  0
 64 65  1  0
 64 58  2  0
 65 60  2  0
 66 59  1  0
 67 57  1  0
 69 71  2  0
 70 69  1  0
 72 70  1  0
 73 82  2  0
 73 78  1  0
 74 70  1  0
 74 78  1  0
 75 74  1  0
 76 77  1  0
 76 75  1  0
 77 73  1  0
 78 79  2  0
 79 80  1  0
 81 80  2  0
 82 81  1  0
 83 57  1  0
 83 84  1  0
 83 93  1  0
 84 87  1  0
 85 89  1  0
 85 84  1  0
 86 85  2  0
 89 88  1  0
 89 91  1  0
 91 92  1  0
 91 90  1  0
 93 96  1  1
 93 94  1  0
 95 93  1  0
M  ISO  4  16 100  24 100  55 101  56 101
M  END
>  <TORSDO>  (4) 
F 22

>  <SCORE>  (4) 
-9.294

>  <name>  (4) 
3

>  <ligand_id>  (4) 
3

>  <original_smiles>  (4) 
[H]C1=C(C(=O)N([H])[H])C([H])([H])C([H])([H])C([H])(C([H])([H])C([H])([H])Oc2c([H])c([H])c3c(c2[H])C([H])([H])N(C(=O)C([H])(N([H])C(=O)C([H])(N([H])C([H])([H])[H])C([H])([H])[H])C(C([H])([H])[H])(C([H])([H])[H])C([H])([H])[H])C([H])(C(=O)N([H])C2([H])c4c([H])c([H])c([H])c([H])c4C([H])([H])C([H])([H])C2([H])[H])C3([H])[H])C([H])([H])C1([H])C([H])([H])C([H])([H])C([H])([H])N([H])C(=O)N1C([H])([H])C([H])([H])C([H])([H])C([H])(n2nc(-c3c([H])c([H])c(Oc4c([H])c([H])c(F)c([H])c4F)c([H])c3[H])c(C(=O)N([H])[H])c2N([H])[H])C1([H])[H]

>  <smiles>  (4) 
[H]C1=C(C(=O)N([H])[H])C([H])([H])C([H])([H])C([H])(C([H])([H])C([H])([H])Oc2c([H])c([H])c3c(c2[H])C([H])([H])N(C(=O)C([H])(N([H])C(=O)C([H])(N([H])C([H])([H])[H])C([H])([H])[H])C(C([H])([H])[H])(C([H])([H])[H])C([H])([H])[H])C([H])(C(=O)N([H])C2([H])c4c([H])c([H])c([H])c([H])c4C([H])([H])C([H])([H])C2([H])[H])C3([H])[H])C([H])([H])C1([H])C([H])([H])C([H])([H])C([H])([H])N([H])C(=O)N1C([H])([H])C([H])([H])C([H])([H])C([H])(n2nc(-c3c([H])c([H])c(Oc4c([H])c([H])c(F)c([H])c4F)c([H])c3[H])c(C(=O)N([H])[H])c2N([H])[H])C1([H])[H]

$$$$
4:0:0
     RDKit          3D

 94102  0  0  1  0  0  0  0  0999 V2000
  -27.6260  -22.2180   20.7510 C   0  0  0  0  0  2  0  0  0  0  0  0
  -27.6800  -20.6960   20.5000 C   0  0  0  0  0  2  0  0  0  0  0  0
  -29.8520  -21.7030   20.0890 C   0  0  0  0  0  2  0  0  0  0  0  0
  -28.7950  -22.8200   19.9610 C   0  0  0  0  0  3  0  0  0  0  0  0
  -29.0640  -20.3720   19.8720 C   0  0  2  0  0  0  0  0  0  0  0  0
  -28.9360  -20.0950   18.4250 N   0  0  0  0  0  4  0  0  0  0  0  0
  -28.3440  -19.3040   18.2480 H   0  0  0  0  0  0  0  0  0  0  0  0
  -29.8430  -19.8950   18.0380 H   0  0  0  0  0  0  0  0  0  0  0  0
  -28.5560  -20.8850   17.9380 H   0  0  0  0  0  0  0  0  0  0  0  0
  -29.7460  -19.1120   20.4920 C   0  0  0  0  0  0  0  0  0  0  0  0
  -30.9390  -19.1350   20.8030 O   0  0  0  0  0  0  0  0  0  0  0  0
  -28.9200  -17.8030   20.6320 C   0  0  0  0  0  2  0  0  0  0  0  0
  -29.6690  -16.5120   21.0990 C   0  0  0  0  0  2  0  0  0  0  0  0
  -30.8440  -14.5420   20.0870 C   0  0  0  0  0  0  0  0  0  0  0  0
  -30.5060  -12.3550   19.0250 C   0  0  0  0  0  2  0  0  0  0  0  0
  -29.5370  -12.5520   17.8400 C   0  0  0  0  0  2  0  0  0  0  0  0
  -28.0720  -12.4430   18.3080 C   0  0  0  0  0  2  0  0  0  0  0  0
  -27.7730  -13.2960   19.5710 C   0  0  0  0  0  3  0  0  0  0  0  0
  -28.8580  -13.0970   20.6520 C   0  0  0  0  0  2  0  0  0  0  0  0
  -30.1610  -13.3690   20.0300 N   0  0  0  0  0  0  0  0  0  0  0  0
  -32.0150  -14.6510   19.7230 O   0  0  0  0  0  0  0  0  0  0  0  0
  -30.0770  -15.6440   19.9870 N   0  0  0  0  0  0  0  0  0  0  0  0
  -30.4260  -16.2020   19.2230 H   0  0  0  0  0  0  0  0  0  0  0  0
  -25.4050  -13.9380   20.3420 C   0  0  0  0  0  0  0  0  0  0  0  0
  -24.3360  -13.1780   20.7370 C   0  0  0  0  0  0  0  0  0  0  0  0
  -24.7800  -11.8210   20.7010 C   0  0  0  0  0  0  0  0  0  0  0  0
  -26.4320  -13.0410   20.0860 N   0  0  0  0  0  0  0  0  0  0  0  0
  -26.0600  -11.7650   20.3600 N   0  0  0  0  0  0  0  0  0  0  0  0
  -24.0430  -10.5660   20.9130 C   0  0  0  0  0  0  0  0  0  0  0  0
  -24.4710   -9.6080   21.8560 C   0  0  0  0  0  3  0  0  0  0  0  0
  -23.7360   -8.4190   22.0540 C   0  0  0  0  0  3  0  0  0  0  0  0
  -22.5590   -8.1830   21.3070 C   0  0  0  0  0  0  0  0  0  0  0  0
  -22.1480   -9.1310   20.3550 C   0  0  0  0  0  3  0  0  0  0  0  0
  -22.8850  -10.3100   20.1540 C   0  0  0  0  0  3  0  0  0  0  0  0
  -21.7940   -7.0460   21.4140 O   0  0  0  0  0  0  0  0  0  0  0  0
  -21.7230   -6.3320   22.5840 C   0  0  0  0  0  0  0  0  0  0  0  0
  -21.2870   -6.9230   23.7900 C   0  0  0  0  0  3  0  0  0  0  0  0
  -21.1620   -6.1380   24.9530 C   0  0  0  0  0  3  0  0  0  0  0  0
  -21.4630   -4.7620   24.9110 C   0  0  0  0  0  0  0  0  0  0  0  0
  -21.8920   -4.1710   23.7100 C   0  0  0  0  0  3  0  0  0  0  0  0
  -22.0190   -4.9540   22.5490 C   0  0  0  0  0  0  0  0  0  0  0  0
  -22.4110   -4.3760   21.3880 F   0  0  0  0  0  0  0  0  0  0  0  0
  -21.3350   -4.0060   26.0260 F   0  0  0  0  0  0  0  0  0  0  0  0
  -22.9530  -13.6740   21.0410 C   0  0  0  0  0  0  0  0  0  0  0  0
  -22.2380  -12.9940   21.9310 N   0  0  0  0  0  0  0  0  0  0  0  0
  -22.5130  -14.7010   20.5260 O   0  0  0  0  0  0  0  0  0  0  0  0
  -22.6060  -12.1680   22.3740 H   0  0  0  0  0  0  0  0  0  0  0  0
  -21.3110  -13.3120   22.1760 H   0  0  0  0  0  0  0  0  0  0  0  0
  -25.5810  -15.3050   20.1620 N   0  0  0  0  0  0  0  0  0  0  0  0
  -24.8280  -15.9690   20.2950 H   0  0  0  0  0  0  0  0  0  0  0  0
  -26.4280  -15.7280   19.8050 H   0  0  0  0  0  0  0  0  0  0  0  0
  -29.2120  -24.2660   20.3760 C   0  0  0  0  0  2  0  0  0  0  0  0
  -28.1140  -25.2810   19.9810 C   0  0  0  0  0  2  0  0  0  0  0  0
  -28.3380  -26.6880   20.2350 O   0  0  0  0  0  0  0  0  0  0  0  0
  -24.5710  -31.9400   23.2820 C   0  0  0  0  0  0  0  0  0  0  0  0
  -27.1930  -27.4760   20.1850 C   0  0  0  0  0  0  0  0  0  0  0  0
  -23.3620  -30.5430   21.6420 C   0  0  0  0  0  3  0  0  0  0  0  0
  -24.8090  -29.0200   20.2040 C   0  0  0  0  0  0  0  0  0  0  0  0
  -25.8920  -30.8910   21.4440 C   0  0  0  0  0  2  0  0  0  0  0  0
  -25.9730  -29.5240   20.7970 C   0  0  0  0  0  0  0  0  0  0  0  0
  -27.1680  -28.7590   20.7880 C   0  0  0  0  0  3  0  0  0  0  0  0
  -26.0050  -27.0140   19.5610 C   0  0  0  0  0  3  0  0  0  0  0  0
  -24.8220  -27.7660   19.5800 C   0  0  0  0  0  3  0  0  0  0  0  0
  -23.5680  -29.8790   20.2580 C   0  0  0  0  0  2  0  0  0  0  0  0
  -24.6270  -31.1400   22.1790 N   0  0  0  0  0  0  0  0  0  0  0  0
  -23.4900  -32.2110   23.8230 O   0  0  0  0  0  0  0  0  0  0  0  0
  -22.7120  -29.5150   22.5970 C   0  0  0  0  0  0  0  0  0  0  0  0
  -21.3890  -29.3260   22.4640 N   0  0  0  0  0  0  0  0  0  0  0  0
  -23.3940  -28.8920   23.4160 O   0  0  0  0  0  0  0  0  0  0  0  0
  -20.8990  -29.8830   21.7780 H   0  0  0  0  0  0  0  0  0  0  0  0
  -18.0170  -28.1150   22.9420 C   0  0  0  0  0  0  0  0  0  0  0  0
  -20.5710  -28.3860   23.2310 C   0  0  0  0  0  3  0  0  0  0  0  0
  -20.6840  -26.9540   22.6610 C   0  0  0  0  0  2  0  0  0  0  0  0
  -19.5930  -26.6230   21.6380 C   0  0  0  0  0  2  0  0  0  0  0  0
  -18.2060  -26.7630   22.2730 C   0  0  0  0  0  2  0  0  0  0  0  0
  -19.1290  -28.8830   23.3780 C   0  0  0  0  0  0  0  0  0  0  0  0
  -18.9010  -30.1480   23.9630 C   0  0  0  0  0  3  0  0  0  0  0  0
  -17.5940  -30.6460   24.1130 C   0  0  0  0  0  3  0  0  0  0  0  0
  -16.4960  -29.8740   23.6970 C   0  0  0  0  0  3  0  0  0  0  0  0
  -16.7080  -28.6100   23.1170 C   0  0  0  0  0  3  0  0  0  0  0  0
  -25.8550  -32.5680   23.9000 C   0  0  0  0  0  3  0  0  0  0  0  0
  -25.5540  -33.9700   24.2160 N   0  0  0  0  0  0  0  0  0  0  0  0
  -25.8950  -35.0130   23.4480 C   0  0  0  0  0  0  0  0  0  0  0  0
  -26.5690  -34.8950   22.4200 O   0  0  0  0  0  0  0  0  0  0  0  0
  -24.9500  -34.1350   25.0090 H   0  0  0  0  0  0  0  0  0  0  0  0
  -24.1770  -36.8110   23.0640 C   0  0  0  0  0  1  0  0  0  0  0  0
  -25.4110  -36.4080   23.8880 C   0  0  0  0  0  3  0  0  0  0  0  0
  -27.5460  -37.2910   24.7240 C   0  0  0  0  0  1  0  0  0  0  0  0
  -26.4510  -37.4550   23.7710 N   0  0  0  0  0  0  0  0  0  0  0  0
  -26.0490  -38.3780   23.9040 H   0  0  0  0  0  0  0  0  0  0  0  0
  -26.3690  -31.8020   25.1800 C   0  0  1  0  0  0  0  0  0  0  0  0
  -25.2750  -31.5710   26.2480 C   0  0  0  0  0  1  0  0  0  0  0  0
  -26.9500  -30.4230   24.7940 C   0  0  0  0  0  1  0  0  0  0  0  0
  -27.5220  -32.5970   25.8380 C   0  0  0  0  0  1  0  0  0  0  0  0
  2  1  1  0
  4  3  1  0
  4 52  1  0
  4  1  1  0
  5  3  1  0
  5 10  1  0
  5  2  1  0
  5  6  1  6
  7  6  1  0
  8  6  1  0
  9  6  1  0
 10 12  1  0
 10 11  2  0
 12 13  1  0
 15 20  1  0
 16 17  1  0
 16 15  1  0
 18 17  1  0
 18 27  1  0
 18 19  1  0
 20 14  1  0
 20 19  1  0
 21 14  2  0
 22 14  1  0
 22 13  1  0
 23 22  1  0
 24 25  2  0
 25 44  1  0
 26 25  1  0
 26 29  1  0
 27 24  1  0
 27 28  1  0
 28 26  2  0
 29 30  1  0
 30 31  2  0
 32 35  1  0
 32 31  1  0
 33 32  2  0
 34 33  1  0
 34 29  2  0
 35 36  1  0
 36 37  1  0
 37 38  2  0
 39 38  1  0
 39 43  1  0
 40 39  2  0
 41 36  2  0
 41 40  1  0
 42 41  1  0
 44 45  1  0
 45 48  1  0
 45 47  1  0
 46 44  2  0
 49 50  1  0
 49 24  1  0
 51 49  1  0
 53 54  1  0
 53 52  1  0
 55 66  2  0
 56 54  1  0
 56 61  1  0
 57 65  1  0
 57 67  1  0
 58 64  1  0
 58 60  1  0
 59 65  1  0
 60 59  1  0
 61 60  2  0
 62 63  1  0
 62 56  2  0
 63 58  2  0
 64 57  1  0
 65 55  1  0
 67 69  2  0
 68 67  1  0
 70 68  1  0
 71 80  2  0
 71 76  1  0
 72 68  1  0
 72 76  1  0
 73 72  1  0
 74 75  1  0
 74 73  1  0
 75 71  1  0
 76 77  2  0
 77 78  1  0
 79 78  2  0
 80 79  1  0
 81 55  1  0
 81 82  1  0
 81 91  1  0
 82 85  1  0
 83 87  1  0
 83 82  1  0
 84 83  2  0
 87 86  1  0
 89 87  1  0
 89 90  1  0
 89 88  1  0
 91 94  1  1
 91 92  1  0
 93 91  1  0
M  ISO  4  14 100  22 100  53 101  54 101
M  END
>  <TORSDO>  (5) 
F 22

>  <SCORE>  (5) 
-13.192

>  <name>  (5) 
4

>  <ligand_id>  (5) 
4

>  <original_smiles>  (5) 
[H]c1c([H])c([H])c2c(c1[H])C([H])([H])C([H])([H])C([H])([H])C2([H])N([H])C(=O)C1([H])N(C(=O)C([H])(N([H])C(=O)C([H])(N([H])C([H])([H])[H])C([H])([H])[H])C(C([H])([H])[H])(C([H])([H])[H])C([H])([H])[H])C([H])([H])c2c([H])c(OC([H])([H])C([H])([H])C3([H])C([H])([H])C([H])([H])C(C(=O)C([H])([H])C([H])([H])N([H])C(=O)N4C([H])([H])C([H])([H])C([H])([H])C([H])(n5nc(-c6c([H])c([H])c(Oc7c([H])c([H])c(F)c([H])c7F)c([H])c6[H])c(C(=O)N([H])[H])c5N([H])[H])C4([H])[H])([N+]([H])([H])[H])C3([H])[H])c([H])c([H])c2C1([H])[H]

>  <smiles>  (5) 
[H]c1c([H])c([H])c2c(c1[H])C([H])([H])C([H])([H])C([H])([H])C2([H])N([H])C(=O)C1([H])N(C(=O)C([H])(N([H])C(=O)C([H])(N([H])C([H])([H])[H])C([H])([H])[H])C(C([H])([H])[H])(C([H])([H])[H])C([H])([H])[H])C([H])([H])c2c([H])c(OC([H])([H])C([H])([H])C3([H])C([H])([H])C([H])([H])C(C(=O)C([H])([H])C([H])([H])N([H])C(=O)N4C([H])([H])C([H])([H])C([H])([H])C([H])(n5nc(-c6c([H])c([H])c(Oc7c([H])c([H])c(F)c([H])c7F)c([H])c6[H])c(C(=O)N([H])[H])c5N([H])[H])C4([H])[H])([N+]([H])([H])[H])C3([H])[H])c([H])c([H])c2C1([H])[H]

$$$$
5:0:0
     RDKit          3D

 93102  0  0  1  0  0  0  0  0999 V2000
  -28.6920  -23.7960   20.3170 C   0  0  0  0  0  3  0  0  0  0  0  0
  -27.5330  -23.6420   21.2250 N   0  0  0  0  0  4  0  0  0  0  0  0
  -27.3760  -24.4960   21.7360 H   0  0  0  0  0  0  0  0  0  0  0  0
  -27.6930  -22.9110   21.8970 H   0  0  0  0  0  0  0  0  0  0  0  0
  -26.6920  -23.4270   20.7140 H   0  0  0  0  0  0  0  0  0  0  0  0
  -28.9080  -22.4380   19.4500 C   0  0  0  0  0  2  0  0  0  0  0  0
  -29.2050  -20.6420   21.4670 C   0  0  0  0  0  2  0  0  0  0  0  0
  -29.6190  -17.9740   21.4340 C   0  0  0  0  0  2  0  0  0  0  0  0
  -30.2420  -18.4680   19.0980 C   0  0  0  0  0  2  0  0  0  0  0  0
  -28.8550  -19.2300   20.9650 C   0  0  0  0  0  3  0  0  0  0  0  0
  -29.2680  -19.6210   19.5600 C   0  0  0  0  0  3  0  0  0  0  0  0
  -29.5990  -21.1140   20.0570 C   0  0  0  0  0  3  0  0  0  0  0  0
  -30.4660  -17.4010   20.2570 C   0  0  0  0  0  3  0  0  0  0  0  0
  -30.9990  -14.8160   19.8460 C   0  0  0  0  0  0  0  0  0  0  0  0
  -30.7500  -12.5190   18.8970 C   0  0  0  0  0  2  0  0  0  0  0  0
  -29.7480  -12.5670   17.7220 C   0  0  0  0  0  2  0  0  0  0  0  0
  -28.2980  -12.4330   18.2280 C   0  0  0  0  0  2  0  0  0  0  0  0
  -27.9940  -13.3610   19.4330 C   0  0  0  0  0  3  0  0  0  0  0  0
  -29.1040  -13.2730   20.5040 C   0  0  0  0  0  2  0  0  0  0  0  0
  -30.3750  -13.5940   19.8370 N   0  0  0  0  0  0  0  0  0  0  0  0
  -32.1790  -14.9260   19.5030 O   0  0  0  0  0  0  0  0  0  0  0  0
  -30.1910  -15.9170   20.0430 N   0  0  0  0  0  0  0  0  0  0  0  0
  -29.2280  -15.6600   20.1810 H   0  0  0  0  0  0  0  0  0  0  0  0
  -25.6720  -14.0260   20.3040 C   0  0  0  0  0  0  0  0  0  0  0  0
  -24.5990  -13.2820   20.7140 C   0  0  0  0  0  0  0  0  0  0  0  0
  -25.0080  -11.9170   20.6230 C   0  0  0  0  0  0  0  0  0  0  0  0
  -26.6670  -13.1140   19.9900 N   0  0  0  0  0  0  0  0  0  0  0  0
  -26.2770  -11.8390   20.2440 N   0  0  0  0  0  0  0  0  0  0  0  0
  -24.2460  -10.6770   20.8200 C   0  0  0  0  0  0  0  0  0  0  0  0
  -24.6390   -9.7110   21.7720 C   0  0  0  0  0  3  0  0  0  0  0  0
  -23.8790   -8.5360   21.9560 C   0  0  0  0  0  3  0  0  0  0  0  0
  -22.7120   -8.3180   21.1870 C   0  0  0  0  0  0  0  0  0  0  0  0
  -22.3380   -9.2710   20.2240 C   0  0  0  0  0  3  0  0  0  0  0  0
  -23.0980  -10.4370   20.0380 C   0  0  0  0  0  3  0  0  0  0  0  0
  -21.9270   -7.1940   21.2800 O   0  0  0  0  0  0  0  0  0  0  0  0
  -21.7670   -6.5240   22.4660 C   0  0  0  0  0  0  0  0  0  0  0  0
  -21.2520   -7.1580   23.6170 C   0  0  0  0  0  3  0  0  0  0  0  0
  -21.0380   -6.4150   24.7950 C   0  0  0  0  0  3  0  0  0  0  0  0
  -21.3300   -5.0390   24.8230 C   0  0  0  0  0  0  0  0  0  0  0  0
  -21.8400   -4.4040   23.6750 C   0  0  0  0  0  3  0  0  0  0  0  0
  -22.0540   -5.1440   22.5010 C   0  0  0  0  0  0  0  0  0  0  0  0
  -22.5250   -4.5230   21.3920 F   0  0  0  0  0  0  0  0  0  0  0  0
  -21.1190   -4.3230   25.9520 F   0  0  0  0  0  0  0  0  0  0  0  0
  -23.2370  -13.8010   21.0690 C   0  0  0  0  0  0  0  0  0  0  0  0
  -22.5390  -13.1160   21.9700 N   0  0  0  0  0  0  0  0  0  0  0  0
  -22.8050  -14.8480   20.5890 O   0  0  0  0  0  0  0  0  0  0  0  0
  -22.9050  -12.2710   22.3800 H   0  0  0  0  0  0  0  0  0  0  0  0
  -21.6240  -13.4410   22.2510 H   0  0  0  0  0  0  0  0  0  0  0  0
  -25.8770  -15.3940   20.1490 N   0  0  0  0  0  0  0  0  0  0  0  0
  -25.1330  -16.0650   20.3100 H   0  0  0  0  0  0  0  0  0  0  0  0
  -26.7010  -15.8090   19.7350 H   0  0  0  0  0  0  0  0  0  0  0  0
  -28.5180  -25.1750   19.4960 C   0  0  0  0  0  2  0  0  0  0  0  0
  -28.3930  -26.4980   20.1880 O   0  0  0  0  0  0  0  0  0  0  0  0
  -24.6410  -31.8680   23.2460 C   0  0  0  0  0  0  0  0  0  0  0  0
  -27.2520  -27.3270   20.1300 C   0  0  0  0  0  0  0  0  0  0  0  0
  -23.4340  -30.4850   21.5980 C   0  0  0  0  0  3  0  0  0  0  0  0
  -24.8830  -28.9540   20.1480 C   0  0  0  0  0  0  0  0  0  0  0  0
  -25.9740  -30.8070   21.4070 C   0  0  0  0  0  2  0  0  0  0  0  0
  -26.0540  -29.4340   20.7460 C   0  0  0  0  0  0  0  0  0  0  0  0
  -27.2360  -28.6290   20.7300 C   0  0  0  0  0  3  0  0  0  0  0  0
  -26.0470  -26.9010   19.5230 C   0  0  0  0  0  3  0  0  0  0  0  0
  -24.8840  -27.6920   19.5340 C   0  0  0  0  0  3  0  0  0  0  0  0
  -23.6450  -29.8280   20.2090 C   0  0  0  0  0  2  0  0  0  0  0  0
  -24.7020  -31.0720   22.1390 N   0  0  0  0  0  0  0  0  0  0  0  0
  -23.5600  -32.1350   23.7900 O   0  0  0  0  0  0  0  0  0  0  0  0
  -22.7800  -29.4570   22.5500 C   0  0  0  0  0  0  0  0  0  0  0  0
  -21.4550  -29.2680   22.4200 N   0  0  0  0  0  0  0  0  0  0  0  0
  -23.4650  -28.8290   23.3610 O   0  0  0  0  0  0  0  0  0  0  0  0
  -20.9650  -29.8160   21.7280 H   0  0  0  0  0  0  0  0  0  0  0  0
  -18.0890  -28.0440   22.9200 C   0  0  0  0  0  0  0  0  0  0  0  0
  -20.6470  -28.3190   23.1870 C   0  0  0  0  0  3  0  0  0  0  0  0
  -20.7590  -26.8910   22.6030 C   0  0  0  0  0  2  0  0  0  0  0  0
  -19.6560  -26.5590   21.5950 C   0  0  0  0  0  2  0  0  0  0  0  0
  -18.2750  -26.6950   22.2440 C   0  0  0  0  0  2  0  0  0  0  0  0
  -19.2040  -28.8110   23.3500 C   0  0  0  0  0  0  0  0  0  0  0  0
  -18.9770  -30.0730   23.9440 C   0  0  0  0  0  3  0  0  0  0  0  0
  -17.6700  -30.5660   24.1140 C   0  0  0  0  0  3  0  0  0  0  0  0
  -16.5710  -29.7930   23.7050 C   0  0  0  0  0  3  0  0  0  0  0  0
  -16.7810  -28.5350   23.1110 C   0  0  0  0  0  3  0  0  0  0  0  0
  -25.9250  -32.5000   23.8690 C   0  0  0  0  0  3  0  0  0  0  0  0
  -26.4630  -31.7050   25.1210 C   0  0  1  0  0  0  0  0  0  0  0  0
  -25.3860  -31.4280   26.1960 C   0  0  0  0  0  1  0  0  0  0  0  0
  -27.0590  -30.3430   24.6920 C   0  0  0  0  0  1  0  0  0  0  0  0
  -27.6100  -32.4990   25.7910 C   0  0  0  0  0  1  0  0  0  0  0  0
  -25.6050  -33.8870   24.2330 N   0  0  0  0  0  0  0  0  0  0  0  0
  -25.9130  -34.9610   23.4920 C   0  0  0  0  0  0  0  0  0  0  0  0
  -26.5650  -34.8890   22.4480 O   0  0  0  0  0  0  0  0  0  0  0  0
  -25.0200  -34.0170   25.0440 H   0  0  0  0  0  0  0  0  0  0  0  0
  -24.1580  -36.7440   23.2120 C   0  0  0  0  0  1  0  0  0  0  0  0
  -25.4180  -36.3340   23.9890 C   0  0  0  0  0  3  0  0  0  0  0  0
  -27.5560  -37.2270   24.8050 C   0  0  0  0  0  1  0  0  0  0  0  0
  -26.4380  -37.4000   23.8830 N   0  0  0  0  0  0  0  0  0  0  0  0
  -26.0230  -38.3120   24.0590 H   0  0  0  0  0  0  0  0  0  0  0  0
  1  6  1  0
  1  2  1  0
  2  3  1  0
  2  4  1  0
  5  2  1  0
  9 13  1  0
 10  8  1  0
 10  7  1  0
 11  9  1  0
 11 12  1  0
 11 10  1  0
 12  6  1  0
 12  7  1  0
 13 22  1  0
 13  8  1  0
 14 22  1  0
 15 20  1  0
 16 17  1  0
 16 15  1  0
 18 17  1  0
 18 27  1  0
 18 19  1  0
 20 14  1  0
 20 19  1  0
 21 14  2  0
 22 23  1  0
 24 25  2  0
 25 44  1  0
 26 25  1  0
 26 29  1  0
 27 28  1  0
 27 24  1  0
 28 26  2  0
 29 30  1  0
 30 31  2  0
 32 35  1  0
 32 31  1  0
 33 32  2  0
 34 33  1  0
 34 29  2  0
 35 36  1  0
 36 41  2  0
 36 37  1  0
 37 38  2  0
 38 39  1  0
 39 43  1  0
 40 39  2  0
 41 40  1  0
 42 41  1  0
 44 45  1  0
 45 48  1  0
 45 47  1  0
 46 44  2  0
 49 24  1  0
 49 50  1  0
 51 49  1  0
 52 53  1  0
 52  1  1  0
 54 65  2  0
 55 53  1  0
 55 60  1  0
 56 64  1  0
 56 66  1  0
 57 63  1  0
 57 59  1  0
 58 64  1  0
 59 58  1  0
 60 59  2  0
 61 62  1  0
 61 55  2  0
 62 57  2  0
 63 56  1  0
 64 54  1  0
 66 68  2  0
 67 66  1  0
 69 67  1  0
 70 79  2  0
 70 75  1  0
 71 67  1  0
 71 75  1  0
 72 71  1  0
 73 74  1  0
 73 72  1  0
 74 70  1  0
 75 76  2  0
 76 77  1  0
 78 77  2  0
 79 78  1  0
 80 54  1  0
 80 85  1  0
 80 81  1  0
 81 84  1  1
 81 82  1  0
 83 81  1  0
 85 88  1  0
 86 90  1  0
 86 85  1  0
 87 86  2  0
 90 89  1  0
 92 90  1  0
 92 93  1  0
 92 91  1  0
M  ISO  4  14 100  22 100  52 101  53 101
M  END
>  <TORSDO>  (6) 
F 20

>  <SCORE>  (6) 
-13.121

>  <name>  (6) 
5

>  <ligand_id>  (6) 
5

>  <original_smiles>  (6) 
[H]c1c([H])c([H])c2c(c1[H])C([H])([H])C([H])([H])C([H])([H])C2([H])N([H])C(=O)C1([H])N(C(=O)C([H])(N([H])C(=O)C([H])(N([H])C([H])([H])[H])C([H])([H])[H])C(C([H])([H])[H])(C([H])([H])[H])C([H])([H])[H])C([H])([H])c2c([H])c(OC([H])([H])C([H])(C([H])([H])C3([H])C([H])([H])C4([H])C([H])([H])C([H])(N([H])C(=O)N5C([H])([H])C([H])([H])C([H])([H])C([H])(n6nc(-c7c([H])c([H])c(Oc8c([H])c([H])c(F)c([H])c8F)c([H])c7[H])c(C(=O)N([H])[H])c6N([H])[H])C5([H])[H])C([H])([H])C43[H])[N+]([H])([H])[H])c([H])c([H])c2C1([H])[H]

>  <smiles>  (6) 
[H]c1c([H])c([H])c2c(c1[H])C([H])([H])C([H])([H])C([H])([H])C2([H])N([H])C(=O)C1([H])N(C(=O)C([H])(N([H])C(=O)C([H])(N([H])C([H])([H])[H])C([H])([H])[H])C(C([H])([H])[H])(C([H])([H])[H])C([H])([H])[H])C([H])([H])c2c([H])c(OC([H])([H])C([H])(C([H])([H])C3([H])C([H])([H])C4([H])C([H])([H])C([H])(N([H])C(=O)N5C([H])([H])C([H])([H])C([H])([H])C([H])(n6nc(-c7c([H])c([H])c(Oc8c([H])c([H])c(F)c([H])c8F)c([H])c7[H])c(C(=O)N([H])[H])c6N([H])[H])C5([H])[H])C([H])([H])C43[H])[N+]([H])([H])[H])c([H])c([H])c2C1([H])[H]

$$$$
6:0:0
     RDKit          3D

 92100  0  0  1  0  0  0  0  0999 V2000
  -29.1250  -20.5860   19.6280 C   0  0  0  0  0  2  0  0  0  0  0  0
  -28.3740  -21.8510   19.1870 C   0  0  0  0  0  2  0  0  0  0  0  0
  -28.5150  -22.9910   20.2110 C   0  0  0  0  0  2  0  0  0  0  0  0
  -28.2430  -24.3790   19.6090 C   0  0  0  0  0  2  0  0  0  0  0  0
  -28.2520  -25.4880   20.6780 C   0  0  0  0  0  2  0  0  0  0  0  0
  -28.2850  -26.7980   20.1130 O   0  0  0  0  0  0  0  0  0  0  0  0
  -24.5130  -31.9300   23.2670 C   0  0  0  0  0  0  0  0  0  0  0  0
  -27.1050  -27.5020   20.1460 C   0  0  0  0  0  0  0  0  0  0  0  0
  -23.2850  -30.5420   21.6290 C   0  0  0  0  0  3  0  0  0  0  0  0
  -24.7150  -29.0020   20.1910 C   0  0  0  0  0  0  0  0  0  0  0  0
  -25.8090  -30.8910   21.4110 C   0  0  0  0  0  2  0  0  0  0  0  0
  -25.8800  -29.5240   20.7670 C   0  0  0  0  0  0  0  0  0  0  0  0
  -27.0810  -28.7820   20.7390 C   0  0  0  0  0  3  0  0  0  0  0  0
  -25.9230  -26.9860   19.5740 C   0  0  0  0  0  3  0  0  0  0  0  0
  -24.7300  -27.7290   19.5940 C   0  0  0  0  0  3  0  0  0  0  0  0
  -23.4770  -29.8650   20.2460 C   0  0  0  0  0  2  0  0  0  0  0  0
  -24.5540  -31.1350   22.1600 N   0  0  0  0  0  0  0  0  0  0  0  0
  -23.4390  -32.2050   23.8180 O   0  0  0  0  0  0  0  0  0  0  0  0
  -22.6380  -29.5190   22.5900 C   0  0  0  0  0  0  0  0  0  0  0  0
  -21.3130  -29.3380   22.4660 N   0  0  0  0  0  0  0  0  0  0  0  0
  -23.3230  -28.8910   23.4000 O   0  0  0  0  0  0  0  0  0  0  0  0
  -20.8230  -29.8980   21.7830 H   0  0  0  0  0  0  0  0  0  0  0  0
  -17.9400  -28.1460   22.9610 C   0  0  0  0  0  0  0  0  0  0  0  0
  -20.4970  -28.4020   23.2370 C   0  0  0  0  0  3  0  0  0  0  0  0
  -20.6000  -26.9700   22.6610 C   0  0  0  0  0  2  0  0  0  0  0  0
  -19.4990  -26.6470   21.6460 C   0  0  0  0  0  2  0  0  0  0  0  0
  -18.1160  -26.7940   22.2880 C   0  0  0  0  0  2  0  0  0  0  0  0
  -19.0580  -28.9060   23.3920 C   0  0  0  0  0  0  0  0  0  0  0  0
  -18.8400  -30.1720   23.9810 C   0  0  0  0  0  3  0  0  0  0  0  0
  -17.5360  -30.6750   24.1440 C   0  0  0  0  0  3  0  0  0  0  0  0
  -16.4320  -29.9110   23.7300 C   0  0  0  0  0  3  0  0  0  0  0  0
  -16.6340  -28.6480   23.1440 C   0  0  0  0  0  3  0  0  0  0  0  0
  -25.8100  -32.5480   23.8780 C   0  0  0  0  0  3  0  0  0  0  0  0
  -25.5210  -33.9520   24.1970 N   0  0  0  0  0  0  0  0  0  0  0  0
  -25.8760  -34.9940   23.4330 C   0  0  0  0  0  0  0  0  0  0  0  0
  -26.5520  -34.8740   22.4080 O   0  0  0  0  0  0  0  0  0  0  0  0
  -24.9270  -34.1210   24.9950 H   0  0  0  0  0  0  0  0  0  0  0  0
  -24.1890  -36.8150   23.0370 C   0  0  0  0  0  1  0  0  0  0  0  0
  -25.4040  -36.3910   23.8770 C   0  0  0  0  0  3  0  0  0  0  0  0
  -27.5330  -37.2390   24.7560 C   0  0  0  0  0  1  0  0  0  0  0  0
  -26.4580  -37.4240   23.7850 N   0  0  0  0  0  0  0  0  0  0  0  0
  -26.0660  -38.3520   23.9200 H   0  0  0  0  0  0  0  0  0  0  0  0
  -26.3230  -31.7800   25.1570 C   0  0  1  0  0  0  0  0  0  0  0  0
  -25.2300  -31.5630   26.2310 C   0  0  0  0  0  1  0  0  0  0  0  0
  -26.8890  -30.3940   24.7680 C   0  0  0  0  0  1  0  0  0  0  0  0
  -27.4850  -32.5660   25.8100 C   0  0  0  0  0  1  0  0  0  0  0  0
  -28.9020  -19.3840   18.6950 C   0  0  0  0  0  2  0  0  0  0  0  0
  -29.9070  -17.0940   18.9150 C   0  0  0  0  0  0  0  0  0  0  0  0
  -29.9840  -18.4270   18.8720 N   0  0  0  0  0  0  0  0  0  0  0  0
  -28.8470  -16.4690   18.9020 O   0  0  0  0  0  0  0  0  0  0  0  0
  -30.9190  -18.8110   18.8910 H   0  0  0  0  0  0  0  0  0  0  0  0
  -30.9860  -14.4090   20.3770 C   0  0  0  0  0  0  0  0  0  0  0  0
  -30.4200  -12.2050   19.5850 C   0  0  0  0  0  2  0  0  0  0  0  0
  -29.5300  -12.3980   18.3490 C   0  0  0  0  0  2  0  0  0  0  0  0
  -28.0640  -12.3640   18.7790 C   0  0  0  0  0  2  0  0  0  0  0  0
  -27.7400  -13.2800   19.9920 C   0  0  0  0  0  3  0  0  0  0  0  0
  -28.8290  -13.2210   21.1090 C   0  0  0  0  0  2  0  0  0  0  0  0
  -30.1530  -13.3370   20.4580 N   0  0  0  0  0  0  0  0  0  0  0  0
  -31.6770  -14.8460   21.2680 O   0  0  0  0  0  0  0  0  0  0  0  0
  -32.9390  -15.4540   17.5130 C   0  0  0  0  0  2  0  0  0  0  0  0
  -31.9080  -16.5570   17.5510 C   0  0  0  0  0  2  0  0  0  0  0  0
  -32.2770  -14.3310   18.3060 C   0  0  0  0  0  2  0  0  0  0  0  0
  -31.2710  -16.3900   18.9390 C   0  0  0  0  0  3  0  0  0  0  0  0
  -31.2190  -14.9320   19.1490 N   0  0  0  0  0  0  0  0  0  0  0  0
  -25.3050  -13.8790   20.6040 C   0  0  0  0  0  0  0  0  0  0  0  0
  -24.2220  -13.1030   20.9200 C   0  0  0  0  0  0  0  0  0  0  0  0
  -24.6960  -11.7550   20.9410 C   0  0  0  0  0  0  0  0  0  0  0  0
  -26.3760  -13.0090   20.4600 N   0  0  0  0  0  0  0  0  0  0  0  0
  -26.0050  -11.7280   20.7250 N   0  0  0  0  0  0  0  0  0  0  0  0
  -23.9670  -10.4870   21.1030 C   0  0  0  0  0  0  0  0  0  0  0  0
  -24.3630   -9.5300   22.0640 C   0  0  0  0  0  3  0  0  0  0  0  0
  -23.6380   -8.3290   22.2200 C   0  0  0  0  0  3  0  0  0  0  0  0
  -22.5040   -8.0750   21.4140 C   0  0  0  0  0  0  0  0  0  0  0  0
  -22.1270   -9.0190   20.4430 C   0  0  0  0  0  3  0  0  0  0  0  0
  -22.8530  -10.2120   20.2860 C   0  0  0  0  0  3  0  0  0  0  0  0
  -21.7540   -6.9240   21.4780 O   0  0  0  0  0  0  0  0  0  0  0  0
  -21.6610   -6.1890   22.6340 C   0  0  0  0  0  0  0  0  0  0  0  0
  -21.1680   -6.7460   23.8330 C   0  0  0  0  0  3  0  0  0  0  0  0
  -21.0240   -5.9380   24.9790 C   0  0  0  0  0  3  0  0  0  0  0  0
  -21.3650   -4.5730   24.9250 C   0  0  0  0  0  0  0  0  0  0  0  0
  -21.8500   -4.0140   23.7290 C   0  0  0  0  0  3  0  0  0  0  0  0
  -21.9950   -4.8210   22.5870 C   0  0  0  0  0  0  0  0  0  0  0  0
  -22.4450   -4.2720   21.4320 F   0  0  0  0  0  0  0  0  0  0  0  0
  -21.2200   -3.7940   26.0230 F   0  0  0  0  0  0  0  0  0  0  0  0
  -22.8060  -13.5680   21.0980 C   0  0  0  0  0  0  0  0  0  0  0  0
  -22.0340  -12.8810   21.9330 N   0  0  0  0  0  0  0  0  0  0  0  0
  -22.3880  -14.5800   20.5350 O   0  0  0  0  0  0  0  0  0  0  0  0
  -22.3850  -12.0680   22.4170 H   0  0  0  0  0  0  0  0  0  0  0  0
  -21.0800  -13.1740   22.0920 H   0  0  0  0  0  0  0  0  0  0  0  0
  -25.4630  -15.2450   20.4000 N   0  0  0  0  0  0  0  0  0  0  0  0
  -24.6860  -15.8950   20.4430 H   0  0  0  0  0  0  0  0  0  0  0  0
  -26.3340  -15.6800   20.1110 H   0  0  0  0  0  0  0  0  0  0  0  0
  2  1  1  0
  2  3  1  0
  4  3  1  0
  4  5  1  0
  6  8  1  0
  6  5  1  0
  7 18  2  0
  8 13  1  0
  9 17  1  0
  9 19  1  0
 10 16  1  0
 10 12  1  0
 11 17  1  0
 12 11  1  0
 13 12  2  0
 14 15  1  0
 14  8  2  0
 15 10  2  0
 16  9  1  0
 17  7  1  0
 19 21  2  0
 20 19  1  0
 22 20  1  0
 23 32  2  0
 23 28  1  0
 24 20  1  0
 24 28  1  0
 25 24  1  0
 26 27  1  0
 26 25  1  0
 27 23  1  0
 28 29  2  0
 29 30  1  0
 31 30  2  0
 32 31  1  0
 33  7  1  0
 33 34  1  0
 33 43  1  0
 34 37  1  0
 35 39  1  0
 35 34  1  0
 36 35  2  0
 39 38  1  0
 41 39  1  0
 41 42  1  0
 41 40  1  0
 43 46  1  1
 43 44  1  0
 45 43  1  0
 47 49  1  0
 47  1  1  0
 49 51  1  0
 49 48  1  0
 50 48  2  0
 52 58  1  0
 52 59  2  0
 53 58  1  0
 54 55  1  0
 54 53  1  0
 56 55  1  0
 56 68  1  0
 56 57  1  0
 58 57  1  0
 60 61  1  0
 60 62  1  0
 61 63  1  0
 62 64  1  0
 63 48  1  0
 63 64  1  0
 64 52  1  0
 65 66  2  0
 66 67  1  0
 66 85  1  0
 67 70  1  0
 68 65  1  0
 68 69  1  0
 69 67  2  0
 70 71  1  0
 71 72  2  0
 73 76  1  0
 73 72  1  0
 74 73  2  0
 75 74  1  0
 75 70  2  0
 76 77  1  0
 77 78  1  0
 78 79  2  0
 80 79  1  0
 80 84  1  0
 81 80  2  0
 82 77  2  0
 82 81  1  0
 83 82  1  0
 85 86  1  0
 86 89  1  0
 86 88  1  0
 87 85  2  0
 90 91  1  0
 90 65  1  0
 92 90  1  0
M  ISO  4   5 101   6 101  52 100  64 100
M  END
>  <TORSDO>  (7) 
F 22

>  <SCORE>  (7) 
-12.991

>  <name>  (7) 
6

>  <ligand_id>  (7) 
6

>  <original_smiles>  (7) 
[H]c1c([H])c([H])c2c(c1[H])C([H])([H])C([H])([H])C([H])([H])C2([H])N([H])C(=O)C1([H])N(C(=O)C([H])(N([H])C(=O)C([H])(N([H])C([H])([H])[H])C([H])([H])[H])C(C([H])([H])[H])(C([H])([H])[H])C([H])([H])[H])C([H])([H])c2c([H])c(OC([H])([H])C([H])([H])C([H])([H])C([H])([H])C([H])([H])C([H])([H])N([H])C(=O)C3([H])N(C(=O)N4C([H])([H])C([H])([H])C([H])([H])C([H])(n5nc(-c6c([H])c([H])c(Oc7c([H])c([H])c(F)c([H])c7F)c([H])c6[H])c(C(=O)N([H])[H])c5N([H])[H])C4([H])[H])C([H])([H])C([H])([H])C3([H])[H])c([H])c([H])c2C1([H])[H]

>  <smiles>  (7) 
[H]c1c([H])c([H])c2c(c1[H])C([H])([H])C([H])([H])C([H])([H])C2([H])N([H])C(=O)C1([H])N(C(=O)C([H])(N([H])C(=O)C([H])(N([H])C([H])([H])[H])C([H])([H])[H])C(C([H])([H])[H])(C([H])([H])[H])C([H])([H])[H])C([H])([H])c2c([H])c(OC([H])([H])C([H])([H])C([H])([H])C([H])([H])C([H])([H])C([H])([H])N([H])C(=O)C3([H])N(C(=O)N4C([H])([H])C([H])([H])C([H])([H])C([H])(n5nc(-c6c([H])c([H])c(Oc7c([H])c([H])c(F)c([H])c7F)c([H])c6[H])c(C(=O)N([H])[H])c5N([H])[H])C4([H])[H])C([H])([H])C([H])([H])C3([H])[H])c([H])c([H])c2C1([H])[H]

$$$$
7:0:0
     RDKit          3D

 94103  0  0  1  0  0  0  0  0999 V2000
  -29.1960  -19.0470   20.4410 C   0  0  0  0  0  3  0  0  0  0  0  0
  -29.5980  -20.6880   20.2830 C   0  0  0  0  0  3  0  0  0  0  0  0
  -28.5660  -21.8910   20.2750 N   0  0  0  0  0  4  0  0  0  0  0  0
  -27.9140  -21.7290   21.0280 H   0  0  0  0  0  0  0  0  0  0  0  0
  -28.0320  -21.7860   19.4250 H   0  0  0  0  0  0  0  0  0  0  0  0
  -29.0020  -23.4190   20.3480 C   0  0  0  0  0  3  0  0  0  0  0  0
  -27.9320  -24.6980   20.1240 C   0  0  0  0  0  3  0  0  0  0  0  0
  -28.2220  -26.2230   20.2510 O   0  0  0  0  0  0  0  0  0  0  0  0
  -24.6270  -31.9210   23.2370 C   0  0  0  0  0  0  0  0  0  0  0  0
  -27.1650  -27.2010   20.1960 C   0  0  0  0  0  0  0  0  0  0  0  0
  -23.4130  -30.5260   21.6080 C   0  0  0  0  0  3  0  0  0  0  0  0
  -24.8450  -28.9470   20.1790 C   0  0  0  0  0  0  0  0  0  0  0  0
  -25.9660  -30.7850   21.4260 C   0  0  0  0  0  2  0  0  0  0  0  0
  -26.0290  -29.3910   20.7800 C   0  0  0  0  0  0  0  0  0  0  0  0
  -27.1900  -28.5330   20.7730 C   0  0  0  0  0  3  0  0  0  0  0  0
  -25.9550  -26.8600   19.5550 C   0  0  0  0  0  3  0  0  0  0  0  0
  -24.8180  -27.6940   19.5520 C   0  0  0  0  0  3  0  0  0  0  0  0
  -23.6230  -29.8460   20.2290 C   0  0  0  0  0  2  0  0  0  0  0  0
  -24.6890  -31.1000   22.1460 N   0  0  0  0  0  0  0  0  0  0  0  0
  -23.5430  -32.2100   23.7700 O   0  0  0  0  0  0  0  0  0  0  0  0
  -22.7370  -29.5210   22.5770 C   0  0  0  0  0  0  0  0  0  0  0  0
  -21.4090  -29.3530   22.4560 N   0  0  0  0  0  0  0  0  0  0  0  0
  -23.4120  -28.8970   23.4000 O   0  0  0  0  0  0  0  0  0  0  0  0
  -20.9220  -29.9130   21.7700 H   0  0  0  0  0  0  0  0  0  0  0  0
  -18.0260  -28.1600   22.9710 C   0  0  0  0  0  0  0  0  0  0  0  0
  -20.5870  -28.4220   23.2340 C   0  0  0  0  0  3  0  0  0  0  0  0
  -20.6850  -26.9850   22.6670 C   0  0  0  0  0  2  0  0  0  0  0  0
  -19.5800  -26.6570   21.6570 C   0  0  0  0  0  2  0  0  0  0  0  0
  -18.2000  -26.8090   22.3010 C   0  0  0  0  0  2  0  0  0  0  0  0
  -19.1460  -28.9250   23.3950 C   0  0  0  0  0  0  0  0  0  0  0  0
  -18.9270  -30.1920   23.9800 C   0  0  0  0  0  3  0  0  0  0  0  0
  -17.6230  -30.6920   24.1470 C   0  0  0  0  0  3  0  0  0  0  0  0
  -16.5180  -29.9240   23.7390 C   0  0  0  0  0  3  0  0  0  0  0  0
  -16.7210  -28.6610   23.1560 C   0  0  0  0  0  3  0  0  0  0  0  0
  -25.9110  -32.5540   23.8560 C   0  0  0  0  0  3  0  0  0  0  0  0
  -25.6030  -33.9520   24.1940 N   0  0  0  0  0  0  0  0  0  0  0  0
  -25.9150  -35.0090   23.4350 C   0  0  0  0  0  0  0  0  0  0  0  0
  -26.5600  -34.9100   22.3870 O   0  0  0  0  0  0  0  0  0  0  0  0
  -25.0280  -34.1030   25.0090 H   0  0  0  0  0  0  0  0  0  0  0  0
  -24.1720  -36.8020   23.1430 C   0  0  0  0  0  1  0  0  0  0  0  0
  -25.4380  -36.3960   23.9110 C   0  0  0  0  0  3  0  0  0  0  0  0
  -27.5940  -37.2900   24.6790 C   0  0  0  0  0  1  0  0  0  0  0  0
  -26.4640  -37.4530   23.7670 N   0  0  0  0  0  0  0  0  0  0  0  0
  -26.0580  -38.3710   23.9260 H   0  0  0  0  0  0  0  0  0  0  0  0
  -26.4300  -31.7810   25.1310 C   0  0  1  0  0  0  0  0  0  0  0  0
  -25.3400  -31.5440   26.2040 C   0  0  0  0  0  1  0  0  0  0  0  0
  -27.0100  -30.4030   24.7370 C   0  0  0  0  0  1  0  0  0  0  0  0
  -27.5850  -32.5720   25.7880 C   0  0  0  0  0  1  0  0  0  0  0  0
  -30.2340  -17.7290   20.1750 C   0  0  0  0  0  0  0  0  0  0  0  0
  -30.5200  -14.9740   20.2340 C   0  0  0  0  0  0  0  0  0  0  0  0
  -30.3010  -12.6620   19.2400 C   0  0  0  0  0  2  0  0  0  0  0  0
  -29.3390  -12.6770   18.0320 C   0  0  0  0  0  2  0  0  0  0  0  0
  -27.8840  -12.4750   18.4940 C   0  0  0  0  0  2  0  0  0  0  0  0
  -27.5260  -13.3570   19.7200 C   0  0  0  0  0  3  0  0  0  0  0  0
  -28.6160  -13.3400   20.8120 C   0  0  0  0  0  2  0  0  0  0  0  0
  -29.8720  -13.7440   20.1720 N   0  0  0  0  0  0  0  0  0  0  0  0
  -31.7120  -14.9620   19.9330 O   0  0  0  0  0  0  0  0  0  0  0  0
  -29.8280  -16.2060   20.4180 N   0  0  0  0  0  4  0  0  0  0  0  0
  -28.8520  -16.0780   20.6410 H   0  0  0  0  0  0  0  0  0  0  0  0
  -25.1730  -13.9110   20.5510 C   0  0  0  0  0  0  0  0  0  0  0  0
  -24.1240  -13.1270   20.9390 C   0  0  0  0  0  0  0  0  0  0  0  0
  -24.5900  -11.7760   20.8650 C   0  0  0  0  0  0  0  0  0  0  0  0
  -26.2100  -13.0400   20.2570 N   0  0  0  0  0  0  0  0  0  0  0  0
  -25.8700  -11.7500   20.5120 N   0  0  0  0  0  0  0  0  0  0  0  0
  -23.8690  -10.5090   21.0510 C   0  0  0  0  0  0  0  0  0  0  0  0
  -24.3200   -9.5310   21.9630 C   0  0  0  0  0  3  0  0  0  0  0  0
  -23.5990   -8.3310   22.1410 C   0  0  0  0  0  3  0  0  0  0  0  0
  -22.4130   -8.0990   21.4050 C   0  0  0  0  0  0  0  0  0  0  0  0
  -21.9810   -9.0660   20.4810 C   0  0  0  0  0  3  0  0  0  0  0  0
  -22.7020  -10.2590   20.3010 C   0  0  0  0  0  3  0  0  0  0  0  0
  -21.6630   -6.9500   21.4920 O   0  0  0  0  0  0  0  0  0  0  0  0
  -21.6190   -6.2060   22.6420 C   0  0  0  0  0  0  0  0  0  0  0  0
  -21.1740   -6.7490   23.8670 C   0  0  0  0  0  3  0  0  0  0  0  0
  -21.0780   -5.9290   25.0080 C   0  0  0  0  0  3  0  0  0  0  0  0
  -21.4160   -4.5650   24.9270 C   0  0  0  0  0  0  0  0  0  0  0  0
  -21.8540   -4.0190   23.7060 C   0  0  0  0  0  3  0  0  0  0  0  0
  -21.9520   -4.8370   22.5680 C   0  0  0  0  0  0  0  0  0  0  0  0
  -22.3520   -4.3010   21.3890 F   0  0  0  0  0  0  0  0  0  0  0  0
  -21.3180   -3.7750   26.0210 F   0  0  0  0  0  0  0  0  0  0  0  0
  -22.7340  -13.5950   21.2610 C   0  0  0  0  0  0  0  0  0  0  0  0
  -22.0320  -12.8840   22.1350 N   0  0  0  0  0  0  0  0  0  0  0  0
  -22.2800  -14.6290   20.7730 O   0  0  0  0  0  0  0  0  0  0  0  0
  -22.4140  -12.0480   22.5530 H   0  0  0  0  0  0  0  0  0  0  0  0
  -21.1000  -13.1790   22.3870 H   0  0  0  0  0  0  0  0  0  0  0  0
  -25.3300  -15.2830   20.3910 N   0  0  0  0  0  0  0  0  0  0  0  0
  -24.5630  -15.9340   20.5290 H   0  0  0  0  0  0  0  0  0  0  0  0
  -26.1530  -15.7250   20.0030 H   0  0  0  0  0  0  0  0  0  0  0  0
  -31.6400  -18.0500   20.7740 C   0  0  0  0  0  2  0  0  0  0  0  0
  -34.6100  -18.1280   18.4190 C   0  0  0  0  0  2  0  0  0  0  0  0
  -33.6160  -17.3360   19.2580 C   0  0  0  0  0  2  0  0  0  0  0  0
  -32.4530  -19.3990   18.5550 C   0  0  0  0  0  2  0  0  0  0  0  0
  -33.6810  -19.6540   20.1330 C   0  0  0  0  0  2  0  0  0  0  0  0
  -33.9860  -19.4890   18.6370 C   0  0  0  0  0  3  0  0  0  0  0  0
  -32.7390  -18.4840   19.7670 C   0  0  1  0  0  0  0  0  0  0  0  0
  2  1  2  0
  3  2  1  0
  3  6  1  0
  3  4  1  0
  5  3  1  0
  7  8  1  0
  7  6  2  0
  9 20  2  0
 10  8  1  0
 10 15  1  0
 11 19  1  0
 11 21  1  0
 12 18  1  0
 12 14  1  0
 13 19  1  0
 14 13  1  0
 15 14  2  0
 16 10  2  0
 17 16  1  0
 17 12  2  0
 18 11  1  0
 19  9  1  0
 21 23  2  0
 22 21  1  0
 24 22  1  0
 25 34  2  0
 25 30  1  0
 26 22  1  0
 26 30  1  0
 27 26  1  0
 28 29  1  0
 28 27  1  0
 29 25  1  0
 30 31  2  0
 31 32  1  0
 33 32  2  0
 34 33  1  0
 35  9  1  0
 35 36  1  0
 35 45  1  0
 36 39  1  0
 37 41  1  0
 37 36  1  0
 38 37  2  0
 41 40  1  0
 43 41  1  0
 43 44  1  0
 43 42  1  0
 45 48  1  1
 45 46  1  0
 47 45  1  0
 49 58  2  0
 49  1  1  0
 49 88  1  0
 50 58  1  0
 51 56  1  0
 52 53  1  0
 52 51  1  0
 54 53  1  0
 54 63  1  0
 54 55  1  0
 56 50  1  0
 56 55  1  0
 57 50  2  0
 58 59  1  0
 60 61  2  0
 61 80  1  0
 62 61  1  0
 62 65  1  0
 63 64  1  0
 63 60  1  0
 64 62  2  0
 65 66  1  0
 66 67  2  0
 68 71  1  0
 68 67  1  0
 69 68  2  0
 70 69  1  0
 70 65  2  0
 71 72  1  0
 72 73  1  0
 73 74  2  0
 75 74  1  0
 75 79  1  0
 76 75  2  0
 77 72  2  0
 77 76  1  0
 78 77  1  0
 80 81  1  0
 81 84  1  0
 81 83  1  0
 82 80  2  0
 85 86  1  0
 85 60  1  0
 87 85  1  0
 89 90  1  0
 90 94  1  0
 91 93  1  0
 91 94  1  0
 93 89  1  0
 93 92  1  0
 94 92  1  0
 94 88  1  1
M  ISO  4   7 101   8 101  50 100  58 100
M  END
>  <TORSDO>  (8) 
F 23

>  <SCORE>  (8) 
-13.721

>  <name>  (8) 
7

>  <ligand_id>  (8) 
7

>  <original_smiles>  (8) 
[H]c1c([H])c([H])c2c(c1[H])C([H])([H])C([H])([H])C([H])([H])C2([H])N([H])C(=O)C1([H])N(C(=O)C([H])(N([H])C(=O)C([H])(N([H])C([H])([H])[H])C([H])([H])[H])C(C([H])([H])[H])(C([H])([H])[H])C([H])([H])[H])C([H])([H])c2c([H])c(OC([H])([H])C([H])([H])[N+]([H])([H])C([H])([H])C([H])([H])C([H])(N([H])C(=O)N3C([H])([H])C([H])([H])C([H])([H])C([H])(n4nc(-c5c([H])c([H])c(Oc6c([H])c([H])c(F)c([H])c6F)c([H])c5[H])c(C(=O)N([H])[H])c4N([H])[H])C3([H])[H])C([H])([H])C34C([H])([H])C([H])([H])C([H])(C3([H])[H])C4([H])[H])c([H])c([H])c2C1([H])[H]

>  <smiles>  (8) 
[H]c1c([H])c([H])c2c(c1[H])C([H])([H])C([H])([H])C([H])([H])C2([H])N([H])C(=O)C1([H])N(C(=O)C([H])(N([H])C(=O)C([H])(N([H])C([H])([H])[H])C([H])([H])[H])C(C([H])([H])[H])(C([H])([H])[H])C([H])([H])[H])C([H])([H])c2c([H])c(OC([H])([H])C([H])([H])[N+]([H])([H])C([H])([H])C([H])([H])C([H])(N([H])C(=O)N3C([H])([H])C([H])([H])C([H])([H])C([H])(n4nc(-c5c([H])c([H])c(Oc6c([H])c([H])c(F)c([H])c6F)c([H])c5[H])c(C(=O)N([H])[H])c4N([H])[H])C3([H])[H])C([H])([H])C34C([H])([H])C([H])([H])C([H])(C3([H])[H])C4([H])[H])c([H])c([H])c2C1([H])[H]

$$$$
8:0:0
     RDKit          3D

 97105  0  0  1  0  0  0  0  0999 V2000
  -25.7740  -18.2570   19.7280 C   0  0  0  0  0  2  0  0  0  0  0  0
  -27.1480  -20.4260   19.4580 C   0  0  0  0  0  2  0  0  0  0  0  0
  -24.7030  -19.1250   19.0380 C   0  0  0  0  0  2  0  0  0  0  0  0
  -26.3330  -20.8010   18.1830 C   0  0  0  0  0  2  0  0  0  0  0  0
  -27.1390  -18.9570   19.9540 C   0  0  0  0  0  3  0  0  0  0  0  0
  -25.2340  -19.7890   17.7440 C   0  0  2  0  0  0  0  0  0  0  0  0
  -23.1950  -21.4710   17.8760 C   0  0  0  0  0  1  0  0  0  0  0  0
  -24.0730  -20.5460   17.0070 C   0  0  0  0  0  2  0  0  0  0  0  0
  -25.7930  -18.6670   16.7940 C   0  0  0  0  0  2  0  0  0  0  0  0
  -26.9590  -19.0380   15.8610 C   0  0  0  0  0  2  0  0  0  0  0  0
  -28.3760  -18.7320   16.4080 C   0  0  0  0  0  0  0  0  0  0  0  0
  -28.7730  -17.5960   16.6530 O   0  0  0  0  0  0  0  0  0  0  0  0
  -29.3080  -19.9260   16.4850 C   0  0  0  0  0  2  0  0  0  0  0  0
  -30.2480  -20.1480   17.7300 C   0  0  0  0  0  2  0  0  0  0  0  0
  -30.1970  -21.6800   17.8300 C   0  0  0  0  0  2  0  0  0  0  0  0
  -30.1690  -22.6950   18.8650 O   0  0  0  0  0  0  0  0  0  0  0  0
  -25.1620  -27.8780   18.7030 C   0  0  0  0  0  0  0  0  0  0  0  0
  -29.7020  -23.9060   18.3260 C   0  0  0  0  0  0  0  0  0  0  0  0
  -26.6350  -27.6770   16.7440 C   0  0  0  0  0  3  0  0  0  0  0  0
  -28.6840  -26.2380   17.0550 C   0  0  0  0  0  0  0  0  0  0  0  0
  -27.4540  -26.9590   19.0770 C   0  0  0  0  0  2  0  0  0  0  0  0
  -28.3590  -25.9600   18.3910 C   0  0  0  0  0  0  0  0  0  0  0  0
  -28.8640  -24.8020   19.0370 C   0  0  0  0  0  3  0  0  0  0  0  0
  -30.0410  -24.2870   16.9840 C   0  0  0  0  0  3  0  0  0  0  0  0
  -29.5250  -25.3990   16.3490 C   0  0  0  0  0  3  0  0  0  0  0  0
  -28.1220  -27.4720   16.4120 C   0  0  0  0  0  2  0  0  0  0  0  0
  -26.3690  -27.4910   18.2080 N   0  0  0  0  0  0  0  0  0  0  0  0
  -24.3070  -28.4070   17.9760 O   0  0  0  0  0  0  0  0  0  0  0  0
  -25.7850  -26.7550   15.8400 C   0  0  0  0  0  0  0  0  0  0  0  0
  -25.6960  -27.0940   14.5460 N   0  0  0  0  0  0  0  0  0  0  0  0
  -25.2380  -25.7500   16.3010 O   0  0  0  0  0  0  0  0  0  0  0  0
  -26.0580  -27.9940   14.2790 H   0  0  0  0  0  0  0  0  0  0  0  0
  -25.0350  -27.0280   10.9790 C   0  0  0  0  0  0  0  0  0  0  0  0
  -24.9830  -26.3790   13.4860 C   0  0  0  0  0  3  0  0  0  0  0  0
  -25.7350  -25.0970   13.0530 C   0  0  0  0  0  2  0  0  0  0  0  0
  -26.6620  -25.2970   11.8450 C   0  0  0  0  0  2  0  0  0  0  0  0
  -25.8720  -25.8090   10.6350 C   0  0  0  0  0  2  0  0  0  0  0  0
  -24.6450  -27.3060   12.3150 C   0  0  0  0  0  0  0  0  0  0  0  0
  -23.8990  -28.4680   12.5770 C   0  0  0  0  0  3  0  0  0  0  0  0
  -23.5680  -29.3600   11.5460 C   0  0  0  0  0  3  0  0  0  0  0  0
  -23.9430  -29.0820   10.2180 C   0  0  0  0  0  3  0  0  0  0  0  0
  -24.6700  -27.9070    9.9390 C   0  0  0  0  0  3  0  0  0  0  0  0
  -24.8200  -27.6990   20.2090 C   0  0  0  0  0  3  0  0  0  0  0  0
  -24.0740  -26.3440   20.5170 C   0  0  1  0  0  0  0  0  0  0  0  0
  -22.8410  -26.1050   19.6150 C   0  0  0  0  0  1  0  0  0  0  0  0
  -25.0310  -25.1380   20.3540 C   0  0  0  0  0  1  0  0  0  0  0  0
  -23.5890  -26.3310   21.9880 C   0  0  0  0  0  1  0  0  0  0  0  0
  -24.0060  -28.8480   20.6230 N   0  0  0  0  0  0  0  0  0  0  0  0
  -24.4670  -29.8940   21.3190 C   0  0  0  0  0  0  0  0  0  0  0  0
  -25.6170  -29.9550   21.7620 O   0  0  0  0  0  0  0  0  0  0  0  0
  -23.0610  -28.8910   20.2720 H   0  0  0  0  0  0  0  0  0  0  0  0
  -23.8200  -32.2180   20.6010 C   0  0  0  0  0  1  0  0  0  0  0  0
  -23.5000  -31.0640   21.5650 C   0  0  0  0  0  3  0  0  0  0  0  0
  -22.9650  -30.6130   23.9210 C   0  0  0  0  0  1  0  0  0  0  0  0
  -23.5140  -31.5620   22.9580 N   0  0  0  0  0  0  0  0  0  0  0  0
  -22.9830  -32.4250   23.0280 H   0  0  0  0  0  0  0  0  0  0  0  0
  -28.4220  -18.1560   19.5250 C   0  0  0  0  0  2  0  0  0  0  0  0
  -28.8160  -16.9930   20.4720 C   0  0  0  0  0  2  0  0  0  0  0  0
  -30.3180  -16.5900   20.5580 C   0  0  0  0  0  2  0  0  0  0  0  0
  -31.2580  -14.2490   21.0940 C   0  0  0  0  0  0  0  0  0  0  0  0
  -31.1620  -11.8070   20.7280 C   0  0  0  0  0  2  0  0  0  0  0  0
  -30.4690  -11.5720   19.3670 C   0  0  0  0  0  2  0  0  0  0  0  0
  -28.9300  -11.5980   19.5070 C   0  0  0  0  0  2  0  0  0  0  0  0
  -28.4170  -12.8230   20.3030 C   0  0  0  0  0  3  0  0  0  0  0  0
  -29.1970  -12.9240   21.6320 C   0  0  0  0  0  2  0  0  0  0  0  0
  -30.6330  -13.0540   21.3010 N   0  0  0  0  0  0  0  0  0  0  0  0
  -32.4280  -14.3590   20.7140 O   0  0  0  0  0  0  0  0  0  0  0  0
  -30.4050  -15.2830   21.2160 N   0  0  0  0  0  0  0  0  0  0  0  0
  -29.5330  -14.9950   21.6300 H   0  0  0  0  0  0  0  0  0  0  0  0
  -26.0330  -13.7830   20.5450 C   0  0  0  0  0  0  0  0  0  0  0  0
  -24.8260  -13.1900   20.7550 C   0  0  0  0  0  0  0  0  0  0  0  0
  -25.0930  -11.7910   20.8330 C   0  0  0  0  0  0  0  0  0  0  0  0
  -26.9750  -12.7670   20.5290 N   0  0  0  0  0  0  0  0  0  0  0  0
  -26.3980  -11.5620   20.7470 N   0  0  0  0  0  0  0  0  0  0  0  0
  -24.1760  -10.6460   20.9060 C   0  0  0  0  0  0  0  0  0  0  0  0
  -24.3750   -9.6010   21.8300 C   0  0  0  0  0  3  0  0  0  0  0  0
  -23.4660   -8.5270   21.8940 C   0  0  0  0  0  3  0  0  0  0  0  0
  -22.3490   -8.4890   21.0260 C   0  0  0  0  0  0  0  0  0  0  0  0
  -22.1630   -9.5310   20.1000 C   0  0  0  0  0  3  0  0  0  0  0  0
  -23.0740  -10.5980   20.0310 C   0  0  0  0  0  3  0  0  0  0  0  0
  -21.4260   -7.4730   21.0040 O   0  0  0  0  0  0  0  0  0  0  0  0
  -21.2690   -6.6190   22.0640 C   0  0  0  0  0  0  0  0  0  0  0  0
  -20.9700   -7.0900   23.3620 C   0  0  0  0  0  3  0  0  0  0  0  0
  -20.7550   -6.1750   24.4080 C   0  0  0  0  0  3  0  0  0  0  0  0
  -20.8220   -4.7900   24.1620 C   0  0  0  0  0  0  0  0  0  0  0  0
  -21.1160   -4.3200   22.8710 C   0  0  0  0  0  3  0  0  0  0  0  0
  -21.3350   -5.2310   21.8220 C   0  0  0  0  0  0  0  0  0  0  0  0
  -21.5980   -4.7700   20.5750 F   0  0  0  0  0  0  0  0  0  0  0  0
  -20.6050   -3.9100   25.1680 F   0  0  0  0  0  0  0  0  0  0  0  0
  -23.4830  -13.8740   20.7880 C   0  0  0  0  0  0  0  0  0  0  0  0
  -22.5400  -13.3320   21.5490 N   0  0  0  0  0  0  0  0  0  0  0  0
  -23.2800  -14.9200   20.1710 O   0  0  0  0  0  0  0  0  0  0  0  0
  -22.7150  -12.4870   22.0730 H   0  0  0  0  0  0  0  0  0  0  0  0
  -21.6300  -13.7710   21.6110 H   0  0  0  0  0  0  0  0  0  0  0  0
  -26.3940  -15.1010   20.3400 N   0  0  0  0  0  0  0  0  0  0  0  0
  -25.6830  -15.8190   20.3240 H   0  0  0  0  0  0  0  0  0  0  0  0
  -27.3040  -15.4300   20.0690 H   0  0  0  0  0  0  0  0  0  0  0  0
  1  5  1  0
  2  5  1  0
  3  1  1  0
  4  2  1  0
  5 57  1  0
  6  9  1  6
  6  4  1  0
  6  3  1  0
  8  6  1  0
  8  7  1  0
 10 11  1  0
 10  9  1  0
 11 13  1  0
 11 12  2  0
 13 14  1  0
 14 15  1  0
 15 16  1  0
 18 16  1  0
 18 23  1  0
 19 29  1  0
 19 27  1  0
 20 22  1  0
 22 23  2  0
 22 21  1  0
 24 18  2  0
 25 24  1  0
 25 20  2  0
 26 19  1  0
 26 20  1  0
 27 17  1  0
 27 21  1  0
 28 17  2  0
 29 31  2  0
 30 29  1  0
 32 30  1  0
 33 38  1  0
 34 30  1  0
 35 34  1  0
 36 35  1  0
 37 33  1  0
 37 36  1  0
 38 39  2  0
 38 34  1  0
 40 39  1  0
 41 40  2  0
 42 41  1  0
 42 33  2  0
 43 17  1  0
 43 44  1  0
 43 48  1  0
 44 47  1  1
 45 44  1  0
 46 44  1  0
 48 49  1  0
 49 53  1  0
 49 50  2  0
 51 48  1  0
 53 52  1  0
 53 55  1  0
 55 56  1  0
 55 54  1  0
 57 58  1  0
 58 59  1  0
 59 68  1  0
 60 68  1  0
 60 66  1  0
 61 66  1  0
 62 63  1  0
 62 61  1  0
 64 63  1  0
 64 73  1  0
 64 65  1  0
 66 65  1  0
 67 60  2  0
 68 69  1  0
 70 71  2  0
 71 90  1  0
 71 72  1  0
 72 75  1  0
 73 70  1  0
 73 74  1  0
 74 72  2  0
 75 76  1  0
 76 77  2  0
 78 77  1  0
 79 78  2  0
 80 79  1  0
 80 75  2  0
 81 78  1  0
 81 82  1  0
 82 83  1  0
 83 84  2  0
 85 84  1  0
 85 89  1  0
 86 85  2  0
 87 82  2  0
 87 86  1  0
 88 87  1  0
 90 91  1  0
 91 94  1  0
 91 93  1  0
 92 90  2  0
 95 70  1  0
 96 95  1  0
 97 95  1  0
M  ISO  4  15 101  16 101  60 100  68 100
M  END
>  <TORSDO>  (9) 
F 26

>  <SCORE>  (9) 
-1.160

>  <name>  (9) 
8

>  <ligand_id>  (9) 
8

>  <original_smiles>  (9) 
[H]c1c([H])c([H])c2c(c1[H])C([H])([H])C([H])([H])C([H])([H])C2([H])N([H])C(=O)C1([H])N(C(=O)C([H])(N([H])C(=O)C([H])(N([H])C([H])([H])[H])C([H])([H])[H])C(C([H])([H])[H])(C([H])([H])[H])C([H])([H])[H])C([H])([H])c2c([H])c(OC([H])([H])C([H])([H])C([H])([H])C(=O)C([H])([H])C([H])([H])C3(C([H])([H])C([H])([H])[H])C([H])([H])C([H])([H])C([H])(C([H])([H])C([H])([H])C([H])([H])N([H])C(=O)N4C([H])([H])C([H])([H])C([H])([H])C([H])(n5nc(-c6c([H])c([H])c(Oc7c([H])c([H])c(F)c([H])c7F)c([H])c6[H])c(C(=O)N([H])[H])c5N([H])[H])C4([H])[H])C([H])([H])C3([H])[H])c([H])c([H])c2C1([H])[H]

>  <smiles>  (9) 
[H]c1c([H])c([H])c2c(c1[H])C([H])([H])C([H])([H])C([H])([H])C2([H])N([H])C(=O)C1([H])N(C(=O)C([H])(N([H])C(=O)C([H])(N([H])C([H])([H])[H])C([H])([H])[H])C(C([H])([H])[H])(C([H])([H])[H])C([H])([H])[H])C([H])([H])c2c([H])c(OC([H])([H])C([H])([H])C([H])([H])C(=O)C([H])([H])C([H])([H])C3(C([H])([H])C([H])([H])[H])C([H])([H])C([H])([H])C([H])(C([H])([H])C([H])([H])C([H])([H])N([H])C(=O)N4C([H])([H])C([H])([H])C([H])([H])C([H])(n5nc(-c6c([H])c([H])c(Oc7c([H])c([H])c(F)c([H])c7F)c([H])c6[H])c(C(=O)N([H])[H])c5N([H])[H])C4([H])[H])C([H])([H])C3([H])[H])c([H])c([H])c2C1([H])[H]

$$$$
10:0:0
     RDKit          3D

 94103  0  0  1  0  0  0  0  0999 V2000
  -31.2120  -17.9730   19.8610 C   0  0  0  0  0  2  0  0  0  0  0  0
  -31.7440  -18.7760   22.1660 C   0  0  0  0  0  2  0  0  0  0  0  0
  -33.7650  -22.1450   19.2690 C   0  0  0  0  0  2  0  0  0  0  0  0
  -32.3880  -18.7960   19.2960 C   0  0  0  0  0  2  0  0  0  0  0  0
  -32.8900  -19.6450   21.6220 C   0  0  0  0  0  2  0  0  0  0  0  0
  -34.0520  -20.6940   19.6530 C   0  0  0  0  0  2  0  0  0  0  0  0
  -31.6710  -21.1750   19.9420 C   0  0  0  0  0  2  0  0  0  0  0  0
  -31.5100  -17.5210   21.3030 C   0  0  0  0  0  3  0  0  0  0  0  0
  -32.4280  -22.5100   19.9160 C   0  0  0  0  0  3  0  0  0  0  0  0
  -32.7270  -20.0540   20.1360 C   0  0  1  0  0  0  0  0  0  0  0  0
  -31.7390  -23.6470   19.1350 C   0  0  0  0  0  2  0  0  0  0  0  0
  -30.4140  -24.1810   19.7110 C   0  0  0  0  0  2  0  0  0  0  0  0
  -29.8520  -25.2860   18.7960 C   0  0  0  0  0  2  0  0  0  0  0  0
  -28.4080  -25.7190   19.0840 C   0  0  0  0  0  2  0  0  0  0  0  0
  -28.3370  -26.8140   20.0020 O   0  0  0  0  0  0  0  0  0  0  0  0
  -24.5580  -31.9310   23.2240 C   0  0  0  0  0  0  0  0  0  0  0  0
  -27.1430  -27.5070   20.0580 C   0  0  0  0  0  0  0  0  0  0  0  0
  -23.3220  -30.5480   21.5900 C   0  0  0  0  0  3  0  0  0  0  0  0
  -24.7460  -29.0150   20.1390 C   0  0  0  0  0  0  0  0  0  0  0  0
  -25.8480  -30.8960   21.3590 C   0  0  0  0  0  2  0  0  0  0  0  0
  -25.9160  -29.5280   20.7120 C   0  0  0  0  0  0  0  0  0  0  0  0
  -27.1140  -28.7770   20.6780 C   0  0  0  0  0  3  0  0  0  0  0  0
  -25.9400  -26.9990   19.5060 C   0  0  0  0  0  3  0  0  0  0  0  0
  -24.7510  -27.7460   19.5410 C   0  0  0  0  0  3  0  0  0  0  0  0
  -23.5080  -29.8780   20.2030 C   0  0  0  0  0  2  0  0  0  0  0  0
  -24.5960  -31.1400   22.1160 N   0  0  0  0  0  0  0  0  0  0  0  0
  -23.4860  -32.2050   23.7800 O   0  0  0  0  0  0  0  0  0  0  0  0
  -22.6810  -29.5210   22.5500 C   0  0  0  0  0  0  0  0  0  0  0  0
  -21.3570  -29.3330   22.4280 N   0  0  0  0  0  0  0  0  0  0  0  0
  -23.3720  -28.8950   23.3600 O   0  0  0  0  0  0  0  0  0  0  0  0
  -20.8620  -29.8900   21.7450 H   0  0  0  0  0  0  0  0  0  0  0  0
  -17.9890  -28.1290   22.9360 C   0  0  0  0  0  0  0  0  0  0  0  0
  -20.5470  -28.3910   23.2000 C   0  0  0  0  0  3  0  0  0  0  0  0
  -20.6510  -26.9610   22.6200 C   0  0  0  0  0  2  0  0  0  0  0  0
  -19.5470  -26.6380   21.6100 C   0  0  0  0  0  2  0  0  0  0  0  0
  -18.1670  -26.7800   22.2580 C   0  0  0  0  0  2  0  0  0  0  0  0
  -19.1070  -28.8930   23.3630 C   0  0  0  0  0  0  0  0  0  0  0  0
  -18.8880  -30.1550   23.9550 C   0  0  0  0  0  3  0  0  0  0  0  0
  -17.5830  -30.6550   24.1230 C   0  0  0  0  0  3  0  0  0  0  0  0
  -16.4790  -29.8880   23.7130 C   0  0  0  0  0  3  0  0  0  0  0  0
  -16.6820  -28.6260   23.1250 C   0  0  0  0  0  3  0  0  0  0  0  0
  -25.8570  -32.5520   23.8300 C   0  0  0  0  0  3  0  0  0  0  0  0
  -25.5640  -33.9520   24.1610 N   0  0  0  0  0  0  0  0  0  0  0  0
  -25.9140  -35.0000   23.4050 C   0  0  0  0  0  0  0  0  0  0  0  0
  -26.5900  -34.8900   22.3770 O   0  0  0  0  0  0  0  0  0  0  0  0
  -24.9680  -34.1130   24.9590 H   0  0  0  0  0  0  0  0  0  0  0  0
  -24.2280  -36.8250   23.0190 C   0  0  0  0  0  1  0  0  0  0  0  0
  -25.4400  -36.3930   23.8600 C   0  0  0  0  0  3  0  0  0  0  0  0
  -27.5670  -37.2330   24.7540 C   0  0  0  0  0  1  0  0  0  0  0  0
  -26.4930  -37.4280   23.7830 N   0  0  0  0  0  0  0  0  0  0  0  0
  -26.1010  -38.3540   23.9280 H   0  0  0  0  0  0  0  0  0  0  0  0
  -26.3840  -31.7740   25.0970 C   0  0  1  0  0  0  0  0  0  0  0  0
  -25.3020  -31.5410   26.1770 C   0  0  0  0  0  1  0  0  0  0  0  0
  -26.9520  -30.3940   24.6940 C   0  0  0  0  0  1  0  0  0  0  0  0
  -27.5470  -32.5600   25.7470 C   0  0  0  0  0  1  0  0  0  0  0  0
  -30.4160  -16.6410   21.9520 C   0  0  0  0  0  2  0  0  0  0  0  0
  -30.6950  -14.4970   20.5540 C   0  0  0  0  0  0  0  0  0  0  0  0
  -30.3920  -12.3980   19.2850 C   0  0  0  0  0  2  0  0  0  0  0  0
  -29.4500  -12.6370   18.0890 C   0  0  0  0  0  2  0  0  0  0  0  0
  -27.9720  -12.4940   18.5090 C   0  0  0  0  0  2  0  0  0  0  0  0
  -27.6340  -13.2990   19.7910 C   0  0  0  0  0  3  0  0  0  0  0  0
  -28.6810  -13.0190   20.8910 C   0  0  0  0  0  2  0  0  0  0  0  0
  -30.0100  -13.3440   20.3430 N   0  0  0  0  0  0  0  0  0  0  0  0
  -31.8080  -14.7200   20.0690 O   0  0  0  0  0  0  0  0  0  0  0  0
  -30.0170  -15.3960   21.2850 N   0  0  0  0  0  0  0  0  0  0  0  0
  -29.0870  -15.0860   21.5220 H   0  0  0  0  0  0  0  0  0  0  0  0
  -25.2290  -13.9120   20.4770 C   0  0  0  0  0  0  0  0  0  0  0  0
  -24.1570  -13.1410   20.8410 C   0  0  0  0  0  0  0  0  0  0  0  0
  -24.6200  -11.7890   20.8200 C   0  0  0  0  0  0  0  0  0  0  0  0
  -26.2750  -13.0290   20.2580 N   0  0  0  0  0  0  0  0  0  0  0  0
  -25.9120  -11.7470   20.5220 N   0  0  0  0  0  0  0  0  0  0  0  0
  -23.8940  -10.5270   21.0070 C   0  0  0  0  0  0  0  0  0  0  0  0
  -24.3140   -9.5700   21.9570 C   0  0  0  0  0  3  0  0  0  0  0  0
  -23.5900   -8.3710   22.1350 C   0  0  0  0  0  3  0  0  0  0  0  0
  -22.4320   -8.1220   21.3600 C   0  0  0  0  0  0  0  0  0  0  0  0
  -22.0310   -9.0670   20.4000 C   0  0  0  0  0  3  0  0  0  0  0  0
  -22.7560  -10.2570   20.2210 C   0  0  0  0  0  3  0  0  0  0  0  0
  -21.6800   -6.9740   21.4450 O   0  0  0  0  0  0  0  0  0  0  0  0
  -21.6000   -6.2490   22.6050 C   0  0  0  0  0  0  0  0  0  0  0  0
  -21.1250   -6.8180   23.8070 C   0  0  0  0  0  3  0  0  0  0  0  0
  -20.9960   -6.0190   24.9600 C   0  0  0  0  0  3  0  0  0  0  0  0
  -21.3290   -4.6510   24.9120 C   0  0  0  0  0  0  0  0  0  0  0  0
  -21.7970   -4.0830   23.7150 C   0  0  0  0  0  3  0  0  0  0  0  0
  -21.9290   -4.8790   22.5640 C   0  0  0  0  0  0  0  0  0  0  0  0
  -22.3590   -4.3210   21.4070 F   0  0  0  0  0  0  0  0  0  0  0  0
  -21.1970   -3.8820   26.0180 F   0  0  0  0  0  0  0  0  0  0  0  0
  -22.7580  -13.6160   21.1010 C   0  0  0  0  0  0  0  0  0  0  0  0
  -22.0230  -12.9170   21.9590 N   0  0  0  0  0  0  0  0  0  0  0  0
  -22.3240  -14.6420   20.5790 O   0  0  0  0  0  0  0  0  0  0  0  0
  -22.3890  -12.0880   22.4030 H   0  0  0  0  0  0  0  0  0  0  0  0
  -21.0810  -13.2130   22.1740 H   0  0  0  0  0  0  0  0  0  0  0  0
  -25.3950  -15.2820   20.2960 N   0  0  0  0  0  0  0  0  0  0  0  0
  -24.6290  -15.9400   20.3870 H   0  0  0  0  0  0  0  0  0  0  0  0
  -26.2490  -15.7120   19.9640 H   0  0  0  0  0  0  0  0  0  0  0  0
  1  8  1  0
  3  6  1  0
  3  9  1  0
  4  1  1  0
  5  2  1  0
 10  6  1  6
  7 10  1  0
  8 56  1  0
  8  2  1  0
  9 11  1  0
  9  7  1  0
 10  4  1  0
 10  5  1  0
 11 12  1  0
 13 14  1  0
 13 12  1  0
 14 15  1  0
 15 17  1  0
 16 27  2  0
 17 22  1  0
 18 26  1  0
 18 28  1  0
 19 25  1  0
 19 21  1  0
 20 26  1  0
 21 20  1  0
 22 21  2  0
 23 24  1  0
 23 17  2  0
 24 19  2  0
 25 18  1  0
 26 16  1  0
 28 30  2  0
 29 28  1  0
 31 29  1  0
 32 41  2  0
 32 37  1  0
 33 29  1  0
 33 37  1  0
 34 33  1  0
 35 36  1  0
 35 34  1  0
 36 32  1  0
 37 38  2  0
 38 39  1  0
 40 39  2  0
 41 40  1  0
 42 16  1  0
 42 43  1  0
 42 52  1  0
 43 46  1  0
 44 48  1  0
 44 43  1  0
 45 44  2  0
 48 47  1  0
 50 48  1  0
 50 51  1  0
 50 49  1  0
 52 55  1  1
 52 53  1  0
 54 52  1  0
 57 65  1  0
 58 63  1  0
 59 60  1  0
 59 58  1  0
 61 60  1  0
 61 70  1  0
 61 62  1  0
 63 57  1  0
 63 62  1  0
 64 57  2  0
 65 66  1  0
 65 56  1  0
 67 68  2  0
 68 87  1  0
 69 68  1  0
 69 72  1  0
 70 67  1  0
 70 71  1  0
 71 69  2  0
 72 73  1  0
 73 74  2  0
 75 78  1  0
 75 74  1  0
 76 75  2  0
 77 76  1  0
 77 72  2  0
 78 79  1  0
 79 80  1  0
 80 81  2  0
 82 81  1  0
 82 86  1  0
 83 82  2  0
 84 79  2  0
 84 83  1  0
 85 84  1  0
 87 88  1  0
 88 91  1  0
 88 90  1  0
 89 87  2  0
 92 93  1  0
 92 67  1  0
 94 92  1  0
M  ISO  4  14 101  15 101  57 100  65 100
M  END
>  <TORSDO>  (10) 
F 21

>  <SCORE>  (10) 
-13.538

>  <name>  (10) 
10

>  <ligand_id>  (10) 
10

>  <original_smiles>  (10) 
[H]c1c([H])c([H])c2c(c1[H])C([H])([H])C([H])([H])C([H])([H])C2([H])N([H])C(=O)C1([H])N(C(=O)C([H])(N([H])C(=O)C([H])(N([H])C([H])([H])[H])C([H])([H])[H])C(C([H])([H])[H])(C([H])([H])[H])C([H])([H])[H])C([H])([H])c2c([H])c(OC([H])([H])C([H])([H])C([H])([H])C([H])([H])C3([H])C([H])([H])C([H])([H])C4(C([H])([H])C([H])([H])C([H])(C([H])([H])N([H])C(=O)N5C([H])([H])C([H])([H])C([H])([H])C([H])(n6nc(-c7c([H])c([H])c(Oc8c([H])c([H])c(F)c([H])c8F)c([H])c7[H])c(C(=O)N([H])[H])c6N([H])[H])C5([H])[H])C([H])([H])C4([H])[H])C3([H])[H])c([H])c([H])c2C1([H])[H]

>  <smiles>  (10) 
[H]c1c([H])c([H])c2c(c1[H])C([H])([H])C([H])([H])C([H])([H])C2([H])N([H])C(=O)C1([H])N(C(=O)C([H])(N([H])C(=O)C([H])(N([H])C([H])([H])[H])C([H])([H])[H])C(C([H])([H])[H])(C([H])([H])[H])C([H])([H])[H])C([H])([H])c2c([H])c(OC([H])([H])C([H])([H])C([H])([H])C([H])([H])C3([H])C([H])([H])C([H])([H])C4(C([H])([H])C([H])([H])C([H])(C([H])([H])N([H])C(=O)N5C([H])([H])C([H])([H])C([H])([H])C([H])(n6nc(-c7c([H])c([H])c(Oc8c([H])c([H])c(F)c([H])c8F)c([H])c7[H])c(C(=O)N([H])[H])c6N([H])[H])C5([H])[H])C([H])([H])C4([H])[H])C3([H])[H])c([H])c([H])c2C1([H])[H]

$$$$
11:0:0
     RDKit          3D

 99106  0  0  1  0  0  0  0  0999 V2000
  -25.9770  -22.4900   19.5310 N   0  0  0  0  0  4  0  0  0  0  0  0
  -26.4580  -22.3080   20.3970 H   0  0  0  0  0  0  0  0  0  0  0  0
  -25.0700  -22.0570   19.6020 H   0  0  0  0  0  0  0  0  0  0  0  0
  -25.7500  -23.9440   19.3660 C   0  0  0  0  0  2  0  0  0  0  0  0
  -26.5680  -24.8090   20.3490 C   0  0  0  0  0  2  0  0  0  0  0  0
  -26.5020  -24.2720   21.7830 C   0  0  0  0  0  2  0  0  0  0  0  0
  -25.6820  -25.1540   22.7460 C   0  0  0  0  0  2  0  0  0  0  0  0
  -26.4470  -26.4090   23.2310 C   0  0  0  0  0  3  0  0  0  0  0  0
  -25.2450  -28.5190   24.1770 C   0  0  0  0  0  0  0  0  0  0  0  0
  -24.1610  -30.4240   23.0520 C   0  0  0  0  0  2  0  0  0  0  0  0
  -22.8210  -29.9720   22.4330 C   0  0  0  0  0  2  0  0  0  0  0  0
  -23.0220  -29.3510   21.0340 C   0  0  0  0  0  2  0  0  0  0  0  0
  -24.1770  -28.3160   21.0000 C   0  0  0  0  0  3  0  0  0  0  0  0
  -25.4280  -28.9310   21.6630 C   0  0  0  0  0  2  0  0  0  0  0  0
  -25.0710  -29.2640   23.0480 N   0  0  0  0  0  0  0  0  0  0  0  0
  -24.8930  -28.9260   25.2870 O   0  0  0  0  0  0  0  0  0  0  0  0
  -25.5490  -27.2060   24.0840 N   0  0  0  0  0  0  0  0  0  0  0  0
  -25.3230  -26.7320   24.9470 H   0  0  0  0  0  0  0  0  0  0  0  0
  -23.6310  -27.1510   18.7680 C   0  0  0  0  0  0  0  0  0  0  0  0
  -24.3400  -27.0350   17.6050 C   0  0  0  0  0  0  0  0  0  0  0  0
  -25.5860  -27.6970   17.8330 C   0  0  0  0  0  0  0  0  0  0  0  0
  -24.4480  -27.8550   19.6410 N   0  0  0  0  0  0  0  0  0  0  0  0
  -25.6500  -28.1390   19.0810 N   0  0  0  0  0  0  0  0  0  0  0  0
  -26.6960  -27.9900   16.9170 C   0  0  0  0  0  0  0  0  0  0  0  0
  -27.9320  -27.3140   17.0200 C   0  0  0  0  0  3  0  0  0  0  0  0
  -28.9810  -27.5970   16.1200 C   0  0  0  0  0  3  0  0  0  0  0  0
  -28.8000  -28.5640   15.1030 C   0  0  0  0  0  0  0  0  0  0  0  0
  -27.5770  -29.2530   15.0210 C   0  0  0  0  0  3  0  0  0  0  0  0
  -26.5350  -28.9730   15.9200 C   0  0  0  0  0  3  0  0  0  0  0  0
  -29.7700  -28.9230   14.2000 O   0  0  0  0  0  0  0  0  0  0  0  0
  -30.4260  -27.9880   13.4390 C   0  0  0  0  0  0  0  0  0  0  0  0
  -29.7590  -27.2180   12.4630 C   0  0  0  0  0  3  0  0  0  0  0  0
  -30.4850  -26.3210   11.6560 C   0  0  0  0  0  3  0  0  0  0  0  0
  -31.8790  -26.1960   11.8170 C   0  0  0  0  0  0  0  0  0  0  0  0
  -32.5460  -26.9670   12.7850 C   0  0  0  0  0  3  0  0  0  0  0  0
  -31.8220  -27.8630   13.5910 C   0  0  0  0  0  0  0  0  0  0  0  0
  -32.4720  -28.6170   14.5080 F   0  0  0  0  0  0  0  0  0  0  0  0
  -32.5810  -25.3410   11.0380 F   0  0  0  0  0  0  0  0  0  0  0  0
  -23.8630  -26.4220   16.3190 C   0  0  0  0  0  0  0  0  0  0  0  0
  -24.7290  -25.6890   15.6290 N   0  0  0  0  0  0  0  0  0  0  0  0
  -22.7010  -26.5630   15.9400 O   0  0  0  0  0  0  0  0  0  0  0  0
  -25.6790  -25.5670   15.9470 H   0  0  0  0  0  0  0  0  0  0  0  0
  -24.4460  -25.2540   14.7630 H   0  0  0  0  0  0  0  0  0  0  0  0
  -22.3580  -26.7320   19.1520 N   0  0  0  0  0  0  0  0  0  0  0  0
  -21.7330  -26.2380   18.5260 H   0  0  0  0  0  0  0  0  0  0  0  0
  -21.9410  -26.9330   20.0520 H   0  0  0  0  0  0  0  0  0  0  0  0
  -27.7810  -26.0630   23.9590 C   0  0  0  0  0  2  0  0  0  0  0  0
  -28.7830  -27.2250   24.0730 C   0  0  0  0  0  0  0  0  0  0  0  0
  -30.0530  -26.9790   23.7780 N   0  0  0  0  0  0  0  0  0  0  0  0
  -28.4250  -28.3470   24.4220 O   0  0  0  0  0  0  0  0  0  0  0  0
  -30.3480  -26.0530   23.4990 H   0  0  0  0  0  0  0  0  0  0  0  0
  -30.7400  -27.7200   23.8330 H   0  0  0  0  0  0  0  0  0  0  0  0
  -26.6910  -21.8300   18.4210 C   0  0  0  0  0  2  0  0  0  0  0  0
  -28.2190  -22.0200   18.5100 C   0  0  0  0  0  2  0  0  0  0  0  0
  -28.9210  -21.4100   17.3000 C   0  0  0  0  0  2  0  0  0  0  0  0
  -30.4490  -21.5240   17.3360 C   0  0  0  0  0  2  0  0  0  0  0  0
  -31.0450  -20.3880   16.4960 C   0  0  0  0  0  2  0  0  0  0  0  0
  -32.3990  -19.8590   16.9870 C   0  0  0  0  0  2  0  0  0  0  0  0
  -32.3850  -18.4330   16.9210 O   0  0  0  0  0  0  0  0  0  0  0  0
  -32.2980  -12.4410   20.7580 C   0  0  0  0  0  0  0  0  0  0  0  0
  -31.7340  -17.7170   17.9080 C   0  0  0  0  0  0  0  0  0  0  0  0
  -30.3420  -13.9270   21.0540 C   0  0  0  0  0  3  0  0  0  0  0  0
  -30.5430  -16.2400   20.0060 C   0  0  0  0  0  0  0  0  0  0  0  0
  -32.6110  -14.8800   20.3570 C   0  0  0  0  0  2  0  0  0  0  0  0
  -31.8600  -15.9660   19.6180 C   0  0  0  0  0  0  0  0  0  0  0  0
  -32.4590  -16.7040   18.5750 C   0  0  0  0  0  3  0  0  0  0  0  0
  -30.3950  -17.9610   18.2980 C   0  0  0  0  0  3  0  0  0  0  0  0
  -29.8010  -17.2300   19.3390 C   0  0  0  0  0  3  0  0  0  0  0  0
  -29.9840  -15.4320   21.1530 C   0  0  0  0  0  2  0  0  0  0  0  0
  -31.7800  -13.7010   20.6970 N   0  0  0  0  0  0  0  0  0  0  0  0
  -31.6140  -11.4870   21.1480 O   0  0  0  0  0  0  0  0  0  0  0  0
  -29.3550  -13.2540   20.0740 C   0  0  0  0  0  0  0  0  0  0  0  0
  -28.1960  -12.8250   20.5990 N   0  0  0  0  0  0  0  0  0  0  0  0
  -29.6220  -13.1510   18.8740 O   0  0  0  0  0  0  0  0  0  0  0  0
  -28.0570  -12.9360   21.5950 H   0  0  0  0  0  0  0  0  0  0  0  0
  -25.3890  -10.5740   20.9200 C   0  0  0  0  0  0  0  0  0  0  0  0
  -27.0990  -12.1970   19.8630 C   0  0  0  0  0  3  0  0  0  0  0  0
  -25.9130  -13.1730   19.6890 C   0  0  0  0  0  2  0  0  0  0  0  0
  -24.8590  -13.0480   20.7930 C   0  0  0  0  0  2  0  0  0  0  0  0
  -24.2940  -11.6240   20.8330 C   0  0  0  0  0  2  0  0  0  0  0  0
  -26.7100  -10.8490   20.4790 C   0  0  0  0  0  0  0  0  0  0  0  0
  -27.6990   -9.8510   20.6150 C   0  0  0  0  0  3  0  0  0  0  0  0
  -27.3850   -8.5990   21.1780 C   0  0  0  0  0  3  0  0  0  0  0  0
  -26.0730   -8.3270   21.5980 C   0  0  0  0  0  3  0  0  0  0  0  0
  -25.0770   -9.3110   21.4660 C   0  0  0  0  0  3  0  0  0  0  0  0
  -33.7800  -12.1460   20.3680 C   0  0  0  0  0  3  0  0  0  0  0  0
  -34.2700  -11.0870   21.2580 N   0  0  0  0  0  0  0  0  0  0  0  0
  -34.9470  -11.3010   22.3950 C   0  0  0  0  0  0  0  0  0  0  0  0
  -35.2940  -12.4260   22.7650 O   0  0  0  0  0  0  0  0  0  0  0  0
  -33.9800  -10.1440   21.0440 H   0  0  0  0  0  0  0  0  0  0  0  0
  -34.2420   -9.9060   24.3620 C   0  0  0  0  0  1  0  0  0  0  0  0
  -35.2960  -10.0730   23.2550 C   0  0  0  0  0  3  0  0  0  0  0  0
  -37.7160   -9.8560   22.9040 C   0  0  0  0  0  1  0  0  0  0  0  0
  -36.6460  -10.1390   23.8570 N   0  0  0  0  0  0  0  0  0  0  0  0
  -36.7280   -9.4840   24.6310 H   0  0  0  0  0  0  0  0  0  0  0  0
  -33.9560  -11.7290   18.8570 C   0  0  1  0  0  0  0  0  0  0  0  0
  -33.8990  -10.2010   18.6250 C   0  0  0  0  0  1  0  0  0  0  0  0
  -32.8610  -12.3820   17.9810 C   0  0  0  0  0  1  0  0  0  0  0  0
  -35.3130  -12.2460   18.3240 C   0  0  0  0  0  1  0  0  0  0  0  0
  1  3  1  0
  1  2  1  0
  4  1  1  0
  4  5  1  0
  5  6  1  0
  6  7  1  0
  8  7  1  0
  8 47  1  0
  8 17  1  0
  9 16  2  0
 11 10  1  0
 12 11  1  0
 13 22  1  0
 13 12  1  0
 13 14  1  0
 14 15  1  0
 15 10  1  0
 15  9  1  0
 17  9  1  0
 17 18  1  0
 19 44  1  0
 19 22  1  0
 20 21  1  0
 20 19  2  0
 21 23  2  0
 23 22  1  0
 24 25  1  0
 24 21  1  0
 26 25  2  0
 27 26  1  0
 28 27  2  0
 28 29  1  0
 29 24  2  0
 30 27  1  0
 31 36  1  0
 31 30  1  0
 32 31  2  0
 33 34  2  0
 33 32  1  0
 34 35  1  0
 35 36  2  0
 36 37  1  0
 38 34  1  0
 39 20  1  0
 40 42  1  0
 40 39  1  0
 41 39  2  0
 43 40  1  0
 44 46  1  0
 45 44  1  0
 47 48  1  0
 48 50  2  0
 49 52  1  0
 49 48  1  0
 51 49  1  0
 53 54  1  0
 53  1  1  0
 55 56  1  0
 55 54  1  0
 57 58  1  0
 57 56  1  0
 59 58  1  0
 59 61  1  0
 60 71  2  0
 61 67  2  0
 61 66  1  0
 62 72  1  0
 62 69  1  0
 63 69  1  0
 64 70  1  0
 65 63  1  0
 65 64  1  0
 66 65  2  0
 67 68  1  0
 68 63  2  0
 70 60  1  0
 70 62  1  0
 72 73  1  0
 73 75  1  0
 74 72  2  0
 76 85  1  0
 77 81  1  0
 77 73  1  0
 78 77  1  0
 78 79  1  0
 79 80  1  0
 80 76  1  0
 81 82  1  0
 81 76  2  0
 82 83  2  0
 83 84  1  0
 85 84  2  0
 86 60  1  0
 86 87  1  0
 87 88  1  0
 88 89  2  0
 88 92  1  0
 90 87  1  0
 92 94  1  0
 92 91  1  0
 93 94  1  0
 94 95  1  0
 96 86  1  0
 96 97  1  1
 98 96  1  0
 99 96  1  0
M  ISO  4   9 100  17 100  58 101  59 101
M  END
>  <TORSDO>  (11) 
F 29

>  <SCORE>  (11) 
-6.457

>  <name>  (11) 
11

>  <ligand_id>  (11) 
11

>  <original_smiles>  (11) 
[H]c1c([H])c([H])c2c(c1[H])C([H])([H])C([H])([H])C([H])([H])C2([H])N([H])C(=O)C1([H])N(C(=O)C([H])(N([H])C(=O)C([H])(N([H])C([H])([H])[H])C([H])([H])[H])C(C([H])([H])[H])(C([H])([H])[H])C([H])([H])[H])C([H])([H])c2c([H])c(OC([H])([H])C([H])([H])C([H])([H])C([H])([H])C([H])([H])C([H])([H])[N+]([H])([H])C([H])([H])C([H])([H])C([H])([H])C([H])([H])C([H])(N([H])C(=O)N3C([H])([H])C([H])([H])C([H])([H])C([H])(n4nc(-c5c([H])c([H])c(Oc6c([H])c([H])c(F)c([H])c6F)c([H])c5[H])c(C(=O)N([H])[H])c4N([H])[H])C3([H])[H])C([H])([H])C(=O)N([H])[H])c([H])c([H])c2C1([H])[H]

>  <smiles>  (11) 
[H]c1c([H])c([H])c2c(c1[H])C([H])([H])C([H])([H])C([H])([H])C2([H])N([H])C(=O)C1([H])N(C(=O)C([H])(N([H])C(=O)C([H])(N([H])C([H])([H])[H])C([H])([H])[H])C(C([H])([H])[H])(C([H])([H])[H])C([H])([H])[H])C([H])([H])c2c([H])c(OC([H])([H])C([H])([H])C([H])([H])C([H])([H])C([H])([H])C([H])([H])[N+]([H])([H])C([H])([H])C([H])([H])C([H])([H])C([H])([H])C([H])(N([H])C(=O)N3C([H])([H])C([H])([H])C([H])([H])C([H])(n4nc(-c5c([H])c([H])c(Oc6c([H])c([H])c(F)c([H])c6F)c([H])c5[H])c(C(=O)N([H])[H])c4N([H])[H])C3([H])[H])C([H])([H])C(=O)N([H])[H])c([H])c([H])c2C1([H])[H]

$$$$
12:0:0
     RDKit          3D

 88 97  0  0  1  0  0  0  0  0999 V2000
  -30.2820  -21.0790   19.3390 C   0  0  0  0  0  2  0  0  0  0  0  0
  -28.4480  -20.4200   20.7670 C   0  0  0  0  0  2  0  0  0  0  0  0
  -31.0460  -18.4400   19.8140 C   0  0  0  0  0  2  0  0  0  0  0  0
  -30.0840  -19.5150   19.2220 C   0  0  0  0  0  3  0  0  0  0  0  0
  -28.9630  -19.0110   20.1080 C   0  0  0  0  0  3  0  0  0  0  0  0
  -29.2620  -21.7730   20.3280 C   0  0  0  0  0  3  0  0  0  0  0  0
  -29.9350  -17.7740   20.6620 C   0  0  0  0  0  3  0  0  0  0  0  0
  -30.4810  -15.0280   20.2910 C   0  0  0  0  0  0  0  0  0  0  0  0
  -30.3640  -12.6730   19.3340 C   0  0  0  0  0  2  0  0  0  0  0  0
  -29.4220  -12.6200   18.1100 C   0  0  0  0  0  2  0  0  0  0  0  0
  -27.9630  -12.3990   18.5540 C   0  0  0  0  0  2  0  0  0  0  0  0
  -27.5580  -13.3230   19.7340 C   0  0  0  0  0  3  0  0  0  0  0  0
  -28.6240  -13.3440   20.8490 C   0  0  0  0  0  2  0  0  0  0  0  0
  -29.8820  -13.7680   20.2240 N   0  0  0  0  0  0  0  0  0  0  0  0
  -31.6970  -15.0790   20.0760 O   0  0  0  0  0  0  0  0  0  0  0  0
  -29.6880  -16.2160   20.3960 N   0  0  0  0  0  0  0  0  0  0  0  0
  -28.7090  -15.9830   20.4320 H   0  0  0  0  0  0  0  0  0  0  0  0
  -25.1850  -13.8950   20.4950 C   0  0  0  0  0  0  0  0  0  0  0  0
  -24.1240  -13.1180   20.8710 C   0  0  0  0  0  0  0  0  0  0  0  0
  -24.5920  -11.7690   20.8370 C   0  0  0  0  0  0  0  0  0  0  0  0
  -26.2270  -13.0180   20.2450 N   0  0  0  0  0  0  0  0  0  0  0  0
  -25.8810  -11.7350   20.5210 N   0  0  0  0  0  0  0  0  0  0  0  0
  -23.8670  -10.5050   21.0280 C   0  0  0  0  0  0  0  0  0  0  0  0
  -24.2980   -9.5390   21.9630 C   0  0  0  0  0  3  0  0  0  0  0  0
  -23.5710   -8.3420   22.1440 C   0  0  0  0  0  3  0  0  0  0  0  0
  -22.3970   -8.1030   21.3890 C   0  0  0  0  0  0  0  0  0  0  0  0
  -21.9850   -9.0590   20.4430 C   0  0  0  0  0  3  0  0  0  0  0  0
  -22.7130  -10.2460   20.2600 C   0  0  0  0  0  3  0  0  0  0  0  0
  -21.6430   -6.9590   21.4770 O   0  0  0  0  0  0  0  0  0  0  0  0
  -21.5910   -6.2190   22.6310 C   0  0  0  0  0  0  0  0  0  0  0  0
  -21.1560   -6.7740   23.8540 C   0  0  0  0  0  3  0  0  0  0  0  0
  -21.0530   -5.9600   24.9990 C   0  0  0  0  0  3  0  0  0  0  0  0
  -21.3730   -4.5920   24.9230 C   0  0  0  0  0  0  0  0  0  0  0  0
  -21.8000   -4.0350   23.7040 C   0  0  0  0  0  3  0  0  0  0  0  0
  -21.9050   -4.8470   22.5610 C   0  0  0  0  0  0  0  0  0  0  0  0
  -22.2970   -4.3010   21.3830 F   0  0  0  0  0  0  0  0  0  0  0  0
  -21.2670   -3.8080   26.0210 F   0  0  0  0  0  0  0  0  0  0  0  0
  -22.7270  -13.5940   21.1450 C   0  0  0  0  0  0  0  0  0  0  0  0
  -22.0000  -12.8980   22.0100 N   0  0  0  0  0  0  0  0  0  0  0  0
  -22.2880  -14.6200   20.6250 O   0  0  0  0  0  0  0  0  0  0  0  0
  -22.3660  -12.0680   22.4520 H   0  0  0  0  0  0  0  0  0  0  0  0
  -21.0640  -13.1990   22.2350 H   0  0  0  0  0  0  0  0  0  0  0  0
  -25.3430  -15.2670   20.3140 N   0  0  0  0  0  0  0  0  0  0  0  0
  -24.5710  -15.9160   20.4200 H   0  0  0  0  0  0  0  0  0  0  0  0
  -26.1730  -15.7030   19.9320 H   0  0  0  0  0  0  0  0  0  0  0  0
  -28.6660  -23.2960   19.8030 C   0  0  0  0  0  2  0  0  0  0  0  0
  -28.1670  -24.6880   20.6380 C   0  0  0  0  0  2  0  0  0  0  0  0
  -28.3160  -26.1990   20.2390 O   0  0  0  0  0  0  0  0  0  0  0  0
  -24.6290  -31.8840   23.2450 C   0  0  0  0  0  0  0  0  0  0  0  0
  -27.2370  -27.1580   20.2480 C   0  0  0  0  0  0  0  0  0  0  0  0
  -23.4400  -30.4730   21.6080 C   0  0  0  0  0  3  0  0  0  0  0  0
  -24.8990  -28.8910   20.1990 C   0  0  0  0  0  0  0  0  0  0  0  0
  -25.9930  -30.7490   21.4460 C   0  0  0  0  0  2  0  0  0  0  0  0
  -26.0750  -29.3510   20.8040 C   0  0  0  0  0  0  0  0  0  0  0  0
  -27.2480  -28.5030   20.8050 C   0  0  0  0  0  3  0  0  0  0  0  0
  -26.0320  -26.7950   19.6140 C   0  0  0  0  0  3  0  0  0  0  0  0
  -24.8900  -27.6280   19.5870 C   0  0  0  0  0  3  0  0  0  0  0  0
  -23.6670  -29.7840   20.2360 C   0  0  0  0  0  2  0  0  0  0  0  0
  -24.7080  -31.0590   22.1550 N   0  0  0  0  0  0  0  0  0  0  0  0
  -23.5400  -32.1640   23.7690 O   0  0  0  0  0  0  0  0  0  0  0  0
  -22.7620  -29.4700   22.5770 C   0  0  0  0  0  0  0  0  0  0  0  0
  -21.4350  -29.2950   22.4510 N   0  0  0  0  0  0  0  0  0  0  0  0
  -23.4350  -28.8490   23.4030 O   0  0  0  0  0  0  0  0  0  0  0  0
  -20.9470  -29.8480   21.7590 H   0  0  0  0  0  0  0  0  0  0  0  0
  -18.0590  -28.0810   22.9560 C   0  0  0  0  0  0  0  0  0  0  0  0
  -20.6160  -28.3570   23.2240 C   0  0  0  0  0  3  0  0  0  0  0  0
  -20.7250  -26.9230   22.6560 C   0  0  0  0  0  2  0  0  0  0  0  0
  -19.6250  -26.5900   21.6420 C   0  0  0  0  0  2  0  0  0  0  0  0
  -18.2420  -26.7310   22.2830 C   0  0  0  0  0  2  0  0  0  0  0  0
  -19.1730  -28.8510   23.3830 C   0  0  0  0  0  0  0  0  0  0  0  0
  -18.9470  -30.1130   23.9730 C   0  0  0  0  0  3  0  0  0  0  0  0
  -17.6390  -30.6070   24.1380 C   0  0  0  0  0  3  0  0  0  0  0  0
  -16.5390  -29.8350   23.7270 C   0  0  0  0  0  3  0  0  0  0  0  0
  -16.7500  -28.5730   23.1420 C   0  0  0  0  0  3  0  0  0  0  0  0
  -25.9020  -32.5290   23.8720 C   0  0  0  0  0  3  0  0  0  0  0  0
  -25.5840  -33.9300   24.1930 N   0  0  0  0  0  0  0  0  0  0  0  0
  -25.9130  -34.9830   23.4330 C   0  0  0  0  0  0  0  0  0  0  0  0
  -26.5830  -34.8780   22.4020 O   0  0  0  0  0  0  0  0  0  0  0  0
  -24.9880  -34.0860   24.9930 H   0  0  0  0  0  0  0  0  0  0  0  0
  -24.1810  -36.7740   23.0770 C   0  0  0  0  0  1  0  0  0  0  0  0
  -25.4240  -36.3730   23.8870 C   0  0  0  0  0  3  0  0  0  0  0  0
  -27.5550  -37.2680   24.7110 C   0  0  0  0  0  1  0  0  0  0  0  0
  -26.4520  -37.4280   23.7670 N   0  0  0  0  0  0  0  0  0  0  0  0
  -26.0430  -38.3480   23.9100 H   0  0  0  0  0  0  0  0  0  0  0  0
  -26.4100  -31.7730   25.1620 C   0  0  1  0  0  0  0  0  0  0  0  0
  -25.3080  -31.5470   26.2250 C   0  0  0  0  0  1  0  0  0  0  0  0
  -26.9970  -30.3920   24.7960 C   0  0  0  0  0  1  0  0  0  0  0  0
  -27.5550  -32.5770   25.8240 C   0  0  0  0  0  1  0  0  0  0  0  0
  1  6  1  0
  3  7  1  0
  4  1  1  0
  4  3  1  0
  4  5  1  0
  5  7  1  0
  5  2  1  0
  6 46  1  0
  6  2  1  0
  7 16  1  0
  8 16  1  0
  9 14  1  0
 10 11  1  0
 10  9  1  0
 12 11  1  0
 12 21  1  0
 12 13  1  0
 14  8  1  0
 14 13  1  0
 15  8  2  0
 16 17  1  0
 18 19  2  0
 19 38  1  0
 20 19  1  0
 20 23  1  0
 21 18  1  0
 21 22  1  0
 22 20  2  0
 23 24  1  0
 24 25  2  0
 26 29  1  0
 26 25  1  0
 27 26  2  0
 28 27  1  0
 28 23  2  0
 29 30  1  0
 30 31  1  0
 31 32  2  0
 33 32  1  0
 33 37  1  0
 34 33  2  0
 35 30  2  0
 35 34  1  0
 36 35  1  0
 38 39  1  0
 39 42  1  0
 39 41  1  0
 40 38  2  0
 43 44  1  0
 43 18  1  0
 45 43  1  0
 46 47  1  0
 48 50  1  0
 48 47  1  0
 49 60  2  0
 50 55  1  0
 51 59  1  0
 51 61  1  0
 52 58  1  0
 52 54  1  0
 53 59  1  0
 54 55  2  0
 54 53  1  0
 56 50  2  0
 57 56  1  0
 57 52  2  0
 58 51  1  0
 59 49  1  0
 61 63  2  0
 62 61  1  0
 64 62  1  0
 65 74  2  0
 65 70  1  0
 66 62  1  0
 66 70  1  0
 67 66  1  0
 68 69  1  0
 68 67  1  0
 69 65  1  0
 70 71  2  0
 71 72  1  0
 73 72  2  0
 74 73  1  0
 75 49  1  0
 75 76  1  0
 75 85  1  0
 76 79  1  0
 77 81  1  0
 77 76  1  0
 78 77  2  0
 81 80  1  0
 83 81  1  0
 83 84  1  0
 83 82  1  0
 85 88  1  1
 85 86  1  0
 87 85  1  0
M  ISO  4   8 100  16 100  47 101  48 101
M  END
>  <TORSDO>  (12) 
F 18

>  <SCORE>  (12) 
-15.695

>  <name>  (12) 
12

>  <ligand_id>  (12) 
12

>  <original_smiles>  (12) 
[H]c1c([H])c([H])c2c(c1[H])C([H])([H])C([H])([H])C([H])([H])C2([H])N([H])C(=O)C1([H])N(C(=O)C([H])(N([H])C(=O)C([H])(N([H])C([H])([H])[H])C([H])([H])[H])C(C([H])([H])[H])(C([H])([H])[H])C([H])([H])[H])C([H])([H])c2c([H])c(OC([H])([H])C([H])([H])C3([H])C([H])([H])C4([H])C([H])([H])C([H])(N([H])C(=O)N5C([H])([H])C([H])([H])C([H])([H])C([H])(n6nc(-c7c([H])c([H])c(Oc8c([H])c([H])c(F)c([H])c8F)c([H])c7[H])c(C(=O)N([H])[H])c6N([H])[H])C5([H])[H])C4([H])C3([H])[H])c([H])c([H])c2C1([H])[H]

>  <smiles>  (12) 
[H]c1c([H])c([H])c2c(c1[H])C([H])([H])C([H])([H])C([H])([H])C2([H])N([H])C(=O)C1([H])N(C(=O)C([H])(N([H])C(=O)C([H])(N([H])C([H])([H])[H])C([H])([H])[H])C(C([H])([H])[H])(C([H])([H])[H])C([H])([H])[H])C([H])([H])c2c([H])c(OC([H])([H])C([H])([H])C3([H])C([H])([H])C4([H])C([H])([H])C([H])(N([H])C(=O)N5C([H])([H])C([H])([H])C([H])([H])C([H])(n6nc(-c7c([H])c([H])c(Oc8c([H])c([H])c(F)c([H])c8F)c([H])c7[H])c(C(=O)N([H])[H])c6N([H])[H])C5([H])[H])C4([H])C3([H])[H])c([H])c([H])c2C1([H])[H]

$$$$
13:0:0
     RDKit          3D

 94103  0  0  1  0  0  0  0  0999 V2000
  -29.7890  -21.6480   22.0910 C   0  0  0  0  0  3  0  0  0  0  0  0
  -29.7350  -22.9250   21.5170 C   0  0  0  0  0  3  0  0  0  0  0  0
  -29.3280  -20.5070   21.4010 C   0  0  0  0  0  0  0  0  0  0  0  0
  -29.1860  -23.1220   20.2370 C   0  0  0  0  0  0  0  0  0  0  0  0
  -28.7520  -20.6860   20.1130 C   0  0  0  0  0  0  0  0  0  0  0  0
  -28.6870  -21.9890   19.5310 C   0  0  0  0  0  0  0  0  0  0  0  0
  -28.1710  -19.4890   19.3640 C   0  0  0  0  0  1  0  0  0  0  0  0
  -28.0640  -22.1910   18.1480 C   0  0  0  0  0  1  0  0  0  0  0  0
  -30.5690  -18.7400   22.9440 C   0  0  0  0  0  2  0  0  0  0  0  0
  -29.3920  -19.1480   22.0760 C   0  0  0  0  0  3  0  0  0  0  0  0
  -30.3060  -17.9990   21.6530 C   0  0  0  0  0  3  0  0  0  0  0  0
  -31.2790  -18.0880   20.4860 C   0  0  0  0  0  2  0  0  0  0  0  0
  -32.3510  -16.9700   20.4800 C   0  0  0  0  0  2  0  0  0  0  0  0
  -32.2440  -14.5580   19.8250 C   0  0  0  0  0  0  0  0  0  0  0  0
  -31.6940  -12.3510   18.8710 C   0  0  0  0  0  2  0  0  0  0  0  0
  -30.7320  -12.5230   17.6780 C   0  0  0  0  0  2  0  0  0  0  0  0
  -29.2700  -12.5430   18.1640 C   0  0  0  0  0  2  0  0  0  0  0  0
  -29.0500  -13.5250   19.3460 C   0  0  0  0  0  3  0  0  0  0  0  0
  -30.1230  -13.3360   20.4430 C   0  0  0  0  0  2  0  0  0  0  0  0
  -31.4500  -13.4550   19.8140 N   0  0  0  0  0  0  0  0  0  0  0  0
  -33.3020  -14.6270   19.1910 O   0  0  0  0  0  0  0  0  0  0  0  0
  -31.7700  -15.6180   20.5030 N   0  0  0  0  0  0  0  0  0  0  0  0
  -30.9070  -15.4860   21.0070 H   0  0  0  0  0  0  0  0  0  0  0  0
  -26.7850  -14.4180   20.1870 C   0  0  0  0  0  0  0  0  0  0  0  0
  -25.6470  -13.7790   20.5940 C   0  0  0  0  0  0  0  0  0  0  0  0
  -25.9260  -12.3790   20.5110 C   0  0  0  0  0  0  0  0  0  0  0  0
  -27.6960  -13.4170   19.8860 N   0  0  0  0  0  0  0  0  0  0  0  0
  -27.1840  -12.1830   20.1360 N   0  0  0  0  0  0  0  0  0  0  0  0
  -25.0540  -11.2170   20.7140 C   0  0  0  0  0  0  0  0  0  0  0  0
  -25.3740  -10.2050   21.6450 C   0  0  0  0  0  3  0  0  0  0  0  0
  -24.5090   -9.1080   21.8340 C   0  0  0  0  0  3  0  0  0  0  0  0
  -23.3070   -9.0140   21.0910 C   0  0  0  0  0  0  0  0  0  0  0  0
  -23.0070  -10.0120   20.1470 C   0  0  0  0  0  3  0  0  0  0  0  0
  -23.8730  -11.1010   19.9570 C   0  0  0  0  0  3  0  0  0  0  0  0
  -22.4200   -7.9690   21.1890 O   0  0  0  0  0  0  0  0  0  0  0  0
  -22.2180   -7.3060   22.3710 C   0  0  0  0  0  0  0  0  0  0  0  0
  -21.8130   -7.9790   23.5440 C   0  0  0  0  0  3  0  0  0  0  0  0
  -21.5480   -7.2500   24.7210 C   0  0  0  0  0  3  0  0  0  0  0  0
  -21.6790   -5.8470   24.7240 C   0  0  0  0  0  0  0  0  0  0  0  0
  -22.0770   -5.1750   23.5560 C   0  0  0  0  0  3  0  0  0  0  0  0
  -22.3410   -5.9010   22.3820 C   0  0  0  0  0  0  0  0  0  0  0  0
  -22.7030   -5.2460   21.2520 F   0  0  0  0  0  0  0  0  0  0  0  0
  -21.4190   -5.1440   25.8510 F   0  0  0  0  0  0  0  0  0  0  0  0
  -24.3400  -14.4250   20.9480 C   0  0  0  0  0  0  0  0  0  0  0  0
  -23.5830  -13.8220   21.8570 N   0  0  0  0  0  0  0  0  0  0  0  0
  -24.0020  -15.5000   20.4500 O   0  0  0  0  0  0  0  0  0  0  0  0
  -23.8740  -12.9540   22.2850 H   0  0  0  0  0  0  0  0  0  0  0  0
  -22.7030  -14.2370   22.1300 H   0  0  0  0  0  0  0  0  0  0  0  0
  -27.1170  -15.7610   20.0380 N   0  0  0  0  0  0  0  0  0  0  0  0
  -26.4470  -16.4990   20.2200 H   0  0  0  0  0  0  0  0  0  0  0  0
  -28.0130  -16.1080   19.7250 H   0  0  0  0  0  0  0  0  0  0  0  0
  -29.1760  -24.5370   19.6270 C   0  0  0  0  0  2  0  0  0  0  0  0
  -29.1800  -25.7290   20.6260 C   0  0  0  0  0  2  0  0  0  0  0  0
  -29.1530  -27.0220   19.9930 O   0  0  0  0  0  0  0  0  0  0  0  0
  -24.7010  -31.6020   23.1450 C   0  0  0  0  0  0  0  0  0  0  0  0
  -27.9290  -27.6510   19.9740 C   0  0  0  0  0  0  0  0  0  0  0  0
  -23.7330  -30.2130   21.3420 C   0  0  0  0  0  3  0  0  0  0  0  0
  -25.4110  -28.9290   19.9140 C   0  0  0  0  0  0  0  0  0  0  0  0
  -26.2180  -30.8220   21.3300 C   0  0  0  0  0  2  0  0  0  0  0  0
  -26.4720  -29.5090   20.6220 C   0  0  0  0  0  0  0  0  0  0  0  0
  -27.7360  -28.8740   20.6560 C   0  0  0  0  0  3  0  0  0  0  0  0
  -26.8610  -27.1060   19.2320 C   0  0  0  0  0  3  0  0  0  0  0  0
  -25.6000  -27.7260   19.2170 C   0  0  0  0  0  3  0  0  0  0  0  0
  -24.0860  -29.6550   19.9350 C   0  0  0  0  0  2  0  0  0  0  0  0
  -24.8970  -30.8940   21.9980 N   0  0  0  0  0  0  0  0  0  0  0  0
  -23.5690  -31.7330   23.6310 O   0  0  0  0  0  0  0  0  0  0  0  0
  -23.1350  -29.0680   22.1930 C   0  0  0  0  0  0  0  0  0  0  0  0
  -21.8330  -28.8030   22.0030 N   0  0  0  0  0  0  0  0  0  0  0  0
  -23.8390  -28.4280   22.9780 O   0  0  0  0  0  0  0  0  0  0  0  0
  -21.3250  -29.3750   21.3430 H   0  0  0  0  0  0  0  0  0  0  0  0
  -18.5380  -27.3490   22.2910 C   0  0  0  0  0  0  0  0  0  0  0  0
  -21.0670  -27.7410   22.6530 C   0  0  0  0  0  3  0  0  0  0  0  0
  -21.2780  -26.3830   21.9460 C   0  0  0  0  0  2  0  0  0  0  0  0
  -20.2200  -26.0880   20.8770 C   0  0  0  0  0  2  0  0  0  0  0  0
  -18.8160  -26.0850   21.4950 C   0  0  0  0  0  2  0  0  0  0  0  0
  -19.5950  -28.1330   22.8230 C   0  0  0  0  0  0  0  0  0  0  0  0
  -19.2830  -29.3190   23.5230 C   0  0  0  0  0  3  0  0  0  0  0  0
  -17.9480  -29.7170   23.7100 C   0  0  0  0  0  3  0  0  0  0  0  0
  -16.9040  -28.9280   23.1980 C   0  0  0  0  0  3  0  0  0  0  0  0
  -17.2010  -27.7500   22.4910 C   0  0  0  0  0  3  0  0  0  0  0  0
  -25.8800  -32.3060   23.8850 C   0  0  0  0  0  3  0  0  0  0  0  0
  -25.4400  -33.6640   24.2270 N   0  0  0  0  0  0  0  0  0  0  0  0
  -25.7500  -34.7640   23.5300 C   0  0  0  0  0  0  0  0  0  0  0  0
  -26.5080  -34.7460   22.5570 O   0  0  0  0  0  0  0  0  0  0  0  0
  -24.7730  -33.7450   24.9780 H   0  0  0  0  0  0  0  0  0  0  0  0
  -23.9190  -36.4290   23.0800 C   0  0  0  0  0  1  0  0  0  0  0  0
  -25.1200  -36.0960   23.9810 C   0  0  0  0  0  3  0  0  0  0  0  0
  -27.1080  -37.1090   25.0030 C   0  0  0  0  0  1  0  0  0  0  0  0
  -26.0710  -37.2270   23.9810 N   0  0  0  0  0  0  0  0  0  0  0  0
  -25.5830  -38.1080   24.1240 H   0  0  0  0  0  0  0  0  0  0  0  0
  -26.3570  -31.5310   25.1740 C   0  0  1  0  0  0  0  0  0  0  0  0
  -25.2090  -31.1670   26.1430 C   0  0  0  0  0  1  0  0  0  0  0  0
  -27.0800  -30.2220   24.7830 C   0  0  0  0  0  1  0  0  0  0  0  0
  -27.3820  -32.3890   25.9520 C   0  0  0  0  0  1  0  0  0  0  0  0
  2  1  1  0
  3  1  2  0
  4  2  2  0
  5  3  1  0
  6  5  2  0
  6  4  1  0
  7  5  1  0
  8  6  1  0
 10  3  1  0
 10  9  1  0
 11 12  1  0
 11 10  1  0
 11  9  1  0
 13 12  1  0
 13 22  1  0
 14 22  1  0
 15 20  1  0
 16 17  1  0
 16 15  1  0
 18 17  1  0
 18 27  1  0
 18 19  1  0
 20 14  1  0
 20 19  1  0
 21 14  2  0
 22 23  1  0
 24 25  2  0
 25 44  1  0
 26 25  1  0
 26 29  1  0
 27 28  1  0
 27 24  1  0
 28 26  2  0
 29 30  1  0
 30 31  2  0
 32 35  1  0
 32 31  1  0
 33 32  2  0
 34 33  1  0
 34 29  2  0
 35 36  1  0
 36 41  2  0
 36 37  1  0
 37 38  2  0
 38 39  1  0
 39 43  1  0
 40 39  2  0
 41 40  1  0
 42 41  1  0
 44 45  1  0
 45 48  1  0
 45 47  1  0
 46 44  2  0
 49 24  1  0
 49 50  1  0
 51 49  1  0
 52  4  1  0
 52 53  1  0
 54 53  1  0
 55 66  2  0
 56 54  1  0
 56 61  1  0
 57 65  1  0
 57 67  1  0
 58 64  1  0
 58 60  1  0
 59 65  1  0
 60 61  2  0
 60 59  1  0
 62 56  2  0
 63 62  1  0
 63 58  2  0
 64 57  1  0
 65 55  1  0
 67 69  2  0
 68 67  1  0
 70 68  1  0
 71 80  2  0
 71 76  1  0
 72 68  1  0
 72 76  1  0
 73 72  1  0
 74 75  1  0
 74 73  1  0
 75 71  1  0
 76 77  2  0
 77 78  1  0
 79 78  2  0
 80 79  1  0
 81 55  1  0
 81 82  1  0
 81 91  1  0
 82 85  1  0
 83 87  1  0
 83 82  1  0
 84 83  2  0
 87 86  1  0
 87 89  1  0
 89 90  1  0
 89 88  1  0
 91 94  1  1
 91 92  1  0
 93 91  1  0
M  ISO  4  14 100  22 100  53 101  54 101
M  END
>  <TORSDO>  (13) 
F 21

>  <SCORE>  (13) 
-9.359

>  <name>  (13) 
13

>  <ligand_id>  (13) 
13

>  <original_smiles>  (13) 
[H]c1c([H])c([H])c2c(c1[H])C([H])([H])C([H])([H])C([H])([H])C2([H])N([H])C(=O)C1([H])N(C(=O)C([H])(N([H])C(=O)C([H])(N([H])C([H])([H])[H])C([H])([H])[H])C(C([H])([H])[H])(C([H])([H])[H])C([H])([H])[H])C([H])([H])c2c([H])c(OC([H])([H])C([H])([H])c3c([H])c([H])c(C4([H])C([H])([H])C4([H])C([H])([H])C([H])([H])N([H])C(=O)N4C([H])([H])C([H])([H])C([H])([H])C([H])(n5nc(-c6c([H])c([H])c(Oc7c([H])c([H])c(F)c([H])c7F)c([H])c6[H])c(C(=O)N([H])[H])c5N([H])[H])C4([H])[H])c(C([H])([H])[H])c3C([H])([H])[H])c([H])c([H])c2C1([H])[H]

>  <smiles>  (13) 
[H]c1c([H])c([H])c2c(c1[H])C([H])([H])C([H])([H])C([H])([H])C2([H])N([H])C(=O)C1([H])N(C(=O)C([H])(N([H])C(=O)C([H])(N([H])C([H])([H])[H])C([H])([H])[H])C(C([H])([H])[H])(C([H])([H])[H])C([H])([H])[H])C([H])([H])c2c([H])c(OC([H])([H])C([H])([H])c3c([H])c([H])c(C4([H])C([H])([H])C4([H])C([H])([H])C([H])([H])N([H])C(=O)N4C([H])([H])C([H])([H])C([H])([H])C([H])(n5nc(-c6c([H])c([H])c(Oc7c([H])c([H])c(F)c([H])c7F)c([H])c6[H])c(C(=O)N([H])[H])c5N([H])[H])C4([H])[H])c(C([H])([H])[H])c3C([H])([H])[H])c([H])c([H])c2C1([H])[H]

$$$$
14:0:0
     RDKit          3D

 91100  0  0  1  0  0  0  0  0999 V2000
  -27.8160  -22.4590   19.9560 C   0  0  0  0  0  2  0  0  0  0  0  0
  -30.0360  -23.1980   20.6000 C   0  0  0  0  0  2  0  0  0  0  0  0
  -29.3460  -18.2410   21.1760 C   0  0  0  0  0  2  0  0  0  0  0  0
  -30.0780  -18.0700   18.8650 C   0  0  0  0  0  2  0  0  0  0  0  0
  -28.3860  -21.1160   19.3400 C   0  0  0  0  0  2  0  0  0  0  0  0
  -30.6480  -21.8910   19.9750 C   0  0  0  0  0  2  0  0  0  0  0  0
  -29.6930  -19.7860   21.2300 C   0  0  0  0  0  2  0  0  0  0  0  0
  -30.4770  -19.5910   18.8710 C   0  0  0  0  0  2  0  0  0  0  0  0
  -28.7490  -23.7240   19.9030 C   0  0  0  0  0  3  0  0  0  0  0  0
  -30.2570  -17.3760   20.2420 C   0  0  0  0  0  3  0  0  0  0  0  0
  -29.7650  -20.5840   19.8740 C   0  0  1  0  0  0  0  0  0  0  0  0
  -30.7630  -14.7960   19.9550 C   0  0  0  0  0  0  0  0  0  0  0  0
  -30.5360  -12.5280   18.9400 C   0  0  0  0  0  2  0  0  0  0  0  0
  -29.5240  -12.6130   17.7750 C   0  0  0  0  0  2  0  0  0  0  0  0
  -28.0810  -12.4290   18.2890 C   0  0  0  0  0  2  0  0  0  0  0  0
  -27.7760  -13.3050   19.5350 C   0  0  0  0  0  3  0  0  0  0  0  0
  -28.9000  -13.1990   20.5900 C   0  0  0  0  0  2  0  0  0  0  0  0
  -30.1590  -13.5620   19.9270 N   0  0  0  0  0  0  0  0  0  0  0  0
  -31.9150  -14.9430   19.5340 O   0  0  0  0  0  0  0  0  0  0  0  0
  -29.9710  -15.8810   20.2690 N   0  0  0  0  0  0  0  0  0  0  0  0
  -29.0390  -15.6300   20.5600 H   0  0  0  0  0  0  0  0  0  0  0  0
  -25.4450  -13.8830   20.4400 C   0  0  0  0  0  0  0  0  0  0  0  0
  -24.4010  -13.1010   20.8530 C   0  0  0  0  0  0  0  0  0  0  0  0
  -24.8510  -11.7500   20.7400 C   0  0  0  0  0  0  0  0  0  0  0  0
  -26.4640  -13.0090   20.1020 N   0  0  0  0  0  0  0  0  0  0  0  0
  -26.1180  -11.7180   20.3430 N   0  0  0  0  0  0  0  0  0  0  0  0
  -24.1310  -10.4850   20.9320 C   0  0  0  0  0  0  0  0  0  0  0  0
  -24.5690   -9.5210   21.8680 C   0  0  0  0  0  3  0  0  0  0  0  0
  -23.8490   -8.3200   22.0500 C   0  0  0  0  0  3  0  0  0  0  0  0
  -22.6770   -8.0740   21.2950 C   0  0  0  0  0  0  0  0  0  0  0  0
  -22.2590   -9.0270   20.3490 C   0  0  0  0  0  3  0  0  0  0  0  0
  -22.9790  -10.2190   20.1660 C   0  0  0  0  0  3  0  0  0  0  0  0
  -21.9290   -6.9250   21.3840 O   0  0  0  0  0  0  0  0  0  0  0  0
  -21.8170   -6.2290   22.5600 C   0  0  0  0  0  0  0  0  0  0  0  0
  -21.2780   -6.8180   23.7270 C   0  0  0  0  0  3  0  0  0  0  0  0
  -21.1170   -6.0450   24.8940 C   0  0  0  0  0  3  0  0  0  0  0  0
  -21.4840   -4.6860   24.8980 C   0  0  0  0  0  0  0  0  0  0  0  0
  -22.0140   -4.0970   23.7350 C   0  0  0  0  0  3  0  0  0  0  0  0
  -22.1780   -4.8670   22.5700 C   0  0  0  0  0  0  0  0  0  0  0  0
  -22.6700   -4.2890   21.4480 F   0  0  0  0  0  0  0  0  0  0  0  0
  -21.3210   -3.9420   26.0150 F   0  0  0  0  0  0  0  0  0  0  0  0
  -23.0280  -13.5730   21.2340 C   0  0  0  0  0  0  0  0  0  0  0  0
  -22.3560  -12.8470   22.1190 N   0  0  0  0  0  0  0  0  0  0  0  0
  -22.5630  -14.6180   20.7820 O   0  0  0  0  0  0  0  0  0  0  0  0
  -22.7460  -12.0020   22.5060 H   0  0  0  0  0  0  0  0  0  0  0  0
  -21.4360  -13.1430   22.4170 H   0  0  0  0  0  0  0  0  0  0  0  0
  -25.6040  -15.2590   20.3020 N   0  0  0  0  0  0  0  0  0  0  0  0
  -24.8460  -15.9060   20.4870 H   0  0  0  0  0  0  0  0  0  0  0  0
  -26.4200  -15.7080   19.9060 H   0  0  0  0  0  0  0  0  0  0  0  0
  -28.1000  -25.0610   20.5470 C   0  0  0  0  0  2  0  0  0  0  0  0
  -28.3870  -26.4660   20.1010 O   0  0  0  0  0  0  0  0  0  0  0  0
  -24.6550  -31.8780   23.1720 C   0  0  0  0  0  0  0  0  0  0  0  0
  -27.2960  -27.3580   20.0660 C   0  0  0  0  0  0  0  0  0  0  0  0
  -23.4630  -30.4890   21.5160 C   0  0  0  0  0  3  0  0  0  0  0  0
  -24.9280  -28.9710   20.0650 C   0  0  0  0  0  0  0  0  0  0  0  0
  -26.0030  -30.8260   21.3390 C   0  0  0  0  0  2  0  0  0  0  0  0
  -26.0950  -29.4560   20.6720 C   0  0  0  0  0  0  0  0  0  0  0  0
  -27.2850  -28.6620   20.6620 C   0  0  0  0  0  3  0  0  0  0  0  0
  -26.1150  -26.9480   19.4110 C   0  0  0  0  0  3  0  0  0  0  0  0
  -24.9420  -27.7250   19.4230 C   0  0  0  0  0  3  0  0  0  0  0  0
  -23.6820  -29.8320   20.1270 C   0  0  0  0  0  2  0  0  0  0  0  0
  -24.7260  -31.0820   22.0650 N   0  0  0  0  0  0  0  0  0  0  0  0
  -23.5690  -32.1390   23.7100 O   0  0  0  0  0  0  0  0  0  0  0  0
  -22.8090  -29.4560   22.4640 C   0  0  0  0  0  0  0  0  0  0  0  0
  -21.4820  -29.2830   22.3510 N   0  0  0  0  0  0  0  0  0  0  0  0
  -23.4970  -28.8120   23.2620 O   0  0  0  0  0  0  0  0  0  0  0  0
  -20.9850  -29.8550   21.6820 H   0  0  0  0  0  0  0  0  0  0  0  0
  -18.1050  -28.1020   22.8920 C   0  0  0  0  0  0  0  0  0  0  0  0
  -20.6700  -28.3330   23.1150 C   0  0  0  0  0  3  0  0  0  0  0  0
  -20.7470  -26.9170   22.5020 C   0  0  0  0  0  2  0  0  0  0  0  0
  -19.6230  -26.6280   21.5020 C   0  0  0  0  0  2  0  0  0  0  0  0
  -18.2560  -26.7690   22.1770 C   0  0  0  0  0  2  0  0  0  0  0  0
  -19.2380  -28.8440   23.3170 C   0  0  0  0  0  0  0  0  0  0  0  0
  -19.0420  -30.0940   23.9450 C   0  0  0  0  0  3  0  0  0  0  0  0
  -17.7450  -30.6000   24.1510 C   0  0  0  0  0  3  0  0  0  0  0  0
  -16.6260  -29.8540   23.7430 C   0  0  0  0  0  3  0  0  0  0  0  0
  -16.8070  -28.6060   23.1200 C   0  0  0  0  0  3  0  0  0  0  0  0
  -25.9330  -32.5160   23.7990 C   0  0  0  0  0  3  0  0  0  0  0  0
  -25.6110  -33.9090   24.1440 N   0  0  0  0  0  0  0  0  0  0  0  0
  -25.9300  -34.9740   23.3950 C   0  0  0  0  0  0  0  0  0  0  0  0
  -26.5960  -34.8870   22.3600 O   0  0  0  0  0  0  0  0  0  0  0  0
  -25.0270  -34.0500   24.9550 H   0  0  0  0  0  0  0  0  0  0  0  0
  -24.1930  -36.7590   23.0490 C   0  0  0  0  0  1  0  0  0  0  0  0
  -25.4290  -36.3530   23.8670 C   0  0  0  0  0  3  0  0  0  0  0  0
  -27.5510  -37.2410   24.7250 C   0  0  0  0  0  1  0  0  0  0  0  0
  -26.4540  -37.4160   23.7770 N   0  0  0  0  0  0  0  0  0  0  0  0
  -26.0390  -38.3300   23.9360 H   0  0  0  0  0  0  0  0  0  0  0  0
  -26.4550  -31.7390   25.0690 C   0  0  1  0  0  0  0  0  0  0  0  0
  -25.3640  -31.4800   26.1340 C   0  0  0  0  0  1  0  0  0  0  0  0
  -27.0540  -30.3700   24.6690 C   0  0  0  0  0  1  0  0  0  0  0  0
  -27.5980  -32.5380   25.7390 C   0  0  0  0  0  1  0  0  0  0  0  0
  3  7  1  0
  4  8  1  0
  4 10  1  0
 11  5  1  6
  5  1  1  0
  6  2  1  0
  9  1  1  0
  9 50  1  0
  9  2  1  0
 10 20  1  0
 10  3  1  0
 11  8  1  0
 11  6  1  0
 11  7  1  0
 12 20  1  0
 13 18  1  0
 14 15  1  0
 14 13  1  0
 16 15  1  0
 16 25  1  0
 16 17  1  0
 18 12  1  0
 18 17  1  0
 19 12  2  0
 20 21  1  0
 22 23  2  0
 23 42  1  0
 24 23  1  0
 24 27  1  0
 25 26  1  0
 25 22  1  0
 26 24  2  0
 27 28  1  0
 28 29  2  0
 30 33  1  0
 30 29  1  0
 31 30  2  0
 32 31  1  0
 32 27  2  0
 33 34  1  0
 34 39  2  0
 34 35  1  0
 35 36  2  0
 36 37  1  0
 37 41  1  0
 38 37  2  0
 39 38  1  0
 40 39  1  0
 42 43  1  0
 43 46  1  0
 43 45  1  0
 44 42  2  0
 47 22  1  0
 47 48  1  0
 49 47  1  0
 51 50  1  0
 52 63  2  0
 53 51  1  0
 53 58  1  0
 54 62  1  0
 54 64  1  0
 55 61  1  0
 55 57  1  0
 56 62  1  0
 57 56  1  0
 58 57  2  0
 59 60  1  0
 59 53  2  0
 60 55  2  0
 61 54  1  0
 62 52  1  0
 64 66  2  0
 65 64  1  0
 67 65  1  0
 68 77  2  0
 68 73  1  0
 69 65  1  0
 69 73  1  0
 70 69  1  0
 71 72  1  0
 71 70  1  0
 72 68  1  0
 73 74  2  0
 74 75  1  0
 76 75  2  0
 77 76  1  0
 78 52  1  0
 78 79  1  0
 78 88  1  0
 79 82  1  0
 80 84  1  0
 80 79  1  0
 81 80  2  0
 84 83  1  0
 86 84  1  0
 86 87  1  0
 86 85  1  0
 88 91  1  1
 88 89  1  0
 90 88  1  0
M  ISO  4  12 100  20 100  50 101  51 101
M  END
>  <TORSDO>  (14) 
F 17

>  <SCORE>  (14) 
-14.522

>  <name>  (14) 
14

>  <ligand_id>  (14) 
14

>  <original_smiles>  (14) 
[H]c1c([H])c([H])c2c(c1[H])C([H])([H])C([H])([H])C([H])([H])C2([H])N([H])C(=O)C1([H])N(C(=O)C([H])(N([H])C(=O)C([H])(N([H])C([H])([H])[H])C([H])([H])[H])C(C([H])([H])[H])(C([H])([H])[H])C([H])([H])[H])C([H])([H])c2c([H])c(OC([H])([H])C3([H])C([H])([H])C([H])([H])C4(C([H])([H])C([H])([H])C([H])(N([H])C(=O)N5C([H])([H])C([H])([H])C([H])([H])C([H])(n6nc(-c7c([H])c([H])c(Oc8c([H])c([H])c(F)c([H])c8F)c([H])c7[H])c(C(=O)N([H])[H])c6N([H])[H])C5([H])[H])C([H])([H])C4([H])[H])C([H])([H])C3([H])[H])c([H])c([H])c2C1([H])[H]

>  <smiles>  (14) 
[H]c1c([H])c([H])c2c(c1[H])C([H])([H])C([H])([H])C([H])([H])C2([H])N([H])C(=O)C1([H])N(C(=O)C([H])(N([H])C(=O)C([H])(N([H])C([H])([H])[H])C([H])([H])[H])C(C([H])([H])[H])(C([H])([H])[H])C([H])([H])[H])C([H])([H])c2c([H])c(OC([H])([H])C3([H])C([H])([H])C([H])([H])C4(C([H])([H])C([H])([H])C([H])(N([H])C(=O)N5C([H])([H])C([H])([H])C([H])([H])C([H])(n6nc(-c7c([H])c([H])c(Oc8c([H])c([H])c(F)c([H])c8F)c([H])c7[H])c(C(=O)N([H])[H])c6N([H])[H])C5([H])[H])C([H])([H])C4([H])[H])C([H])([H])C3([H])[H])c([H])c([H])c2C1([H])[H]

$$$$
15:0:0
     RDKit          3D

 96105  0  0  1  0  0  0  0  0999 V2000
  -26.0900  -21.3110   19.8230 C   0  0  0  0  0  2  0  0  0  0  0  0
  -26.1450  -22.7830   20.2230 C   0  0  0  0  0  2  0  0  0  0  0  0
  -27.9220  -19.4750   19.5900 C   0  0  0  0  0  2  0  0  0  0  0  0
  -27.5170  -20.9600   19.4000 C   0  0  0  0  0  3  0  0  0  0  0  0
  -28.4160  -21.8160   20.3070 C   0  0  0  0  0  3  0  0  0  0  0  0
  -27.5330  -22.9830   20.8670 C   0  0  0  0  0  3  0  0  0  0  0  0
  -29.1990  -19.4970   20.4390 C   0  0  0  0  0  3  0  0  0  0  0  0
  -28.9610  -20.7680   21.3170 C   0  0  0  0  0  3  0  0  0  0  0  0
  -28.0500  -24.4820   20.8550 C   0  0  0  0  0  3  0  0  0  0  0  0
  -28.2510  -25.2570   19.5150 C   0  0  0  0  0  3  0  0  0  0  0  0
  -28.3420  -26.7140   19.6440 O   0  0  0  0  0  0  0  0  0  0  0  0
  -24.6900  -31.7800   23.1020 C   0  0  0  0  0  0  0  0  0  0  0  0
  -27.1900  -27.4890   19.6740 C   0  0  0  0  0  0  0  0  0  0  0  0
  -23.4250  -30.4700   21.4320 C   0  0  0  0  0  3  0  0  0  0  0  0
  -24.8230  -29.0400   19.8600 C   0  0  0  0  0  0  0  0  0  0  0  0
  -25.9430  -30.8470   21.1630 C   0  0  0  0  0  2  0  0  0  0  0  0
  -26.0110  -29.5140   20.4300 C   0  0  0  0  0  0  0  0  0  0  0  0
  -27.1970  -28.7460   20.3360 C   0  0  0  0  0  3  0  0  0  0  0  0
  -25.9840  -27.0590   19.0740 C   0  0  0  0  0  3  0  0  0  0  0  0
  -24.8110  -27.8220   19.1710 C   0  0  0  0  0  3  0  0  0  0  0  0
  -23.5920  -29.8910   20.0020 C   0  0  0  0  0  2  0  0  0  0  0  0
  -24.7040  -31.0430   21.9560 N   0  0  0  0  0  0  0  0  0  0  0  0
  -23.6330  -32.0100   23.7070 O   0  0  0  0  0  0  0  0  0  0  0  0
  -22.8190  -29.3830   22.3500 C   0  0  0  0  0  0  0  0  0  0  0  0
  -21.4930  -29.1730   22.2450 N   0  0  0  0  0  0  0  0  0  0  0  0
  -23.5340  -28.7400   23.1200 O   0  0  0  0  0  0  0  0  0  0  0  0
  -20.9840  -29.7210   21.5680 H   0  0  0  0  0  0  0  0  0  0  0  0
  -18.1470  -27.9160   22.7940 C   0  0  0  0  0  0  0  0  0  0  0  0
  -20.7080  -28.1970   23.0040 C   0  0  0  0  0  3  0  0  0  0  0  0
  -20.8040  -26.7990   22.3460 C   0  0  0  0  0  2  0  0  0  0  0  0
  -19.6790  -26.5310   21.3430 C   0  0  0  0  0  2  0  0  0  0  0  0
  -18.3170  -26.6220   22.0230 C   0  0  0  0  0  2  0  0  0  0  0  0
  -19.2700  -28.6730   23.2260 C   0  0  0  0  0  0  0  0  0  0  0  0
  -19.0480  -29.9000   23.8830 C   0  0  0  0  0  3  0  0  0  0  0  0
  -17.7470  -30.3690   24.1200 C   0  0  0  0  0  3  0  0  0  0  0  0
  -16.6410  -29.6070   23.7140 C   0  0  0  0  0  3  0  0  0  0  0  0
  -16.8430  -28.3890   23.0390 C   0  0  0  0  0  3  0  0  0  0  0  0
  -25.9960  -32.3850   23.7020 C   0  0  0  0  0  3  0  0  0  0  0  0
  -25.6940  -33.7530   24.1370 N   0  0  0  0  0  0  0  0  0  0  0  0
  -25.9930  -34.8580   23.4390 C   0  0  0  0  0  0  0  0  0  0  0  0
  -26.6340  -34.8300   22.3840 O   0  0  0  0  0  0  0  0  0  0  0  0
  -25.1210  -33.8500   24.9620 H   0  0  0  0  0  0  0  0  0  0  0  0
  -24.2490  -36.6560   23.2730 C   0  0  0  0  0  1  0  0  0  0  0  0
  -25.5170  -36.2040   24.0090 C   0  0  0  0  0  3  0  0  0  0  0  0
  -27.6730  -37.0490   24.8280 C   0  0  0  0  0  1  0  0  0  0  0  0
  -26.5360  -37.2730   23.9370 N   0  0  0  0  0  0  0  0  0  0  0  0
  -26.1290  -38.1740   24.1680 H   0  0  0  0  0  0  0  0  0  0  0  0
  -26.5890  -31.5380   24.8980 C   0  0  1  0  0  0  0  0  0  0  0  0
  -25.5520  -31.2320   26.0030 C   0  0  0  0  0  1  0  0  0  0  0  0
  -27.1530  -30.1880   24.3940 C   0  0  0  0  0  1  0  0  0  0  0  0
  -27.7660  -32.2990   25.5500 C   0  0  0  0  0  1  0  0  0  0  0  0
  -29.5430  -18.1390   21.1540 C   0  0  0  0  0  2  0  0  0  0  0  0
  -29.7400  -16.9160   20.1890 C   0  0  0  0  0  2  0  0  0  0  0  0
  -30.9760  -14.7320   20.1330 C   0  0  0  0  0  0  0  0  0  0  0  0
  -30.6820  -12.5400   19.0060 C   0  0  0  0  0  2  0  0  0  0  0  0
  -29.7010  -12.6720   17.8230 C   0  0  0  0  0  2  0  0  0  0  0  0
  -28.2430  -12.5370   18.3010 C   0  0  0  0  0  2  0  0  0  0  0  0
  -27.9390  -13.4190   19.5420 C   0  0  0  0  0  3  0  0  0  0  0  0
  -29.0160  -13.2340   20.6320 C   0  0  0  0  0  2  0  0  0  0  0  0
  -30.3100  -13.5480   20.0180 N   0  0  0  0  0  0  0  0  0  0  0  0
  -32.0700  -14.9240   19.5970 O   0  0  0  0  0  0  0  0  0  0  0  0
  -30.3630  -15.7270   20.8210 N   0  0  0  0  0  0  0  0  0  0  0  0
  -31.0040  -16.0490   21.5320 H   0  0  0  0  0  0  0  0  0  0  0  0
  -25.5800  -14.0650   20.3380 C   0  0  0  0  0  0  0  0  0  0  0  0
  -24.5070  -13.3150   20.7270 C   0  0  0  0  0  0  0  0  0  0  0  0
  -24.9380  -11.9510   20.6710 C   0  0  0  0  0  0  0  0  0  0  0  0
  -26.5960  -13.1660   20.0630 N   0  0  0  0  0  0  0  0  0  0  0  0
  -26.2160  -11.8860   20.3180 N   0  0  0  0  0  0  0  0  0  0  0  0
  -24.1950  -10.7030   20.8680 C   0  0  0  0  0  0  0  0  0  0  0  0
  -24.6090   -9.7410   21.8140 C   0  0  0  0  0  3  0  0  0  0  0  0
  -23.8680   -8.5540   21.9990 C   0  0  0  0  0  3  0  0  0  0  0  0
  -22.6970   -8.3220   21.2400 C   0  0  0  0  0  0  0  0  0  0  0  0
  -22.3020   -9.2730   20.2830 C   0  0  0  0  0  3  0  0  0  0  0  0
  -23.0410  -10.4520   20.0970 C   0  0  0  0  0  3  0  0  0  0  0  0
  -21.9240   -7.1890   21.3380 O   0  0  0  0  0  0  0  0  0  0  0  0
  -21.8170   -6.4920   22.5140 C   0  0  0  0  0  0  0  0  0  0  0  0
  -21.3570   -7.1000   23.7020 C   0  0  0  0  0  3  0  0  0  0  0  0
  -21.1940   -6.3280   24.8700 C   0  0  0  0  0  3  0  0  0  0  0  0
  -21.4830   -4.9510   24.8530 C   0  0  0  0  0  0  0  0  0  0  0  0
  -21.9310   -4.3420   23.6670 C   0  0  0  0  0  3  0  0  0  0  0  0
  -22.0960   -5.1090   22.5030 C   0  0  0  0  0  0  0  0  0  0  0  0
  -22.5140   -4.5130   21.3600 F   0  0  0  0  0  0  0  0  0  0  0  0
  -21.3150   -4.2110   25.9730 F   0  0  0  0  0  0  0  0  0  0  0  0
  -23.1310  -13.8140   21.0520 C   0  0  0  0  0  0  0  0  0  0  0  0
  -22.4220  -13.1320   21.9440 N   0  0  0  0  0  0  0  0  0  0  0  0
  -22.6960  -14.8510   20.5470 O   0  0  0  0  0  0  0  0  0  0  0  0
  -22.7910  -12.3010   22.3820 H   0  0  0  0  0  0  0  0  0  0  0  0
  -21.5040  -13.4550   22.2050 H   0  0  0  0  0  0  0  0  0  0  0  0
  -25.7820  -15.4320   20.1760 N   0  0  0  0  0  0  0  0  0  0  0  0
  -25.0600  -16.1230   20.3450 H   0  0  0  0  0  0  0  0  0  0  0  0
  -26.6540  -15.8420   19.8660 H   0  0  0  0  0  0  0  0  0  0  0  0
  -30.1850  -21.2950   22.1020 C   0  0  0  0  0  2  0  0  0  0  0  0
  -29.8060  -21.8750   23.4050 N   0  0  0  0  0  4  0  0  0  0  0  0
  -30.6390  -22.1760   23.8860 H   0  0  0  0  0  0  0  0  0  0  0  0
  -29.3530  -21.1720   23.9590 H   0  0  0  0  0  0  0  0  0  0  0  0
  -29.1840  -22.6610   23.3060 H   0  0  0  0  0  0  0  0  0  0  0  0
  1  2  1  0
  2  6  1  0
  3  7  1  0
  4  3  1  0
  4  1  1  0
  4  5  1  0
  5  6  1  0
  5  8  1  0
  7 52  1  0
  7  8  1  0
  8 92  1  0
  9  6  1  0
 10 11  1  0
 10  9  2  0
 11 13  1  0
 12 38  1  0
 12 23  2  0
 13 18  1  0
 14 22  1  0
 14 24  1  0
 15 21  1  0
 15 17  1  0
 16 22  1  0
 17 16  1  0
 18 17  2  0
 19 20  1  0
 19 13  2  0
 20 15  2  0
 21 14  1  0
 22 12  1  0
 24 26  2  0
 25 24  1  0
 25 29  1  0
 27 25  1  0
 28 37  2  0
 28 33  1  0
 29 33  1  0
 30 29  1  0
 31 32  1  0
 31 30  1  0
 32 28  1  0
 33 34  2  0
 34 35  1  0
 36 35  2  0
 37 36  1  0
 38 39  1  0
 38 48  1  0
 39 42  1  0
 40 44  1  0
 40 39  1  0
 41 40  2  0
 43 44  1  0
 46 44  1  0
 46 47  1  0
 46 45  1  0
 48 51  1  1
 48 49  1  0
 50 48  1  0
 53 62  1  0
 53 52  1  0
 54 62  1  0
 55 60  1  0
 56 57  1  0
 56 55  1  0
 57 58  1  0
 58 67  1  0
 58 59  1  0
 60 54  1  0
 60 59  1  0
 61 54  2  0
 62 63  1  0
 64 65  2  0
 65 84  1  0
 66 65  1  0
 66 69  1  0
 67 68  1  0
 67 64  1  0
 68 66  2  0
 69 70  1  0
 70 71  2  0
 72 75  1  0
 72 71  1  0
 73 72  2  0
 74 73  1  0
 74 69  2  0
 75 76  1  0
 76 77  1  0
 77 78  2  0
 79 78  1  0
 79 83  1  0
 80 79  2  0
 81 76  2  0
 81 80  1  0
 82 81  1  0
 84 85  1  0
 85 88  1  0
 85 87  1  0
 86 84  2  0
 89 64  1  0
 89 90  1  0
 91 89  1  0
 92 93  1  0
 93 94  1  0
 93 95  1  0
 96 93  1  0
M  ISO  4  10 101  11 101  54 100  62 100
M  END
>  <TORSDO>  (15) 
F 22

>  <SCORE>  (15) 
-12.084

>  <name>  (15) 
15

>  <ligand_id>  (15) 
15

>  <original_smiles>  (15) 
[H]c1c([H])c([H])c2c(c1[H])C([H])([H])C([H])([H])C([H])([H])C2([H])N([H])C(=O)C1([H])N(C(=O)C([H])(N([H])C(=O)C([H])(N([H])C([H])([H])[H])C([H])([H])[H])C(C([H])([H])[H])(C([H])([H])[H])C([H])([H])[H])C([H])([H])c2c([H])c(OC([H])([H])C([H])([H])C3([H])C([H])([H])C([H])([H])C4([H])C([H])([H])C([H])(C([H])([H])C([H])([H])N([H])C(=O)N5C([H])([H])C([H])([H])C([H])([H])C([H])(n6nc(-c7c([H])c([H])c(Oc8c([H])c([H])c(F)c([H])c8F)c([H])c7[H])c(C(=O)N([H])[H])c6N([H])[H])C5([H])[H])C([H])(C([H])([H])[N+]([H])([H])[H])C34[H])c([H])c([H])c2C1([H])[H]

>  <smiles>  (15) 
[H]c1c([H])c([H])c2c(c1[H])C([H])([H])C([H])([H])C([H])([H])C2([H])N([H])C(=O)C1([H])N(C(=O)C([H])(N([H])C(=O)C([H])(N([H])C([H])([H])[H])C([H])([H])[H])C(C([H])([H])[H])(C([H])([H])[H])C([H])([H])[H])C([H])([H])c2c([H])c(OC([H])([H])C([H])([H])C3([H])C([H])([H])C([H])([H])C4([H])C([H])([H])C([H])(C([H])([H])C([H])([H])N([H])C(=O)N5C([H])([H])C([H])([H])C([H])([H])C([H])(n6nc(-c7c([H])c([H])c(Oc8c([H])c([H])c(F)c([H])c8F)c([H])c7[H])c(C(=O)N([H])[H])c6N([H])[H])C5([H])[H])C([H])(C([H])([H])[N+]([H])([H])[H])C34[H])c([H])c([H])c2C1([H])[H]

$$$$
16:0:0
     RDKit          3D

 94103  0  0  1  0  0  0  0  0999 V2000
  -30.9780  -14.7690   20.0790 C   0  0  0  0  0  0  0  0  0  0  0  0
  -31.0900  -12.2010   20.4620 C   0  0  0  0  0  2  0  0  0  0  0  0
  -30.4920  -11.3610   19.3080 C   0  0  0  0  0  2  0  0  0  0  0  0
  -28.9800  -11.1670   19.5160 C   0  0  0  0  0  2  0  0  0  0  0  0
  -28.2840  -12.4940   19.9170 C   0  0  0  0  0  3  0  0  0  0  0  0
  -29.0380  -13.2610   21.0210 C   0  0  0  0  0  2  0  0  0  0  0  0
  -30.3860  -13.5400   20.4980 N   0  0  0  0  0  0  0  0  0  0  0  0
  -32.2160  -14.7360   20.1770 O   0  0  0  0  0  0  0  0  0  0  0  0
  -28.8820  -16.1820   19.1250 C   0  0  0  0  0  2  0  0  0  0  0  0
  -30.8800  -17.2370   18.6330 C   0  0  0  0  0  2  0  0  0  0  0  0
  -28.5400  -17.5260   18.2770 C   0  0  0  0  0  3  0  0  0  0  0  0
  -29.7790  -18.4690   18.2050 C   0  0  0  0  0  3  0  0  0  0  0  0
  -30.3300  -15.9200   19.3700 N   0  0  0  0  0  0  0  0  0  0  0  0
  -25.8420  -18.7440   20.7370 C   0  0  0  0  0  3  0  0  0  0  0  0
  -24.9380  -19.4140   19.8980 C   0  0  0  0  0  3  0  0  0  0  0  0
  -26.9980  -18.1610   20.1910 C   0  0  0  0  0  3  0  0  0  0  0  0
  -25.2060  -19.5130   18.5190 C   0  0  0  0  0  3  0  0  0  0  0  0
  -27.2730  -18.2230   18.8020 C   0  0  0  0  0  0  0  0  0  0  0  0
  -26.3640  -18.9250   17.9630 C   0  0  0  0  0  0  0  0  0  0  0  0
  -26.5950  -19.0760   16.4700 C   0  0  0  0  0  1  0  0  0  0  0  0
  -25.8720  -13.2740   20.1790 C   0  0  0  0  0  0  0  0  0  0  0  0
  -24.7090  -12.6150   20.4470 C   0  0  0  0  0  0  0  0  0  0  0  0
  -25.0690  -11.2500   20.6610 C   0  0  0  0  0  0  0  0  0  0  0  0
  -26.8720  -12.3190   20.2230 N   0  0  0  0  0  0  0  0  0  0  0  0
  -26.3880  -11.1020   20.5820 N   0  0  0  0  0  0  0  0  0  0  0  0
  -24.2240  -10.0660   20.8710 C   0  0  0  0  0  0  0  0  0  0  0  0
  -24.5510   -9.0830   21.8280 C   0  0  0  0  0  3  0  0  0  0  0  0
  -23.7100   -7.9670   22.0260 C   0  0  0  0  0  3  0  0  0  0  0  0
  -22.5250   -7.8270   21.2640 C   0  0  0  0  0  0  0  0  0  0  0  0
  -22.2160   -8.7970   20.2940 C   0  0  0  0  0  3  0  0  0  0  0  0
  -23.0580   -9.9030   20.0960 C   0  0  0  0  0  3  0  0  0  0  0  0
  -21.6630   -6.7610   21.3700 O   0  0  0  0  0  0  0  0  0  0  0  0
  -21.5850   -6.0080   22.5150 C   0  0  0  0  0  0  0  0  0  0  0  0
  -21.3010   -6.5870   23.7700 C   0  0  0  0  0  3  0  0  0  0  0  0
  -21.1580   -5.7670   24.9070 C   0  0  0  0  0  3  0  0  0  0  0  0
  -21.2910   -4.3720   24.7920 C   0  0  0  0  0  0  0  0  0  0  0  0
  -21.5720   -3.7920   23.5420 C   0  0  0  0  0  3  0  0  0  0  0  0
  -21.7150   -4.6090   22.4070 C   0  0  0  0  0  0  0  0  0  0  0  0
  -21.9620   -4.0450   21.2000 F   0  0  0  0  0  0  0  0  0  0  0  0
  -21.1500   -3.5830   25.8830 F   0  0  0  0  0  0  0  0  0  0  0  0
  -23.3290  -13.2040   20.4020 C   0  0  0  0  0  0  0  0  0  0  0  0
  -22.4280  -12.7260   21.2540 N   0  0  0  0  0  0  0  0  0  0  0  0
  -23.0540  -14.1320   19.6440 O   0  0  0  0  0  0  0  0  0  0  0  0
  -22.6540  -11.9840   21.8990 H   0  0  0  0  0  0  0  0  0  0  0  0
  -21.4940  -13.1100   21.2590 H   0  0  0  0  0  0  0  0  0  0  0  0
  -26.1600  -14.5980   19.8690 N   0  0  0  0  0  0  0  0  0  0  0  0
  -25.4370  -15.3040   19.8020 H   0  0  0  0  0  0  0  0  0  0  0  0
  -27.0830  -14.9540   19.6690 H   0  0  0  0  0  0  0  0  0  0  0  0
  -30.7370  -20.9560   18.4690 C   0  0  0  0  0  1  0  0  0  0  0  0
  -30.7320  -19.9000   16.2180 C   0  0  0  0  0  1  0  0  0  0  0  0
  -29.8670  -20.1510   17.4680 C   0  0  1  0  0  0  0  0  0  0  0  0
  -28.7560  -21.4510   16.8990 C   0  0  0  0  0  2  0  0  0  0  0  0
  -28.3980  -23.1110   17.5120 C   0  0  0  0  0  2  0  0  0  0  0  0
  -28.0600  -24.6100   16.9410 O   0  0  0  0  0  0  0  0  0  0  0  0
  -26.4810  -29.0470   22.8520 C   0  0  0  0  0  0  0  0  0  0  0  0
  -27.4100  -25.7610   17.6090 C   0  0  0  0  0  0  0  0  0  0  0  0
  -24.9450  -29.0580   20.9260 C   0  0  0  0  0  3  0  0  0  0  0  0
  -25.8300  -27.9920   18.7450 C   0  0  0  0  0  0  0  0  0  0  0  0
  -27.4430  -28.5520   20.5520 C   0  0  0  0  0  2  0  0  0  0  0  0
  -27.0730  -27.6870   19.3150 C   0  0  0  0  0  0  0  0  0  0  0  0
  -27.8680  -26.6050   18.7310 C   0  0  0  0  0  3  0  0  0  0  0  0
  -26.1820  -26.2110   17.0740 C   0  0  0  0  0  3  0  0  0  0  0  0
  -25.4110  -27.2720   17.6130 C   0  0  0  0  0  3  0  0  0  0  0  0
  -24.9770  -29.0910   19.3740 C   0  0  0  0  0  2  0  0  0  0  0  0
  -26.3160  -28.8740   21.5010 N   0  0  0  0  0  0  0  0  0  0  0  0
  -25.5320  -29.3520   23.5910 O   0  0  0  0  0  0  0  0  0  0  0  0
  -23.9390  -27.9750   21.3950 C   0  0  0  0  0  0  0  0  0  0  0  0
  -22.6300  -28.2850   21.3610 N   0  0  0  0  0  0  0  0  0  0  0  0
  -24.3440  -26.8680   21.7560 O   0  0  0  0  0  0  0  0  0  0  0  0
  -22.3680  -29.2140   21.0670 H   0  0  0  0  0  0  0  0  0  0  0  0
  -19.0230  -28.0110   21.5980 C   0  0  0  0  0  0  0  0  0  0  0  0
  -21.5280  -27.3780   21.6990 C   0  0  0  0  0  3  0  0  0  0  0  0
  -21.2220  -26.4110   20.5300 C   0  0  0  0  0  2  0  0  0  0  0  0
  -20.1250  -26.9270   19.5940 C   0  0  0  0  0  2  0  0  0  0  0  0
  -18.8200  -27.1470   20.3650 C   0  0  0  0  0  2  0  0  0  0  0  0
  -20.2970  -28.1330   22.2140 C   0  0  0  0  0  0  0  0  0  0  0  0
  -20.4350  -28.9760   23.3370 C   0  0  0  0  0  3  0  0  0  0  0  0
  -19.3310  -29.6890   23.8440 C   0  0  0  0  0  3  0  0  0  0  0  0
  -18.0710  -29.5530   23.2390 C   0  0  0  0  0  3  0  0  0  0  0  0
  -17.9170  -28.7130   22.1220 C   0  0  0  0  0  3  0  0  0  0  0  0
  -27.8750  -28.8870   23.5310 C   0  0  0  0  0  3  0  0  0  0  0  0
  -28.3200  -27.3790   23.6830 C   0  0  1  0  0  0  0  0  0  0  0  0
  -27.2490  -26.4780   24.3440 C   0  0  0  0  0  1  0  0  0  0  0  0
  -28.6690  -26.7630   22.3100 C   0  0  0  0  0  1  0  0  0  0  0  0
  -29.6070  -27.2960   24.5370 C   0  0  0  0  0  1  0  0  0  0  0  0
  -27.8120  -29.5320   24.8540 N   0  0  0  0  0  0  0  0  0  0  0  0
  -28.4540  -30.6590   25.1900 C   0  0  0  0  0  0  0  0  0  0  0  0
  -29.2250  -31.2410   24.4200 O   0  0  0  0  0  0  0  0  0  0  0  0
  -27.1610  -29.1350   25.5160 H   0  0  0  0  0  0  0  0  0  0  0  0
  -27.2950  -32.4640   26.5050 C   0  0  0  0  0  1  0  0  0  0  0  0
  -28.2090  -31.2320   26.6010 C   0  0  0  0  0  3  0  0  0  0  0  0
  -30.2560  -30.4330   27.7000 C   0  0  0  0  0  1  0  0  0  0  0  0
  -29.4530  -31.5920   27.3180 N   0  0  0  0  0  0  0  0  0  0  0  0
  -29.2450  -32.1240   28.1590 H   0  0  0  0  0  0  0  0  0  0  0  0
  1  8  2  0
  1  7  1  0
  2  7  1  0
  3  4  1  0
  3  2  1  0
  5  4  1  0
  5 24  1  0
  5  6  1  0
  7  6  1  0
  9 13  1  0
 10 13  1  0
 11 18  1  0
 11  9  1  0
 12 51  1  0
 12 11  1  0
 12 10  1  0
 13  1  1  0
 15 14  2  0
 16 14  1  0
 17 15  1  0
 18 16  2  0
 19 17  2  0
 19 18  1  0
 20 19  1  0
 21 24  1  0
 21 22  2  0
 22 23  1  0
 23 26  1  0
 24 25  1  0
 25 23  2  0
 26 27  1  0
 27 28  2  0
 29 32  1  0
 29 28  1  0
 30 29  2  0
 31 30  1  0
 31 26  2  0
 32 33  1  0
 33 34  1  0
 34 35  2  0
 36 35  1  0
 36 40  1  0
 37 36  2  0
 38 33  2  0
 38 37  1  0
 39 38  1  0
 41 22  1  0
 41 42  1  0
 42 45  1  0
 42 44  1  0
 43 41  2  0
 46 21  1  0
 47 46  1  0
 48 46  1  0
 51 50  1  6
 51 49  1  0
 52 51  1  0
 52 53  1  0
 54 53  1  0
 54 56  1  0
 55 66  2  0
 56 61  1  0
 57 67  1  0
 57 65  1  0
 58 60  1  0
 58 64  1  0
 59 65  1  0
 60 59  1  0
 61 60  2  0
 62 56  2  0
 62 63  1  0
 63 58  2  0
 64 57  1  0
 65 55  1  0
 67 69  2  0
 68 67  1  0
 70 68  1  0
 71 80  2  0
 71 76  1  0
 72 68  1  0
 72 76  1  0
 73 72  1  0
 74 75  1  0
 74 73  1  0
 75 71  1  0
 76 77  2  0
 77 78  1  0
 79 78  2  0
 80 79  1  0
 81 55  1  0
 81 82  1  0
 81 86  1  0
 82 83  1  1
 82 85  1  0
 84 82  1  0
 86 87  1  0
 86 89  1  0
 87 91  1  0
 88 87  2  0
 91 90  1  0
 91 93  1  0
 93 92  1  0
 93 94  1  0
M  ISO  4   1 100  13 100  53 101  54 101
M  END
>  <TORSDO>  (16) 
F 19

>  <SCORE>  (16) 
-3.806

>  <name>  (16) 
16

>  <ligand_id>  (16) 
16

>  <original_smiles>  (16) 
[H]c1c([H])c([H])c(C2([H])C([H])([H])N(C(=O)N3C([H])([H])C([H])([H])C([H])([H])C([H])(n4nc(-c5c([H])c([H])c(Oc6c([H])c([H])c(F)c([H])c6F)c([H])c5[H])c(C(=O)N([H])[H])c4N([H])[H])C3([H])[H])C([H])([H])C2([H])C(C([H])([H])[H])(C([H])([H])[H])C([H])([H])C([H])([H])Oc2c([H])c([H])c3c(c2[H])C([H])([H])N(C(=O)C([H])(N([H])C(=O)C([H])(N([H])C([H])([H])[H])C([H])([H])[H])C(C([H])([H])[H])(C([H])([H])[H])C([H])([H])[H])C([H])(C(=O)N([H])C2([H])c4c([H])c([H])c([H])c([H])c4C([H])([H])C([H])([H])C2([H])[H])C3([H])[H])c(C([H])([H])[H])c1[H]

>  <smiles>  (16) 
[H]c1c([H])c([H])c(C2([H])C([H])([H])N(C(=O)N3C([H])([H])C([H])([H])C([H])([H])C([H])(n4nc(-c5c([H])c([H])c(Oc6c([H])c([H])c(F)c([H])c6F)c([H])c5[H])c(C(=O)N([H])[H])c4N([H])[H])C3([H])[H])C([H])([H])C2([H])C(C([H])([H])[H])(C([H])([H])[H])C([H])([H])C([H])([H])Oc2c([H])c([H])c3c(c2[H])C([H])([H])N(C(=O)C([H])(N([H])C(=O)C([H])(N([H])C([H])([H])[H])C([H])([H])[H])C(C([H])([H])[H])(C([H])([H])[H])C([H])([H])[H])C([H])(C(=O)N([H])C2([H])c4c([H])c([H])c([H])c([H])c4C([H])([H])C([H])([H])C2([H])[H])C3([H])[H])c(C([H])([H])[H])c1[H]

$$$$
17:0:0
     RDKit          3D

 93102  0  0  1  0  0  0  0  0999 V2000
  -31.3690  -16.5090   20.8190 C   0  0  0  0  0  0  0  0  0  0  0  0
  -31.0470  -17.4240   19.5870 C   0  0  0  0  0  2  0  0  0  0  0  0
  -30.9460  -17.0750   22.1730 C   0  0  0  0  0  2  0  0  0  0  0  0
  -31.7120  -18.8670   19.4320 C   0  0  0  0  0  2  0  0  0  0  0  0
  -31.5480  -19.5260   21.8680 C   0  0  0  0  0  2  0  0  0  0  0  0
  -32.4270  -21.2060   20.1750 C   0  0  0  0  0  2  0  0  0  0  0  0
  -30.4360  -18.5300   22.2350 C   0  0  0  0  0  3  0  0  0  0  0  0
  -30.9770  -21.5480   20.2450 C   0  0  0  0  0  3  0  0  0  0  0  0
  -31.4760  -20.0470   20.4430 C   0  0  1  0  0  0  0  0  0  0  0  0
  -31.8070  -15.2860   20.9210 N   0  0  0  0  0  0  0  0  0  0  0  0
  -32.1660  -14.4030   19.8990 C   0  0  0  0  0  0  0  0  0  0  0  0
  -31.5000  -12.3220   18.6830 C   0  0  0  0  0  2  0  0  0  0  0  0
  -30.4920  -12.6350   17.5590 C   0  0  0  0  0  2  0  0  0  0  0  0
  -29.0510  -12.6710   18.1030 C   0  0  0  0  0  2  0  0  0  0  0  0
  -28.9260  -13.5310   19.3890 C   0  0  0  0  0  3  0  0  0  0  0  0
  -30.0200  -13.1510   20.4110 C   0  0  0  0  0  2  0  0  0  0  0  0
  -31.3260  -13.3290   19.7460 N   0  0  0  0  0  0  0  0  0  0  0  0
  -33.1720  -14.5250   19.1990 O   0  0  0  0  0  0  0  0  0  0  0  0
  -26.7270  -14.4670   20.3430 C   0  0  0  0  0  0  0  0  0  0  0  0
  -25.5710  -13.8570   20.7510 C   0  0  0  0  0  0  0  0  0  0  0  0
  -25.7890  -12.4550   20.5890 C   0  0  0  0  0  0  0  0  0  0  0  0
  -27.5840  -13.4450   19.9640 N   0  0  0  0  0  0  0  0  0  0  0  0
  -27.0250  -12.2250   20.1670 N   0  0  0  0  0  0  0  0  0  0  0  0
  -24.8710  -11.3190   20.7590 C   0  0  0  0  0  0  0  0  0  0  0  0
  -25.1890  -10.2330   21.6030 C   0  0  0  0  0  3  0  0  0  0  0  0
  -24.2830   -9.1620   21.7640 C   0  0  0  0  0  3  0  0  0  0  0  0
  -23.0440   -9.1720   21.0810 C   0  0  0  0  0  0  0  0  0  0  0  0
  -22.7420  -10.2450   20.2250 C   0  0  0  0  0  3  0  0  0  0  0  0
  -23.6470  -11.3070   20.0610 C   0  0  0  0  0  3  0  0  0  0  0  0
  -22.1140   -8.1630   21.1560 O   0  0  0  0  0  0  0  0  0  0  0  0
  -22.0150   -7.3570   22.2620 C   0  0  0  0  0  0  0  0  0  0  0  0
  -21.7480   -7.8800   23.5450 C   0  0  0  0  0  3  0  0  0  0  0  0
  -21.5840   -7.0090   24.6400 C   0  0  0  0  0  3  0  0  0  0  0  0
  -21.6790   -5.6180   24.4540 C   0  0  0  0  0  0  0  0  0  0  0  0
  -21.9410   -5.0940   23.1760 C   0  0  0  0  0  3  0  0  0  0  0  0
  -22.1050   -5.9610   22.0820 C   0  0  0  0  0  0  0  0  0  0  0  0
  -22.3360   -5.4500   20.8490 F   0  0  0  0  0  0  0  0  0  0  0  0
  -21.5150   -4.7800   25.5060 F   0  0  0  0  0  0  0  0  0  0  0  0
  -24.3020  -14.5370   21.1770 C   0  0  0  0  0  0  0  0  0  0  0  0
  -23.5920  -13.9620   22.1410 N   0  0  0  0  0  0  0  0  0  0  0  0
  -23.9580  -15.6130   20.6890 O   0  0  0  0  0  0  0  0  0  0  0  0
  -23.8850  -13.0900   22.5570 H   0  0  0  0  0  0  0  0  0  0  0  0
  -22.7440  -14.4020   22.4700 H   0  0  0  0  0  0  0  0  0  0  0  0
  -27.1130  -15.8020   20.2440 N   0  0  0  0  0  0  0  0  0  0  0  0
  -26.4850  -16.5680   20.4600 H   0  0  0  0  0  0  0  0  0  0  0  0
  -28.0100  -16.1080   19.8920 H   0  0  0  0  0  0  0  0  0  0  0  0
  -30.8470  -19.0180   24.7610 C   0  0  0  0  0  1  0  0  0  0  0  0
  -29.8260  -18.8410   23.6220 C   0  0  0  0  0  2  0  0  0  0  0  0
  -30.3330  -22.3160   19.0550 C   0  0  0  0  0  2  0  0  0  0  0  0
  -31.7170  -24.4380   19.6900 C   0  0  0  0  0  1  0  0  0  0  0  0
  -30.4300  -23.9170   19.0280 C   0  0  0  0  0  3  0  0  0  0  0  0
  -29.1760  -24.7670   19.4840 C   0  0  0  0  0  2  0  0  0  0  0  0
  -29.2670  -26.2320   19.3090 O   0  0  0  0  0  0  0  0  0  0  0  0
  -25.0850  -31.0030   22.7430 C   0  0  0  0  0  0  0  0  0  0  0  0
  -28.0860  -26.9870   19.3250 C   0  0  0  0  0  0  0  0  0  0  0  0
  -24.0390  -29.7580   20.8860 C   0  0  0  0  0  3  0  0  0  0  0  0
  -25.6360  -28.4560   19.3760 C   0  0  0  0  0  0  0  0  0  0  0  0
  -26.5630  -30.2140   20.8860 C   0  0  0  0  0  2  0  0  0  0  0  0
  -26.7450  -28.9310   20.0870 C   0  0  0  0  0  0  0  0  0  0  0  0
  -27.9740  -28.2090   20.0510 C   0  0  0  0  0  3  0  0  0  0  0  0
  -26.9540  -26.5650   18.5920 C   0  0  0  0  0  3  0  0  0  0  0  0
  -25.7410  -27.2790   18.6210 C   0  0  0  0  0  3  0  0  0  0  0  0
  -24.3550  -29.2580   19.4520 C   0  0  0  0  0  2  0  0  0  0  0  0
  -25.2430  -30.3370   21.5640 N   0  0  0  0  0  0  0  0  0  0  0  0
  -23.9640  -31.1670   23.2450 O   0  0  0  0  0  0  0  0  0  0  0  0
  -23.3810  -28.6050   21.6820 C   0  0  0  0  0  0  0  0  0  0  0  0
  -22.0510  -28.4620   21.5500 N   0  0  0  0  0  0  0  0  0  0  0  0
  -24.0660  -27.8490   22.3760 O   0  0  0  0  0  0  0  0  0  0  0  0
  -21.5590  -29.1270   20.9700 H   0  0  0  0  0  0  0  0  0  0  0  0
  -18.6510  -27.3480   22.0750 C   0  0  0  0  0  0  0  0  0  0  0  0
  -21.2330  -27.4210   22.1750 C   0  0  0  0  0  3  0  0  0  0  0  0
  -21.2010  -26.1430   21.3070 C   0  0  0  0  0  2  0  0  0  0  0  0
  -20.0100  -26.0970   20.3440 C   0  0  0  0  0  2  0  0  0  0  0  0
  -18.6910  -26.1670   21.1190 C   0  0  0  0  0  2  0  0  0  0  0  0
  -19.8440  -27.9470   22.5570 C   0  0  0  0  0  0  0  0  0  0  0  0
  -19.7510  -29.0640   23.4170 C   0  0  0  0  0  3  0  0  0  0  0  0
  -18.4970  -29.5800   23.7920 C   0  0  0  0  0  3  0  0  0  0  0  0
  -17.3180  -28.9730   23.3230 C   0  0  0  0  0  3  0  0  0  0  0  0
  -17.3970  -27.8570   22.4720 C   0  0  0  0  0  3  0  0  0  0  0  0
  -26.3020  -31.6120   23.5070 C   0  0  0  0  0  3  0  0  0  0  0  0
  -26.9120  -30.6340   24.5860 C   0  0  1  0  0  0  0  0  0  0  0  0
  -25.8560  -30.0110   25.5280 C   0  0  0  0  0  1  0  0  0  0  0  0
  -27.6780  -29.4760   23.9050 C   0  0  0  0  0  1  0  0  0  0  0  0
  -27.9430  -31.3930   25.4560 C   0  0  0  0  0  1  0  0  0  0  0  0
  -25.8510  -32.8600   24.1370 N   0  0  0  0  0  0  0  0  0  0  0  0
  -26.0620  -34.0850   23.6380 C   0  0  0  0  0  0  0  0  0  0  0  0
  -26.7280  -34.2860   22.6180 O   0  0  0  0  0  0  0  0  0  0  0  0
  -25.2540  -32.7670   24.9460 H   0  0  0  0  0  0  0  0  0  0  0  0
  -24.1440  -35.7100   23.6810 C   0  0  0  0  0  1  0  0  0  0  0  0
  -25.4380  -35.2760   24.3890 C   0  0  0  0  0  3  0  0  0  0  0  0
  -27.4820  -36.1820   25.4020 C   0  0  0  0  0  1  0  0  0  0  0  0
  -26.3500  -36.4350   24.5170 N   0  0  0  0  0  0  0  0  0  0  0  0
  -25.8510  -37.2500   24.8630 H   0  0  0  0  0  0  0  0  0  0  0  0
  1 10  2  0
  1  3  1  0
  2  1  1  0
  3  7  1  0
  4  2  1  0
  5  7  1  0
  6  8  1  0
  9  6  1  1
  7 48  1  0
  8 49  1  0
  8  9  1  0
  9  4  1  0
  9  5  1  0
 11 10  1  0
 12 17  1  0
 13 14  1  0
 13 12  1  0
 15 14  1  0
 15 22  1  0
 15 16  1  0
 17 11  1  0
 17 16  1  0
 18 11  2  0
 19 20  2  0
 20 39  1  0
 21 20  1  0
 21 24  1  0
 22 23  1  0
 22 19  1  0
 23 21  2  0
 24 25  1  0
 25 26  2  0
 27 30  1  0
 27 26  1  0
 28 27  2  0
 29 28  1  0
 29 24  2  0
 30 31  1  0
 31 32  1  0
 32 33  2  0
 34 33  1  0
 34 38  1  0
 35 34  2  0
 36 31  2  0
 36 35  1  0
 37 36  1  0
 39 40  1  0
 40 43  1  0
 40 42  1  0
 41 39  2  0
 44 19  1  0
 44 45  1  0
 46 44  1  0
 48 47  1  0
 51 49  1  0
 51 52  1  0
 51 50  1  0
 53 55  1  0
 53 52  1  0
 54 65  2  0
 55 60  1  0
 56 64  1  0
 56 66  1  0
 57 63  1  0
 57 59  1  0
 58 64  1  0
 59 58  1  0
 60 59  2  0
 61 62  1  0
 61 55  2  0
 62 57  2  0
 63 56  1  0
 64 54  1  0
 66 68  2  0
 67 66  1  0
 69 67  1  0
 70 79  2  0
 70 75  1  0
 71 67  1  0
 71 75  1  0
 72 71  1  0
 73 74  1  0
 73 72  1  0
 74 70  1  0
 75 76  2  0
 76 77  1  0
 78 77  2  0
 79 78  1  0
 80 54  1  0
 80 85  1  0
 80 81  1  0
 81 84  1  1
 81 82  1  0
 83 81  1  0
 85 88  1  0
 86 85  1  0
 86 90  1  0
 87 86  2  0
 90 89  1  0
 90 92  1  0
 92 93  1  0
 92 91  1  0
M  ISO  4  10 100  11 100  52 101  53 101
M  END
>  <TORSDO>  (17) 
F 20

>  <SCORE>  (17) 
-6.407

>  <name>  (17) 
17

>  <ligand_id>  (17) 
17

>  <original_smiles>  (17) 
[H]c1c([H])c([H])c2c(c1[H])C([H])([H])C([H])([H])C([H])([H])C2([H])N([H])C(=O)C1([H])N(C(=O)C([H])(N([H])C(=O)C([H])(N([H])C([H])([H])[H])C([H])([H])[H])C(C([H])([H])[H])(C([H])([H])[H])C([H])([H])[H])C([H])([H])c2c([H])c(OC([H])([H])C([H])(C([H])([H])[H])C([H])([H])C3([H])C([H])([H])C34C([H])([H])C([H])([H])C(=NC(=O)N3C([H])([H])C([H])([H])C([H])([H])C([H])(n5nc(-c6c([H])c([H])c(Oc7c([H])c([H])c(F)c([H])c7F)c([H])c6[H])c(C(=O)N([H])[H])c5N([H])[H])C3([H])[H])C([H])([H])C([H])(C([H])([H])C([H])([H])[H])C4([H])[H])c([H])c([H])c2C1([H])[H]

>  <smiles>  (17) 
[H]c1c([H])c([H])c2c(c1[H])C([H])([H])C([H])([H])C([H])([H])C2([H])N([H])C(=O)C1([H])N(C(=O)C([H])(N([H])C(=O)C([H])(N([H])C([H])([H])[H])C([H])([H])[H])C(C([H])([H])[H])(C([H])([H])[H])C([H])([H])[H])C([H])([H])c2c([H])c(OC([H])([H])C([H])(C([H])([H])[H])C([H])([H])C3([H])C([H])([H])C34C([H])([H])C([H])([H])C(=NC(=O)N3C([H])([H])C([H])([H])C([H])([H])C([H])(n5nc(-c6c([H])c([H])c(Oc7c([H])c([H])c(F)c([H])c7F)c([H])c6[H])c(C(=O)N([H])[H])c5N([H])[H])C3([H])[H])C([H])([H])C([H])(C([H])([H])C([H])([H])[H])C4([H])[H])c([H])c([H])c2C1([H])[H]

$$$$
18:0:0
     RDKit          3D

 96105  0  0  1  0  0  0  0  0999 V2000
  -28.6100  -22.4070   17.5620 C   0  0  0  0  0  2  0  0  0  0  0  0
  -29.8830  -22.5370   18.3880 C   0  0  0  0  0  2  0  0  0  0  0  0
  -28.1710  -20.1120   18.8190 C   0  0  0  0  0  2  0  0  0  0  0  0
  -29.4780  -21.0520   20.5900 C   0  0  0  0  0  3  0  0  0  0  0  0
  -28.0230  -21.6460   18.7520 C   0  0  0  0  0  3  0  0  0  0  0  0
  -29.0460  -22.3080   19.6840 C   0  0  2  0  0  0  0  0  0  0  0  0
  -29.2670  -19.7680   19.7820 N   0  0  1  0  0  4  0  0  0  0  0  0
  -30.1210  -19.7010   19.2440 H   0  0  0  0  0  0  0  0  0  0  0  0
  -30.9690  -21.1550   20.9510 C   0  0  0  0  0  0  0  0  0  0  0  0
  -31.3420  -22.0030   22.1580 C   0  0  0  0  0  1  0  0  0  0  0  0
  -31.8590  -20.6440   20.2650 O   0  0  0  0  0  0  0  0  0  0  0  0
  -28.6860  -23.6920   20.4590 C   0  0  0  0  0  3  0  0  0  0  0  0
  -28.2780  -25.0180   19.6290 C   0  0  0  0  0  3  0  0  0  0  0  0
  -28.2090  -26.3690   20.2710 O   0  0  0  0  0  0  0  0  0  0  0  0
  -24.5690  -31.8750   23.2390 C   0  0  0  0  0  0  0  0  0  0  0  0
  -27.0910  -27.2280   20.1920 C   0  0  0  0  0  0  0  0  0  0  0  0
  -23.3400  -30.4920   21.6060 C   0  0  0  0  0  3  0  0  0  0  0  0
  -24.7590  -28.9100   20.1830 C   0  0  0  0  0  0  0  0  0  0  0  0
  -25.8870  -30.7510   21.4240 C   0  0  0  0  0  2  0  0  0  0  0  0
  -25.9380  -29.3680   20.7820 C   0  0  0  0  0  0  0  0  0  0  0  0
  -27.1020  -28.5380   20.7790 C   0  0  0  0  0  3  0  0  0  0  0  0
  -25.8790  -26.8320   19.5750 C   0  0  0  0  0  3  0  0  0  0  0  0
  -24.7350  -27.6490   19.5740 C   0  0  0  0  0  3  0  0  0  0  0  0
  -23.5410  -29.8090   20.2280 C   0  0  0  0  0  2  0  0  0  0  0  0
  -24.6190  -31.0570   22.1450 N   0  0  0  0  0  0  0  0  0  0  0  0
  -23.4900  -32.1760   23.7700 O   0  0  0  0  0  0  0  0  0  0  0  0
  -22.6560  -29.4930   22.5690 C   0  0  0  0  0  0  0  0  0  0  0  0
  -21.3260  -29.3460   22.4470 N   0  0  0  0  0  0  0  0  0  0  0  0
  -23.3210  -28.8540   23.3890 O   0  0  0  0  0  0  0  0  0  0  0  0
  -20.8480  -29.9140   21.7610 H   0  0  0  0  0  0  0  0  0  0  0  0
  -17.9230  -28.2270   22.9600 C   0  0  0  0  0  0  0  0  0  0  0  0
  -20.4880  -28.4280   23.2200 C   0  0  0  0  0  3  0  0  0  0  0  0
  -20.5540  -26.9930   22.6470 C   0  0  0  0  0  2  0  0  0  0  0  0
  -19.4420  -26.6950   21.6360 C   0  0  0  0  0  2  0  0  0  0  0  0
  -18.0650  -26.8720   22.2840 C   0  0  0  0  0  2  0  0  0  0  0  0
  -19.0600  -28.9630   23.3850 C   0  0  0  0  0  0  0  0  0  0  0  0
  -18.8720  -30.2310   23.9780 C   0  0  0  0  0  3  0  0  0  0  0  0
  -17.5800  -30.7620   24.1480 C   0  0  0  0  0  3  0  0  0  0  0  0
  -16.4570  -30.0220   23.7380 C   0  0  0  0  0  3  0  0  0  0  0  0
  -16.6290  -28.7560   23.1510 C   0  0  0  0  0  3  0  0  0  0  0  0
  -25.8620  -32.4860   23.8620 C   0  0  0  0  0  3  0  0  0  0  0  0
  -25.5750  -33.8870   24.1980 N   0  0  0  0  0  0  0  0  0  0  0  0
  -25.9160  -34.9380   23.4400 C   0  0  0  0  0  0  0  0  0  0  0  0
  -26.5760  -34.8280   22.4030 O   0  0  0  0  0  0  0  0  0  0  0  0
  -24.9950  -34.0500   25.0080 H   0  0  0  0  0  0  0  0  0  0  0  0
  -24.2100  -36.7560   23.1090 C   0  0  0  0  0  1  0  0  0  0  0  0
  -25.4520  -36.3320   23.9070 C   0  0  0  0  0  3  0  0  0  0  0  0
  -27.6040  -37.1840   24.7260 C   0  0  0  0  0  1  0  0  0  0  0  0
  -26.4990  -37.3700   23.7890 N   0  0  0  0  0  0  0  0  0  0  0  0
  -26.1060  -38.2950   23.9420 H   0  0  0  0  0  0  0  0  0  0  0  0
  -26.3660  -31.7040   25.1370 C   0  0  1  0  0  0  0  0  0  0  0  0
  -25.2670  -31.4790   26.2040 C   0  0  0  0  0  1  0  0  0  0  0  0
  -26.9290  -30.3200   24.7400 C   0  0  0  0  0  1  0  0  0  0  0  0
  -27.5320  -32.4770   25.7970 C   0  0  0  0  0  1  0  0  0  0  0  0
  -29.0490  -18.3770   20.4360 C   0  0  0  0  0  2  0  0  0  0  0  0
  -30.2030  -17.2340   20.3910 C   0  0  0  0  0  3  0  0  0  0  0  0
  -30.4900  -14.6340   20.2160 C   0  0  0  0  0  0  0  0  0  0  0  0
  -30.2240  -12.3830   19.1830 C   0  0  0  0  0  2  0  0  0  0  0  0
  -29.2450  -12.4810   17.9950 C   0  0  0  0  0  2  0  0  0  0  0  0
  -27.7940  -12.2980   18.4790 C   0  0  0  0  0  2  0  0  0  0  0  0
  -27.4640  -13.1710   19.7200 C   0  0  0  0  0  3  0  0  0  0  0  0
  -28.5650  -13.0750   20.8020 C   0  0  0  0  0  2  0  0  0  0  0  0
  -29.8410  -13.4230   20.1650 N   0  0  0  0  0  0  0  0  0  0  0  0
  -31.6430  -14.7290   19.7930 O   0  0  0  0  0  0  0  0  0  0  0  0
  -29.7730  -15.7710   20.5430 N   0  0  0  0  0  0  0  0  0  0  0  0
  -28.8260  -15.6100   20.8500 H   0  0  0  0  0  0  0  0  0  0  0  0
  -25.0990  -13.7330   20.5420 C   0  0  0  0  0  0  0  0  0  0  0  0
  -24.0540  -12.9460   20.9430 C   0  0  0  0  0  0  0  0  0  0  0  0
  -24.5280  -11.5990   20.8790 C   0  0  0  0  0  0  0  0  0  0  0  0
  -26.1410  -12.8660   20.2570 N   0  0  0  0  0  0  0  0  0  0  0  0
  -25.8070  -11.5770   20.5230 N   0  0  0  0  0  0  0  0  0  0  0  0
  -23.8200  -10.3270   21.0800 C   0  0  0  0  0  0  0  0  0  0  0  0
  -24.2910   -9.3550   21.9900 C   0  0  0  0  0  3  0  0  0  0  0  0
  -23.5820   -8.1490   22.1800 C   0  0  0  0  0  3  0  0  0  0  0  0
  -22.3880   -7.9060   21.4590 C   0  0  0  0  0  0  0  0  0  0  0  0
  -21.9370   -8.8670   20.5380 C   0  0  0  0  0  3  0  0  0  0  0  0
  -22.6460  -10.0650   20.3470 C   0  0  0  0  0  3  0  0  0  0  0  0
  -21.6480   -6.7530   21.5600 O   0  0  0  0  0  0  0  0  0  0  0  0
  -21.6470   -5.9960   22.7040 C   0  0  0  0  0  0  0  0  0  0  0  0
  -21.2500   -6.5280   23.9500 C   0  0  0  0  0  3  0  0  0  0  0  0
  -21.1990   -5.6950   25.0860 C   0  0  0  0  0  3  0  0  0  0  0  0
  -21.5340   -4.3330   24.9770 C   0  0  0  0  0  0  0  0  0  0  0  0
  -21.9250   -3.7990   23.7360 C   0  0  0  0  0  3  0  0  0  0  0  0
  -21.9780   -4.6290   22.6020 C   0  0  0  0  0  0  0  0  0  0  0  0
  -22.3340   -4.1060   21.4040 F   0  0  0  0  0  0  0  0  0  0  0  0
  -21.4780   -3.5300   26.0670 F   0  0  0  0  0  0  0  0  0  0  0  0
  -22.6630  -13.4070   21.2680 C   0  0  0  0  0  0  0  0  0  0  0  0
  -21.9730  -12.6950   22.1510 N   0  0  0  0  0  0  0  0  0  0  0  0
  -22.1980  -14.4340   20.7750 O   0  0  0  0  0  0  0  0  0  0  0  0
  -22.3620  -11.8640   22.5720 H   0  0  0  0  0  0  0  0  0  0  0  0
  -21.0400  -12.9840   22.4110 H   0  0  0  0  0  0  0  0  0  0  0  0
  -25.2450  -15.1060   20.3700 N   0  0  0  0  0  0  0  0  0  0  0  0
  -24.4690  -15.7490   20.4920 H   0  0  0  0  0  0  0  0  0  0  0  0
  -26.0600  -15.5450   19.9630 H   0  0  0  0  0  0  0  0  0  0  0  0
  -30.8700  -17.2900   22.9100 C   0  0  0  0  0  1  0  0  0  0  0  0
  -31.3000  -17.5200   21.4500 C   0  0  0  0  0  2  0  0  0  0  0  0
  1  2  1  0
  2  6  1  0
  3  7  1  0
  4  9  1  0
  5  1  1  0
  5  3  1  0
  5  6  1  0
  6 12  1  1
  6  4  1  0
  7 55  1  0
  7  4  1  0
  7  8  1  6
  9 10  1  0
 11  9  2  0
 13 14  1  0
 13 12  2  0
 15 26  2  0
 16 14  1  0
 16 21  1  0
 17 25  1  0
 17 27  1  0
 18 24  1  0
 18 20  1  0
 19 25  1  0
 20 19  1  0
 21 20  2  0
 22 16  2  0
 23 22  1  0
 23 18  2  0
 24 17  1  0
 25 15  1  0
 27 29  2  0
 28 27  1  0
 30 28  1  0
 31 40  2  0
 31 36  1  0
 32 28  1  0
 32 36  1  0
 33 32  1  0
 34 35  1  0
 34 33  1  0
 35 31  1  0
 36 37  2  0
 37 38  1  0
 39 38  2  0
 40 39  1  0
 41 15  1  0
 41 42  1  0
 41 51  1  0
 42 45  1  0
 43 47  1  0
 43 42  1  0
 44 43  2  0
 47 46  1  0
 49 47  1  0
 49 50  1  0
 49 48  1  0
 51 54  1  1
 51 52  1  0
 53 51  1  0
 56 55  1  0
 56 65  1  0
 56 96  1  0
 57 65  1  0
 58 63  1  0
 59 60  1  0
 59 58  1  0
 61 60  1  0
 61 70  1  0
 61 62  1  0
 63 57  1  0
 63 62  1  0
 64 57  2  0
 65 66  1  0
 67 68  2  0
 68 87  1  0
 69 68  1  0
 69 72  1  0
 70 71  1  0
 70 67  1  0
 71 69  2  0
 72 73  1  0
 73 74  2  0
 75 78  1  0
 75 74  1  0
 76 75  2  0
 77 76  1  0
 77 72  2  0
 78 79  1  0
 79 80  1  0
 80 81  2  0
 82 81  1  0
 82 86  1  0
 83 82  2  0
 84 79  2  0
 84 83  1  0
 85 84  1  0
 87 88  1  0
 88 91  1  0
 88 90  1  0
 89 87  2  0
 92 93  1  0
 92 67  1  0
 94 92  1  0
 96 95  1  0
M  ISO  4  13 101  14 101  57 100  65 100
M  END
>  <TORSDO>  (18) 
F 22

>  <SCORE>  (18) 
-13.037

>  <name>  (18) 
18

>  <ligand_id>  (18) 
18

>  <original_smiles>  (18) 
[H]c1c([H])c([H])c2c(c1[H])C([H])([H])C([H])([H])C([H])([H])C2([H])N([H])C(=O)C1([H])N(C(=O)C([H])(N([H])C(=O)C([H])(N([H])C([H])([H])[H])C([H])([H])[H])C(C([H])([H])[H])(C([H])([H])[H])C([H])([H])[H])C([H])([H])c2c([H])c(OC([H])([H])C([H])([H])C34C([H])([H])C([H])([H])C3([H])C([H])([H])[N+]([H])(C([H])([H])C([H])(N([H])C(=O)N3C([H])([H])C([H])([H])C([H])([H])C([H])(n5nc(-c6c([H])c([H])c(Oc7c([H])c([H])c(F)c([H])c7F)c([H])c6[H])c(C(=O)N([H])[H])c5N([H])[H])C3([H])[H])C([H])([H])C([H])([H])[H])C4([H])C(=O)C([H])([H])[H])c([H])c([H])c2C1([H])[H]

>  <smiles>  (18) 
[H]c1c([H])c([H])c2c(c1[H])C([H])([H])C([H])([H])C([H])([H])C2([H])N([H])C(=O)C1([H])N(C(=O)C([H])(N([H])C(=O)C([H])(N([H])C([H])([H])[H])C([H])([H])[H])C(C([H])([H])[H])(C([H])([H])[H])C([H])([H])[H])C([H])([H])c2c([H])c(OC([H])([H])C([H])([H])C34C([H])([H])C([H])([H])C3([H])C([H])([H])[N+]([H])(C([H])([H])C([H])(N([H])C(=O)N3C([H])([H])C([H])([H])C([H])([H])C([H])(n5nc(-c6c([H])c([H])c(Oc7c([H])c([H])c(F)c([H])c7F)c([H])c6[H])c(C(=O)N([H])[H])c5N([H])[H])C3([H])[H])C([H])([H])C([H])([H])[H])C4([H])C(=O)C([H])([H])[H])c([H])c([H])c2C1([H])[H]

$$$$
19:0:0
     RDKit          3D

 98106  0  0  1  0  0  0  0  0999 V2000
  -30.7380  -15.1030   20.3710 C   0  0  0  0  0  0  0  0  0  0  0  0
  -30.6270  -12.7020   19.5960 C   0  0  0  0  0  2  0  0  0  0  0  0
  -29.7480  -12.5760   18.3300 C   0  0  0  0  0  2  0  0  0  0  0  0
  -28.2600  -12.4390   18.7180 C   0  0  0  0  0  2  0  0  0  0  0  0
  -27.8070  -13.4240   19.8320 C   0  0  0  0  0  3  0  0  0  0  0  0
  -28.8250  -13.5100   20.9860 C   0  0  0  0  0  2  0  0  0  0  0  0
  -30.1140  -13.8580   20.3780 N   0  0  0  0  0  0  0  0  0  0  0  0
  -31.9730  -15.1140   20.3660 O   0  0  0  0  0  0  0  0  0  0  0  0
  -27.7700  -18.0180   18.4780 C   0  0  0  0  0  2  0  0  0  0  0  0
  -29.7530  -16.2170   18.5250 C   0  0  0  0  0  2  0  0  0  0  0  0
  -30.3900  -17.7740   20.3320 C   0  0  0  0  0  2  0  0  0  0  0  0
  -28.9880  -17.3550   17.7820 C   0  0  0  0  0  3  0  0  0  0  0  0
  -27.9170  -18.5520   19.9270 C   0  0  0  0  0  3  0  0  0  0  0  0
  -29.3200  -19.0710   20.3490 C   0  0  0  0  0  3  0  0  0  0  0  0
  -30.0190  -16.2840   19.9910 N   0  0  0  0  0  0  0  0  0  0  0  0
  -25.4190  -14.0630   20.4640 C   0  0  0  0  0  0  0  0  0  0  0  0
  -24.3230  -13.3160   20.7890 C   0  0  0  0  0  0  0  0  0  0  0  0
  -24.7630  -11.9570   20.8040 C   0  0  0  0  0  0  0  0  0  0  0  0
  -26.4520  -13.1600   20.2880 N   0  0  0  0  0  0  0  0  0  0  0  0
  -26.0670  -11.8890   20.5600 N   0  0  0  0  0  0  0  0  0  0  0  0
  -24.0070  -10.7130   20.9800 C   0  0  0  0  0  0  0  0  0  0  0  0
  -24.3820   -9.7550   21.9460 C   0  0  0  0  0  3  0  0  0  0  0  0
  -23.6280   -8.5730   22.1100 C   0  0  0  0  0  3  0  0  0  0  0  0
  -22.4870   -8.3420   21.3060 C   0  0  0  0  0  0  0  0  0  0  0  0
  -22.1310   -9.2890   20.3300 C   0  0  0  0  0  3  0  0  0  0  0  0
  -22.8850  -10.4630   20.1640 C   0  0  0  0  0  3  0  0  0  0  0  0
  -21.7090   -7.2110   21.3790 O   0  0  0  0  0  0  0  0  0  0  0  0
  -21.5810   -6.5010   22.5450 C   0  0  0  0  0  0  0  0  0  0  0  0
  -21.0540   -7.0830   23.7200 C   0  0  0  0  0  3  0  0  0  0  0  0
  -20.8740   -6.2990   24.8760 C   0  0  0  0  0  3  0  0  0  0  0  0
  -21.2130   -4.9310   24.8590 C   0  0  0  0  0  0  0  0  0  0  0  0
  -21.7360   -4.3500   23.6910 C   0  0  0  0  0  3  0  0  0  0  0  0
  -21.9170   -5.1320   22.5370 C   0  0  0  0  0  0  0  0  0  0  0  0
  -22.3990   -4.5610   21.4060 F   0  0  0  0  0  0  0  0  0  0  0  0
  -21.0340   -4.1750   25.9670 F   0  0  0  0  0  0  0  0  0  0  0  0
  -22.9250  -13.8260   20.9840 C   0  0  0  0  0  0  0  0  0  0  0  0
  -22.1570  -13.1840   21.8560 N   0  0  0  0  0  0  0  0  0  0  0  0
  -22.5220  -14.8290   20.3950 O   0  0  0  0  0  0  0  0  0  0  0  0
  -22.4960  -12.3750   22.3530 H   0  0  0  0  0  0  0  0  0  0  0  0
  -21.2170  -13.5080   22.0330 H   0  0  0  0  0  0  0  0  0  0  0  0
  -25.6190  -15.4280   20.2780 N   0  0  0  0  0  0  0  0  0  0  0  0
  -24.8620  -16.0970   20.3450 H   0  0  0  0  0  0  0  0  0  0  0  0
  -26.5070  -15.8380   20.0270 H   0  0  0  0  0  0  0  0  0  0  0  0
  -29.8920  -18.3450   17.0150 C   0  0  0  0  0  0  0  0  0  0  0  0
  -29.3570  -18.9860   15.9830 N   0  0  0  0  0  0  0  0  0  0  0  0
  -31.0790  -18.5030   17.2950 O   0  0  0  0  0  0  0  0  0  0  0  0
  -28.3960  -18.8190   15.7130 H   0  0  0  0  0  0  0  0  0  0  0  0
  -29.9210  -19.6190   15.4340 H   0  0  0  0  0  0  0  0  0  0  0  0
  -29.7120  -20.6320   19.8500 C   0  0  0  0  0  3  0  0  0  0  0  0
  -29.0070  -22.0680   20.3660 C   0  0  0  0  0  3  0  0  0  0  0  0
  -29.2100  -23.5850   19.6960 C   0  0  0  0  0  3  0  0  0  0  0  0
  -28.2110  -24.8750   20.0330 C   0  0  0  0  0  3  0  0  0  0  0  0
  -28.3910  -26.3510   19.6090 O   0  0  0  0  0  0  0  0  0  0  0  0
  -24.6180  -31.7010   22.9700 C   0  0  0  0  0  0  0  0  0  0  0  0
  -27.2900  -27.2730   19.6450 C   0  0  0  0  0  0  0  0  0  0  0  0
  -23.4360  -30.3810   21.2560 C   0  0  0  0  0  3  0  0  0  0  0  0
  -24.9130  -28.9330   19.7350 C   0  0  0  0  0  0  0  0  0  0  0  0
  -25.9760  -30.7310   21.0820 C   0  0  0  0  0  2  0  0  0  0  0  0
  -26.0840  -29.3800   20.3590 C   0  0  0  0  0  0  0  0  0  0  0  0
  -27.2710  -28.5660   20.3020 C   0  0  0  0  0  3  0  0  0  0  0  0
  -26.0900  -26.9220   18.9900 C   0  0  0  0  0  3  0  0  0  0  0  0
  -24.9260  -27.7160   19.0380 C   0  0  0  0  0  3  0  0  0  0  0  0
  -23.6620  -29.7910   19.8410 C   0  0  0  0  0  2  0  0  0  0  0  0
  -24.6970  -30.9550   21.8270 N   0  0  0  0  0  0  0  0  0  0  0  0
  -23.5310  -31.9250   23.5250 O   0  0  0  0  0  0  0  0  0  0  0  0
  -22.7930  -29.2980   22.1590 C   0  0  0  0  0  0  0  0  0  0  0  0
  -21.4610  -29.1270   22.0590 N   0  0  0  0  0  0  0  0  0  0  0  0
  -23.4920  -28.6150   22.9120 O   0  0  0  0  0  0  0  0  0  0  0  0
  -20.9520  -29.7230   21.4210 H   0  0  0  0  0  0  0  0  0  0  0  0
  -18.0950  -27.9350   22.6330 C   0  0  0  0  0  0  0  0  0  0  0  0
  -20.6700  -28.1330   22.7900 C   0  0  0  0  0  3  0  0  0  0  0  0
  -20.7100  -26.7610   22.0800 C   0  0  0  0  0  2  0  0  0  0  0  0
  -19.5570  -26.5720   21.0870 C   0  0  0  0  0  2  0  0  0  0  0  0
  -18.2150  -26.6550   21.8200 C   0  0  0  0  0  2  0  0  0  0  0  0
  -19.2500  -28.6370   23.0740 C   0  0  0  0  0  0  0  0  0  0  0  0
  -19.0840  -29.8380   23.7980 C   0  0  0  0  0  3  0  0  0  0  0  0
  -17.7980  -30.3330   24.0790 C   0  0  0  0  0  3  0  0  0  0  0  0
  -16.6580  -29.6300   23.6540 C   0  0  0  0  0  3  0  0  0  0  0  0
  -16.8090  -28.4300   22.9350 C   0  0  0  0  0  3  0  0  0  0  0  0
  -25.8890  -32.3240   23.6270 C   0  0  0  0  0  3  0  0  0  0  0  0
  -25.5230  -33.6620   24.1190 N   0  0  0  0  0  0  0  0  0  0  0  0
  -25.7530  -34.8050   23.4600 C   0  0  0  0  0  0  0  0  0  0  0  0
  -26.3630  -34.8460   22.3890 O   0  0  0  0  0  0  0  0  0  0  0  0
  -24.9660  -33.6980   24.9600 H   0  0  0  0  0  0  0  0  0  0  0  0
  -23.9180  -36.5250   23.3970 C   0  0  0  0  0  1  0  0  0  0  0  0
  -25.2260  -36.1120   24.0890 C   0  0  0  0  0  3  0  0  0  0  0  0
  -27.3550  -37.0380   24.8870 C   0  0  0  0  0  1  0  0  0  0  0  0
  -26.1940  -37.2300   24.0220 N   0  0  0  0  0  0  0  0  0  0  0  0
  -25.7510  -38.1090   24.2760 H   0  0  0  0  0  0  0  0  0  0  0  0
  -26.4720  -31.4460   24.8020 C   0  0  1  0  0  0  0  0  0  0  0  0
  -25.4190  -31.0530   25.8650 C   0  0  0  0  0  1  0  0  0  0  0  0
  -27.0900  -30.1400   24.2510 C   0  0  0  0  0  1  0  0  0  0  0  0
  -27.6110  -32.2110   25.5140 C   0  0  0  0  0  1  0  0  0  0  0  0
  -26.7060  -19.4150   20.3970 C   0  0  0  0  0  2  0  0  0  0  0  0
  -26.1160  -20.2750   19.3500 N   0  0  0  0  0  4  0  0  0  0  0  0
  -25.7430  -19.7230   18.6000 H   0  0  0  0  0  0  0  0  0  0  0  0
  -26.7980  -20.9100   18.9760 H   0  0  0  0  0  0  0  0  0  0  0  0
  -25.3610  -20.8180   19.7360 H   0  0  0  0  0  0  0  0  0  0  0  0
  1  7  1  0
  2  7  1  0
  3  4  1  0
  3  2  1  0
  5  4  1  0
  5 19  1  0
  5  6  1  0
  7  6  1  0
  8  1  2  0
  9 13  1  0
 10 15  1  0
 11 14  1  0
 12 44  1  0
 12  9  1  0
 12 10  1  0
 13 14  1  0
 13 94  1  0
 14 49  1  0
 15 11  1  0
 15  1  1  0
 16 17  2  0
 17 18  1  0
 17 36  1  0
 18 21  1  0
 19 16  1  0
 19 20  1  0
 20 18  2  0
 21 22  1  0
 22 23  2  0
 24 27  1  0
 24 23  1  0
 25 24  2  0
 26 25  1  0
 26 21  2  0
 27 28  1  0
 28 29  1  0
 29 30  2  0
 31 30  1  0
 31 35  1  0
 32 31  2  0
 33 28  2  0
 33 32  1  0
 34 33  1  0
 36 37  1  0
 37 40  1  0
 37 39  1  0
 38 36  2  0
 41 42  1  0
 41 16  1  0
 43 41  1  0
 44 46  2  0
 45 44  1  0
 47 45  1  0
 48 45  1  0
 49 50  2  0
 51 52  2  0
 51 50  1  0
 53 55  1  0
 53 52  1  0
 54 65  2  0
 55 60  1  0
 56 64  1  0
 56 66  1  0
 57 63  1  0
 57 59  1  0
 58 64  1  0
 59 58  1  0
 60 59  2  0
 61 62  1  0
 61 55  2  0
 62 57  2  0
 63 56  1  0
 64 54  1  0
 66 68  2  0
 67 66  1  0
 69 67  1  0
 70 79  2  0
 70 75  1  0
 71 67  1  0
 71 75  1  0
 72 71  1  0
 73 74  1  0
 73 72  1  0
 74 70  1  0
 75 76  2  0
 76 77  1  0
 78 77  2  0
 79 78  1  0
 80 54  1  0
 80 81  1  0
 80 90  1  0
 81 84  1  0
 82 86  1  0
 82 81  1  0
 83 82  2  0
 86 85  1  0
 88 86  1  0
 88 89  1  0
 88 87  1  0
 90 93  1  1
 90 91  1  0
 92 90  1  0
 95 98  1  0
 95 94  1  0
 96 95  1  0
 97 95  1  0
M  ISO  4   1 100  15 100  52 101  53 101
M  END
>  <TORSDO>  (19) 
F 22

>  <SCORE>  (19) 
-10.749

>  <name>  (19) 
19

>  <ligand_id>  (19) 
19

>  <original_smiles>  (19) 
[H]c1c([H])c([H])c2c(c1[H])C([H])([H])C([H])([H])C([H])([H])C2([H])N([H])C(=O)C1([H])N(C(=O)C([H])(N([H])C(=O)C([H])(N([H])C([H])([H])[H])C([H])([H])[H])C(C([H])([H])[H])(C([H])([H])[H])C([H])([H])[H])C([H])([H])c2c([H])c(OC([H])([H])C([H])([H])C([H])([H])C([H])([H])C3([H])C([H])([H])N(C(=O)N4C([H])([H])C([H])([H])C([H])([H])C([H])(n5nc(-c6c([H])c([H])c(Oc7c([H])c([H])c(F)c([H])c7F)c([H])c6[H])c(C(=O)N([H])[H])c5N([H])[H])C4([H])[H])C([H])([H])C([H])(C(=O)N([H])[H])C([H])([H])C3([H])C([H])([H])[N+]([H])([H])[H])c([H])c([H])c2C1([H])[H]

>  <smiles>  (19) 
[H]c1c([H])c([H])c2c(c1[H])C([H])([H])C([H])([H])C([H])([H])C2([H])N([H])C(=O)C1([H])N(C(=O)C([H])(N([H])C(=O)C([H])(N([H])C([H])([H])[H])C([H])([H])[H])C(C([H])([H])[H])(C([H])([H])[H])C([H])([H])[H])C([H])([H])c2c([H])c(OC([H])([H])C([H])([H])C([H])([H])C([H])([H])C3([H])C([H])([H])N(C(=O)N4C([H])([H])C([H])([H])C([H])([H])C([H])(n5nc(-c6c([H])c([H])c(Oc7c([H])c([H])c(F)c([H])c7F)c([H])c6[H])c(C(=O)N([H])[H])c5N([H])[H])C4([H])[H])C([H])([H])C([H])(C(=O)N([H])[H])C([H])([H])C3([H])C([H])([H])[N+]([H])([H])[H])c([H])c([H])c2C1([H])[H]

$$$$
20:0:0
     RDKit          3D

 97105  0  0  1  0  0  0  0  0999 V2000
  -31.1820  -19.9740   16.4600 C   0  0  0  0  0  2  0  0  0  0  0  0
  -30.8270  -18.6570   17.1550 C   0  0  0  0  0  2  0  0  0  0  0  0
  -30.0360  -20.9790   16.6100 C   0  0  0  0  0  2  0  0  0  0  0  0
  -29.3680  -19.9100   18.8070 C   0  0  0  0  0  2  0  0  0  0  0  0
  -30.4970  -18.8570   18.6500 C   0  0  0  0  0  3  0  0  0  0  0  0
  -29.7160  -21.2490   18.0950 C   0  0  0  0  0  3  0  0  0  0  0  0
  -30.2080  -17.4570   19.2620 C   0  0  0  0  0  2  0  0  0  0  0  0
  -29.7710  -17.2680   20.7560 C   0  0  0  0  0  3  0  0  0  0  0  0
  -30.2600  -14.7930   20.6810 C   0  0  0  0  0  0  0  0  0  0  0  0
  -30.1260  -12.5560   19.6850 C   0  0  0  0  0  2  0  0  0  0  0  0
  -29.2390  -12.6440   18.4290 C   0  0  0  0  0  2  0  0  0  0  0  0
  -27.7600  -12.4240   18.8030 C   0  0  0  0  0  2  0  0  0  0  0  0
  -27.3070  -13.3060   20.0000 C   0  0  0  0  0  3  0  0  0  0  0  0
  -28.3230  -13.2430   21.1630 C   0  0  0  0  0  2  0  0  0  0  0  0
  -29.6520  -13.5800   20.6280 N   0  0  0  0  0  0  0  0  0  0  0  0
  -31.4070  -14.9740   20.2690 O   0  0  0  0  0  0  0  0  0  0  0  0
  -29.4730  -15.8360   21.0120 N   0  0  0  0  0  0  0  0  0  0  0  0
  -28.5530  -15.6160   21.3620 H   0  0  0  0  0  0  0  0  0  0  0  0
  -24.8600  -13.7820   20.6390 C   0  0  0  0  0  0  0  0  0  0  0  0
  -23.8260  -12.9530   20.9820 C   0  0  0  0  0  0  0  0  0  0  0  0
  -24.3590  -11.6280   20.9680 C   0  0  0  0  0  0  0  0  0  0  0  0
  -25.9580  -12.9570   20.4400 N   0  0  0  0  0  0  0  0  0  0  0  0
  -25.6580  -11.6580   20.6950 N   0  0  0  0  0  0  0  0  0  0  0  0
  -23.6970  -10.3290   21.1440 C   0  0  0  0  0  0  0  0  0  0  0  0
  -24.1770   -9.3770   22.0690 C   0  0  0  0  0  3  0  0  0  0  0  0
  -23.5150   -8.1410   22.2320 C   0  0  0  0  0  3  0  0  0  0  0  0
  -22.3600   -7.8490   21.4690 C   0  0  0  0  0  0  0  0  0  0  0  0
  -21.8980   -8.7920   20.5340 C   0  0  0  0  0  3  0  0  0  0  0  0
  -22.5620  -10.0190   20.3690 C   0  0  0  0  0  3  0  0  0  0  0  0
  -21.6650   -6.6650   21.5430 O   0  0  0  0  0  0  0  0  0  0  0  0
  -21.6720   -5.8950   22.6780 C   0  0  0  0  0  0  0  0  0  0  0  0
  -21.2570   -6.4060   23.9270 C   0  0  0  0  0  3  0  0  0  0  0  0
  -21.2140   -5.5610   25.0550 C   0  0  0  0  0  3  0  0  0  0  0  0
  -21.5750   -4.2050   24.9330 C   0  0  0  0  0  0  0  0  0  0  0  0
  -21.9850   -3.6940   23.6900 C   0  0  0  0  0  3  0  0  0  0  0  0
  -22.0280   -4.5360   22.5650 C   0  0  0  0  0  0  0  0  0  0  0  0
  -22.4030   -4.0330   21.3640 F   0  0  0  0  0  0  0  0  0  0  0  0
  -21.5270   -3.3910   26.0140 F   0  0  0  0  0  0  0  0  0  0  0  0
  -22.3980  -13.3540   21.2150 C   0  0  0  0  0  0  0  0  0  0  0  0
  -21.6900  -12.6300   22.0760 N   0  0  0  0  0  0  0  0  0  0  0  0
  -21.9160  -14.3460   20.6700 O   0  0  0  0  0  0  0  0  0  0  0  0
  -22.0930  -11.8320   22.5440 H   0  0  0  0  0  0  0  0  0  0  0  0
  -20.7300  -12.8780   22.2700 H   0  0  0  0  0  0  0  0  0  0  0  0
  -24.9580  -15.1580   20.4600 N   0  0  0  0  0  0  0  0  0  0  0  0
  -24.1500  -15.7700   20.5320 H   0  0  0  0  0  0  0  0  0  0  0  0
  -25.7900  -15.6370   20.1430 H   0  0  0  0  0  0  0  0  0  0  0  0
  -30.7440  -17.8170   21.8410 C   0  0  0  0  0  0  0  0  0  0  0  0
  -31.0140  -17.1760   22.8640 O   0  0  0  0  0  0  0  0  0  0  0  0
  -31.9580  -19.8100   22.9430 C   0  0  0  0  0  1  0  0  0  0  0  0
  -31.3450  -19.2150   21.6640 C   0  0  0  0  0  2  0  0  0  0  0  0
  -28.6080  -22.3320   18.2060 C   0  0  0  0  0  2  0  0  0  0  0  0
  -28.8340  -23.3070   19.3030 N   0  0  0  0  0  4  0  0  0  0  0  0
  -29.8140  -23.3110   19.5320 H   0  0  0  0  0  0  0  0  0  0  0  0
  -28.3420  -22.9770   20.1180 H   0  0  0  0  0  0  0  0  0  0  0  0
  -28.4170  -24.7020   18.9770 C   0  0  0  0  0  2  0  0  0  0  0  0
  -28.3870  -25.6360   20.2090 C   0  0  0  0  0  2  0  0  0  0  0  0
  -28.3920  -27.0310   19.8690 O   0  0  0  0  0  0  0  0  0  0  0  0
  -24.6620  -31.9660   23.3940 C   0  0  0  0  0  0  0  0  0  0  0  0
  -27.2090  -27.7270   19.9650 C   0  0  0  0  0  0  0  0  0  0  0  0
  -23.4150  -30.6960   21.6770 C   0  0  0  0  0  3  0  0  0  0  0  0
  -24.8260  -29.2460   20.1280 C   0  0  0  0  0  0  0  0  0  0  0  0
  -25.9400  -31.0440   21.4630 C   0  0  0  0  0  2  0  0  0  0  0  0
  -25.9990  -29.7200   20.7280 C   0  0  0  0  0  0  0  0  0  0  0  0
  -27.1920  -28.9710   20.6370 C   0  0  0  0  0  3  0  0  0  0  0  0
  -26.0150  -27.2610   19.3690 C   0  0  0  0  0  3  0  0  0  0  0  0
  -24.8300  -28.0160   19.4460 C   0  0  0  0  0  3  0  0  0  0  0  0
  -23.5950  -30.1120   20.2500 C   0  0  0  0  0  2  0  0  0  0  0  0
  -24.6920  -31.2450   22.2380 N   0  0  0  0  0  0  0  0  0  0  0  0
  -23.5910  -32.2090   23.9700 O   0  0  0  0  0  0  0  0  0  0  0  0
  -22.7660  -29.6170   22.5730 C   0  0  0  0  0  0  0  0  0  0  0  0
  -21.4410  -29.4430   22.4360 N   0  0  0  0  0  0  0  0  0  0  0  0
  -23.4500  -28.9420   23.3460 O   0  0  0  0  0  0  0  0  0  0  0  0
  -20.9510  -30.0390   21.7820 H   0  0  0  0  0  0  0  0  0  0  0  0
  -18.0700  -28.2040   22.8290 C   0  0  0  0  0  0  0  0  0  0  0  0
  -20.6220  -28.4600   23.1440 C   0  0  0  0  0  3  0  0  0  0  0  0
  -20.7420  -27.0640   22.4890 C   0  0  0  0  0  2  0  0  0  0  0  0
  -19.6530  -26.7920   21.4480 C   0  0  0  0  0  2  0  0  0  0  0  0
  -18.2630  -26.8940   22.0830 C   0  0  0  0  0  2  0  0  0  0  0  0
  -19.1790  -28.9470   23.3120 C   0  0  0  0  0  0  0  0  0  0  0  0
  -18.9450  -30.1750   23.9670 C   0  0  0  0  0  3  0  0  0  0  0  0
  -17.6370  -30.6600   24.1430 C   0  0  0  0  0  3  0  0  0  0  0  0
  -16.5410  -29.9120   23.6780 C   0  0  0  0  0  3  0  0  0  0  0  0
  -16.7590  -28.6860   23.0250 C   0  0  0  0  0  3  0  0  0  0  0  0
  -25.9640  -32.5360   24.0390 C   0  0  0  0  0  3  0  0  0  0  0  0
  -25.6800  -33.9120   24.4660 N   0  0  0  0  0  0  0  0  0  0  0  0
  -26.0300  -35.0090   23.7800 C   0  0  0  0  0  0  0  0  0  0  0  0
  -26.6950  -34.9660   22.7420 O   0  0  0  0  0  0  0  0  0  0  0  0
  -25.0960  -34.0210   25.2820 H   0  0  0  0  0  0  0  0  0  0  0  0
  -24.3310  -36.8470   23.5510 C   0  0  0  0  0  1  0  0  0  0  0  0
  -25.5650  -36.3690   24.3330 C   0  0  0  0  0  3  0  0  0  0  0  0
  -27.7170  -37.1530   25.2160 C   0  0  0  0  0  1  0  0  0  0  0  0
  -26.6140  -37.4110   24.2930 N   0  0  0  0  0  0  0  0  0  0  0  0
  -26.2250  -38.3240   24.5090 H   0  0  0  0  0  0  0  0  0  0  0  0
  -26.4880  -31.6700   25.2500 C   0  0  1  0  0  0  0  0  0  0  0  0
  -25.4070  -31.3760   26.3150 C   0  0  0  0  0  1  0  0  0  0  0  0
  -27.0370  -30.3150   24.7500 C   0  0  0  0  0  1  0  0  0  0  0  0
  -27.6600  -32.3980   25.9460 C   0  0  0  0  0  1  0  0  0  0  0  0
  1  3  1  0
  1  2  1  0
  2  5  1  0
  3  6  1  0
  5  4  1  0
  5  7  1  0
  6 51  1  0
  6  4  1  0
  8  7  1  0
  8 17  1  0
  8 47  1  0
  9 17  1  0
 10 15  1  0
 11 12  1  0
 11 10  1  0
 13 12  1  0
 13 22  1  0
 13 14  1  0
 15  9  1  0
 15 14  1  0
 16  9  2  0
 17 18  1  0
 19 20  2  0
 20 39  1  0
 21 20  1  0
 21 24  1  0
 22 19  1  0
 22 23  1  0
 23 21  2  0
 24 25  1  0
 25 26  2  0
 27 30  1  0
 27 26  1  0
 28 27  2  0
 29 28  1  0
 29 24  2  0
 30 31  1  0
 31 32  1  0
 32 33  2  0
 34 33  1  0
 34 38  1  0
 35 34  2  0
 36 31  2  0
 36 35  1  0
 37 36  1  0
 39 40  1  0
 40 43  1  0
 40 42  1  0
 41 39  2  0
 44 45  1  0
 44 19  1  0
 46 44  1  0
 47 48  2  0
 50 47  1  0
 50 49  1  0
 51 52  1  0
 52 53  1  0
 52 54  1  0
 55 52  1  0
 55 56  1  0
 57 59  1  0
 57 56  1  0
 58 69  2  0
 59 64  1  0
 60 68  1  0
 60 70  1  0
 61 67  1  0
 61 63  1  0
 62 68  1  0
 63 62  1  0
 64 63  2  0
 65 66  1  0
 65 59  2  0
 66 61  2  0
 67 60  1  0
 68 58  1  0
 70 72  2  0
 71 70  1  0
 73 71  1  0
 74 83  2  0
 74 79  1  0
 75 71  1  0
 75 79  1  0
 76 75  1  0
 77 78  1  0
 77 76  1  0
 78 74  1  0
 79 80  2  0
 80 81  1  0
 82 81  2  0
 83 82  1  0
 84 58  1  0
 84 85  1  0
 84 94  1  0
 85 88  1  0
 86 90  1  0
 86 85  1  0
 87 86  2  0
 90 89  1  0
 92 90  1  0
 92 93  1  0
 92 91  1  0
 94 97  1  1
 94 95  1  0
 96 94  1  0
M  ISO  4   9 100  17 100  56 101  57 101
M  END
>  <TORSDO>  (20) 
F 24

>  <SCORE>  (20) 
-12.221

>  <name>  (20) 
20

>  <ligand_id>  (20) 
20

>  <original_smiles>  (20) 
[H]c1c([H])c([H])c2c(c1[H])C([H])([H])C([H])([H])C([H])([H])C2([H])N([H])C(=O)C1([H])N(C(=O)C([H])(N([H])C(=O)C([H])(N([H])C([H])([H])[H])C([H])([H])[H])C(C([H])([H])[H])(C([H])([H])[H])C([H])([H])[H])C([H])([H])c2c([H])c(OC([H])([H])C([H])([H])[N+]([H])([H])C([H])([H])C3([H])C([H])([H])C([H])([H])C([H])([H])C([H])(C([H])([H])C([H])(C(=O)C([H])([H])C([H])([H])[H])N([H])C(=O)N4C([H])([H])C([H])([H])C([H])([H])C([H])(n5nc(-c6c([H])c([H])c(Oc7c([H])c([H])c(F)c([H])c7F)c([H])c6[H])c(C(=O)N([H])[H])c5N([H])[H])C4([H])[H])C3([H])[H])c([H])c([H])c2C1([H])[H]

>  <smiles>  (20) 
[H]c1c([H])c([H])c2c(c1[H])C([H])([H])C([H])([H])C([H])([H])C2([H])N([H])C(=O)C1([H])N(C(=O)C([H])(N([H])C(=O)C([H])(N([H])C([H])([H])[H])C([H])([H])[H])C(C([H])([H])[H])(C([H])([H])[H])C([H])([H])[H])C([H])([H])c2c([H])c(OC([H])([H])C([H])([H])[N+]([H])([H])C([H])([H])C3([H])C([H])([H])C([H])([H])C([H])([H])C([H])(C([H])([H])C([H])(C(=O)C([H])([H])C([H])([H])[H])N([H])C(=O)N4C([H])([H])C([H])([H])C([H])([H])C([H])(n5nc(-c6c([H])c([H])c(Oc7c([H])c([H])c(F)c([H])c7F)c([H])c6[H])c(C(=O)N([H])[H])c5N([H])[H])C4([H])[H])C3([H])[H])c([H])c([H])c2C1([H])[H]

$$$$
21:0:0
     RDKit          3D

 97106  0  0  1  0  0  0  0  0999 V2000
  -29.0200  -18.1960   21.0700 C   0  0  0  0  0  2  0  0  0  0  0  0
  -27.8870  -19.1410   20.5950 C   0  0  0  0  0  2  0  0  0  0  0  0
  -30.4200  -20.5050   19.3850 C   0  0  0  0  0  2  0  0  0  0  0  0
  -27.6220  -20.7360   18.5160 C   0  0  0  0  0  2  0  0  0  0  0  0
  -29.7640  -17.8750   19.7770 C   0  0  0  0  0  3  0  0  0  0  0  0
  -28.1670  -19.4160   19.0980 C   0  0  0  0  0  3  0  0  0  0  0  0
  -29.6820  -19.1920   18.9300 C   0  0  0  0  0  3  0  0  0  0  0  0
  -29.8310  -21.8210   18.7430 C   0  0  0  0  0  3  0  0  0  0  0  0
  -28.3750  -21.9110   18.9830 N   0  0  0  0  0  4  0  0  0  0  0  0
  -28.1870  -22.0690   19.9570 H   0  0  0  0  0  0  0  0  0  0  0  0
  -28.0160  -22.7040   18.4710 H   0  0  0  0  0  0  0  0  0  0  0  0
  -31.8050  -14.7750   20.7690 C   0  0  0  0  0  0  0  0  0  0  0  0
  -31.6760  -12.3310   20.4430 C   0  0  0  0  0  2  0  0  0  0  0  0
  -30.9040  -12.0790   19.1260 C   0  0  0  0  0  2  0  0  0  0  0  0
  -29.3800  -12.0550   19.3600 C   0  0  0  0  0  2  0  0  0  0  0  0
  -28.8940  -13.2650   20.1930 C   0  0  0  0  0  3  0  0  0  0  0  0
  -29.7800  -13.4540   21.4490 C   0  0  0  0  0  2  0  0  0  0  0  0
  -31.1790  -13.5910   21.0110 N   0  0  0  0  0  0  0  0  0  0  0  0
  -32.9920  -14.8750   20.4260 O   0  0  0  0  0  0  0  0  0  0  0  0
  -31.0510  -17.0710   19.9480 C   0  0  0  0  0  0  0  0  0  0  0  0
  -30.9060  -15.9020   20.6450 N   0  0  0  0  0  0  0  0  0  0  0  0
  -32.2150  -17.5030   19.4180 N   0  0  0  0  0  4  0  0  0  0  0  0
  -29.9780  -15.8020   21.0180 H   0  0  0  0  0  0  0  0  0  0  0  0
  -32.2700  -18.3450   18.8660 H   0  0  0  0  0  0  0  0  0  0  0  0
  -33.0730  -16.9760   19.5520 H   0  0  0  0  0  0  0  0  0  0  0  0
  -26.5370  -14.1520   20.7210 C   0  0  0  0  0  0  0  0  0  0  0  0
  -25.3590  -13.5090   20.9800 C   0  0  0  0  0  0  0  0  0  0  0  0
  -25.6550  -12.1120   20.9430 C   0  0  0  0  0  0  0  0  0  0  0  0
  -27.4830  -13.1550   20.5450 N   0  0  0  0  0  0  0  0  0  0  0  0
  -26.9510  -11.9220   20.7390 N   0  0  0  0  0  0  0  0  0  0  0  0
  -24.7720  -10.9430   21.0230 C   0  0  0  0  0  0  0  0  0  0  0  0
  -25.1040   -9.8230   21.8170 C   0  0  0  0  0  3  0  0  0  0  0  0
  -24.2300   -8.7170   21.8900 C   0  0  0  0  0  3  0  0  0  0  0  0
  -23.0120   -8.7240   21.1680 C   0  0  0  0  0  0  0  0  0  0  0  0
  -22.7000   -9.8320   20.3600 C   0  0  0  0  0  3  0  0  0  0  0  0
  -23.5720  -10.9310   20.2840 C   0  0  0  0  0  3  0  0  0  0  0  0
  -22.1120   -7.6860   21.1660 O   0  0  0  0  0  0  0  0  0  0  0  0
  -22.0440   -6.7880   22.2010 C   0  0  0  0  0  0  0  0  0  0  0  0
  -21.7720   -7.1960   23.5250 C   0  0  0  0  0  3  0  0  0  0  0  0
  -21.6340   -6.2350   24.5450 C   0  0  0  0  0  3  0  0  0  0  0  0
  -21.7650   -4.8650   24.2460 C   0  0  0  0  0  0  0  0  0  0  0  0
  -22.0330   -4.4560   22.9280 C   0  0  0  0  0  3  0  0  0  0  0  0
  -22.1690   -5.4140   21.9080 C   0  0  0  0  0  0  0  0  0  0  0  0
  -22.4030   -5.0130   20.6360 F   0  0  0  0  0  0  0  0  0  0  0  0
  -21.6290   -3.9410   25.2250 F   0  0  0  0  0  0  0  0  0  0  0  0
  -24.0090  -14.1430   21.1500 C   0  0  0  0  0  0  0  0  0  0  0  0
  -23.1520  -13.5470   21.9700 N   0  0  0  0  0  0  0  0  0  0  0  0
  -23.7270  -15.2020   20.5890 O   0  0  0  0  0  0  0  0  0  0  0  0
  -23.3910  -12.6880   22.4450 H   0  0  0  0  0  0  0  0  0  0  0  0
  -22.2420  -13.9580   22.1290 H   0  0  0  0  0  0  0  0  0  0  0  0
  -26.8770  -15.4980   20.5820 N   0  0  0  0  0  0  0  0  0  0  0  0
  -26.1180  -16.1670   20.4970 H   0  0  0  0  0  0  0  0  0  0  0  0
  -27.6810  -15.7680   20.0340 H   0  0  0  0  0  0  0  0  0  0  0  0
  -30.5610  -23.1690   19.1010 C   0  0  0  0  0  2  0  0  0  0  0  0
  -29.7460  -24.3310   19.7800 C   0  0  0  0  0  2  0  0  0  0  0  0
  -30.3600  -25.7590   19.5920 C   0  0  0  0  0  2  0  0  0  0  0  0
  -29.9310  -26.7850   20.5190 O   0  0  0  0  0  0  0  0  0  0  0  0
  -25.2180  -31.2670   23.4930 C   0  0  0  0  0  0  0  0  0  0  0  0
  -28.6950  -27.4030   20.3970 C   0  0  0  0  0  0  0  0  0  0  0  0
  -24.4000  -29.9640   21.5590 C   0  0  0  0  0  3  0  0  0  0  0  0
  -26.1810  -28.7120   20.2250 C   0  0  0  0  0  0  0  0  0  0  0  0
  -26.8890  -30.5320   21.7870 C   0  0  0  0  0  2  0  0  0  0  0  0
  -27.1910  -29.2500   21.0330 C   0  0  0  0  0  0  0  0  0  0  0  0
  -28.4450  -28.5990   21.1210 C   0  0  0  0  0  3  0  0  0  0  0  0
  -27.6610  -26.8850   19.5900 C   0  0  0  0  0  3  0  0  0  0  0  0
  -26.4110  -27.5280   19.5050 C   0  0  0  0  0  3  0  0  0  0  0  0
  -24.8690  -29.4620   20.1680 C   0  0  0  0  0  2  0  0  0  0  0  0
  -25.5120  -30.5990   22.3410 N   0  0  0  0  0  0  0  0  0  0  0  0
  -24.0480  -31.3870   23.8870 O   0  0  0  0  0  0  0  0  0  0  0  0
  -23.7210  -28.7930   22.3060 C   0  0  0  0  0  0  0  0  0  0  0  0
  -22.4330  -28.5560   22.0050 N   0  0  0  0  0  0  0  0  0  0  0  0
  -24.3540  -28.1070   23.1100 O   0  0  0  0  0  0  0  0  0  0  0  0
  -21.9730  -29.1820   21.3560 H   0  0  0  0  0  0  0  0  0  0  0  0
  -19.1300  -27.0970   21.9470 C   0  0  0  0  0  0  0  0  0  0  0  0
  -21.6150  -27.4710   22.5480 C   0  0  0  0  0  3  0  0  0  0  0  0
  -21.8870  -26.1390   21.8080 C   0  0  0  0  0  2  0  0  0  0  0  0
  -20.9280  -25.8930   20.6400 C   0  0  0  0  0  2  0  0  0  0  0  0
  -19.4790  -25.8600   21.1330 C   0  0  0  0  0  2  0  0  0  0  0  0
  -20.1340  -27.8590   22.6030 C   0  0  0  0  0  0  0  0  0  0  0  0
  -19.7580  -29.0100   23.3240 C   0  0  0  0  0  3  0  0  0  0  0  0
  -18.4070  -29.4050   23.4060 C   0  0  0  0  0  3  0  0  0  0  0  0
  -17.4180  -28.6400   22.7630 C   0  0  0  0  0  3  0  0  0  0  0  0
  -17.7800  -27.4900   22.0410 C   0  0  0  0  0  3  0  0  0  0  0  0
  -26.3340  -31.9300   24.3580 C   0  0  0  0  0  3  0  0  0  0  0  0
  -26.6310  -31.1490   25.6970 C   0  0  1  0  0  0  0  0  0  0  0  0
  -25.3690  -30.8600   26.5430 C   0  0  0  0  0  1  0  0  0  0  0  0
  -27.3200  -29.7970   25.4000 C   0  0  0  0  0  1  0  0  0  0  0  0
  -27.6140  -31.9630   26.5710 C   0  0  0  0  0  1  0  0  0  0  0  0
  -25.9090  -33.3060   24.6460 N   0  0  0  0  0  0  0  0  0  0  0  0
  -26.3540  -34.3900   23.9970 C   0  0  0  0  0  0  0  0  0  0  0  0
  -27.2290  -34.3400   23.1290 O   0  0  0  0  0  0  0  0  0  0  0  0
  -25.1570  -33.4170   25.3100 H   0  0  0  0  0  0  0  0  0  0  0  0
  -24.6750  -36.1370   23.3220 C   0  0  0  0  0  1  0  0  0  0  0  0
  -25.7280  -35.7470   24.3710 C   0  0  0  0  0  3  0  0  0  0  0  0
  -27.6000  -36.6790   25.6620 C   0  0  0  0  0  1  0  0  0  0  0  0
  -26.7210  -36.8370   24.5050 N   0  0  0  0  0  0  0  0  0  0  0  0
  -26.2570  -37.7390   24.5780 H   0  0  0  0  0  0  0  0  0  0  0  0
  2  1  1  0
  4  9  1  0
  5 20  1  0
  5  1  1  0
  6  4  1  0
  6  2  1  0
  7  6  1  0
  7  3  1  0
  7  5  1  0
  8  9  1  0
  8 54  1  0
  8  3  1  0
  9 10  1  0
 11  9  1  0
 12 18  1  0
 13 18  1  0
 14 15  1  0
 14 13  1  0
 16 15  1  0
 16 29  1  0
 16 17  1  0
 18 17  1  0
 19 12  2  0
 20 21  1  0
 21 12  1  0
 21 23  1  0
 22 25  1  0
 22 20  2  0
 24 22  1  0
 26 27  2  0
 27 46  1  0
 28 27  1  0
 28 31  1  0
 29 26  1  0
 29 30  1  0
 30 28  2  0
 31 32  1  0
 32 33  2  0
 34 33  1  0
 35 34  2  0
 36 35  1  0
 36 31  2  0
 37 34  1  0
 37 38  1  0
 38 39  1  0
 39 40  2  0
 41 40  1  0
 41 45  1  0
 42 41  2  0
 43 38  2  0
 43 42  1  0
 44 43  1  0
 46 47  1  0
 47 50  1  0
 47 49  1  0
 48 46  2  0
 51 26  1  0
 52 51  1  0
 53 51  1  0
 54 55  1  0
 56 55  1  0
 56 57  1  0
 58 69  2  0
 59 57  1  0
 59 64  1  0
 60 70  1  0
 60 68  1  0
 61 63  1  0
 62 68  1  0
 63 64  2  0
 63 62  1  0
 65 59  2  0
 66 65  1  0
 66 61  2  0
 67 61  1  0
 67 60  1  0
 68 58  1  0
 70 72  2  0
 71 70  1  0
 73 71  1  0
 74 83  2  0
 74 79  1  0
 75 71  1  0
 75 79  1  0
 76 75  1  0
 77 78  1  0
 77 76  1  0
 78 74  1  0
 79 80  2  0
 80 81  1  0
 82 81  2  0
 83 82  1  0
 84 58  1  0
 84 89  1  0
 84 85  1  0
 85 86  1  1
 85 88  1  0
 87 85  1  0
 89 92  1  0
 90 94  1  0
 90 89  1  0
 91 90  2  0
 94 93  1  0
 94 96  1  0
 96 97  1  0
 96 95  1  0
M  ISO  4  12 100  21 100  56 101  57 101
M  END
>  <TORSDO>  (21) 
F 19

>  <SCORE>  (21) 
-10.382

>  <name>  (21) 
21

>  <ligand_id>  (21) 
21

>  <original_smiles>  (21) 
[H]c1c([H])c([H])c2c(c1[H])C([H])([H])C([H])([H])C([H])([H])C2([H])N([H])C(=O)C1([H])N(C(=O)C([H])(N([H])C(=O)C([H])(N([H])C([H])([H])[H])C([H])([H])[H])C(C([H])([H])[H])(C([H])([H])[H])C([H])([H])[H])C([H])([H])c2c([H])c(OC([H])([H])C([H])([H])C([H])([H])C3([H])C([H])([H])C4([H])C([H])(C(N([H])C(=O)N5C([H])([H])C([H])([H])C([H])([H])C([H])(n6nc(-c7c([H])c([H])c(Oc8c([H])c([H])c(F)c([H])c8F)c([H])c7[H])c(C(=O)N([H])[H])c6N([H])[H])C5([H])[H])=[N+]([H])[H])C([H])([H])C([H])([H])C4([H])C([H])([H])[N+]3([H])[H])c([H])c([H])c2C1([H])[H]

>  <smiles>  (21) 
[H]c1c([H])c([H])c2c(c1[H])C([H])([H])C([H])([H])C([H])([H])C2([H])N([H])C(=O)C1([H])N(C(=O)C([H])(N([H])C(=O)C([H])(N([H])C([H])([H])[H])C([H])([H])[H])C(C([H])([H])[H])(C([H])([H])[H])C([H])([H])[H])C([H])([H])c2c([H])c(OC([H])([H])C([H])([H])C([H])([H])C3([H])C([H])([H])C4([H])C([H])(C(N([H])C(=O)N5C([H])([H])C([H])([H])C([H])([H])C([H])(n6nc(-c7c([H])c([H])c(Oc8c([H])c([H])c(F)c([H])c8F)c([H])c7[H])c(C(=O)N([H])[H])c6N([H])[H])C5([H])[H])=[N+]([H])[H])C([H])([H])C([H])([H])C4([H])C([H])([H])[N+]3([H])[H])c([H])c([H])c2C1([H])[H]

$$$$
22:0:0
     RDKit          3D

 92101  0  0  1  0  0  0  0  0999 V2000
  -29.9750  -18.6210   19.8820 C   0  0  0  0  0  0  0  0  0  0  0  0
  -29.1840  -18.6030   18.9350 O   0  0  0  0  0  0  0  0  0  0  0  0
  -30.5170  -14.8400   19.4510 C   0  0  0  0  0  0  0  0  0  0  0  0
  -30.0240  -12.7820   18.0980 C   0  0  0  0  0  2  0  0  0  0  0  0
  -28.8480  -13.0370   17.1250 C   0  0  0  0  0  2  0  0  0  0  0  0
  -27.4800  -12.8470   17.8090 C   0  0  0  0  0  2  0  0  0  0  0  0
  -27.4190  -13.5350   19.1990 C   0  0  0  0  0  3  0  0  0  0  0  0
  -28.6630  -13.1110   20.0200 C   0  0  0  0  0  2  0  0  0  0  0  0
  -29.8250  -13.6470   19.2930 N   0  0  0  0  0  0  0  0  0  0  0  0
  -31.5640  -14.9710   18.8000 O   0  0  0  0  0  0  0  0  0  0  0  0
  -30.9690  -15.1200   22.6970 C   0  0  0  0  0  2  0  0  0  0  0  0
  -32.0750  -16.0840   22.2040 C   0  0  0  0  0  2  0  0  0  0  0  0
  -30.1850  -17.3520   22.8370 C   0  0  0  0  0  2  0  0  0  0  0  0
  -28.9730  -15.9300   21.2280 C   0  0  0  0  0  2  0  0  0  0  0  0
  -30.7590  -17.2820   20.3160 C   0  0  0  0  0  3  0  0  0  0  0  0
  -29.6560  -15.9380   22.6290 C   0  0  0  0  0  3  0  0  0  0  0  0
  -31.3180  -17.3610   21.7930 C   0  0  0  0  0  3  0  0  0  0  0  0
  -30.0050  -15.9510   20.1610 N   0  0  0  0  0  0  0  0  0  0  0  0
  -25.2210  -14.1550   20.3740 C   0  0  0  0  0  0  0  0  0  0  0  0
  -24.2020  -13.3920   20.8720 C   0  0  0  0  0  0  0  0  0  0  0  0
  -24.5810  -12.0330   20.6400 C   0  0  0  0  0  0  0  0  0  0  0  0
  -26.1620  -13.2630   19.8830 N   0  0  0  0  0  0  0  0  0  0  0  0
  -25.7860  -11.9770   20.0880 N   0  0  0  0  0  0  0  0  0  0  0  0
  -23.8420  -10.7870   20.8570 C   0  0  0  0  0  0  0  0  0  0  0  0
  -24.3610   -9.7610   21.6760 C   0  0  0  0  0  3  0  0  0  0  0  0
  -23.6290   -8.5720   21.8820 C   0  0  0  0  0  3  0  0  0  0  0  0
  -22.3630   -8.4040   21.2710 C   0  0  0  0  0  0  0  0  0  0  0  0
  -21.8620   -9.4190   20.4360 C   0  0  0  0  0  3  0  0  0  0  0  0
  -22.5940  -10.5990   20.2300 C   0  0  0  0  0  3  0  0  0  0  0  0
  -21.5900   -7.2750   21.3910 O   0  0  0  0  0  0  0  0  0  0  0  0
  -21.5990   -6.5150   22.5320 C   0  0  0  0  0  0  0  0  0  0  0  0
  -21.2850   -7.0620   23.7960 C   0  0  0  0  0  3  0  0  0  0  0  0
  -21.2380   -6.2260   24.9300 C   0  0  0  0  0  3  0  0  0  0  0  0
  -21.4910   -4.8470   24.8010 C   0  0  0  0  0  0  0  0  0  0  0  0
  -21.7960   -4.3020   23.5410 C   0  0  0  0  0  3  0  0  0  0  0  0
  -21.8450   -5.1330   22.4100 C   0  0  0  0  0  0  0  0  0  0  0  0
  -22.1170   -4.5990   21.1940 F   0  0  0  0  0  0  0  0  0  0  0  0
  -21.4400   -4.0440   25.8880 F   0  0  0  0  0  0  0  0  0  0  0  0
  -22.9050  -13.8900   21.4390 C   0  0  0  0  0  0  0  0  0  0  0  0
  -22.3240  -13.1610   22.3820 N   0  0  0  0  0  0  0  0  0  0  0  0
  -22.4200  -14.9630   21.0780 O   0  0  0  0  0  0  0  0  0  0  0  0
  -22.7360  -12.2990   22.7060 H   0  0  0  0  0  0  0  0  0  0  0  0
  -21.4500  -13.4710   22.7810 H   0  0  0  0  0  0  0  0  0  0  0  0
  -25.4140  -15.5310   20.2870 N   0  0  0  0  0  0  0  0  0  0  0  0
  -24.7120  -16.1870   20.6100 H   0  0  0  0  0  0  0  0  0  0  0  0
  -26.1940  -15.9810   19.8270 H   0  0  0  0  0  0  0  0  0  0  0  0
  -30.1860  -19.9890   20.6550 C   0  0  0  0  0  2  0  0  0  0  0  0
  -29.9040  -21.3820   19.9320 C   0  0  0  0  0  3  0  0  0  0  0  0
  -29.4590  -22.6200   20.8300 C   0  0  0  0  0  3  0  0  0  0  0  0
  -29.6170  -24.1030   20.2640 C   0  0  0  0  0  3  0  0  0  0  0  0
  -28.6340  -25.2090   20.8480 C   0  0  0  0  0  3  0  0  0  0  0  0
  -28.8220  -26.6240   20.4600 O   0  0  0  0  0  0  0  0  0  0  0  0
  -24.7630  -31.8440   23.3530 C   0  0  0  0  0  0  0  0  0  0  0  0
  -27.6710  -27.4190   20.3900 C   0  0  0  0  0  0  0  0  0  0  0  0
  -23.6720  -30.3860   21.6850 C   0  0  0  0  0  3  0  0  0  0  0  0
  -25.2360  -28.9060   20.3020 C   0  0  0  0  0  0  0  0  0  0  0  0
  -26.1970  -30.8270   21.5740 C   0  0  0  0  0  2  0  0  0  0  0  0
  -26.3610  -29.4540   20.9330 C   0  0  0  0  0  0  0  0  0  0  0  0
  -27.5840  -28.7210   20.9680 C   0  0  0  0  0  3  0  0  0  0  0  0
  -26.5320  -26.9290   19.7180 C   0  0  0  0  0  3  0  0  0  0  0  0
  -25.3240  -27.6500   19.6820 C   0  0  0  0  0  3  0  0  0  0  0  0
  -23.9580  -29.7210   20.3130 C   0  0  0  0  0  2  0  0  0  0  0  0
  -24.8930  -31.0380   22.2610 N   0  0  0  0  0  0  0  0  0  0  0  0
  -23.6530  -32.0740   23.8540 O   0  0  0  0  0  0  0  0  0  0  0  0
  -23.0350  -29.3370   22.6260 C   0  0  0  0  0  0  0  0  0  0  0  0
  -21.7220  -29.1030   22.4640 N   0  0  0  0  0  0  0  0  0  0  0  0
  -23.7180  -28.7440   23.4640 O   0  0  0  0  0  0  0  0  0  0  0  0
  -21.2320  -29.6320   21.7570 H   0  0  0  0  0  0  0  0  0  0  0  0
  -18.3820  -27.7690   22.8660 C   0  0  0  0  0  0  0  0  0  0  0  0
  -20.9190  -28.1310   23.2080 C   0  0  0  0  0  3  0  0  0  0  0  0
  -21.0920  -26.7070   22.6300 C   0  0  0  0  0  2  0  0  0  0  0  0
  -20.0320  -26.3430   21.5860 C   0  0  0  0  0  2  0  0  0  0  0  0
  -18.6290  -26.4310   22.1910 C   0  0  0  0  0  2  0  0  0  0  0  0
  -19.4560  -28.5770   23.3260 C   0  0  0  0  0  0  0  0  0  0  0  0
  -19.1670  -29.8290   23.9110 C   0  0  0  0  0  3  0  0  0  0  0  0
  -17.8380  -30.2780   24.0340 C   0  0  0  0  0  3  0  0  0  0  0  0
  -16.7780  -29.4670   23.5870 C   0  0  0  0  0  3  0  0  0  0  0  0
  -17.0530  -28.2120   23.0170 C   0  0  0  0  0  3  0  0  0  0  0  0
  -25.9970  -32.5350   24.0130 C   0  0  0  0  0  3  0  0  0  0  0  0
  -25.6120  -33.9130   24.3460 N   0  0  0  0  0  0  0  0  0  0  0  0
  -25.9060  -34.9860   23.6000 C   0  0  0  0  0  0  0  0  0  0  0  0
  -26.6030  -34.9210   22.5830 O   0  0  0  0  0  0  0  0  0  0  0  0
  -24.9950  -34.0340   25.1380 H   0  0  0  0  0  0  0  0  0  0  0  0
  -24.0950  -36.6860   23.2110 C   0  0  0  0  0  1  0  0  0  0  0  0
  -25.3380  -36.3430   24.0500 C   0  0  0  0  0  3  0  0  0  0  0  0
  -27.4120  -37.3250   24.9280 C   0  0  0  0  0  1  0  0  0  0  0  0
  -26.3190  -37.4490   23.9660 N   0  0  0  0  0  0  0  0  0  0  0  0
  -25.8660  -38.3480   24.1080 H   0  0  0  0  0  0  0  0  0  0  0  0
  -26.5200  -31.7770   25.2950 C   0  0  1  0  0  0  0  0  0  0  0  0
  -25.4080  -31.4560   26.3230 C   0  0  0  0  0  1  0  0  0  0  0  0
  -27.1990  -30.4440   24.9030 C   0  0  0  0  0  1  0  0  0  0  0  0
  -27.6010  -32.6320   26.0000 C   0  0  0  0  0  1  0  0  0  0  0  0
  1 47  1  0
  2  1  2  0
  3 18  1  0
  4  9  1  0
  5  6  1  0
  5  4  1  0
  7  6  1  0
  7 22  1  0
  7  8  1  0
  9  3  1  0
  9  8  1  0
 10  3  2  0
 12 11  1  0
 15  1  1  0
 15 17  1  0
 16 14  1  0
 16 11  1  0
 16 13  1  0
 17 12  1  0
 17 13  1  0
 18 15  1  0
 18 14  1  0
 19 20  2  0
 20 39  1  0
 21 24  1  0
 21 20  1  0
 22 23  1  0
 22 19  1  0
 23 21  2  0
 24 25  1  0
 25 26  2  0
 27 30  1  0
 27 26  1  0
 28 27  2  0
 29 28  1  0
 29 24  2  0
 30 31  1  0
 31 32  1  0
 32 33  2  0
 34 33  1  0
 34 38  1  0
 35 34  2  0
 36 31  2  0
 36 35  1  0
 37 36  1  0
 39 40  1  0
 40 42  1  0
 40 43  1  0
 41 39  2  0
 44 19  1  0
 44 45  1  0
 46 44  1  0
 48 47  1  0
 48 49  2  0
 50 49  1  0
 50 51  2  0
 52 51  1  0
 53 64  2  0
 54 52  1  0
 54 59  1  0
 55 63  1  0
 55 65  1  0
 56 62  1  0
 56 58  1  0
 57 63  1  0
 58 59  2  0
 58 57  1  0
 60 54  2  0
 61 60  1  0
 61 56  2  0
 62 55  1  0
 63 53  1  0
 65 67  2  0
 66 65  1  0
 68 66  1  0
 69 78  2  0
 69 74  1  0
 70 66  1  0
 70 74  1  0
 71 70  1  0
 72 73  1  0
 72 71  1  0
 73 69  1  0
 74 75  2  0
 75 76  1  0
 77 76  2  0
 78 77  1  0
 79 53  1  0
 79 80  1  0
 79 89  1  0
 80 83  1  0
 81 85  1  0
 81 80  1  0
 82 81  2  0
 85 84  1  0
 87 85  1  0
 87 88  1  0
 87 86  1  0
 89 92  1  1
 89 90  1  0
 91 89  1  0
M  ISO  4   3 100  18 100  51 101  52 101
M  END
>  <TORSDO>  (22) 
F 21

>  <SCORE>  (22) 
-5.712

>  <name>  (22) 
22

>  <ligand_id>  (22) 
22

>  <original_smiles>  (22) 
[H]c1c([H])c([H])c2c(c1[H])C([H])([H])C([H])([H])C([H])([H])C2([H])N([H])C(=O)C1([H])N(C(=O)C([H])(N([H])C(=O)C([H])(N([H])C([H])([H])[H])C([H])([H])[H])C(C([H])([H])[H])(C([H])([H])[H])C([H])([H])[H])C([H])([H])c2c([H])c(OC([H])([H])C([H])([H])C([H])([H])C([H])([H])C([H])([H])C(=O)C3([H])N(C(=O)N4C([H])([H])C([H])([H])C([H])([H])C([H])(n5nc(-c6c([H])c([H])c(Oc7c([H])c([H])c(F)c([H])c7F)c([H])c6[H])c(C(=O)N([H])[H])c5N([H])[H])C4([H])[H])C([H])([H])C4([H])C([H])([H])C([H])([H])C3([H])C4([H])[H])c([H])c([H])c2C1([H])[H]

>  <smiles>  (22) 
[H]c1c([H])c([H])c2c(c1[H])C([H])([H])C([H])([H])C([H])([H])C2([H])N([H])C(=O)C1([H])N(C(=O)C([H])(N([H])C(=O)C([H])(N([H])C([H])([H])[H])C([H])([H])[H])C(C([H])([H])[H])(C([H])([H])[H])C([H])([H])[H])C([H])([H])c2c([H])c(OC([H])([H])C([H])([H])C([H])([H])C([H])([H])C([H])([H])C(=O)C3([H])N(C(=O)N4C([H])([H])C([H])([H])C([H])([H])C([H])(n5nc(-c6c([H])c([H])c(Oc7c([H])c([H])c(F)c([H])c7F)c([H])c6[H])c(C(=O)N([H])[H])c5N([H])[H])C4([H])[H])C([H])([H])C4([H])C([H])([H])C([H])([H])C3([H])C4([H])[H])c([H])c([H])c2C1([H])[H]

$$$$
23:0:0
     RDKit          3D

 94101  0  0  1  0  0  0  0  0999 V2000
  -29.4920  -23.7110   20.4390 C   0  0  0  0  0  0  0  0  0  0  0  0
  -29.0280  -23.4260   21.5450 O   0  0  0  0  0  0  0  0  0  0  0  0
  -29.2230  -22.8330   19.2200 C   0  0  0  0  0  2  0  0  0  0  0  0
  -30.0760  -21.5460   19.2270 C   0  0  0  0  0  2  0  0  0  0  0  0
  -29.5090  -20.4320   20.1370 C   0  0  0  0  0  2  0  0  0  0  0  0
  -30.4880  -19.3600   20.4410 N   0  0  0  0  0  4  0  0  0  0  0  0
  -30.9550  -19.5800   21.3070 H   0  0  0  0  0  0  0  0  0  0  0  0
  -31.1940  -19.3250   19.7250 H   0  0  0  0  0  0  0  0  0  0  0  0
  -29.8670  -18.0120   20.5250 C   0  0  0  0  0  2  0  0  0  0  0  0
  -30.7590  -16.9340   21.1880 C   0  0  0  0  0  2  0  0  0  0  0  0
  -30.7210  -14.5150   20.5520 C   0  0  0  0  0  0  0  0  0  0  0  0
  -30.3240  -12.4000   19.3620 C   0  0  0  0  0  2  0  0  0  0  0  0
  -29.3910  -12.6310   18.1610 C   0  0  0  0  0  2  0  0  0  0  0  0
  -27.9210  -12.4780   18.5960 C   0  0  0  0  0  2  0  0  0  0  0  0
  -27.5790  -13.2850   19.8800 C   0  0  0  0  0  3  0  0  0  0  0  0
  -28.6510  -13.1060   20.9830 C   0  0  0  0  0  2  0  0  0  0  0  0
  -29.9750  -13.3850   20.4000 N   0  0  0  0  0  0  0  0  0  0  0  0
  -31.8450  -14.6280   20.0670 O   0  0  0  0  0  0  0  0  0  0  0  0
  -30.1380  -15.5890   21.1120 N   0  0  0  0  0  0  0  0  0  0  0  0
  -29.1850  -15.4930   21.4240 H   0  0  0  0  0  0  0  0  0  0  0  0
  -25.1690  -13.8410   20.5810 C   0  0  0  0  0  0  0  0  0  0  0  0
  -24.1160  -13.0480   20.9390 C   0  0  0  0  0  0  0  0  0  0  0  0
  -24.5990  -11.7050   20.9040 C   0  0  0  0  0  0  0  0  0  0  0  0
  -26.2310  -12.9790   20.3540 N   0  0  0  0  0  0  0  0  0  0  0  0
  -25.8900  -11.6880   20.6060 N   0  0  0  0  0  0  0  0  0  0  0  0
  -23.8910  -10.4320   21.0830 C   0  0  0  0  0  0  0  0  0  0  0  0
  -24.3310   -9.4690   22.0160 C   0  0  0  0  0  3  0  0  0  0  0  0
  -23.6210   -8.2610   22.1880 C   0  0  0  0  0  3  0  0  0  0  0  0
  -22.4560   -8.0030   21.4310 C   0  0  0  0  0  0  0  0  0  0  0  0
  -22.0370   -8.9550   20.4850 C   0  0  0  0  0  3  0  0  0  0  0  0
  -22.7440  -10.1560   20.3100 C   0  0  0  0  0  3  0  0  0  0  0  0
  -21.7220   -6.8450   21.5070 O   0  0  0  0  0  0  0  0  0  0  0  0
  -21.6800   -6.0970   22.6540 C   0  0  0  0  0  0  0  0  0  0  0  0
  -21.2200   -6.6280   23.8780 C   0  0  0  0  0  3  0  0  0  0  0  0
  -21.1270   -5.8030   25.0170 C   0  0  0  0  0  3  0  0  0  0  0  0
  -21.4820   -4.4440   24.9310 C   0  0  0  0  0  0  0  0  0  0  0  0
  -21.9320   -3.9100   23.7120 C   0  0  0  0  0  3  0  0  0  0  0  0
  -22.0260   -4.7330   22.5770 C   0  0  0  0  0  0  0  0  0  0  0  0
  -22.4390   -4.2080   21.3990 F   0  0  0  0  0  0  0  0  0  0  0  0
  -21.3860   -3.6460   26.0220 F   0  0  0  0  0  0  0  0  0  0  0  0
  -22.7100  -13.4990   21.2070 C   0  0  0  0  0  0  0  0  0  0  0  0
  -21.9860  -12.7930   22.0670 N   0  0  0  0  0  0  0  0  0  0  0  0
  -22.2620  -14.5210   20.6890 O   0  0  0  0  0  0  0  0  0  0  0  0
  -22.3570  -11.9700   22.5170 H   0  0  0  0  0  0  0  0  0  0  0  0
  -21.0420  -13.0850   22.2780 H   0  0  0  0  0  0  0  0  0  0  0  0
  -25.3150  -15.2160   20.4100 N   0  0  0  0  0  0  0  0  0  0  0  0
  -24.5420  -15.8620   20.5240 H   0  0  0  0  0  0  0  0  0  0  0  0
  -26.1620  -15.6760   20.1060 H   0  0  0  0  0  0  0  0  0  0  0  0
  -30.4220  -24.9090   20.2310 C   0  0  0  0  0  2  0  0  0  0  0  0
  -30.2080  -26.0860   21.2120 C   0  0  0  0  0  3  0  0  0  0  0  0
  -32.6750  -26.8150   21.1350 C   0  0  0  0  0  1  0  0  0  0  0  0
  -31.2080  -27.2310   20.9370 C   0  0  0  0  0  2  0  0  0  0  0  0
  -28.7440  -26.5870   21.2440 C   0  0  0  0  0  2  0  0  0  0  0  0
  -28.1910  -26.7850   19.9340 O   0  0  0  0  0  0  0  0  0  0  0  0
  -24.5010  -31.9020   23.1360 C   0  0  0  0  0  0  0  0  0  0  0  0
  -27.0300  -27.5210   19.9470 C   0  0  0  0  0  0  0  0  0  0  0  0
  -23.2240  -30.5170   21.5280 C   0  0  0  0  0  3  0  0  0  0  0  0
  -24.6220  -28.9890   20.0340 C   0  0  0  0  0  0  0  0  0  0  0  0
  -25.7290  -30.8920   21.2240 C   0  0  0  0  0  2  0  0  0  0  0  0
  -25.7910  -29.5260   20.5820 C   0  0  0  0  0  0  0  0  0  0  0  0
  -26.9950  -28.7990   20.5380 C   0  0  0  0  0  3  0  0  0  0  0  0
  -25.8530  -26.9900   19.3740 C   0  0  0  0  0  3  0  0  0  0  0  0
  -24.6440  -27.7200   19.4210 C   0  0  0  0  0  3  0  0  0  0  0  0
  -23.3750  -29.8390   20.1370 C   0  0  0  0  0  2  0  0  0  0  0  0
  -24.5050  -31.1170   22.0240 N   0  0  0  0  0  0  0  0  0  0  0  0
  -23.4420  -32.1750   23.7230 O   0  0  0  0  0  0  0  0  0  0  0  0
  -22.6070  -29.4940   22.5080 C   0  0  0  0  0  0  0  0  0  0  0  0
  -21.2810  -29.3100   22.4170 N   0  0  0  0  0  0  0  0  0  0  0  0
  -23.3180  -28.8680   23.3010 O   0  0  0  0  0  0  0  0  0  0  0  0
  -20.7690  -29.8720   21.7500 H   0  0  0  0  0  0  0  0  0  0  0  0
  -17.9290  -28.0850   22.9700 C   0  0  0  0  0  0  0  0  0  0  0  0
  -20.4870  -28.3680   23.2050 C   0  0  0  0  0  3  0  0  0  0  0  0
  -20.5960  -26.9360   22.6330 C   0  0  0  0  0  2  0  0  0  0  0  0
  -19.4820  -26.5960   21.6380 C   0  0  0  0  0  2  0  0  0  0  0  0
  -18.1080  -26.7330   22.3010 C   0  0  0  0  0  2  0  0  0  0  0  0
  -19.0460  -28.8600   23.3810 C   0  0  0  0  0  0  0  0  0  0  0  0
  -18.8240  -30.1250   23.9670 C   0  0  0  0  0  3  0  0  0  0  0  0
  -17.5170  -30.6150   24.1470 C   0  0  0  0  0  3  0  0  0  0  0  0
  -16.4140  -29.8380   23.7530 C   0  0  0  0  0  3  0  0  0  0  0  0
  -16.6200  -28.5740   23.1700 C   0  0  0  0  0  3  0  0  0  0  0  0
  -25.8160  -32.5170   23.7150 C   0  0  0  0  0  3  0  0  0  0  0  0
  -26.3950  -31.7120   24.9430 C   0  0  1  0  0  0  0  0  0  0  0  0
  -25.3530  -31.4440   26.0540 C   0  0  0  0  0  1  0  0  0  0  0  0
  -26.9570  -30.3470   24.4780 C   0  0  0  0  0  1  0  0  0  0  0  0
  -27.5750  -32.4900   25.5690 C   0  0  0  0  0  1  0  0  0  0  0  0
  -25.5260  -33.9070   24.0920 N   0  0  0  0  0  0  0  0  0  0  0  0
  -25.8490  -34.9770   23.3540 C   0  0  0  0  0  0  0  0  0  0  0  0
  -26.4930  -34.8980   22.3060 O   0  0  0  0  0  0  0  0  0  0  0  0
  -24.9540  -34.0450   24.9130 H   0  0  0  0  0  0  0  0  0  0  0  0
  -24.1440  -36.8020   23.0630 C   0  0  0  0  0  1  0  0  0  0  0  0
  -25.3800  -36.3550   23.8600 C   0  0  0  0  0  3  0  0  0  0  0  0
  -27.5240  -37.1830   24.7200 C   0  0  0  0  0  1  0  0  0  0  0  0
  -26.4260  -37.3960   23.7810 N   0  0  0  0  0  0  0  0  0  0  0  0
  -26.0330  -38.3170   23.9560 H   0  0  0  0  0  0  0  0  0  0  0  0
  1  2  2  0
  3  4  1  0
  3  1  1  0
  4  5  1  0
  5  6  1  0
  6  9  1  0
  6  7  1  0
  8  6  1  0
  9 10  1  0
 11 19  1  0
 12 17  1  0
 13 14  1  0
 13 12  1  0
 15 14  1  0
 15 24  1  0
 15 16  1  0
 17 11  1  0
 17 16  1  0
 18 11  2  0
 19 10  1  0
 19 20  1  0
 21 22  2  0
 22 41  1  0
 23 22  1  0
 23 26  1  0
 24 21  1  0
 24 25  1  0
 25 23  2  0
 26 27  1  0
 27 28  2  0
 29 32  1  0
 29 28  1  0
 30 29  2  0
 31 30  1  0
 31 26  2  0
 32 33  1  0
 33 34  1  0
 34 35  2  0
 36 35  1  0
 36 40  1  0
 37 36  2  0
 38 33  2  0
 38 37  1  0
 39 38  1  0
 41 42  1  0
 42 45  1  0
 42 44  1  0
 43 41  2  0
 46 47  1  0
 46 21  1  0
 48 46  1  0
 49  1  1  0
 50 49  1  0
 50 53  1  0
 52 51  1  0
 52 50  1  0
 54 56  1  0
 54 53  1  0
 55 66  2  0
 56 61  1  0
 57 65  1  0
 57 67  1  0
 58 64  1  0
 58 60  1  0
 59 65  1  0
 60 59  1  0
 61 60  2  0
 62 63  1  0
 62 56  2  0
 63 58  2  0
 64 57  1  0
 65 55  1  0
 67 69  2  0
 68 67  1  0
 70 68  1  0
 71 80  2  0
 71 76  1  0
 72 68  1  0
 72 76  1  0
 73 72  1  0
 74 75  1  0
 74 73  1  0
 75 71  1  0
 76 77  2  0
 77 78  1  0
 79 78  2  0
 80 79  1  0
 81 55  1  0
 81 86  1  0
 81 82  1  0
 82 85  1  1
 82 83  1  0
 84 82  1  0
 86 89  1  0
 87 91  1  0
 87 86  1  0
 88 87  2  0
 91 90  1  0
 93 91  1  0
 93 94  1  0
 93 92  1  0
M  ISO  4  11 100  19 100  53 101  54 101
M  END
>  <TORSDO>  (23) 
F 26

>  <SCORE>  (23) 
-11.920

>  <name>  (23) 
23

>  <ligand_id>  (23) 
23

>  <original_smiles>  (23) 
[H]c1c([H])c([H])c2c(c1[H])C([H])([H])C([H])([H])C([H])([H])C2([H])N([H])C(=O)C1([H])N(C(=O)C([H])(N([H])C(=O)C([H])(N([H])C([H])([H])[H])C([H])([H])[H])C(C([H])([H])[H])(C([H])([H])[H])C([H])([H])[H])C([H])([H])c2c([H])c(OC([H])([H])C([H])(C([H])([H])C(=O)C([H])([H])C([H])([H])C([H])([H])[N+]([H])([H])C([H])([H])C([H])([H])N([H])C(=O)N3C([H])([H])C([H])([H])C([H])([H])C([H])(n4nc(-c5c([H])c([H])c(Oc6c([H])c([H])c(F)c([H])c6F)c([H])c5[H])c(C(=O)N([H])[H])c4N([H])[H])C3([H])[H])C([H])([H])C([H])([H])[H])c([H])c([H])c2C1([H])[H]

>  <smiles>  (23) 
[H]c1c([H])c([H])c2c(c1[H])C([H])([H])C([H])([H])C([H])([H])C2([H])N([H])C(=O)C1([H])N(C(=O)C([H])(N([H])C(=O)C([H])(N([H])C([H])([H])[H])C([H])([H])[H])C(C([H])([H])[H])(C([H])([H])[H])C([H])([H])[H])C([H])([H])c2c([H])c(OC([H])([H])C([H])(C([H])([H])C(=O)C([H])([H])C([H])([H])C([H])([H])[N+]([H])([H])C([H])([H])C([H])([H])N([H])C(=O)N3C([H])([H])C([H])([H])C([H])([H])C([H])(n4nc(-c5c([H])c([H])c(Oc6c([H])c([H])c(F)c([H])c6F)c([H])c5[H])c(C(=O)N([H])[H])c4N([H])[H])C3([H])[H])C([H])([H])C([H])([H])[H])c([H])c([H])c2C1([H])[H]

$$$$
24:0:0
     RDKit          3D

 94101  0  0  1  0  0  0  0  0999 V2000
  -27.6920  -22.9950   16.7740 C   0  0  0  0  0  2  0  0  0  0  0  0
  -28.5530  -21.7120   16.9130 C   0  0  0  0  0  2  0  0  0  0  0  0
  -28.0280  -19.6940   18.4220 C   0  0  0  0  0  0  0  0  0  0  0  0
  -27.8050  -20.5480   17.4050 N   0  0  0  0  0  0  0  0  0  0  0  0
  -27.3160  -18.6960   18.5050 O   0  0  0  0  0  0  0  0  0  0  0  0
  -27.0550  -20.2510   16.7930 H   0  0  0  0  0  0  0  0  0  0  0  0
  -29.0640  -20.0610   19.3890 C   0  0  0  0  0  3  0  0  0  0  0  0
  -29.5810  -19.2080   20.3100 C   0  0  0  0  0  3  0  0  0  0  0  0
  -29.2600  -17.7290   20.5300 C   0  0  0  0  0  2  0  0  0  0  0  0
  -30.2340  -16.9990   21.4930 C   0  0  0  0  0  2  0  0  0  0  0  0
  -30.8190  -14.5750   21.0620 C   0  0  0  0  0  0  0  0  0  0  0  0
  -30.6690  -12.4100   19.8970 C   0  0  0  0  0  2  0  0  0  0  0  0
  -29.7910  -12.6150   18.6420 C   0  0  0  0  0  2  0  0  0  0  0  0
  -28.2950  -12.4480   18.9850 C   0  0  0  0  0  2  0  0  0  0  0  0
  -27.8730  -13.2690   20.2340 C   0  0  0  0  0  3  0  0  0  0  0  0
  -28.8620  -13.0280   21.3980 C   0  0  0  0  0  2  0  0  0  0  0  0
  -30.2110  -13.3680   20.9130 N   0  0  0  0  0  0  0  0  0  0  0  0
  -31.9640  -14.8060   20.6630 O   0  0  0  0  0  0  0  0  0  0  0  0
  -30.0060  -15.5490   21.5110 N   0  0  0  0  0  0  0  0  0  0  0  0
  -29.0820  -15.2480   21.7840 H   0  0  0  0  0  0  0  0  0  0  0  0
  -25.4320  -13.8510   20.8200 C   0  0  0  0  0  0  0  0  0  0  0  0
  -24.3510  -13.0640   21.1180 C   0  0  0  0  0  0  0  0  0  0  0  0
  -24.8250  -11.7160   21.0860 C   0  0  0  0  0  0  0  0  0  0  0  0
  -26.4960  -12.9810   20.6290 N   0  0  0  0  0  0  0  0  0  0  0  0
  -26.1310  -11.6920   20.8510 N   0  0  0  0  0  0  0  0  0  0  0  0
  -24.1030  -10.4450   21.2190 C   0  0  0  0  0  0  0  0  0  0  0  0
  -24.4810   -9.4750   22.1740 C   0  0  0  0  0  3  0  0  0  0  0  0
  -23.7600   -8.2660   22.2900 C   0  0  0  0  0  3  0  0  0  0  0  0
  -22.6480   -8.0210   21.4490 C   0  0  0  0  0  0  0  0  0  0  0  0
  -22.2910   -8.9800   20.4850 C   0  0  0  0  0  3  0  0  0  0  0  0
  -23.0130  -10.1790   20.3670 C   0  0  0  0  0  3  0  0  0  0  0  0
  -21.9060   -6.8640   21.4740 O   0  0  0  0  0  0  0  0  0  0  0  0
  -21.7540   -6.1300   22.6230 C   0  0  0  0  0  0  0  0  0  0  0  0
  -21.1570   -6.6750   23.7810 C   0  0  0  0  0  3  0  0  0  0  0  0
  -20.9560   -5.8660   24.9180 C   0  0  0  0  0  3  0  0  0  0  0  0
  -21.3420   -4.5110   24.8950 C   0  0  0  0  0  0  0  0  0  0  0  0
  -21.9280   -3.9660   23.7410 C   0  0  0  0  0  3  0  0  0  0  0  0
  -22.1310   -4.7720   22.6070 C   0  0  0  0  0  0  0  0  0  0  0  0
  -22.6780   -4.2360   21.4900 F   0  0  0  0  0  0  0  0  0  0  0  0
  -21.1420   -3.7310   25.9830 F   0  0  0  0  0  0  0  0  0  0  0  0
  -22.9370  -13.5230   21.3240 C   0  0  0  0  0  0  0  0  0  0  0  0
  -22.1720  -12.8060   22.1410 N   0  0  0  0  0  0  0  0  0  0  0  0
  -22.5130  -14.5500   20.7970 O   0  0  0  0  0  0  0  0  0  0  0  0
  -22.5230  -11.9740   22.5900 H   0  0  0  0  0  0  0  0  0  0  0  0
  -21.2210  -13.0970   22.3230 H   0  0  0  0  0  0  0  0  0  0  0  0
  -25.5910  -15.2260   20.6700 N   0  0  0  0  0  0  0  0  0  0  0  0
  -24.8080  -15.8660   20.7340 H   0  0  0  0  0  0  0  0  0  0  0  0
  -26.4430  -15.6760   20.3650 H   0  0  0  0  0  0  0  0  0  0  0  0
  -27.7340  -23.9500   17.9880 C   0  0  0  0  0  2  0  0  0  0  0  0
  -27.0140  -23.4200   19.2430 C   0  0  0  0  0  2  0  0  0  0  0  0
  -27.8700  -23.4200   20.5260 C   0  0  0  0  0  2  0  0  0  0  0  0
  -27.7620  -24.6380   21.4790 C   0  0  0  0  0  2  0  0  0  0  0  0
  -28.8000  -25.7840   21.3390 C   0  0  0  0  0  2  0  0  0  0  0  0
  -28.5820  -26.7200   20.2900 O   0  0  0  0  0  0  0  0  0  0  0  0
  -24.6490  -31.8550   23.3930 C   0  0  0  0  0  0  0  0  0  0  0  0
  -27.4180  -27.4390   20.3680 C   0  0  0  0  0  0  0  0  0  0  0  0
  -23.5140  -30.4450   21.7160 C   0  0  0  0  0  3  0  0  0  0  0  0
  -25.0170  -28.9130   20.3520 C   0  0  0  0  0  0  0  0  0  0  0  0
  -26.0440  -30.8060   21.6160 C   0  0  0  0  0  2  0  0  0  0  0  0
  -26.1550  -29.4400   20.9790 C   0  0  0  0  0  0  0  0  0  0  0  0
  -27.3610  -28.7050   20.9920 C   0  0  0  0  0  3  0  0  0  0  0  0
  -26.2670  -26.9280   19.7360 C   0  0  0  0  0  3  0  0  0  0  0  0
  -25.0630  -27.6520   19.7380 C   0  0  0  0  0  3  0  0  0  0  0  0
  -23.7770  -29.7730   20.3450 C   0  0  0  0  0  2  0  0  0  0  0  0
  -24.7510  -31.0510   22.3010 N   0  0  0  0  0  0  0  0  0  0  0  0
  -23.5450  -32.1280   23.8880 O   0  0  0  0  0  0  0  0  0  0  0  0
  -22.8340  -29.4180   22.6510 C   0  0  0  0  0  0  0  0  0  0  0  0
  -21.5220  -29.2080   22.4530 N   0  0  0  0  0  0  0  0  0  0  0  0
  -23.4840  -28.8150   23.5080 O   0  0  0  0  0  0  0  0  0  0  0  0
  -21.0560  -29.7510   21.7400 H   0  0  0  0  0  0  0  0  0  0  0  0
  -18.1550  -27.9430   22.7830 C   0  0  0  0  0  0  0  0  0  0  0  0
  -20.6870  -28.2620   23.1880 C   0  0  0  0  0  3  0  0  0  0  0  0
  -20.8530  -26.8270   22.6380 C   0  0  0  0  0  2  0  0  0  0  0  0
  -19.8140  -26.4650   21.5710 C   0  0  0  0  0  2  0  0  0  0  0  0
  -18.3980  -26.5870   22.1390 C   0  0  0  0  0  2  0  0  0  0  0  0
  -19.2310  -28.7340   23.2620 C   0  0  0  0  0  0  0  0  0  0  0  0
  -18.9530  -30.0020   23.8210 C   0  0  0  0  0  3  0  0  0  0  0  0
  -17.6300  -30.4750   23.9060 C   0  0  0  0  0  3  0  0  0  0  0  0
  -16.5680  -29.6800   23.4450 C   0  0  0  0  0  3  0  0  0  0  0  0
  -16.8310  -28.4180   22.8860 C   0  0  0  0  0  3  0  0  0  0  0  0
  -25.9070  -32.4950   24.0560 C   0  0  0  0  0  3  0  0  0  0  0  0
  -26.3350  -31.7830   25.3970 C   0  0  1  0  0  0  0  0  0  0  0  0
  -25.1760  -31.6060   26.4070 C   0  0  0  0  0  1  0  0  0  0  0  0
  -26.9260  -30.3850   25.1080 C   0  0  0  0  0  1  0  0  0  0  0  0
  -27.4490  -32.6010   26.0940 C   0  0  0  0  0  1  0  0  0  0  0  0
  -25.6070  -33.9130   24.2940 N   0  0  0  0  0  0  0  0  0  0  0  0
  -26.0080  -34.9160   23.5050 C   0  0  0  0  0  0  0  0  0  0  0  0
  -26.7420  -34.7480   22.5250 O   0  0  0  0  0  0  0  0  0  0  0  0
  -24.9640  -34.1190   25.0460 H   0  0  0  0  0  0  0  0  0  0  0  0
  -24.3560  -36.7210   22.9360 C   0  0  0  0  0  1  0  0  0  0  0  0
  -25.5200  -36.3320   23.8600 C   0  0  0  0  0  3  0  0  0  0  0  0
  -27.6000  -37.2160   24.8200 C   0  0  0  0  0  1  0  0  0  0  0  0
  -26.5840  -37.3580   23.7800 N   0  0  0  0  0  0  0  0  0  0  0  0
  -26.1870  -38.2910   23.8430 H   0  0  0  0  0  0  0  0  0  0  0  0
  1  2  1  0
  1 49  1  0
  2  4  1  0
  3  5  2  0
  3  7  1  0
  4  3  1  0
  6  4  1  0
  7  8  2  0
  8  9  1  0
  9 10  1  0
 10 19  1  0
 11 19  1  0
 12 17  1  0
 13 14  1  0
 13 12  1  0
 15 14  1  0
 15 24  1  0
 15 16  1  0
 17 11  1  0
 17 16  1  0
 18 11  2  0
 19 20  1  0
 21 22  2  0
 22 41  1  0
 23 22  1  0
 23 26  1  0
 24 21  1  0
 24 25  1  0
 25 23  2  0
 26 27  1  0
 27 28  2  0
 29 32  1  0
 29 28  1  0
 30 29  2  0
 31 30  1  0
 31 26  2  0
 32 33  1  0
 33 34  1  0
 34 35  2  0
 36 35  1  0
 36 40  1  0
 37 36  2  0
 38 33  2  0
 38 37  1  0
 39 38  1  0
 41 42  1  0
 42 45  1  0
 42 44  1  0
 43 41  2  0
 46 47  1  0
 46 21  1  0
 48 46  1  0
 49 50  1  0
 50 51  1  0
 51 52  1  0
 53 52  1  0
 54 56  1  0
 54 53  1  0
 55 66  2  0
 56 61  1  0
 57 65  1  0
 57 67  1  0
 58 60  1  0
 59 65  1  0
 60 61  2  0
 60 59  1  0
 62 63  1  0
 62 56  2  0
 63 58  2  0
 64 58  1  0
 64 57  1  0
 65 55  1  0
 67 69  2  0
 68 67  1  0
 70 68  1  0
 71 80  2  0
 71 76  1  0
 72 68  1  0
 72 76  1  0
 73 72  1  0
 74 75  1  0
 74 73  1  0
 75 71  1  0
 76 77  2  0
 77 78  1  0
 79 78  2  0
 80 79  1  0
 81 55  1  0
 81 86  1  0
 81 82  1  0
 82 85  1  1
 82 83  1  0
 84 82  1  0
 86 89  1  0
 87 91  1  0
 87 86  1  0
 88 87  2  0
 91 90  1  0
 93 94  1  0
 93 91  1  0
 93 92  1  0
M  ISO  4  11 100  19 100  53 101  54 101
M  END
>  <TORSDO>  (24) 
F 26

>  <SCORE>  (24) 
-10.817

>  <name>  (24) 
24

>  <ligand_id>  (24) 
24

>  <original_smiles>  (24) 
[H]C(C(=O)N([H])C([H])([H])C([H])([H])C([H])([H])C([H])([H])C([H])([H])C([H])([H])C([H])([H])Oc1c([H])c([H])c2c(c1[H])C([H])([H])N(C(=O)C([H])(N([H])C(=O)C([H])(N([H])C([H])([H])[H])C([H])([H])[H])C(C([H])([H])[H])(C([H])([H])[H])C([H])([H])[H])C([H])(C(=O)N([H])C1([H])c3c([H])c([H])c([H])c([H])c3C([H])([H])C([H])([H])C1([H])[H])C2([H])[H])=C([H])C([H])([H])C([H])([H])N([H])C(=O)N1C([H])([H])C([H])([H])C([H])([H])C([H])(n2nc(-c3c([H])c([H])c(Oc4c([H])c([H])c(F)c([H])c4F)c([H])c3[H])c(C(=O)N([H])[H])c2N([H])[H])C1([H])[H]

>  <smiles>  (24) 
[H]C(C(=O)N([H])C([H])([H])C([H])([H])C([H])([H])C([H])([H])C([H])([H])C([H])([H])C([H])([H])Oc1c([H])c([H])c2c(c1[H])C([H])([H])N(C(=O)C([H])(N([H])C(=O)C([H])(N([H])C([H])([H])[H])C([H])([H])[H])C(C([H])([H])[H])(C([H])([H])[H])C([H])([H])[H])C([H])(C(=O)N([H])C1([H])c3c([H])c([H])c([H])c([H])c3C([H])([H])C([H])([H])C1([H])[H])C2([H])[H])=C([H])C([H])([H])C([H])([H])N([H])C(=O)N1C([H])([H])C([H])([H])C([H])([H])C([H])(n2nc(-c3c([H])c([H])c(Oc4c([H])c([H])c(F)c([H])c4F)c([H])c3[H])c(C(=O)N([H])[H])c2N([H])[H])C1([H])[H]

$$$$
25:0:0
     RDKit          3D

 94102  0  0  1  0  0  0  0  0999 V2000
  -30.7100  -22.9460   20.8430 C   0  0  0  0  0  2  0  0  0  0  0  0
  -31.5470  -21.8550   21.5060 C   0  0  0  0  0  2  0  0  0  0  0  0
  -28.9400  -21.1620   20.4630 C   0  0  0  0  0  2  0  0  0  0  0  0
  -29.2050  -22.6750   20.9240 C   0  0  0  0  0  3  0  0  0  0  0  0
  -31.3720  -20.4530   20.8480 C   0  0  0  0  0  3  0  0  0  0  0  0
  -29.8790  -19.9900   21.0450 C   0  0  0  0  0  3  0  0  0  0  0  0
  -28.4620  -23.8880   20.1790 C   0  0  0  0  0  2  0  0  0  0  0  0
  -28.2930  -25.2720   20.9540 C   0  0  0  0  0  2  0  0  0  0  0  0
  -28.3660  -26.5470   20.2200 O   0  0  0  0  0  0  0  0  0  0  0  0
  -24.6080  -31.8990   23.2320 C   0  0  0  0  0  0  0  0  0  0  0  0
  -27.2370  -27.3640   20.2130 C   0  0  0  0  0  0  0  0  0  0  0  0
  -23.4100  -30.4950   21.5890 C   0  0  0  0  0  3  0  0  0  0  0  0
  -24.8680  -28.9440   20.1730 C   0  0  0  0  0  0  0  0  0  0  0  0
  -25.9440  -30.8330   21.4020 C   0  0  0  0  0  2  0  0  0  0  0  0
  -26.0300  -29.4520   20.7690 C   0  0  0  0  0  0  0  0  0  0  0  0
  -27.2220  -28.6720   20.7780 C   0  0  0  0  0  3  0  0  0  0  0  0
  -26.0590  -26.8940   19.6000 C   0  0  0  0  0  3  0  0  0  0  0  0
  -24.8830  -27.6700   19.5770 C   0  0  0  0  0  3  0  0  0  0  0  0
  -23.6280  -29.8130   20.2100 C   0  0  0  0  0  2  0  0  0  0  0  0
  -24.6730  -31.0910   22.1340 N   0  0  0  0  0  0  0  0  0  0  0  0
  -23.5240  -32.1720   23.7670 O   0  0  0  0  0  0  0  0  0  0  0  0
  -22.7480  -29.4780   22.5500 C   0  0  0  0  0  0  0  0  0  0  0  0
  -21.4220  -29.3060   22.4280 N   0  0  0  0  0  0  0  0  0  0  0  0
  -23.4270  -28.8490   23.3660 O   0  0  0  0  0  0  0  0  0  0  0  0
  -20.9310  -29.8660   21.7440 H   0  0  0  0  0  0  0  0  0  0  0  0
  -18.0420  -28.1240   22.9320 C   0  0  0  0  0  0  0  0  0  0  0  0
  -20.6020  -28.3700   23.2010 C   0  0  0  0  0  3  0  0  0  0  0  0
  -20.6970  -26.9390   22.6210 C   0  0  0  0  0  2  0  0  0  0  0  0
  -19.5910  -26.6240   21.6090 C   0  0  0  0  0  2  0  0  0  0  0  0
  -18.2120  -26.7750   22.2560 C   0  0  0  0  0  2  0  0  0  0  0  0
  -19.1640  -28.8790   23.3630 C   0  0  0  0  0  0  0  0  0  0  0  0
  -18.9500  -30.1430   23.9560 C   0  0  0  0  0  3  0  0  0  0  0  0
  -17.6480  -30.6490   24.1260 C   0  0  0  0  0  3  0  0  0  0  0  0
  -16.5390  -29.8890   23.7130 C   0  0  0  0  0  3  0  0  0  0  0  0
  -16.7380  -28.6290   23.1190 C   0  0  0  0  0  3  0  0  0  0  0  0
  -25.8900  -32.5340   23.8560 C   0  0  0  0  0  3  0  0  0  0  0  0
  -25.5820  -33.9330   24.1830 N   0  0  0  0  0  0  0  0  0  0  0  0
  -25.9180  -34.9830   23.4220 C   0  0  0  0  0  0  0  0  0  0  0  0
  -26.5920  -34.8770   22.3940 O   0  0  0  0  0  0  0  0  0  0  0  0
  -24.9880  -34.0900   24.9840 H   0  0  0  0  0  0  0  0  0  0  0  0
  -24.1960  -36.7790   23.0570 C   0  0  0  0  0  1  0  0  0  0  0  0
  -25.4320  -36.3740   23.8760 C   0  0  0  0  0  3  0  0  0  0  0  0
  -27.5650  -37.2550   24.7160 C   0  0  0  0  0  1  0  0  0  0  0  0
  -26.4690  -37.4250   23.7670 N   0  0  0  0  0  0  0  0  0  0  0  0
  -26.0640  -38.3470   23.9120 H   0  0  0  0  0  0  0  0  0  0  0  0
  -26.4040  -31.7660   25.1350 C   0  0  1  0  0  0  0  0  0  0  0  0
  -25.3080  -31.5290   26.2020 C   0  0  0  0  0  1  0  0  0  0  0  0
  -26.9840  -30.3880   24.7450 C   0  0  0  0  0  1  0  0  0  0  0  0
  -27.5560  -32.5580   25.7970 C   0  0  0  0  0  1  0  0  0  0  0  0
  -29.4490  -18.5030   20.5510 C   0  0  0  0  0  3  0  0  0  0  0  0
  -30.3640  -17.2070   20.7930 C   0  0  0  0  0  3  0  0  0  0  0  0
  -30.5700  -14.6740   20.3750 C   0  0  0  0  0  0  0  0  0  0  0  0
  -30.3220  -12.4420   19.3080 C   0  0  0  0  0  2  0  0  0  0  0  0
  -29.3780  -12.5620   18.0940 C   0  0  0  0  0  2  0  0  0  0  0  0
  -27.9060  -12.4170   18.5250 C   0  0  0  0  0  2  0  0  0  0  0  0
  -27.5530  -13.2790   19.7700 C   0  0  0  0  0  3  0  0  0  0  0  0
  -28.6170  -13.1510   20.8790 C   0  0  0  0  0  2  0  0  0  0  0  0
  -29.9140  -13.4770   20.2770 N   0  0  0  0  0  0  0  0  0  0  0  0
  -31.7610  -14.7720   20.0640 O   0  0  0  0  0  0  0  0  0  0  0  0
  -29.8270  -15.8010   20.6270 N   0  0  0  0  0  0  0  0  0  0  0  0
  -28.8320  -15.6580   20.7070 H   0  0  0  0  0  0  0  0  0  0  0  0
  -25.1700  -13.8730   20.5200 C   0  0  0  0  0  0  0  0  0  0  0  0
  -24.1070  -13.1010   20.9010 C   0  0  0  0  0  0  0  0  0  0  0  0
  -24.5680  -11.7480   20.8630 C   0  0  0  0  0  0  0  0  0  0  0  0
  -26.2110  -12.9940   20.2710 N   0  0  0  0  0  0  0  0  0  0  0  0
  -25.8550  -11.7100   20.5380 N   0  0  0  0  0  0  0  0  0  0  0  0
  -23.8400  -10.4880   21.0540 C   0  0  0  0  0  0  0  0  0  0  0  0
  -24.2810   -9.5160   21.9790 C   0  0  0  0  0  3  0  0  0  0  0  0
  -23.5560   -8.3190   22.1590 C   0  0  0  0  0  3  0  0  0  0  0  0
  -22.3740   -8.0850   21.4150 C   0  0  0  0  0  0  0  0  0  0  0  0
  -21.9520   -9.0460   20.4790 C   0  0  0  0  0  3  0  0  0  0  0  0
  -22.6780  -10.2350   20.2970 C   0  0  0  0  0  3  0  0  0  0  0  0
  -21.6160   -6.9420   21.5090 O   0  0  0  0  0  0  0  0  0  0  0  0
  -21.5830   -6.1910   22.6550 C   0  0  0  0  0  0  0  0  0  0  0  0
  -21.1730   -6.7370   23.8930 C   0  0  0  0  0  3  0  0  0  0  0  0
  -21.0880   -5.9120   25.0330 C   0  0  0  0  0  3  0  0  0  0  0  0
  -21.3990   -4.5420   24.9370 C   0  0  0  0  0  0  0  0  0  0  0  0
  -21.7980   -3.9950   23.7030 C   0  0  0  0  0  3  0  0  0  0  0  0
  -21.8860   -4.8170   22.5670 C   0  0  0  0  0  0  0  0  0  0  0  0
  -22.2520   -4.2810   21.3770 F   0  0  0  0  0  0  0  0  0  0  0  0
  -21.3100   -3.7450   26.0280 F   0  0  0  0  0  0  0  0  0  0  0  0
  -22.7120  -13.5790   21.1820 C   0  0  0  0  0  0  0  0  0  0  0  0
  -21.9880  -12.8800   22.0470 N   0  0  0  0  0  0  0  0  0  0  0  0
  -22.2750  -14.6070   20.6660 O   0  0  0  0  0  0  0  0  0  0  0  0
  -22.3570  -12.0480   22.4850 H   0  0  0  0  0  0  0  0  0  0  0  0
  -21.0510  -13.1780   22.2770 H   0  0  0  0  0  0  0  0  0  0  0  0
  -25.3350  -15.2450   20.3440 N   0  0  0  0  0  0  0  0  0  0  0  0
  -24.5700  -15.8980   20.4740 H   0  0  0  0  0  0  0  0  0  0  0  0
  -26.1720  -15.6830   19.9810 H   0  0  0  0  0  0  0  0  0  0  0  0
  -32.4740  -19.5040   21.4120 C   0  0  0  0  0  2  0  0  0  0  0  0
  -33.8410  -20.0420   21.2850 N   0  0  0  0  0  4  0  0  0  0  0  0
  -34.0480  -20.2900   20.3340 H   0  0  0  0  0  0  0  0  0  0  0  0
  -34.5070  -19.3520   21.5830 H   0  0  0  0  0  0  0  0  0  0  0  0
  -33.9480  -20.8580   21.8610 H   0  0  0  0  0  0  0  0  0  0  0  0
  1  4  1  0
  1  2  1  0
  3  4  1  0
  3  6  1  0
  4  7  1  0
  5  6  1  0
  5 90  1  0
  5  2  1  0
  6 50  1  0
  7  8  1  0
  9  8  1  0
 10 21  2  0
 11  9  1  0
 11 16  1  0
 12 20  1  0
 12 22  1  0
 13 19  1  0
 13 15  1  0
 14 20  1  0
 15 16  2  0
 15 14  1  0
 17 11  2  0
 18 17  1  0
 18 13  2  0
 19 12  1  0
 20 10  1  0
 22 24  2  0
 23 22  1  0
 25 23  1  0
 26 35  2  0
 26 31  1  0
 27 23  1  0
 27 31  1  0
 28 27  1  0
 29 30  1  0
 29 28  1  0
 30 26  1  0
 31 32  2  0
 32 33  1  0
 34 33  2  0
 35 34  1  0
 36 10  1  0
 36 37  1  0
 36 46  1  0
 37 40  1  0
 38 42  1  0
 38 37  1  0
 39 38  2  0
 42 41  1  0
 44 42  1  0
 44 45  1  0
 44 43  1  0
 46 49  1  1
 46 47  1  0
 48 46  1  0
 50 51  2  0
 52 60  1  0
 53 58  1  0
 54 55  1  0
 54 53  1  0
 56 55  1  0
 56 65  1  0
 56 57  1  0
 58 52  1  0
 58 57  1  0
 59 52  2  0
 60 61  1  0
 60 51  1  0
 62 63  2  0
 63 82  1  0
 64 63  1  0
 64 67  1  0
 65 62  1  0
 65 66  1  0
 66 64  2  0
 67 68  1  0
 68 69  2  0
 70 73  1  0
 70 69  1  0
 71 70  2  0
 72 71  1  0
 72 67  2  0
 73 74  1  0
 74 75  1  0
 75 76  2  0
 77 76  1  0
 77 81  1  0
 78 77  2  0
 79 74  2  0
 79 78  1  0
 80 79  1  0
 82 83  1  0
 83 86  1  0
 83 85  1  0
 84 82  2  0
 87 88  1  0
 87 62  1  0
 89 87  1  0
 91 90  1  0
 91 93  1  0
 91 94  1  0
 92 91  1  0
M  ISO  4   8 101   9 101  52 100  60 100
M  END
>  <TORSDO>  (25) 
F 22

>  <SCORE>  (25) 
-13.462

>  <name>  (25) 
25

>  <ligand_id>  (25) 
25

>  <original_smiles>  (25) 
[H]c1c([H])c([H])c2c(c1[H])C([H])([H])C([H])([H])C([H])([H])C2([H])N([H])C(=O)C1([H])N(C(=O)C([H])(N([H])C(=O)C([H])(N([H])C([H])([H])[H])C([H])([H])[H])C(C([H])([H])[H])(C([H])([H])[H])C([H])([H])[H])C([H])([H])c2c([H])c(OC([H])([H])C([H])([H])C3([H])C([H])([H])C([H])([H])C([H])(C([H])([H])[N+]([H])([H])[H])C([H])(C([H])([H])C([H])([H])N([H])C(=O)N4C([H])([H])C([H])([H])C([H])([H])C([H])(n5nc(-c6c([H])c([H])c(Oc7c([H])c([H])c(F)c([H])c7F)c([H])c6[H])c(C(=O)N([H])[H])c5N([H])[H])C4([H])[H])C3([H])[H])c([H])c([H])c2C1([H])[H]

>  <smiles>  (25) 
[H]c1c([H])c([H])c2c(c1[H])C([H])([H])C([H])([H])C([H])([H])C2([H])N([H])C(=O)C1([H])N(C(=O)C([H])(N([H])C(=O)C([H])(N([H])C([H])([H])[H])C([H])([H])[H])C(C([H])([H])[H])(C([H])([H])[H])C([H])([H])[H])C([H])([H])c2c([H])c(OC([H])([H])C([H])([H])C3([H])C([H])([H])C([H])([H])C([H])(C([H])([H])[N+]([H])([H])[H])C([H])(C([H])([H])C([H])([H])N([H])C(=O)N4C([H])([H])C([H])([H])C([H])([H])C([H])(n5nc(-c6c([H])c([H])c(Oc7c([H])c([H])c(F)c([H])c7F)c([H])c6[H])c(C(=O)N([H])[H])c5N([H])[H])C4([H])[H])C3([H])[H])c([H])c([H])c2C1([H])[H]

$$$$
26:0:0
     RDKit          3D

 91 98  0  0  1  0  0  0  0  0999 V2000
  -28.6520  -22.0870   21.0500 C   0  0  0  0  0  2  0  0  0  0  0  0
  -28.3450  -21.0930   19.8980 C   0  0  0  0  0  2  0  0  0  0  0  0
  -29.2640  -19.8390   19.8330 C   0  0  0  0  0  2  0  0  0  0  0  0
  -28.8630  -18.6890   20.6850 N   0  0  0  0  0  4  0  0  0  0  0  0
  -27.9610  -18.3600   20.3700 H   0  0  0  0  0  0  0  0  0  0  0  0
  -28.7620  -19.0000   21.6380 H   0  0  0  0  0  0  0  0  0  0  0  0
  -29.8480  -17.5700   20.6420 C   0  0  0  0  0  2  0  0  0  0  0  0
  -29.3390  -16.2220   21.2190 C   0  0  0  0  0  2  0  0  0  0  0  0
  -30.7380  -14.4260   20.1920 C   0  0  0  0  0  0  0  0  0  0  0  0
  -30.3260  -12.3410   18.9310 C   0  0  0  0  0  2  0  0  0  0  0  0
  -29.3300  -12.5780   17.7820 C   0  0  0  0  0  2  0  0  0  0  0  0
  -27.8800  -12.4270   18.2820 C   0  0  0  0  0  2  0  0  0  0  0  0
  -27.6070  -13.2520   19.5680 C   0  0  0  0  0  3  0  0  0  0  0  0
  -28.7090  -12.9880   20.6210 C   0  0  0  0  0  2  0  0  0  0  0  0
  -30.0130  -13.2920   20.0070 N   0  0  0  0  0  0  0  0  0  0  0  0
  -31.7490  -14.6960   19.5380 O   0  0  0  0  0  0  0  0  0  0  0  0
  -30.4010  -15.1970   21.2350 N   0  0  0  0  0  0  0  0  0  0  0  0
  -31.2360  -15.5590   21.6720 H   0  0  0  0  0  0  0  0  0  0  0  0
  -25.2580  -13.8730   20.4220 C   0  0  0  0  0  0  0  0  0  0  0  0
  -24.2060  -13.1040   20.8430 C   0  0  0  0  0  0  0  0  0  0  0  0
  -24.6520  -11.7490   20.7570 C   0  0  0  0  0  0  0  0  0  0  0  0
  -26.2780  -12.9860   20.1140 N   0  0  0  0  0  0  0  0  0  0  0  0
  -25.9210  -11.7020   20.3720 N   0  0  0  0  0  0  0  0  0  0  0  0
  -23.9280  -10.4880   20.9620 C   0  0  0  0  0  0  0  0  0  0  0  0
  -24.3840   -9.5170   21.8800 C   0  0  0  0  0  3  0  0  0  0  0  0
  -23.6620   -8.3200   22.0710 C   0  0  0  0  0  3  0  0  0  0  0  0
  -22.4690   -8.0860   21.3460 C   0  0  0  0  0  0  0  0  0  0  0  0
  -22.0330   -9.0480   20.4170 C   0  0  0  0  0  3  0  0  0  0  0  0
  -22.7560  -10.2370   20.2250 C   0  0  0  0  0  3  0  0  0  0  0  0
  -21.7170   -6.9420   21.4500 O   0  0  0  0  0  0  0  0  0  0  0  0
  -21.6690   -6.2130   22.6100 C   0  0  0  0  0  0  0  0  0  0  0  0
  -21.2570   -6.7830   23.8340 C   0  0  0  0  0  3  0  0  0  0  0  0
  -21.1580   -5.9800   24.9870 C   0  0  0  0  0  3  0  0  0  0  0  0
  -21.4590   -4.6070   24.9180 C   0  0  0  0  0  0  0  0  0  0  0  0
  -21.8630   -4.0350   23.6980 C   0  0  0  0  0  3  0  0  0  0  0  0
  -21.9660   -4.8360   22.5480 C   0  0  0  0  0  0  0  0  0  0  0  0
  -22.3370   -4.2760   21.3700 F   0  0  0  0  0  0  0  0  0  0  0  0
  -21.3560   -3.8340   26.0230 F   0  0  0  0  0  0  0  0  0  0  0  0
  -22.8300  -13.5850   21.2000 C   0  0  0  0  0  0  0  0  0  0  0  0
  -22.1460  -12.8750   22.0920 N   0  0  0  0  0  0  0  0  0  0  0  0
  -22.3700  -14.6220   20.7250 O   0  0  0  0  0  0  0  0  0  0  0  0
  -22.5320  -12.0350   22.4960 H   0  0  0  0  0  0  0  0  0  0  0  0
  -21.2260  -13.1770   22.3780 H   0  0  0  0  0  0  0  0  0  0  0  0
  -25.4260  -15.2450   20.2540 N   0  0  0  0  0  0  0  0  0  0  0  0
  -24.6500  -15.8880   20.3630 H   0  0  0  0  0  0  0  0  0  0  0  0
  -26.2090  -15.6540   19.7640 H   0  0  0  0  0  0  0  0  0  0  0  0
  -28.2190  -23.5650   20.7990 C   0  0  0  0  0  2  0  0  0  0  0  0
  -30.5190  -24.6290   20.3830 C   0  0  0  0  0  1  0  0  0  0  0  0
  -29.2590  -24.6250   21.2710 C   0  0  0  0  0  3  0  0  0  0  0  0
  -28.7030  -26.0690   21.4330 C   0  0  0  0  0  2  0  0  0  0  0  0
  -28.4150  -26.6960   20.1800 O   0  0  0  0  0  0  0  0  0  0  0  0
  -24.5880  -31.8980   23.2370 C   0  0  0  0  0  0  0  0  0  0  0  0
  -27.2770  -27.4660   20.1890 C   0  0  0  0  0  0  0  0  0  0  0  0
  -23.4020  -30.4790   21.5930 C   0  0  0  0  0  3  0  0  0  0  0  0
  -24.8760  -28.9440   20.1870 C   0  0  0  0  0  0  0  0  0  0  0  0
  -25.9270  -30.8540   21.4120 C   0  0  0  0  0  2  0  0  0  0  0  0
  -26.0260  -29.4810   20.7830 C   0  0  0  0  0  0  0  0  0  0  0  0
  -27.2340  -28.7460   20.7870 C   0  0  0  0  0  3  0  0  0  0  0  0
  -26.1200  -26.9450   19.5810 C   0  0  0  0  0  3  0  0  0  0  0  0
  -24.9160  -27.6720   19.5870 C   0  0  0  0  0  3  0  0  0  0  0  0
  -23.6240  -29.7910   20.2190 C   0  0  0  0  0  2  0  0  0  0  0  0
  -24.6570  -31.0910   22.1370 N   0  0  0  0  0  0  0  0  0  0  0  0
  -23.5030  -32.1670   23.7680 O   0  0  0  0  0  0  0  0  0  0  0  0
  -22.7520  -29.4580   22.5550 C   0  0  0  0  0  0  0  0  0  0  0  0
  -21.4280  -29.2740   22.4260 N   0  0  0  0  0  0  0  0  0  0  0  0
  -23.4370  -28.8320   23.3690 O   0  0  0  0  0  0  0  0  0  0  0  0
  -20.9340  -29.8330   21.7440 H   0  0  0  0  0  0  0  0  0  0  0  0
  -18.0550  -28.0880   22.9400 C   0  0  0  0  0  0  0  0  0  0  0  0
  -20.6120  -28.3400   23.2020 C   0  0  0  0  0  3  0  0  0  0  0  0
  -20.7080  -26.9060   22.6350 C   0  0  0  0  0  2  0  0  0  0  0  0
  -19.6020  -26.5750   21.6270 C   0  0  0  0  0  2  0  0  0  0  0  0
  -18.2230  -26.7330   22.2750 C   0  0  0  0  0  2  0  0  0  0  0  0
  -19.1760  -28.8490   23.3610 C   0  0  0  0  0  0  0  0  0  0  0  0
  -18.9640  -30.1160   23.9440 C   0  0  0  0  0  3  0  0  0  0  0  0
  -17.6620  -30.6210   24.1170 C   0  0  0  0  0  3  0  0  0  0  0  0
  -16.5540  -29.8570   23.7110 C   0  0  0  0  0  3  0  0  0  0  0  0
  -16.7520  -28.5930   23.1290 C   0  0  0  0  0  3  0  0  0  0  0  0
  -25.8680  -32.5370   23.8600 C   0  0  0  0  0  3  0  0  0  0  0  0
  -26.3900  -31.7690   25.1360 C   0  0  1  0  0  0  0  0  0  0  0  0
  -25.2970  -31.5200   26.2010 C   0  0  0  0  0  1  0  0  0  0  0  0
  -26.9880  -30.3990   24.7400 C   0  0  0  0  0  1  0  0  0  0  0  0
  -27.5340  -32.5720   25.7990 C   0  0  0  0  0  1  0  0  0  0  0  0
  -25.5480  -33.9320   24.1900 N   0  0  0  0  0  0  0  0  0  0  0  0
  -25.8740  -34.9870   23.4300 C   0  0  0  0  0  0  0  0  0  0  0  0
  -26.5500  -34.8880   22.4010 O   0  0  0  0  0  0  0  0  0  0  0  0
  -24.9420  -34.0830   24.9840 H   0  0  0  0  0  0  0  0  0  0  0  0
  -24.1300  -36.7600   23.0660 C   0  0  0  0  0  1  0  0  0  0  0  0
  -25.3730  -36.3720   23.8810 C   0  0  0  0  0  3  0  0  0  0  0  0
  -27.4990  -37.2760   24.7130 C   0  0  0  0  0  1  0  0  0  0  0  0
  -26.3980  -37.4330   23.7660 N   0  0  0  0  0  0  0  0  0  0  0  0
  -25.9850  -38.3500   23.9100 H   0  0  0  0  0  0  0  0  0  0  0  0
  2  1  1  0
  3  2  1  0
  3  4  1  0
  4  6  1  0
  5  4  1  0
  7  4  1  0
  7  8  1  0
  8 17  1  0
  9 17  1  0
 10 15  1  0
 11 12  1  0
 11 10  1  0
 13 12  1  0
 13 22  1  0
 13 14  1  0
 15  9  1  0
 15 14  1  0
 16  9  2  0
 17 18  1  0
 19 20  2  0
 20 39  1  0
 21 20  1  0
 21 24  1  0
 22 23  1  0
 22 19  1  0
 23 21  2  0
 24 25  1  0
 25 26  2  0
 27 30  1  0
 27 26  1  0
 28 27  2  0
 29 28  1  0
 29 24  2  0
 30 31  1  0
 31 32  1  0
 32 33  2  0
 34 33  1  0
 34 38  1  0
 35 34  2  0
 36 31  2  0
 36 35  1  0
 37 36  1  0
 39 40  1  0
 40 43  1  0
 40 42  1  0
 41 39  2  0
 44 45  1  0
 44 19  1  0
 46 44  1  0
 47  1  1  0
 47 49  1  0
 49 48  1  0
 49 50  1  0
 51 53  1  0
 51 50  1  0
 52 63  2  0
 53 58  1  0
 54 62  1  0
 54 64  1  0
 55 61  1  0
 55 57  1  0
 56 62  1  0
 57 58  2  0
 57 56  1  0
 59 60  1  0
 59 53  2  0
 60 55  2  0
 61 54  1  0
 62 52  1  0
 64 66  2  0
 65 64  1  0
 67 65  1  0
 68 77  2  0
 68 73  1  0
 69 65  1  0
 69 73  1  0
 70 69  1  0
 71 72  1  0
 71 70  1  0
 72 68  1  0
 73 74  2  0
 74 75  1  0
 76 75  2  0
 77 76  1  0
 78 52  1  0
 78 83  1  0
 78 79  1  0
 79 82  1  1
 79 80  1  0
 81 79  1  0
 83 86  1  0
 84 88  1  0
 84 83  1  0
 85 84  2  0
 88 87  1  0
 90 88  1  0
 90 91  1  0
 90 89  1  0
M  ISO  4   9 100  17 100  50 101  51 101
M  END
>  <TORSDO>  (26) 
F 24

>  <SCORE>  (26) 
-12.559

>  <name>  (26) 
26

>  <ligand_id>  (26) 
26

>  <original_smiles>  (26) 
[H]c1c([H])c([H])c2c(c1[H])C([H])([H])C([H])([H])C([H])([H])C2([H])N([H])C(=O)C1([H])N(C(=O)C([H])(N([H])C(=O)C([H])(N([H])C([H])([H])[H])C([H])([H])[H])C(C([H])([H])[H])(C([H])([H])[H])C([H])([H])[H])C([H])([H])c2c([H])c(OC([H])([H])C([H])(C([H])([H])[H])C([H])([H])C([H])([H])C([H])([H])C([H])([H])[N+]([H])([H])C([H])([H])C([H])([H])N([H])C(=O)N3C([H])([H])C([H])([H])C([H])([H])C([H])(n4nc(-c5c([H])c([H])c(Oc6c([H])c([H])c(F)c([H])c6F)c([H])c5[H])c(C(=O)N([H])[H])c4N([H])[H])C3([H])[H])c([H])c([H])c2C1([H])[H]

>  <smiles>  (26) 
[H]c1c([H])c([H])c2c(c1[H])C([H])([H])C([H])([H])C([H])([H])C2([H])N([H])C(=O)C1([H])N(C(=O)C([H])(N([H])C(=O)C([H])(N([H])C([H])([H])[H])C([H])([H])[H])C(C([H])([H])[H])(C([H])([H])[H])C([H])([H])[H])C([H])([H])c2c([H])c(OC([H])([H])C([H])(C([H])([H])[H])C([H])([H])C([H])([H])C([H])([H])C([H])([H])[N+]([H])([H])C([H])([H])C([H])([H])N([H])C(=O)N3C([H])([H])C([H])([H])C([H])([H])C([H])(n4nc(-c5c([H])c([H])c(Oc6c([H])c([H])c(F)c([H])c6F)c([H])c5[H])c(C(=O)N([H])[H])c4N([H])[H])C3([H])[H])c([H])c([H])c2C1([H])[H]

$$$$
27:0:0
     RDKit          3D

 90 99  0  0  1  0  0  0  0  0999 V2000
  -30.9060  -18.2340   21.5120 C   0  0  0  0  0  0  0  0  0  0  0  0
  -30.2410  -19.4810   22.0950 C   0  0  0  0  0  2  0  0  0  0  0  0
  -28.6670  -21.3390   21.1070 C   0  0  0  0  0  2  0  0  0  0  0  0
  -29.7930  -20.6240   19.1640 C   0  0  0  0  0  2  0  0  0  0  0  0
  -30.4380  -17.8940   20.0920 C   0  0  0  0  0  3  0  0  0  0  0  0
  -29.0150  -19.7910   21.2160 C   0  0  0  0  0  3  0  0  0  0  0  0
  -29.3870  -19.1860   19.8440 C   0  0  0  0  0  3  0  0  0  0  0  0
  -28.8580  -21.8700   19.6570 C   0  0  0  0  0  3  0  0  0  0  0  0
  -31.7280  -17.5810   22.1610 O   0  0  0  0  0  0  0  0  0  0  0  0
  -30.7900  -15.1820   19.9040 C   0  0  0  0  0  0  0  0  0  0  0  0
  -30.6470  -12.8170   18.9980 C   0  0  0  0  0  2  0  0  0  0  0  0
  -29.6500  -12.7380   17.8180 C   0  0  0  0  0  2  0  0  0  0  0  0
  -28.2160  -12.5120   18.3330 C   0  0  0  0  0  2  0  0  0  0  0  0
  -27.8580  -13.4480   19.5160 C   0  0  0  0  0  3  0  0  0  0  0  0
  -28.9730  -13.4970   20.5830 C   0  0  0  0  0  2  0  0  0  0  0  0
  -30.2000  -13.9200   19.8970 N   0  0  0  0  0  0  0  0  0  0  0  0
  -31.9750  -15.2490   19.5630 O   0  0  0  0  0  0  0  0  0  0  0  0
  -30.0210  -16.3670   20.0850 N   0  0  0  0  0  0  0  0  0  0  0  0
  -29.0520  -16.2000   20.3020 H   0  0  0  0  0  0  0  0  0  0  0  0
  -25.5340  -14.0050   20.4280 C   0  0  0  0  0  0  0  0  0  0  0  0
  -24.4930  -13.2180   20.8390 C   0  0  0  0  0  0  0  0  0  0  0  0
  -24.9510  -11.8680   20.7350 C   0  0  0  0  0  0  0  0  0  0  0  0
  -26.5560  -13.1340   20.0920 N   0  0  0  0  0  0  0  0  0  0  0  0
  -26.2200  -11.8420   20.3420 N   0  0  0  0  0  0  0  0  0  0  0  0
  -24.2350  -10.6010   20.9270 C   0  0  0  0  0  0  0  0  0  0  0  0
  -24.6690   -9.6400   21.8660 C   0  0  0  0  0  3  0  0  0  0  0  0
  -23.9520   -8.4390   22.0470 C   0  0  0  0  0  3  0  0  0  0  0  0
  -22.7830   -8.1900   21.2870 C   0  0  0  0  0  0  0  0  0  0  0  0
  -22.3670   -9.1380   20.3370 C   0  0  0  0  0  3  0  0  0  0  0  0
  -23.0860  -10.3310   20.1550 C   0  0  0  0  0  3  0  0  0  0  0  0
  -22.0360   -7.0390   21.3760 O   0  0  0  0  0  0  0  0  0  0  0  0
  -21.9180   -6.3490   22.5550 C   0  0  0  0  0  0  0  0  0  0  0  0
  -21.3320   -6.9270   23.7020 C   0  0  0  0  0  3  0  0  0  0  0  0
  -21.1670   -6.1580   24.8720 C   0  0  0  0  0  3  0  0  0  0  0  0
  -21.5780   -4.8110   24.8940 C   0  0  0  0  0  0  0  0  0  0  0  0
  -22.1550   -4.2330   23.7500 C   0  0  0  0  0  3  0  0  0  0  0  0
  -22.3210   -4.9980   22.5840 C   0  0  0  0  0  0  0  0  0  0  0  0
  -22.8590   -4.4300   21.4770 F   0  0  0  0  0  0  0  0  0  0  0  0
  -21.4130   -4.0700   26.0140 F   0  0  0  0  0  0  0  0  0  0  0  0
  -23.1170  -13.6870   21.2120 C   0  0  0  0  0  0  0  0  0  0  0  0
  -22.4400  -12.9600   22.0930 N   0  0  0  0  0  0  0  0  0  0  0  0
  -22.6530  -14.7330   20.7580 O   0  0  0  0  0  0  0  0  0  0  0  0
  -22.8290  -12.1120   22.4770 H   0  0  0  0  0  0  0  0  0  0  0  0
  -21.5200  -13.2560   22.3860 H   0  0  0  0  0  0  0  0  0  0  0  0
  -25.6880  -15.3810   20.2850 N   0  0  0  0  0  0  0  0  0  0  0  0
  -24.9260  -16.0270   20.4580 H   0  0  0  0  0  0  0  0  0  0  0  0
  -26.4940  -15.8250   19.8640 H   0  0  0  0  0  0  0  0  0  0  0  0
  -29.2170  -23.5220   19.4910 C   0  0  0  0  0  3  0  0  0  0  0  0
  -28.1300  -24.8120   19.4360 C   0  0  0  0  0  3  0  0  0  0  0  0
  -28.4210  -26.3430   19.5700 O   0  0  0  0  0  0  0  0  0  0  0  0
  -24.8630  -31.6820   23.2270 C   0  0  0  0  0  0  0  0  0  0  0  0
  -27.3590  -27.3190   19.6500 C   0  0  0  0  0  0  0  0  0  0  0  0
  -23.6180  -30.4530   21.4910 C   0  0  0  0  0  3  0  0  0  0  0  0
  -25.0270  -29.0470   19.8670 C   0  0  0  0  0  0  0  0  0  0  0  0
  -26.1670  -30.7510   21.2750 C   0  0  0  0  0  2  0  0  0  0  0  0
  -26.2250  -29.4340   20.4820 C   0  0  0  0  0  0  0  0  0  0  0  0
  -27.3910  -28.5890   20.3560 C   0  0  0  0  0  3  0  0  0  0  0  0
  -26.1320  -27.0390   19.0070 C   0  0  0  0  0  3  0  0  0  0  0  0
  -24.9940  -27.8660   19.1130 C   0  0  0  0  0  3  0  0  0  0  0  0
  -23.8010  -29.9300   20.0420 C   0  0  0  0  0  2  0  0  0  0  0  0
  -24.9050  -30.9790   22.0540 N   0  0  0  0  0  0  0  0  0  0  0  0
  -23.7920  -31.9020   23.8130 O   0  0  0  0  0  0  0  0  0  0  0  0
  -22.9760  -29.3440   22.3620 C   0  0  0  0  0  0  0  0  0  0  0  0
  -21.6550  -29.1370   22.2170 N   0  0  0  0  0  0  0  0  0  0  0  0
  -23.6690  -28.6760   23.1340 O   0  0  0  0  0  0  0  0  0  0  0  0
  -21.1500  -29.7390   21.5820 H   0  0  0  0  0  0  0  0  0  0  0  0
  -18.3140  -27.7930   22.6130 C   0  0  0  0  0  0  0  0  0  0  0  0
  -20.8640  -28.1130   22.9050 C   0  0  0  0  0  3  0  0  0  0  0  0
  -21.0090  -26.7360   22.2150 C   0  0  0  0  0  2  0  0  0  0  0  0
  -19.9170  -26.4630   21.1760 C   0  0  0  0  0  2  0  0  0  0  0  0
  -18.5320  -26.5090   21.8270 C   0  0  0  0  0  2  0  0  0  0  0  0
  -19.4080  -28.5510   23.1060 C   0  0  0  0  0  0  0  0  0  0  0  0
  -19.1490  -29.7510   23.8030 C   0  0  0  0  0  3  0  0  0  0  0  0
  -17.8290  -30.1920   24.0120 C   0  0  0  0  0  3  0  0  0  0  0  0
  -16.7480  -29.4290   23.5360 C   0  0  0  0  0  3  0  0  0  0  0  0
  -16.9920  -28.2320   22.8400 C   0  0  0  0  0  3  0  0  0  0  0  0
  -26.1560  -32.2610   23.8760 C   0  0  0  0  0  3  0  0  0  0  0  0
  -25.8710  -33.6460   24.2840 N   0  0  0  0  0  0  0  0  0  0  0  0
  -26.1610  -34.7330   23.5550 C   0  0  0  0  0  0  0  0  0  0  0  0
  -26.7640  -34.6740   22.4810 O   0  0  0  0  0  0  0  0  0  0  0  0
  -25.3360  -33.7670   25.1320 H   0  0  0  0  0  0  0  0  0  0  0  0
  -24.4050  -36.5290   23.4200 C   0  0  0  0  0  1  0  0  0  0  0  0
  -25.7130  -36.1030   24.1040 C   0  0  0  0  0  3  0  0  0  0  0  0
  -27.9000  -36.9810   24.7920 C   0  0  0  0  0  1  0  0  0  0  0  0
  -26.7290  -37.1640   23.9390 N   0  0  0  0  0  0  0  0  0  0  0  0
  -26.3300  -38.0790   24.1410 H   0  0  0  0  0  0  0  0  0  0  0  0
  -26.6580  -31.4170   25.1120 C   0  0  1  0  0  0  0  0  0  0  0  0
  -25.5610  -31.1480   26.1710 C   0  0  0  0  0  1  0  0  0  0  0  0
  -27.2120  -30.0500   24.6500 C   0  0  0  0  0  1  0  0  0  0  0  0
  -27.8290  -32.1520   25.8060 C   0  0  0  0  0  1  0  0  0  0  0  0
  1  2  1  0
  1  9  2  0
  4  8  1  0
  5 18  1  0
  5  1  1  0
  6  3  1  0
  6  2  1  0
  7  4  1  0
  7  5  1  0
  7  6  1  0
  8 48  1  0
  8  3  1  0
 10 18  1  0
 11 16  1  0
 12 13  1  0
 12 11  1  0
 14 13  1  0
 14 23  1  0
 14 15  1  0
 16 10  1  0
 16 15  1  0
 17 10  2  0
 18 19  1  0
 20 21  2  0
 21 40  1  0
 22 21  1  0
 22 25  1  0
 23 24  1  0
 23 20  1  0
 24 22  2  0
 25 26  1  0
 26 27  2  0
 28 31  1  0
 28 27  1  0
 29 28  2  0
 30 29  1  0
 30 25  2  0
 31 32  1  0
 32 37  2  0
 32 33  1  0
 33 34  2  0
 34 35  1  0
 35 39  1  0
 36 35  2  0
 37 36  1  0
 38 37  1  0
 40 41  1  0
 41 44  1  0
 41 43  1  0
 42 40  2  0
 45 20  1  0
 45 46  1  0
 47 45  1  0
 49 48  2  0
 49 50  1  0
 50 52  1  0
 51 62  2  0
 52 57  1  0
 53 61  1  0
 53 63  1  0
 54 60  1  0
 54 56  1  0
 55 61  1  0
 56 55  1  0
 57 56  2  0
 58 59  1  0
 58 52  2  0
 59 54  2  0
 60 53  1  0
 61 51  1  0
 63 65  2  0
 64 63  1  0
 66 64  1  0
 67 76  2  0
 67 72  1  0
 68 64  1  0
 68 72  1  0
 69 68  1  0
 70 71  1  0
 70 69  1  0
 71 67  1  0
 72 73  2  0
 73 74  1  0
 75 74  2  0
 76 75  1  0
 77 51  1  0
 77 78  1  0
 77 87  1  0
 78 81  1  0
 79 83  1  0
 79 78  1  0
 80 79  2  0
 83 82  1  0
 85 83  1  0
 85 86  1  0
 85 84  1  0
 87 90  1  1
 87 88  1  0
 89 87  1  0
M  ISO  4  10 100  18 100  49 101  50 101
M  END
>  <TORSDO>  (27) 
F 18

>  <SCORE>  (27) 
-13.467

>  <name>  (27) 
27

>  <ligand_id>  (27) 
27

>  <original_smiles>  (27) 
[H]c1c([H])c([H])c2c(c1[H])C([H])([H])C([H])([H])C([H])([H])C2([H])N([H])C(=O)C1([H])N(C(=O)C([H])(N([H])C(=O)C([H])(N([H])C([H])([H])[H])C([H])([H])[H])C(C([H])([H])[H])(C([H])([H])[H])C([H])([H])[H])C([H])([H])c2c([H])c(OC([H])([H])C([H])([H])C3([H])C([H])([H])C4([H])C([H])([H])C(=O)C([H])(N([H])C(=O)N5C([H])([H])C([H])([H])C([H])([H])C([H])(n6nc(-c7c([H])c([H])c(Oc8c([H])c([H])c(F)c([H])c8F)c([H])c7[H])c(C(=O)N([H])[H])c6N([H])[H])C5([H])[H])C4([H])C3([H])[H])c([H])c([H])c2C1([H])[H]

>  <smiles>  (27) 
[H]c1c([H])c([H])c2c(c1[H])C([H])([H])C([H])([H])C([H])([H])C2([H])N([H])C(=O)C1([H])N(C(=O)C([H])(N([H])C(=O)C([H])(N([H])C([H])([H])[H])C([H])([H])[H])C(C([H])([H])[H])(C([H])([H])[H])C([H])([H])[H])C([H])([H])c2c([H])c(OC([H])([H])C([H])([H])C3([H])C([H])([H])C4([H])C([H])([H])C(=O)C([H])(N([H])C(=O)N5C([H])([H])C([H])([H])C([H])([H])C([H])(n6nc(-c7c([H])c([H])c(Oc8c([H])c([H])c(F)c([H])c8F)c([H])c7[H])c(C(=O)N([H])[H])c6N([H])[H])C5([H])[H])C4([H])C3([H])[H])c([H])c([H])c2C1([H])[H]

$$$$
28:0:0
     RDKit          3D

 93102  0  0  1  0  0  0  0  0999 V2000
  -28.9540  -21.0030   21.4930 C   0  0  0  0  0  3  0  0  0  0  0  0
  -30.5500  -22.8270   21.7620 C   0  0  0  0  0  3  0  0  0  0  0  0
  -28.5110  -23.1810   20.4950 C   0  0  0  0  0  3  0  0  0  0  0  0
  -30.1810  -21.4730   21.9950 C   0  0  0  0  0  0  0  0  0  0  0  0
  -28.1060  -21.8640   20.7730 C   0  0  0  0  0  0  0  0  0  0  0  0
  -29.7240  -23.6980   21.0100 C   0  0  0  0  0  0  0  0  0  0  0  0
  -26.7150  -21.4240   20.3660 C   0  0  0  0  0  1  0  0  0  0  0  0
  -32.3270  -20.0190   22.3560 C   0  0  0  0  0  2  0  0  0  0  0  0
  -31.0400  -20.6040   22.8840 C   0  0  0  0  0  3  0  0  0  0  0  0
  -31.2450  -19.0840   22.8380 C   0  0  0  0  0  3  0  0  0  0  0  0
  -30.6490  -18.0670   21.8710 C   0  0  0  0  0  2  0  0  0  0  0  0
  -31.6020  -16.8630   21.6550 C   0  0  0  0  0  2  0  0  0  0  0  0
  -31.3870  -14.7980   20.2590 C   0  0  0  0  0  0  0  0  0  0  0  0
  -31.0160  -12.6330   19.1220 C   0  0  0  0  0  2  0  0  0  0  0  0
  -30.0450  -12.7910   17.9370 C   0  0  0  0  0  2  0  0  0  0  0  0
  -28.5860  -12.6800   18.4150 C   0  0  0  0  0  2  0  0  0  0  0  0
  -28.2820  -13.5650   19.6510 C   0  0  0  0  0  3  0  0  0  0  0  0
  -29.3600  -13.3710   20.7400 C   0  0  0  0  0  2  0  0  0  0  0  0
  -30.6740  -13.6470   20.1350 N   0  0  0  0  0  0  0  0  0  0  0  0
  -32.4240  -15.0230   19.6290 O   0  0  0  0  0  0  0  0  0  0  0  0
  -30.9000  -15.6830   21.1390 N   0  0  0  0  0  0  0  0  0  0  0  0
  -30.0100  -15.4520   21.5520 H   0  0  0  0  0  0  0  0  0  0  0  0
  -25.9400  -14.2290   20.4860 C   0  0  0  0  0  0  0  0  0  0  0  0
  -24.8470  -13.4780   20.8470 C   0  0  0  0  0  0  0  0  0  0  0  0
  -25.2440  -12.1150   20.7100 C   0  0  0  0  0  0  0  0  0  0  0  0
  -26.9340  -13.3180   20.1620 N   0  0  0  0  0  0  0  0  0  0  0  0
  -26.5180  -12.0380   20.3450 N   0  0  0  0  0  0  0  0  0  0  0  0
  -24.4700  -10.8740   20.8490 C   0  0  0  0  0  0  0  0  0  0  0  0
  -24.8500   -9.8640   21.7590 C   0  0  0  0  0  3  0  0  0  0  0  0
  -24.0770   -8.6890   21.8890 C   0  0  0  0  0  3  0  0  0  0  0  0
  -22.9120   -8.5160   21.1050 C   0  0  0  0  0  0  0  0  0  0  0  0
  -22.5490   -9.5150   20.1850 C   0  0  0  0  0  3  0  0  0  0  0  0
  -23.3220  -10.6820   20.0530 C   0  0  0  0  0  3  0  0  0  0  0  0
  -22.1170   -7.3960   21.1440 O   0  0  0  0  0  0  0  0  0  0  0  0
  -21.9430   -6.6750   22.2980 C   0  0  0  0  0  0  0  0  0  0  0  0
  -21.4040   -7.2570   23.4640 C   0  0  0  0  0  3  0  0  0  0  0  0
  -21.1780   -6.4630   24.6070 C   0  0  0  0  0  3  0  0  0  0  0  0
  -21.4810   -5.0890   24.5820 C   0  0  0  0  0  0  0  0  0  0  0  0
  -22.0150   -4.5070   23.4180 C   0  0  0  0  0  3  0  0  0  0  0  0
  -22.2420   -5.2960   22.2790 C   0  0  0  0  0  0  0  0  0  0  0  0
  -22.7360   -4.7250   21.1540 F   0  0  0  0  0  0  0  0  0  0  0  0
  -21.2580   -4.3260   25.6770 F   0  0  0  0  0  0  0  0  0  0  0  0
  -23.4880  -14.0010   21.2080 C   0  0  0  0  0  0  0  0  0  0  0  0
  -22.7760  -13.2920   22.0790 N   0  0  0  0  0  0  0  0  0  0  0  0
  -23.0660  -15.0620   20.7570 O   0  0  0  0  0  0  0  0  0  0  0  0
  -23.1320  -12.4300   22.4620 H   0  0  0  0  0  0  0  0  0  0  0  0
  -21.8640  -13.6220   22.3610 H   0  0  0  0  0  0  0  0  0  0  0  0
  -26.1660  -15.5970   20.3970 N   0  0  0  0  0  0  0  0  0  0  0  0
  -25.4490  -16.2890   20.5880 H   0  0  0  0  0  0  0  0  0  0  0  0
  -27.0280  -16.0130   20.0620 H   0  0  0  0  0  0  0  0  0  0  0  0
  -30.1190  -25.1790   20.8130 C   0  0  0  0  0  2  0  0  0  0  0  0
  -29.0200  -26.0130   20.1210 C   0  0  0  0  0  2  0  0  0  0  0  0
  -29.1310  -27.4360   20.2170 O   0  0  0  0  0  0  0  0  0  0  0  0
  -24.7350  -32.0060   23.3920 C   0  0  0  0  0  0  0  0  0  0  0  0
  -27.9140  -28.0850   20.1410 C   0  0  0  0  0  0  0  0  0  0  0  0
  -23.7430  -30.6700   21.5680 C   0  0  0  0  0  3  0  0  0  0  0  0
  -25.4010  -29.3780   20.1170 C   0  0  0  0  0  0  0  0  0  0  0  0
  -26.2440  -31.2350   21.5690 C   0  0  0  0  0  2  0  0  0  0  0  0
  -26.4770  -29.9470   20.8110 C   0  0  0  0  0  0  0  0  0  0  0  0
  -27.7380  -29.3150   20.8100 C   0  0  0  0  0  3  0  0  0  0  0  0
  -26.8180  -27.5330   19.4320 C   0  0  0  0  0  3  0  0  0  0  0  0
  -25.5640  -28.1680   19.4250 C   0  0  0  0  0  3  0  0  0  0  0  0
  -24.0850  -30.1190   20.1590 C   0  0  0  0  0  2  0  0  0  0  0  0
  -24.9210  -31.3120   22.2350 N   0  0  0  0  0  0  0  0  0  0  0  0
  -23.6050  -32.1570   23.8750 O   0  0  0  0  0  0  0  0  0  0  0  0
  -23.1190  -29.5300   22.4000 C   0  0  0  0  0  0  0  0  0  0  0  0
  -21.8130  -29.2920   22.1980 N   0  0  0  0  0  0  0  0  0  0  0  0
  -23.8010  -28.8650   23.1820 O   0  0  0  0  0  0  0  0  0  0  0  0
  -21.3230  -29.8790   21.5360 H   0  0  0  0  0  0  0  0  0  0  0  0
  -18.4780  -27.9420   22.4780 C   0  0  0  0  0  0  0  0  0  0  0  0
  -21.0270  -28.2310   22.8230 C   0  0  0  0  0  3  0  0  0  0  0  0
  -21.1880  -26.9090   22.0290 C   0  0  0  0  0  2  0  0  0  0  0  0
  -20.0970  -26.7500   20.9670 C   0  0  0  0  0  2  0  0  0  0  0  0
  -18.7140  -26.7120   21.6210 C   0  0  0  0  0  2  0  0  0  0  0  0
  -19.5660  -28.6710   23.0260 C   0  0  0  0  0  0  0  0  0  0  0  0
  -19.2950  -29.8390   23.7710 C   0  0  0  0  0  3  0  0  0  0  0  0
  -17.9680  -30.2770   23.9550 C   0  0  0  0  0  3  0  0  0  0  0  0
  -16.8950  -29.5410   23.4260 C   0  0  0  0  0  3  0  0  0  0  0  0
  -17.1510  -28.3650   22.7020 C   0  0  0  0  0  3  0  0  0  0  0  0
  -25.9290  -32.6640   24.1490 C   0  0  0  0  0  3  0  0  0  0  0  0
  -25.5570  -34.0550   24.4280 N   0  0  0  0  0  0  0  0  0  0  0  0
  -25.9180  -35.1050   23.6770 C   0  0  0  0  0  0  0  0  0  0  0  0
  -26.6700  -35.0070   22.7030 O   0  0  0  0  0  0  0  0  0  0  0  0
  -24.8910  -34.2040   25.1710 H   0  0  0  0  0  0  0  0  0  0  0  0
  -24.1580  -36.8240   23.1720 C   0  0  0  0  0  1  0  0  0  0  0  0
  -25.3580  -36.4840   24.0680 C   0  0  0  0  0  3  0  0  0  0  0  0
  -27.4000  -37.4630   25.0170 C   0  0  0  0  0  1  0  0  0  0  0  0
  -26.3610  -37.5680   23.9930 N   0  0  0  0  0  0  0  0  0  0  0  0
  -25.9170  -38.4770   24.0870 H   0  0  0  0  0  0  0  0  0  0  0  0
  -26.3140  -31.9060   25.4780 C   0  0  1  0  0  0  0  0  0  0  0  0
  -25.0940  -31.5820   26.3710 C   0  0  0  0  0  1  0  0  0  0  0  0
  -27.0410  -30.5760   25.1680 C   0  0  0  0  0  1  0  0  0  0  0  0
  -27.3030  -32.7660   26.2980 C   0  0  0  0  0  1  0  0  0  0  0  0
  1  4  1  0
  2  4  2  0
  3  5  1  0
  3  6  2  0
  5  1  2  0
  6  2  1  0
  7  5  1  0
  8 10  1  0
  8  9  1  0
  9  4  1  0
 10 11  1  0
 10  9  1  0
 12 11  1  0
 13 21  1  0
 14 19  1  0
 15 16  1  0
 15 14  1  0
 17 16  1  0
 17 26  1  0
 17 18  1  0
 19 13  1  0
 19 18  1  0
 20 13  2  0
 21 22  1  0
 21 12  1  0
 23 24  2  0
 24 43  1  0
 25 24  1  0
 25 28  1  0
 26 27  1  0
 26 23  1  0
 27 25  2  0
 28 29  1  0
 29 30  2  0
 31 34  1  0
 31 30  1  0
 32 31  2  0
 33 32  1  0
 33 28  2  0
 34 35  1  0
 35 36  1  0
 36 37  2  0
 38 37  1  0
 38 42  1  0
 39 38  2  0
 40 35  2  0
 40 39  1  0
 41 40  1  0
 43 44  1  0
 44 47  1  0
 44 46  1  0
 45 43  2  0
 48 23  1  0
 48 49  1  0
 50 48  1  0
 51  6  1  0
 52 53  1  0
 52 51  1  0
 54 65  2  0
 55 53  1  0
 55 60  1  0
 56 64  1  0
 56 66  1  0
 57 63  1  0
 57 59  1  0
 58 64  1  0
 59 58  1  0
 60 59  2  0
 61 55  2  0
 62 61  1  0
 62 57  2  0
 63 56  1  0
 64 54  1  0
 66 68  2  0
 67 66  1  0
 69 67  1  0
 70 79  2  0
 70 75  1  0
 71 67  1  0
 71 75  1  0
 72 71  1  0
 73 74  1  0
 73 72  1  0
 74 70  1  0
 75 76  2  0
 76 77  1  0
 78 77  2  0
 79 78  1  0
 80 54  1  0
 80 81  1  0
 80 90  1  0
 81 84  1  0
 82 86  1  0
 82 81  1  0
 83 82  2  0
 86 85  1  0
 88 86  1  0
 88 89  1  0
 88 87  1  0
 90 93  1  1
 90 91  1  0
 92 90  1  0
M  ISO  4  13 100  21 100  52 101  53 101
M  END
>  <TORSDO>  (28) 
F 21

>  <SCORE>  (28) 
-11.000

>  <name>  (28) 
28

>  <ligand_id>  (28) 
28

>  <original_smiles>  (28) 
[H]c1c([H])c([H])c2c(c1[H])C([H])([H])C([H])([H])C([H])([H])C2([H])N([H])C(=O)C1([H])N(C(=O)C([H])(N([H])C(=O)C([H])(N([H])C([H])([H])[H])C([H])([H])[H])C(C([H])([H])[H])(C([H])([H])[H])C([H])([H])[H])C([H])([H])c2c([H])c(OC([H])([H])C([H])([H])c3c([H])c(C([H])([H])[H])c([H])c(C4([H])C([H])([H])C4([H])C([H])([H])C([H])([H])N([H])C(=O)N4C([H])([H])C([H])([H])C([H])([H])C([H])(n5nc(-c6c([H])c([H])c(Oc7c([H])c([H])c(F)c([H])c7F)c([H])c6[H])c(C(=O)N([H])[H])c5N([H])[H])C4([H])[H])c3[H])c([H])c([H])c2C1([H])[H]

>  <smiles>  (28) 
[H]c1c([H])c([H])c2c(c1[H])C([H])([H])C([H])([H])C([H])([H])C2([H])N([H])C(=O)C1([H])N(C(=O)C([H])(N([H])C(=O)C([H])(N([H])C([H])([H])[H])C([H])([H])[H])C(C([H])([H])[H])(C([H])([H])[H])C([H])([H])[H])C([H])([H])c2c([H])c(OC([H])([H])C([H])([H])c3c([H])c(C([H])([H])[H])c([H])c(C4([H])C([H])([H])C4([H])C([H])([H])C([H])([H])N([H])C(=O)N4C([H])([H])C([H])([H])C([H])([H])C([H])(n5nc(-c6c([H])c([H])c(Oc7c([H])c([H])c(F)c([H])c7F)c([H])c6[H])c(C(=O)N([H])[H])c5N([H])[H])C4([H])[H])c3[H])c([H])c([H])c2C1([H])[H]

$$$$
29:0:0
     RDKit          3D

 94103  0  0  1  0  0  0  0  0999 V2000
  -30.2310  -22.0620   19.6450 C   0  0  0  0  0  3  0  0  0  0  0  0
  -29.8770  -20.7010   19.8410 C   0  0  0  0  0  3  0  0  0  0  0  0
  -27.8430  -21.4050   20.9610 C   0  0  0  0  0  3  0  0  0  0  0  0
  -29.3900  -23.1080   20.1040 C   0  0  0  0  0  0  0  0  0  0  0  0
  -28.1740  -22.7560   20.7530 C   0  0  0  0  0  0  0  0  0  0  0  0
  -28.6840  -20.3670   20.5230 C   0  0  0  0  0  0  0  0  0  0  0  0
  -29.7570  -24.5640   19.9350 C   0  0  0  0  0  0  0  0  0  0  0  0
  -27.1830  -23.7960   21.2540 C   0  0  0  0  0  2  0  0  0  0  0  0
  -27.8160  -25.1670   21.4230 C   0  0  0  0  0  2  0  0  0  0  0  0
  -28.5560  -25.5120   20.1240 C   0  0  0  0  0  3  0  0  0  0  0  0
  -30.8800  -24.9850   19.6320 O   0  0  0  0  0  0  0  0  0  0  0  0
  -28.8300  -26.9210   20.0520 O   0  0  0  0  0  0  0  0  0  0  0  0
  -24.7190  -31.7340   23.3240 C   0  0  0  0  0  0  0  0  0  0  0  0
  -27.6550  -27.6510   20.0130 C   0  0  0  0  0  0  0  0  0  0  0  0
  -23.6240  -30.4040   21.5520 C   0  0  0  0  0  3  0  0  0  0  0  0
  -25.1860  -29.0310   20.0850 C   0  0  0  0  0  0  0  0  0  0  0  0
  -26.1400  -30.8740   21.4680 C   0  0  0  0  0  2  0  0  0  0  0  0
  -26.3070  -29.5580   20.7400 C   0  0  0  0  0  0  0  0  0  0  0  0
  -27.5430  -28.8740   20.7100 C   0  0  0  0  0  3  0  0  0  0  0  0
  -26.5160  -27.1490   19.3350 C   0  0  0  0  0  3  0  0  0  0  0  0
  -25.2840  -27.8180   19.3890 C   0  0  0  0  0  3  0  0  0  0  0  0
  -23.9060  -29.8280   20.1420 C   0  0  0  0  0  2  0  0  0  0  0  0
  -24.8450  -31.0120   22.1750 N   0  0  0  0  0  0  0  0  0  0  0  0
  -23.6090  -31.9300   23.8400 O   0  0  0  0  0  0  0  0  0  0  0  0
  -22.9790  -29.2950   22.4140 C   0  0  0  0  0  0  0  0  0  0  0  0
  -21.6640  -29.0880   22.2410 N   0  0  0  0  0  0  0  0  0  0  0  0
  -23.6630  -28.6260   23.1940 O   0  0  0  0  0  0  0  0  0  0  0  0
  -21.1710  -29.6830   21.5910 H   0  0  0  0  0  0  0  0  0  0  0  0
  -18.3140  -27.7710   22.5410 C   0  0  0  0  0  0  0  0  0  0  0  0
  -20.8540  -28.0790   22.9260 C   0  0  0  0  0  3  0  0  0  0  0  0
  -21.0140  -26.6890   22.2640 C   0  0  0  0  0  2  0  0  0  0  0  0
  -19.9630  -26.4150   21.1820 C   0  0  0  0  0  2  0  0  0  0  0  0
  -18.5530  -26.4810   21.7750 C   0  0  0  0  0  2  0  0  0  0  0  0
  -19.3960  -28.5310   23.0670 C   0  0  0  0  0  0  0  0  0  0  0  0
  -19.1210  -29.7430   23.7350 C   0  0  0  0  0  3  0  0  0  0  0  0
  -17.7990  -30.1960   23.8910 C   0  0  0  0  0  3  0  0  0  0  0  0
  -16.7330  -29.4300   23.3890 C   0  0  0  0  0  3  0  0  0  0  0  0
  -16.9900  -28.2200   22.7210 C   0  0  0  0  0  3  0  0  0  0  0  0
  -25.9570  -32.3670   24.0320 C   0  0  0  0  0  3  0  0  0  0  0  0
  -26.4130  -31.5680   25.3120 C   0  0  1  0  0  0  0  0  0  0  0  0
  -25.2660  -31.2830   26.3080 C   0  0  0  0  0  1  0  0  0  0  0  0
  -27.0440  -30.2130   24.9130 C   0  0  0  0  0  1  0  0  0  0  0  0
  -27.5070  -32.3650   26.0620 C   0  0  0  0  0  1  0  0  0  0  0  0
  -25.6070  -33.7500   24.3760 N   0  0  0  0  0  0  0  0  0  0  0  0
  -25.9820  -34.8270   23.6700 C   0  0  0  0  0  0  0  0  0  0  0  0
  -26.7330  -34.7600   22.6920 O   0  0  0  0  0  0  0  0  0  0  0  0
  -24.9450  -33.8760   25.1280 H   0  0  0  0  0  0  0  0  0  0  0  0
  -24.2680  -36.6140   23.2260 C   0  0  0  0  0  1  0  0  0  0  0  0
  -25.4430  -36.1950   24.1260 C   0  0  0  0  0  3  0  0  0  0  0  0
  -27.4920  -37.0750   25.1510 C   0  0  0  0  0  1  0  0  0  0  0  0
  -26.4690  -37.2630   24.1260 N   0  0  0  0  0  0  0  0  0  0  0  0
  -26.0410  -38.1750   24.2710 H   0  0  0  0  0  0  0  0  0  0  0  0
  -28.2160  -18.9410   20.8350 C   0  0  0  0  0  2  0  0  0  0  0  0
  -29.0110  -17.7340   20.2790 C   0  0  0  0  0  2  0  0  0  0  0  0
  -30.3830  -17.5230   20.9420 C   0  0  0  0  0  2  0  0  0  0  0  0
  -31.2530  -16.4000   20.3290 C   0  0  0  0  0  2  0  0  0  0  0  0
  -31.3120  -13.9410   19.9110 C   0  0  0  0  0  0  0  0  0  0  0  0
  -30.9830  -11.5760   19.2420 C   0  0  0  0  0  2  0  0  0  0  0  0
  -30.0360  -11.4780   18.0260 C   0  0  0  0  0  2  0  0  0  0  0  0
  -28.5560  -11.5160   18.4570 C   0  0  0  0  0  2  0  0  0  0  0  0
  -28.2600  -12.6570   19.4730 C   0  0  0  0  0  3  0  0  0  0  0  0
  -29.2890  -12.6240   20.6200 C   0  0  0  0  0  2  0  0  0  0  0  0
  -30.6200  -12.7740   20.0220 N   0  0  0  0  0  0  0  0  0  0  0  0
  -32.3820  -14.0160   19.2960 O   0  0  0  0  0  0  0  0  0  0  0  0
  -30.7240  -15.0320   20.4550 N   0  0  0  0  0  0  0  0  0  0  0  0
  -29.8470  -14.9020   20.9430 H   0  0  0  0  0  0  0  0  0  0  0  0
  -25.9860  -13.5980   20.2300 C   0  0  0  0  0  0  0  0  0  0  0  0
  -24.8340  -12.9850   20.6370 C   0  0  0  0  0  0  0  0  0  0  0  0
  -25.1020  -11.5810   20.5980 C   0  0  0  0  0  0  0  0  0  0  0  0
  -26.8950  -12.5800   19.9790 N   0  0  0  0  0  0  0  0  0  0  0  0
  -26.3650  -11.3630   20.2560 N   0  0  0  0  0  0  0  0  0  0  0  0
  -24.2180  -10.4300   20.8070 C   0  0  0  0  0  0  0  0  0  0  0  0
  -24.5050   -9.4380   21.7720 C   0  0  0  0  0  3  0  0  0  0  0  0
  -23.6230   -8.3520   21.9630 C   0  0  0  0  0  3  0  0  0  0  0  0
  -22.4430   -8.2500   21.1890 C   0  0  0  0  0  0  0  0  0  0  0  0
  -22.1760   -9.2280   20.2110 C   0  0  0  0  0  3  0  0  0  0  0  0
  -23.0580  -10.3040   20.0200 C   0  0  0  0  0  3  0  0  0  0  0  0
  -21.5400   -7.2210   21.2930 O   0  0  0  0  0  0  0  0  0  0  0  0
  -21.3310   -6.5570   22.4770 C   0  0  0  0  0  0  0  0  0  0  0  0
  -20.8950   -7.2290   23.6400 C   0  0  0  0  0  3  0  0  0  0  0  0
  -20.6300   -6.4970   24.8150 C   0  0  0  0  0  3  0  0  0  0  0  0
  -20.7920   -5.0990   24.8280 C   0  0  0  0  0  0  0  0  0  0  0  0
  -21.2220   -4.4290   23.6690 C   0  0  0  0  0  3  0  0  0  0  0  0
  -21.4890   -5.1570   22.4960 C   0  0  0  0  0  0  0  0  0  0  0  0
  -21.8820   -4.5030   21.3760 F   0  0  0  0  0  0  0  0  0  0  0  0
  -20.5300   -4.3970   25.9530 F   0  0  0  0  0  0  0  0  0  0  0  0
  -23.5260  -13.6490   20.9620 C   0  0  0  0  0  0  0  0  0  0  0  0
  -22.7480  -13.0630   21.8630 N   0  0  0  0  0  0  0  0  0  0  0  0
  -23.2150  -14.7240   20.4480 O   0  0  0  0  0  0  0  0  0  0  0  0
  -23.0150  -12.1910   22.2940 H   0  0  0  0  0  0  0  0  0  0  0  0
  -21.8710  -13.4860   22.1300 H   0  0  0  0  0  0  0  0  0  0  0  0
  -26.3320  -14.9320   20.0370 N   0  0  0  0  0  0  0  0  0  0  0  0
  -25.6350  -15.6700   20.0970 H   0  0  0  0  0  0  0  0  0  0  0  0
  -27.2140  -15.2470   19.6540 H   0  0  0  0  0  0  0  0  0  0  0  0
  1  2  2  0
  1  4  1  0
  2  6  1  0
  4  5  2  0
  5  3  1  0
  5  8  1  0
  6 53  1  0
  6  3  2  0
  7  4  1  0
  7 10  1  0
  8  9  1  0
 10 12  1  0
 10  9  1  0
 11  7  2  0
 13 24  2  0
 14 12  1  0
 14 19  1  0
 15 23  1  0
 15 25  1  0
 16 22  1  0
 16 18  1  0
 17 23  1  0
 18 17  1  0
 19 18  2  0
 20 21  1  0
 20 14  2  0
 21 16  2  0
 22 15  1  0
 23 13  1  0
 25 27  2  0
 26 25  1  0
 28 26  1  0
 29 38  2  0
 29 34  1  0
 30 26  1  0
 30 34  1  0
 31 30  1  0
 32 33  1  0
 32 31  1  0
 33 29  1  0
 34 35  2  0
 35 36  1  0
 37 36  2  0
 38 37  1  0
 39 13  1  0
 39 44  1  0
 39 40  1  0
 40 43  1  1
 40 41  1  0
 42 40  1  0
 44 47  1  0
 45 49  1  0
 45 44  1  0
 46 45  2  0
 49 48  1  0
 49 51  1  0
 51 52  1  0
 51 50  1  0
 54 53  1  0
 54 55  1  0
 56 65  1  0
 56 55  1  0
 57 63  1  0
 57 65  1  0
 58 63  1  0
 59 60  1  0
 59 58  1  0
 61 60  1  0
 61 70  1  0
 61 62  1  0
 63 62  1  0
 64 57  2  0
 65 66  1  0
 67 68  2  0
 68 87  1  0
 69 68  1  0
 69 72  1  0
 70 67  1  0
 70 71  1  0
 71 69  2  0
 72 73  1  0
 73 74  2  0
 75 78  1  0
 75 74  1  0
 76 75  2  0
 77 76  1  0
 77 72  2  0
 78 79  1  0
 79 84  2  0
 79 80  1  0
 80 81  2  0
 81 82  1  0
 82 86  1  0
 83 82  2  0
 84 83  1  0
 85 84  1  0
 87 88  1  0
 88 91  1  0
 88 90  1  0
 89 87  2  0
 92 93  1  0
 92 67  1  0
 94 92  1  0
M  ISO  4  10 101  12 101  57 100  65 100
M  END
>  <TORSDO>  (29) 
F 20

>  <SCORE>  (29) 
-12.517

>  <name>  (29) 
29

>  <ligand_id>  (29) 
29

>  <original_smiles>  (29) 
[H]c1c([H])c([H])c2c(c1[H])C([H])([H])C([H])([H])C([H])([H])C2([H])N([H])C(=O)C1([H])N(C(=O)C([H])(N([H])C(=O)C([H])(N([H])C([H])([H])[H])C([H])([H])[H])C(C([H])([H])[H])(C([H])([H])[H])C([H])([H])[H])C([H])([H])c2c([H])c(OC3([H])C(=O)c4c([H])c([H])c(C([H])([H])C([H])([H])C([H])([H])C([H])([H])N([H])C(=O)N5C([H])([H])C([H])([H])C([H])([H])C([H])(n6nc(-c7c([H])c([H])c(Oc8c([H])c([H])c(F)c([H])c8F)c([H])c7[H])c(C(=O)N([H])[H])c6N([H])[H])C5([H])[H])c([H])c4C([H])([H])C3([H])[H])c([H])c([H])c2C1([H])[H]

>  <smiles>  (29) 
[H]c1c([H])c([H])c2c(c1[H])C([H])([H])C([H])([H])C([H])([H])C2([H])N([H])C(=O)C1([H])N(C(=O)C([H])(N([H])C(=O)C([H])(N([H])C([H])([H])[H])C([H])([H])[H])C(C([H])([H])[H])(C([H])([H])[H])C([H])([H])[H])C([H])([H])c2c([H])c(OC3([H])C(=O)c4c([H])c([H])c(C([H])([H])C([H])([H])C([H])([H])C([H])([H])N([H])C(=O)N5C([H])([H])C([H])([H])C([H])([H])C([H])(n6nc(-c7c([H])c([H])c(Oc8c([H])c([H])c(F)c([H])c8F)c([H])c7[H])c(C(=O)N([H])[H])c6N([H])[H])C5([H])[H])c([H])c4C([H])([H])C3([H])[H])c([H])c([H])c2C1([H])[H]

$$$$
30:0:0
     RDKit          3D

 97105  0  0  1  0  0  0  0  0999 V2000
  -30.2980  -20.8400   17.6840 C   0  0  0  0  0  2  0  0  0  0  0  0
  -29.2860  -22.0150   17.8270 C   0  0  0  0  0  2  0  0  0  0  0  0
  -31.2000  -21.2390   19.9160 C   0  0  0  0  0  2  0  0  0  0  0  0
  -30.6170  -20.1200   19.0170 C   0  0  0  0  0  3  0  0  0  0  0  0
  -29.5180  -23.0560   18.9740 C   0  0  0  0  0  3  0  0  0  0  0  0
  -30.1720  -22.3820   20.2750 C   0  0  1  0  0  0  0  0  0  0  0  0
  -31.4720  -18.7950   18.8420 C   0  0  0  0  0  2  0  0  0  0  0  0
  -31.6910  -17.8520   20.0860 C   0  0  0  0  0  2  0  0  0  0  0  0
  -32.0710  -15.3100   19.6830 C   0  0  0  0  0  0  0  0  0  0  0  0
  -31.7350  -12.9860   18.8800 C   0  0  0  0  0  2  0  0  0  0  0  0
  -30.7210  -13.0050   17.7160 C   0  0  0  0  0  2  0  0  0  0  0  0
  -29.2710  -12.9490   18.2420 C   0  0  0  0  0  2  0  0  0  0  0  0
  -29.0090  -13.9670   19.3840 C   0  0  0  0  0  3  0  0  0  0  0  0
  -30.1250  -13.8990   20.4500 C   0  0  0  0  0  2  0  0  0  0  0  0
  -31.4080  -14.1190   19.7630 N   0  0  0  0  0  0  0  0  0  0  0  0
  -33.2190  -15.3990   19.2390 O   0  0  0  0  0  0  0  0  0  0  0  0
  -31.3220  -16.4100   19.9580 N   0  0  0  0  0  0  0  0  0  0  0  0
  -30.3770  -16.1920   20.2340 H   0  0  0  0  0  0  0  0  0  0  0  0
  -26.7770  -14.7550   20.3870 C   0  0  0  0  0  0  0  0  0  0  0  0
  -25.6590  -14.0720   20.7800 C   0  0  0  0  0  0  0  0  0  0  0  0
  -25.9480  -12.6890   20.5740 C   0  0  0  0  0  0  0  0  0  0  0  0
  -27.6820  -13.7930   19.9690 N   0  0  0  0  0  0  0  0  0  0  0  0
  -27.1920  -12.5380   20.1400 N   0  0  0  0  0  0  0  0  0  0  0  0
  -25.0930  -11.5020   20.7090 C   0  0  0  0  0  0  0  0  0  0  0  0
  -25.4060  -10.4650   21.6140 C   0  0  0  0  0  3  0  0  0  0  0  0
  -24.5570   -9.3430   21.7390 C   0  0  0  0  0  3  0  0  0  0  0  0
  -23.3820   -9.2520   20.9560 C   0  0  0  0  0  0  0  0  0  0  0  0
  -23.0880  -10.2760   20.0390 C   0  0  0  0  0  3  0  0  0  0  0  0
  -23.9350  -11.3890   19.9130 C   0  0  0  0  0  3  0  0  0  0  0  0
  -22.5140   -8.1870   20.9920 O   0  0  0  0  0  0  0  0  0  0  0  0
  -22.2100   -7.5450   22.1650 C   0  0  0  0  0  0  0  0  0  0  0  0
  -21.5910   -8.2150   23.2430 C   0  0  0  0  0  3  0  0  0  0  0  0
  -21.2330   -7.5010   24.4040 C   0  0  0  0  0  3  0  0  0  0  0  0
  -21.4840   -6.1180   24.4850 C   0  0  0  0  0  0  0  0  0  0  0  0
  -22.0960   -5.4480   23.4120 C   0  0  0  0  0  3  0  0  0  0  0  0
  -22.4550   -6.1600   22.2530 C   0  0  0  0  0  0  0  0  0  0  0  0
  -23.0240   -5.5060   21.2120 F   0  0  0  0  0  0  0  0  0  0  0  0
  -21.1340   -5.4300   25.5970 F   0  0  0  0  0  0  0  0  0  0  0  0
  -24.3570  -14.6700   21.2320 C   0  0  0  0  0  0  0  0  0  0  0  0
  -23.6300  -13.9730   22.0980 N   0  0  0  0  0  0  0  0  0  0  0  0
  -23.9990  -15.7840   20.8510 O   0  0  0  0  0  0  0  0  0  0  0  0
  -23.9330  -13.0670   22.4240 H   0  0  0  0  0  0  0  0  0  0  0  0
  -22.7580  -14.3510   22.4420 H   0  0  0  0  0  0  0  0  0  0  0  0
  -27.0910  -16.1100   20.3270 N   0  0  0  0  0  0  0  0  0  0  0  0
  -26.4210  -16.8310   20.5700 H   0  0  0  0  0  0  0  0  0  0  0  0
  -27.9490  -16.4850   19.9410 H   0  0  0  0  0  0  0  0  0  0  0  0
  -29.8940  -24.5370   18.4810 C   0  0  0  0  0  2  0  0  0  0  0  0
  -28.6520  -25.4660   18.1720 C   0  0  0  0  0  2  0  0  0  0  0  0
  -28.6650  -26.8990   18.5140 O   0  0  0  0  0  0  0  0  0  0  0  0
  -24.3970  -30.6890   22.9000 C   0  0  0  0  0  0  0  0  0  0  0  0
  -27.4130  -27.4990   18.7190 C   0  0  0  0  0  0  0  0  0  0  0  0
  -23.2840  -29.4470   21.0800 C   0  0  0  0  0  3  0  0  0  0  0  0
  -24.8130  -28.5560   19.2410 C   0  0  0  0  0  0  0  0  0  0  0  0
  -25.6860  -30.3030   20.7910 C   0  0  0  0  0  2  0  0  0  0  0  0
  -25.9350  -29.1370   19.8470 C   0  0  0  0  0  0  0  0  0  0  0  0
  -27.2350  -28.6210   19.5820 C   0  0  0  0  0  3  0  0  0  0  0  0
  -26.2550  -26.9790   18.0910 C   0  0  0  0  0  3  0  0  0  0  0  0
  -24.9720  -27.4830   18.3560 C   0  0  0  0  0  3  0  0  0  0  0  0
  -23.4540  -29.1310   19.5730 C   0  0  0  0  0  2  0  0  0  0  0  0
  -24.4780  -30.1530   21.6480 N   0  0  0  0  0  0  0  0  0  0  0  0
  -23.3500  -30.6320   23.5590 O   0  0  0  0  0  0  0  0  0  0  0  0
  -22.9290  -28.1420   21.8320 C   0  0  0  0  0  0  0  0  0  0  0  0
  -21.6830  -27.6690   21.6640 N   0  0  0  0  0  0  0  0  0  0  0  0
  -23.7700  -27.5640   22.5250 O   0  0  0  0  0  0  0  0  0  0  0  0
  -21.0480  -28.2030   21.0860 H   0  0  0  0  0  0  0  0  0  0  0  0
  -18.7350  -25.5840   21.8580 C   0  0  0  0  0  0  0  0  0  0  0  0
  -21.1430  -26.4390   22.2460 C   0  0  0  0  0  3  0  0  0  0  0  0
  -21.6040  -25.1990   21.4450 C   0  0  0  0  0  2  0  0  0  0  0  0
  -20.6090  -24.7790   20.3590 C   0  0  0  0  0  2  0  0  0  0  0  0
  -19.2440  -24.4550   20.9760 C   0  0  0  0  0  2  0  0  0  0  0  0
  -19.6260  -26.5240   22.4410 C   0  0  0  0  0  0  0  0  0  0  0  0
  -19.0980  -27.5720   23.2260 C   0  0  0  0  0  3  0  0  0  0  0  0
  -17.7110  -27.6900   23.4320 C   0  0  0  0  0  3  0  0  0  0  0  0
  -16.8350  -26.7460   22.8680 C   0  0  0  0  0  3  0  0  0  0  0  0
  -17.3470  -25.6950   22.0860 C   0  0  0  0  0  3  0  0  0  0  0  0
  -25.6100  -31.4230   23.5510 C   0  0  0  0  0  3  0  0  0  0  0  0
  -26.2250  -30.6370   24.7740 C   0  0  1  0  0  0  0  0  0  0  0  0
  -25.1790  -30.2160   25.8310 C   0  0  0  0  0  1  0  0  0  0  0  0
  -26.9510  -29.3600   24.2940 C   0  0  0  0  0  1  0  0  0  0  0  0
  -27.2930  -31.5110   25.4750 C   0  0  0  0  0  1  0  0  0  0  0  0
  -25.1490  -32.7540   23.9700 N   0  0  0  0  0  0  0  0  0  0  0  0
  -25.3660  -33.8850   23.2840 C   0  0  0  0  0  0  0  0  0  0  0  0
  -26.0430  -33.9230   22.2540 O   0  0  0  0  0  0  0  0  0  0  0  0
  -24.5430  -32.7900   24.7760 H   0  0  0  0  0  0  0  0  0  0  0  0
  -23.4500  -35.4950   23.0370 C   0  0  0  0  0  1  0  0  0  0  0  0
  -24.7290  -35.1780   23.8290 C   0  0  0  0  0  3  0  0  0  0  0  0
  -26.7470  -36.2410   24.7370 C   0  0  0  0  0  1  0  0  0  0  0  0
  -25.6400  -36.3430   23.7900 N   0  0  0  0  0  0  0  0  0  0  0  0
  -25.1340  -37.2030   23.9840 H   0  0  0  0  0  0  0  0  0  0  0  0
  -28.9650  -21.7900   21.0960 C   0  0  0  0  0  2  0  0  0  0  0  0
  -27.3500  -19.8180   21.1530 C   0  0  0  0  0  1  0  0  0  0  0  0
  -28.8160  -20.2590   21.2490 C   0  0  0  0  0  2  0  0  0  0  0  0
  -30.8950  -23.4730   21.1250 C   0  0  0  0  0  2  0  0  0  0  0  0
  -31.7120  -22.9570   22.2380 N   0  0  0  0  0  4  0  0  0  0  0  0
  -32.0990  -23.7240   22.7590 H   0  0  0  0  0  0  0  0  0  0  0  0
  -32.4740  -22.4010   21.8950 H   0  0  0  0  0  0  0  0  0  0  0  0
  -31.1530  -22.4040   22.8620 H   0  0  0  0  0  0  0  0  0  0  0  0
  1  2  1  0
  1  4  1  0
  2  5  1  0
  3  6  1  0
  4  7  1  0
  4  3  1  0
  5 47  1  0
  5  6  1  0
  6 90  1  1
  6 93  1  0
  7  8  1  0
  9 15  1  0
  9 17  1  0
 10 15  1  0
 11 12  1  0
 11 10  1  0
 13 12  1  0
 13 22  1  0
 13 14  1  0
 15 14  1  0
 16  9  2  0
 17  8  1  0
 17 18  1  0
 19 20  2  0
 20 39  1  0
 21 24  1  0
 21 20  1  0
 22 23  1  0
 22 19  1  0
 23 21  2  0
 24 25  1  0
 25 26  2  0
 27 30  1  0
 27 26  1  0
 28 27  2  0
 29 28  1  0
 29 24  2  0
 30 31  1  0
 31 36  2  0
 31 32  1  0
 32 33  2  0
 33 34  1  0
 34 38  1  0
 35 34  2  0
 36 35  1  0
 37 36  1  0
 39 40  1  0
 40 42  1  0
 40 43  1  0
 41 39  2  0
 44 19  1  0
 44 45  1  0
 46 44  1  0
 48 47  1  0
 48 49  1  0
 49 51  1  0
 50 61  2  0
 51 56  1  0
 52 60  1  0
 52 62  1  0
 53 59  1  0
 53 55  1  0
 54 60  1  0
 55 54  1  0
 56 55  2  0
 57 58  1  0
 57 51  2  0
 58 53  2  0
 59 52  1  0
 60 50  1  0
 62 64  2  0
 63 62  1  0
 65 63  1  0
 66 75  2  0
 66 71  1  0
 67 63  1  0
 67 71  1  0
 68 67  1  0
 69 70  1  0
 69 68  1  0
 70 66  1  0
 71 72  2  0
 72 73  1  0
 74 73  2  0
 75 74  1  0
 76 50  1  0
 76 81  1  0
 76 77  1  0
 77 80  1  1
 77 78  1  0
 79 77  1  0
 81 84  1  0
 82 86  1  0
 82 81  1  0
 83 82  2  0
 86 85  1  0
 88 86  1  0
 88 89  1  0
 88 87  1  0
 90 92  1  0
 91 92  1  0
 93 94  1  0
 94 95  1  0
 94 97  1  0
 96 94  1  0
M  ISO  4   9 100  17 100  48 101  49 101
M  END
>  <TORSDO>  (30) 
F 24

>  <SCORE>  (30) 
-5.335

>  <name>  (30) 
30

>  <ligand_id>  (30) 
30

>  <original_smiles>  (30) 
[H]c1c([H])c([H])c2c(c1[H])C([H])([H])C([H])([H])C([H])([H])C2([H])N([H])C(=O)C1([H])N(C(=O)C([H])(N([H])C(=O)C([H])(N([H])C([H])([H])[H])C([H])([H])[H])C(C([H])([H])[H])(C([H])([H])[H])C([H])([H])[H])C([H])([H])c2c([H])c(OC([H])([H])C([H])([H])C3([H])C([H])([H])C([H])([H])C([H])(C([H])([H])C([H])([H])N([H])C(=O)N4C([H])([H])C([H])([H])C([H])([H])C([H])(n5nc(-c6c([H])c([H])c(Oc7c([H])c([H])c(F)c([H])c7F)c([H])c6[H])c(C(=O)N([H])[H])c5N([H])[H])C4([H])[H])C([H])([H])C3(C([H])([H])C([H])([H])C([H])([H])[H])C([H])([H])[N+]([H])([H])[H])c([H])c([H])c2C1([H])[H]

>  <smiles>  (30) 
[H]c1c([H])c([H])c2c(c1[H])C([H])([H])C([H])([H])C([H])([H])C2([H])N([H])C(=O)C1([H])N(C(=O)C([H])(N([H])C(=O)C([H])(N([H])C([H])([H])[H])C([H])([H])[H])C(C([H])([H])[H])(C([H])([H])[H])C([H])([H])[H])C([H])([H])c2c([H])c(OC([H])([H])C([H])([H])C3([H])C([H])([H])C([H])([H])C([H])(C([H])([H])C([H])([H])N([H])C(=O)N4C([H])([H])C([H])([H])C([H])([H])C([H])(n5nc(-c6c([H])c([H])c(Oc7c([H])c([H])c(F)c([H])c7F)c([H])c6[H])c(C(=O)N([H])[H])c5N([H])[H])C4([H])[H])C([H])([H])C3(C([H])([H])C([H])([H])C([H])([H])[H])C([H])([H])[N+]([H])([H])[H])c([H])c([H])c2C1([H])[H]

$$$$
31:0:0
     RDKit          3D

 95104  0  0  1  0  0  0  0  0999 V2000
  -29.5770  -22.0600   20.1160 C   0  0  0  0  0  3  0  0  0  0  0  0
  -29.5200  -23.3970   20.5650 C   0  0  0  0  0  3  0  0  0  0  0  0
  -27.2320  -23.5530   19.7850 C   0  0  0  0  0  3  0  0  0  0  0  0
  -28.4620  -21.4500   19.4980 C   0  0  0  0  0  0  0  0  0  0  0  0
  -28.3350  -24.1550   20.4310 C   0  0  0  0  0  0  0  0  0  0  0  0
  -27.2880  -22.2240   19.3080 C   0  0  0  0  0  0  0  0  0  0  0  0
  -26.0660  -21.6510   18.6080 C   0  0  0  0  0  1  0  0  0  0  0  0
  -27.8630  -18.9340   19.9970 C   0  0  0  0  0  2  0  0  0  0  0  0
  -29.7700  -19.1050   19.0340 C   0  0  0  0  0  2  0  0  0  0  0  0
  -28.5010  -19.9770   19.0680 C   0  0  0  0  0  3  0  0  0  0  0  0
  -29.1130  -18.0470   19.9380 C   0  0  0  0  0  3  0  0  0  0  0  0
  -29.7980  -17.6660   21.2540 C   0  0  0  0  0  2  0  0  0  0  0  0
  -30.9300  -16.6380   21.0930 C   0  0  0  0  0  2  0  0  0  0  0  0
  -30.9520  -14.3290   20.1570 C   0  0  0  0  0  0  0  0  0  0  0  0
  -30.5120  -12.1930   19.0090 C   0  0  0  0  0  2  0  0  0  0  0  0
  -29.5290  -12.4230   17.8470 C   0  0  0  0  0  2  0  0  0  0  0  0
  -28.0710  -12.3330   18.3450 C   0  0  0  0  0  2  0  0  0  0  0  0
  -27.8130  -13.1970   19.6070 C   0  0  0  0  0  3  0  0  0  0  0  0
  -28.9050  -12.9480   20.6710 C   0  0  0  0  0  2  0  0  0  0  0  0
  -30.2210  -13.1900   20.0500 N   0  0  0  0  0  0  0  0  0  0  0  0
  -32.0150  -14.5150   19.5560 O   0  0  0  0  0  0  0  0  0  0  0  0
  -30.4010  -15.2890   20.9080 N   0  0  0  0  0  0  0  0  0  0  0  0
  -29.5230  -15.0700   21.3500 H   0  0  0  0  0  0  0  0  0  0  0  0
  -25.4810  -13.8900   20.4550 C   0  0  0  0  0  0  0  0  0  0  0  0
  -24.3990  -13.1540   20.8550 C   0  0  0  0  0  0  0  0  0  0  0  0
  -24.7950  -11.7830   20.7600 C   0  0  0  0  0  0  0  0  0  0  0  0
  -26.4720  -12.9720   20.1420 N   0  0  0  0  0  0  0  0  0  0  0  0
  -26.0640  -11.6970   20.3820 N   0  0  0  0  0  0  0  0  0  0  0  0
  -24.0210  -10.5500   20.9510 C   0  0  0  0  0  0  0  0  0  0  0  0
  -24.4380   -9.5520   21.8600 C   0  0  0  0  0  3  0  0  0  0  0  0
  -23.6700   -8.3830   22.0400 C   0  0  0  0  0  3  0  0  0  0  0  0
  -22.4710   -8.2030   21.3110 C   0  0  0  0  0  0  0  0  0  0  0  0
  -22.0730   -9.1860   20.3900 C   0  0  0  0  0  3  0  0  0  0  0  0
  -22.8410  -10.3490   20.2070 C   0  0  0  0  0  3  0  0  0  0  0  0
  -21.6720   -7.0870   21.4020 O   0  0  0  0  0  0  0  0  0  0  0  0
  -21.6000   -6.3440   22.5520 C   0  0  0  0  0  0  0  0  0  0  0  0
  -21.1710   -6.9050   23.7750 C   0  0  0  0  0  3  0  0  0  0  0  0
  -21.0420   -6.0900   24.9180 C   0  0  0  0  0  3  0  0  0  0  0  0
  -21.3340   -4.7140   24.8390 C   0  0  0  0  0  0  0  0  0  0  0  0
  -21.7560   -4.1530   23.6210 C   0  0  0  0  0  3  0  0  0  0  0  0
  -21.8850   -4.9660   22.4800 C   0  0  0  0  0  0  0  0  0  0  0  0
  -22.2720   -4.4150   21.3040 F   0  0  0  0  0  0  0  0  0  0  0  0
  -21.2050   -3.9290   25.9340 F   0  0  0  0  0  0  0  0  0  0  0  0
  -23.0400  -13.6800   21.2180 C   0  0  0  0  0  0  0  0  0  0  0  0
  -22.3300  -12.9850   22.1000 N   0  0  0  0  0  0  0  0  0  0  0  0
  -22.6180  -14.7410   20.7570 O   0  0  0  0  0  0  0  0  0  0  0  0
  -22.6870  -12.1280   22.4960 H   0  0  0  0  0  0  0  0  0  0  0  0
  -21.4180  -13.3160   22.3810 H   0  0  0  0  0  0  0  0  0  0  0  0
  -25.6960  -15.2590   20.3110 N   0  0  0  0  0  0  0  0  0  0  0  0
  -24.9640  -15.9410   20.4810 H   0  0  0  0  0  0  0  0  0  0  0  0
  -26.5510  -15.6720   19.9600 H   0  0  0  0  0  0  0  0  0  0  0  0
  -28.1820  -25.5640   21.0340 C   0  0  0  0  0  3  0  0  0  0  0  0
  -28.8960  -24.9450   23.4380 C   0  0  0  0  0  1  0  0  0  0  0  0
  -29.1030  -25.8800   22.2340 C   0  0  0  0  0  2  0  0  0  0  0  0
  -28.3090  -26.6320   20.0740 O   0  0  0  0  0  0  0  0  0  0  0  0
  -24.5480  -31.8460   23.1320 C   0  0  0  0  0  0  0  0  0  0  0  0
  -27.1870  -27.4250   20.0230 C   0  0  0  0  0  0  0  0  0  0  0  0
  -23.3420  -30.4500   21.4840 C   0  0  0  0  0  3  0  0  0  0  0  0
  -24.7970  -28.9230   20.0470 C   0  0  0  0  0  0  0  0  0  0  0  0
  -25.8680  -30.8140   21.2870 C   0  0  0  0  0  2  0  0  0  0  0  0
  -25.9560  -29.4480   20.6390 C   0  0  0  0  0  0  0  0  0  0  0  0
  -27.1570  -28.7010   20.6310 C   0  0  0  0  0  3  0  0  0  0  0  0
  -26.0200  -26.9240   19.4120 C   0  0  0  0  0  3  0  0  0  0  0  0
  -24.8230  -27.6600   19.4300 C   0  0  0  0  0  3  0  0  0  0  0  0
  -23.5510  -29.7760   20.1020 C   0  0  0  0  0  2  0  0  0  0  0  0
  -24.6040  -31.0510   22.0260 N   0  0  0  0  0  0  0  0  0  0  0  0
  -23.4670  -32.1140   23.6750 O   0  0  0  0  0  0  0  0  0  0  0  0
  -22.6960  -29.4220   22.4410 C   0  0  0  0  0  0  0  0  0  0  0  0
  -21.3690  -29.2500   22.3240 N   0  0  0  0  0  0  0  0  0  0  0  0
  -23.3830  -28.7880   23.2450 O   0  0  0  0  0  0  0  0  0  0  0  0
  -20.8780  -29.8150   21.6440 H   0  0  0  0  0  0  0  0  0  0  0  0
  -17.9920  -28.1000   22.8820 C   0  0  0  0  0  0  0  0  0  0  0  0
  -20.5560  -28.3130   23.0980 C   0  0  0  0  0  3  0  0  0  0  0  0
  -20.6220  -26.8920   22.4960 C   0  0  0  0  0  2  0  0  0  0  0  0
  -19.4930  -26.5950   21.5050 C   0  0  0  0  0  2  0  0  0  0  0  0
  -18.1300  -26.7610   22.1840 C   0  0  0  0  0  2  0  0  0  0  0  0
  -19.1310  -28.8380   23.2970 C   0  0  0  0  0  0  0  0  0  0  0  0
  -18.9470  -30.0980   23.9100 C   0  0  0  0  0  3  0  0  0  0  0  0
  -17.6550  -30.6170   24.1140 C   0  0  0  0  0  3  0  0  0  0  0  0
  -16.5310  -29.8760   23.7150 C   0  0  0  0  0  3  0  0  0  0  0  0
  -16.6990  -28.6210   23.1020 C   0  0  0  0  0  3  0  0  0  0  0  0
  -25.8360  -32.4760   23.7520 C   0  0  0  0  0  3  0  0  0  0  0  0
  -25.5170  -33.8650   24.1090 N   0  0  0  0  0  0  0  0  0  0  0  0
  -25.8390  -34.9330   23.3700 C   0  0  0  0  0  0  0  0  0  0  0  0
  -26.5110  -34.8560   22.3360 O   0  0  0  0  0  0  0  0  0  0  0  0
  -24.9140  -33.9960   24.9090 H   0  0  0  0  0  0  0  0  0  0  0  0
  -24.1100  -36.7280   23.0400 C   0  0  0  0  0  1  0  0  0  0  0  0
  -25.3440  -36.3090   23.8560 C   0  0  0  0  0  3  0  0  0  0  0  0
  -27.4640  -37.1830   24.7360 C   0  0  0  0  0  1  0  0  0  0  0  0
  -26.3760  -37.3670   23.7790 N   0  0  0  0  0  0  0  0  0  0  0  0
  -25.9640  -38.2820   23.9390 H   0  0  0  0  0  0  0  0  0  0  0  0
  -26.3780  -31.6840   25.0040 C   0  0  1  0  0  0  0  0  0  0  0  0
  -25.3000  -31.4070   26.0780 C   0  0  0  0  0  1  0  0  0  0  0  0
  -26.9740  -30.3230   24.5740 C   0  0  0  0  0  1  0  0  0  0  0  0
  -27.5240  -32.4790   25.6700 C   0  0  0  0  0  1  0  0  0  0  0  0
  1  2  1  0
  3  5  1  0
  4  1  2  0
  5  2  2  0
  5 52  1  0
  6  4  1  0
  6  3  2  0
  7  6  1  0
  9 10  1  0
  9 11  1  0
 10  4  1  0
 10  8  1  0
 11  8  1  0
 11 12  1  0
 13 12  1  0
 14 22  1  0
 15 20  1  0
 16 17  1  0
 16 15  1  0
 18 17  1  0
 18 27  1  0
 18 19  1  0
 20 14  1  0
 20 19  1  0
 21 14  2  0
 22 13  1  0
 22 23  1  0
 24 25  2  0
 25 44  1  0
 26 25  1  0
 26 29  1  0
 27 28  1  0
 27 24  1  0
 28 26  2  0
 29 30  1  0
 30 31  2  0
 32 35  1  0
 32 31  1  0
 33 32  2  0
 34 33  1  0
 34 29  2  0
 35 36  1  0
 36 37  1  0
 37 38  2  0
 39 38  1  0
 39 43  1  0
 40 39  2  0
 41 36  2  0
 41 40  1  0
 42 41  1  0
 44 45  1  0
 45 48  1  0
 45 47  1  0
 46 44  2  0
 49 24  1  0
 49 50  1  0
 51 49  1  0
 52 54  1  0
 54 53  1  0
 55 52  1  0
 56 67  2  0
 57 55  1  0
 57 62  1  0
 58 66  1  0
 58 68  1  0
 59 65  1  0
 59 61  1  0
 60 66  1  0
 61 60  1  0
 62 61  2  0
 63 64  1  0
 63 57  2  0
 64 59  2  0
 65 58  1  0
 66 56  1  0
 68 70  2  0
 69 68  1  0
 71 69  1  0
 72 81  2  0
 72 77  1  0
 73 69  1  0
 73 77  1  0
 74 73  1  0
 75 76  1  0
 75 74  1  0
 76 72  1  0
 77 78  2  0
 78 79  1  0
 80 79  2  0
 81 80  1  0
 82 56  1  0
 82 83  1  0
 82 92  1  0
 83 86  1  0
 84 88  1  0
 84 83  1  0
 85 84  2  0
 88 87  1  0
 90 88  1  0
 90 91  1  0
 90 89  1  0
 92 95  1  1
 92 93  1  0
 94 92  1  0
M  ISO  4  14 100  22 100  52 101  55 101
M  END
>  <TORSDO>  (31) 
F 21

>  <SCORE>  (31) 
-13.578

>  <name>  (31) 
31

>  <ligand_id>  (31) 
31

>  <original_smiles>  (31) 
[H]c1c([H])c([H])c2c(c1[H])C([H])([H])C([H])([H])C([H])([H])C2([H])N([H])C(=O)C1([H])N(C(=O)C([H])(N([H])C(=O)C([H])(N([H])C([H])([H])[H])C([H])([H])[H])C(C([H])([H])[H])(C([H])([H])[H])C([H])([H])[H])C([H])([H])c2c([H])c(OC([H])(c3c([H])c([H])c(C4([H])C([H])([H])C([H])(C([H])([H])C([H])([H])N([H])C(=O)N5C([H])([H])C([H])([H])C([H])([H])C([H])(n6nc(-c7c([H])c([H])c(Oc8c([H])c([H])c(F)c([H])c8F)c([H])c7[H])c(C(=O)N([H])[H])c6N([H])[H])C5([H])[H])C4([H])[H])c(C([H])([H])[H])c3[H])C([H])([H])C([H])([H])[H])c([H])c([H])c2C1([H])[H]

>  <smiles>  (31) 
[H]c1c([H])c([H])c2c(c1[H])C([H])([H])C([H])([H])C([H])([H])C2([H])N([H])C(=O)C1([H])N(C(=O)C([H])(N([H])C(=O)C([H])(N([H])C([H])([H])[H])C([H])([H])[H])C(C([H])([H])[H])(C([H])([H])[H])C([H])([H])[H])C([H])([H])c2c([H])c(OC([H])(c3c([H])c([H])c(C4([H])C([H])([H])C([H])(C([H])([H])C([H])([H])N([H])C(=O)N5C([H])([H])C([H])([H])C([H])([H])C([H])(n6nc(-c7c([H])c([H])c(Oc8c([H])c([H])c(F)c([H])c8F)c([H])c7[H])c(C(=O)N([H])[H])c6N([H])[H])C5([H])[H])C4([H])[H])c(C([H])([H])[H])c3[H])C([H])([H])C([H])([H])[H])c([H])c([H])c2C1([H])[H]

$$$$
32:0:0
     RDKit          3D

 94102  0  0  1  0  0  0  0  0999 V2000
  -27.7800  -20.9300   20.4520 C   0  0  0  0  0  3  0  0  0  0  0  0
  -27.3280  -19.5240   19.9810 C   0  0  0  0  0  3  0  0  0  0  0  0
  -30.2060  -20.0440   20.5840 C   0  0  0  0  0  2  0  0  0  0  0  0
  -29.2580  -21.2830   20.2190 C   0  0  0  0  0  3  0  0  0  0  0  0
  -28.4410  -18.5170   19.5640 C   0  0  0  0  0  3  0  0  0  0  0  0
  -29.5920  -18.5670   20.5980 C   0  0  0  0  0  3  0  0  0  0  0  0
  -29.6050  -22.6920   20.8740 C   0  0  0  0  0  2  0  0  0  0  0  0
  -29.1690  -24.0570   20.1580 C   0  0  0  0  0  2  0  0  0  0  0  0
  -28.6570  -25.2510   21.0790 C   0  0  0  0  0  2  0  0  0  0  0  0
  -28.7410  -26.6560   20.6300 O   0  0  0  0  0  0  0  0  0  0  0  0
  -24.6830  -31.9880   23.3820 C   0  0  0  0  0  0  0  0  0  0  0  0
  -27.5760  -27.4300   20.5950 C   0  0  0  0  0  0  0  0  0  0  0  0
  -23.5980  -30.5050   21.7370 C   0  0  0  0  0  3  0  0  0  0  0  0
  -25.1570  -28.9440   20.4440 C   0  0  0  0  0  0  0  0  0  0  0  0
  -26.1330  -30.8950   21.6560 C   0  0  0  0  0  2  0  0  0  0  0  0
  -26.2830  -29.4980   21.0640 C   0  0  0  0  0  0  0  0  0  0  0  0
  -27.5000  -28.7540   21.1220 C   0  0  0  0  0  3  0  0  0  0  0  0
  -26.4230  -26.9080   19.9730 C   0  0  0  0  0  3  0  0  0  0  0  0
  -25.2280  -27.6510   19.8920 C   0  0  0  0  0  3  0  0  0  0  0  0
  -23.8920  -29.7810   20.3980 C   0  0  0  0  0  2  0  0  0  0  0  0
  -24.8210  -31.1470   22.3150 N   0  0  0  0  0  0  0  0  0  0  0  0
  -23.5690  -32.2540   23.8560 O   0  0  0  0  0  0  0  0  0  0  0  0
  -22.9160  -29.5050   22.7010 C   0  0  0  0  0  0  0  0  0  0  0  0
  -21.6040  -29.2910   22.5160 N   0  0  0  0  0  0  0  0  0  0  0  0
  -23.5690  -28.9240   23.5720 O   0  0  0  0  0  0  0  0  0  0  0  0
  -21.1380  -29.8160   21.7890 H   0  0  0  0  0  0  0  0  0  0  0  0
  -18.2320  -28.0480   22.9120 C   0  0  0  0  0  0  0  0  0  0  0  0
  -20.7770  -28.3430   23.2610 C   0  0  0  0  0  3  0  0  0  0  0  0
  -20.9240  -26.9110   22.6920 C   0  0  0  0  0  2  0  0  0  0  0  0
  -19.8520  -26.5440   21.6640 C   0  0  0  0  0  2  0  0  0  0  0  0
  -18.4450  -26.6960   22.2510 C   0  0  0  0  0  2  0  0  0  0  0  0
  -19.3290  -28.8280   23.3700 C   0  0  0  0  0  0  0  0  0  0  0  0
  -19.0730  -30.1000   23.9320 C   0  0  0  0  0  3  0  0  0  0  0  0
  -17.7590  -30.5850   24.0460 C   0  0  0  0  0  3  0  0  0  0  0  0
  -16.6760  -29.8010   23.6090 C   0  0  0  0  0  3  0  0  0  0  0  0
  -16.9160  -28.5370   23.0460 C   0  0  0  0  0  3  0  0  0  0  0  0
  -25.9180  -32.6760   24.0450 C   0  0  0  0  0  3  0  0  0  0  0  0
  -25.5610  -34.0800   24.2980 N   0  0  0  0  0  0  0  0  0  0  0  0
  -25.9170  -35.1080   23.5160 C   0  0  0  0  0  0  0  0  0  0  0  0
  -26.6480  -34.9750   22.5310 O   0  0  0  0  0  0  0  0  0  0  0  0
  -24.9150  -34.2530   25.0540 H   0  0  0  0  0  0  0  0  0  0  0  0
  -24.1760  -36.8440   22.9940 C   0  0  0  0  0  1  0  0  0  0  0  0
  -25.3790  -36.5050   23.8870 C   0  0  0  0  0  3  0  0  0  0  0  0
  -27.4440  -37.4730   24.7940 C   0  0  0  0  0  1  0  0  0  0  0  0
  -26.3960  -37.5720   23.7830 N   0  0  0  0  0  0  0  0  0  0  0  0
  -25.9660  -38.4890   23.8620 H   0  0  0  0  0  0  0  0  0  0  0  0
  -26.3770  -31.9710   25.3800 C   0  0  1  0  0  0  0  0  0  0  0  0
  -25.2230  -31.7190   26.3800 C   0  0  0  0  0  1  0  0  0  0  0  0
  -27.0430  -30.6090   25.0790 C   0  0  0  0  0  1  0  0  0  0  0  0
  -27.4440  -32.8370   26.0900 C   0  0  0  0  0  1  0  0  0  0  0  0
  -30.6370  -17.3430   20.4880 C   0  0  0  0  0  2  0  0  0  0  0  0
  -30.9270  -14.7780   20.5730 C   0  0  0  0  0  0  0  0  0  0  0  0
  -30.6630  -12.5940   19.4210 C   0  0  0  0  0  2  0  0  0  0  0  0
  -29.7280  -12.7890   18.2080 C   0  0  0  0  0  2  0  0  0  0  0  0
  -28.2550  -12.6320   18.6380 C   0  0  0  0  0  2  0  0  0  0  0  0
  -27.9000  -13.4730   19.8930 C   0  0  0  0  0  3  0  0  0  0  0  0
  -28.9510  -13.2640   21.0050 C   0  0  0  0  0  2  0  0  0  0  0  0
  -30.2620  -13.5900   20.4370 N   0  0  0  0  0  0  0  0  0  0  0  0
  -32.1320  -14.8580   20.3250 O   0  0  0  0  0  0  0  0  0  0  0  0
  -30.1750  -15.9210   20.7200 N   0  0  0  0  0  0  0  0  0  0  0  0
  -29.1840  -15.7830   20.8550 H   0  0  0  0  0  0  0  0  0  0  0  0
  -25.5050  -14.0940   20.5940 C   0  0  0  0  0  0  0  0  0  0  0  0
  -24.4190  -13.3280   20.9300 C   0  0  0  0  0  0  0  0  0  0  0  0
  -24.8680  -11.9730   20.8940 C   0  0  0  0  0  0  0  0  0  0  0  0
  -26.5440  -13.2060   20.3670 N   0  0  0  0  0  0  0  0  0  0  0  0
  -26.1650  -11.9240   20.6150 N   0  0  0  0  0  0  0  0  0  0  0  0
  -24.1250  -10.7160   21.0520 C   0  0  0  0  0  0  0  0  0  0  0  0
  -24.5160   -9.7420   21.9960 C   0  0  0  0  0  3  0  0  0  0  0  0
  -23.7750   -8.5480   22.1410 C   0  0  0  0  0  3  0  0  0  0  0  0
  -22.6300   -8.3210   21.3400 C   0  0  0  0  0  0  0  0  0  0  0  0
  -22.2620   -9.2830   20.3830 C   0  0  0  0  0  3  0  0  0  0  0  0
  -23.0030  -10.4680   20.2370 C   0  0  0  0  0  3  0  0  0  0  0  0
  -21.8670   -7.1820   21.3910 O   0  0  0  0  0  0  0  0  0  0  0  0
  -21.7380   -6.4550   22.5470 C   0  0  0  0  0  0  0  0  0  0  0  0
  -21.2020   -7.0170   23.7260 C   0  0  0  0  0  3  0  0  0  0  0  0
  -21.0230   -6.2160   24.8720 C   0  0  0  0  0  3  0  0  0  0  0  0
  -21.3700   -4.8510   24.8400 C   0  0  0  0  0  0  0  0  0  0  0  0
  -21.8980   -4.2880   23.6640 C   0  0  0  0  0  3  0  0  0  0  0  0
  -22.0780   -5.0870   22.5220 C   0  0  0  0  0  0  0  0  0  0  0  0
  -22.5670   -4.5340   21.3850 F   0  0  0  0  0  0  0  0  0  0  0  0
  -21.1920   -4.0780   25.9360 F   0  0  0  0  0  0  0  0  0  0  0  0
  -23.0220  -13.8200   21.1720 C   0  0  0  0  0  0  0  0  0  0  0  0
  -22.2660  -13.1330   22.0240 N   0  0  0  0  0  0  0  0  0  0  0  0
  -22.6030  -14.8470   20.6380 O   0  0  0  0  0  0  0  0  0  0  0  0
  -22.6090  -12.3010   22.4820 H   0  0  0  0  0  0  0  0  0  0  0  0
  -21.3300  -13.4490   22.2290 H   0  0  0  0  0  0  0  0  0  0  0  0
  -25.6810  -15.4620   20.4380 N   0  0  0  0  0  0  0  0  0  0  0  0
  -24.9140  -16.1160   20.5610 H   0  0  0  0  0  0  0  0  0  0  0  0
  -26.5530  -15.9060   20.1850 H   0  0  0  0  0  0  0  0  0  0  0  0
  -28.9570  -18.7170   18.1070 C   0  0  0  0  0  2  0  0  0  0  0  0
  -27.9050  -18.7800   17.0770 N   0  0  0  0  0  4  0  0  0  0  0  0
  -27.4050  -17.9130   17.0100 H   0  0  0  0  0  0  0  0  0  0  0  0
  -28.3460  -18.9530   16.1910 H   0  0  0  0  0  0  0  0  0  0  0  0
  -27.2610  -19.5300   17.2490 H   0  0  0  0  0  0  0  0  0  0  0  0
  2  1  2  0
  3  6  1  0
  4  1  1  0
  4  3  1  0
  4  7  1  0
  5 90  1  0
  5  2  1  0
  5  6  1  0
  6 51  1  0
  8  7  1  0
  8  9  1  0
 10  9  1  0
 11 22  2  0
 12 10  1  0
 12 17  1  0
 13 21  1  0
 13 23  1  0
 14 16  1  0
 15 21  1  0
 16 17  2  0
 16 15  1  0
 18 12  2  0
 19 18  1  0
 19 14  2  0
 20 14  1  0
 20 13  1  0
 21 11  1  0
 23 25  2  0
 24 23  1  0
 26 24  1  0
 27 36  2  0
 27 32  1  0
 28 24  1  0
 28 32  1  0
 29 28  1  0
 30 31  1  0
 30 29  1  0
 31 27  1  0
 32 33  2  0
 33 34  1  0
 35 34  2  0
 36 35  1  0
 37 11  1  0
 37 38  1  0
 37 47  1  0
 38 41  1  0
 39 43  1  0
 39 38  1  0
 40 39  2  0
 43 42  1  0
 45 46  1  0
 45 43  1  0
 45 44  1  0
 47 50  1  1
 47 48  1  0
 49 47  1  0
 51 60  1  0
 52 60  1  0
 53 58  1  0
 54 55  1  0
 54 53  1  0
 56 55  1  0
 56 65  1  0
 56 57  1  0
 58 52  1  0
 58 57  1  0
 59 52  2  0
 60 61  1  0
 62 63  2  0
 63 82  1  0
 64 63  1  0
 64 67  1  0
 65 62  1  0
 65 66  1  0
 66 64  2  0
 67 68  1  0
 68 69  2  0
 70 73  1  0
 70 69  1  0
 71 70  2  0
 72 71  1  0
 72 67  2  0
 73 74  1  0
 74 75  1  0
 75 76  2  0
 77 76  1  0
 77 81  1  0
 78 77  2  0
 79 74  2  0
 79 78  1  0
 80 79  1  0
 82 83  1  0
 83 86  1  0
 83 85  1  0
 84 82  2  0
 87 88  1  0
 87 62  1  0
 89 87  1  0
 91 94  1  0
 91 90  1  0
 92 91  1  0
 93 91  1  0
M  ISO  4   9 101  10 101  52 100  60 100
M  END
>  <TORSDO>  (32) 
F 22

>  <SCORE>  (32) 
-12.841

>  <name>  (32) 
32

>  <ligand_id>  (32) 
32

>  <original_smiles>  (32) 
[H]c1c([H])c([H])c2c(c1[H])C([H])([H])C([H])([H])C([H])([H])C2([H])N([H])C(=O)C1([H])N(C(=O)C([H])(N([H])C(=O)C([H])(N([H])C([H])([H])[H])C([H])([H])[H])C(C([H])([H])[H])(C([H])([H])[H])C([H])([H])[H])C([H])([H])c2c([H])c(OC([H])([H])C([H])([H])C([H])([H])C3([H])C([H])([H])C([H])([H])C([H])(C([H])([H])[N+]([H])([H])[H])C([H])(C([H])([H])N([H])C(=O)N4C([H])([H])C([H])([H])C([H])([H])C([H])(n5nc(-c6c([H])c([H])c(Oc7c([H])c([H])c(F)c([H])c7F)c([H])c6[H])c(C(=O)N([H])[H])c5N([H])[H])C4([H])[H])C3([H])[H])c([H])c([H])c2C1([H])[H]

>  <smiles>  (32) 
[H]c1c([H])c([H])c2c(c1[H])C([H])([H])C([H])([H])C([H])([H])C2([H])N([H])C(=O)C1([H])N(C(=O)C([H])(N([H])C(=O)C([H])(N([H])C([H])([H])[H])C([H])([H])[H])C(C([H])([H])[H])(C([H])([H])[H])C([H])([H])[H])C([H])([H])c2c([H])c(OC([H])([H])C([H])([H])C([H])([H])C3([H])C([H])([H])C([H])([H])C([H])(C([H])([H])[N+]([H])([H])[H])C([H])(C([H])([H])N([H])C(=O)N4C([H])([H])C([H])([H])C([H])([H])C([H])(n5nc(-c6c([H])c([H])c(Oc7c([H])c([H])c(F)c([H])c7F)c([H])c6[H])c(C(=O)N([H])[H])c5N([H])[H])C4([H])[H])C3([H])[H])c([H])c([H])c2C1([H])[H]

$$$$
33:0:0
     RDKit          3D

 93101  0  0  1  0  0  0  0  0999 V2000
  -32.3220  -22.9740   20.7440 C   0  0  0  0  0  2  0  0  0  0  0  0
  -31.4870  -22.0820   19.8320 C   0  0  0  0  0  2  0  0  0  0  0  0
  -32.2360  -24.4090   20.2470 C   0  0  0  0  0  2  0  0  0  0  0  0
  -29.8030  -23.9870   19.5790 C   0  0  0  0  0  2  0  0  0  0  0  0
  -29.9860  -22.4550   19.8430 C   0  0  0  0  0  3  0  0  0  0  0  0
  -30.7970  -24.9460   20.3070 C   0  0  0  0  0  3  0  0  0  0  0  0
  -29.2420  -21.8890   21.0770 C   0  0  0  0  0  0  0  0  0  0  0  0
  -29.0130  -22.5960   22.0620 O   0  0  0  0  0  0  0  0  0  0  0  0
  -28.7210  -20.4310   21.0340 C   0  0  0  0  0  3  0  0  0  0  0  0
  -29.7990  -19.3370   20.7990 C   0  0  0  0  0  3  0  0  0  0  0  0
  -29.2910  -17.8800   20.7920 C   0  0  0  0  0  2  0  0  0  0  0  0
  -30.4460  -16.8670   20.5930 C   0  0  0  0  0  2  0  0  0  0  0  0
  -30.7080  -14.4440   20.1330 C   0  0  0  0  0  0  0  0  0  0  0  0
  -30.4120  -12.2280   19.0930 C   0  0  0  0  0  2  0  0  0  0  0  0
  -29.4390  -12.3620   17.9040 C   0  0  0  0  0  2  0  0  0  0  0  0
  -27.9780  -12.2380   18.3720 C   0  0  0  0  0  2  0  0  0  0  0  0
  -27.6630  -13.1340   19.5990 C   0  0  0  0  0  3  0  0  0  0  0  0
  -28.7420  -12.9680   20.6920 C   0  0  0  0  0  2  0  0  0  0  0  0
  -30.0500  -13.2570   20.0810 N   0  0  0  0  0  0  0  0  0  0  0  0
  -31.8070  -14.6310   19.5990 O   0  0  0  0  0  0  0  0  0  0  0  0
  -30.0240  -15.4640   20.6830 N   0  0  0  0  0  0  0  0  0  0  0  0
  -29.1300  -15.2530   21.1010 H   0  0  0  0  0  0  0  0  0  0  0  0
  -25.2900  -13.7660   20.3700 C   0  0  0  0  0  0  0  0  0  0  0  0
  -24.2250  -13.0010   20.7700 C   0  0  0  0  0  0  0  0  0  0  0  0
  -24.6740  -11.6450   20.7200 C   0  0  0  0  0  0  0  0  0  0  0  0
  -26.3200  -12.8740   20.1130 N   0  0  0  0  0  0  0  0  0  0  0  0
  -25.9530  -11.5940   20.3770 N   0  0  0  0  0  0  0  0  0  0  0  0
  -23.9450  -10.3890   20.9340 C   0  0  0  0  0  0  0  0  0  0  0  0
  -24.3690   -9.4380   21.8900 C   0  0  0  0  0  3  0  0  0  0  0  0
  -23.6390   -8.2460   22.0890 C   0  0  0  0  0  3  0  0  0  0  0  0
  -22.4690   -7.9960   21.3300 C   0  0  0  0  0  0  0  0  0  0  0  0
  -22.0650   -8.9330   20.3650 C   0  0  0  0  0  3  0  0  0  0  0  0
  -22.7950  -10.1180   20.1650 C   0  0  0  0  0  3  0  0  0  0  0  0
  -21.7140   -6.8510   21.4350 O   0  0  0  0  0  0  0  0  0  0  0  0
  -21.6240   -6.1560   22.6120 C   0  0  0  0  0  0  0  0  0  0  0  0
  -21.1420   -6.7550   23.7960 C   0  0  0  0  0  3  0  0  0  0  0  0
  -20.9990   -5.9860   24.9670 C   0  0  0  0  0  3  0  0  0  0  0  0
  -21.3290   -4.6170   24.9560 C   0  0  0  0  0  0  0  0  0  0  0  0
  -21.8000   -4.0180   23.7760 C   0  0  0  0  0  3  0  0  0  0  0  0
  -21.9450   -4.7840   22.6060 C   0  0  0  0  0  0  0  0  0  0  0  0
  -22.3810   -4.1960   21.4660 F   0  0  0  0  0  0  0  0  0  0  0  0
  -21.1850   -3.8740   26.0780 F   0  0  0  0  0  0  0  0  0  0  0  0
  -22.8430  -13.4870   21.0890 C   0  0  0  0  0  0  0  0  0  0  0  0
  -22.1440  -12.7940   21.9830 N   0  0  0  0  0  0  0  0  0  0  0  0
  -22.3920  -14.5170   20.5850 O   0  0  0  0  0  0  0  0  0  0  0  0
  -22.5300  -11.9600   22.4010 H   0  0  0  0  0  0  0  0  0  0  0  0
  -21.2170  -13.0980   22.2420 H   0  0  0  0  0  0  0  0  0  0  0  0
  -25.4700  -15.1310   20.1800 N   0  0  0  0  0  0  0  0  0  0  0  0
  -24.7300  -15.8130   20.3040 H   0  0  0  0  0  0  0  0  0  0  0  0
  -26.3250  -15.5410   19.8220 H   0  0  0  0  0  0  0  0  0  0  0  0
  -30.8180  -26.3800   19.7170 C   0  0  0  0  0  2  0  0  0  0  0  0
  -29.7700  -27.3500   20.2650 C   0  0  0  0  0  2  0  0  0  0  0  0
  -28.5090  -26.8100   19.9400 O   0  0  0  0  0  0  0  0  0  0  0  0
  -24.7270  -31.8490   23.3510 C   0  0  0  0  0  0  0  0  0  0  0  0
  -27.3980  -27.6030   20.0520 C   0  0  0  0  0  0  0  0  0  0  0  0
  -23.5360  -30.5460   21.6180 C   0  0  0  0  0  3  0  0  0  0  0  0
  -25.0020  -29.0860   20.1330 C   0  0  0  0  0  0  0  0  0  0  0  0
  -26.0620  -30.9140   21.4690 C   0  0  0  0  0  2  0  0  0  0  0  0
  -26.1520  -29.5790   20.7620 C   0  0  0  0  0  0  0  0  0  0  0  0
  -27.3560  -28.8460   20.7270 C   0  0  0  0  0  3  0  0  0  0  0  0
  -26.2300  -27.1120   19.4380 C   0  0  0  0  0  3  0  0  0  0  0  0
  -25.0310  -27.8440   19.4750 C   0  0  0  0  0  3  0  0  0  0  0  0
  -23.7610  -29.9430   20.2050 C   0  0  0  0  0  2  0  0  0  0  0  0
  -24.7930  -31.1150   22.2050 N   0  0  0  0  0  0  0  0  0  0  0  0
  -23.6400  -32.0940   23.8920 O   0  0  0  0  0  0  0  0  0  0  0  0
  -22.8740  -29.4740   22.5100 C   0  0  0  0  0  0  0  0  0  0  0  0
  -21.5480  -29.3140   22.3650 N   0  0  0  0  0  0  0  0  0  0  0  0
  -23.5470  -28.7910   23.2870 O   0  0  0  0  0  0  0  0  0  0  0  0
  -21.0690  -29.9180   21.7120 H   0  0  0  0  0  0  0  0  0  0  0  0
  -18.1570  -28.1480   22.7790 C   0  0  0  0  0  0  0  0  0  0  0  0
  -20.7170  -28.3410   23.0710 C   0  0  0  0  0  3  0  0  0  0  0  0
  -20.7960  -26.9500   22.4000 C   0  0  0  0  0  2  0  0  0  0  0  0
  -19.6900  -26.7150   21.3670 C   0  0  0  0  0  2  0  0  0  0  0  0
  -18.3100  -26.8420   22.0170 C   0  0  0  0  0  2  0  0  0  0  0  0
  -19.2860  -28.8590   23.2600 C   0  0  0  0  0  0  0  0  0  0  0  0
  -19.0890  -30.0850   23.9300 C   0  0  0  0  0  3  0  0  0  0  0  0
  -17.7940  -30.5990   24.1260 C   0  0  0  0  0  3  0  0  0  0  0  0
  -16.6770  -29.8830   23.6630 C   0  0  0  0  0  3  0  0  0  0  0  0
  -16.8580  -28.6580   22.9940 C   0  0  0  0  0  3  0  0  0  0  0  0
  -26.0080  -32.4380   24.0210 C   0  0  0  0  0  3  0  0  0  0  0  0
  -25.7020  -33.8160   24.4240 N   0  0  0  0  0  0  0  0  0  0  0  0
  -26.0490  -34.9070   23.7290 C   0  0  0  0  0  0  0  0  0  0  0  0
  -26.7350  -34.8570   22.7050 O   0  0  0  0  0  0  0  0  0  0  0  0
  -25.0940  -33.9290   25.2230 H   0  0  0  0  0  0  0  0  0  0  0  0
  -24.3360  -36.7230   23.4450 C   0  0  0  0  0  1  0  0  0  0  0  0
  -25.5610  -36.2700   24.2540 C   0  0  0  0  0  3  0  0  0  0  0  0
  -27.6830  -37.0940   25.1710 C   0  0  0  0  0  1  0  0  0  0  0  0
  -26.6010  -37.3220   24.2180 N   0  0  0  0  0  0  0  0  0  0  0  0
  -26.1960  -38.2340   24.4080 H   0  0  0  0  0  0  0  0  0  0  0  0
  -26.5110  -31.5930   25.2540 C   0  0  1  0  0  0  0  0  0  0  0  0
  -25.4070  -31.2930   26.2960 C   0  0  0  0  0  1  0  0  0  0  0  0
  -27.0950  -30.2390   24.7830 C   0  0  0  0  0  1  0  0  0  0  0  0
  -27.6560  -32.3440   25.9730 C   0  0  0  0  0  1  0  0  0  0  0  0
  2  5  1  0
  2  1  1  0
  3  6  1  0
  3  1  1  0
  4  5  1  0
  4  6  1  0
  5  7  1  0
  6 51  1  0
  7  8  2  0
  9  7  1  0
 10  9  2  0
 11 10  1  0
 12 21  1  0
 12 11  1  0
 13 21  1  0
 14 19  1  0
 15 16  1  0
 15 14  1  0
 17 16  1  0
 17 26  1  0
 17 18  1  0
 19 13  1  0
 19 18  1  0
 20 13  2  0
 21 22  1  0
 23 24  2  0
 24 43  1  0
 25 24  1  0
 25 28  1  0
 26 23  1  0
 26 27  1  0
 27 25  2  0
 28 29  1  0
 29 30  2  0
 31 34  1  0
 31 30  1  0
 32 31  2  0
 33 32  1  0
 33 28  2  0
 34 35  1  0
 35 36  1  0
 36 37  2  0
 38 37  1  0
 38 42  1  0
 39 38  2  0
 40 35  2  0
 40 39  1  0
 41 40  1  0
 43 44  1  0
 44 47  1  0
 44 46  1  0
 45 43  2  0
 48 49  1  0
 48 23  1  0
 50 48  1  0
 51 52  1  0
 53 55  1  0
 53 52  1  0
 54 65  2  0
 55 60  1  0
 56 64  1  0
 56 66  1  0
 57 63  1  0
 57 59  1  0
 58 64  1  0
 59 58  1  0
 60 59  2  0
 61 62  1  0
 61 55  2  0
 62 57  2  0
 63 56  1  0
 64 54  1  0
 66 68  2  0
 67 66  1  0
 69 67  1  0
 70 79  2  0
 70 75  1  0
 71 67  1  0
 71 75  1  0
 72 71  1  0
 73 74  1  0
 73 72  1  0
 74 70  1  0
 75 76  2  0
 76 77  1  0
 78 77  2  0
 79 78  1  0
 80 54  1  0
 80 81  1  0
 80 90  1  0
 81 84  1  0
 82 86  1  0
 82 81  1  0
 83 82  2  0
 86 85  1  0
 88 86  1  0
 88 89  1  0
 88 87  1  0
 90 93  1  1
 90 91  1  0
 92 90  1  0
M  ISO  4  13 100  21 100  52 101  53 101
M  END
>  <TORSDO>  (33) 
F 23

>  <SCORE>  (33) 
-12.187

>  <name>  (33) 
33

>  <ligand_id>  (33) 
33

>  <original_smiles>  (33) 
[H]c1c([H])c([H])c2c(c1[H])C([H])([H])C([H])([H])C([H])([H])C2([H])N([H])C(=O)C1([H])N(C(=O)C([H])(N([H])C(=O)C([H])(N([H])C([H])([H])[H])C([H])([H])[H])C(C([H])([H])[H])(C([H])([H])[H])C([H])([H])[H])C([H])([H])c2c([H])c(OC([H])([H])C([H])([H])C3([H])C([H])([H])C([H])([H])C([H])([H])C([H])(C(=O)C([H])([H])C([H])([H])C([H])([H])C([H])([H])N([H])C(=O)N4C([H])([H])C([H])([H])C([H])([H])C([H])(n5nc(-c6c([H])c([H])c(Oc7c([H])c([H])c(F)c([H])c7F)c([H])c6[H])c(C(=O)N([H])[H])c5N([H])[H])C4([H])[H])C3([H])[H])c([H])c([H])c2C1([H])[H]

>  <smiles>  (33) 
[H]c1c([H])c([H])c2c(c1[H])C([H])([H])C([H])([H])C([H])([H])C2([H])N([H])C(=O)C1([H])N(C(=O)C([H])(N([H])C(=O)C([H])(N([H])C([H])([H])[H])C([H])([H])[H])C(C([H])([H])[H])(C([H])([H])[H])C([H])([H])[H])C([H])([H])c2c([H])c(OC([H])([H])C([H])([H])C3([H])C([H])([H])C([H])([H])C([H])([H])C([H])(C(=O)C([H])([H])C([H])([H])C([H])([H])C([H])([H])N([H])C(=O)N4C([H])([H])C([H])([H])C([H])([H])C([H])(n5nc(-c6c([H])c([H])c(Oc7c([H])c([H])c(F)c([H])c7F)c([H])c6[H])c(C(=O)N([H])[H])c5N([H])[H])C4([H])[H])C3([H])[H])c([H])c([H])c2C1([H])[H]

$$$$
34:0:0
     RDKit          3D

 94102  0  0  1  0  0  0  0  0999 V2000
  -28.2100  -18.8650   20.4790 C   0  0  0  0  0  2  0  0  0  0  0  0
  -31.0310  -14.6610   20.2420 C   0  0  0  0  0  0  0  0  0  0  0  0
  -30.7650  -12.4030   19.3270 C   0  0  0  0  0  2  0  0  0  0  0  0
  -29.8320  -12.5020   18.1000 C   0  0  0  0  0  2  0  0  0  0  0  0
  -28.3480  -12.4290   18.5180 C   0  0  0  0  0  2  0  0  0  0  0  0
  -28.0010  -13.3470   19.7210 C   0  0  0  0  0  3  0  0  0  0  0  0
  -29.0530  -13.2210   20.8470 C   0  0  0  0  0  2  0  0  0  0  0  0
  -30.3730  -13.4730   20.2520 N   0  0  0  0  0  0  0  0  0  0  0  0
  -32.2290  -14.7460   19.9550 O   0  0  0  0  0  0  0  0  0  0  0  0
  -30.3870  -16.3730   18.6200 C   0  0  0  0  0  2  0  0  0  0  0  0
  -29.5570  -16.6220   20.8490 C   0  0  0  0  0  2  0  0  0  0  0  0
  -29.4280  -17.5640   18.6200 C   0  0  0  0  0  3  0  0  0  0  0  0
  -29.4220  -17.9700   20.0970 C   0  0  0  0  0  3  0  0  0  0  0  0
  -30.2230  -15.7000   19.9130 N   0  0  0  0  0  0  0  0  0  0  0  0
  -25.6220  -14.0000   20.4450 C   0  0  0  0  0  0  0  0  0  0  0  0
  -24.5400  -13.2500   20.8120 C   0  0  0  0  0  0  0  0  0  0  0  0
  -24.9710  -11.8880   20.7700 C   0  0  0  0  0  0  0  0  0  0  0  0
  -26.6490  -13.0990   20.2080 N   0  0  0  0  0  0  0  0  0  0  0  0
  -26.2600  -11.8240   20.4630 N   0  0  0  0  0  0  0  0  0  0  0  0
  -24.2190  -10.6410   20.9550 C   0  0  0  0  0  0  0  0  0  0  0  0
  -24.5930   -9.6920   21.9310 C   0  0  0  0  0  3  0  0  0  0  0  0
  -23.8430   -8.5090   22.1030 C   0  0  0  0  0  3  0  0  0  0  0  0
  -22.7070   -8.2640   21.2960 C   0  0  0  0  0  0  0  0  0  0  0  0
  -22.3540   -9.2000   20.3090 C   0  0  0  0  0  3  0  0  0  0  0  0
  -23.1030  -10.3760   20.1360 C   0  0  0  0  0  3  0  0  0  0  0  0
  -21.9350   -7.1300   21.3750 O   0  0  0  0  0  0  0  0  0  0  0  0
  -21.7690   -6.4530   22.5570 C   0  0  0  0  0  0  0  0  0  0  0  0
  -21.2020   -7.0670   23.6950 C   0  0  0  0  0  3  0  0  0  0  0  0
  -20.9850   -6.3130   24.8650 C   0  0  0  0  0  3  0  0  0  0  0  0
  -21.3260   -4.9470   24.8980 C   0  0  0  0  0  0  0  0  0  0  0  0
  -21.8880   -4.3340   23.7650 C   0  0  0  0  0  3  0  0  0  0  0  0
  -22.1040   -5.0850   22.5960 C   0  0  0  0  0  0  0  0  0  0  0  0
  -22.6250   -4.4830   21.4990 F   0  0  0  0  0  0  0  0  0  0  0  0
  -21.1110   -4.2210   26.0200 F   0  0  0  0  0  0  0  0  0  0  0  0
  -23.1540  -13.7530   21.0940 C   0  0  0  0  0  0  0  0  0  0  0  0
  -22.4170  -13.0630   21.9590 N   0  0  0  0  0  0  0  0  0  0  0  0
  -22.7360  -14.7930   20.5870 O   0  0  0  0  0  0  0  0  0  0  0  0
  -22.7730  -12.2250   22.3920 H   0  0  0  0  0  0  0  0  0  0  0  0
  -21.4850  -13.3770   22.1900 H   0  0  0  0  0  0  0  0  0  0  0  0
  -25.8130  -15.3690   20.2760 N   0  0  0  0  0  0  0  0  0  0  0  0
  -25.0600  -16.0380   20.3890 H   0  0  0  0  0  0  0  0  0  0  0  0
  -26.6840  -15.7950   19.9880 H   0  0  0  0  0  0  0  0  0  0  0  0
  -29.8710  -18.6940   17.6700 C   0  0  0  0  0  0  0  0  0  0  0  0
  -29.0710  -18.9900   16.6510 N   0  0  0  0  0  0  0  0  0  0  0  0
  -30.9230  -19.3070   17.8430 O   0  0  0  0  0  0  0  0  0  0  0  0
  -28.2130  -18.4790   16.5000 H   0  0  0  0  0  0  0  0  0  0  0  0
  -29.3120  -19.7350   16.0120 H   0  0  0  0  0  0  0  0  0  0  0  0
  -28.5540  -20.0440   21.4190 C   0  0  0  0  0  2  0  0  0  0  0  0
  -28.2990  -21.4470   20.8090 C   0  0  0  0  0  2  0  0  0  0  0  0
  -29.2080  -22.5220   21.4350 C   0  0  0  0  0  2  0  0  0  0  0  0
  -28.6060  -23.9390   21.5380 C   0  0  0  0  0  2  0  0  0  0  0  0
  -28.5530  -24.7610   20.2320 C   0  0  0  0  0  2  0  0  0  0  0  0
  -28.1990  -26.2350   20.5120 C   0  0  0  0  0  2  0  0  0  0  0  0
  -28.0400  -27.0190   19.3220 O   0  0  0  0  0  0  0  0  0  0  0  0
  -24.4750  -31.7960   23.1670 C   0  0  0  0  0  0  0  0  0  0  0  0
  -26.9270  -27.8110   19.4060 C   0  0  0  0  0  0  0  0  0  0  0  0
  -23.1740  -30.6020   21.4340 C   0  0  0  0  0  3  0  0  0  0  0  0
  -24.5460  -29.2750   19.7370 C   0  0  0  0  0  0  0  0  0  0  0  0
  -25.6850  -31.0060   21.1410 C   0  0  0  0  0  2  0  0  0  0  0  0
  -25.7330  -29.7350   20.3210 C   0  0  0  0  0  0  0  0  0  0  0  0
  -26.9330  -29.0090   20.1540 C   0  0  0  0  0  3  0  0  0  0  0  0
  -25.7310  -27.3630   18.8120 C   0  0  0  0  0  3  0  0  0  0  0  0
  -24.5390  -28.0900   18.9780 C   0  0  0  0  0  3  0  0  0  0  0  0
  -23.3040  -30.1050   19.9690 C   0  0  0  0  0  2  0  0  0  0  0  0
  -24.4640  -31.1420   21.9690 N   0  0  0  0  0  0  0  0  0  0  0  0
  -23.4280  -31.9910   23.7990 O   0  0  0  0  0  0  0  0  0  0  0  0
  -22.5800  -29.4630   22.2940 C   0  0  0  0  0  0  0  0  0  0  0  0
  -21.2520  -29.2820   22.2140 N   0  0  0  0  0  0  0  0  0  0  0  0
  -23.3090  -28.7560   22.9940 O   0  0  0  0  0  0  0  0  0  0  0  0
  -20.7260  -29.9100   21.6230 H   0  0  0  0  0  0  0  0  0  0  0  0
  -17.9180  -27.9650   22.6860 C   0  0  0  0  0  0  0  0  0  0  0  0
  -20.4770  -28.2510   22.9040 C   0  0  0  0  0  3  0  0  0  0  0  0
  -20.5910  -26.8920   22.1770 C   0  0  0  0  0  2  0  0  0  0  0  0
  -19.4630  -26.6520   21.1700 C   0  0  0  0  0  2  0  0  0  0  0  0
  -18.0980  -26.6970   21.8670 C   0  0  0  0  0  2  0  0  0  0  0  0
  -19.0350  -28.7030   23.1580 C   0  0  0  0  0  0  0  0  0  0  0  0
  -18.8150  -29.8920   23.8870 C   0  0  0  0  0  3  0  0  0  0  0  0
  -17.5080  -30.3430   24.1490 C   0  0  0  0  0  3  0  0  0  0  0  0
  -16.4050  -29.6000   23.6940 C   0  0  0  0  0  3  0  0  0  0  0  0
  -16.6100  -28.4140   22.9660 C   0  0  0  0  0  3  0  0  0  0  0  0
  -25.7970  -32.3550   23.7800 C   0  0  0  0  0  3  0  0  0  0  0  0
  -25.5250  -33.7250   24.2370 N   0  0  0  0  0  0  0  0  0  0  0  0
  -25.8590  -34.8310   23.5600 C   0  0  0  0  0  0  0  0  0  0  0  0
  -26.4990  -34.8050   22.5040 O   0  0  0  0  0  0  0  0  0  0  0  0
  -24.9580  -33.8210   25.0670 H   0  0  0  0  0  0  0  0  0  0  0  0
  -24.1590  -36.6790   23.4110 C   0  0  0  0  0  1  0  0  0  0  0  0
  -25.4150  -36.1830   24.1450 C   0  0  0  0  0  3  0  0  0  0  0  0
  -27.5860  -36.9630   24.9880 C   0  0  0  0  0  1  0  0  0  0  0  0
  -26.4660  -37.2240   24.0880 N   0  0  0  0  0  0  0  0  0  0  0  0
  -26.0820  -38.1350   24.3220 H   0  0  0  0  0  0  0  0  0  0  0  0
  -26.3570  -31.4740   24.9650 C   0  0  1  0  0  0  0  0  0  0  0  0
  -25.3100  -31.1710   26.0640 C   0  0  0  0  0  1  0  0  0  0  0  0
  -26.8870  -30.1180   24.4370 C   0  0  0  0  0  1  0  0  0  0  0  0
  -27.5580  -32.1900   25.6290 C   0  0  0  0  0  1  0  0  0  0  0  0
  1 48  1  0
  2  8  1  0
  3  8  1  0
  4  5  1  0
  4  3  1  0
  6  5  1  0
  6 18  1  0
  6  7  1  0
  8  7  1  0
  9  2  2  0
 10 14  1  0
 12 43  1  0
 12 10  1  0
 12 13  1  0
 13  1  1  0
 13 11  1  0
 14  2  1  0
 14 11  1  0
 15 16  2  0
 16 35  1  0
 17 16  1  0
 17 20  1  0
 18 15  1  0
 18 19  1  0
 19 17  2  0
 20 21  1  0
 21 22  2  0
 23 26  1  0
 23 22  1  0
 24 23  2  0
 25 24  1  0
 25 20  2  0
 26 27  1  0
 27 32  2  0
 27 28  1  0
 28 29  2  0
 29 30  1  0
 30 34  1  0
 31 30  2  0
 32 31  1  0
 33 32  1  0
 35 36  1  0
 36 39  1  0
 36 38  1  0
 37 35  2  0
 40 41  1  0
 40 15  1  0
 42 40  1  0
 43 45  2  0
 44 43  1  0
 46 44  1  0
 47 44  1  0
 49 48  1  0
 49 50  1  0
 50 51  1  0
 52 53  1  0
 52 51  1  0
 54 56  1  0
 54 53  1  0
 55 66  2  0
 56 61  1  0
 57 65  1  0
 57 67  1  0
 58 64  1  0
 58 60  1  0
 59 65  1  0
 60 59  1  0
 61 60  2  0
 62 63  1  0
 62 56  2  0
 63 58  2  0
 64 57  1  0
 65 55  1  0
 67 69  2  0
 68 67  1  0
 70 68  1  0
 71 80  2  0
 71 76  1  0
 72 68  1  0
 72 76  1  0
 73 72  1  0
 74 75  1  0
 74 73  1  0
 75 71  1  0
 76 77  2  0
 77 78  1  0
 79 78  2  0
 80 79  1  0
 81 55  1  0
 81 82  1  0
 81 91  1  0
 82 85  1  0
 83 87  1  0
 83 82  1  0
 84 83  2  0
 87 86  1  0
 89 87  1  0
 89 90  1  0
 89 88  1  0
 91 94  1  1
 91 92  1  0
 93 91  1  0
M  ISO  4   2 100  14 100  53 101  54 101
M  END
>  <TORSDO>  (34) 
F 23

>  <SCORE>  (34) 
-11.523

>  <name>  (34) 
34

>  <ligand_id>  (34) 
34

>  <original_smiles>  (34) 
[H]c1c([H])c([H])c2c(c1[H])C([H])([H])C([H])([H])C([H])([H])C2([H])N([H])C(=O)C1([H])N(C(=O)C([H])(N([H])C(=O)C([H])(N([H])C([H])([H])[H])C([H])([H])[H])C(C([H])([H])[H])(C([H])([H])[H])C([H])([H])[H])C([H])([H])c2c([H])c(OC([H])([H])C([H])([H])C([H])([H])C([H])([H])C([H])([H])C([H])([H])C([H])([H])C3([H])C([H])([H])N(C(=O)N4C([H])([H])C([H])([H])C([H])([H])C([H])(n5nc(-c6c([H])c([H])c(Oc7c([H])c([H])c(F)c([H])c7F)c([H])c6[H])c(C(=O)N([H])[H])c5N([H])[H])C4([H])[H])C([H])([H])C3([H])C(=O)N([H])[H])c([H])c([H])c2C1([H])[H]

>  <smiles>  (34) 
[H]c1c([H])c([H])c2c(c1[H])C([H])([H])C([H])([H])C([H])([H])C2([H])N([H])C(=O)C1([H])N(C(=O)C([H])(N([H])C(=O)C([H])(N([H])C([H])([H])[H])C([H])([H])[H])C(C([H])([H])[H])(C([H])([H])[H])C([H])([H])[H])C([H])([H])c2c([H])c(OC([H])([H])C([H])([H])C([H])([H])C([H])([H])C([H])([H])C([H])([H])C([H])([H])C3([H])C([H])([H])N(C(=O)N4C([H])([H])C([H])([H])C([H])([H])C([H])(n5nc(-c6c([H])c([H])c(Oc7c([H])c([H])c(F)c([H])c7F)c([H])c6[H])c(C(=O)N([H])[H])c5N([H])[H])C4([H])[H])C([H])([H])C3([H])C(=O)N([H])[H])c([H])c([H])c2C1([H])[H]

$$$$
35:0:0
     RDKit          3D

 91 99  0  0  1  0  0  0  0  0999 V2000
  -29.1300  -21.3680   21.1350 C   0  0  0  0  0  3  0  0  0  0  0  0
  -28.8210  -22.5010   19.0160 C   0  0  0  0  0  3  0  0  0  0  0  0
  -28.8070  -23.8050   21.0790 C   0  0  0  0  0  3  0  0  0  0  0  0
  -29.0730  -21.2520   19.7330 C   0  0  0  0  0  0  0  0  0  0  0  0
  -29.0330  -22.6090   21.7910 C   0  0  0  0  0  0  0  0  0  0  0  0
  -28.6740  -23.7970   19.6790 C   0  0  0  0  0  0  0  0  0  0  0  0
  -29.2200  -22.6230   23.2880 C   0  0  0  0  0  1  0  0  0  0  0  0
  -29.1510  -19.8130   19.1360 C   0  0  0  0  0  0  0  0  0  0  0  0
  -28.7510  -19.6030   17.9850 O   0  0  0  0  0  0  0  0  0  0  0  0
  -29.7500  -18.5540   19.9350 C   0  0  0  0  0  3  0  0  0  0  0  0
  -29.1360  -17.0720   19.7450 C   0  0  0  0  0  3  0  0  0  0  0  0
  -30.3770  -14.7800   19.9790 C   0  0  0  0  0  0  0  0  0  0  0  0
  -30.0860  -12.5310   18.9420 C   0  0  0  0  0  2  0  0  0  0  0  0
  -29.0440  -12.5320   17.7980 C   0  0  0  0  0  2  0  0  0  0  0  0
  -27.6260  -12.3450   18.3590 C   0  0  0  0  0  2  0  0  0  0  0  0
  -27.3430  -13.2520   19.5800 C   0  0  0  0  0  3  0  0  0  0  0  0
  -28.4960  -13.1930   20.6120 C   0  0  0  0  0  2  0  0  0  0  0  0
  -29.7380  -13.5640   19.9330 N   0  0  0  0  0  0  0  0  0  0  0  0
  -31.4850  -14.9400   19.4660 O   0  0  0  0  0  0  0  0  0  0  0  0
  -29.7100  -15.8680   20.4870 N   0  0  0  0  0  0  0  0  0  0  0  0
  -30.1000  -16.1010   21.3900 H   0  0  0  0  0  0  0  0  0  0  0  0
  -25.0220  -13.7690   20.5440 C   0  0  0  0  0  0  0  0  0  0  0  0
  -23.9970  -12.9610   20.9660 C   0  0  0  0  0  0  0  0  0  0  0  0
  -24.4810  -11.6280   20.8390 C   0  0  0  0  0  0  0  0  0  0  0  0
  -26.0580  -12.9280   20.1870 N   0  0  0  0  0  0  0  0  0  0  0  0
  -25.7400  -11.6260   20.4260 N   0  0  0  0  0  0  0  0  0  0  0  0
  -23.7980  -10.3360   21.0240 C   0  0  0  0  0  0  0  0  0  0  0  0
  -24.2900   -9.3670   21.9210 C   0  0  0  0  0  3  0  0  0  0  0  0
  -23.6090   -8.1460   22.1060 C   0  0  0  0  0  3  0  0  0  0  0  0
  -22.4140   -7.8840   21.3820 C   0  0  0  0  0  0  0  0  0  0  0  0
  -21.9420   -8.8490   20.4750 C   0  0  0  0  0  3  0  0  0  0  0  0
  -22.6310  -10.0630   20.2960 C   0  0  0  0  0  3  0  0  0  0  0  0
  -21.7000   -6.7130   21.4660 O   0  0  0  0  0  0  0  0  0  0  0  0
  -21.6810   -5.9690   22.6160 C   0  0  0  0  0  0  0  0  0  0  0  0
  -21.1980   -6.4880   23.8400 C   0  0  0  0  0  3  0  0  0  0  0  0
  -21.1190   -5.6530   24.9730 C   0  0  0  0  0  3  0  0  0  0  0  0
  -21.5460   -4.3150   24.8900 C   0  0  0  0  0  0  0  0  0  0  0  0
  -22.0330   -3.8000   23.6800 C   0  0  0  0  0  3  0  0  0  0  0  0
  -22.1000   -4.6230   22.5440 C   0  0  0  0  0  0  0  0  0  0  0  0
  -22.5380   -4.1190   21.3660 F   0  0  0  0  0  0  0  0  0  0  0  0
  -21.4700   -3.5160   25.9800 F   0  0  0  0  0  0  0  0  0  0  0  0
  -22.6160  -13.3940   21.3470 C   0  0  0  0  0  0  0  0  0  0  0  0
  -21.9800  -12.6440   22.2440 N   0  0  0  0  0  0  0  0  0  0  0  0
  -22.1240  -14.4320   20.9120 O   0  0  0  0  0  0  0  0  0  0  0  0
  -22.4120  -11.8020   22.5820 H   0  0  0  0  0  0  0  0  0  0  0  0
  -21.0680  -12.9170   22.5720 H   0  0  0  0  0  0  0  0  0  0  0  0
  -25.1480  -15.1440   20.4240 N   0  0  0  0  0  0  0  0  0  0  0  0
  -24.4070  -15.7680   20.7190 H   0  0  0  0  0  0  0  0  0  0  0  0
  -25.9690  -15.6380   20.0920 H   0  0  0  0  0  0  0  0  0  0  0  0
  -28.2520  -25.1170   18.9130 C   0  0  0  0  0  2  0  0  0  0  0  0
  -28.2720  -26.4760   19.5850 O   0  0  0  0  0  0  0  0  0  0  0  0
  -24.6360  -31.7420   23.1390 C   0  0  0  0  0  0  0  0  0  0  0  0
  -27.1590  -27.3530   19.6510 C   0  0  0  0  0  0  0  0  0  0  0  0
  -23.3920  -30.4170   21.4790 C   0  0  0  0  0  3  0  0  0  0  0  0
  -24.7950  -28.9800   19.8940 C   0  0  0  0  0  0  0  0  0  0  0  0
  -25.9260  -30.7590   21.2180 C   0  0  0  0  0  2  0  0  0  0  0  0
  -25.9830  -29.4220   20.4830 C   0  0  0  0  0  0  0  0  0  0  0  0
  -27.1690  -28.6120   20.3600 C   0  0  0  0  0  3  0  0  0  0  0  0
  -25.9280  -27.0070   19.0450 C   0  0  0  0  0  3  0  0  0  0  0  0
  -24.7710  -27.7810   19.1810 C   0  0  0  0  0  3  0  0  0  0  0  0
  -23.5600  -29.8370   20.0520 C   0  0  0  0  0  2  0  0  0  0  0  0
  -24.6720  -30.9950   21.9970 N   0  0  0  0  0  0  0  0  0  0  0  0
  -23.5690  -31.9670   23.7280 O   0  0  0  0  0  0  0  0  0  0  0  0
  -22.7820  -29.3340   22.4050 C   0  0  0  0  0  0  0  0  0  0  0  0
  -21.4670  -29.0850   22.2640 N   0  0  0  0  0  0  0  0  0  0  0  0
  -23.4950  -28.7180   23.2010 O   0  0  0  0  0  0  0  0  0  0  0  0
  -20.9540  -29.6300   21.5880 H   0  0  0  0  0  0  0  0  0  0  0  0
  -18.1720  -27.6300   22.6630 C   0  0  0  0  0  0  0  0  0  0  0  0
  -20.6990  -28.0790   23.0020 C   0  0  0  0  0  3  0  0  0  0  0  0
  -20.9230  -26.6700   22.4080 C   0  0  0  0  0  2  0  0  0  0  0  0
  -19.8720  -26.2790   21.3640 C   0  0  0  0  0  2  0  0  0  0  0  0
  -18.4680  -26.3070   21.9770 C   0  0  0  0  0  2  0  0  0  0  0  0
  -19.2190  -28.4700   23.1310 C   0  0  0  0  0  0  0  0  0  0  0  0
  -18.8910  -29.7030   23.7320 C   0  0  0  0  0  3  0  0  0  0  0  0
  -17.5480  -30.1010   23.8730 C   0  0  0  0  0  3  0  0  0  0  0  0
  -16.5160  -29.2600   23.4240 C   0  0  0  0  0  3  0  0  0  0  0  0
  -16.8280  -28.0280   22.8250 C   0  0  0  0  0  3  0  0  0  0  0  0
  -25.9280  -32.3640   23.7500 C   0  0  0  0  0  3  0  0  0  0  0  0
  -26.4730  -31.5640   24.9950 C   0  0  1  0  0  0  0  0  0  0  0  0
  -25.4090  -31.2890   26.0840 C   0  0  0  0  0  1  0  0  0  0  0  0
  -27.0530  -30.1990   24.5550 C   0  0  0  0  0  1  0  0  0  0  0  0
  -27.6380  -32.3470   25.6440 C   0  0  0  0  0  1  0  0  0  0  0  0
  -25.6170  -33.7530   24.1250 N   0  0  0  0  0  0  0  0  0  0  0  0
  -25.9240  -34.8300   23.3890 C   0  0  0  0  0  0  0  0  0  0  0  0
  -26.5680  -34.7570   22.3360 O   0  0  0  0  0  0  0  0  0  0  0  0
  -25.0430  -33.8810   24.9450 H   0  0  0  0  0  0  0  0  0  0  0  0
  -24.1770  -36.6210   23.1360 C   0  0  0  0  0  1  0  0  0  0  0  0
  -25.4460  -36.2030   23.8970 C   0  0  0  0  0  3  0  0  0  0  0  0
  -27.5960  -37.0840   24.6930 C   0  0  0  0  0  1  0  0  0  0  0  0
  -26.4700  -37.2640   23.7780 N   0  0  0  0  0  0  0  0  0  0  0  0
  -26.0640  -38.1790   23.9520 H   0  0  0  0  0  0  0  0  0  0  0  0
  1  5  1  0
  2  6  2  0
  2  4  1  0
  3  5  2  0
  4  1  2  0
  5  7  1  0
  6  3  1  0
  8  4  1  0
  8 10  1  0
  9  8  2  0
 11 10  2  0
 11 20  1  0
 12 20  1  0
 13 18  1  0
 14 15  1  0
 14 13  1  0
 16 15  1  0
 16 25  1  0
 16 17  1  0
 18 12  1  0
 18 17  1  0
 19 12  2  0
 20 21  1  0
 22 23  2  0
 23 42  1  0
 24 23  1  0
 24 27  1  0
 25 26  1  0
 25 22  1  0
 26 24  2  0
 27 28  1  0
 28 29  2  0
 30 33  1  0
 30 29  1  0
 31 30  2  0
 32 31  1  0
 32 27  2  0
 33 34  1  0
 34 35  1  0
 35 36  2  0
 37 36  1  0
 37 41  1  0
 38 37  2  0
 39 34  2  0
 39 38  1  0
 40 39  1  0
 42 43  1  0
 43 46  1  0
 43 45  1  0
 44 42  2  0
 47 22  1  0
 47 48  1  0
 49 47  1  0
 50 51  1  0
 50  6  1  0
 51 53  1  0
 52 63  2  0
 53 58  1  0
 54 62  1  0
 54 64  1  0
 55 61  1  0
 55 57  1  0
 56 62  1  0
 57 56  1  0
 58 57  2  0
 59 60  1  0
 59 53  2  0
 60 55  2  0
 61 54  1  0
 62 52  1  0
 64 66  2  0
 65 64  1  0
 67 65  1  0
 68 77  2  0
 68 73  1  0
 69 65  1  0
 69 73  1  0
 70 69  1  0
 71 72  1  0
 71 70  1  0
 72 68  1  0
 73 74  2  0
 74 75  1  0
 76 75  2  0
 77 76  1  0
 78 52  1  0
 78 83  1  0
 78 79  1  0
 79 82  1  1
 79 80  1  0
 81 79  1  0
 83 86  1  0
 84 88  1  0
 84 83  1  0
 85 84  2  0
 88 87  1  0
 90 88  1  0
 90 91  1  0
 90 89  1  0
M  ISO  4  12 100  20 100  50 101  51 101
M  END
>  <TORSDO>  (35) 
F 20

>  <SCORE>  (35) 
-13.194

>  <name>  (35) 
35

>  <ligand_id>  (35) 
35

>  <original_smiles>  (35) 
[H]c1c([H])c([H])c2c(c1[H])C([H])([H])C([H])([H])C([H])([H])C2([H])N([H])C(=O)C1([H])N(C(=O)C([H])(N([H])C(=O)C([H])(N([H])C([H])([H])[H])C([H])([H])[H])C(C([H])([H])[H])(C([H])([H])[H])C([H])([H])[H])C([H])([H])c2c([H])c(OC([H])([H])c3c([H])c(C(=O)C([H])([H])C([H])([H])N([H])C(=O)N4C([H])([H])C([H])([H])C([H])([H])C([H])(n5nc(-c6c([H])c([H])c(Oc7c([H])c([H])c(F)c([H])c7F)c([H])c6[H])c(C(=O)N([H])[H])c5N([H])[H])C4([H])[H])c([H])c(C([H])([H])[H])c3[H])c([H])c([H])c2C1([H])[H]

>  <smiles>  (35) 
[H]c1c([H])c([H])c2c(c1[H])C([H])([H])C([H])([H])C([H])([H])C2([H])N([H])C(=O)C1([H])N(C(=O)C([H])(N([H])C(=O)C([H])(N([H])C([H])([H])[H])C([H])([H])[H])C(C([H])([H])[H])(C([H])([H])[H])C([H])([H])[H])C([H])([H])c2c([H])c(OC([H])([H])c3c([H])c(C(=O)C([H])([H])C([H])([H])N([H])C(=O)N4C([H])([H])C([H])([H])C([H])([H])C([H])(n5nc(-c6c([H])c([H])c(Oc7c([H])c([H])c(F)c([H])c7F)c([H])c6[H])c(C(=O)N([H])[H])c5N([H])[H])C4([H])[H])c([H])c(C([H])([H])[H])c3[H])c([H])c([H])c2C1([H])[H]

$$$$
36:0:0
     RDKit          3D

 98107  0  0  1  0  0  0  0  0999 V2000
  -25.7930  -20.6890   17.9380 C   0  0  0  0  0  2  0  0  0  0  0  0
  -28.2720  -17.7300   18.1380 C   0  0  0  0  0  3  0  0  0  0  0  0
  -27.1910  -18.5490   17.7250 C   0  0  0  0  0  3  0  0  0  0  0  0
  -27.6680  -20.0630   19.5580 C   0  0  0  0  0  3  0  0  0  0  0  0
  -29.0610  -18.0300   19.2750 C   0  0  0  0  0  0  0  0  0  0  0  0
  -26.9260  -19.7620   18.4020 C   0  0  0  0  0  0  0  0  0  0  0  0
  -28.7030  -19.2150   20.0110 C   0  0  0  0  0  0  0  0  0  0  0  0
  -29.3460  -19.6500   21.3250 C   0  0  0  0  0  1  0  0  0  0  0  0
  -30.7600  -14.6200   19.9850 C   0  0  0  0  0  0  0  0  0  0  0  0
  -30.3760  -12.4020   18.9650 C   0  0  0  0  0  2  0  0  0  0  0  0
  -29.4100  -12.6280   17.7940 C   0  0  0  0  0  2  0  0  0  0  0  0
  -27.9380  -12.5660   18.2610 C   0  0  0  0  0  2  0  0  0  0  0  0
  -27.6670  -13.3430   19.5810 C   0  0  0  0  0  3  0  0  0  0  0  0
  -28.7880  -13.1760   20.6340 C   0  0  0  0  0  2  0  0  0  0  0  0
  -30.0630  -13.4440   19.9640 N   0  0  0  0  0  0  0  0  0  0  0  0
  -31.9220  -14.6470   19.5580 O   0  0  0  0  0  0  0  0  0  0  0  0
  -31.5140  -17.2620   21.5340 C   0  0  0  0  0  2  0  0  0  0  0  0
  -31.5340  -17.7440   20.0850 C   0  0  0  0  0  2  0  0  0  0  0  0
  -30.2790  -16.3070   21.6140 C   0  0  0  0  0  2  0  0  0  0  0  0
  -30.2840  -17.0800   19.4790 C   0  0  0  0  0  3  0  0  0  0  0  0
  -30.0960  -15.7920   20.2550 N   0  0  0  0  0  0  0  0  0  0  0  0
  -25.3260  -13.9290   20.4470 C   0  0  0  0  0  0  0  0  0  0  0  0
  -24.2640  -13.1460   20.8410 C   0  0  0  0  0  0  0  0  0  0  0  0
  -24.7030  -11.7980   20.7420 C   0  0  0  0  0  0  0  0  0  0  0  0
  -26.3420  -13.0390   20.1270 N   0  0  0  0  0  0  0  0  0  0  0  0
  -25.9790  -11.7510   20.3730 N   0  0  0  0  0  0  0  0  0  0  0  0
  -23.9600  -10.5370   20.9310 C   0  0  0  0  0  0  0  0  0  0  0  0
  -24.3790   -9.5640   21.8630 C   0  0  0  0  0  3  0  0  0  0  0  0
  -23.6340   -8.3770   22.0450 C   0  0  0  0  0  3  0  0  0  0  0  0
  -22.4520   -8.1600   21.2960 C   0  0  0  0  0  0  0  0  0  0  0  0
  -22.0490   -9.1250   20.3580 C   0  0  0  0  0  3  0  0  0  0  0  0
  -22.7930  -10.3030   20.1760 C   0  0  0  0  0  3  0  0  0  0  0  0
  -21.6800   -7.0270   21.3860 O   0  0  0  0  0  0  0  0  0  0  0  0
  -21.5800   -6.3080   22.5520 C   0  0  0  0  0  0  0  0  0  0  0  0
  -21.1210   -6.8960   23.7490 C   0  0  0  0  0  3  0  0  0  0  0  0
  -20.9680   -6.1050   24.9080 C   0  0  0  0  0  3  0  0  0  0  0  0
  -21.2640   -4.7300   24.8670 C   0  0  0  0  0  0  0  0  0  0  0  0
  -21.7110   -4.1410   23.6740 C   0  0  0  0  0  3  0  0  0  0  0  0
  -21.8670   -4.9280   22.5160 C   0  0  0  0  0  0  0  0  0  0  0  0
  -22.2800   -4.3500   21.3630 F   0  0  0  0  0  0  0  0  0  0  0  0
  -21.1100   -3.9710   25.9760 F   0  0  0  0  0  0  0  0  0  0  0  0
  -22.8890  -13.6470   21.1860 C   0  0  0  0  0  0  0  0  0  0  0  0
  -22.1950  -12.9350   22.0800 N   0  0  0  0  0  0  0  0  0  0  0  0
  -22.4290  -14.6760   20.7100 O   0  0  0  0  0  0  0  0  0  0  0  0
  -22.5640  -12.0970   22.4970 H   0  0  0  0  0  0  0  0  0  0  0  0
  -21.2760  -13.2450   22.3580 H   0  0  0  0  0  0  0  0  0  0  0  0
  -25.4900  -15.3000   20.3080 N   0  0  0  0  0  0  0  0  0  0  0  0
  -24.7420  -15.9580   20.5100 H   0  0  0  0  0  0  0  0  0  0  0  0
  -26.3420  -15.7680   20.0100 H   0  0  0  0  0  0  0  0  0  0  0  0
  -26.1770  -22.1620   17.4640 C   0  0  0  0  0  3  0  0  0  0  0  0
  -27.1560  -22.8800   18.3900 N   0  0  0  0  0  4  0  0  0  0  0  0
  -26.9520  -22.4870   19.2860 H   0  0  0  0  0  0  0  0  0  0  0  0
  -28.1210  -22.6230   18.2130 H   0  0  0  0  0  0  0  0  0  0  0  0
  -27.0730  -24.3660   18.6150 C   0  0  0  0  0  3  0  0  0  0  0  0
  -28.2110  -25.1000   19.4230 C   0  0  0  0  0  3  0  0  0  0  0  0
  -28.2350  -26.5650   19.7750 O   0  0  0  0  0  0  0  0  0  0  0  0
  -24.5860  -31.9130   23.2320 C   0  0  0  0  0  0  0  0  0  0  0  0
  -27.1030  -27.3680   20.0030 C   0  0  0  0  0  0  0  0  0  0  0  0
  -23.3660  -30.5420   21.6140 C   0  0  0  0  0  3  0  0  0  0  0  0
  -24.7740  -29.0250   20.1820 C   0  0  0  0  0  0  0  0  0  0  0  0
  -25.9180  -30.8620   21.3740 C   0  0  0  0  0  2  0  0  0  0  0  0
  -25.9830  -29.4850   20.7110 C   0  0  0  0  0  0  0  0  0  0  0  0
  -27.1600  -28.6690   20.6150 C   0  0  0  0  0  3  0  0  0  0  0  0
  -25.8330  -26.9580   19.5670 C   0  0  0  0  0  3  0  0  0  0  0  0
  -24.6990  -27.7510   19.6540 C   0  0  0  0  0  3  0  0  0  0  0  0
  -23.5450  -29.9180   20.2300 C   0  0  0  0  0  2  0  0  0  0  0  0
  -24.6590  -31.1090   22.1390 N   0  0  0  0  0  0  0  0  0  0  0  0
  -23.5040  -32.1920   23.7690 O   0  0  0  0  0  0  0  0  0  0  0  0
  -22.7110  -29.5020   22.5720 C   0  0  0  0  0  0  0  0  0  0  0  0
  -21.3860  -29.2950   22.4330 N   0  0  0  0  0  0  0  0  0  0  0  0
  -23.3980  -28.8690   23.3870 O   0  0  0  0  0  0  0  0  0  0  0  0
  -20.8800  -29.8410   21.7520 H   0  0  0  0  0  0  0  0  0  0  0  0
  -18.0350  -28.0590   22.9410 C   0  0  0  0  0  0  0  0  0  0  0  0
  -20.5870  -28.3520   23.2190 C   0  0  0  0  0  3  0  0  0  0  0  0
  -20.7120  -26.9230   22.6430 C   0  0  0  0  0  2  0  0  0  0  0  0
  -19.6120  -26.5820   21.6310 C   0  0  0  0  0  2  0  0  0  0  0  0
  -18.2290  -26.7110   22.2730 C   0  0  0  0  0  2  0  0  0  0  0  0
  -19.1420  -28.8380   23.3740 C   0  0  0  0  0  0  0  0  0  0  0  0
  -18.9080  -30.1060   23.9480 C   0  0  0  0  0  3  0  0  0  0  0  0
  -17.5940  -30.5940   24.1010 C   0  0  0  0  0  3  0  0  0  0  0  0
  -16.5030  -29.8090   23.6910 C   0  0  0  0  0  3  0  0  0  0  0  0
  -16.7240  -28.5480   23.1150 C   0  0  0  0  0  3  0  0  0  0  0  0
  -25.8670  -32.5580   23.8360 C   0  0  0  0  0  3  0  0  0  0  0  0
  -25.5400  -33.9510   24.1690 N   0  0  0  0  0  0  0  0  0  0  0  0
  -25.8560  -35.0120   23.4250 C   0  0  0  0  0  0  0  0  0  0  0  0
  -26.5220  -34.9290   22.3880 O   0  0  0  0  0  0  0  0  0  0  0  0
  -24.9310  -34.0840   24.9660 H   0  0  0  0  0  0  0  0  0  0  0  0
  -24.0950  -36.7770   23.1150 C   0  0  0  0  0  1  0  0  0  0  0  0
  -25.3580  -36.3870   23.8980 C   0  0  0  0  0  3  0  0  0  0  0  0
  -27.4930  -37.2930   24.6980 C   0  0  0  0  0  1  0  0  0  0  0  0
  -26.3740  -37.4550   23.7750 N   0  0  0  0  0  0  0  0  0  0  0  0
  -25.9610  -38.3690   23.9500 H   0  0  0  0  0  0  0  0  0  0  0  0
  -26.3870  -31.7900   25.1120 C   0  0  1  0  0  0  0  0  0  0  0  0
  -25.2910  -31.5660   26.1830 C   0  0  0  0  0  1  0  0  0  0  0  0
  -26.9670  -30.4110   24.7180 C   0  0  0  0  0  1  0  0  0  0  0  0
  -27.5270  -32.6030   25.7750 C   0  0  0  0  0  1  0  0  0  0  0  0
  -23.7080  -22.3530   16.4600 C   0  0  0  0  0  1  0  0  0  0  0  0
  -24.9310  -23.0510   17.0930 C   0  0  0  0  0  2  0  0  0  0  0  0
  1  6  1  0
  2  5  1  0
  3  2  2  0
  3  6  1  0
  4  7  1  0
  5  7  2  0
  6  4  2  0
  7  8  1  0
  9 21  1  0
 10 15  1  0
 11 12  1  0
 11 10  1  0
 13 12  1  0
 13 25  1  0
 13 14  1  0
 15  9  1  0
 15 14  1  0
 16  9  2  0
 17 19  1  0
 18 17  1  0
 20  5  1  0
 20 18  1  0
 20 21  1  0
 21 19  1  0
 22 23  2  0
 23 42  1  0
 24 23  1  0
 24 27  1  0
 25 26  1  0
 25 22  1  0
 26 24  2  0
 27 28  1  0
 28 29  2  0
 30 33  1  0
 30 29  1  0
 31 30  2  0
 32 31  1  0
 32 27  2  0
 33 34  1  0
 34 35  1  0
 35 36  2  0
 37 36  1  0
 37 41  1  0
 38 37  2  0
 39 34  2  0
 39 38  1  0
 40 39  1  0
 42 43  1  0
 43 46  1  0
 43 45  1  0
 44 42  2  0
 47 22  1  0
 47 48  1  0
 49 47  1  0
 50 98  1  0
 50  1  1  0
 50 51  1  0
 51 54  1  0
 51 52  1  0
 53 51  1  0
 54 55  2  0
 55 56  1  0
 56 58  1  0
 57 68  2  0
 58 63  1  0
 59 67  1  0
 59 69  1  0
 60 66  1  0
 60 62  1  0
 61 67  1  0
 62 61  1  0
 63 62  2  0
 64 65  1  0
 64 58  2  0
 65 60  2  0
 66 59  1  0
 67 57  1  0
 69 71  2  0
 70 69  1  0
 72 70  1  0
 73 82  2  0
 73 78  1  0
 74 70  1  0
 74 78  1  0
 75 74  1  0
 76 77  1  0
 76 75  1  0
 77 73  1  0
 78 79  2  0
 79 80  1  0
 81 80  2  0
 82 81  1  0
 83 57  1  0
 83 84  1  0
 83 93  1  0
 84 87  1  0
 85 89  1  0
 85 84  1  0
 86 85  2  0
 89 88  1  0
 91 89  1  0
 91 92  1  0
 91 90  1  0
 93 96  1  1
 93 94  1  0
 95 93  1  0
 97 98  1  0
M  ISO  4   9 100  21 100  55 101  56 101
M  END
>  <TORSDO>  (36) 
F 22

>  <SCORE>  (36) 
-12.662

>  <name>  (36) 
36

>  <ligand_id>  (36) 
36

>  <original_smiles>  (36) 
[H]c1c([H])c([H])c2c(c1[H])C([H])([H])C([H])([H])C([H])([H])C2([H])N([H])C(=O)C1([H])N(C(=O)C([H])(N([H])C(=O)C([H])(N([H])C([H])([H])[H])C([H])([H])[H])C(C([H])([H])[H])(C([H])([H])[H])C([H])([H])[H])C([H])([H])c2c([H])c(OC([H])([H])C([H])([H])[N+]([H])([H])C([H])(C([H])([H])c3c([H])c([H])c(C4([H])N(C(=O)N5C([H])([H])C([H])([H])C([H])([H])C([H])(n6nc(-c7c([H])c([H])c(Oc8c([H])c([H])c(F)c([H])c8F)c([H])c7[H])c(C(=O)N([H])[H])c6N([H])[H])C5([H])[H])C([H])([H])C([H])([H])C4([H])[H])c(C([H])([H])[H])c3[H])C([H])([H])C([H])([H])[H])c([H])c([H])c2C1([H])[H]

>  <smiles>  (36) 
[H]c1c([H])c([H])c2c(c1[H])C([H])([H])C([H])([H])C([H])([H])C2([H])N([H])C(=O)C1([H])N(C(=O)C([H])(N([H])C(=O)C([H])(N([H])C([H])([H])[H])C([H])([H])[H])C(C([H])([H])[H])(C([H])([H])[H])C([H])([H])[H])C([H])([H])c2c([H])c(OC([H])([H])C([H])([H])[N+]([H])([H])C([H])(C([H])([H])c3c([H])c([H])c(C4([H])N(C(=O)N5C([H])([H])C([H])([H])C([H])([H])C([H])(n6nc(-c7c([H])c([H])c(Oc8c([H])c([H])c(F)c([H])c8F)c([H])c7[H])c(C(=O)N([H])[H])c6N([H])[H])C5([H])[H])C([H])([H])C([H])([H])C4([H])[H])c(C([H])([H])[H])c3[H])C([H])([H])C([H])([H])[H])c([H])c([H])c2C1([H])[H]

$$$$
37:0:0
     RDKit          3D

 95103  0  0  1  0  0  0  0  0999 V2000
  -29.4460  -22.4550   19.9380 C   0  0  0  0  0  2  0  0  0  0  0  0
  -28.6820  -23.8070   19.8960 C   0  0  0  0  0  2  0  0  0  0  0  0
  -29.4230  -23.8310   22.3380 C   0  0  0  0  0  2  0  0  0  0  0  0
  -29.0720  -21.5990   21.1650 C   0  0  0  0  0  3  0  0  0  0  0  0
  -28.4850  -24.5110   21.2810 C   0  0  2  0  0  0  0  0  0  0  0  0
  -29.3520  -22.3430   22.4160 N   0  0  0  0  0  4  0  0  0  0  0  0
  -28.6780  -22.0700   23.1140 H   0  0  0  0  0  0  0  0  0  0  0  0
  -30.2430  -21.9900   22.7360 H   0  0  0  0  0  0  0  0  0  0  0  0
  -29.8550  -20.2570   21.2440 C   0  0  0  0  0  0  0  0  0  0  0  0
  -30.8390  -20.1140   21.9760 O   0  0  0  0  0  0  0  0  0  0  0  0
  -29.3480  -19.0830   20.3810 C   0  0  0  0  0  2  0  0  0  0  0  0
  -30.2930  -17.8570   20.1830 C   0  0  0  0  0  2  0  0  0  0  0  0
  -30.4760  -16.8990   21.3950 C   0  0  0  0  0  2  0  0  0  0  0  0
  -30.7130  -14.5620   20.4370 C   0  0  0  0  0  0  0  0  0  0  0  0
  -30.4200  -12.4400   19.2040 C   0  0  0  0  0  2  0  0  0  0  0  0
  -29.4700  -12.6640   18.0090 C   0  0  0  0  0  2  0  0  0  0  0  0
  -27.9970  -12.5080   18.4370 C   0  0  0  0  0  2  0  0  0  0  0  0
  -27.6610  -13.3110   19.7220 C   0  0  0  0  0  3  0  0  0  0  0  0
  -28.7180  -13.0590   20.8200 C   0  0  0  0  0  2  0  0  0  0  0  0
  -30.0420  -13.3900   20.2630 N   0  0  0  0  0  0  0  0  0  0  0  0
  -31.8090  -14.7920   19.9210 O   0  0  0  0  0  0  0  0  0  0  0  0
  -30.0530  -15.5110   21.1330 N   0  0  0  0  0  0  0  0  0  0  0  0
  -29.1680  -15.2270   21.5270 H   0  0  0  0  0  0  0  0  0  0  0  0
  -25.2490  -13.8940   20.4080 C   0  0  0  0  0  0  0  0  0  0  0  0
  -24.1880  -13.1130   20.7790 C   0  0  0  0  0  0  0  0  0  0  0  0
  -24.6660  -11.7670   20.7640 C   0  0  0  0  0  0  0  0  0  0  0  0
  -26.3070  -13.0250   20.1940 N   0  0  0  0  0  0  0  0  0  0  0  0
  -25.9590  -11.7410   20.4630 N   0  0  0  0  0  0  0  0  0  0  0  0
  -23.9560  -10.4980   20.9640 C   0  0  0  0  0  0  0  0  0  0  0  0
  -24.3860   -9.5530   21.9210 C   0  0  0  0  0  3  0  0  0  0  0  0
  -23.6760   -8.3480   22.1090 C   0  0  0  0  0  3  0  0  0  0  0  0
  -22.5210   -8.0780   21.3380 C   0  0  0  0  0  0  0  0  0  0  0  0
  -22.1090   -9.0120   20.3700 C   0  0  0  0  0  3  0  0  0  0  0  0
  -22.8200  -10.2090   20.1820 C   0  0  0  0  0  3  0  0  0  0  0  0
  -21.7830   -6.9240   21.4330 O   0  0  0  0  0  0  0  0  0  0  0  0
  -21.7160   -6.2050   22.5990 C   0  0  0  0  0  0  0  0  0  0  0  0
  -21.2410   -6.7760   23.8000 C   0  0  0  0  0  3  0  0  0  0  0  0
  -21.1250   -5.9820   24.9580 C   0  0  0  0  0  3  0  0  0  0  0  0
  -21.4720   -4.6180   24.9160 C   0  0  0  0  0  0  0  0  0  0  0  0
  -21.9400   -4.0470   23.7210 C   0  0  0  0  0  3  0  0  0  0  0  0
  -22.0590   -4.8380   22.5640 C   0  0  0  0  0  0  0  0  0  0  0  0
  -22.4900   -4.2780   21.4090 F   0  0  0  0  0  0  0  0  0  0  0  0
  -21.3530   -3.8540   26.0270 F   0  0  0  0  0  0  0  0  0  0  0  0
  -22.7850  -13.5750   21.0430 C   0  0  0  0  0  0  0  0  0  0  0  0
  -22.0610  -12.8750   21.9110 N   0  0  0  0  0  0  0  0  0  0  0  0
  -22.3370  -14.5930   20.5150 O   0  0  0  0  0  0  0  0  0  0  0  0
  -22.4370  -12.0530   22.3590 H   0  0  0  0  0  0  0  0  0  0  0  0
  -21.1190  -13.1660   22.1290 H   0  0  0  0  0  0  0  0  0  0  0  0
  -25.3980  -15.2650   20.2160 N   0  0  0  0  0  0  0  0  0  0  0  0
  -24.6210  -15.9110   20.3030 H   0  0  0  0  0  0  0  0  0  0  0  0
  -26.2470  -15.7080   19.8850 H   0  0  0  0  0  0  0  0  0  0  0  0
  -26.2020  -23.1790   21.7260 C   0  0  0  0  0  1  0  0  0  0  0  0
  -27.0010  -24.4940   21.7740 C   0  0  0  0  0  2  0  0  0  0  0  0
  -28.8960  -26.0350   21.1750 C   0  0  0  0  0  2  0  0  0  0  0  0
  -28.4500  -26.7380   20.0000 O   0  0  0  0  0  0  0  0  0  0  0  0
  -24.6200  -31.8990   23.1930 C   0  0  0  0  0  0  0  0  0  0  0  0
  -27.3010  -27.4970   20.0810 C   0  0  0  0  0  0  0  0  0  0  0  0
  -23.4320  -30.5090   21.5290 C   0  0  0  0  0  3  0  0  0  0  0  0
  -24.9030  -28.9970   20.0930 C   0  0  0  0  0  0  0  0  0  0  0  0
  -25.9560  -30.8810   21.3500 C   0  0  0  0  0  2  0  0  0  0  0  0
  -26.0540  -29.5140   20.7050 C   0  0  0  0  0  0  0  0  0  0  0  0
  -27.2580  -28.7660   20.7060 C   0  0  0  0  0  3  0  0  0  0  0  0
  -26.1420  -27.0110   19.4430 C   0  0  0  0  0  3  0  0  0  0  0  0
  -24.9400  -27.7420   19.4640 C   0  0  0  0  0  3  0  0  0  0  0  0
  -23.6530  -29.8480   20.1420 C   0  0  0  0  0  2  0  0  0  0  0  0
  -24.6870  -31.1110   22.0830 N   0  0  0  0  0  0  0  0  0  0  0  0
  -23.5340  -32.1570   23.7310 O   0  0  0  0  0  0  0  0  0  0  0  0
  -22.7840  -29.4700   22.4740 C   0  0  0  0  0  0  0  0  0  0  0  0
  -21.4570  -29.2970   22.3530 N   0  0  0  0  0  0  0  0  0  0  0  0
  -23.4710  -28.8250   23.2720 O   0  0  0  0  0  0  0  0  0  0  0  0
  -20.9670  -29.8690   21.6790 H   0  0  0  0  0  0  0  0  0  0  0  0
  -18.0770  -28.1270   22.8710 C   0  0  0  0  0  0  0  0  0  0  0  0
  -20.6410  -28.3470   23.1090 C   0  0  0  0  0  3  0  0  0  0  0  0
  -20.7190  -26.9330   22.4910 C   0  0  0  0  0  2  0  0  0  0  0  0
  -19.5980  -26.6500   21.4860 C   0  0  0  0  0  2  0  0  0  0  0  0
  -18.2280  -26.7940   22.1570 C   0  0  0  0  0  2  0  0  0  0  0  0
  -19.2120  -28.8630   23.3040 C   0  0  0  0  0  0  0  0  0  0  0  0
  -19.0190  -30.1130   23.9310 C   0  0  0  0  0  3  0  0  0  0  0  0
  -17.7230  -30.6250   24.1340 C   0  0  0  0  0  3  0  0  0  0  0  0
  -16.6030  -29.8840   23.7200 C   0  0  0  0  0  3  0  0  0  0  0  0
  -16.7810  -28.6380   23.0930 C   0  0  0  0  0  3  0  0  0  0  0  0
  -25.8990  -32.5320   23.8250 C   0  0  0  0  0  3  0  0  0  0  0  0
  -25.5800  -33.9240   24.1660 N   0  0  0  0  0  0  0  0  0  0  0  0
  -25.9080  -34.9860   23.4170 C   0  0  0  0  0  0  0  0  0  0  0  0
  -26.5830  -34.8970   22.3880 O   0  0  0  0  0  0  0  0  0  0  0  0
  -24.9810  -34.0660   24.9660 H   0  0  0  0  0  0  0  0  0  0  0  0
  -24.1740  -36.7740   23.0690 C   0  0  0  0  0  1  0  0  0  0  0  0
  -25.4100  -36.3660   23.8860 C   0  0  0  0  0  3  0  0  0  0  0  0
  -27.5320  -37.2560   24.7430 C   0  0  0  0  0  1  0  0  0  0  0  0
  -26.4380  -37.4250   23.7920 N   0  0  0  0  0  0  0  0  0  0  0  0
  -26.0250  -38.3410   23.9470 H   0  0  0  0  0  0  0  0  0  0  0  0
  -26.4190  -31.7500   25.0930 C   0  0  1  0  0  0  0  0  0  0  0  0
  -25.3270  -31.4900   26.1580 C   0  0  0  0  0  1  0  0  0  0  0  0
  -27.0160  -30.3820   24.6850 C   0  0  0  0  0  1  0  0  0  0  0  0
  -27.5600  -32.5460   25.7690 C   0  0  0  0  0  1  0  0  0  0  0  0
  1  4  1  0
  2  1  1  0
  2  5  1  0
  3  6  1  0
  4  9  1  0
  4  6  1  0
  5 54  1  6
  5 53  1  0
  5  3  1  0
  6  8  1  0
  6  7  1  0
  9 10  2  0
 11  9  1  0
 12 11  1  0
 12 13  1  0
 14 22  1  0
 15 20  1  0
 16 17  1  0
 16 15  1  0
 18 17  1  0
 18 27  1  0
 18 19  1  0
 20 14  1  0
 20 19  1  0
 21 14  2  0
 22 13  1  0
 22 23  1  0
 24 25  2  0
 25 44  1  0
 26 25  1  0
 26 29  1  0
 27 24  1  0
 27 28  1  0
 28 26  2  0
 29 30  1  0
 30 31  2  0
 32 35  1  0
 32 31  1  0
 33 32  2  0
 34 33  1  0
 34 29  2  0
 35 36  1  0
 36 37  1  0
 37 38  2  0
 39 38  1  0
 39 43  1  0
 40 39  2  0
 41 36  2  0
 41 40  1  0
 42 41  1  0
 44 45  1  0
 45 48  1  0
 45 47  1  0
 46 44  2  0
 49 50  1  0
 49 24  1  0
 51 49  1  0
 52 53  1  0
 55 57  1  0
 55 54  1  0
 56 67  2  0
 57 62  1  0
 58 66  1  0
 58 68  1  0
 59 65  1  0
 59 61  1  0
 60 66  1  0
 61 62  2  0
 61 60  1  0
 63 64  1  0
 63 57  2  0
 64 59  2  0
 65 58  1  0
 66 56  1  0
 68 70  2  0
 69 68  1  0
 71 69  1  0
 72 81  2  0
 72 77  1  0
 73 69  1  0
 73 77  1  0
 74 73  1  0
 75 76  1  0
 75 74  1  0
 76 72  1  0
 77 78  2  0
 78 79  1  0
 80 79  2  0
 81 80  1  0
 82 56  1  0
 82 83  1  0
 82 92  1  0
 83 86  1  0
 84 88  1  0
 84 83  1  0
 85 84  2  0
 88 87  1  0
 90 88  1  0
 90 91  1  0
 90 89  1  0
 92 95  1  1
 92 93  1  0
 94 92  1  0
M  ISO  4  14 100  22 100  54 101  55 101
M  END
>  <TORSDO>  (37) 
F 22

>  <SCORE>  (37) 
-13.537

>  <name>  (37) 
37

>  <ligand_id>  (37) 
37

>  <original_smiles>  (37) 
[H]c1c([H])c([H])c2c(c1[H])C([H])([H])C([H])([H])C([H])([H])C2([H])N([H])C(=O)C1([H])N(C(=O)C([H])(N([H])C(=O)C([H])(N([H])C([H])([H])[H])C([H])([H])[H])C(C([H])([H])[H])(C([H])([H])[H])C([H])([H])[H])C([H])([H])c2c([H])c(OC([H])([H])C3(C([H])([H])C([H])([H])[H])C([H])([H])C([H])([H])C([H])(C(=O)C([H])([H])C([H])([H])C([H])([H])N([H])C(=O)N4C([H])([H])C([H])([H])C([H])([H])C([H])(n5nc(-c6c([H])c([H])c(Oc7c([H])c([H])c(F)c([H])c7F)c([H])c6[H])c(C(=O)N([H])[H])c5N([H])[H])C4([H])[H])[N+]([H])([H])C3([H])[H])c([H])c([H])c2C1([H])[H]

>  <smiles>  (37) 
[H]c1c([H])c([H])c2c(c1[H])C([H])([H])C([H])([H])C([H])([H])C2([H])N([H])C(=O)C1([H])N(C(=O)C([H])(N([H])C(=O)C([H])(N([H])C([H])([H])[H])C([H])([H])[H])C(C([H])([H])[H])(C([H])([H])[H])C([H])([H])[H])C([H])([H])c2c([H])c(OC([H])([H])C3(C([H])([H])C([H])([H])[H])C([H])([H])C([H])([H])C([H])(C(=O)C([H])([H])C([H])([H])C([H])([H])N([H])C(=O)N4C([H])([H])C([H])([H])C([H])([H])C([H])(n5nc(-c6c([H])c([H])c(Oc7c([H])c([H])c(F)c([H])c7F)c([H])c6[H])c(C(=O)N([H])[H])c5N([H])[H])C4([H])[H])[N+]([H])([H])C3([H])[H])c([H])c([H])c2C1([H])[H]

$$$$
38:0:0
     RDKit          3D

 95103  0  0  1  0  0  0  0  0999 V2000
  -26.3890  -22.6590   21.7530 C   0  0  0  0  0  2  0  0  0  0  0  0
  -27.5880  -23.4830   22.2660 C   0  0  0  0  0  2  0  0  0  0  0  0
  -26.4760  -22.2910   20.2600 C   0  0  0  0  0  2  0  0  0  0  0  0
  -29.0190  -22.6420   20.3560 C   0  0  0  0  0  2  0  0  0  0  0  0
  -28.5930  -23.8870   21.1670 C   0  0  0  0  0  3  0  0  0  0  0  0
  -27.8600  -21.7390   19.8160 C   0  0  2  0  0  0  0  0  0  0  0  0
  -27.8840  -21.7170   18.3370 N   0  0  0  0  0  4  0  0  0  0  0  0
  -27.1710  -21.1050   17.9830 H   0  0  0  0  0  0  0  0  0  0  0  0
  -28.7680  -21.3900   17.9870 H   0  0  0  0  0  0  0  0  0  0  0  0
  -27.7170  -22.6310   17.9560 H   0  0  0  0  0  0  0  0  0  0  0  0
  -28.1050  -25.0590   20.2770 C   0  0  0  0  0  2  0  0  0  0  0  0
  -28.9180  -26.3580   20.4500 C   0  0  0  0  0  2  0  0  0  0  0  0
  -28.6200  -27.2900   19.4120 O   0  0  0  0  0  0  0  0  0  0  0  0
  -24.5720  -31.7770   23.1520 C   0  0  0  0  0  0  0  0  0  0  0  0
  -27.4100  -27.9180   19.5460 C   0  0  0  0  0  0  0  0  0  0  0  0
  -23.4070  -30.4660   21.4050 C   0  0  0  0  0  3  0  0  0  0  0  0
  -24.9140  -29.1990   19.7860 C   0  0  0  0  0  0  0  0  0  0  0  0
  -25.8860  -31.0420   21.1710 C   0  0  0  0  0  2  0  0  0  0  0  0
  -26.0470  -29.7550   20.3920 C   0  0  0  0  0  0  0  0  0  0  0  0
  -27.3010  -29.1170   20.2780 C   0  0  0  0  0  3  0  0  0  0  0  0
  -26.2690  -27.3720   18.9270 C   0  0  0  0  0  3  0  0  0  0  0  0
  -25.0150  -28.0030   19.0530 C   0  0  0  0  0  3  0  0  0  0  0  0
  -23.6120  -29.9480   19.9560 C   0  0  0  0  0  2  0  0  0  0  0  0
  -24.6400  -31.1040   21.9690 N   0  0  0  0  0  0  0  0  0  0  0  0
  -23.4960  -31.9080   23.7530 O   0  0  0  0  0  0  0  0  0  0  0  0
  -22.8680  -29.3040   22.2700 C   0  0  0  0  0  0  0  0  0  0  0  0
  -21.5690  -28.9980   22.1180 N   0  0  0  0  0  0  0  0  0  0  0  0
  -23.6150  -28.6840   23.0320 O   0  0  0  0  0  0  0  0  0  0  0  0
  -21.0220  -29.5610   21.4800 H   0  0  0  0  0  0  0  0  0  0  0  0
  -18.3460  -27.4040   22.4560 C   0  0  0  0  0  0  0  0  0  0  0  0
  -20.8560  -27.9190   22.7980 C   0  0  0  0  0  3  0  0  0  0  0  0
  -21.1230  -26.5570   22.1150 C   0  0  0  0  0  2  0  0  0  0  0  0
  -20.0740  -26.1930   21.0590 C   0  0  0  0  0  2  0  0  0  0  0  0
  -18.6790  -26.1350   21.6880 C   0  0  0  0  0  2  0  0  0  0  0  0
  -19.3690  -28.2470   22.9650 C   0  0  0  0  0  0  0  0  0  0  0  0
  -19.0050  -29.4310   23.6430 C   0  0  0  0  0  3  0  0  0  0  0  0
  -17.6520  -29.7740   23.8180 C   0  0  0  0  0  3  0  0  0  0  0  0
  -16.6430  -28.9280   23.3260 C   0  0  0  0  0  3  0  0  0  0  0  0
  -16.9920  -27.7440   22.6520 C   0  0  0  0  0  3  0  0  0  0  0  0
  -25.8340  -32.4300   23.7960 C   0  0  0  0  0  3  0  0  0  0  0  0
  -26.3740  -31.6400   25.0510 C   0  0  1  0  0  0  0  0  0  0  0  0
  -25.2860  -31.3330   26.1060 C   0  0  0  0  0  1  0  0  0  0  0  0
  -27.0040  -30.2950   24.6190 C   0  0  0  0  0  1  0  0  0  0  0  0
  -27.4940  -32.4540   25.7400 C   0  0  0  0  0  1  0  0  0  0  0  0
  -25.4810  -33.8080   24.1600 N   0  0  0  0  0  0  0  0  0  0  0  0
  -25.7930  -34.8890   23.4310 C   0  0  0  0  0  0  0  0  0  0  0  0
  -26.4800  -34.8320   22.4070 O   0  0  0  0  0  0  0  0  0  0  0  0
  -24.8720  -33.9240   24.9560 H   0  0  0  0  0  0  0  0  0  0  0  0
  -24.0220  -36.6380   23.0890 C   0  0  0  0  0  1  0  0  0  0  0  0
  -25.2570  -36.2490   23.9160 C   0  0  0  0  0  3  0  0  0  0  0  0
  -27.3450  -37.1700   24.8200 C   0  0  0  0  0  1  0  0  0  0  0  0
  -26.2620  -37.3330   23.8540 N   0  0  0  0  0  0  0  0  0  0  0  0
  -25.8270  -38.2370   24.0140 H   0  0  0  0  0  0  0  0  0  0  0  0
  -28.0060  -20.2820   20.3420 C   0  0  0  0  0  2  0  0  0  0  0  0
  -29.2610  -19.5010   19.8900 C   0  0  0  0  0  2  0  0  0  0  0  0
  -29.2240  -18.0400   20.3720 C   0  0  0  0  0  2  0  0  0  0  0  0
  -30.5080  -17.2540   20.0510 C   0  0  0  0  0  2  0  0  0  0  0  0
  -31.0130  -14.8300   19.8060 C   0  0  0  0  0  0  0  0  0  0  0  0
  -30.7620  -12.5270   18.9680 C   0  0  0  0  0  2  0  0  0  0  0  0
  -29.7630  -12.5310   17.7920 C   0  0  0  0  0  2  0  0  0  0  0  0
  -28.3150  -12.3980   18.3090 C   0  0  0  0  0  2  0  0  0  0  0  0
  -27.9920  -13.4020   19.4460 C   0  0  0  0  0  3  0  0  0  0  0  0
  -29.0970  -13.3640   20.5280 C   0  0  0  0  0  2  0  0  0  0  0  0
  -30.3940  -13.6230   19.8730 N   0  0  0  0  0  0  0  0  0  0  0  0
  -32.0600  -15.0280   19.1800 O   0  0  0  0  0  0  0  0  0  0  0  0
  -30.3260  -15.8380   20.3560 N   0  0  0  0  0  0  0  0  0  0  0  0
  -29.5020  -15.5820   20.8780 H   0  0  0  0  0  0  0  0  0  0  0  0
  -25.6830  -14.0650   20.3810 C   0  0  0  0  0  0  0  0  0  0  0  0
  -24.6170  -13.3140   20.7970 C   0  0  0  0  0  0  0  0  0  0  0  0
  -25.0160  -11.9500   20.6550 C   0  0  0  0  0  0  0  0  0  0  0  0
  -26.6680  -13.1580   20.0180 N   0  0  0  0  0  0  0  0  0  0  0  0
  -26.2730  -11.8780   20.2350 N   0  0  0  0  0  0  0  0  0  0  0  0
  -24.2540  -10.7070   20.8360 C   0  0  0  0  0  0  0  0  0  0  0  0
  -24.6390   -9.7390   21.7900 C   0  0  0  0  0  3  0  0  0  0  0  0
  -23.8830   -8.5600   21.9600 C   0  0  0  0  0  3  0  0  0  0  0  0
  -22.7280   -8.3380   21.1720 C   0  0  0  0  0  0  0  0  0  0  0  0
  -22.3600   -9.2950   20.2100 C   0  0  0  0  0  3  0  0  0  0  0  0
  -23.1180  -10.4660   20.0390 C   0  0  0  0  0  3  0  0  0  0  0  0
  -21.9480   -7.2090   21.2480 O   0  0  0  0  0  0  0  0  0  0  0  0
  -21.7260   -6.5670   22.4400 C   0  0  0  0  0  0  0  0  0  0  0  0
  -21.1340   -7.2230   23.5430 C   0  0  0  0  0  3  0  0  0  0  0  0
  -20.8590   -6.5050   24.7240 C   0  0  0  0  0  3  0  0  0  0  0  0
  -21.1690   -5.1350   24.8040 C   0  0  0  0  0  0  0  0  0  0  0  0
  -21.7530   -4.4780   23.7060 C   0  0  0  0  0  3  0  0  0  0  0  0
  -22.0290   -5.1920   22.5270 C   0  0  0  0  0  0  0  0  0  0  0  0
  -22.5730   -4.5520   21.4640 F   0  0  0  0  0  0  0  0  0  0  0  0
  -20.8970   -4.4430   25.9350 F   0  0  0  0  0  0  0  0  0  0  0  0
  -23.2690  -13.8280   21.2150 C   0  0  0  0  0  0  0  0  0  0  0  0
  -22.5930  -13.1160   22.1090 N   0  0  0  0  0  0  0  0  0  0  0  0
  -22.8310  -14.8950   20.7860 O   0  0  0  0  0  0  0  0  0  0  0  0
  -22.9640  -12.2510   22.4750 H   0  0  0  0  0  0  0  0  0  0  0  0
  -21.6930  -13.4380   22.4330 H   0  0  0  0  0  0  0  0  0  0  0  0
  -25.8920  -15.4350   20.2630 N   0  0  0  0  0  0  0  0  0  0  0  0
  -25.1620  -16.1070   20.4690 H   0  0  0  0  0  0  0  0  0  0  0  0
  -26.7300  -15.8560   19.8840 H   0  0  0  0  0  0  0  0  0  0  0  0
  1  2  1  0
  3  1  1  0
  4  5  1  0
  5 11  1  0
  5  2  1  0
  6  3  1  0
  6 54  1  1
  6  4  1  0
  7  6  1  0
  8  7  1  0
  9  7  1  0
 10  7  1  0
 11 12  1  0
 13 15  1  0
 13 12  1  0
 14 25  2  0
 15 20  1  0
 16 24  1  0
 16 26  1  0
 17 23  1  0
 17 19  1  0
 18 24  1  0
 19 18  1  0
 20 19  2  0
 21 22  1  0
 21 15  2  0
 22 17  2  0
 23 16  1  0
 24 14  1  0
 26 28  2  0
 27 26  1  0
 29 27  1  0
 30 39  2  0
 30 35  1  0
 31 27  1  0
 31 35  1  0
 32 31  1  0
 33 34  1  0
 33 32  1  0
 34 30  1  0
 35 36  2  0
 36 37  1  0
 38 37  2  0
 39 38  1  0
 40 14  1  0
 40 45  1  0
 40 41  1  0
 41 44  1  1
 41 42  1  0
 43 41  1  0
 45 48  1  0
 46 50  1  0
 46 45  1  0
 47 46  2  0
 50 49  1  0
 52 50  1  0
 52 53  1  0
 52 51  1  0
 55 54  1  0
 55 56  1  0
 57 66  1  0
 57 56  1  0
 58 64  1  0
 58 66  1  0
 59 64  1  0
 60 61  1  0
 60 59  1  0
 62 61  1  0
 62 71  1  0
 62 63  1  0
 64 63  1  0
 65 58  2  0
 66 67  1  0
 68 69  2  0
 69 88  1  0
 70 69  1  0
 70 73  1  0
 71 72  1  0
 71 68  1  0
 72 70  2  0
 73 74  1  0
 74 75  2  0
 76 79  1  0
 76 75  1  0
 77 76  2  0
 78 77  1  0
 78 73  2  0
 79 80  1  0
 80 85  2  0
 80 81  1  0
 81 82  2  0
 82 83  1  0
 83 87  1  0
 84 83  2  0
 85 84  1  0
 86 85  1  0
 88 89  1  0
 89 92  1  0
 89 91  1  0
 90 88  2  0
 93 68  1  0
 93 94  1  0
 95 93  1  0
M  ISO  4  12 101  13 101  58 100  66 100
M  END
>  <TORSDO>  (38) 
F 23

>  <SCORE>  (38) 
-10.664

>  <name>  (38) 
38

>  <ligand_id>  (38) 
38

>  <original_smiles>  (38) 
[H]c1c([H])c([H])c2c(c1[H])C([H])([H])C([H])([H])C([H])([H])C2([H])N([H])C(=O)C1([H])N(C(=O)C([H])(N([H])C(=O)C([H])(N([H])C([H])([H])[H])C([H])([H])[H])C(C([H])([H])[H])(C([H])([H])[H])C([H])([H])[H])C([H])([H])c2c([H])c(OC([H])([H])C([H])([H])C3([H])C([H])([H])C([H])([H])C([H])([H])C(C([H])([H])C([H])([H])C([H])([H])C([H])([H])N([H])C(=O)N4C([H])([H])C([H])([H])C([H])([H])C([H])(n5nc(-c6c([H])c([H])c(Oc7c([H])c([H])c(F)c([H])c7F)c([H])c6[H])c(C(=O)N([H])[H])c5N([H])[H])C4([H])[H])([N+]([H])([H])[H])C3([H])[H])c([H])c([H])c2C1([H])[H]

>  <smiles>  (38) 
[H]c1c([H])c([H])c2c(c1[H])C([H])([H])C([H])([H])C([H])([H])C2([H])N([H])C(=O)C1([H])N(C(=O)C([H])(N([H])C(=O)C([H])(N([H])C([H])([H])[H])C([H])([H])[H])C(C([H])([H])[H])(C([H])([H])[H])C([H])([H])[H])C([H])([H])c2c([H])c(OC([H])([H])C([H])([H])C3([H])C([H])([H])C([H])([H])C([H])([H])C(C([H])([H])C([H])([H])C([H])([H])C([H])([H])N([H])C(=O)N4C([H])([H])C([H])([H])C([H])([H])C([H])(n5nc(-c6c([H])c([H])c(Oc7c([H])c([H])c(F)c([H])c7F)c([H])c6[H])c(C(=O)N([H])[H])c5N([H])[H])C4([H])[H])([N+]([H])([H])[H])C3([H])[H])c([H])c([H])c2C1([H])[H]

$$$$
39:0:0
     RDKit          3D

 93102  0  0  1  0  0  0  0  0999 V2000
  -27.0370  -18.5260   20.2410 C   0  0  0  0  0  2  0  0  0  0  0  0
  -28.2130  -17.6560   19.7510 C   0  0  0  0  0  2  0  0  0  0  0  0
  -29.1670  -22.9140   21.4070 C   0  0  0  0  0  2  0  0  0  0  0  0
  -27.4150  -22.3680   19.6140 C   0  0  0  0  0  2  0  0  0  0  0  0
  -27.4810  -19.6670   21.1780 C   0  0  0  0  0  2  0  0  0  0  0  0
  -29.1950  -21.4270   21.8140 C   0  0  0  0  0  2  0  0  0  0  0  0
  -28.4130  -21.2100   19.3990 C   0  0  0  0  0  2  0  0  0  0  0  0
  -29.8970  -19.3820   20.4030 C   0  0  0  0  0  2  0  0  0  0  0  0
  -27.8040  -23.2920   20.7980 C   0  0  0  0  0  3  0  0  0  0  0  0
  -29.4940  -17.8960   20.5710 C   0  0  0  0  0  3  0  0  0  0  0  0
  -28.7540  -20.4220   20.6980 C   0  0  2  0  0  0  0  0  0  0  0  0
  -27.6680  -24.8070   20.5180 C   0  0  0  0  0  2  0  0  0  0  0  0
  -28.3720  -25.3510   19.2430 C   0  0  0  0  0  2  0  0  0  0  0  0
  -28.4250  -26.7800   19.1990 O   0  0  0  0  0  0  0  0  0  0  0  0
  -24.7280  -31.5610   22.9020 C   0  0  0  0  0  0  0  0  0  0  0  0
  -27.2400  -27.4820   19.2750 C   0  0  0  0  0  0  0  0  0  0  0  0
  -23.4460  -30.3120   21.1930 C   0  0  0  0  0  3  0  0  0  0  0  0
  -24.8360  -28.9400   19.5560 C   0  0  0  0  0  0  0  0  0  0  0  0
  -25.9570  -30.7220   20.9050 C   0  0  0  0  0  2  0  0  0  0  0  0
  -26.0180  -29.4220   20.1320 C   0  0  0  0  0  0  0  0  0  0  0  0
  -27.2220  -28.7000   19.9890 C   0  0  0  0  0  3  0  0  0  0  0  0
  -26.0430  -27.0270   18.6750 C   0  0  0  0  0  3  0  0  0  0  0  0
  -24.8430  -27.7400   18.8270 C   0  0  0  0  0  3  0  0  0  0  0  0
  -23.5890  -29.7690   19.7470 C   0  0  0  0  0  2  0  0  0  0  0  0
  -24.7310  -30.8740   21.7250 N   0  0  0  0  0  0  0  0  0  0  0  0
  -23.6750  -31.7680   23.5220 O   0  0  0  0  0  0  0  0  0  0  0  0
  -22.8530  -29.1950   22.0820 C   0  0  0  0  0  0  0  0  0  0  0  0
  -21.5220  -29.0270   22.0250 N   0  0  0  0  0  0  0  0  0  0  0  0
  -23.5840  -28.4860   22.7790 O   0  0  0  0  0  0  0  0  0  0  0  0
  -20.9900  -29.6600   21.4430 H   0  0  0  0  0  0  0  0  0  0  0  0
  -18.1810  -27.7870   22.6070 C   0  0  0  0  0  0  0  0  0  0  0  0
  -20.7520  -28.0130   22.7450 C   0  0  0  0  0  3  0  0  0  0  0  0
  -20.8100  -26.6510   22.0170 C   0  0  0  0  0  2  0  0  0  0  0  0
  -19.6460  -26.4410   21.0450 C   0  0  0  0  0  2  0  0  0  0  0  0
  -18.3070  -26.5170   21.7850 C   0  0  0  0  0  2  0  0  0  0  0  0
  -19.3300  -28.4980   23.0440 C   0  0  0  0  0  0  0  0  0  0  0  0
  -19.1580  -29.6940   23.7710 C   0  0  0  0  0  3  0  0  0  0  0  0
  -17.8710  -30.1810   24.0680 C   0  0  0  0  0  3  0  0  0  0  0  0
  -16.7380  -29.4630   23.6510 C   0  0  0  0  0  3  0  0  0  0  0  0
  -16.8930  -28.2700   22.9250 C   0  0  0  0  0  3  0  0  0  0  0  0
  -26.0420  -32.1440   23.5110 C   0  0  0  0  0  3  0  0  0  0  0  0
  -26.6440  -31.2460   24.6590 C   0  0  1  0  0  0  0  0  0  0  0  0
  -25.6250  -30.8820   25.7650 C   0  0  0  0  0  1  0  0  0  0  0  0
  -27.2100  -29.9260   24.0820 C   0  0  0  0  0  1  0  0  0  0  0  0
  -27.8270  -31.9790   25.3300 C   0  0  0  0  0  1  0  0  0  0  0  0
  -25.7380  -33.4920   24.0080 N   0  0  0  0  0  0  0  0  0  0  0  0
  -26.0090  -34.6230   23.3460 C   0  0  0  0  0  0  0  0  0  0  0  0
  -26.6150  -34.6420   22.2710 O   0  0  0  0  0  0  0  0  0  0  0  0
  -25.1900  -33.5500   24.8550 H   0  0  0  0  0  0  0  0  0  0  0  0
  -24.2300  -36.4020   23.2960 C   0  0  0  0  0  1  0  0  0  0  0  0
  -25.5300  -35.9440   23.9760 C   0  0  0  0  0  3  0  0  0  0  0  0
  -27.6980  -36.7910   24.7550 C   0  0  0  0  0  1  0  0  0  0  0  0
  -26.5340  -37.0270   23.9060 N   0  0  0  0  0  0  0  0  0  0  0  0
  -26.1220  -37.9170   24.1730 H   0  0  0  0  0  0  0  0  0  0  0  0
  -30.6500  -16.9410   20.1970 C   0  0  0  0  0  2  0  0  0  0  0  0
  -30.9790  -14.4970   19.8890 C   0  0  0  0  0  0  0  0  0  0  0  0
  -30.6670  -12.2510   18.9410 C   0  0  0  0  0  2  0  0  0  0  0  0
  -29.6690  -12.3410   17.7680 C   0  0  0  0  0  2  0  0  0  0  0  0
  -28.2190  -12.2130   18.2730 C   0  0  0  0  0  2  0  0  0  0  0  0
  -27.9190  -13.1570   19.4690 C   0  0  0  0  0  3  0  0  0  0  0  0
  -29.0240  -13.0460   20.5450 C   0  0  0  0  0  2  0  0  0  0  0  0
  -30.3200  -13.3090   19.8980 N   0  0  0  0  0  0  0  0  0  0  0  0
  -32.0670  -14.6690   19.3320 O   0  0  0  0  0  0  0  0  0  0  0  0
  -30.2950  -15.5330   20.3920 N   0  0  0  0  0  0  0  0  0  0  0  0
  -29.4090  -15.3320   20.8310 H   0  0  0  0  0  0  0  0  0  0  0  0
  -25.5830  -13.8050   20.3360 C   0  0  0  0  0  0  0  0  0  0  0  0
  -24.5190  -13.0490   20.7500 C   0  0  0  0  0  0  0  0  0  0  0  0
  -24.9440  -11.6900   20.6610 C   0  0  0  0  0  0  0  0  0  0  0  0
  -26.5900  -12.9070   20.0240 N   0  0  0  0  0  0  0  0  0  0  0  0
  -26.2110  -11.6280   20.2730 N   0  0  0  0  0  0  0  0  0  0  0  0
  -24.2000  -10.4410   20.8650 C   0  0  0  0  0  0  0  0  0  0  0  0
  -24.6130   -9.4840   21.8190 C   0  0  0  0  0  3  0  0  0  0  0  0
  -23.8710   -8.2990   22.0080 C   0  0  0  0  0  3  0  0  0  0  0  0
  -22.7030   -8.0630   21.2450 C   0  0  0  0  0  0  0  0  0  0  0  0
  -22.3110   -9.0090   20.2810 C   0  0  0  0  0  3  0  0  0  0  0  0
  -23.0540  -10.1850   20.0890 C   0  0  0  0  0  3  0  0  0  0  0  0
  -21.9330   -6.9300   21.3440 O   0  0  0  0  0  0  0  0  0  0  0  0
  -21.7870   -6.2620   22.5330 C   0  0  0  0  0  0  0  0  0  0  0  0
  -21.2620   -6.8920   23.6830 C   0  0  0  0  0  3  0  0  0  0  0  0
  -21.0620   -6.1490   24.8640 C   0  0  0  0  0  3  0  0  0  0  0  0
  -21.3820   -4.7770   24.8950 C   0  0  0  0  0  0  0  0  0  0  0  0
  -21.9020   -4.1470   23.7510 C   0  0  0  0  0  3  0  0  0  0  0  0
  -22.1020   -4.8890   22.5720 C   0  0  0  0  0  0  0  0  0  0  0  0
  -22.5820   -4.2730   21.4650 F   0  0  0  0  0  0  0  0  0  0  0  0
  -21.1840   -4.0600   26.0260 F   0  0  0  0  0  0  0  0  0  0  0  0
  -23.1530  -13.5550   21.1190 C   0  0  0  0  0  0  0  0  0  0  0  0
  -22.4650  -12.8530   22.0140 N   0  0  0  0  0  0  0  0  0  0  0  0
  -22.7090  -14.6010   20.6500 O   0  0  0  0  0  0  0  0  0  0  0  0
  -22.8370  -12.0030   22.4090 H   0  0  0  0  0  0  0  0  0  0  0  0
  -21.5520  -13.1710   22.3070 H   0  0  0  0  0  0  0  0  0  0  0  0
  -25.7650  -15.1740   20.1810 N   0  0  0  0  0  0  0  0  0  0  0  0
  -25.0180  -15.8330   20.3650 H   0  0  0  0  0  0  0  0  0  0  0  0
  -26.6040  -15.6120   19.8230 H   0  0  0  0  0  0  0  0  0  0  0  0
  1  5  1  0
  2  1  1  0
  2 10  1  0
  3  6  1  0
  4  9  1  0
  7  4  1  0
  8 10  1  0
 11  8  1  6
  9 12  1  0
  9  3  1  0
 10 55  1  0
 11  7  1  0
 11  5  1  0
 11  6  1  0
 13 12  1  0
 14 13  1  0
 14 16  1  0
 15 26  2  0
 16 21  1  0
 17 25  1  0
 17 27  1  0
 18 24  1  0
 18 20  1  0
 19 25  1  0
 20 19  1  0
 21 20  2  0
 22 23  1  0
 22 16  2  0
 23 18  2  0
 24 17  1  0
 25 15  1  0
 27 29  2  0
 28 27  1  0
 30 28  1  0
 31 40  2  0
 31 36  1  0
 32 28  1  0
 32 36  1  0
 33 32  1  0
 34 35  1  0
 34 33  1  0
 35 31  1  0
 36 37  2  0
 37 38  1  0
 39 38  2  0
 40 39  1  0
 41 15  1  0
 41 46  1  0
 41 42  1  0
 42 45  1  1
 42 43  1  0
 44 42  1  0
 46 49  1  0
 47 51  1  0
 47 46  1  0
 48 47  2  0
 51 50  1  0
 53 51  1  0
 53 54  1  0
 53 52  1  0
 55 64  1  0
 56 62  1  0
 56 64  1  0
 57 62  1  0
 58 59  1  0
 58 57  1  0
 60 59  1  0
 60 69  1  0
 60 61  1  0
 62 61  1  0
 63 56  2  0
 64 65  1  0
 66 67  2  0
 67 86  1  0
 68 67  1  0
 68 71  1  0
 69 70  1  0
 69 66  1  0
 70 68  2  0
 71 72  1  0
 72 73  2  0
 74 77  1  0
 74 73  1  0
 75 74  2  0
 76 75  1  0
 76 71  2  0
 77 78  1  0
 78 83  2  0
 78 79  1  0
 79 80  2  0
 80 81  1  0
 81 85  1  0
 82 81  2  0
 83 82  1  0
 84 83  1  0
 86 87  1  0
 87 90  1  0
 87 89  1  0
 88 86  2  0
 91 66  1  0
 91 92  1  0
 93 91  1  0
M  ISO  4  13 101  14 101  56 100  64 100
M  END
>  <TORSDO>  (39) 
F 19

>  <SCORE>  (39) 
-11.523

>  <name>  (39) 
39

>  <ligand_id>  (39) 
39

>  <original_smiles>  (39) 
[H]c1c([H])c([H])c2c(c1[H])C([H])([H])C([H])([H])C([H])([H])C2([H])N([H])C(=O)C1([H])N(C(=O)C([H])(N([H])C(=O)C([H])(N([H])C([H])([H])[H])C([H])([H])[H])C(C([H])([H])[H])(C([H])([H])[H])C([H])([H])[H])C([H])([H])c2c([H])c(OC([H])([H])C([H])([H])C3([H])C([H])([H])C([H])([H])C4(C([H])([H])C([H])([H])C([H])([H])C([H])(C([H])([H])N([H])C(=O)N5C([H])([H])C([H])([H])C([H])([H])C([H])(n6nc(-c7c([H])c([H])c(Oc8c([H])c([H])c(F)c([H])c8F)c([H])c7[H])c(C(=O)N([H])[H])c6N([H])[H])C5([H])[H])C4([H])[H])C([H])([H])C3([H])[H])c([H])c([H])c2C1([H])[H]

>  <smiles>  (39) 
[H]c1c([H])c([H])c2c(c1[H])C([H])([H])C([H])([H])C([H])([H])C2([H])N([H])C(=O)C1([H])N(C(=O)C([H])(N([H])C(=O)C([H])(N([H])C([H])([H])[H])C([H])([H])[H])C(C([H])([H])[H])(C([H])([H])[H])C([H])([H])[H])C([H])([H])c2c([H])c(OC([H])([H])C([H])([H])C3([H])C([H])([H])C([H])([H])C4(C([H])([H])C([H])([H])C([H])([H])C([H])(C([H])([H])N([H])C(=O)N5C([H])([H])C([H])([H])C([H])([H])C([H])(n6nc(-c7c([H])c([H])c(Oc8c([H])c([H])c(F)c([H])c8F)c([H])c7[H])c(C(=O)N([H])[H])c6N([H])[H])C5([H])[H])C4([H])[H])C([H])([H])C3([H])[H])c([H])c([H])c2C1([H])[H]

$$$$
40:0:0
     RDKit          3D

 97105  0  0  1  0  0  0  0  0999 V2000
  -31.7470  -20.6900   17.8950 C   0  0  0  0  0  2  0  0  0  0  0  0
  -31.8390  -18.2130   20.8120 C   0  0  0  0  0  3  0  0  0  0  0  0
  -32.2040  -19.1630   19.8420 C   0  0  0  0  0  3  0  0  0  0  0  0
  -29.5730  -18.2160   19.9400 C   0  0  0  0  0  3  0  0  0  0  0  0
  -30.5080  -17.7490   20.8890 C   0  0  0  0  0  0  0  0  0  0  0  0
  -31.2650  -19.6520   18.9070 C   0  0  0  0  0  0  0  0  0  0  0  0
  -29.9380  -19.1510   18.9430 C   0  0  0  0  0  0  0  0  0  0  0  0
  -28.8960  -19.5690   17.9160 C   0  0  0  0  0  1  0  0  0  0  0  0
  -30.0530  -16.7370   21.9480 C   0  0  0  0  0  3  0  0  0  0  0  0
  -30.3480  -14.6490   20.5080 C   0  0  0  0  0  0  0  0  0  0  0  0
  -30.1290  -12.5530   19.2090 C   0  0  0  0  0  2  0  0  0  0  0  0
  -29.1480  -12.7430   18.0370 C   0  0  0  0  0  2  0  0  0  0  0  0
  -27.6890  -12.5170   18.4890 C   0  0  0  0  0  2  0  0  0  0  0  0
  -27.3380  -13.3050   19.7780 C   0  0  0  0  0  3  0  0  0  0  0  0
  -28.4150  -13.0630   20.8540 C   0  0  0  0  0  2  0  0  0  0  0  0
  -29.7210  -13.4630   20.2880 N   0  0  0  0  0  0  0  0  0  0  0  0
  -31.3830  -14.9920   19.9260 O   0  0  0  0  0  0  0  0  0  0  0  0
  -29.7160  -15.4230   21.4030 N   0  0  0  0  0  0  0  0  0  0  0  0
  -28.8650  -15.0160   21.7600 H   0  0  0  0  0  0  0  0  0  0  0  0
  -24.9310  -13.7950   20.5630 C   0  0  0  0  0  0  0  0  0  0  0  0
  -23.9030  -12.9650   20.9270 C   0  0  0  0  0  0  0  0  0  0  0  0
  -24.4170  -11.6350   20.8300 C   0  0  0  0  0  0  0  0  0  0  0  0
  -26.0040  -12.9660   20.2710 N   0  0  0  0  0  0  0  0  0  0  0  0
  -25.6970  -11.6610   20.4830 N   0  0  0  0  0  0  0  0  0  0  0  0
  -23.7500  -10.3380   20.9850 C   0  0  0  0  0  0  0  0  0  0  0  0
  -24.2480   -9.3500   21.8640 C   0  0  0  0  0  3  0  0  0  0  0  0
  -23.5740   -8.1180   22.0100 C   0  0  0  0  0  3  0  0  0  0  0  0
  -22.3910   -7.8630   21.2770 C   0  0  0  0  0  0  0  0  0  0  0  0
  -21.9150   -8.8420   20.3860 C   0  0  0  0  0  3  0  0  0  0  0  0
  -22.5890  -10.0660   20.2370 C   0  0  0  0  0  3  0  0  0  0  0  0
  -21.6840   -6.6860   21.3350 O   0  0  0  0  0  0  0  0  0  0  0  0
  -21.7010   -5.8920   22.4540 C   0  0  0  0  0  0  0  0  0  0  0  0
  -21.3000   -6.3780   23.7190 C   0  0  0  0  0  3  0  0  0  0  0  0
  -21.2650   -5.5080   24.8260 C   0  0  0  0  0  3  0  0  0  0  0  0
  -21.6200   -4.1550   24.6710 C   0  0  0  0  0  0  0  0  0  0  0  0
  -22.0160   -3.6690   23.4130 C   0  0  0  0  0  3  0  0  0  0  0  0
  -22.0540   -4.5360   22.3070 C   0  0  0  0  0  0  0  0  0  0  0  0
  -22.4140   -4.0580   21.0910 F   0  0  0  0  0  0  0  0  0  0  0  0
  -21.5820   -3.3180   25.7340 F   0  0  0  0  0  0  0  0  0  0  0  0
  -22.4950  -13.3720   21.2530 C   0  0  0  0  0  0  0  0  0  0  0  0
  -21.8260  -12.6250   22.1260 N   0  0  0  0  0  0  0  0  0  0  0  0
  -21.9950  -14.3880   20.7720 O   0  0  0  0  0  0  0  0  0  0  0  0
  -22.2420  -11.8040   22.5410 H   0  0  0  0  0  0  0  0  0  0  0  0
  -20.8830  -12.8790   22.3840 H   0  0  0  0  0  0  0  0  0  0  0  0
  -25.0330  -15.1780   20.4390 N   0  0  0  0  0  0  0  0  0  0  0  0
  -24.2420  -15.7900   20.6010 H   0  0  0  0  0  0  0  0  0  0  0  0
  -25.8490  -15.6720   20.1020 H   0  0  0  0  0  0  0  0  0  0  0  0
  -30.9350  -17.8880   24.0840 C   0  0  0  0  0  1  0  0  0  0  0  0
  -30.9160  -16.6120   23.2270 C   0  0  0  0  0  2  0  0  0  0  0  0
  -31.7240  -22.1280   18.4650 C   0  0  0  0  0  2  0  0  0  0  0  0
  -30.3690  -22.7210   18.4230 N   0  0  0  0  0  4  0  0  0  0  0  0
  -29.6870  -21.9780   18.4680 H   0  0  0  0  0  0  0  0  0  0  0  0
  -30.2630  -23.1790   17.5300 H   0  0  0  0  0  0  0  0  0  0  0  0
  -30.0650  -23.6720   19.5140 C   0  0  0  0  0  2  0  0  0  0  0  0
  -29.1100  -24.7960   19.0680 C   0  0  0  0  0  2  0  0  0  0  0  0
  -28.5550  -25.5830   20.2730 C   0  0  0  0  0  2  0  0  0  0  0  0
  -28.4740  -26.9640   19.9430 O   0  0  0  0  0  0  0  0  0  0  0  0
  -24.5720  -31.9160   23.1680 C   0  0  0  0  0  0  0  0  0  0  0  0
  -27.2520  -27.5860   20.0050 C   0  0  0  0  0  0  0  0  0  0  0  0
  -23.3660  -30.5290   21.5090 C   0  0  0  0  0  3  0  0  0  0  0  0
  -24.8250  -29.0220   20.0560 C   0  0  0  0  0  0  0  0  0  0  0  0
  -25.8760  -30.9320   21.2870 C   0  0  0  0  0  2  0  0  0  0  0  0
  -25.9750  -29.5670   20.6390 C   0  0  0  0  0  0  0  0  0  0  0  0
  -27.1890  -28.8560   20.6080 C   0  0  0  0  0  3  0  0  0  0  0  0
  -26.0860  -27.0310   19.4340 C   0  0  0  0  0  3  0  0  0  0  0  0
  -24.8720  -27.7490   19.4560 C   0  0  0  0  0  3  0  0  0  0  0  0
  -23.5740  -29.8710   20.1180 C   0  0  0  0  0  2  0  0  0  0  0  0
  -24.6240  -31.1390   22.0520 N   0  0  0  0  0  0  0  0  0  0  0  0
  -23.4910  -32.1660   23.7210 O   0  0  0  0  0  0  0  0  0  0  0  0
  -22.7310  -29.4890   22.4550 C   0  0  0  0  0  0  0  0  0  0  0  0
  -21.4040  -29.3120   22.3500 N   0  0  0  0  0  0  0  0  0  0  0  0
  -23.4300  -28.8430   23.2420 O   0  0  0  0  0  0  0  0  0  0  0  0
  -20.8990  -29.8930   21.6970 H   0  0  0  0  0  0  0  0  0  0  0  0
  -18.0390  -28.1040   22.8610 C   0  0  0  0  0  0  0  0  0  0  0  0
  -20.6010  -28.3560   23.1070 C   0  0  0  0  0  3  0  0  0  0  0  0
  -20.6970  -26.9360   22.5010 C   0  0  0  0  0  2  0  0  0  0  0  0
  -19.5840  -26.6320   21.4960 C   0  0  0  0  0  2  0  0  0  0  0  0
  -18.2090  -26.7670   22.1580 C   0  0  0  0  0  2  0  0  0  0  0  0
  -19.1650  -28.8560   23.2960 C   0  0  0  0  0  0  0  0  0  0  0  0
  -18.9540  -30.1110   23.9080 C   0  0  0  0  0  3  0  0  0  0  0  0
  -17.6540  -30.6090   24.1000 C   0  0  0  0  0  3  0  0  0  0  0  0
  -16.5430  -29.8540   23.6820 C   0  0  0  0  0  3  0  0  0  0  0  0
  -16.7380  -28.6070   23.0630 C   0  0  0  0  0  3  0  0  0  0  0  0
  -25.8570  -32.5480   23.7930 C   0  0  0  0  0  3  0  0  0  0  0  0
  -25.5510  -33.9430   24.1270 N   0  0  0  0  0  0  0  0  0  0  0  0
  -25.8860  -34.9980   23.3690 C   0  0  0  0  0  0  0  0  0  0  0  0
  -26.5590  -34.8990   22.3390 O   0  0  0  0  0  0  0  0  0  0  0  0
  -24.9680  -34.0970   24.9370 H   0  0  0  0  0  0  0  0  0  0  0  0
  -24.1630  -36.7840   23.0100 C   0  0  0  0  0  1  0  0  0  0  0  0
  -25.3990  -36.3820   23.8300 C   0  0  0  0  0  3  0  0  0  0  0  0
  -27.5320  -37.2620   24.6650 C   0  0  0  0  0  1  0  0  0  0  0  0
  -26.4310  -37.4350   23.7220 N   0  0  0  0  0  0  0  0  0  0  0  0
  -26.0240  -38.3550   23.8710 H   0  0  0  0  0  0  0  0  0  0  0  0
  -26.3770  -31.7680   25.0620 C   0  0  1  0  0  0  0  0  0  0  0  0
  -25.2900  -31.5260   26.1350 C   0  0  0  0  0  1  0  0  0  0  0  0
  -26.9580  -30.3960   24.6460 C   0  0  0  0  0  1  0  0  0  0  0  0
  -27.5300  -32.5580   25.7270 C   0  0  0  0  0  1  0  0  0  0  0  0
  1 50  1  0
  1  6  1  0
  2  5  1  0
  3  2  2  0
  4  5  2  0
  5  9  1  0
  6  7  2  0
  6  3  1  0
  7  4  1  0
  8  7  1  0
  9 49  1  0
 10 18  1  0
 11 16  1  0
 12 13  1  0
 12 11  1  0
 14 13  1  0
 14 23  1  0
 14 15  1  0
 16 10  1  0
 16 15  1  0
 17 10  2  0
 18 19  1  0
 18  9  1  0
 20 21  2  0
 21 40  1  0
 22 21  1  0
 22 25  1  0
 23 24  1  0
 23 20  1  0
 24 22  2  0
 25 26  1  0
 26 27  2  0
 28 31  1  0
 28 27  1  0
 29 28  2  0
 30 29  1  0
 30 25  2  0
 31 32  1  0
 32 33  1  0
 33 34  2  0
 35 34  1  0
 35 39  1  0
 36 35  2  0
 37 32  2  0
 37 36  1  0
 38 37  1  0
 40 41  1  0
 41 44  1  0
 41 43  1  0
 42 40  2  0
 45 20  1  0
 45 46  1  0
 47 45  1  0
 49 48  1  0
 51 50  1  0
 51 52  1  0
 51 54  1  0
 53 51  1  0
 55 54  1  0
 55 56  1  0
 57 59  1  0
 57 56  1  0
 58 69  2  0
 59 64  1  0
 60 68  1  0
 60 70  1  0
 61 67  1  0
 61 63  1  0
 62 68  1  0
 63 62  1  0
 64 63  2  0
 65 66  1  0
 65 59  2  0
 66 61  2  0
 67 60  1  0
 68 58  1  0
 70 72  2  0
 71 70  1  0
 73 71  1  0
 74 83  2  0
 74 79  1  0
 75 71  1  0
 75 79  1  0
 76 75  1  0
 77 78  1  0
 77 76  1  0
 78 74  1  0
 79 80  2  0
 80 81  1  0
 82 81  2  0
 83 82  1  0
 84 58  1  0
 84 85  1  0
 84 94  1  0
 85 88  1  0
 86 90  1  0
 86 85  1  0
 87 86  2  0
 90 89  1  0
 92 90  1  0
 92 93  1  0
 92 91  1  0
 94 97  1  1
 94 95  1  0
 96 94  1  0
M  ISO  4  10 100  18 100  56 101  57 101
M  END
>  <TORSDO>  (40) 
F 24

>  <SCORE>  (40) 
-10.901

>  <name>  (40) 
40

>  <ligand_id>  (40) 
40

>  <original_smiles>  (40) 
[H]c1c([H])c([H])c2c(c1[H])C([H])([H])C([H])([H])C([H])([H])C2([H])N([H])C(=O)C1([H])N(C(=O)C([H])(N([H])C(=O)C([H])(N([H])C([H])([H])[H])C([H])([H])[H])C(C([H])([H])[H])(C([H])([H])[H])C([H])([H])[H])C([H])([H])c2c([H])c(OC([H])([H])C([H])([H])C([H])([H])[N+]([H])([H])C([H])([H])C([H])([H])c3c([H])c([H])c(C([H])(N([H])C(=O)N4C([H])([H])C([H])([H])C([H])([H])C([H])(n5nc(-c6c([H])c([H])c(Oc7c([H])c([H])c(F)c([H])c7F)c([H])c6[H])c(C(=O)N([H])[H])c5N([H])[H])C4([H])[H])C([H])([H])C([H])([H])[H])c([H])c3C([H])([H])[H])c([H])c([H])c2C1([H])[H]

>  <smiles>  (40) 
[H]c1c([H])c([H])c2c(c1[H])C([H])([H])C([H])([H])C([H])([H])C2([H])N([H])C(=O)C1([H])N(C(=O)C([H])(N([H])C(=O)C([H])(N([H])C([H])([H])[H])C([H])([H])[H])C(C([H])([H])[H])(C([H])([H])[H])C([H])([H])[H])C([H])([H])c2c([H])c(OC([H])([H])C([H])([H])C([H])([H])[N+]([H])([H])C([H])([H])C([H])([H])c3c([H])c([H])c(C([H])(N([H])C(=O)N4C([H])([H])C([H])([H])C([H])([H])C([H])(n5nc(-c6c([H])c([H])c(Oc7c([H])c([H])c(F)c([H])c7F)c([H])c6[H])c(C(=O)N([H])[H])c5N([H])[H])C4([H])[H])C([H])([H])C([H])([H])[H])c([H])c3C([H])([H])[H])c([H])c([H])c2C1([H])[H]

$$$$
41:0:0
     RDKit          3D

 96104  0  0  1  0  0  0  0  0999 V2000
  -31.2150  -19.8650   21.4100 C   0  0  0  0  0  2  0  0  0  0  0  0
  -30.1920  -20.9420   21.8160 C   0  0  0  0  0  2  0  0  0  0  0  0
  -30.0860  -19.7630   19.1260 C   0  0  0  0  0  2  0  0  0  0  0  0
  -30.7290  -18.9380   20.2740 C   0  0  0  0  0  3  0  0  0  0  0  0
  -29.7340  -21.7980   20.6120 C   0  0  0  0  0  3  0  0  0  0  0  0
  -29.0610  -20.8460   19.5760 C   0  0  0  0  0  3  0  0  0  0  0  0
  -29.8960  -17.7250   20.7530 C   0  0  0  0  0  0  0  0  0  0  0  0
  -28.7280  -17.5560   20.3880 O   0  0  0  0  0  0  0  0  0  0  0  0
  -30.5870  -16.7010   21.6680 C   0  0  0  0  0  2  0  0  0  0  0  0
  -30.6840  -14.4510   20.5840 C   0  0  0  0  0  0  0  0  0  0  0  0
  -30.3560  -12.3600   19.3120 C   0  0  0  0  0  2  0  0  0  0  0  0
  -29.4070  -12.6100   18.1250 C   0  0  0  0  0  2  0  0  0  0  0  0
  -27.9350  -12.4610   18.5580 C   0  0  0  0  0  2  0  0  0  0  0  0
  -27.6110  -13.2570   19.8490 C   0  0  0  0  0  3  0  0  0  0  0  0
  -28.6650  -12.9800   20.9440 C   0  0  0  0  0  2  0  0  0  0  0  0
  -29.9940  -13.2970   20.3870 N   0  0  0  0  0  0  0  0  0  0  0  0
  -31.7460  -14.7100   20.0110 O   0  0  0  0  0  0  0  0  0  0  0  0
  -30.1100  -15.3340   21.4110 N   0  0  0  0  0  0  0  0  0  0  0  0
  -29.2230  -15.0750   21.8160 H   0  0  0  0  0  0  0  0  0  0  0  0
  -25.2050  -13.8530   20.5460 C   0  0  0  0  0  0  0  0  0  0  0  0
  -24.1390  -13.0740   20.9110 C   0  0  0  0  0  0  0  0  0  0  0  0
  -24.6080  -11.7260   20.8830 C   0  0  0  0  0  0  0  0  0  0  0  0
  -26.2560  -12.9780   20.3210 N   0  0  0  0  0  0  0  0  0  0  0  0
  -25.8990  -11.6930   20.5780 N   0  0  0  0  0  0  0  0  0  0  0  0
  -23.8900  -10.4580   21.0740 C   0  0  0  0  0  0  0  0  0  0  0  0
  -24.3340   -9.4890   22.0000 C   0  0  0  0  0  3  0  0  0  0  0  0
  -23.6150   -8.2870   22.1780 C   0  0  0  0  0  3  0  0  0  0  0  0
  -22.4400   -8.0460   21.4290 C   0  0  0  0  0  0  0  0  0  0  0  0
  -22.0140   -9.0050   20.4920 C   0  0  0  0  0  3  0  0  0  0  0  0
  -22.7340  -10.1980   20.3130 C   0  0  0  0  0  3  0  0  0  0  0  0
  -21.6930   -6.8960   21.5160 O   0  0  0  0  0  0  0  0  0  0  0  0
  -21.6640   -6.1420   22.6610 C   0  0  0  0  0  0  0  0  0  0  0  0
  -21.2580   -6.6830   23.9000 C   0  0  0  0  0  3  0  0  0  0  0  0
  -21.1760   -5.8550   25.0370 C   0  0  0  0  0  3  0  0  0  0  0  0
  -21.4900   -4.4860   24.9360 C   0  0  0  0  0  0  0  0  0  0  0  0
  -21.8900   -3.9440   23.7030 C   0  0  0  0  0  3  0  0  0  0  0  0
  -21.9730   -4.7690   22.5670 C   0  0  0  0  0  0  0  0  0  0  0  0
  -22.3380   -4.2380   21.3760 F   0  0  0  0  0  0  0  0  0  0  0  0
  -21.4040   -3.6880   26.0260 F   0  0  0  0  0  0  0  0  0  0  0  0
  -22.7390  -13.5440   21.1830 C   0  0  0  0  0  0  0  0  0  0  0  0
  -22.0150  -12.8420   22.0480 N   0  0  0  0  0  0  0  0  0  0  0  0
  -22.2940  -14.5670   20.6630 O   0  0  0  0  0  0  0  0  0  0  0  0
  -22.3870  -12.0130   22.4870 H   0  0  0  0  0  0  0  0  0  0  0  0
  -21.0760  -13.1380   22.2730 H   0  0  0  0  0  0  0  0  0  0  0  0
  -25.3640  -15.2240   20.3700 N   0  0  0  0  0  0  0  0  0  0  0  0
  -24.5990  -15.8790   20.4920 H   0  0  0  0  0  0  0  0  0  0  0  0
  -26.2270  -15.6730   20.0860 H   0  0  0  0  0  0  0  0  0  0  0  0
  -28.8640  -22.9980   21.0980 C   0  0  0  0  0  2  0  0  0  0  0  0
  -29.0670  -24.3400   20.3390 C   0  0  0  0  0  2  0  0  0  0  0  0
  -28.3330  -25.5180   21.0130 C   0  0  0  0  0  2  0  0  0  0  0  0
  -28.4380  -26.7380   20.2620 O   0  0  0  0  0  0  0  0  0  0  0  0
  -24.5910  -31.9200   23.2670 C   0  0  0  0  0  0  0  0  0  0  0  0
  -27.2820  -27.4830   20.2380 C   0  0  0  0  0  0  0  0  0  0  0  0
  -23.4050  -30.5050   21.6210 C   0  0  0  0  0  3  0  0  0  0  0  0
  -24.8790  -28.9680   20.2140 C   0  0  0  0  0  0  0  0  0  0  0  0
  -25.9280  -30.8800   21.4390 C   0  0  0  0  0  2  0  0  0  0  0  0
  -26.0290  -29.5070   20.8070 C   0  0  0  0  0  0  0  0  0  0  0  0
  -27.2370  -28.7720   20.8120 C   0  0  0  0  0  3  0  0  0  0  0  0
  -26.1190  -26.9580   19.6340 C   0  0  0  0  0  3  0  0  0  0  0  0
  -24.9180  -27.6930   19.6240 C   0  0  0  0  0  3  0  0  0  0  0  0
  -23.6280  -29.8170   20.2470 C   0  0  0  0  0  2  0  0  0  0  0  0
  -24.6600  -31.1150   22.1690 N   0  0  0  0  0  0  0  0  0  0  0  0
  -23.5050  -32.1890   23.7970 O   0  0  0  0  0  0  0  0  0  0  0  0
  -22.7500  -29.4850   22.5810 C   0  0  0  0  0  0  0  0  0  0  0  0
  -21.4270  -29.2990   22.4450 N   0  0  0  0  0  0  0  0  0  0  0  0
  -23.4300  -28.8640   23.4030 O   0  0  0  0  0  0  0  0  0  0  0  0
  -20.9400  -29.8520   21.7540 H   0  0  0  0  0  0  0  0  0  0  0  0
  -18.0520  -28.1000   22.9210 C   0  0  0  0  0  0  0  0  0  0  0  0
  -20.6070  -28.3620   23.2120 C   0  0  0  0  0  3  0  0  0  0  0  0
  -20.7160  -26.9290   22.6400 C   0  0  0  0  0  2  0  0  0  0  0  0
  -19.6240  -26.6020   21.6200 C   0  0  0  0  0  2  0  0  0  0  0  0
  -18.2360  -26.7490   22.2520 C   0  0  0  0  0  2  0  0  0  0  0  0
  -19.1660  -28.8640   23.3570 C   0  0  0  0  0  0  0  0  0  0  0  0
  -18.9420  -30.1300   23.9410 C   0  0  0  0  0  3  0  0  0  0  0  0
  -17.6350  -30.6310   24.0940 C   0  0  0  0  0  3  0  0  0  0  0  0
  -16.5350  -29.8630   23.6750 C   0  0  0  0  0  3  0  0  0  0  0  0
  -16.7440  -28.5990   23.0940 C   0  0  0  0  0  3  0  0  0  0  0  0
  -25.8690  -32.5600   23.8940 C   0  0  0  0  0  3  0  0  0  0  0  0
  -26.3790  -31.7990   25.1800 C   0  0  1  0  0  0  0  0  0  0  0  0
  -25.2770  -31.5650   26.2390 C   0  0  0  0  0  1  0  0  0  0  0  0
  -26.9690  -30.4210   24.8010 C   0  0  0  0  0  1  0  0  0  0  0  0
  -27.5210  -32.6010   25.8460 C   0  0  0  0  0  1  0  0  0  0  0  0
  -25.5550  -33.9590   24.2070 N   0  0  0  0  0  0  0  0  0  0  0  0
  -25.8970  -35.0050   23.4420 C   0  0  0  0  0  0  0  0  0  0  0  0
  -26.5810  -34.8920   22.4210 O   0  0  0  0  0  0  0  0  0  0  0  0
  -24.9490  -34.1210   24.9980 H   0  0  0  0  0  0  0  0  0  0  0  0
  -24.1730  -36.7910   23.0440 C   0  0  0  0  0  1  0  0  0  0  0  0
  -25.4010  -36.3960   23.8780 C   0  0  0  0  0  3  0  0  0  0  0  0
  -27.5240  -37.2870   24.7330 C   0  0  0  0  0  1  0  0  0  0  0  0
  -26.4340  -37.4500   23.7740 N   0  0  0  0  0  0  0  0  0  0  0  0
  -26.0250  -38.3700   23.9160 H   0  0  0  0  0  0  0  0  0  0  0  0
  -28.4690  -21.5990   18.3580 C   0  0  0  0  0  2  0  0  0  0  0  0
  -27.7870  -20.7090   17.4000 N   0  0  0  0  0  4  0  0  0  0  0  0
  -28.4370  -20.0650   16.9850 H   0  0  0  0  0  0  0  0  0  0  0  0
  -27.3780  -21.2540   16.6620 H   0  0  0  0  0  0  0  0  0  0  0  0
  -27.0540  -20.1910   17.8500 H   0  0  0  0  0  0  0  0  0  0  0  0
  1  2  1  0
  3  6  1  0
  3  4  1  0
  4  7  1  0
  4  1  1  0
  5 48  1  0
  5  2  1  0
  6 92  1  0
  6  5  1  0
  7  9  1  0
  8  7  2  0
 10 18  1  0
 11 16  1  0
 12 13  1  0
 12 11  1  0
 14 13  1  0
 14 23  1  0
 14 15  1  0
 16 10  1  0
 16 15  1  0
 17 10  2  0
 18  9  1  0
 18 19  1  0
 20 21  2  0
 21 40  1  0
 22 21  1  0
 22 25  1  0
 23 20  1  0
 23 24  1  0
 24 22  2  0
 25 26  1  0
 26 27  2  0
 28 31  1  0
 28 27  1  0
 29 28  2  0
 30 29  1  0
 30 25  2  0
 31 32  1  0
 32 33  1  0
 33 34  2  0
 35 34  1  0
 35 39  1  0
 36 35  2  0
 37 32  2  0
 37 36  1  0
 38 37  1  0
 40 41  1  0
 41 44  1  0
 41 43  1  0
 42 40  2  0
 45 46  1  0
 45 20  1  0
 47 45  1  0
 49 50  1  0
 49 48  1  0
 51 50  1  0
 52 63  2  0
 53 51  1  0
 53 58  1  0
 54 62  1  0
 54 64  1  0
 55 61  1  0
 55 57  1  0
 56 62  1  0
 57 58  2  0
 57 56  1  0
 59 53  2  0
 60 59  1  0
 60 55  2  0
 61 54  1  0
 62 52  1  0
 64 66  2  0
 65 64  1  0
 67 65  1  0
 68 77  2  0
 68 73  1  0
 69 65  1  0
 69 73  1  0
 70 69  1  0
 71 72  1  0
 71 70  1  0
 72 68  1  0
 73 74  2  0
 74 75  1  0
 76 75  2  0
 77 76  1  0
 78 52  1  0
 78 83  1  0
 78 79  1  0
 79 82  1  1
 79 80  1  0
 81 79  1  0
 83 86  1  0
 84 88  1  0
 84 83  1  0
 85 84  2  0
 88 87  1  0
 90 88  1  0
 90 91  1  0
 90 89  1  0
 93 96  1  0
 93 92  1  0
 94 93  1  0
 95 93  1  0
M  ISO  4  10 100  18 100  50 101  51 101
M  END
>  <TORSDO>  (41) 
F 23

>  <SCORE>  (41) 
-13.413

>  <name>  (41) 
41

>  <ligand_id>  (41) 
41

>  <original_smiles>  (41) 
[H]c1c([H])c([H])c2c(c1[H])C([H])([H])C([H])([H])C([H])([H])C2([H])N([H])C(=O)C1([H])N(C(=O)C([H])(N([H])C(=O)C([H])(N([H])C([H])([H])[H])C([H])([H])[H])C(C([H])([H])[H])(C([H])([H])[H])C([H])([H])[H])C([H])([H])c2c([H])c(OC([H])([H])C([H])([H])C([H])([H])C3([H])C([H])([H])C([H])([H])C([H])(C(=O)C([H])([H])N([H])C(=O)N4C([H])([H])C([H])([H])C([H])([H])C([H])(n5nc(-c6c([H])c([H])c(Oc7c([H])c([H])c(F)c([H])c7F)c([H])c6[H])c(C(=O)N([H])[H])c5N([H])[H])C4([H])[H])C([H])([H])C3([H])C([H])([H])[N+]([H])([H])[H])c([H])c([H])c2C1([H])[H]

>  <smiles>  (41) 
[H]c1c([H])c([H])c2c(c1[H])C([H])([H])C([H])([H])C([H])([H])C2([H])N([H])C(=O)C1([H])N(C(=O)C([H])(N([H])C(=O)C([H])(N([H])C([H])([H])[H])C([H])([H])[H])C(C([H])([H])[H])(C([H])([H])[H])C([H])([H])[H])C([H])([H])c2c([H])c(OC([H])([H])C([H])([H])C([H])([H])C3([H])C([H])([H])C([H])([H])C([H])(C(=O)C([H])([H])N([H])C(=O)N4C([H])([H])C([H])([H])C([H])([H])C([H])(n5nc(-c6c([H])c([H])c(Oc7c([H])c([H])c(F)c([H])c7F)c([H])c6[H])c(C(=O)N([H])[H])c5N([H])[H])C4([H])[H])C([H])([H])C3([H])C([H])([H])[N+]([H])([H])[H])c([H])c([H])c2C1([H])[H]

$$$$
42:0:0
     RDKit          3D

 93102  0  0  1  0  0  0  0  0999 V2000
  -27.3120  -18.6070   20.2790 C   0  0  0  0  0  3  0  0  0  0  0  0
  -27.2000  -20.0100   20.2740 C   0  0  0  0  0  3  0  0  0  0  0  0
  -28.4910  -17.9840   19.8190 C   0  0  0  0  0  3  0  0  0  0  0  0
  -28.2850  -20.7720   19.8050 C   0  0  0  0  0  0  0  0  0  0  0  0
  -29.4470  -20.1670   19.3250 C   0  0  0  0  0  0  0  0  0  0  0  0
  -29.5850  -18.7370   19.3310 C   0  0  0  0  0  0  0  0  0  0  0  0
  -30.4120  -21.2560   18.8580 C   0  0  0  0  0  2  0  0  0  0  0  0
  -28.3510  -22.2860   19.7910 C   0  0  0  0  0  3  0  0  0  0  0  0
  -29.8170  -22.6180   19.3830 C   0  0  0  0  0  3  0  0  0  0  0  0
  -27.9270  -22.8860   21.1450 C   0  0  0  0  0  1  0  0  0  0  0  0
  -30.8130  -17.9660   18.8080 C   0  0  0  0  0  2  0  0  0  0  0  0
  -31.6200  -17.1050   19.8480 C   0  0  0  0  0  2  0  0  0  0  0  0
  -31.8940  -14.5810   20.0410 C   0  0  0  0  0  0  0  0  0  0  0  0
  -31.6940  -12.1460   19.6870 C   0  0  0  0  0  2  0  0  0  0  0  0
  -30.7850  -11.8930   18.4650 C   0  0  0  0  0  2  0  0  0  0  0  0
  -29.3040  -11.8390   18.8890 C   0  0  0  0  0  2  0  0  0  0  0  0
  -28.8980  -13.0320   19.7970 C   0  0  0  0  0  3  0  0  0  0  0  0
  -29.9270  -13.2570   20.9280 C   0  0  0  0  0  2  0  0  0  0  0  0
  -31.2520  -13.4060   20.3050 N   0  0  0  0  0  0  0  0  0  0  0  0
  -33.0530  -14.6110   19.6190 O   0  0  0  0  0  0  0  0  0  0  0  0
  -31.1520  -15.7140   20.1090 N   0  0  0  0  0  0  0  0  0  0  0  0
  -30.2020  -15.6040   20.4270 H   0  0  0  0  0  0  0  0  0  0  0  0
  -26.6340  -13.8500   20.6970 C   0  0  0  0  0  0  0  0  0  0  0  0
  -25.4910  -13.1830   21.0470 C   0  0  0  0  0  0  0  0  0  0  0  0
  -25.7630  -11.7970   20.8400 C   0  0  0  0  0  0  0  0  0  0  0  0
  -27.5430  -12.8750   20.3170 N   0  0  0  0  0  0  0  0  0  0  0  0
  -27.0240  -11.6280   20.4590 N   0  0  0  0  0  0  0  0  0  0  0  0
  -24.8800  -10.6280   20.9220 C   0  0  0  0  0  0  0  0  0  0  0  0
  -25.0930   -9.6100   21.8770 C   0  0  0  0  0  3  0  0  0  0  0  0
  -24.2190   -8.5040   21.9540 C   0  0  0  0  0  3  0  0  0  0  0  0
  -23.1160   -8.4110   21.0730 C   0  0  0  0  0  0  0  0  0  0  0  0
  -22.9220   -9.4150   20.1080 C   0  0  0  0  0  3  0  0  0  0  0  0
  -23.7970  -10.5110   20.0300 C   0  0  0  0  0  3  0  0  0  0  0  0
  -22.2310   -7.3590   21.0550 O   0  0  0  0  0  0  0  0  0  0  0  0
  -21.8570   -6.7130   22.2060 C   0  0  0  0  0  0  0  0  0  0  0  0
  -21.1680   -7.3780   23.2430 C   0  0  0  0  0  3  0  0  0  0  0  0
  -20.7430   -6.6610   24.3780 C   0  0  0  0  0  3  0  0  0  0  0  0
  -20.9940   -5.2800   24.4750 C   0  0  0  0  0  0  0  0  0  0  0  0
  -21.6730   -4.6130   23.4390 C   0  0  0  0  0  3  0  0  0  0  0  0
  -22.1010   -5.3280   22.3060 C   0  0  0  0  0  0  0  0  0  0  0  0
  -22.7370   -4.6780   21.3030 F   0  0  0  0  0  0  0  0  0  0  0  0
  -20.5760   -4.5880   25.5610 F   0  0  0  0  0  0  0  0  0  0  0  0
  -24.1810  -13.8040   21.4440 C   0  0  0  0  0  0  0  0  0  0  0  0
  -23.3970  -13.1140   22.2660 N   0  0  0  0  0  0  0  0  0  0  0  0
  -23.8690  -14.9310   21.0630 O   0  0  0  0  0  0  0  0  0  0  0  0
  -23.6630  -12.2010   22.6020 H   0  0  0  0  0  0  0  0  0  0  0  0
  -22.5150  -13.5050   22.5650 H   0  0  0  0  0  0  0  0  0  0  0  0
  -26.9690  -15.1970   20.6450 N   0  0  0  0  0  0  0  0  0  0  0  0
  -26.2720  -15.9200   20.7880 H   0  0  0  0  0  0  0  0  0  0  0  0
  -27.8170  -15.5470   20.2200 H   0  0  0  0  0  0  0  0  0  0  0  0
  -29.9670  -23.8820   18.4510 C   0  0  0  0  0  3  0  0  0  0  0  0
  -29.5660  -25.2450   19.1130 C   0  0  0  0  0  3  0  0  0  0  0  0
  -29.3790  -26.3890   18.2340 O   0  0  0  0  0  0  0  0  0  0  0  0
  -25.9700  -30.2020   23.2520 C   0  0  0  0  0  0  0  0  0  0  0  0
  -28.3080  -27.2030   18.5660 C   0  0  0  0  0  0  0  0  0  0  0  0
  -24.6870  -29.6750   21.2080 C   0  0  0  0  0  3  0  0  0  0  0  0
  -26.0420  -28.7630   19.2440 C   0  0  0  0  0  0  0  0  0  0  0  0
  -27.2380  -29.9010   21.1210 C   0  0  0  0  0  2  0  0  0  0  0  0
  -27.2310  -28.9110   19.9690 C   0  0  0  0  0  0  0  0  0  0  0  0
  -28.3740  -28.1440   19.6250 C   0  0  0  0  0  3  0  0  0  0  0  0
  -27.1060  -27.0850   17.8400 C   0  0  0  0  0  3  0  0  0  0  0  0
  -25.9750  -27.8540   18.1740 C   0  0  0  0  0  3  0  0  0  0  0  0
  -24.8620  -29.6110   19.6690 C   0  0  0  0  0  2  0  0  0  0  0  0
  -25.9830  -29.9160   21.9180 N   0  0  0  0  0  0  0  0  0  0  0  0
  -24.9060  -30.3030   23.8770 O   0  0  0  0  0  0  0  0  0  0  0  0
  -23.9570  -28.3980   21.6810 C   0  0  0  0  0  0  0  0  0  0  0  0
  -22.6220  -28.3730   21.5180 N   0  0  0  0  0  0  0  0  0  0  0  0
  -24.5860  -27.4500   22.1570 O   0  0  0  0  0  0  0  0  0  0  0  0
  -22.1780  -29.1890   21.1230 H   0  0  0  0  0  0  0  0  0  0  0  0
  -19.1660  -27.3150   21.5780 C   0  0  0  0  0  0  0  0  0  0  0  0
  -21.7360  -27.2580   21.8560 C   0  0  0  0  0  3  0  0  0  0  0  0
  -21.7310  -26.1940   20.7350 C   0  0  0  0  0  2  0  0  0  0  0  0
  -20.6100  -26.3990   19.7120 C   0  0  0  0  0  2  0  0  0  0  0  0
  -19.2410  -26.3590   20.3990 C   0  0  0  0  0  2  0  0  0  0  0  0
  -20.3380  -27.7480   22.2520 C   0  0  0  0  0  0  0  0  0  0  0  0
  -20.2160  -28.6620   23.3210 C   0  0  0  0  0  3  0  0  0  0  0  0
  -18.9540  -29.1400   23.7190 C   0  0  0  0  0  3  0  0  0  0  0  0
  -17.7950  -28.6960   23.0590 C   0  0  0  0  0  3  0  0  0  0  0  0
  -17.9020  -27.7820   21.9950 C   0  0  0  0  0  3  0  0  0  0  0  0
  -27.2930  -30.4380   24.0480 C   0  0  0  0  0  3  0  0  0  0  0  0
  -27.8280  -29.1370   24.7640 C   0  0  1  0  0  0  0  0  0  0  0  0
  -26.7630  -28.4160   25.6230 C   0  0  0  0  0  1  0  0  0  0  0  0
  -28.3620  -28.1210   23.7270 C   0  0  0  0  0  1  0  0  0  0  0  0
  -29.0200  -29.4970   25.6810 C   0  0  0  0  0  1  0  0  0  0  0  0
  -27.0340  -31.5000   25.0300 N   0  0  0  0  0  0  0  0  0  0  0  0
  -27.5050  -32.7500   24.9380 C   0  0  0  0  0  0  0  0  0  0  0  0
  -28.2730  -33.1130   24.0430 O   0  0  0  0  0  0  0  0  0  0  0  0
  -26.3650  -31.2890   25.7570 H   0  0  0  0  0  0  0  0  0  0  0  0
  -26.0120  -34.7170   25.4140 C   0  0  0  0  0  1  0  0  0  0  0  0
  -27.0550  -33.7590   26.0110 C   0  0  0  0  0  3  0  0  0  0  0  0
  -29.0650  -33.7360   27.4220 C   0  0  0  0  0  1  0  0  0  0  0  0
  -28.1700  -34.5380   26.5920 N   0  0  0  0  0  0  0  0  0  0  0  0
  -27.8180  -35.3060   27.1570 H   0  0  0  0  0  0  0  0  0  0  0  0
  2  1  1  0
  3  1  2  0
  4  2  2  0
  5  6  2  0
  5  4  1  0
  6  3  1  0
  7  5  1  0
  7  9  1  0
  8  4  1  0
  8 10  1  0
  9 51  1  0
  9  8  1  0
 11  6  1  0
 11 12  1  0
 12 21  1  0
 13 21  1  0
 13 19  1  0
 14 19  1  0
 15 16  1  0
 15 14  1  0
 17 16  1  0
 17 26  1  0
 17 18  1  0
 19 18  1  0
 20 13  2  0
 21 22  1  0
 23 24  2  0
 24 43  1  0
 25 28  1  0
 25 24  1  0
 26 27  1  0
 26 23  1  0
 27 25  2  0
 28 29  1  0
 29 30  2  0
 31 30  1  0
 32 31  2  0
 33 32  1  0
 33 28  2  0
 34 31  1  0
 34 35  1  0
 35 40  2  0
 35 36  1  0
 36 37  2  0
 37 38  1  0
 38 42  1  0
 39 38  2  0
 40 39  1  0
 41 40  1  0
 43 44  1  0
 44 47  1  0
 44 46  1  0
 45 43  2  0
 48 23  1  0
 48 49  1  0
 50 48  1  0
 51 52  2  0
 53 55  1  0
 53 52  1  0
 54 65  2  0
 55 60  1  0
 56 66  1  0
 56 64  1  0
 57 63  1  0
 57 59  1  0
 58 64  1  0
 59 58  1  0
 60 59  2  0
 61 62  1  0
 61 55  2  0
 62 57  2  0
 63 56  1  0
 64 54  1  0
 66 68  2  0
 67 66  1  0
 69 67  1  0
 70 79  2  0
 70 75  1  0
 71 67  1  0
 71 75  1  0
 72 71  1  0
 73 74  1  0
 73 72  1  0
 74 70  1  0
 75 76  2  0
 76 77  1  0
 78 77  2  0
 79 78  1  0
 80 54  1  0
 80 81  1  0
 80 85  1  0
 81 82  1  1
 81 84  1  0
 83 81  1  0
 85 88  1  0
 86 85  1  0
 86 90  1  0
 87 86  2  0
 90 89  1  0
 90 92  1  0
 92 93  1  0
 92 91  1  0
M  ISO  4  13 100  21 100  52 101  53 101
M  END
>  <TORSDO>  (42) 
F 20

>  <SCORE>  (42) 
-7.702

>  <name>  (42) 
42

>  <ligand_id>  (42) 
42

>  <original_smiles>  (42) 
[H]c1c([H])c([H])c2c(c1[H])C([H])([H])C([H])([H])C([H])([H])C2([H])N([H])C(=O)C1([H])N(C(=O)C([H])(N([H])C(=O)C([H])(N([H])C([H])([H])[H])C([H])([H])[H])C(C([H])([H])[H])(C([H])([H])[H])C([H])([H])[H])C([H])([H])c2c([H])c(OC([H])([H])C([H])([H])C3([H])C([H])([H])c4c(C([H])([H])C([H])([H])N([H])C(=O)N5C([H])([H])C([H])([H])C([H])([H])C([H])(n6nc(-c7c([H])c([H])c(Oc8c([H])c([H])c(F)c([H])c8F)c([H])c7[H])c(C(=O)N([H])[H])c6N([H])[H])C5([H])[H])c([H])c([H])c([H])c4C3([H])C([H])([H])[H])c([H])c([H])c2C1([H])[H]

>  <smiles>  (42) 
[H]c1c([H])c([H])c2c(c1[H])C([H])([H])C([H])([H])C([H])([H])C2([H])N([H])C(=O)C1([H])N(C(=O)C([H])(N([H])C(=O)C([H])(N([H])C([H])([H])[H])C([H])([H])[H])C(C([H])([H])[H])(C([H])([H])[H])C([H])([H])[H])C([H])([H])c2c([H])c(OC([H])([H])C([H])([H])C3([H])C([H])([H])c4c(C([H])([H])C([H])([H])N([H])C(=O)N5C([H])([H])C([H])([H])C([H])([H])C([H])(n6nc(-c7c([H])c([H])c(Oc8c([H])c([H])c(F)c([H])c8F)c([H])c7[H])c(C(=O)N([H])[H])c6N([H])[H])C5([H])[H])c([H])c([H])c([H])c4C3([H])C([H])([H])[H])c([H])c([H])c2C1([H])[H]

$$$$
43:0:0
     RDKit          3D

 96104  0  0  1  0  0  0  0  0999 V2000
  -27.8350  -22.2100   19.2010 C   0  0  0  0  0  2  0  0  0  0  0  0
  -28.8730  -22.5150   18.1200 C   0  0  0  0  0  2  0  0  0  0  0  0
  -28.4090  -21.5880   20.4840 C   0  0  0  0  0  2  0  0  0  0  0  0
  -30.3810  -23.2130   20.1130 C   0  0  0  0  0  2  0  0  0  0  0  0
  -30.0010  -23.4330   18.6210 C   0  0  0  0  0  3  0  0  0  0  0  0
  -29.8920  -21.9220   20.8570 C   0  0  2  0  0  0  0  0  0  0  0  0
  -29.7550  -24.9420   18.2950 C   0  0  0  0  0  2  0  0  0  0  0  0
  -28.3320  -25.4810   18.5630 C   0  0  0  0  0  2  0  0  0  0  0  0
  -28.3300  -26.9090   18.6790 O   0  0  0  0  0  0  0  0  0  0  0  0
  -24.6130  -31.3460   22.8070 C   0  0  0  0  0  0  0  0  0  0  0  0
  -27.1150  -27.5380   18.8790 C   0  0  0  0  0  0  0  0  0  0  0  0
  -23.3050  -30.1360   21.0890 C   0  0  0  0  0  3  0  0  0  0  0  0
  -24.6700  -28.8970   19.3290 C   0  0  0  0  0  0  0  0  0  0  0  0
  -25.7840  -30.6530   20.7170 C   0  0  0  0  0  2  0  0  0  0  0  0
  -25.8580  -29.3920   19.8810 C   0  0  0  0  0  0  0  0  0  0  0  0
  -27.0800  -28.7220   19.6540 C   0  0  0  0  0  3  0  0  0  0  0  0
  -25.9030  -27.0550   18.3310 C   0  0  0  0  0  3  0  0  0  0  0  0
  -24.6880  -27.7280   18.5500 C   0  0  0  0  0  3  0  0  0  0  0  0
  -23.4050  -29.6760   19.6110 C   0  0  0  0  0  2  0  0  0  0  0  0
  -24.5900  -30.7200   21.5970 N   0  0  0  0  0  0  0  0  0  0  0  0
  -23.5800  -31.4790   23.4780 O   0  0  0  0  0  0  0  0  0  0  0  0
  -22.7910  -28.9550   21.9440 C   0  0  0  0  0  0  0  0  0  0  0  0
  -21.4760  -28.6900   21.8720 N   0  0  0  0  0  0  0  0  0  0  0  0
  -23.5690  -28.2860   22.6300 O   0  0  0  0  0  0  0  0  0  0  0  0
  -20.9030  -29.2930   21.2990 H   0  0  0  0  0  0  0  0  0  0  0  0
  -18.2490  -27.1290   22.3190 C   0  0  0  0  0  0  0  0  0  0  0  0
  -20.7790  -27.6040   22.5600 C   0  0  0  0  0  3  0  0  0  0  0  0
  -20.9970  -26.2560   21.8360 C   0  0  0  0  0  2  0  0  0  0  0  0
  -19.8990  -25.9340   20.8190 C   0  0  0  0  0  2  0  0  0  0  0  0
  -18.5300  -25.8790   21.5030 C   0  0  0  0  0  2  0  0  0  0  0  0
  -19.3050  -27.9480   22.8020 C   0  0  0  0  0  0  0  0  0  0  0  0
  -18.9870  -29.1190   23.5250 C   0  0  0  0  0  3  0  0  0  0  0  0
  -17.6460  -29.4730   23.7690 C   0  0  0  0  0  3  0  0  0  0  0  0
  -16.6060  -28.6520   23.3000 C   0  0  0  0  0  3  0  0  0  0  0  0
  -16.9090  -27.4810   22.5810 C   0  0  0  0  0  3  0  0  0  0  0  0
  -25.9300  -31.9480   23.3930 C   0  0  0  0  0  3  0  0  0  0  0  0
  -26.6030  -31.0250   24.4820 C   0  0  1  0  0  0  0  0  0  0  0  0
  -25.6410  -30.5840   25.6070 C   0  0  0  0  0  1  0  0  0  0  0  0
  -27.1890  -29.7510   23.8300 C   0  0  0  0  0  1  0  0  0  0  0  0
  -27.7890  -31.7710   25.1400 C   0  0  0  0  0  1  0  0  0  0  0  0
  -25.6030  -33.2640   23.9580 N   0  0  0  0  0  0  0  0  0  0  0  0
  -25.8500  -34.4320   23.3520 C   0  0  0  0  0  0  0  0  0  0  0  0
  -26.4490  -34.5160   22.2760 O   0  0  0  0  0  0  0  0  0  0  0  0
  -25.0630  -33.2730   24.8110 H   0  0  0  0  0  0  0  0  0  0  0  0
  -24.0490  -36.1870   23.3890 C   0  0  0  0  0  1  0  0  0  0  0  0
  -25.3520  -35.7120   24.0510 C   0  0  0  0  0  3  0  0  0  0  0  0
  -27.5100  -36.5400   24.8780 C   0  0  0  0  0  1  0  0  0  0  0  0
  -26.3430  -36.8100   24.0440 N   0  0  0  0  0  0  0  0  0  0  0  0
  -25.9190  -37.6770   24.3620 H   0  0  0  0  0  0  0  0  0  0  0  0
  -30.8780  -20.6950   20.6810 C   0  0  0  0  0  2  0  0  0  0  0  0
  -30.8190  -19.7750   19.4330 C   0  0  0  0  0  2  0  0  0  0  0  0
  -30.4620  -18.2860   19.7140 C   0  0  0  0  0  2  0  0  0  0  0  0
  -31.3400  -17.5310   20.7450 C   0  0  0  0  0  2  0  0  0  0  0  0
  -31.5840  -15.0540   20.3380 C   0  0  0  0  0  0  0  0  0  0  0  0
  -31.3070  -12.7400   19.5210 C   0  0  0  0  0  2  0  0  0  0  0  0
  -30.4260  -12.7360   18.2560 C   0  0  0  0  0  2  0  0  0  0  0  0
  -28.9320  -12.6770   18.6270 C   0  0  0  0  0  2  0  0  0  0  0  0
  -28.5410  -13.7090   19.7170 C   0  0  0  0  0  3  0  0  0  0  0  0
  -29.5400  -13.6760   20.8970 C   0  0  0  0  0  2  0  0  0  0  0  0
  -30.8980  -13.8790   20.3570 N   0  0  0  0  0  0  0  0  0  0  0  0
  -32.6870  -15.1790   19.7960 O   0  0  0  0  0  0  0  0  0  0  0  0
  -30.9460  -16.1150   20.8620 N   0  0  0  0  0  0  0  0  0  0  0  0
  -30.0780  -15.9200   21.3410 H   0  0  0  0  0  0  0  0  0  0  0  0
  -26.1730  -14.4550   20.3960 C   0  0  0  0  0  0  0  0  0  0  0  0
  -25.0510  -13.7460   20.7320 C   0  0  0  0  0  0  0  0  0  0  0  0
  -25.4210  -12.3680   20.6700 C   0  0  0  0  0  0  0  0  0  0  0  0
  -27.1630  -13.5130   20.1620 N   0  0  0  0  0  0  0  0  0  0  0  0
  -26.7100  -12.2510   20.3790 N   0  0  0  0  0  0  0  0  0  0  0  0
  -24.6100  -11.1520   20.8140 C   0  0  0  0  0  0  0  0  0  0  0  0
  -24.9380  -10.1540   21.7560 C   0  0  0  0  0  3  0  0  0  0  0  0
  -24.1350   -9.0010   21.8900 C   0  0  0  0  0  3  0  0  0  0  0  0
  -22.9840   -8.8400   21.0820 C   0  0  0  0  0  0  0  0  0  0  0  0
  -22.6730   -9.8270   20.1310 C   0  0  0  0  0  3  0  0  0  0  0  0
  -23.4780  -10.9700   19.9950 C   0  0  0  0  0  3  0  0  0  0  0  0
  -22.1580   -7.7420   21.1240 O   0  0  0  0  0  0  0  0  0  0  0  0
  -21.9530   -7.0410   22.2850 C   0  0  0  0  0  0  0  0  0  0  0  0
  -21.4500   -7.6600   23.4520 C   0  0  0  0  0  3  0  0  0  0  0  0
  -21.1890   -6.8880   24.6010 C   0  0  0  0  0  3  0  0  0  0  0  0
  -21.4190   -5.5000   24.5850 C   0  0  0  0  0  0  0  0  0  0  0  0
  -21.9130   -4.8810   23.4230 C   0  0  0  0  0  3  0  0  0  0  0  0
  -22.1760   -5.6500   22.2760 C   0  0  0  0  0  0  0  0  0  0  0  0
  -22.6310   -5.0450   21.1530 F   0  0  0  0  0  0  0  0  0  0  0  0
  -21.1590   -4.7580   25.6860 F   0  0  0  0  0  0  0  0  0  0  0  0
  -23.6820  -14.3050   20.9980 C   0  0  0  0  0  0  0  0  0  0  0  0
  -22.9000  -13.6460   21.8470 N   0  0  0  0  0  0  0  0  0  0  0  0
  -23.3170  -15.3620   20.4860 O   0  0  0  0  0  0  0  0  0  0  0  0
  -23.2070  -12.7900   22.2830 H   0  0  0  0  0  0  0  0  0  0  0  0
  -21.9800  -14.0030   22.0650 H   0  0  0  0  0  0  0  0  0  0  0  0
  -26.4320  -15.8160   20.2490 N   0  0  0  0  0  0  0  0  0  0  0  0
  -25.7100  -16.5230   20.3480 H   0  0  0  0  0  0  0  0  0  0  0  0
  -27.3070  -16.1910   19.9040 H   0  0  0  0  0  0  0  0  0  0  0  0
  -29.9700  -22.2770   22.3860 C   0  0  0  0  0  2  0  0  0  0  0  0
  -29.0710  -21.4740   23.2360 N   0  0  0  0  0  4  0  0  0  0  0  0
  -28.1190  -21.6860   22.9930 H   0  0  0  0  0  0  0  0  0  0  0  0
  -29.2020  -21.7090   24.2040 H   0  0  0  0  0  0  0  0  0  0  0  0
  -29.2220  -20.4900   23.1120 H   0  0  0  0  0  0  0  0  0  0  0  0
  1  3  1  0
  2  5  1  0
  2  1  1  0
  3  6  1  0
  4  6  1  0
  5  7  1  0
  5  4  1  0
  6 50  1  1
  6 92  1  0
  7  8  1  0
  8  9  1  0
  9 11  1  0
 10 21  2  0
 11 16  1  0
 12 20  1  0
 12 22  1  0
 13 19  1  0
 13 15  1  0
 14 20  1  0
 15 14  1  0
 16 15  2  0
 17 18  1  0
 17 11  2  0
 18 13  2  0
 19 12  1  0
 20 10  1  0
 22 24  2  0
 23 22  1  0
 25 23  1  0
 26 35  2  0
 26 31  1  0
 27 23  1  0
 27 31  1  0
 28 27  1  0
 29 30  1  0
 29 28  1  0
 30 26  1  0
 31 32  2  0
 32 33  1  0
 34 33  2  0
 35 34  1  0
 36 10  1  0
 36 41  1  0
 36 37  1  0
 37 40  1  1
 37 38  1  0
 39 37  1  0
 41 44  1  0
 42 41  1  0
 42 46  1  0
 43 42  2  0
 46 45  1  0
 48 46  1  0
 48 49  1  0
 48 47  1  0
 51 52  1  0
 51 50  1  0
 52 53  1  0
 53 62  1  0
 54 60  1  0
 54 62  1  0
 55 60  1  0
 56 57  1  0
 56 55  1  0
 58 57  1  0
 58 67  1  0
 58 59  1  0
 60 59  1  0
 61 54  2  0
 62 63  1  0
 64 65  2  0
 65 84  1  0
 66 65  1  0
 66 69  1  0
 67 68  1  0
 67 64  1  0
 68 66  2  0
 69 70  1  0
 70 71  2  0
 72 75  1  0
 72 71  1  0
 73 72  2  0
 74 73  1  0
 74 69  2  0
 75 76  1  0
 76 77  1  0
 77 78  2  0
 79 78  1  0
 79 83  1  0
 80 79  2  0
 81 76  2  0
 81 80  1  0
 82 81  1  0
 84 85  1  0
 85 88  1  0
 85 87  1  0
 86 84  2  0
 89 90  1  0
 89 64  1  0
 91 89  1  0
 92 93  1  0
 93 95  1  0
 94 93  1  0
 96 93  1  0
M  ISO  4   8 101   9 101  54 100  62 100
M  END
>  <TORSDO>  (43) 
F 24

>  <SCORE>  (43) 
-9.994

>  <name>  (43) 
43

>  <ligand_id>  (43) 
43

>  <original_smiles>  (43) 
[H]c1c([H])c([H])c2c(c1[H])C([H])([H])C([H])([H])C([H])([H])C2([H])N([H])C(=O)C1([H])N(C(=O)C([H])(N([H])C(=O)C([H])(N([H])C([H])([H])[H])C([H])([H])[H])C(C([H])([H])[H])(C([H])([H])[H])C([H])([H])[H])C([H])([H])c2c([H])c(OC([H])([H])C([H])([H])C3([H])C([H])([H])C([H])([H])C([H])([H])C(C([H])([H])C([H])([H])C([H])([H])C([H])([H])N([H])C(=O)N4C([H])([H])C([H])([H])C([H])([H])C([H])(n5nc(-c6c([H])c([H])c(Oc7c([H])c([H])c(F)c([H])c7F)c([H])c6[H])c(C(=O)N([H])[H])c5N([H])[H])C4([H])[H])(C([H])([H])[N+]([H])([H])[H])C3([H])[H])c([H])c([H])c2C1([H])[H]

>  <smiles>  (43) 
[H]c1c([H])c([H])c2c(c1[H])C([H])([H])C([H])([H])C([H])([H])C2([H])N([H])C(=O)C1([H])N(C(=O)C([H])(N([H])C(=O)C([H])(N([H])C([H])([H])[H])C([H])([H])[H])C(C([H])([H])[H])(C([H])([H])[H])C([H])([H])[H])C([H])([H])c2c([H])c(OC([H])([H])C([H])([H])C3([H])C([H])([H])C([H])([H])C([H])([H])C(C([H])([H])C([H])([H])C([H])([H])C([H])([H])N([H])C(=O)N4C([H])([H])C([H])([H])C([H])([H])C([H])(n5nc(-c6c([H])c([H])c(Oc7c([H])c([H])c(F)c([H])c7F)c([H])c6[H])c(C(=O)N([H])[H])c5N([H])[H])C4([H])[H])(C([H])([H])[N+]([H])([H])[H])C3([H])[H])c([H])c([H])c2C1([H])[H]

$$$$
44:0:0
     RDKit          3D

 92101  0  0  1  0  0  0  0  0999 V2000
  -29.4880  -23.8740   22.2600 C   0  0  0  0  0  0  0  0  0  0  0  0
  -29.3810  -23.7780   24.6630 C   0  0  0  0  0  1  0  0  0  0  0  0
  -29.6390  -24.4360   23.4000 N   0  0  0  0  0  0  0  0  0  0  0  0
  -29.7550  -21.2370   22.8180 C   0  0  0  0  0  2  0  0  0  0  0  0
  -31.4090  -21.4050   20.7980 C   0  0  0  0  0  2  0  0  0  0  0  0
  -29.1940  -22.3800   21.9460 C   0  0  0  0  0  3  0  0  0  0  0  0
  -29.9490  -21.7880   20.7620 C   0  0  0  0  0  3  0  0  0  0  0  0
  -30.4040  -20.6010   21.6040 C   0  0  1  0  0  0  0  0  0  0  0  0
  -29.8950  -19.1880   21.2490 C   0  0  0  0  0  2  0  0  0  0  0  0
  -30.9170  -18.2340   20.5740 C   0  0  0  0  0  2  0  0  0  0  0  0
  -30.2900  -16.9840   19.8970 C   0  0  0  0  0  2  0  0  0  0  0  0
  -31.0850  -14.6520   20.2770 C   0  0  0  0  0  0  0  0  0  0  0  0
  -30.8060  -12.4120   19.2900 C   0  0  0  0  0  2  0  0  0  0  0  0
  -29.8820  -12.5560   18.0590 C   0  0  0  0  0  2  0  0  0  0  0  0
  -28.3990  -12.4610   18.4700 C   0  0  0  0  0  2  0  0  0  0  0  0
  -28.0560  -13.3680   19.6830 C   0  0  0  0  0  3  0  0  0  0  0  0
  -29.0960  -13.2020   20.8190 C   0  0  0  0  0  2  0  0  0  0  0  0
  -30.4310  -13.4570   20.2570 N   0  0  0  0  0  0  0  0  0  0  0  0
  -32.2060  -14.8100   19.7860 O   0  0  0  0  0  0  0  0  0  0  0  0
  -30.3290  -15.7090   20.6400 N   0  0  0  0  0  0  0  0  0  0  0  0
  -29.4760  -15.4660   21.1240 H   0  0  0  0  0  0  0  0  0  0  0  0
  -25.6720  -14.0500   20.3800 C   0  0  0  0  0  0  0  0  0  0  0  0
  -24.5800  -13.3110   20.7510 C   0  0  0  0  0  0  0  0  0  0  0  0
  -25.0010  -11.9480   20.7280 C   0  0  0  0  0  0  0  0  0  0  0  0
  -26.6920  -13.1370   20.1570 N   0  0  0  0  0  0  0  0  0  0  0  0
  -26.2900  -11.8680   20.4220 N   0  0  0  0  0  0  0  0  0  0  0  0
  -24.2370  -10.7080   20.9240 C   0  0  0  0  0  0  0  0  0  0  0  0
  -24.6150   -9.7530   21.8920 C   0  0  0  0  0  3  0  0  0  0  0  0
  -23.8540   -8.5780   22.0760 C   0  0  0  0  0  3  0  0  0  0  0  0
  -22.6980   -8.3510   21.2890 C   0  0  0  0  0  0  0  0  0  0  0  0
  -22.3400   -9.2950   20.3100 C   0  0  0  0  0  3  0  0  0  0  0  0
  -23.1020  -10.4620   20.1260 C   0  0  0  0  0  3  0  0  0  0  0  0
  -21.9130   -7.2280   21.3780 O   0  0  0  0  0  0  0  0  0  0  0  0
  -21.7720   -6.5410   22.5570 C   0  0  0  0  0  0  0  0  0  0  0  0
  -21.2730   -7.1570   23.7240 C   0  0  0  0  0  3  0  0  0  0  0  0
  -21.0780   -6.3960   24.8940 C   0  0  0  0  0  3  0  0  0  0  0  0
  -21.3740   -5.0200   24.8970 C   0  0  0  0  0  0  0  0  0  0  0  0
  -21.8660   -4.4030   23.7350 C   0  0  0  0  0  3  0  0  0  0  0  0
  -22.0610   -5.1610   22.5660 C   0  0  0  0  0  0  0  0  0  0  0  0
  -22.5160   -4.5570   21.4420 F   0  0  0  0  0  0  0  0  0  0  0  0
  -21.1800   -4.2870   26.0190 F   0  0  0  0  0  0  0  0  0  0  0  0
  -23.1980  -13.8340   21.0210 C   0  0  0  0  0  0  0  0  0  0  0  0
  -22.4540  -13.1700   21.9010 N   0  0  0  0  0  0  0  0  0  0  0  0
  -22.7870  -14.8620   20.4870 O   0  0  0  0  0  0  0  0  0  0  0  0
  -22.8000  -12.3380   22.3540 H   0  0  0  0  0  0  0  0  0  0  0  0
  -21.5270  -13.5010   22.1240 H   0  0  0  0  0  0  0  0  0  0  0  0
  -25.8780  -15.4140   20.1970 N   0  0  0  0  0  0  0  0  0  0  0  0
  -25.1290  -16.0920   20.2990 H   0  0  0  0  0  0  0  0  0  0  0  0
  -26.7420  -15.8280   19.8650 H   0  0  0  0  0  0  0  0  0  0  0  0
  -29.4900  -24.7800   21.0210 C   0  0  0  0  0  2  0  0  0  0  0  0
  -28.6230  -26.0520   21.2120 C   0  0  0  0  0  2  0  0  0  0  0  0
  -28.4180  -26.7830   19.9970 O   0  0  0  0  0  0  0  0  0  0  0  0
  -24.6440  -31.8930   23.2160 C   0  0  0  0  0  0  0  0  0  0  0  0
  -27.2670  -27.5360   20.0270 C   0  0  0  0  0  0  0  0  0  0  0  0
  -23.4130  -30.5090   21.5730 C   0  0  0  0  0  3  0  0  0  0  0  0
  -24.8560  -29.0020   20.1010 C   0  0  0  0  0  0  0  0  0  0  0  0
  -25.9310  -30.8940   21.3360 C   0  0  0  0  0  2  0  0  0  0  0  0
  -26.0170  -29.5330   20.6800 C   0  0  0  0  0  0  0  0  0  0  0  0
  -27.2270  -28.8050   20.6460 C   0  0  0  0  0  3  0  0  0  0  0  0
  -26.0980  -27.0150   19.4420 C   0  0  0  0  0  3  0  0  0  0  0  0
  -24.8910  -27.7400   19.4790 C   0  0  0  0  0  3  0  0  0  0  0  0
  -23.6040  -29.8460   20.1810 C   0  0  0  0  0  2  0  0  0  0  0  0
  -24.6800  -31.1130   22.1000 N   0  0  0  0  0  0  0  0  0  0  0  0
  -23.5730  -32.1480   23.7820 O   0  0  0  0  0  0  0  0  0  0  0  0
  -22.7870  -29.4700   22.5300 C   0  0  0  0  0  0  0  0  0  0  0  0
  -21.4630  -29.2780   22.4210 N   0  0  0  0  0  0  0  0  0  0  0  0
  -23.4910  -28.8380   23.3230 O   0  0  0  0  0  0  0  0  0  0  0  0
  -20.9600  -29.8380   21.7450 H   0  0  0  0  0  0  0  0  0  0  0  0
  -18.1080  -28.0400   22.9370 C   0  0  0  0  0  0  0  0  0  0  0  0
  -20.6650  -28.3270   23.1920 C   0  0  0  0  0  3  0  0  0  0  0  0
  -20.7800  -26.9000   22.6070 C   0  0  0  0  0  2  0  0  0  0  0  0
  -19.6750  -26.5700   21.5990 C   0  0  0  0  0  2  0  0  0  0  0  0
  -18.2960  -26.6960   22.2530 C   0  0  0  0  0  2  0  0  0  0  0  0
  -19.2210  -28.8120   23.3630 C   0  0  0  0  0  0  0  0  0  0  0  0
  -18.9940  -30.0700   23.9640 C   0  0  0  0  0  3  0  0  0  0  0  0
  -17.6850  -30.5570   24.1430 C   0  0  0  0  0  3  0  0  0  0  0  0
  -16.5860  -29.7830   23.7340 C   0  0  0  0  0  3  0  0  0  0  0  0
  -16.7980  -28.5260   23.1360 C   0  0  0  0  0  3  0  0  0  0  0  0
  -25.9380  -32.5210   23.8170 C   0  0  0  0  0  3  0  0  0  0  0  0
  -25.6310  -33.9130   24.1670 N   0  0  0  0  0  0  0  0  0  0  0  0
  -25.9530  -34.9760   23.4130 C   0  0  0  0  0  0  0  0  0  0  0  0
  -26.6110  -34.8840   22.3730 O   0  0  0  0  0  0  0  0  0  0  0  0
  -25.0480  -34.0560   24.9770 H   0  0  0  0  0  0  0  0  0  0  0  0
  -24.2210  -36.7700   23.0940 C   0  0  0  0  0  1  0  0  0  0  0  0
  -25.4690  -36.3580   23.8910 C   0  0  0  0  0  3  0  0  0  0  0  0
  -27.6060  -37.2370   24.7180 C   0  0  0  0  0  1  0  0  0  0  0  0
  -26.4980  -37.4130   23.7820 N   0  0  0  0  0  0  0  0  0  0  0  0
  -26.0930  -38.3320   23.9410 H   0  0  0  0  0  0  0  0  0  0  0  0
  -26.4850  -31.7360   25.0730 C   0  0  1  0  0  0  0  0  0  0  0  0
  -25.4110  -31.4730   26.1530 C   0  0  0  0  0  1  0  0  0  0  0  0
  -27.0770  -30.3710   24.6520 C   0  0  0  0  0  1  0  0  0  0  0  0
  -27.6380  -32.5330   25.7290 C   0  0  0  0  0  1  0  0  0  0  0  0
  1  3  2  0
  3  2  1  0
  5  8  1  0
  6  1  1  0
  6  4  1  0
  7  5  1  0
  7  8  1  0
  7  6  1  0
  8  9  1  6
  8  4  1  0
 10  9  1  0
 11 10  1  0
 11 20  1  0
 12 20  1  0
 13 18  1  0
 14 15  1  0
 14 13  1  0
 16 15  1  0
 16 25  1  0
 16 17  1  0
 18 12  1  0
 18 17  1  0
 19 12  2  0
 20 21  1  0
 22 23  2  0
 23 42  1  0
 24 23  1  0
 24 27  1  0
 25 22  1  0
 25 26  1  0
 26 24  2  0
 27 28  1  0
 28 29  2  0
 30 33  1  0
 30 29  1  0
 31 30  2  0
 32 31  1  0
 32 27  2  0
 33 34  1  0
 34 39  2  0
 34 35  1  0
 35 36  2  0
 36 37  1  0
 37 41  1  0
 38 37  2  0
 39 38  1  0
 40 39  1  0
 42 43  1  0
 43 46  1  0
 43 45  1  0
 44 42  2  0
 47 48  1  0
 47 22  1  0
 49 47  1  0
 50 51  1  0
 50  1  1  0
 52 54  1  0
 52 51  1  0
 53 64  2  0
 54 59  1  0
 55 63  1  0
 55 65  1  0
 56 62  1  0
 56 58  1  0
 57 63  1  0
 58 57  1  0
 59 58  2  0
 60 61  1  0
 60 54  2  0
 61 56  2  0
 62 55  1  0
 63 53  1  0
 65 67  2  0
 66 65  1  0
 68 66  1  0
 69 78  2  0
 69 74  1  0
 70 66  1  0
 70 74  1  0
 71 70  1  0
 72 73  1  0
 72 71  1  0
 73 69  1  0
 74 75  2  0
 75 76  1  0
 77 76  2  0
 78 77  1  0
 79 53  1  0
 79 80  1  0
 79 89  1  0
 80 83  1  0
 81 85  1  0
 81 80  1  0
 82 81  2  0
 85 84  1  0
 87 85  1  0
 87 88  1  0
 87 86  1  0
 89 92  1  1
 89 90  1  0
 91 89  1  0
M  ISO  4  12 100  20 100  51 101  52 101
M  END
>  <TORSDO>  (44) 
F 22

>  <SCORE>  (44) 
-11.902

>  <name>  (44) 
44

>  <ligand_id>  (44) 
44

>  <original_smiles>  (44) 
[H]c1c([H])c([H])c2c(c1[H])C([H])([H])C([H])([H])C([H])([H])C2([H])N([H])C(=O)C1([H])N(C(=O)C([H])(N([H])C(=O)C([H])(N([H])C([H])([H])[H])C([H])([H])[H])C(C([H])([H])[H])(C([H])([H])[H])C([H])([H])[H])C([H])([H])c2c([H])c(OC([H])([H])C([H])([H])C(=NC([H])([H])[H])C3([H])C([H])([H])C4(C([H])([H])C([H])([H])C([H])([H])N([H])C(=O)N5C([H])([H])C([H])([H])C([H])([H])C([H])(n6nc(-c7c([H])c([H])c(Oc8c([H])c([H])c(F)c([H])c8F)c([H])c7[H])c(C(=O)N([H])[H])c6N([H])[H])C5([H])[H])C([H])([H])C34[H])c([H])c([H])c2C1([H])[H]

>  <smiles>  (44) 
[H]c1c([H])c([H])c2c(c1[H])C([H])([H])C([H])([H])C([H])([H])C2([H])N([H])C(=O)C1([H])N(C(=O)C([H])(N([H])C(=O)C([H])(N([H])C([H])([H])[H])C([H])([H])[H])C(C([H])([H])[H])(C([H])([H])[H])C([H])([H])[H])C([H])([H])c2c([H])c(OC([H])([H])C([H])([H])C(=NC([H])([H])[H])C3([H])C([H])([H])C4(C([H])([H])C([H])([H])C([H])([H])N([H])C(=O)N5C([H])([H])C([H])([H])C([H])([H])C([H])(n6nc(-c7c([H])c([H])c(Oc8c([H])c([H])c(F)c([H])c8F)c([H])c7[H])c(C(=O)N([H])[H])c6N([H])[H])C5([H])[H])C([H])([H])C34[H])c([H])c([H])c2C1([H])[H]

$$$$
45:0:0
     RDKit          3D

 96104  0  0  1  0  0  0  0  0999 V2000
  -30.8180  -20.6160   21.7230 C   0  0  0  0  0  2  0  0  0  0  0  0
  -30.3720  -22.0840   21.7530 C   0  0  0  0  0  2  0  0  0  0  0  0
  -28.7600  -20.4310   20.3230 C   0  0  0  0  0  2  0  0  0  0  0  0
  -30.1150  -19.7780   20.6480 C   0  0  0  0  0  3  0  0  0  0  0  0
  -30.0410  -22.7000   20.3580 C   0  0  0  0  0  3  0  0  0  0  0  0
  -28.8800  -21.8480   19.6480 C   0  0  2  0  0  0  0  0  0  0  0  0
  -31.0710  -24.9300   21.2430 C   0  0  0  0  0  1  0  0  0  0  0  0
  -29.8770  -24.2790   20.4880 C   0  0  0  0  0  3  0  0  0  0  0  0
  -29.6620  -25.0250   19.1380 C   0  0  0  0  0  2  0  0  0  0  0  0
  -29.6430  -26.5720   19.1490 C   0  0  0  0  0  2  0  0  0  0  0  0
  -29.0570  -27.1210   20.3290 O   0  0  0  0  0  0  0  0  0  0  0  0
  -24.7010  -31.8550   23.3040 C   0  0  0  0  0  0  0  0  0  0  0  0
  -27.8270  -27.7240   20.2500 C   0  0  0  0  0  0  0  0  0  0  0  0
  -23.6930  -30.4400   21.5410 C   0  0  0  0  0  3  0  0  0  0  0  0
  -25.3310  -29.0440   20.1650 C   0  0  0  0  0  0  0  0  0  0  0  0
  -26.1940  -30.9610   21.5250 C   0  0  0  0  0  2  0  0  0  0  0  0
  -26.4060  -29.6230   20.8500 C   0  0  0  0  0  0  0  0  0  0  0  0
  -27.6500  -28.9610   20.9050 C   0  0  0  0  0  3  0  0  0  0  0  0
  -26.7330  -27.1400   19.5750 C   0  0  0  0  0  3  0  0  0  0  0  0
  -25.4860  -27.7970   19.5310 C   0  0  0  0  0  3  0  0  0  0  0  0
  -24.0320  -29.8180   20.1580 C   0  0  0  0  0  2  0  0  0  0  0  0
  -24.8760  -31.1000   22.1830 N   0  0  0  0  0  0  0  0  0  0  0  0
  -23.5730  -32.0430   23.7800 O   0  0  0  0  0  0  0  0  0  0  0  0
  -23.0490  -29.3490   22.4260 C   0  0  0  0  0  0  0  0  0  0  0  0
  -21.7360  -29.1310   22.2430 N   0  0  0  0  0  0  0  0  0  0  0  0
  -23.7270  -28.7040   23.2290 O   0  0  0  0  0  0  0  0  0  0  0  0
  -21.2510  -29.7070   21.5690 H   0  0  0  0  0  0  0  0  0  0  0  0
  -18.3810  -27.8450   22.6020 C   0  0  0  0  0  0  0  0  0  0  0  0
  -20.9280  -28.1280   22.9340 C   0  0  0  0  0  3  0  0  0  0  0  0
  -21.0690  -26.7430   22.2600 C   0  0  0  0  0  2  0  0  0  0  0  0
  -19.9870  -26.4740   21.2080 C   0  0  0  0  0  2  0  0  0  0  0  0
  -18.5930  -26.5490   21.8370 C   0  0  0  0  0  2  0  0  0  0  0  0
  -19.4780  -28.5940   23.1030 C   0  0  0  0  0  0  0  0  0  0  0  0
  -19.2270  -29.8090   23.7760 C   0  0  0  0  0  3  0  0  0  0  0  0
  -17.9120  -30.2770   23.9510 C   0  0  0  0  0  3  0  0  0  0  0  0
  -16.8280  -29.5230   23.4680 C   0  0  0  0  0  3  0  0  0  0  0  0
  -17.0640  -28.3080   22.8000 C   0  0  0  0  0  3  0  0  0  0  0  0
  -25.9050  -32.5400   24.0270 C   0  0  0  0  0  3  0  0  0  0  0  0
  -25.5250  -33.9320   24.2950 N   0  0  0  0  0  0  0  0  0  0  0  0
  -25.8980  -34.9800   23.5470 C   0  0  0  0  0  0  0  0  0  0  0  0
  -26.6660  -34.8780   22.5870 O   0  0  0  0  0  0  0  0  0  0  0  0
  -24.8490  -34.0840   25.0290 H   0  0  0  0  0  0  0  0  0  0  0  0
  -24.1500  -36.7010   22.9950 C   0  0  0  0  0  1  0  0  0  0  0  0
  -25.3260  -36.3600   23.9240 C   0  0  0  0  0  3  0  0  0  0  0  0
  -27.3500  -37.3330   24.9160 C   0  0  0  0  0  1  0  0  0  0  0  0
  -26.3290  -37.4450   23.8770 N   0  0  0  0  0  0  0  0  0  0  0  0
  -25.8820  -38.3540   23.9680 H   0  0  0  0  0  0  0  0  0  0  0  0
  -26.3270  -31.8090   25.3610 C   0  0  1  0  0  0  0  0  0  0  0  0
  -25.1480  -31.5510   26.3270 C   0  0  0  0  0  1  0  0  0  0  0  0
  -26.9880  -30.4440   25.0500 C   0  0  0  0  0  1  0  0  0  0  0  0
  -27.3840  -32.6530   26.1110 C   0  0  0  0  0  1  0  0  0  0  0  0
  -26.3130  -21.8780   19.0420 C   0  0  0  0  0  1  0  0  0  0  0  0
  -27.4820  -22.5200   19.8160 C   0  0  0  0  0  2  0  0  0  0  0  0
  -29.0600  -22.6240   17.0730 C   0  0  0  0  0  1  0  0  0  0  0  0
  -29.2000  -21.5310   18.1410 C   0  0  0  0  0  2  0  0  0  0  0  0
  -29.9910  -18.2930   21.0610 C   0  0  0  0  0  2  0  0  0  0  0  0
  -31.3580  -17.5940   21.1990 C   0  0  0  0  0  2  0  0  0  0  0  0
  -31.3310  -16.3030   22.0350 C   0  0  0  0  0  2  0  0  0  0  0  0
  -30.8770  -14.5310   20.3400 C   0  0  0  0  0  0  0  0  0  0  0  0
  -30.4860  -12.4530   19.0690 C   0  0  0  0  0  2  0  0  0  0  0  0
  -29.4950  -12.6510   17.9100 C   0  0  0  0  0  2  0  0  0  0  0  0
  -28.0430  -12.4890   18.3960 C   0  0  0  0  0  2  0  0  0  0  0  0
  -27.7450  -13.3270   19.6670 C   0  0  0  0  0  3  0  0  0  0  0  0
  -28.8350  -13.1050   20.7370 C   0  0  0  0  0  2  0  0  0  0  0  0
  -30.1490  -13.4060   20.1370 N   0  0  0  0  0  0  0  0  0  0  0  0
  -31.8440  -14.8510   19.6420 O   0  0  0  0  0  0  0  0  0  0  0  0
  -30.5400  -15.2330   21.4310 N   0  0  0  0  0  0  0  0  0  0  0  0
  -29.7480  -14.8920   21.9560 H   0  0  0  0  0  0  0  0  0  0  0  0
  -25.3740  -13.9150   20.4840 C   0  0  0  0  0  0  0  0  0  0  0  0
  -24.3220  -13.1330   20.8750 C   0  0  0  0  0  0  0  0  0  0  0  0
  -24.7800  -11.7830   20.7900 C   0  0  0  0  0  0  0  0  0  0  0  0
  -26.4100  -13.0420   20.1890 N   0  0  0  0  0  0  0  0  0  0  0  0
  -26.0570  -11.7520   20.4270 N   0  0  0  0  0  0  0  0  0  0  0  0
  -24.0630  -10.5150   20.9760 C   0  0  0  0  0  0  0  0  0  0  0  0
  -24.4960   -9.5510   21.9130 C   0  0  0  0  0  3  0  0  0  0  0  0
  -23.7770   -8.3490   22.0870 C   0  0  0  0  0  3  0  0  0  0  0  0
  -22.6120   -8.1020   21.3230 C   0  0  0  0  0  0  0  0  0  0  0  0
  -22.1980   -9.0540   20.3750 C   0  0  0  0  0  3  0  0  0  0  0  0
  -22.9170  -10.2480   20.1990 C   0  0  0  0  0  3  0  0  0  0  0  0
  -21.8660   -6.9500   21.4050 O   0  0  0  0  0  0  0  0  0  0  0  0
  -21.7680   -6.2380   22.5730 C   0  0  0  0  0  0  0  0  0  0  0  0
  -21.2850   -6.8220   23.7650 C   0  0  0  0  0  3  0  0  0  0  0  0
  -21.1360   -6.0350   24.9240 C   0  0  0  0  0  3  0  0  0  0  0  0
  -21.4590   -4.6660   24.8930 C   0  0  0  0  0  0  0  0  0  0  0  0
  -21.9350   -4.0810   23.7060 C   0  0  0  0  0  3  0  0  0  0  0  0
  -22.0860   -4.8650   22.5480 C   0  0  0  0  0  0  0  0  0  0  0  0
  -22.5250   -4.2910   21.4020 F   0  0  0  0  0  0  0  0  0  0  0  0
  -21.3080   -3.9070   26.0040 F   0  0  0  0  0  0  0  0  0  0  0  0
  -22.9370  -13.6010   21.2200 C   0  0  0  0  0  0  0  0  0  0  0  0
  -22.2490  -12.8850   22.1020 N   0  0  0  0  0  0  0  0  0  0  0  0
  -22.4750  -14.6370   20.7430 O   0  0  0  0  0  0  0  0  0  0  0  0
  -22.6360  -12.0460   22.5100 H   0  0  0  0  0  0  0  0  0  0  0  0
  -21.3220  -13.1790   22.3750 H   0  0  0  0  0  0  0  0  0  0  0  0
  -25.5330  -15.2910   20.3380 N   0  0  0  0  0  0  0  0  0  0  0  0
  -24.7750  -15.9460   20.4970 H   0  0  0  0  0  0  0  0  0  0  0  0
  -26.3800  -15.7380   20.0080 H   0  0  0  0  0  0  0  0  0  0  0  0
  1  2  1  0
  3  4  1  0
  4 56  1  0
  4  1  1  0
  5  8  1  0
  5  2  1  0
  6 53  1  6
  6  3  1  0
  6  5  1  0
  8  7  1  0
  9 10  1  0
  9  8  1  0
 10 11  1  0
 12 23  2  0
 13 11  1  0
 13 18  1  0
 14 22  1  0
 14 24  1  0
 15 17  1  0
 16 22  1  0
 17 18  2  0
 17 16  1  0
 19 13  2  0
 20 19  1  0
 20 15  2  0
 21 15  1  0
 21 14  1  0
 22 12  1  0
 24 26  2  0
 25 24  1  0
 27 25  1  0
 28 37  2  0
 28 33  1  0
 29 25  1  0
 29 33  1  0
 30 29  1  0
 31 32  1  0
 31 30  1  0
 32 28  1  0
 33 34  2  0
 34 35  1  0
 36 35  2  0
 37 36  1  0
 38 12  1  0
 38 39  1  0
 38 48  1  0
 39 42  1  0
 40 44  1  0
 40 39  1  0
 41 40  2  0
 44 43  1  0
 46 44  1  0
 46 47  1  0
 46 45  1  0
 48 51  1  1
 48 49  1  0
 50 48  1  0
 52 53  1  0
 54 55  1  0
 55  6  1  0
 56 57  1  0
 57 58  1  0
 59 67  1  0
 60 65  1  0
 61 62  1  0
 61 60  1  0
 63 62  1  0
 63 72  1  0
 63 64  1  0
 65 59  1  0
 65 64  1  0
 66 59  2  0
 67 68  1  0
 67 58  1  0
 69 70  2  0
 70 89  1  0
 71 70  1  0
 71 74  1  0
 72 73  1  0
 72 69  1  0
 73 71  2  0
 74 75  1  0
 75 76  2  0
 77 80  1  0
 77 76  1  0
 78 77  2  0
 79 78  1  0
 79 74  2  0
 80 81  1  0
 81 82  1  0
 82 83  2  0
 84 83  1  0
 84 88  1  0
 85 84  2  0
 86 81  2  0
 86 85  1  0
 87 86  1  0
 89 90  1  0
 90 93  1  0
 90 92  1  0
 91 89  2  0
 94 69  1  0
 94 95  1  0
 96 94  1  0
M  ISO  4  10 101  11 101  59 100  67 100
M  END
>  <TORSDO>  (45) 
F 24

>  <SCORE>  (45) 
-12.200

>  <name>  (45) 
45

>  <ligand_id>  (45) 
45

>  <original_smiles>  (45) 
[H]c1c([H])c([H])c2c(c1[H])C([H])([H])C([H])([H])C([H])([H])C2([H])N([H])C(=O)C1([H])N(C(=O)C([H])(N([H])C(=O)C([H])(N([H])C([H])([H])[H])C([H])([H])[H])C(C([H])([H])[H])(C([H])([H])[H])C([H])([H])[H])C([H])([H])c2c([H])c(OC([H])([H])C([H])([H])C([H])(C([H])([H])[H])C3([H])C([H])([H])C([H])([H])C([H])(C([H])([H])C([H])([H])C([H])([H])N([H])C(=O)N4C([H])([H])C([H])([H])C([H])([H])C([H])(n5nc(-c6c([H])c([H])c(Oc7c([H])c([H])c(F)c([H])c7F)c([H])c6[H])c(C(=O)N([H])[H])c5N([H])[H])C4([H])[H])C([H])([H])C3(C([H])([H])C([H])([H])[H])C([H])([H])C([H])([H])[H])c([H])c([H])c2C1([H])[H]

>  <smiles>  (45) 
[H]c1c([H])c([H])c2c(c1[H])C([H])([H])C([H])([H])C([H])([H])C2([H])N([H])C(=O)C1([H])N(C(=O)C([H])(N([H])C(=O)C([H])(N([H])C([H])([H])[H])C([H])([H])[H])C(C([H])([H])[H])(C([H])([H])[H])C([H])([H])[H])C([H])([H])c2c([H])c(OC([H])([H])C([H])([H])C([H])(C([H])([H])[H])C3([H])C([H])([H])C([H])([H])C([H])(C([H])([H])C([H])([H])C([H])([H])N([H])C(=O)N4C([H])([H])C([H])([H])C([H])([H])C([H])(n5nc(-c6c([H])c([H])c(Oc7c([H])c([H])c(F)c([H])c7F)c([H])c6[H])c(C(=O)N([H])[H])c5N([H])[H])C4([H])[H])C([H])([H])C3(C([H])([H])C([H])([H])[H])C([H])([H])C([H])([H])[H])c([H])c([H])c2C1([H])[H]

$$$$
46:0:0
     RDKit          3D

 96104  0  0  1  0  0  0  0  0999 V2000
  -30.4250  -22.1340   20.8420 C   0  0  0  0  0  2  0  0  0  0  0  0
  -28.0600  -21.6160   20.1710 C   0  0  0  0  0  2  0  0  0  0  0  0
  -30.6800  -20.6300   21.0870 C   0  0  0  0  0  2  0  0  0  0  0  0
  -28.3140  -20.1200   20.4110 C   0  0  0  0  0  2  0  0  0  0  0  0
  -28.9480  -22.5030   21.0600 C   0  0  0  0  0  3  0  0  0  0  0  0
  -29.7950  -19.6740   20.2260 C   0  0  1  0  0  0  0  0  0  0  0  0
  -30.2260  -19.7040   18.7300 C   0  0  0  0  0  0  0  0  0  0  0  0
  -29.3720  -19.2560   17.8170 N   0  0  0  0  0  0  0  0  0  0  0  0
  -31.3320  -20.1180   18.3820 O   0  0  0  0  0  0  0  0  0  0  0  0
  -28.4650  -18.9120   18.0950 H   0  0  0  0  0  0  0  0  0  0  0  0
  -29.6230  -19.2630   16.8390 H   0  0  0  0  0  0  0  0  0  0  0  0
  -28.6240  -23.9850   20.7900 C   0  0  0  0  0  2  0  0  0  0  0  0
  -29.5470  -25.0070   21.4760 C   0  0  0  0  0  2  0  0  0  0  0  0
  -28.9290  -26.4110   21.4900 C   0  0  0  0  0  2  0  0  0  0  0  0
  -28.4450  -26.7250   20.1860 O   0  0  0  0  0  0  0  0  0  0  0  0
  -24.6110  -31.8680   23.2550 C   0  0  0  0  0  0  0  0  0  0  0  0
  -27.2930  -27.4700   20.1890 C   0  0  0  0  0  0  0  0  0  0  0  0
  -23.4120  -30.4580   21.6100 C   0  0  0  0  0  3  0  0  0  0  0  0
  -24.8790  -28.9220   20.1940 C   0  0  0  0  0  0  0  0  0  0  0  0
  -25.9300  -30.8380   21.4140 C   0  0  0  0  0  2  0  0  0  0  0  0
  -26.0270  -29.4660   20.7860 C   0  0  0  0  0  0  0  0  0  0  0  0
  -27.2360  -28.7450   20.7910 C   0  0  0  0  0  3  0  0  0  0  0  0
  -26.1420  -26.9340   19.5820 C   0  0  0  0  0  3  0  0  0  0  0  0
  -24.9300  -27.6520   19.5910 C   0  0  0  0  0  3  0  0  0  0  0  0
  -23.6270  -29.7680   20.2350 C   0  0  0  0  0  2  0  0  0  0  0  0
  -24.6690  -31.0680   22.1530 N   0  0  0  0  0  0  0  0  0  0  0  0
  -23.5290  -32.1370   23.7920 O   0  0  0  0  0  0  0  0  0  0  0  0
  -22.7630  -29.4390   22.5720 C   0  0  0  0  0  0  0  0  0  0  0  0
  -21.4390  -29.2580   22.4400 N   0  0  0  0  0  0  0  0  0  0  0  0
  -23.4460  -28.8150   23.3870 O   0  0  0  0  0  0  0  0  0  0  0  0
  -20.9520  -29.8170   21.7540 H   0  0  0  0  0  0  0  0  0  0  0  0
  -18.0590  -28.0920   22.9470 C   0  0  0  0  0  0  0  0  0  0  0  0
  -20.6180  -28.3220   23.2080 C   0  0  0  0  0  3  0  0  0  0  0  0
  -20.7050  -26.8960   22.6190 C   0  0  0  0  0  2  0  0  0  0  0  0
  -19.5950  -26.5900   21.6080 C   0  0  0  0  0  2  0  0  0  0  0  0
  -18.2170  -26.7460   22.2590 C   0  0  0  0  0  2  0  0  0  0  0  0
  -19.1860  -28.8390   23.3760 C   0  0  0  0  0  0  0  0  0  0  0  0
  -18.9850  -30.1020   23.9760 C   0  0  0  0  0  3  0  0  0  0  0  0
  -17.6880  -30.6150   24.1540 C   0  0  0  0  0  3  0  0  0  0  0  0
  -16.5730  -29.8650   23.7420 C   0  0  0  0  0  3  0  0  0  0  0  0
  -16.7590  -28.6050   23.1460 C   0  0  0  0  0  3  0  0  0  0  0  0
  -25.8960  -32.5010   23.8780 C   0  0  0  0  0  3  0  0  0  0  0  0
  -25.5830  -33.8940   24.2180 N   0  0  0  0  0  0  0  0  0  0  0  0
  -25.9180  -34.9520   23.4680 C   0  0  0  0  0  0  0  0  0  0  0  0
  -26.5950  -34.8580   22.4410 O   0  0  0  0  0  0  0  0  0  0  0  0
  -24.9860  -34.0420   25.0200 H   0  0  0  0  0  0  0  0  0  0  0  0
  -24.1950  -36.7480   23.1010 C   0  0  0  0  0  1  0  0  0  0  0  0
  -25.4220  -36.3360   23.9320 C   0  0  0  0  0  3  0  0  0  0  0  0
  -27.5350  -37.2160   24.8210 C   0  0  0  0  0  1  0  0  0  0  0  0
  -26.4570  -37.3890   23.8500 N   0  0  0  0  0  0  0  0  0  0  0  0
  -26.0470  -38.3090   23.9920 H   0  0  0  0  0  0  0  0  0  0  0  0
  -26.4240  -31.7220   25.1440 C   0  0  1  0  0  0  0  0  0  0  0  0
  -25.3330  -31.4520   26.2080 C   0  0  0  0  0  1  0  0  0  0  0  0
  -27.0320  -30.3600   24.7330 C   0  0  0  0  0  1  0  0  0  0  0  0
  -27.5620  -32.5250   25.8180 C   0  0  0  0  0  1  0  0  0  0  0  0
  -29.8960  -18.2130   20.7590 C   0  0  0  0  0  2  0  0  0  0  0  0
  -31.2830  -17.5350   20.7230 C   0  0  0  0  0  2  0  0  0  0  0  0
  -31.3650  -16.2800   21.6180 C   0  0  0  0  0  2  0  0  0  0  0  0
  -30.9240  -14.3390   20.1300 C   0  0  0  0  0  0  0  0  0  0  0  0
  -30.4630  -12.2290   18.9390 C   0  0  0  0  0  2  0  0  0  0  0  0
  -29.4600  -12.4430   17.7910 C   0  0  0  0  0  2  0  0  0  0  0  0
  -28.0130  -12.3250   18.3080 C   0  0  0  0  0  2  0  0  0  0  0  0
  -27.7610  -13.1830   19.5760 C   0  0  0  0  0  3  0  0  0  0  0  0
  -28.8700  -12.9560   20.6280 C   0  0  0  0  0  2  0  0  0  0  0  0
  -30.1740  -13.2150   19.9910 N   0  0  0  0  0  0  0  0  0  0  0  0
  -31.9110  -14.5840   19.4290 O   0  0  0  0  0  0  0  0  0  0  0  0
  -30.5670  -15.1550   21.1290 N   0  0  0  0  0  0  0  0  0  0  0  0
  -29.7530  -14.8880   21.6630 H   0  0  0  0  0  0  0  0  0  0  0  0
  -25.4280  -13.8370   20.4480 C   0  0  0  0  0  0  0  0  0  0  0  0
  -24.3600  -13.0840   20.8590 C   0  0  0  0  0  0  0  0  0  0  0  0
  -24.7770  -11.7210   20.7580 C   0  0  0  0  0  0  0  0  0  0  0  0
  -26.4310  -12.9350   20.1280 N   0  0  0  0  0  0  0  0  0  0  0  0
  -26.0440  -11.6550   20.3680 N   0  0  0  0  0  0  0  0  0  0  0  0
  -24.0260  -10.4750   20.9560 C   0  0  0  0  0  0  0  0  0  0  0  0
  -24.4470   -9.4980   21.8850 C   0  0  0  0  0  3  0  0  0  0  0  0
  -23.6970   -8.3170   22.0690 C   0  0  0  0  0  3  0  0  0  0  0  0
  -22.5120   -8.1050   21.3260 C   0  0  0  0  0  0  0  0  0  0  0  0
  -22.1110   -9.0700   20.3850 C   0  0  0  0  0  3  0  0  0  0  0  0
  -22.8610  -10.2430   20.2000 C   0  0  0  0  0  3  0  0  0  0  0  0
  -21.7340   -6.9760   21.4200 O   0  0  0  0  0  0  0  0  0  0  0  0
  -21.6430   -6.2600   22.5880 C   0  0  0  0  0  0  0  0  0  0  0  0
  -21.1600   -6.8400   23.7810 C   0  0  0  0  0  3  0  0  0  0  0  0
  -21.0160   -6.0490   24.9410 C   0  0  0  0  0  3  0  0  0  0  0  0
  -21.3460   -4.6810   24.9060 C   0  0  0  0  0  0  0  0  0  0  0  0
  -21.8230   -4.1020   23.7170 C   0  0  0  0  0  3  0  0  0  0  0  0
  -21.9670   -4.8890   22.5600 C   0  0  0  0  0  0  0  0  0  0  0  0
  -22.4070   -4.3200   21.4120 F   0  0  0  0  0  0  0  0  0  0  0  0
  -21.2010   -3.9200   26.0170 F   0  0  0  0  0  0  0  0  0  0  0  0
  -22.9990  -13.5920   21.2350 C   0  0  0  0  0  0  0  0  0  0  0  0
  -22.3020  -12.8850   22.1170 N   0  0  0  0  0  0  0  0  0  0  0  0
  -22.5630  -14.6510   20.7830 O   0  0  0  0  0  0  0  0  0  0  0  0
  -22.6670  -12.0270   22.5020 H   0  0  0  0  0  0  0  0  0  0  0  0
  -21.3910  -13.2050   22.4110 H   0  0  0  0  0  0  0  0  0  0  0  0
  -25.6230  -15.2090   20.3020 N   0  0  0  0  0  0  0  0  0  0  0  0
  -24.8860  -15.8810   20.4820 H   0  0  0  0  0  0  0  0  0  0  0  0
  -26.4750  -15.6320   19.9560 H   0  0  0  0  0  0  0  0  0  0  0  0
  1  5  1  0
  1  3  1  0
  2  4  1  0
  2  5  1  0
  5 12  1  0
  6  4  1  0
  6 56  1  1
  6  3  1  0
  7  6  1  0
  8 10  1  0
  8  7  1  0
  9  7  2  0
 11  8  1  0
 12 13  1  0
 13 14  1  0
 15 17  1  0
 15 14  1  0
 16 27  2  0
 17 22  1  0
 18 26  1  0
 18 28  1  0
 19 25  1  0
 19 21  1  0
 20 26  1  0
 21 22  2  0
 21 20  1  0
 23 24  1  0
 23 17  2  0
 24 19  2  0
 25 18  1  0
 26 16  1  0
 28 30  2  0
 29 28  1  0
 31 29  1  0
 32 41  2  0
 32 37  1  0
 33 29  1  0
 33 37  1  0
 34 33  1  0
 35 36  1  0
 35 34  1  0
 36 32  1  0
 37 38  2  0
 38 39  1  0
 40 39  2  0
 41 40  1  0
 42 16  1  0
 42 43  1  0
 42 52  1  0
 43 46  1  0
 44 48  1  0
 44 43  1  0
 45 44  2  0
 48 47  1  0
 50 48  1  0
 50 51  1  0
 50 49  1  0
 52 55  1  1
 52 53  1  0
 54 52  1  0
 57 56  1  0
 57 58  1  0
 59 67  1  0
 60 65  1  0
 61 62  1  0
 61 60  1  0
 63 62  1  0
 63 72  1  0
 63 64  1  0
 65 59  1  0
 65 64  1  0
 66 59  2  0
 67 58  1  0
 67 68  1  0
 69 70  2  0
 70 89  1  0
 71 70  1  0
 71 74  1  0
 72 73  1  0
 72 69  1  0
 73 71  2  0
 74 75  1  0
 75 76  2  0
 77 80  1  0
 77 76  1  0
 78 77  2  0
 79 78  1  0
 79 74  2  0
 80 81  1  0
 81 82  1  0
 82 83  2  0
 84 83  1  0
 84 88  1  0
 85 84  2  0
 86 81  2  0
 86 85  1  0
 87 86  1  0
 89 90  1  0
 90 93  1  0
 90 92  1  0
 91 89  2  0
 94 69  1  0
 94 95  1  0
 96 94  1  0
M  ISO  4  14 101  15 101  59 100  67 100
M  END
>  <TORSDO>  (46) 
F 23

>  <SCORE>  (46) 
-12.961

>  <name>  (46) 
46

>  <ligand_id>  (46) 
46

>  <original_smiles>  (46) 
[H]c1c([H])c([H])c2c(c1[H])C([H])([H])C([H])([H])C([H])([H])C2([H])N([H])C(=O)C1([H])N(C(=O)C([H])(N([H])C(=O)C([H])(N([H])C([H])([H])[H])C([H])([H])[H])C(C([H])([H])[H])(C([H])([H])[H])C([H])([H])[H])C([H])([H])c2c([H])c(OC([H])([H])C([H])([H])C([H])([H])C3([H])C([H])([H])C([H])([H])C(C(=O)N([H])[H])(C([H])([H])C([H])([H])C([H])([H])N([H])C(=O)N4C([H])([H])C([H])([H])C([H])([H])C([H])(n5nc(-c6c([H])c([H])c(Oc7c([H])c([H])c(F)c([H])c7F)c([H])c6[H])c(C(=O)N([H])[H])c5N([H])[H])C4([H])[H])C([H])([H])C3([H])[H])c([H])c([H])c2C1([H])[H]

>  <smiles>  (46) 
[H]c1c([H])c([H])c2c(c1[H])C([H])([H])C([H])([H])C([H])([H])C2([H])N([H])C(=O)C1([H])N(C(=O)C([H])(N([H])C(=O)C([H])(N([H])C([H])([H])[H])C([H])([H])[H])C(C([H])([H])[H])(C([H])([H])[H])C([H])([H])[H])C([H])([H])c2c([H])c(OC([H])([H])C([H])([H])C([H])([H])C3([H])C([H])([H])C([H])([H])C(C(=O)N([H])[H])(C([H])([H])C([H])([H])C([H])([H])N([H])C(=O)N4C([H])([H])C([H])([H])C([H])([H])C([H])(n5nc(-c6c([H])c([H])c(Oc7c([H])c([H])c(F)c([H])c7F)c([H])c6[H])c(C(=O)N([H])[H])c5N([H])[H])C4([H])[H])C([H])([H])C3([H])[H])c([H])c([H])c2C1([H])[H]

$$$$
47:0:0
     RDKit          3D

 91 98  0  0  1  0  0  0  0  0999 V2000
  -30.1390  -20.1360   20.4080 C   0  0  0  0  0  2  0  0  0  0  0  0
  -29.1520  -21.3350   20.8300 C   0  0  0  0  0  2  0  0  0  0  0  0
  -29.4410  -22.7820   20.1960 C   0  0  0  0  0  3  0  0  0  0  0  0
  -28.6680  -24.0950   20.7010 C   0  0  0  0  0  3  0  0  0  0  0  0
  -28.7750  -25.4150   19.8000 C   0  0  0  0  0  2  0  0  0  0  0  0
  -28.6000  -26.7720   20.3720 O   0  0  0  0  0  0  0  0  0  0  0  0
  -24.6680  -32.0250   23.3250 C   0  0  0  0  0  0  0  0  0  0  0  0
  -27.4230  -27.5330   20.2900 C   0  0  0  0  0  0  0  0  0  0  0  0
  -23.5090  -30.5930   21.6770 C   0  0  0  0  0  3  0  0  0  0  0  0
  -25.0080  -29.0720   20.2640 C   0  0  0  0  0  0  0  0  0  0  0  0
  -26.0380  -30.9760   21.5100 C   0  0  0  0  0  2  0  0  0  0  0  0
  -26.1560  -29.5980   20.8670 C   0  0  0  0  0  0  0  0  0  0  0  0
  -27.3610  -28.8380   20.8720 C   0  0  0  0  0  3  0  0  0  0  0  0
  -26.2490  -27.0480   19.6760 C   0  0  0  0  0  3  0  0  0  0  0  0
  -25.0560  -27.8030   19.6620 C   0  0  0  0  0  3  0  0  0  0  0  0
  -23.7480  -29.9140   20.3010 C   0  0  0  0  0  2  0  0  0  0  0  0
  -24.7570  -31.2160   22.2270 N   0  0  0  0  0  0  0  0  0  0  0  0
  -23.5750  -32.2760   23.8530 O   0  0  0  0  0  0  0  0  0  0  0  0
  -22.8650  -29.5650   22.6370 C   0  0  0  0  0  0  0  0  0  0  0  0
  -21.5530  -29.3270   22.4750 N   0  0  0  0  0  0  0  0  0  0  0  0
  -23.5460  -28.9830   23.4850 O   0  0  0  0  0  0  0  0  0  0  0  0
  -21.0610  -29.8490   21.7630 H   0  0  0  0  0  0  0  0  0  0  0  0
  -18.2270  -27.9600   22.8670 C   0  0  0  0  0  0  0  0  0  0  0  0
  -20.7540  -28.3660   23.2350 C   0  0  0  0  0  3  0  0  0  0  0  0
  -20.9570  -26.9280   22.7050 C   0  0  0  0  0  2  0  0  0  0  0  0
  -19.9190  -26.5200   21.6540 C   0  0  0  0  0  2  0  0  0  0  0  0
  -18.5050  -26.6060   22.2360 C   0  0  0  0  0  2  0  0  0  0  0  0
  -19.2840  -28.7930   23.3220 C   0  0  0  0  0  0  0  0  0  0  0  0
  -18.9720  -30.0570   23.8690 C   0  0  0  0  0  3  0  0  0  0  0  0
  -17.6360  -30.4900   23.9660 C   0  0  0  0  0  3  0  0  0  0  0  0
  -16.5940  -29.6550   23.5280 C   0  0  0  0  0  3  0  0  0  0  0  0
  -16.8900  -28.3930   22.9840 C   0  0  0  0  0  3  0  0  0  0  0  0
  -25.9310  -32.6880   23.9560 C   0  0  0  0  0  3  0  0  0  0  0  0
  -25.5960  -34.0880   24.2530 N   0  0  0  0  0  0  0  0  0  0  0  0
  -25.9220  -35.1310   23.4790 C   0  0  0  0  0  0  0  0  0  0  0  0
  -26.6050  -35.0190   22.4570 O   0  0  0  0  0  0  0  0  0  0  0  0
  -24.9890  -34.2480   25.0440 H   0  0  0  0  0  0  0  0  0  0  0  0
  -24.1690  -36.8900   23.0750 C   0  0  0  0  0  1  0  0  0  0  0  0
  -25.4090  -36.5210   23.9040 C   0  0  0  0  0  3  0  0  0  0  0  0
  -27.5200  -37.4600   24.7360 C   0  0  0  0  0  1  0  0  0  0  0  0
  -26.4260  -37.5880   23.7770 N   0  0  0  0  0  0  0  0  0  0  0  0
  -26.0040  -38.5040   23.9000 H   0  0  0  0  0  0  0  0  0  0  0  0
  -26.4380  -31.9500   25.2560 C   0  0  1  0  0  0  0  0  0  0  0  0
  -25.3250  -31.6920   26.2990 C   0  0  0  0  0  1  0  0  0  0  0  0
  -27.0740  -30.5860   24.8990 C   0  0  0  0  0  1  0  0  0  0  0  0
  -27.5460  -32.7890   25.9370 C   0  0  0  0  0  1  0  0  0  0  0  0
  -29.7290  -18.5840   20.1890 C   0  0  0  0  0  3  0  0  0  0  0  0
  -28.2200  -18.4160   19.8630 C   0  0  0  0  0  2  0  0  0  0  0  0
  -27.8970  -17.7020   18.5550 C   0  0  0  0  0  0  0  0  0  0  0  0
  -28.3760  -18.3540   17.2760 C   0  0  0  0  0  1  0  0  0  0  0  0
  -27.2120  -16.6440   18.5270 N   0  0  0  0  0  0  0  0  0  0  0  0
  -27.0600  -16.3140   17.5800 H   0  0  0  0  0  0  0  0  0  0  0  0
  -30.3500  -17.4590   21.1520 C   0  0  0  0  0  2  0  0  0  0  0  0
  -30.8870  -14.9140   20.7130 C   0  0  0  0  0  0  0  0  0  0  0  0
  -30.7590  -12.6570   19.6700 C   0  0  0  0  0  2  0  0  0  0  0  0
  -29.8440  -12.7520   18.4290 C   0  0  0  0  0  2  0  0  0  0  0  0
  -28.3640  -12.5640   18.8220 C   0  0  0  0  0  2  0  0  0  0  0  0
  -27.9570  -13.4180   20.0540 C   0  0  0  0  0  3  0  0  0  0  0  0
  -28.9910  -13.3070   21.1920 C   0  0  0  0  0  2  0  0  0  0  0  0
  -30.2950  -13.6800   20.6270 N   0  0  0  0  0  0  0  0  0  0  0  0
  -32.0800  -15.0680   20.4410 O   0  0  0  0  0  0  0  0  0  0  0  0
  -30.0530  -15.9910   20.9150 N   0  0  0  0  0  0  0  0  0  0  0  0
  -29.0800  -15.7380   21.0110 H   0  0  0  0  0  0  0  0  0  0  0  0
  -25.5430  -13.9920   20.7220 C   0  0  0  0  0  0  0  0  0  0  0  0
  -24.4750  -13.2040   21.0570 C   0  0  0  0  0  0  0  0  0  0  0  0
  -24.9500  -11.8590   21.0180 C   0  0  0  0  0  0  0  0  0  0  0  0
  -26.6000  -13.1230   20.5000 N   0  0  0  0  0  0  0  0  0  0  0  0
  -26.2480  -11.8340   20.7390 N   0  0  0  0  0  0  0  0  0  0  0  0
  -24.2320  -10.5880   21.1710 C   0  0  0  0  0  0  0  0  0  0  0  0
  -24.6340   -9.6230   22.1200 C   0  0  0  0  0  3  0  0  0  0  0  0
  -23.9160   -8.4170   22.2630 C   0  0  0  0  0  3  0  0  0  0  0  0
  -22.7810   -8.1660   21.4550 C   0  0  0  0  0  0  0  0  0  0  0  0
  -22.4000   -9.1200   20.4950 C   0  0  0  0  0  3  0  0  0  0  0  0
  -23.1200  -10.3180   20.3510 C   0  0  0  0  0  3  0  0  0  0  0  0
  -22.0370   -7.0120   21.5070 O   0  0  0  0  0  0  0  0  0  0  0  0
  -21.9140   -6.2880   22.6650 C   0  0  0  0  0  0  0  0  0  0  0  0
  -21.3640   -6.8470   23.8390 C   0  0  0  0  0  3  0  0  0  0  0  0
  -21.1910   -6.0470   24.9860 C   0  0  0  0  0  3  0  0  0  0  0  0
  -21.5580   -4.6890   24.9590 C   0  0  0  0  0  0  0  0  0  0  0  0
  -22.1020   -4.1290   23.7890 C   0  0  0  0  0  3  0  0  0  0  0  0
  -22.2770   -4.9260   22.6450 C   0  0  0  0  0  0  0  0  0  0  0  0
  -22.7820   -4.3770   21.5140 F   0  0  0  0  0  0  0  0  0  0  0  0
  -21.3850   -3.9170   26.0570 F   0  0  0  0  0  0  0  0  0  0  0  0
  -23.0660  -13.6660   21.2940 C   0  0  0  0  0  0  0  0  0  0  0  0
  -22.3230  -12.9550   22.1340 N   0  0  0  0  0  0  0  0  0  0  0  0
  -22.6330  -14.6920   20.7710 O   0  0  0  0  0  0  0  0  0  0  0  0
  -22.6850  -12.1230   22.5770 H   0  0  0  0  0  0  0  0  0  0  0  0
  -21.3770  -13.2460   22.3360 H   0  0  0  0  0  0  0  0  0  0  0  0
  -25.6910  -15.3650   20.5630 N   0  0  0  0  0  0  0  0  0  0  0  0
  -24.8570  -15.9400   20.5490 H   0  0  0  0  0  0  0  0  0  0  0  0
  -26.4060  -15.7290   19.9290 H   0  0  0  0  0  0  0  0  0  0  0  0
  1  2  1  0
  3  4  2  0
  3  2  1  0
  5  6  1  0
  5  4  1  0
  7 18  2  0
  8  6  1  0
  8 13  1  0
  9 17  1  0
  9 19  1  0
 10 16  1  0
 10 12  1  0
 11 17  1  0
 12 13  2  0
 12 11  1  0
 14  8  2  0
 15 14  1  0
 15 10  2  0
 16  9  1  0
 17  7  1  0
 19 21  2  0
 20 19  1  0
 22 20  1  0
 23 32  2  0
 23 28  1  0
 24 20  1  0
 24 28  1  0
 25 24  1  0
 26 27  1  0
 26 25  1  0
 27 23  1  0
 28 29  2  0
 29 30  1  0
 31 30  2  0
 32 31  1  0
 33  7  1  0
 33 34  1  0
 33 43  1  0
 34 37  1  0
 35 39  1  0
 35 34  1  0
 36 35  2  0
 39 38  1  0
 41 42  1  0
 41 39  1  0
 41 40  1  0
 43 46  1  1
 43 44  1  0
 45 43  1  0
 47 48  1  0
 47  1  1  0
 47 53  1  0
 49 48  1  0
 50 49  1  0
 51 49  2  0
 52 51  1  0
 54 62  1  0
 55 60  1  0
 56 57  1  0
 56 55  1  0
 58 57  1  0
 58 67  1  0
 58 59  1  0
 60 54  1  0
 60 59  1  0
 61 54  2  0
 62 63  1  0
 62 53  1  0
 64 65  2  0
 65 84  1  0
 66 65  1  0
 66 69  1  0
 67 64  1  0
 67 68  1  0
 68 66  2  0
 69 70  1  0
 70 71  2  0
 72 75  1  0
 72 71  1  0
 73 72  2  0
 74 73  1  0
 74 69  2  0
 75 76  1  0
 76 77  1  0
 77 78  2  0
 79 78  1  0
 79 83  1  0
 80 79  2  0
 81 76  2  0
 81 80  1  0
 82 81  1  0
 84 85  1  0
 85 88  1  0
 85 87  1  0
 86 84  2  0
 89 64  1  0
 90 89  1  0
 91 89  1  0
M  ISO  4   5 101   6 101  54 100  62 100
M  END
>  <TORSDO>  (47) 
F 24

>  <SCORE>  (47) 
-12.004

>  <name>  (47) 
47

>  <ligand_id>  (47) 
47

>  <original_smiles>  (47) 
[H]N=C(C([H])([H])[H])C([H])([H])C([H])(C([H])([H])N([H])C(=O)N1C([H])([H])C([H])([H])C([H])([H])C([H])(n2nc(-c3c([H])c([H])c(Oc4c([H])c([H])c(F)c([H])c4F)c([H])c3[H])c(C(=O)N([H])[H])c2N([H])[H])C1([H])[H])C([H])([H])C([H])([H])C([H])([H])C([H])([H])C([H])([H])Oc1c([H])c([H])c2c(c1[H])C([H])([H])N(C(=O)C([H])(N([H])C(=O)C([H])(N([H])C([H])([H])[H])C([H])([H])[H])C(C([H])([H])[H])(C([H])([H])[H])C([H])([H])[H])C([H])(C(=O)N([H])C1([H])c3c([H])c([H])c([H])c([H])c3C([H])([H])C([H])([H])C1([H])[H])C2([H])[H]

>  <smiles>  (47) 
[H]N=C(C([H])([H])[H])C([H])([H])C([H])(C([H])([H])N([H])C(=O)N1C([H])([H])C([H])([H])C([H])([H])C([H])(n2nc(-c3c([H])c([H])c(Oc4c([H])c([H])c(F)c([H])c4F)c([H])c3[H])c(C(=O)N([H])[H])c2N([H])[H])C1([H])[H])C([H])([H])C([H])([H])C([H])([H])C([H])([H])C([H])([H])Oc1c([H])c([H])c2c(c1[H])C([H])([H])N(C(=O)C([H])(N([H])C(=O)C([H])(N([H])C([H])([H])[H])C([H])([H])[H])C(C([H])([H])[H])(C([H])([H])[H])C([H])([H])[H])C([H])(C(=O)N([H])C1([H])c3c([H])c([H])c([H])c([H])c3C([H])([H])C([H])([H])C1([H])[H])C2([H])[H]

$$$$
48:0:0
     RDKit          3D

 98107  0  0  1  0  0  0  0  0999 V2000
  -29.3540  -18.4850   20.6550 C   0  0  0  0  0  0  0  0  0  0  0  0
  -33.9380  -20.0830   19.3750 C   0  0  0  0  0  2  0  0  0  0  0  0
  -33.9250  -19.7290   17.8930 C   0  0  0  0  0  2  0  0  0  0  0  0
  -32.9440  -19.0920   19.9720 C   0  0  0  0  0  2  0  0  0  0  0  0
  -30.7280  -20.1110   19.2380 C   0  0  0  0  0  2  0  0  0  0  0  0
  -31.0720  -17.6070   19.0310 C   0  0  0  0  0  2  0  0  0  0  0  0
  -29.8950  -19.9750   20.5320 C   0  0  0  0  0  3  0  0  0  0  0  0
  -30.3970  -17.3040   20.4000 C   0  0  0  0  0  3  0  0  0  0  0  0
  -32.4710  -19.3210   17.5860 C   0  0  0  0  0  3  0  0  0  0  0  0
  -31.7750  -18.9980   18.9600 C   0  0  2  0  0  0  0  0  0  0  0  0
  -28.1710  -18.2670   20.9220 O   0  0  0  0  0  0  0  0  0  0  0  0
  -30.6230  -14.7020   20.3380 C   0  0  0  0  0  0  0  0  0  0  0  0
  -30.3700  -12.4660   19.2850 C   0  0  0  0  0  2  0  0  0  0  0  0
  -29.4320  -12.5860   18.0670 C   0  0  0  0  0  2  0  0  0  0  0  0
  -27.9620  -12.4170   18.5020 C   0  0  0  0  0  2  0  0  0  0  0  0
  -27.5980  -13.2930   19.7310 C   0  0  0  0  0  3  0  0  0  0  0  0
  -28.6580  -13.1720   20.8480 C   0  0  0  0  0  2  0  0  0  0  0  0
  -29.9570  -13.5060   20.2530 N   0  0  0  0  0  0  0  0  0  0  0  0
  -31.8220  -14.7600   20.0630 O   0  0  0  0  0  0  0  0  0  0  0  0
  -29.8920  -15.8650   20.4850 N   0  0  0  0  0  0  0  0  0  0  0  0
  -28.9040  -15.7630   20.6690 H   0  0  0  0  0  0  0  0  0  0  0  0
  -25.2040  -13.8830   20.4500 C   0  0  0  0  0  0  0  0  0  0  0  0
  -24.1390  -13.1080   20.8230 C   0  0  0  0  0  0  0  0  0  0  0  0
  -24.6050  -11.7570   20.8000 C   0  0  0  0  0  0  0  0  0  0  0  0
  -26.2510  -13.0040   20.2210 N   0  0  0  0  0  0  0  0  0  0  0  0
  -25.8980  -11.7210   20.4950 N   0  0  0  0  0  0  0  0  0  0  0  0
  -23.8810  -10.4940   20.9960 C   0  0  0  0  0  0  0  0  0  0  0  0
  -24.3100   -9.5340   21.9380 C   0  0  0  0  0  3  0  0  0  0  0  0
  -23.5870   -8.3350   22.1210 C   0  0  0  0  0  3  0  0  0  0  0  0
  -22.4210   -8.0890   21.3590 C   0  0  0  0  0  0  0  0  0  0  0  0
  -22.0120   -9.0350   20.4050 C   0  0  0  0  0  3  0  0  0  0  0  0
  -22.7360  -10.2240   20.2190 C   0  0  0  0  0  3  0  0  0  0  0  0
  -21.6700   -6.9410   21.4500 O   0  0  0  0  0  0  0  0  0  0  0  0
  -21.6110   -6.2080   22.6090 C   0  0  0  0  0  0  0  0  0  0  0  0
  -21.1700   -6.7720   23.8260 C   0  0  0  0  0  3  0  0  0  0  0  0
  -21.0590   -5.9670   24.9780 C   0  0  0  0  0  3  0  0  0  0  0  0
  -21.3810   -4.5980   24.9140 C   0  0  0  0  0  0  0  0  0  0  0  0
  -21.8150   -4.0330   23.7030 C   0  0  0  0  0  3  0  0  0  0  0  0
  -21.9280   -4.8360   22.5540 C   0  0  0  0  0  0  0  0  0  0  0  0
  -22.3280   -4.2810   21.3840 F   0  0  0  0  0  0  0  0  0  0  0  0
  -21.2690   -3.8220   26.0170 F   0  0  0  0  0  0  0  0  0  0  0  0
  -22.7380  -13.5800   21.0870 C   0  0  0  0  0  0  0  0  0  0  0  0
  -22.0080  -12.8870   21.9520 N   0  0  0  0  0  0  0  0  0  0  0  0
  -22.2990  -14.6010   20.5590 O   0  0  0  0  0  0  0  0  0  0  0  0
  -22.3730  -12.0640   22.4050 H   0  0  0  0  0  0  0  0  0  0  0  0
  -21.0650  -13.1850   22.1670 H   0  0  0  0  0  0  0  0  0  0  0  0
  -25.3680  -15.2530   20.2620 N   0  0  0  0  0  0  0  0  0  0  0  0
  -24.6020  -15.9120   20.3630 H   0  0  0  0  0  0  0  0  0  0  0  0
  -26.2250  -15.6880   19.9400 H   0  0  0  0  0  0  0  0  0  0  0  0
  -32.4110  -18.2460   16.5770 N   0  0  0  0  0  4  0  0  0  0  0  0
  -32.8320  -17.3990   16.9160 H   0  0  0  0  0  0  0  0  0  0  0  0
  -32.9020  -18.5300   15.7470 H   0  0  0  0  0  0  0  0  0  0  0  0
  -31.4610  -18.0540   16.3140 H   0  0  0  0  0  0  0  0  0  0  0  0
  -28.8980  -21.2320   20.6110 C   0  0  0  0  0  2  0  0  0  0  0  0
  -29.5550  -22.6520   20.9620 C   0  0  0  0  0  2  0  0  0  0  0  0
  -29.2490  -24.0170   20.1710 C   0  0  0  0  0  2  0  0  0  0  0  0
  -28.1860  -25.0790   20.6950 C   0  0  0  0  0  2  0  0  0  0  0  0
  -28.3740  -26.4890   20.2660 O   0  0  0  0  0  0  0  0  0  0  0  0
  -24.6100  -31.8830   23.2380 C   0  0  0  0  0  0  0  0  0  0  0  0
  -27.2510  -27.3260   20.2250 C   0  0  0  0  0  0  0  0  0  0  0  0
  -23.4230  -30.4750   21.5880 C   0  0  0  0  0  3  0  0  0  0  0  0
  -24.8920  -28.9330   20.1720 C   0  0  0  0  0  0  0  0  0  0  0  0
  -25.9610  -30.8070   21.4280 C   0  0  0  0  0  2  0  0  0  0  0  0
  -26.0490  -29.4240   20.7890 C   0  0  0  0  0  0  0  0  0  0  0  0
  -27.2350  -28.6320   20.8060 C   0  0  0  0  0  3  0  0  0  0  0  0
  -26.0800  -26.8920   19.5700 C   0  0  0  0  0  3  0  0  0  0  0  0
  -24.9080  -27.6750   19.5500 C   0  0  0  0  0  3  0  0  0  0  0  0
  -23.6550  -29.8070   20.2050 C   0  0  0  0  0  2  0  0  0  0  0  0
  -24.6820  -31.0730   22.1410 N   0  0  0  0  0  0  0  0  0  0  0  0
  -23.5230  -32.1550   23.7670 O   0  0  0  0  0  0  0  0  0  0  0  0
  -22.7620  -29.4530   22.5420 C   0  0  0  0  0  0  0  0  0  0  0  0
  -21.4340  -29.2800   22.4150 N   0  0  0  0  0  0  0  0  0  0  0  0
  -23.4390  -28.8220   23.3590 O   0  0  0  0  0  0  0  0  0  0  0  0
  -20.9510  -29.8440   21.7290 H   0  0  0  0  0  0  0  0  0  0  0  0
  -18.0470  -28.1130   22.9220 C   0  0  0  0  0  0  0  0  0  0  0  0
  -20.6100  -28.3440   23.1820 C   0  0  0  0  0  3  0  0  0  0  0  0
  -20.6960  -26.9160   22.5940 C   0  0  0  0  0  2  0  0  0  0  0  0
  -19.5830  -26.6140   21.5840 C   0  0  0  0  0  2  0  0  0  0  0  0
  -18.2070  -26.7680   22.2350 C   0  0  0  0  0  2  0  0  0  0  0  0
  -19.1760  -28.8600   23.3520 C   0  0  0  0  0  0  0  0  0  0  0  0
  -18.9730  -30.1230   23.9540 C   0  0  0  0  0  3  0  0  0  0  0  0
  -17.6740  -30.6330   24.1310 C   0  0  0  0  0  3  0  0  0  0  0  0
  -16.5590  -29.8820   23.7190 C   0  0  0  0  0  3  0  0  0  0  0  0
  -16.7480  -28.6230   23.1190 C   0  0  0  0  0  3  0  0  0  0  0  0
  -25.8870  -32.5230   23.8640 C   0  0  0  0  0  3  0  0  0  0  0  0
  -25.5740  -33.9210   24.1870 N   0  0  0  0  0  0  0  0  0  0  0  0
  -25.9080  -34.9710   23.4230 C   0  0  0  0  0  0  0  0  0  0  0  0
  -26.5850  -34.8620   22.3960 O   0  0  0  0  0  0  0  0  0  0  0  0
  -24.9920  -34.0810   24.9950 H   0  0  0  0  0  0  0  0  0  0  0  0
  -24.1860  -36.7580   23.0320 C   0  0  0  0  0  1  0  0  0  0  0  0
  -25.4130  -36.3590   23.8680 C   0  0  0  0  0  3  0  0  0  0  0  0
  -27.5330  -37.2440   24.7300 C   0  0  0  0  0  1  0  0  0  0  0  0
  -26.4460  -37.4140   23.7730 N   0  0  0  0  0  0  0  0  0  0  0  0
  -26.0360  -38.3330   23.9220 H   0  0  0  0  0  0  0  0  0  0  0  0
  -26.3960  -31.7600   25.1490 C   0  0  1  0  0  0  0  0  0  0  0  0
  -25.2990  -31.5240   26.2120 C   0  0  0  0  0  1  0  0  0  0  0  0
  -26.9840  -30.3810   24.7660 C   0  0  0  0  0  1  0  0  0  0  0  0
  -27.5370  -32.5620   25.8190 C   0  0  0  0  0  1  0  0  0  0  0  0
  1 11  2  0
  2  4  1  0
  3  2  1  0
  5  7  1  0
  6  8  1  0
  7 54  1  0
  7  1  1  0
  8 20  1  0
  8  1  1  0
  9 50  1  0
  9  3  1  0
  9 10  1  0
 10  6  1  6
 10  5  1  0
 10  4  1  0
 12 20  1  0
 13 18  1  0
 14 15  1  0
 14 13  1  0
 16 15  1  0
 16 25  1  0
 16 17  1  0
 18 12  1  0
 18 17  1  0
 19 12  2  0
 20 21  1  0
 22 23  2  0
 23 42  1  0
 24 23  1  0
 24 27  1  0
 25 22  1  0
 25 26  1  0
 26 24  2  0
 27 28  1  0
 28 29  2  0
 30 33  1  0
 30 29  1  0
 31 30  2  0
 32 31  1  0
 32 27  2  0
 33 34  1  0
 34 35  1  0
 35 36  2  0
 37 36  1  0
 37 41  1  0
 38 37  2  0
 39 34  2  0
 39 38  1  0
 40 39  1  0
 42 43  1  0
 43 46  1  0
 43 45  1  0
 44 42  2  0
 47 48  1  0
 47 22  1  0
 49 47  1  0
 50 51  1  0
 52 50  1  0
 53 50  1  0
 54 55  1  0
 56 57  1  0
 56 55  1  0
 58 57  1  0
 59 70  2  0
 60 58  1  0
 60 65  1  0
 61 69  1  0
 61 71  1  0
 62 68  1  0
 62 64  1  0
 63 69  1  0
 64 65  2  0
 64 63  1  0
 66 60  2  0
 67 66  1  0
 67 62  2  0
 68 61  1  0
 69 59  1  0
 71 73  2  0
 72 71  1  0
 74 72  1  0
 75 84  2  0
 75 80  1  0
 76 72  1  0
 76 80  1  0
 77 76  1  0
 78 79  1  0
 78 77  1  0
 79 75  1  0
 80 81  2  0
 81 82  1  0
 83 82  2  0
 84 83  1  0
 85 59  1  0
 85 86  1  0
 85 95  1  0
 86 89  1  0
 87 91  1  0
 87 86  1  0
 88 87  2  0
 91 90  1  0
 93 91  1  0
 93 94  1  0
 93 92  1  0
 95 98  1  1
 95 96  1  0
 97 95  1  0
M  ISO  4  12 100  20 100  57 101  58 101
M  END
>  <TORSDO>  (48) 
F 21

>  <SCORE>  (48) 
-13.808

>  <name>  (48) 
48

>  <ligand_id>  (48) 
48

>  <original_smiles>  (48) 
[H]c1c([H])c([H])c2c(c1[H])C([H])([H])C([H])([H])C([H])([H])C2([H])N([H])C(=O)C1([H])N(C(=O)C([H])(N([H])C(=O)C([H])(N([H])C([H])([H])[H])C([H])([H])[H])C(C([H])([H])[H])(C([H])([H])[H])C([H])([H])[H])C([H])([H])c2c([H])c(OC([H])([H])C([H])([H])C([H])([H])C([H])([H])C3([H])C(=O)C([H])(N([H])C(=O)N4C([H])([H])C([H])([H])C([H])([H])C([H])(n5nc(-c6c([H])c([H])c(Oc7c([H])c([H])c(F)c([H])c7F)c([H])c6[H])c(C(=O)N([H])[H])c5N([H])[H])C4([H])[H])C([H])([H])C4(C([H])([H])C([H])([H])C([H])([H])C4([H])[N+]([H])([H])[H])C3([H])[H])c([H])c([H])c2C1([H])[H]

>  <smiles>  (48) 
[H]c1c([H])c([H])c2c(c1[H])C([H])([H])C([H])([H])C([H])([H])C2([H])N([H])C(=O)C1([H])N(C(=O)C([H])(N([H])C(=O)C([H])(N([H])C([H])([H])[H])C([H])([H])[H])C(C([H])([H])[H])(C([H])([H])[H])C([H])([H])[H])C([H])([H])c2c([H])c(OC([H])([H])C([H])([H])C([H])([H])C([H])([H])C3([H])C(=O)C([H])(N([H])C(=O)N4C([H])([H])C([H])([H])C([H])([H])C([H])(n5nc(-c6c([H])c([H])c(Oc7c([H])c([H])c(F)c([H])c7F)c([H])c6[H])c(C(=O)N([H])[H])c5N([H])[H])C4([H])[H])C([H])([H])C4(C([H])([H])C([H])([H])C([H])([H])C4([H])[N+]([H])([H])[H])C3([H])[H])c([H])c([H])c2C1([H])[H]

$$$$
49:0:0
     RDKit          3D

101109  0  0  1  0  0  0  0  0999 V2000
  -30.5800  -20.2730   20.9830 C   0  0  0  0  0  2  0  0  0  0  0  0
  -29.6880  -21.6000   21.1320 C   0  0  0  0  0  2  0  0  0  0  0  0
  -28.6050  -19.5090   19.7590 C   0  0  0  0  0  2  0  0  0  0  0  0
  -30.0360  -19.0230   20.1680 C   0  0  0  0  0  3  0  0  0  0  0  0
  -29.1320  -22.2200   19.8040 C   0  0  0  0  0  3  0  0  0  0  0  0
  -28.4570  -20.9560   19.0270 C   0  0  1  0  0  0  0  0  0  0  0  0
  -28.3850  -23.7240   19.7350 C   0  0  0  0  0  2  0  0  0  0  0  0
  -28.7970  -25.1490   20.4500 C   0  0  0  0  0  3  0  0  0  0  0  0
  -28.7120  -24.1160   22.8400 C   0  0  0  0  0  1  0  0  0  0  0  0
  -28.2590  -25.2390   21.8990 C   0  0  0  0  0  2  0  0  0  0  0  0
  -28.6120  -26.5480   19.8630 O   0  0  0  0  0  0  0  0  0  0  0  0
  -24.5700  -31.7340   23.0850 C   0  0  0  0  0  0  0  0  0  0  0  0
  -27.4390  -27.3460   19.9300 C   0  0  0  0  0  0  0  0  0  0  0  0
  -23.4600  -30.3360   21.3800 C   0  0  0  0  0  3  0  0  0  0  0  0
  -25.0050  -28.8900   19.9280 C   0  0  0  0  0  0  0  0  0  0  0  0
  -25.9880  -30.7680   21.2450 C   0  0  0  0  0  2  0  0  0  0  0  0
  -26.1440  -29.4070   20.5570 C   0  0  0  0  0  0  0  0  0  0  0  0
  -27.3650  -28.6520   20.5370 C   0  0  0  0  0  3  0  0  0  0  0  0
  -26.2730  -26.8940   19.2850 C   0  0  0  0  0  3  0  0  0  0  0  0
  -25.0740  -27.6440   19.2800 C   0  0  0  0  0  3  0  0  0  0  0  0
  -23.7270  -29.7100   19.9840 C   0  0  0  0  0  2  0  0  0  0  0  0
  -24.6910  -30.9650   21.9600 N   0  0  0  0  0  0  0  0  0  0  0  0
  -23.4670  -31.9400   23.6120 O   0  0  0  0  0  0  0  0  0  0  0  0
  -22.8320  -29.2610   22.2990 C   0  0  0  0  0  0  0  0  0  0  0  0
  -21.5090  -29.0530   22.1750 N   0  0  0  0  0  0  0  0  0  0  0  0
  -23.5340  -28.6170   23.0820 O   0  0  0  0  0  0  0  0  0  0  0  0
  -20.9990  -29.6280   21.5190 H   0  0  0  0  0  0  0  0  0  0  0  0
  -18.1690  -27.7500   22.6680 C   0  0  0  0  0  0  0  0  0  0  0  0
  -20.7260  -28.0530   22.9030 C   0  0  0  0  0  3  0  0  0  0  0  0
  -20.8490  -26.6610   22.2410 C   0  0  0  0  0  2  0  0  0  0  0  0
  -19.7330  -26.3730   21.2300 C   0  0  0  0  0  2  0  0  0  0  0  0
  -18.3610  -26.4480   21.9080 C   0  0  0  0  0  2  0  0  0  0  0  0
  -19.2790  -28.5110   23.1210 C   0  0  0  0  0  0  0  0  0  0  0  0
  -19.0440  -29.7310   23.7910 C   0  0  0  0  0  3  0  0  0  0  0  0
  -17.7310  -30.1890   24.0140 C   0  0  0  0  0  3  0  0  0  0  0  0
  -16.6370  -29.4240   23.5760 C   0  0  0  0  0  3  0  0  0  0  0  0
  -16.8560  -28.2060   22.9080 C   0  0  0  0  0  3  0  0  0  0  0  0
  -25.8100  -32.4080   23.7500 C   0  0  0  0  0  3  0  0  0  0  0  0
  -26.3210  -31.6420   25.0310 C   0  0  1  0  0  0  0  0  0  0  0  0
  -25.2100  -31.3550   26.0690 C   0  0  0  0  0  1  0  0  0  0  0  0
  -26.9600  -30.2890   24.6400 C   0  0  0  0  0  1  0  0  0  0  0  0
  -27.4280  -32.4670   25.7300 C   0  0  0  0  0  1  0  0  0  0  0  0
  -25.4370  -33.7890   24.0930 N   0  0  0  0  0  0  0  0  0  0  0  0
  -25.7490  -34.8680   23.3630 C   0  0  0  0  0  0  0  0  0  0  0  0
  -26.4510  -34.8090   22.3500 O   0  0  0  0  0  0  0  0  0  0  0  0
  -24.8150  -33.9060   24.8790 H   0  0  0  0  0  0  0  0  0  0  0  0
  -23.9570  -36.5980   23.0060 C   0  0  0  0  0  1  0  0  0  0  0  0
  -25.1990  -36.2290   23.8320 C   0  0  0  0  0  3  0  0  0  0  0  0
  -27.2800  -37.1900   24.7150 C   0  0  0  0  0  1  0  0  0  0  0  0
  -26.1900  -37.3250   23.7520 N   0  0  0  0  0  0  0  0  0  0  0  0
  -25.7440  -38.2260   23.9020 H   0  0  0  0  0  0  0  0  0  0  0  0
  -30.3100  -17.5570   20.9010 C   0  0  0  0  0  2  0  0  0  0  0  0
  -30.6450  -15.0030   20.1260 C   0  0  0  0  0  0  0  0  0  0  0  0
  -30.4190  -12.7630   18.9990 C   0  0  0  0  0  2  0  0  0  0  0  0
  -29.4160  -12.8590   17.8280 C   0  0  0  0  0  2  0  0  0  0  0  0
  -27.9730  -12.6480   18.3280 C   0  0  0  0  0  2  0  0  0  0  0  0
  -27.6550  -13.4780   19.6000 C   0  0  0  0  0  3  0  0  0  0  0  0
  -28.7720  -13.3630   20.6580 C   0  0  0  0  0  2  0  0  0  0  0  0
  -30.0190  -13.7770   20.0060 N   0  0  0  0  0  0  0  0  0  0  0  0
  -31.8330  -15.0980   19.8040 O   0  0  0  0  0  0  0  0  0  0  0  0
  -29.8850  -16.1430   20.4270 N   0  0  0  0  0  0  0  0  0  0  0  0
  -28.9020  -15.9480   20.5470 H   0  0  0  0  0  0  0  0  0  0  0  0
  -25.3130  -14.0260   20.4820 C   0  0  0  0  0  0  0  0  0  0  0  0
  -24.2670  -13.2340   20.8680 C   0  0  0  0  0  0  0  0  0  0  0  0
  -24.7270  -11.8860   20.7490 C   0  0  0  0  0  0  0  0  0  0  0  0
  -26.3420  -13.1610   20.1480 N   0  0  0  0  0  0  0  0  0  0  0  0
  -26.0000  -11.8650   20.3730 N   0  0  0  0  0  0  0  0  0  0  0  0
  -24.0090  -10.6160   20.9120 C   0  0  0  0  0  0  0  0  0  0  0  0
  -24.4650   -9.6170   21.8010 C   0  0  0  0  0  3  0  0  0  0  0  0
  -23.7450   -8.4130   21.9560 C   0  0  0  0  0  3  0  0  0  0  0  0
  -22.5550   -8.1980   21.2210 C   0  0  0  0  0  0  0  0  0  0  0  0
  -22.1180   -9.1850   20.3190 C   0  0  0  0  0  3  0  0  0  0  0  0
  -22.8390  -10.3800   20.1620 C   0  0  0  0  0  3  0  0  0  0  0  0
  -21.8050   -7.0490   21.2880 O   0  0  0  0  0  0  0  0  0  0  0  0
  -21.7600   -6.2830   22.4240 C   0  0  0  0  0  0  0  0  0  0  0  0
  -21.3430   -6.8130   23.6650 C   0  0  0  0  0  3  0  0  0  0  0  0
  -21.2460   -5.9740   24.7930 C   0  0  0  0  0  3  0  0  0  0  0  0
  -21.5550   -4.6050   24.6800 C   0  0  0  0  0  0  0  0  0  0  0  0
  -21.9650   -4.0740   23.4450 C   0  0  0  0  0  3  0  0  0  0  0  0
  -22.0640   -4.9110   22.3190 C   0  0  0  0  0  0  0  0  0  0  0  0
  -22.4390   -4.3900   21.1260 F   0  0  0  0  0  0  0  0  0  0  0  0
  -21.4550   -3.7970   25.7610 F   0  0  0  0  0  0  0  0  0  0  0  0
  -22.8850  -13.6960   21.2290 C   0  0  0  0  0  0  0  0  0  0  0  0
  -22.2050  -12.9670   22.1050 N   0  0  0  0  0  0  0  0  0  0  0  0
  -22.4200  -14.7380   20.7700 O   0  0  0  0  0  0  0  0  0  0  0  0
  -22.5930  -12.1220   22.4960 H   0  0  0  0  0  0  0  0  0  0  0  0
  -21.2790  -13.2580   22.3900 H   0  0  0  0  0  0  0  0  0  0  0  0
  -25.4660  -15.4040   20.3620 N   0  0  0  0  0  0  0  0  0  0  0  0
  -24.6990  -16.0430   20.5390 H   0  0  0  0  0  0  0  0  0  0  0  0
  -26.2780  -15.8630   19.9700 H   0  0  0  0  0  0  0  0  0  0  0  0
  -29.1340  -20.8610   17.6230 C   0  0  0  0  0  2  0  0  0  0  0  0
  -28.7690  -19.6420   16.7490 C   0  0  0  0  0  2  0  0  0  0  0  0
  -29.0750  -18.4640   14.5080 C   0  0  0  0  0  1  0  0  0  0  0  0
  -29.3580  -19.7250   15.3340 C   0  0  0  0  0  2  0  0  0  0  0  0
  -26.9080  -21.1460   18.8950 C   0  0  0  0  0  2  0  0  0  0  0  0
  -26.3510  -22.0490   17.7650 C   0  0  0  0  0  2  0  0  0  0  0  0
  -24.8370  -22.2980   17.9200 C   0  0  0  0  0  2  0  0  0  0  0  0
  -24.2870  -23.1070   16.8190 N   0  0  0  0  0  4  0  0  0  0  0  0
  -24.6860  -24.0280   16.8110 H   0  0  0  0  0  0  0  0  0  0  0  0
  -23.2910  -23.1970   16.9250 H   0  0  0  0  0  0  0  0  0  0  0  0
  -24.4630  -22.6690   15.9320 H   0  0  0  0  0  0  0  0  0  0  0  0
  1  2  1  0
  3  4  1  0
  4 52  1  0
  4  1  1  0
  5  7  1  0
  5  2  1  0
  6 91  1  6
  6  3  1  0
  6  5  1  0
  8  7  1  0
  8 10  1  0
 10  9  1  0
 11 13  1  0
 11  8  1  0
 12 23  2  0
 13 18  1  0
 14 22  1  0
 14 24  1  0
 15 21  1  0
 15 17  1  0
 16 22  1  0
 17 16  1  0
 18 17  2  0
 19 13  2  0
 20 19  1  0
 20 15  2  0
 21 14  1  0
 22 12  1  0
 24 26  2  0
 25 24  1  0
 27 25  1  0
 28 37  2  0
 28 33  1  0
 29 25  1  0
 29 33  1  0
 30 29  1  0
 31 32  1  0
 31 30  1  0
 32 28  1  0
 33 34  2  0
 34 35  1  0
 36 35  2  0
 37 36  1  0
 38 12  1  0
 38 43  1  0
 38 39  1  0
 39 42  1  1
 39 40  1  0
 41 39  1  0
 43 46  1  0
 44 48  1  0
 44 43  1  0
 45 44  2  0
 48 47  1  0
 50 48  1  0
 50 51  1  0
 50 49  1  0
 53 61  1  0
 54 59  1  0
 55 56  1  0
 55 54  1  0
 57 56  1  0
 57 66  1  0
 57 58  1  0
 59 53  1  0
 59 58  1  0
 60 53  2  0
 61 62  1  0
 61 52  1  0
 63 64  2  0
 64 83  1  0
 65 64  1  0
 65 68  1  0
 66 67  1  0
 66 63  1  0
 67 65  2  0
 68 69  1  0
 69 70  2  0
 71 74  1  0
 71 70  1  0
 72 71  2  0
 73 72  1  0
 73 68  2  0
 74 75  1  0
 75 76  1  0
 76 77  2  0
 78 77  1  0
 78 82  1  0
 79 78  2  0
 80 75  2  0
 80 79  1  0
 81 80  1  0
 83 84  1  0
 84 87  1  0
 84 86  1  0
 85 83  2  0
 88 63  1  0
 88 89  1  0
 90 88  1  0
 92 91  1  0
 93 94  1  0
 94 92  1  0
 95  6  1  0
 96 97  1  0
 96 95  1  0
 98100  1  0
 98 97  1  0
 99 98  1  0
101 98  1  0
M  ISO  4   8 101  11 101  53 100  61 100
M  END
>  <TORSDO>  (49) 
F 27

>  <SCORE>  (49) 
-11.525

>  <name>  (49) 
49

>  <ligand_id>  (49) 
49

>  <original_smiles>  (49) 
[H]c1c([H])c([H])c2c(c1[H])C([H])([H])C([H])([H])C([H])([H])C2([H])N([H])C(=O)C1([H])N(C(=O)C([H])(N([H])C(=O)C([H])(N([H])C([H])([H])[H])C([H])([H])[H])C(C([H])([H])[H])(C([H])([H])[H])C([H])([H])[H])C([H])([H])c2c([H])c(OC([H])(C([H])([H])C([H])([H])[H])C([H])([H])C3([H])C([H])([H])C([H])([H])C([H])(C([H])([H])N([H])C(=O)N4C([H])([H])C([H])([H])C([H])([H])C([H])(n5nc(-c6c([H])c([H])c(Oc7c([H])c([H])c(F)c([H])c7F)c([H])c6[H])c(C(=O)N([H])[H])c5N([H])[H])C4([H])[H])C([H])([H])C3(C([H])([H])C([H])([H])C([H])([H])C([H])([H])[H])C([H])([H])C([H])([H])C([H])([H])[N+]([H])([H])[H])c([H])c([H])c2C1([H])[H]

>  <smiles>  (49) 
[H]c1c([H])c([H])c2c(c1[H])C([H])([H])C([H])([H])C([H])([H])C2([H])N([H])C(=O)C1([H])N(C(=O)C([H])(N([H])C(=O)C([H])(N([H])C([H])([H])[H])C([H])([H])[H])C(C([H])([H])[H])(C([H])([H])[H])C([H])([H])[H])C([H])([H])c2c([H])c(OC([H])(C([H])([H])C([H])([H])[H])C([H])([H])C3([H])C([H])([H])C([H])([H])C([H])(C([H])([H])N([H])C(=O)N4C([H])([H])C([H])([H])C([H])([H])C([H])(n5nc(-c6c([H])c([H])c(Oc7c([H])c([H])c(F)c([H])c7F)c([H])c6[H])c(C(=O)N([H])[H])c5N([H])[H])C4([H])[H])C([H])([H])C3(C([H])([H])C([H])([H])C([H])([H])C([H])([H])[H])C([H])([H])C([H])([H])C([H])([H])[N+]([H])([H])[H])c([H])c([H])c2C1([H])[H]

$$$$
50:0:0
     RDKit          3D

 93101  0  0  1  0  0  0  0  0999 V2000
  -28.3870  -22.6520   21.6160 C   0  0  0  0  0  2  0  0  0  0  0  0
  -30.2050  -19.2280   22.2560 C   0  0  0  0  0  2  0  0  0  0  0  0
  -30.4660  -19.8370   19.8080 C   0  0  0  0  0  2  0  0  0  0  0  0
  -29.1280  -20.3230   22.3830 C   0  0  0  0  0  2  0  0  0  0  0  0
  -29.3910  -20.9270   19.9770 C   0  0  0  0  0  2  0  0  0  0  0  0
  -30.3290  -18.6720   20.8170 C   0  0  0  0  0  3  0  0  0  0  0  0
  -29.3910  -21.4910   21.4110 C   0  0  0  0  0  3  0  0  0  0  0  0
  -31.5440  -17.7280   20.6650 C   0  0  0  0  0  2  0  0  0  0  0  0
  -31.5450  -16.4310   21.5070 C   0  0  0  0  0  2  0  0  0  0  0  0
  -31.1300  -14.4530   20.0480 C   0  0  0  0  0  0  0  0  0  0  0  0
  -30.6900  -12.2900   18.9390 C   0  0  0  0  0  2  0  0  0  0  0  0
  -29.7070  -12.4320   17.7620 C   0  0  0  0  0  2  0  0  0  0  0  0
  -28.2520  -12.3380   18.2570 C   0  0  0  0  0  2  0  0  0  0  0  0
  -27.9720  -13.2630   19.4710 C   0  0  0  0  0  3  0  0  0  0  0  0
  -29.0580  -13.0940   20.5560 C   0  0  0  0  0  2  0  0  0  0  0  0
  -30.3740  -13.3290   19.9330 N   0  0  0  0  0  0  0  0  0  0  0  0
  -32.1560  -14.6410   19.3900 O   0  0  0  0  0  0  0  0  0  0  0  0
  -30.7240  -15.3450   20.9650 N   0  0  0  0  0  0  0  0  0  0  0  0
  -29.8540  -15.1440   21.4360 H   0  0  0  0  0  0  0  0  0  0  0  0
  -25.6200  -13.9570   20.2570 C   0  0  0  0  0  0  0  0  0  0  0  0
  -24.5470  -13.2250   20.6890 C   0  0  0  0  0  0  0  0  0  0  0  0
  -24.9690  -11.8600   20.6750 C   0  0  0  0  0  0  0  0  0  0  0  0
  -26.6310  -13.0400   20.0100 N   0  0  0  0  0  0  0  0  0  0  0  0
  -26.2440  -11.7760   20.3170 N   0  0  0  0  0  0  0  0  0  0  0  0
  -24.2170  -10.6240   20.9280 C   0  0  0  0  0  0  0  0  0  0  0  0
  -24.6320   -9.6950   21.9080 C   0  0  0  0  0  3  0  0  0  0  0  0
  -23.8820   -8.5230   22.1460 C   0  0  0  0  0  3  0  0  0  0  0  0
  -22.7040   -8.2710   21.4040 C   0  0  0  0  0  0  0  0  0  0  0  0
  -22.3090   -9.1870   20.4130 C   0  0  0  0  0  3  0  0  0  0  0  0
  -23.0580  -10.3520   20.1750 C   0  0  0  0  0  3  0  0  0  0  0  0
  -21.9280   -7.1470   21.5480 O   0  0  0  0  0  0  0  0  0  0  0  0
  -21.8220   -6.4940   22.7490 C   0  0  0  0  0  0  0  0  0  0  0  0
  -21.3710   -7.1480   23.9160 C   0  0  0  0  0  3  0  0  0  0  0  0
  -21.2110   -6.4240   25.1140 C   0  0  0  0  0  3  0  0  0  0  0  0
  -21.4920   -5.0440   25.1450 C   0  0  0  0  0  0  0  0  0  0  0  0
  -21.9360   -4.3890   23.9830 C   0  0  0  0  0  3  0  0  0  0  0  0
  -22.0970   -5.1120   22.7870 C   0  0  0  0  0  0  0  0  0  0  0  0
  -22.5050   -4.4720   21.6650 F   0  0  0  0  0  0  0  0  0  0  0  0
  -21.3310   -4.3450   26.2920 F   0  0  0  0  0  0  0  0  0  0  0  0
  -23.1760  -13.7480   21.0050 C   0  0  0  0  0  0  0  0  0  0  0  0
  -22.4700  -13.1020   21.9260 N   0  0  0  0  0  0  0  0  0  0  0  0
  -22.7420  -14.7650   20.4670 O   0  0  0  0  0  0  0  0  0  0  0  0
  -22.8340  -12.2790   22.3810 H   0  0  0  0  0  0  0  0  0  0  0  0
  -21.5500  -13.4350   22.1770 H   0  0  0  0  0  0  0  0  0  0  0  0
  -25.8170  -15.3170   20.0370 N   0  0  0  0  0  0  0  0  0  0  0  0
  -25.0770  -15.9990   20.1650 H   0  0  0  0  0  0  0  0  0  0  0  0
  -26.6730  -15.7220   19.6780 H   0  0  0  0  0  0  0  0  0  0  0  0
  -28.8790  -23.9410   21.0700 N   0  0  0  0  0  4  0  0  0  0  0  0
  -28.6050  -24.0120   20.1010 H   0  0  0  0  0  0  0  0  0  0  0  0
  -29.8860  -23.9280   21.0980 H   0  0  0  0  0  0  0  0  0  0  0  0
  -28.4040  -25.1390   21.8110 C   0  0  0  0  0  2  0  0  0  0  0  0
  -28.9920  -26.4610   21.2700 C   0  0  0  0  0  2  0  0  0  0  0  0
  -28.3720  -26.8170   20.0360 O   0  0  0  0  0  0  0  0  0  0  0  0
  -24.5880  -31.9850   23.2240 C   0  0  0  0  0  0  0  0  0  0  0  0
  -27.2210  -27.5650   20.1200 C   0  0  0  0  0  0  0  0  0  0  0  0
  -23.3710  -30.5810   21.5930 C   0  0  0  0  0  3  0  0  0  0  0  0
  -24.8150  -29.0440   20.1590 C   0  0  0  0  0  0  0  0  0  0  0  0
  -25.8900  -30.9500   21.3710 C   0  0  0  0  0  2  0  0  0  0  0  0
  -25.9750  -29.5780   20.7360 C   0  0  0  0  0  0  0  0  0  0  0  0
  -27.1820  -28.8460   20.7180 C   0  0  0  0  0  3  0  0  0  0  0  0
  -26.0480  -27.0420   19.5380 C   0  0  0  0  0  3  0  0  0  0  0  0
  -24.8440  -27.7710   19.5620 C   0  0  0  0  0  3  0  0  0  0  0  0
  -23.5680  -29.8990   20.2140 C   0  0  0  0  0  2  0  0  0  0  0  0
  -24.6360  -31.1860   22.1210 N   0  0  0  0  0  0  0  0  0  0  0  0
  -23.5100  -32.2570   23.7710 O   0  0  0  0  0  0  0  0  0  0  0  0
  -22.7280  -29.5590   22.5580 C   0  0  0  0  0  0  0  0  0  0  0  0
  -21.4080  -29.3570   22.4230 N   0  0  0  0  0  0  0  0  0  0  0  0
  -23.4170  -28.9500   23.3820 O   0  0  0  0  0  0  0  0  0  0  0  0
  -20.9160  -29.8980   21.7250 H   0  0  0  0  0  0  0  0  0  0  0  0
  -18.0510  -28.1050   22.8890 C   0  0  0  0  0  0  0  0  0  0  0  0
  -20.5990  -28.4150   23.1950 C   0  0  0  0  0  3  0  0  0  0  0  0
  -20.7370  -26.9800   22.6400 C   0  0  0  0  0  2  0  0  0  0  0  0
  -19.6560  -26.6200   21.6150 C   0  0  0  0  0  2  0  0  0  0  0  0
  -18.2620  -26.7500   22.2360 C   0  0  0  0  0  2  0  0  0  0  0  0
  -19.1490  -28.8940   23.3240 C   0  0  0  0  0  0  0  0  0  0  0  0
  -18.8990  -30.1620   23.8910 C   0  0  0  0  0  3  0  0  0  0  0  0
  -17.5830  -30.6440   24.0280 C   0  0  0  0  0  3  0  0  0  0  0  0
  -16.5000  -29.8520   23.6090 C   0  0  0  0  0  3  0  0  0  0  0  0
  -16.7340  -28.5850   23.0470 C   0  0  0  0  0  3  0  0  0  0  0  0
  -25.8800  -32.6150   23.8330 C   0  0  0  0  0  3  0  0  0  0  0  0
  -25.5760  -34.0160   24.1540 N   0  0  0  0  0  0  0  0  0  0  0  0
  -25.9190  -35.0610   23.3900 C   0  0  0  0  0  0  0  0  0  0  0  0
  -26.5950  -34.9490   22.3640 O   0  0  0  0  0  0  0  0  0  0  0  0
  -24.9770  -34.1790   24.9500 H   0  0  0  0  0  0  0  0  0  0  0  0
  -24.2040  -36.8580   23.0090 C   0  0  0  0  0  1  0  0  0  0  0  0
  -25.4350  -36.4520   23.8350 C   0  0  0  0  0  3  0  0  0  0  0  0
  -27.5650  -37.3260   24.6840 C   0  0  0  0  0  1  0  0  0  0  0  0
  -26.4730  -37.4990   23.7290 N   0  0  0  0  0  0  0  0  0  0  0  0
  -26.0710  -38.4210   23.8700 H   0  0  0  0  0  0  0  0  0  0  0  0
  -26.4040  -31.8490   25.1090 C   0  0  1  0  0  0  0  0  0  0  0  0
  -25.3170  -31.6080   26.1830 C   0  0  0  0  0  1  0  0  0  0  0  0
  -26.9920  -30.4730   24.7150 C   0  0  0  0  0  1  0  0  0  0  0  0
  -27.5580  -32.6490   25.7620 C   0  0  0  0  0  1  0  0  0  0  0  0
  2  4  1  0
  3  5  1  0
  3  6  1  0
  5  7  1  0
  6  8  1  0
  6  2  1  0
  7  1  1  0
  7  4  1  0
  8  9  1  0
 10 18  1  0
 11 16  1  0
 12 13  1  0
 12 11  1  0
 14 13  1  0
 14 23  1  0
 14 15  1  0
 16 10  1  0
 16 15  1  0
 17 10  2  0
 18 19  1  0
 18  9  1  0
 20 21  2  0
 21 40  1  0
 22 21  1  0
 22 25  1  0
 23 20  1  0
 23 24  1  0
 24 22  2  0
 25 26  1  0
 26 27  2  0
 28 31  1  0
 28 27  1  0
 29 28  2  0
 30 29  1  0
 30 25  2  0
 31 32  1  0
 32 37  2  0
 32 33  1  0
 33 34  2  0
 34 35  1  0
 35 39  1  0
 36 35  2  0
 37 36  1  0
 38 37  1  0
 40 41  1  0
 41 44  1  0
 41 43  1  0
 42 40  2  0
 45 46  1  0
 45 20  1  0
 47 45  1  0
 48 50  1  0
 48  1  1  0
 48 51  1  0
 49 48  1  0
 52 51  1  0
 53 55  1  0
 53 52  1  0
 54 65  2  0
 55 60  1  0
 56 64  1  0
 56 66  1  0
 57 63  1  0
 57 59  1  0
 58 64  1  0
 59 58  1  0
 60 59  2  0
 61 62  1  0
 61 55  2  0
 62 57  2  0
 63 56  1  0
 64 54  1  0
 66 68  2  0
 67 66  1  0
 69 67  1  0
 70 79  2  0
 70 75  1  0
 71 67  1  0
 71 75  1  0
 72 71  1  0
 73 74  1  0
 73 72  1  0
 74 70  1  0
 75 76  2  0
 76 77  1  0
 78 77  2  0
 79 78  1  0
 80 54  1  0
 80 81  1  0
 80 90  1  0
 81 84  1  0
 82 86  1  0
 82 81  1  0
 83 82  2  0
 86 85  1  0
 88 86  1  0
 88 89  1  0
 88 87  1  0
 90 93  1  1
 90 91  1  0
 92 90  1  0
M  ISO  4  10 100  18 100  52 101  53 101
M  END
>  <TORSDO>  (50) 
F 22

>  <SCORE>  (50) 
-11.158

>  <name>  (50) 
50

>  <ligand_id>  (50) 
50

>  <original_smiles>  (50) 
[H]c1c([H])c([H])c2c(c1[H])C([H])([H])C([H])([H])C([H])([H])C2([H])N([H])C(=O)C1([H])N(C(=O)C([H])(N([H])C(=O)C([H])(N([H])C([H])([H])[H])C([H])([H])[H])C(C([H])([H])[H])(C([H])([H])[H])C([H])([H])[H])C([H])([H])c2c([H])c(OC([H])([H])C([H])([H])[N+]([H])([H])C([H])([H])C3([H])C([H])([H])C([H])([H])C([H])(C([H])([H])C([H])([H])N([H])C(=O)N4C([H])([H])C([H])([H])C([H])([H])C([H])(n5nc(-c6c([H])c([H])c(Oc7c([H])c([H])c(F)c([H])c7F)c([H])c6[H])c(C(=O)N([H])[H])c5N([H])[H])C4([H])[H])C([H])([H])C3([H])[H])c([H])c([H])c2C1([H])[H]

>  <smiles>  (50) 
[H]c1c([H])c([H])c2c(c1[H])C([H])([H])C([H])([H])C([H])([H])C2([H])N([H])C(=O)C1([H])N(C(=O)C([H])(N([H])C(=O)C([H])(N([H])C([H])([H])[H])C([H])([H])[H])C(C([H])([H])[H])(C([H])([H])[H])C([H])([H])[H])C([H])([H])c2c([H])c(OC([H])([H])C([H])([H])[N+]([H])([H])C([H])([H])C3([H])C([H])([H])C([H])([H])C([H])(C([H])([H])C([H])([H])N([H])C(=O)N4C([H])([H])C([H])([H])C([H])([H])C([H])(n5nc(-c6c([H])c([H])c(Oc7c([H])c([H])c(F)c([H])c7F)c([H])c6[H])c(C(=O)N([H])[H])c5N([H])[H])C4([H])[H])C([H])([H])C3([H])[H])c([H])c([H])c2C1([H])[H]

$$$$
51:0:0
     RDKit          3D

 97106  0  0  1  0  0  0  0  0999 V2000
  -25.8550  -23.5110   17.6090 C   0  0  0  0  0  2  0  0  0  0  0  0
  -25.3120  -22.3950   18.5060 C   0  0  0  0  0  2  0  0  0  0  0  0
  -28.1420  -22.4700   17.7930 C   0  0  0  0  0  2  0  0  0  0  0  0
  -27.3510  -23.7900   17.8690 C   0  0  0  0  0  3  0  0  0  0  0  0
  -26.1490  -21.1010   18.3810 C   0  0  0  0  0  3  0  0  0  0  0  0
  -27.5860  -21.4050   18.6790 N   0  0  1  0  0  4  0  0  0  0  0  0
  -27.6050  -21.8020   19.6090 H   0  0  0  0  0  0  0  0  0  0  0  0
  -24.5090  -19.1000   18.5740 C   0  0  0  0  0  1  0  0  0  0  0  0
  -25.5520  -19.9850   19.2790 C   0  0  0  0  0  2  0  0  0  0  0  0
  -27.8330  -24.8530   16.8500 C   0  0  0  0  0  2  0  0  0  0  0  0
  -29.0890  -24.5500   15.9960 C   0  0  0  0  0  2  0  0  0  0  0  0
  -29.3660  -25.5790   14.8640 C   0  0  0  0  0  2  0  0  0  0  0  0
  -30.6970  -26.0970   14.8390 O   0  0  0  0  0  0  0  0  0  0  0  0
  -35.4390  -27.6270   19.8670 C   0  0  0  0  0  0  0  0  0  0  0  0
  -31.0920  -27.0390   15.7630 C   0  0  0  0  0  0  0  0  0  0  0  0
  -33.4670  -29.1160   19.7750 C   0  0  0  0  0  3  0  0  0  0  0  0
  -31.9960  -28.8820   17.7040 C   0  0  0  0  0  0  0  0  0  0  0  0
  -34.3070  -27.9300   17.6700 C   0  0  0  0  0  2  0  0  0  0  0  0
  -32.8780  -27.9290   17.1780 C   0  0  0  0  0  0  0  0  0  0  0  0
  -32.4280  -27.0010   16.2170 C   0  0  0  0  0  3  0  0  0  0  0  0
  -30.2340  -28.0430   16.2630 C   0  0  0  0  0  3  0  0  0  0  0  0
  -30.6690  -28.9420   17.2510 C   0  0  0  0  0  3  0  0  0  0  0  0
  -32.5450  -29.8260   18.7470 C   0  0  0  0  0  2  0  0  0  0  0  0
  -34.4350  -28.1750   19.1250 N   0  0  0  0  0  0  0  0  0  0  0  0
  -35.5860  -27.9220   21.0620 O   0  0  0  0  0  0  0  0  0  0  0  0
  -32.5790  -28.4370   20.8430 C   0  0  0  0  0  0  0  0  0  0  0  0
  -31.6240  -29.2010   21.3990 N   0  0  0  0  0  0  0  0  0  0  0  0
  -32.7380  -27.2500   21.1370 O   0  0  0  0  0  0  0  0  0  0  0  0
  -31.5680  -30.1680   21.1110 H   0  0  0  0  0  0  0  0  0  0  0  0
  -28.4800  -30.0610   22.9570 C   0  0  0  0  0  0  0  0  0  0  0  0
  -30.6470  -28.7690   22.3990 C   0  0  0  0  0  3  0  0  0  0  0  0
  -29.7230  -27.6650   21.8370 C   0  0  0  0  0  2  0  0  0  0  0  0
  -28.4280  -28.2110   21.2300 C   0  0  0  0  0  2  0  0  0  0  0  0
  -27.6340  -28.9980   22.2770 C   0  0  0  0  0  2  0  0  0  0  0  0
  -29.8950  -29.9620   23.0000 C   0  0  0  0  0  0  0  0  0  0  0  0
  -30.6350  -30.9960   23.6130 C   0  0  0  0  0  3  0  0  0  0  0  0
  -29.9860  -32.1110   24.1750 C   0  0  0  0  0  3  0  0  0  0  0  0
  -28.5840  -32.1950   24.1470 C   0  0  0  0  0  3  0  0  0  0  0  0
  -27.8330  -31.1700   23.5430 C   0  0  0  0  0  3  0  0  0  0  0  0
  -36.4600  -26.6220   19.2450 C   0  0  0  0  0  3  0  0  0  0  0  0
  -37.8070  -27.0640   19.6310 N   0  0  0  0  0  0  0  0  0  0  0  0
  -38.6460  -27.7360   18.8310 C   0  0  0  0  0  0  0  0  0  0  0  0
  -38.3870  -27.9880   17.6510 O   0  0  0  0  0  0  0  0  0  0  0  0
  -38.0640  -26.9350   20.5980 H   0  0  0  0  0  0  0  0  0  0  0  0
  -39.8890  -29.6980   19.7910 C   0  0  0  0  0  1  0  0  0  0  0  0
  -39.9830  -28.2060   19.4350 C   0  0  0  0  0  3  0  0  0  0  0  0
  -41.4760  -26.5650   18.3820 C   0  0  0  0  0  1  0  0  0  0  0  0
  -41.1420  -27.9760   18.5450 N   0  0  0  0  0  0  0  0  0  0  0  0
  -41.9670  -28.4600   18.8890 H   0  0  0  0  0  0  0  0  0  0  0  0
  -36.2150  -25.1290   19.6920 C   0  0  1  0  0  0  0  0  0  0  0  0
  -36.1500  -24.9410   21.2260 C   0  0  0  0  0  1  0  0  0  0  0  0
  -34.8960  -24.5900   19.0930 C   0  0  0  0  0  1  0  0  0  0  0  0
  -37.3460  -24.2260   19.1480 C   0  0  0  0  0  1  0  0  0  0  0  0
  -28.5010  -20.2290   18.7460 C   0  0  0  0  0  2  0  0  0  0  0  0
  -29.0650  -19.7960   17.3740 C   0  0  0  0  0  2  0  0  0  0  0  0
  -34.1620  -21.1290   15.3330 C   0  0  0  0  0  0  0  0  0  0  0  0
  -35.8390  -19.6290   14.3470 C   0  0  0  0  0  2  0  0  0  0  0  0
  -35.1010  -18.5360   13.5440 C   0  0  0  0  0  2  0  0  0  0  0  0
  -34.7220  -17.3480   14.4540 C   0  0  0  0  0  2  0  0  0  0  0  0
  -34.0270  -17.7910   15.7700 C   0  0  0  0  0  3  0  0  0  0  0  0
  -34.8070  -18.9480   16.4370 C   0  0  0  0  0  2  0  0  0  0  0  0
  -34.9540  -20.0300   15.4480 N   0  0  0  0  0  0  0  0  0  0  0  0
  -34.3720  -22.0290   14.5130 O   0  0  0  0  0  0  0  0  0  0  0  0
  -30.6100  -20.3130   15.4390 C   0  0  0  0  0  2  0  0  0  0  0  0
  -31.4900  -20.5600   17.7990 C   0  0  0  0  0  2  0  0  0  0  0  0
  -31.7780  -21.1790   14.9610 C   0  0  0  0  0  2  0  0  0  0  0  0
  -32.6440  -21.4040   17.2280 C   0  0  0  0  0  2  0  0  0  0  0  0
  -30.2430  -20.6590   16.8940 C   0  0  0  0  0  3  0  0  0  0  0  0
  -32.9280  -20.9860   15.8520 N   0  0  0  0  0  0  0  0  0  0  0  0
  -32.7110  -16.2670   17.3800 C   0  0  0  0  0  0  0  0  0  0  0  0
  -33.0560  -15.1140   18.0340 C   0  0  0  0  0  0  0  0  0  0  0  0
  -34.4140  -14.8530   17.6800 C   0  0  0  0  0  0  0  0  0  0  0  0
  -33.8440  -16.6650   16.6860 N   0  0  0  0  0  0  0  0  0  0  0  0
  -34.8870  -15.8270   16.9150 N   0  0  0  0  0  0  0  0  0  0  0  0
  -35.2740  -13.7020   17.9790 C   0  0  0  0  0  0  0  0  0  0  0  0
  -36.4370  -13.8340   18.7700 C   0  0  0  0  0  3  0  0  0  0  0  0
  -37.2380  -12.7080   19.0580 C   0  0  0  0  0  3  0  0  0  0  0  0
  -36.8770  -11.4340   18.5600 C   0  0  0  0  0  0  0  0  0  0  0  0
  -35.7320  -11.3120   17.7520 C   0  0  0  0  0  3  0  0  0  0  0  0
  -34.9400  -12.4350   17.4610 C   0  0  0  0  0  3  0  0  0  0  0  0
  -37.6070  -10.2890   18.7690 O   0  0  0  0  0  0  0  0  0  0  0  0
  -38.2110  -10.0300   19.9730 C   0  0  0  0  0  0  0  0  0  0  0  0
  -37.4630   -9.8570   21.1590 C   0  0  0  0  0  3  0  0  0  0  0  0
  -38.1190   -9.5250   22.3610 C   0  0  0  0  0  3  0  0  0  0  0  0
  -39.5160   -9.3550   22.3790 C   0  0  0  0  0  0  0  0  0  0  0  0
  -40.2600   -9.5220   21.1970 C   0  0  0  0  0  3  0  0  0  0  0  0
  -39.6090   -9.8550   19.9980 C   0  0  0  0  0  0  0  0  0  0  0  0
  -40.3280   -9.9920   18.8580 F   0  0  0  0  0  0  0  0  0  0  0  0
  -40.1460   -9.0280   23.5320 F   0  0  0  0  0  0  0  0  0  0  0  0
  -32.1460  -14.2460   18.8580 C   0  0  0  0  0  0  0  0  0  0  0  0
  -32.6850  -13.5910   19.8790 N   0  0  0  0  0  0  0  0  0  0  0  0
  -30.9390  -14.1840   18.6290 O   0  0  0  0  0  0  0  0  0  0  0  0
  -33.6710  -13.6590   20.0860 H   0  0  0  0  0  0  0  0  0  0  0  0
  -32.1030  -13.0100   20.4650 H   0  0  0  0  0  0  0  0  0  0  0  0
  -31.5260  -16.9920   17.3030 N   0  0  0  0  0  0  0  0  0  0  0  0
  -30.6730  -16.6580   17.7350 H   0  0  0  0  0  0  0  0  0  0  0  0
  -31.3940  -17.8170   16.7350 H   0  0  0  0  0  0  0  0  0  0  0  0
  1  4  1  0
  1  2  1  0
  3  4  1  0
  3  6  1  0
  4 10  1  0
  5  2  1  0
  5  6  1  0
  5  9  1  0
  6 54  1  0
  6  7  1  1
  8  9  1  0
 11 10  1  0
 12 11  1  0
 13 12  1  0
 13 15  1  0
 14 25  2  0
 15 20  2  0
 15 21  1  0
 16 26  1  0
 17 23  1  0
 18 24  1  0
 19 18  1  0
 19 17  2  0
 20 19  1  0
 21 22  2  0
 22 17  1  0
 23 16  1  0
 24 16  1  0
 24 14  1  0
 26 28  2  0
 26 27  1  0
 29 27  1  0
 30 35  2  0
 30 39  1  0
 31 27  1  0
 31 35  1  0
 32 31  1  0
 33 32  1  0
 33 34  1  0
 34 30  1  0
 35 36  1  0
 36 37  2  0
 38 37  1  0
 39 38  2  0
 40 41  1  0
 40 50  1  0
 40 14  1  0
 41 44  1  0
 42 46  1  0
 42 41  1  0
 43 42  2  0
 46 45  1  0
 47 48  1  0
 48 49  1  0
 48 46  1  0
 50 51  1  1
 52 50  1  0
 53 50  1  0
 55 54  1  0
 56 62  1  0
 56 69  1  0
 57 62  1  0
 58 57  1  0
 58 59  1  0
 60 59  1  0
 60 61  1  0
 60 73  1  0
 62 61  1  0
 63 56  2  0
 64 68  1  0
 66 64  1  0
 66 69  1  0
 67 65  1  0
 68 55  1  0
 68 65  1  0
 69 67  1  0
 70 71  2  0
 71 90  1  0
 72 75  1  0
 72 71  1  0
 73 74  1  0
 73 70  1  0
 74 72  2  0
 75 76  1  0
 76 77  2  0
 78 81  1  0
 78 77  1  0
 79 78  2  0
 80 79  1  0
 80 75  2  0
 81 82  1  0
 82 87  2  0
 82 83  1  0
 83 84  2  0
 84 85  1  0
 85 89  1  0
 86 85  2  0
 87 86  1  0
 88 87  1  0
 90 91  1  0
 91 93  1  0
 91 94  1  0
 92 90  2  0
 95 70  1  0
 95 96  1  0
 97 95  1  0
M  ISO  4  12 101  13 101  56 100  69 100
M  END
>  <TORSDO>  (51) 
F 22

>  <SCORE>  (51) 
-1.833

>  <name>  (51) 
51

>  <ligand_id>  (51) 
51

>  <original_smiles>  (51) 
[H]c1c([H])c([H])c2c(c1[H])C([H])([H])C([H])([H])C([H])([H])C2([H])N([H])C(=O)C1([H])N(C(=O)C([H])(N([H])C(=O)C([H])(N([H])C([H])([H])[H])C([H])([H])[H])C(C([H])([H])[H])(C([H])([H])[H])C([H])([H])[H])C([H])([H])c2c([H])c(OC([H])([H])C([H])([H])C([H])([H])C3([H])C([H])([H])C([H])([H])C([H])(C([H])([H])C([H])([H])[H])[N+]([H])(C([H])([H])C([H])([H])C4([H])C([H])([H])C([H])([H])N(C(=O)N5C([H])([H])C([H])([H])C([H])([H])C([H])(n6nc(-c7c([H])c([H])c(Oc8c([H])c([H])c(F)c([H])c8F)c([H])c7[H])c(C(=O)N([H])[H])c6N([H])[H])C5([H])[H])C([H])([H])C4([H])[H])C3([H])[H])c([H])c([H])c2C1([H])[H]

>  <smiles>  (51) 
[H]c1c([H])c([H])c2c(c1[H])C([H])([H])C([H])([H])C([H])([H])C2([H])N([H])C(=O)C1([H])N(C(=O)C([H])(N([H])C(=O)C([H])(N([H])C([H])([H])[H])C([H])([H])[H])C(C([H])([H])[H])(C([H])([H])[H])C([H])([H])[H])C([H])([H])c2c([H])c(OC([H])([H])C([H])([H])C([H])([H])C3([H])C([H])([H])C([H])([H])C([H])(C([H])([H])C([H])([H])[H])[N+]([H])(C([H])([H])C([H])([H])C4([H])C([H])([H])C([H])([H])N(C(=O)N5C([H])([H])C([H])([H])C([H])([H])C([H])(n6nc(-c7c([H])c([H])c(Oc8c([H])c([H])c(F)c([H])c8F)c([H])c7[H])c(C(=O)N([H])[H])c6N([H])[H])C5([H])[H])C([H])([H])C4([H])[H])C3([H])[H])c([H])c([H])c2C1([H])[H]

$$$$
52:0:0
     RDKit          3D

 93102  0  0  1  0  0  0  0  0999 V2000
  -30.7320  -15.3840   20.1290 C   0  0  0  0  0  0  0  0  0  0  0  0
  -30.6350  -12.8190   19.5900 C   0  0  0  0  0  2  0  0  0  0  0  0
  -29.7750  -12.4290   18.3590 C   0  0  0  0  0  2  0  0  0  0  0  0
  -28.3150  -12.2020   18.7760 C   0  0  0  0  0  2  0  0  0  0  0  0
  -27.8220  -13.3100   19.7360 C   0  0  0  0  0  3  0  0  0  0  0  0
  -28.8230  -13.6860   20.8590 C   0  0  0  0  0  2  0  0  0  0  0  0
  -30.0880  -14.0950   20.2110 N   0  0  0  0  0  0  0  0  0  0  0  0
  -31.9370  -15.2300   19.8630 O   0  0  0  0  0  0  0  0  0  0  0  0
  -29.4090  -18.9860   21.2090 C   0  0  0  0  0  2  0  0  0  0  0  0
  -29.3900  -17.3790   21.2190 C   0  0  0  0  0  2  0  0  0  0  0  0
  -30.3130  -18.2120   19.2890 C   0  0  0  0  0  3  0  0  0  0  0  0
  -29.3380  -19.6040   19.7610 C   0  0  2  0  0  0  0  0  0  0  0  0
  -30.1120  -16.7660   20.0720 N   0  0  0  0  0  0  0  0  0  0  0  0
  -34.5120  -19.1360   18.2810 C   0  0  0  0  0  3  0  0  0  0  0  0
  -33.7060  -18.3890   17.3980 C   0  0  0  0  0  3  0  0  0  0  0  0
  -33.9570  -19.6100   19.4850 C   0  0  0  0  0  3  0  0  0  0  0  0
  -32.3590  -18.1090   17.7270 C   0  0  0  0  0  3  0  0  0  0  0  0
  -32.6110  -19.3260   19.8130 C   0  0  0  0  0  3  0  0  0  0  0  0
  -31.7860  -18.5590   18.9470 C   0  0  0  0  0  0  0  0  0  0  0  0
  -25.4670  -13.9950   20.4190 C   0  0  0  0  0  0  0  0  0  0  0  0
  -24.3560  -13.2820   20.7720 C   0  0  0  0  0  0  0  0  0  0  0  0
  -24.7530  -11.9090   20.7830 C   0  0  0  0  0  0  0  0  0  0  0  0
  -26.4700  -13.0640   20.2260 N   0  0  0  0  0  0  0  0  0  0  0  0
  -26.0470  -11.8020   20.5110 N   0  0  0  0  0  0  0  0  0  0  0  0
  -23.9530  -10.6930   20.9760 C   0  0  0  0  0  0  0  0  0  0  0  0
  -24.3290   -9.7010   21.9100 C   0  0  0  0  0  3  0  0  0  0  0  0
  -23.5250   -8.5530   22.0940 C   0  0  0  0  0  3  0  0  0  0  0  0
  -22.3330   -8.3860   21.3490 C   0  0  0  0  0  0  0  0  0  0  0  0
  -21.9740   -9.3700   20.4100 C   0  0  0  0  0  3  0  0  0  0  0  0
  -22.7750  -10.5100   20.2210 C   0  0  0  0  0  3  0  0  0  0  0  0
  -21.5010   -7.2950   21.4480 O   0  0  0  0  0  0  0  0  0  0  0  0
  -21.4580   -6.5300   22.5860 C   0  0  0  0  0  0  0  0  0  0  0  0
  -21.1300   -7.0840   23.8410 C   0  0  0  0  0  3  0  0  0  0  0  0
  -21.0190   -6.2530   24.9730 C   0  0  0  0  0  3  0  0  0  0  0  0
  -21.2270   -4.8640   24.8530 C   0  0  0  0  0  0  0  0  0  0  0  0
  -21.5430   -4.3080   23.6050 C   0  0  0  0  0  3  0  0  0  0  0  0
  -21.6540   -5.1390   22.4740 C   0  0  0  0  0  0  0  0  0  0  0  0
  -21.9390   -4.5960   21.2640 F   0  0  0  0  0  0  0  0  0  0  0  0
  -21.1160   -4.0640   25.9380 F   0  0  0  0  0  0  0  0  0  0  0  0
  -22.9830  -13.8420   20.9940 C   0  0  0  0  0  0  0  0  0  0  0  0
  -22.1960  -13.2180   21.8640 N   0  0  0  0  0  0  0  0  0  0  0  0
  -22.6140  -14.8700   20.4270 O   0  0  0  0  0  0  0  0  0  0  0  0
  -22.4940  -12.3750   22.3320 H   0  0  0  0  0  0  0  0  0  0  0  0
  -21.2780  -13.5870   22.0600 H   0  0  0  0  0  0  0  0  0  0  0  0
  -25.7100  -15.3480   20.2060 N   0  0  0  0  0  0  0  0  0  0  0  0
  -24.9850  -16.0540   20.2530 H   0  0  0  0  0  0  0  0  0  0  0  0
  -26.5890  -15.7130   19.8630 H   0  0  0  0  0  0  0  0  0  0  0  0
  -29.5520  -21.3720   19.7050 C   0  0  0  0  0  2  0  0  0  0  0  0
  -28.7390  -22.5830   19.4050 C   0  0  0  0  0  2  0  0  0  0  0  0
  -28.7330  -24.3130   19.7690 C   0  0  0  0  0  2  0  0  0  0  0  0
  -28.4440  -25.7590   19.0010 O   0  0  0  0  0  0  0  0  0  0  0  0
  -24.7120  -31.2950   22.7030 C   0  0  0  0  0  0  0  0  0  0  0  0
  -27.3720  -26.7930   19.2060 C   0  0  0  0  0  0  0  0  0  0  0  0
  -23.5210  -29.9950   20.9840 C   0  0  0  0  0  3  0  0  0  0  0  0
  -24.9920  -28.5860   19.3820 C   0  0  0  0  0  0  0  0  0  0  0  0
  -26.0710  -30.3280   20.7760 C   0  0  0  0  0  2  0  0  0  0  0  0
  -26.1820  -28.9800   20.0040 C   0  0  0  0  0  0  0  0  0  0  0  0
  -27.3680  -28.1130   19.8900 C   0  0  0  0  0  3  0  0  0  0  0  0
  -26.1420  -26.5630   18.5470 C   0  0  0  0  0  3  0  0  0  0  0  0
  -24.9940  -27.3950   18.6420 C   0  0  0  0  0  3  0  0  0  0  0  0
  -23.7260  -29.4380   19.5500 C   0  0  0  0  0  2  0  0  0  0  0  0
  -24.7900  -30.5650   21.5420 N   0  0  0  0  0  0  0  0  0  0  0  0
  -23.6280  -31.4990   23.2760 O   0  0  0  0  0  0  0  0  0  0  0  0
  -22.9000  -28.8880   21.8800 C   0  0  0  0  0  0  0  0  0  0  0  0
  -21.5780  -28.6730   21.7760 N   0  0  0  0  0  0  0  0  0  0  0  0
  -23.6210  -28.2150   22.6220 O   0  0  0  0  0  0  0  0  0  0  0  0
  -21.0440  -29.2630   21.1530 H   0  0  0  0  0  0  0  0  0  0  0  0
  -18.2720  -27.2720   22.2810 C   0  0  0  0  0  0  0  0  0  0  0  0
  -20.8250  -27.6340   22.4890 C   0  0  0  0  0  3  0  0  0  0  0  0
  -20.9700  -26.2690   21.7830 C   0  0  0  0  0  2  0  0  0  0  0  0
  -19.8480  -25.9840   20.7810 C   0  0  0  0  0  2  0  0  0  0  0  0
  -18.4830  -26.0000   21.4730 C   0  0  0  0  0  2  0  0  0  0  0  0
  -19.3710  -28.0490   22.7370 C   0  0  0  0  0  0  0  0  0  0  0  0
  -19.1150  -29.2350   23.4570 C   0  0  0  0  0  3  0  0  0  0  0  0
  -17.7960  -29.6470   23.7230 C   0  0  0  0  0  3  0  0  0  0  0  0
  -16.7110  -28.8710   23.2790 C   0  0  0  0  0  3  0  0  0  0  0  0
  -16.9530  -27.6840   22.5640 C   0  0  0  0  0  3  0  0  0  0  0  0
  -25.9710  -31.9400   23.3530 C   0  0  0  0  0  3  0  0  0  0  0  0
  -26.6340  -31.0330   24.4620 C   0  0  1  0  0  0  0  0  0  0  0  0
  -25.6360  -30.5510   25.5400 C   0  0  0  0  0  1  0  0  0  0  0  0
  -27.2890  -29.7830   23.8340 C   0  0  0  0  0  1  0  0  0  0  0  0
  -27.7670  -31.8110   25.1740 C   0  0  0  0  0  1  0  0  0  0  0  0
  -25.5730  -33.2380   23.9340 N   0  0  0  0  0  0  0  0  0  0  0  0
  -25.7820  -34.4340   23.3630 C   0  0  0  0  0  0  0  0  0  0  0  0
  -26.3930  -34.5660   22.3000 O   0  0  0  0  0  0  0  0  0  0  0  0
  -25.0310  -33.2100   24.7860 H   0  0  0  0  0  0  0  0  0  0  0  0
  -23.9090  -36.1170   23.4230 C   0  0  0  0  0  1  0  0  0  0  0  0
  -25.2250  -35.6760   24.0860 C   0  0  0  0  0  3  0  0  0  0  0  0
  -27.3300  -36.5740   24.9680 C   0  0  0  0  0  1  0  0  0  0  0  0
  -26.1680  -36.8130   24.1160 N   0  0  0  0  0  0  0  0  0  0  0  0
  -25.7030  -37.6510   24.4480 H   0  0  0  0  0  0  0  0  0  0  0  0
  -26.7530  -19.9090   20.1670 C   0  0  0  0  0  1  0  0  0  0  0  0
  -27.8830  -19.3970   19.2370 C   0  0  0  0  0  2  0  0  0  0  0  0
  1  7  1  0
  2  7  1  0
  3  4  1  0
  3  2  1  0
  5  4  1  0
  5 23  1  0
  5  6  1  0
  7  6  1  0
  8  1  2  0
  9 10  1  0
 11 19  1  0
 11 12  1  0
 11 13  1  0
 12 93  1  6
 12  9  1  0
 13  1  1  0
 13 10  1  0
 14 16  1  0
 15 17  1  0
 15 14  2  0
 16 18  2  0
 17 19  2  0
 19 18  1  0
 20 21  2  0
 21 22  1  0
 21 40  1  0
 22 25  1  0
 23 20  1  0
 23 24  1  0
 24 22  2  0
 25 26  1  0
 26 27  2  0
 28 31  1  0
 28 27  1  0
 29 28  2  0
 30 29  1  0
 30 25  2  0
 31 32  1  0
 32 33  1  0
 33 34  2  0
 35 34  1  0
 35 39  1  0
 36 35  2  0
 37 32  2  0
 37 36  1  0
 38 37  1  0
 40 41  1  0
 41 44  1  0
 41 43  1  0
 42 40  2  0
 45 46  1  0
 45 20  1  0
 47 45  1  0
 48 12  1  0
 49 48  1  0
 49 50  1  0
 51 53  1  0
 51 50  1  0
 52 63  2  0
 53 58  1  0
 54 62  1  0
 54 64  1  0
 55 61  1  0
 55 57  1  0
 56 62  1  0
 57 56  1  0
 58 57  2  0
 59 60  1  0
 59 53  2  0
 60 55  2  0
 61 54  1  0
 62 52  1  0
 64 66  2  0
 65 64  1  0
 67 65  1  0
 68 77  2  0
 68 73  1  0
 69 65  1  0
 69 73  1  0
 70 69  1  0
 71 72  1  0
 71 70  1  0
 72 68  1  0
 73 74  2  0
 74 75  1  0
 76 75  2  0
 77 76  1  0
 78 52  1  0
 78 83  1  0
 78 79  1  0
 79 82  1  1
 79 80  1  0
 81 79  1  0
 83 86  1  0
 84 83  1  0
 84 88  1  0
 85 84  2  0
 88 87  1  0
 88 90  1  0
 90 91  1  0
 90 89  1  0
 93 92  1  0
M  ISO  4   1 100  13 100  50 101  51 101
M  END
>  <TORSDO>  (52) 
F 19

>  <SCORE>  (52) 
-12.345

>  <name>  (52) 
52

>  <ligand_id>  (52) 
52

>  <original_smiles>  (52) 
[H]C(=C([H])C1(C([H])([H])C([H])([H])[H])C([H])(c2c([H])c([H])c([H])c([H])c2[H])N(C(=O)N2C([H])([H])C([H])([H])C([H])([H])C([H])(n3nc(-c4c([H])c([H])c(Oc5c([H])c([H])c(F)c([H])c5F)c([H])c4[H])c(C(=O)N([H])[H])c3N([H])[H])C2([H])[H])C([H])([H])C1([H])[H])C([H])([H])Oc1c([H])c([H])c2c(c1[H])C([H])([H])N(C(=O)C([H])(N([H])C(=O)C([H])(N([H])C([H])([H])[H])C([H])([H])[H])C(C([H])([H])[H])(C([H])([H])[H])C([H])([H])[H])C([H])(C(=O)N([H])C1([H])c3c([H])c([H])c([H])c([H])c3C([H])([H])C([H])([H])C1([H])[H])C2([H])[H]

>  <smiles>  (52) 
[H]C(=C([H])C1(C([H])([H])C([H])([H])[H])C([H])(c2c([H])c([H])c([H])c([H])c2[H])N(C(=O)N2C([H])([H])C([H])([H])C([H])([H])C([H])(n3nc(-c4c([H])c([H])c(Oc5c([H])c([H])c(F)c([H])c5F)c([H])c4[H])c(C(=O)N([H])[H])c3N([H])[H])C2([H])[H])C([H])([H])C1([H])[H])C([H])([H])Oc1c([H])c([H])c2c(c1[H])C([H])([H])N(C(=O)C([H])(N([H])C(=O)C([H])(N([H])C([H])([H])[H])C([H])([H])[H])C(C([H])([H])[H])(C([H])([H])[H])C([H])([H])[H])C([H])(C(=O)N([H])C1([H])c3c([H])c([H])c([H])c([H])c3C([H])([H])C([H])([H])C1([H])[H])C2([H])[H]

$$$$
53:0:0
     RDKit          3D

 98106  0  0  1  0  0  0  0  0999 V2000
  -31.7840  -19.2180   19.5500 C   0  0  0  0  0  3  0  0  0  0  0  0
  -32.4170  -20.4700   19.4660 C   0  0  0  0  0  3  0  0  0  0  0  0
  -30.3040  -20.0860   21.2700 C   0  0  0  0  0  3  0  0  0  0  0  0
  -30.7040  -19.0160   20.4300 C   0  0  0  0  0  0  0  0  0  0  0  0
  -31.9970  -21.5460   20.2760 C   0  0  0  0  0  0  0  0  0  0  0  0
  -30.9410  -21.3510   21.2020 C   0  0  0  0  0  0  0  0  0  0  0  0
  -32.7000  -22.8860   20.1260 C   0  0  0  0  0  1  0  0  0  0  0  0
  -30.5210  -22.4410   22.1910 C   0  0  0  0  0  2  0  0  0  0  0  0
  -29.2740  -23.2680   21.8050 C   0  0  0  0  0  2  0  0  0  0  0  0
  -29.4840  -24.5200   20.9170 C   0  0  0  0  0  2  0  0  0  0  0  0
  -28.2230  -25.4180   20.9400 C   0  0  0  0  0  2  0  0  0  0  0  0
  -28.3490  -26.6220   20.1750 O   0  0  0  0  0  0  0  0  0  0  0  0
  -24.5730  -31.8350   23.2200 C   0  0  0  0  0  0  0  0  0  0  0  0
  -27.1920  -27.3720   20.1590 C   0  0  0  0  0  0  0  0  0  0  0  0
  -23.3540  -30.4300   21.5900 C   0  0  0  0  0  3  0  0  0  0  0  0
  -24.7960  -28.8750   20.1720 C   0  0  0  0  0  0  0  0  0  0  0  0
  -25.8800  -30.7780   21.3800 C   0  0  0  0  0  2  0  0  0  0  0  0
  -25.9590  -29.4040   20.7500 C   0  0  0  0  0  0  0  0  0  0  0  0
  -27.1610  -28.6600   20.7390 C   0  0  0  0  0  3  0  0  0  0  0  0
  -26.0180  -26.8580   19.5710 C   0  0  0  0  0  3  0  0  0  0  0  0
  -24.8190  -27.6000   19.5810 C   0  0  0  0  0  3  0  0  0  0  0  0
  -23.5550  -29.7360   20.2170 C   0  0  0  0  0  2  0  0  0  0  0  0
  -24.6210  -31.0280   22.1220 N   0  0  0  0  0  0  0  0  0  0  0  0
  -23.4950  -32.1160   23.7610 O   0  0  0  0  0  0  0  0  0  0  0  0
  -22.6990  -29.4200   22.5600 C   0  0  0  0  0  0  0  0  0  0  0  0
  -21.3730  -29.2460   22.4360 N   0  0  0  0  0  0  0  0  0  0  0  0
  -23.3800  -28.7950   23.3770 O   0  0  0  0  0  0  0  0  0  0  0  0
  -20.8860  -29.7960   21.7420 H   0  0  0  0  0  0  0  0  0  0  0  0
  -17.9910  -28.0840   22.9580 C   0  0  0  0  0  0  0  0  0  0  0  0
  -20.5520  -28.3200   23.2160 C   0  0  0  0  0  3  0  0  0  0  0  0
  -20.6410  -26.8880   22.6450 C   0  0  0  0  0  2  0  0  0  0  0  0
  -19.5310  -26.5690   21.6370 C   0  0  0  0  0  2  0  0  0  0  0  0
  -18.1530  -26.7300   22.2860 C   0  0  0  0  0  2  0  0  0  0  0  0
  -19.1200  -28.8370   23.3790 C   0  0  0  0  0  0  0  0  0  0  0  0
  -18.9150  -30.1040   23.9680 C   0  0  0  0  0  3  0  0  0  0  0  0
  -17.6160  -30.6200   24.1370 C   0  0  0  0  0  3  0  0  0  0  0  0
  -16.5030  -29.8630   23.7300 C   0  0  0  0  0  3  0  0  0  0  0  0
  -16.6910  -28.5970   23.1480 C   0  0  0  0  0  3  0  0  0  0  0  0
  -25.8660  -32.4610   23.8320 C   0  0  0  0  0  3  0  0  0  0  0  0
  -26.3920  -31.6820   25.0990 C   0  0  1  0  0  0  0  0  0  0  0  0
  -25.3070  -31.4420   26.1750 C   0  0  0  0  0  1  0  0  0  0  0  0
  -26.9700  -30.3040   24.6980 C   0  0  0  0  0  1  0  0  0  0  0  0
  -27.5540  -32.4680   25.7520 C   0  0  0  0  0  1  0  0  0  0  0  0
  -25.5620  -33.8590   24.1670 N   0  0  0  0  0  0  0  0  0  0  0  0
  -25.8940  -34.9110   23.4090 C   0  0  0  0  0  0  0  0  0  0  0  0
  -26.5600  -34.8080   22.3740 O   0  0  0  0  0  0  0  0  0  0  0  0
  -24.9680  -34.0120   24.9690 H   0  0  0  0  0  0  0  0  0  0  0  0
  -24.1780  -36.7150   23.0530 C   0  0  0  0  0  1  0  0  0  0  0  0
  -25.4110  -36.2990   23.8700 C   0  0  0  0  0  3  0  0  0  0  0  0
  -27.5420  -37.1700   24.7250 C   0  0  0  0  0  1  0  0  0  0  0  0
  -26.4500  -37.3480   23.7700 N   0  0  0  0  0  0  0  0  0  0  0  0
  -26.0480  -38.2700   23.9150 H   0  0  0  0  0  0  0  0  0  0  0  0
  -30.0100  -17.6470   20.4240 C   0  0  0  0  0  3  0  0  0  0  0  0
  -28.4640  -17.7160   20.5070 C   0  0  0  0  0  2  0  0  0  0  0  0
  -27.8060  -18.5880   19.4120 C   0  0  0  0  0  2  0  0  0  0  0  0
  -26.3370  -18.5020   19.4230 N   0  0  0  0  0  4  0  0  0  0  0  0
  -25.9510  -19.2570   18.8830 H   0  0  0  0  0  0  0  0  0  0  0  0
  -25.9710  -18.5580   20.3570 H   0  0  0  0  0  0  0  0  0  0  0  0
  -26.0300  -17.6460   18.9970 H   0  0  0  0  0  0  0  0  0  0  0  0
  -30.6310  -16.6770   21.4620 C   0  0  0  0  0  2  0  0  0  0  0  0
  -30.7170  -14.3730   20.4890 C   0  0  0  0  0  0  0  0  0  0  0  0
  -30.3580  -12.2600   19.2660 C   0  0  0  0  0  2  0  0  0  0  0  0
  -29.3850  -12.4750   18.0890 C   0  0  0  0  0  2  0  0  0  0  0  0
  -27.9240  -12.3370   18.5540 C   0  0  0  0  0  2  0  0  0  0  0  0
  -27.6210  -13.1680   19.8270 C   0  0  0  0  0  3  0  0  0  0  0  0
  -28.6940  -12.9210   20.9110 C   0  0  0  0  0  2  0  0  0  0  0  0
  -30.0150  -13.2180   20.3300 N   0  0  0  0  0  0  0  0  0  0  0  0
  -31.7690  -14.6070   19.8890 O   0  0  0  0  0  0  0  0  0  0  0  0
  -30.1570  -15.2950   21.2910 N   0  0  0  0  0  0  0  0  0  0  0  0
  -29.3030  -15.0390   21.7620 H   0  0  0  0  0  0  0  0  0  0  0  0
  -25.2440  -13.7910   20.5990 C   0  0  0  0  0  0  0  0  0  0  0  0
  -24.1750  -13.0280   20.9810 C   0  0  0  0  0  0  0  0  0  0  0  0
  -24.6160  -11.6720   20.9120 C   0  0  0  0  0  0  0  0  0  0  0  0
  -26.2720  -12.9040   20.3260 N   0  0  0  0  0  0  0  0  0  0  0  0
  -25.8970  -11.6230   20.5690 N   0  0  0  0  0  0  0  0  0  0  0  0
  -23.8800  -10.4140   21.0920 C   0  0  0  0  0  0  0  0  0  0  0  0
  -24.3260   -9.4210   21.9910 C   0  0  0  0  0  3  0  0  0  0  0  0
  -23.5930   -8.2260   22.1590 C   0  0  0  0  0  3  0  0  0  0  0  0
  -22.3990   -8.0160   21.4300 C   0  0  0  0  0  0  0  0  0  0  0  0
  -21.9710   -8.9980   20.5210 C   0  0  0  0  0  3  0  0  0  0  0  0
  -22.7040  -10.1860   20.3490 C   0  0  0  0  0  3  0  0  0  0  0  0
  -21.6370   -6.8760   21.5130 O   0  0  0  0  0  0  0  0  0  0  0  0
  -21.6170   -6.1030   22.6460 C   0  0  0  0  0  0  0  0  0  0  0  0
  -21.2200   -6.6240   23.8970 C   0  0  0  0  0  3  0  0  0  0  0  0
  -21.1460   -5.7790   25.0210 C   0  0  0  0  0  3  0  0  0  0  0  0
  -21.4590   -4.4120   24.8970 C   0  0  0  0  0  0  0  0  0  0  0  0
  -21.8520   -3.8900   23.6510 C   0  0  0  0  0  3  0  0  0  0  0  0
  -21.9270   -4.7340   22.5300 C   0  0  0  0  0  0  0  0  0  0  0  0
  -22.2850   -4.2220   21.3270 F   0  0  0  0  0  0  0  0  0  0  0  0
  -21.3810   -3.5960   25.9750 F   0  0  0  0  0  0  0  0  0  0  0  0
  -22.7890  -13.5190   21.2920 C   0  0  0  0  0  0  0  0  0  0  0  0
  -22.0720  -12.8240   22.1670 N   0  0  0  0  0  0  0  0  0  0  0  0
  -22.3520  -14.5560   20.7920 O   0  0  0  0  0  0  0  0  0  0  0  0
  -22.4380  -11.9890   22.5990 H   0  0  0  0  0  0  0  0  0  0  0  0
  -21.1440  -13.1390   22.4120 H   0  0  0  0  0  0  0  0  0  0  0  0
  -25.4250  -15.1610   20.4280 N   0  0  0  0  0  0  0  0  0  0  0  0
  -24.6050  -15.7560   20.4160 H   0  0  0  0  0  0  0  0  0  0  0  0
  -26.1790  -15.4880   19.8410 H   0  0  0  0  0  0  0  0  0  0  0  0
  1  4  1  0
  2  1  2  0
  2  5  1  0
  4  3  2  0
  5  6  2  0
  6  3  1  0
  6  8  1  0
  7  5  1  0
  9  8  1  0
 10 11  1  0
 10  9  1  0
 12 11  1  0
 13 24  2  0
 14 12  1  0
 14 19  1  0
 15 23  1  0
 15 25  1  0
 16 22  1  0
 16 18  1  0
 17 23  1  0
 18 17  1  0
 19 18  2  0
 20 21  1  0
 20 14  2  0
 21 16  2  0
 22 15  1  0
 23 13  1  0
 25 27  2  0
 26 25  1  0
 28 26  1  0
 29 38  2  0
 29 34  1  0
 30 26  1  0
 30 34  1  0
 31 30  1  0
 32 33  1  0
 32 31  1  0
 33 29  1  0
 34 35  2  0
 35 36  1  0
 37 36  2  0
 38 37  1  0
 39 13  1  0
 39 44  1  0
 39 40  1  0
 40 43  1  1
 40 41  1  0
 42 40  1  0
 44 47  1  0
 45 49  1  0
 45 44  1  0
 46 45  2  0
 49 48  1  0
 51 49  1  0
 51 52  1  0
 51 50  1  0
 53  4  1  0
 53 54  1  0
 53 60  1  0
 55 56  1  0
 55 54  1  0
 56 58  1  0
 57 56  1  0
 59 56  1  0
 61 69  1  0
 62 67  1  0
 63 64  1  0
 63 62  1  0
 65 64  1  0
 65 74  1  0
 65 66  1  0
 67 61  1  0
 67 66  1  0
 68 61  2  0
 69 60  1  0
 69 70  1  0
 71 72  2  0
 72 91  1  0
 73 72  1  0
 73 76  1  0
 74 75  1  0
 74 71  1  0
 75 73  2  0
 76 77  1  0
 77 78  2  0
 79 82  1  0
 79 78  1  0
 80 79  2  0
 81 80  1  0
 81 76  2  0
 82 83  1  0
 83 84  1  0
 84 85  2  0
 86 85  1  0
 86 90  1  0
 87 86  2  0
 88 83  2  0
 88 87  1  0
 89 88  1  0
 91 92  1  0
 92 95  1  0
 92 94  1  0
 93 91  2  0
 96 71  1  0
 97 96  1  0
 98 96  1  0
M  ISO  4  11 101  12 101  61 100  69 100
M  END
>  <TORSDO>  (53) 
F 25

>  <SCORE>  (53) 
-12.697

>  <name>  (53) 
53

>  <ligand_id>  (53) 
53

>  <original_smiles>  (53) 
[H]c1c([H])c([H])c2c(c1[H])C([H])([H])C([H])([H])C([H])([H])C2([H])N([H])C(=O)C1([H])N(C(=O)C([H])(N([H])C(=O)C([H])(N([H])C([H])([H])[H])C([H])([H])[H])C(C([H])([H])[H])(C([H])([H])[H])C([H])([H])[H])C([H])([H])c2c([H])c(OC([H])([H])C([H])([H])C([H])([H])C([H])([H])c3c([H])c(C([H])(C([H])([H])N([H])C(=O)N4C([H])([H])C([H])([H])C([H])([H])C([H])(n5nc(-c6c([H])c([H])c(Oc7c([H])c([H])c(F)c([H])c7F)c([H])c6[H])c(C(=O)N([H])[H])c5N([H])[H])C4([H])[H])C([H])([H])C([H])([H])[N+]([H])([H])[H])c([H])c([H])c3C([H])([H])[H])c([H])c([H])c2C1([H])[H]

>  <smiles>  (53) 
[H]c1c([H])c([H])c2c(c1[H])C([H])([H])C([H])([H])C([H])([H])C2([H])N([H])C(=O)C1([H])N(C(=O)C([H])(N([H])C(=O)C([H])(N([H])C([H])([H])[H])C([H])([H])[H])C(C([H])([H])[H])(C([H])([H])[H])C([H])([H])[H])C([H])([H])c2c([H])c(OC([H])([H])C([H])([H])C([H])([H])C([H])([H])c3c([H])c(C([H])(C([H])([H])N([H])C(=O)N4C([H])([H])C([H])([H])C([H])([H])C([H])(n5nc(-c6c([H])c([H])c(Oc7c([H])c([H])c(F)c([H])c7F)c([H])c6[H])c(C(=O)N([H])[H])c5N([H])[H])C4([H])[H])C([H])([H])C([H])([H])[N+]([H])([H])[H])c([H])c([H])c3C([H])([H])[H])c([H])c([H])c2C1([H])[H]

$$$$
54:0:0
     RDKit          3D

 95103  0  0  1  0  0  0  0  0999 V2000
  -28.8190  -21.5760   21.0010 C   0  0  0  0  0  2  0  0  0  0  0  0
  -29.0570  -17.5840   19.1110 C   0  0  0  0  0  2  0  0  0  0  0  0
  -27.8180  -18.4320   18.7880 C   0  0  0  0  0  2  0  0  0  0  0  0
  -29.6280  -19.1310   21.0080 C   0  0  0  0  0  2  0  0  0  0  0  0
  -29.4020  -17.6530   20.6120 C   0  0  0  0  0  3  0  0  0  0  0  0
  -28.0040  -19.9140   19.1650 C   0  0  0  0  0  3  0  0  0  0  0  0
  -28.4660  -20.0950   20.6390 C   0  0  0  0  0  3  0  0  0  0  0  0
  -26.9390  -21.7610   17.7290 C   0  0  0  0  0  1  0  0  0  0  0  0
  -26.7200  -20.7140   18.8290 C   0  0  0  0  0  2  0  0  0  0  0  0
  -30.6210  -16.7850   21.0360 C   0  0  0  0  0  2  0  0  0  0  0  0
  -30.9930  -14.3950   20.4120 C   0  0  0  0  0  0  0  0  0  0  0  0
  -30.7050  -12.1690   19.3820 C   0  0  0  0  0  2  0  0  0  0  0  0
  -29.7620  -12.2880   18.1680 C   0  0  0  0  0  2  0  0  0  0  0  0
  -28.2840  -12.1990   18.5960 C   0  0  0  0  0  2  0  0  0  0  0  0
  -27.9550  -13.1380   19.7880 C   0  0  0  0  0  3  0  0  0  0  0  0
  -28.9940  -12.9490   20.9140 C   0  0  0  0  0  2  0  0  0  0  0  0
  -30.3320  -13.2110   20.3500 N   0  0  0  0  0  0  0  0  0  0  0  0
  -32.0660  -14.6110   19.8360 O   0  0  0  0  0  0  0  0  0  0  0  0
  -30.3310  -15.3550   21.0760 N   0  0  0  0  0  0  0  0  0  0  0  0
  -29.4570  -15.0780   21.4980 H   0  0  0  0  0  0  0  0  0  0  0  0
  -25.5920  -13.8560   20.5140 C   0  0  0  0  0  0  0  0  0  0  0  0
  -24.4940  -13.1330   20.8990 C   0  0  0  0  0  0  0  0  0  0  0  0
  -24.8860  -11.7630   20.8380 C   0  0  0  0  0  0  0  0  0  0  0  0
  -26.5920  -12.9270   20.2700 N   0  0  0  0  0  0  0  0  0  0  0  0
  -26.1680  -11.6610   20.5140 N   0  0  0  0  0  0  0  0  0  0  0  0
  -24.0980  -10.5380   21.0110 C   0  0  0  0  0  0  0  0  0  0  0  0
  -24.5110   -9.5180   21.8940 C   0  0  0  0  0  3  0  0  0  0  0  0
  -23.7270   -8.3550   22.0580 C   0  0  0  0  0  3  0  0  0  0  0  0
  -22.5170   -8.2090   21.3390 C   0  0  0  0  0  0  0  0  0  0  0  0
  -22.1220   -9.2190   20.4440 C   0  0  0  0  0  3  0  0  0  0  0  0
  -22.9060  -10.3730   20.2770 C   0  0  0  0  0  3  0  0  0  0  0  0
  -21.7060   -7.1020   21.4150 O   0  0  0  0  0  0  0  0  0  0  0  0
  -21.6580   -6.3220   22.5430 C   0  0  0  0  0  0  0  0  0  0  0  0
  -21.3400   -6.8600   23.8090 C   0  0  0  0  0  3  0  0  0  0  0  0
  -21.2320   -6.0100   24.9280 C   0  0  0  0  0  3  0  0  0  0  0  0
  -21.4350   -4.6240   24.7820 C   0  0  0  0  0  0  0  0  0  0  0  0
  -21.7500   -4.0860   23.5220 C   0  0  0  0  0  3  0  0  0  0  0  0
  -21.8580   -4.9340   22.4060 C   0  0  0  0  0  0  0  0  0  0  0  0
  -22.1400   -4.4080   21.1880 F   0  0  0  0  0  0  0  0  0  0  0  0
  -21.3260   -3.8050   25.8550 F   0  0  0  0  0  0  0  0  0  0  0  0
  -23.1300  -13.6820   21.2000 C   0  0  0  0  0  0  0  0  0  0  0  0
  -22.3880  -13.0180   22.0810 N   0  0  0  0  0  0  0  0  0  0  0  0
  -22.7310  -14.7280   20.6940 O   0  0  0  0  0  0  0  0  0  0  0  0
  -22.7250  -12.1720   22.5140 H   0  0  0  0  0  0  0  0  0  0  0  0
  -21.4710  -13.3630   22.3220 H   0  0  0  0  0  0  0  0  0  0  0  0
  -25.8030  -15.2140   20.3300 N   0  0  0  0  0  0  0  0  0  0  0  0
  -25.0310  -15.8700   20.3800 H   0  0  0  0  0  0  0  0  0  0  0  0
  -26.6420  -15.6140   19.9280 H   0  0  0  0  0  0  0  0  0  0  0  0
  -29.1400  -22.4150   19.8160 N   0  0  0  0  0  4  0  0  0  0  0  0
  -28.2880  -22.7160   19.3740 H   0  0  0  0  0  0  0  0  0  0  0  0
  -29.6070  -21.8180   19.1530 H   0  0  0  0  0  0  0  0  0  0  0  0
  -30.0360  -23.5840   20.0250 C   0  0  0  0  0  2  0  0  0  0  0  0
  -29.4290  -24.7630   20.8310 C   0  0  0  0  0  2  0  0  0  0  0  0
  -30.1970  -26.0780   20.5550 C   0  0  0  0  0  2  0  0  0  0  0  0
  -29.7360  -27.2270   21.2840 O   0  0  0  0  0  0  0  0  0  0  0  0
  -25.0040  -32.0020   23.5820 C   0  0  0  0  0  0  0  0  0  0  0  0
  -28.4870  -27.7800   21.0620 C   0  0  0  0  0  0  0  0  0  0  0  0
  -24.1770  -30.4250   21.8720 C   0  0  0  0  0  3  0  0  0  0  0  0
  -25.9560  -29.0110   20.7090 C   0  0  0  0  0  0  0  0  0  0  0  0
  -26.6530  -31.0500   21.9770 C   0  0  0  0  0  2  0  0  0  0  0  0
  -26.9630  -29.6770   21.4160 C   0  0  0  0  0  0  0  0  0  0  0  0
  -28.2240  -29.0630   21.5980 C   0  0  0  0  0  3  0  0  0  0  0  0
  -27.4610  -27.1270   20.3420 C   0  0  0  0  0  3  0  0  0  0  0  0
  -26.2020  -27.7370   20.1690 C   0  0  0  0  0  3  0  0  0  0  0  0
  -24.6250  -29.7140   20.5660 C   0  0  0  0  0  2  0  0  0  0  0  0
  -25.2870  -31.1780   22.5360 N   0  0  0  0  0  0  0  0  0  0  0  0
  -23.8390  -32.1650   23.9720 O   0  0  0  0  0  0  0  0  0  0  0  0
  -23.5230  -29.3680   22.7910 C   0  0  0  0  0  0  0  0  0  0  0  0
  -22.2450  -29.0540   22.5230 N   0  0  0  0  0  0  0  0  0  0  0  0
  -24.1640  -28.8380   23.7020 O   0  0  0  0  0  0  0  0  0  0  0  0
  -21.7890  -29.5470   21.7680 H   0  0  0  0  0  0  0  0  0  0  0  0
  -18.9620  -27.5820   22.7260 C   0  0  0  0  0  0  0  0  0  0  0  0
  -21.4410  -28.0650   23.2400 C   0  0  0  0  0  3  0  0  0  0  0  0
  -21.7240  -26.6370   22.7180 C   0  0  0  0  0  2  0  0  0  0  0  0
  -20.7780  -26.2180   21.5900 C   0  0  0  0  0  2  0  0  0  0  0  0
  -19.3260  -26.2450   22.0870 C   0  0  0  0  0  2  0  0  0  0  0  0
  -19.9600  -28.4450   23.2490 C   0  0  0  0  0  0  0  0  0  0  0  0
  -19.5850  -29.6930   23.7910 C   0  0  0  0  0  3  0  0  0  0  0  0
  -18.2320  -30.0860   23.8190 C   0  0  0  0  0  3  0  0  0  0  0  0
  -17.2420  -29.2200   23.3220 C   0  0  0  0  0  3  0  0  0  0  0  0
  -17.6080  -27.9740   22.7780 C   0  0  0  0  0  3  0  0  0  0  0  0
  -26.1220  -32.7980   24.3260 C   0  0  0  0  0  3  0  0  0  0  0  0
  -25.6640  -34.1880   24.4610 N   0  0  0  0  0  0  0  0  0  0  0  0
  -26.0220  -35.1890   23.6460 C   0  0  0  0  0  0  0  0  0  0  0  0
  -26.8360  -35.0480   22.7300 O   0  0  0  0  0  0  0  0  0  0  0  0
  -24.9480  -34.3590   25.1510 H   0  0  0  0  0  0  0  0  0  0  0  0
  -24.2240  -36.7710   22.8850 C   0  0  0  0  0  1  0  0  0  0  0  0
  -25.3740  -36.5670   23.8820 C   0  0  0  0  0  3  0  0  0  0  0  0
  -27.3170  -37.7010   24.8600 C   0  0  0  0  0  1  0  0  0  0  0  0
  -26.3320  -37.6900   23.7810 N   0  0  0  0  0  0  0  0  0  0  0  0
  -25.8450  -38.5830   23.7910 H   0  0  0  0  0  0  0  0  0  0  0  0
  -26.4830  -32.1900   25.7380 C   0  0  1  0  0  0  0  0  0  0  0  0
  -25.2510  -31.9060   26.6310 C   0  0  0  0  0  1  0  0  0  0  0  0
  -27.2530  -30.8590   25.5720 C   0  0  0  0  0  1  0  0  0  0  0  0
  -27.4220  -33.1530   26.4990 C   0  0  0  0  0  1  0  0  0  0  0  0
  2  5  1  0
  3  2  1  0
  3  6  1  0
  5  4  1  0
  5 10  1  0
  6  9  1  0
  6  7  1  0
  7  1  1  0
  7  4  1  0
  8  9  1  0
 10 19  1  0
 11 19  1  0
 12 17  1  0
 13 14  1  0
 13 12  1  0
 15 14  1  0
 15 24  1  0
 15 16  1  0
 17 11  1  0
 17 16  1  0
 18 11  2  0
 19 20  1  0
 21 22  2  0
 22 41  1  0
 23 22  1  0
 23 26  1  0
 24 25  1  0
 24 21  1  0
 25 23  2  0
 26 27  1  0
 27 28  2  0
 29 32  1  0
 29 28  1  0
 30 29  2  0
 31 30  1  0
 31 26  2  0
 32 33  1  0
 33 34  1  0
 34 35  2  0
 36 35  1  0
 36 40  1  0
 37 36  2  0
 38 33  2  0
 38 37  1  0
 39 38  1  0
 41 42  1  0
 42 45  1  0
 42 44  1  0
 43 41  2  0
 46 47  1  0
 46 21  1  0
 48 46  1  0
 49 52  1  0
 49  1  1  0
 50 49  1  0
 51 49  1  0
 52 53  1  0
 54 53  1  0
 54 55  1  0
 56 67  2  0
 57 55  1  0
 57 62  1  0
 58 66  1  0
 58 68  1  0
 59 61  1  0
 60 66  1  0
 61 62  2  0
 61 60  1  0
 63 57  2  0
 64 63  1  0
 64 59  2  0
 65 59  1  0
 65 58  1  0
 66 56  1  0
 68 70  2  0
 69 68  1  0
 71 69  1  0
 72 81  2  0
 72 77  1  0
 73 69  1  0
 73 77  1  0
 74 73  1  0
 75 76  1  0
 75 74  1  0
 76 72  1  0
 77 78  2  0
 78 79  1  0
 80 79  2  0
 81 80  1  0
 82 56  1  0
 82 83  1  0
 82 92  1  0
 83 86  1  0
 84 88  1  0
 84 83  1  0
 85 84  2  0
 88 87  1  0
 90 91  1  0
 90 88  1  0
 90 89  1  0
 92 95  1  1
 92 93  1  0
 94 92  1  0
M  ISO  4  11 100  19 100  54 101  55 101
M  END
>  <TORSDO>  (54) 
F 23

>  <SCORE>  (54) 
-11.694

>  <name>  (54) 
54

>  <ligand_id>  (54) 
54

>  <original_smiles>  (54) 
[H]c1c([H])c([H])c2c(c1[H])C([H])([H])C([H])([H])C([H])([H])C2([H])N([H])C(=O)C1([H])N(C(=O)C([H])(N([H])C(=O)C([H])(N([H])C([H])([H])[H])C([H])([H])[H])C(C([H])([H])[H])(C([H])([H])[H])C([H])([H])[H])C([H])([H])c2c([H])c(OC([H])([H])C([H])([H])C([H])([H])[N+]([H])([H])C([H])([H])C3([H])C([H])([H])C([H])(C([H])([H])N([H])C(=O)N4C([H])([H])C([H])([H])C([H])([H])C([H])(n5nc(-c6c([H])c([H])c(Oc7c([H])c([H])c(F)c([H])c7F)c([H])c6[H])c(C(=O)N([H])[H])c5N([H])[H])C4([H])[H])C([H])([H])C([H])([H])C3([H])C([H])([H])C([H])([H])[H])c([H])c([H])c2C1([H])[H]

>  <smiles>  (54) 
[H]c1c([H])c([H])c2c(c1[H])C([H])([H])C([H])([H])C([H])([H])C2([H])N([H])C(=O)C1([H])N(C(=O)C([H])(N([H])C(=O)C([H])(N([H])C([H])([H])[H])C([H])([H])[H])C(C([H])([H])[H])(C([H])([H])[H])C([H])([H])[H])C([H])([H])c2c([H])c(OC([H])([H])C([H])([H])C([H])([H])[N+]([H])([H])C([H])([H])C3([H])C([H])([H])C([H])(C([H])([H])N([H])C(=O)N4C([H])([H])C([H])([H])C([H])([H])C([H])(n5nc(-c6c([H])c([H])c(Oc7c([H])c([H])c(F)c([H])c7F)c([H])c6[H])c(C(=O)N([H])[H])c5N([H])[H])C4([H])[H])C([H])([H])C([H])([H])C3([H])C([H])([H])C([H])([H])[H])c([H])c([H])c2C1([H])[H]

$$$$
55:0:0
     RDKit          3D

 92100  0  0  1  0  0  0  0  0999 V2000
  -28.9830  -18.9450   20.0200 C   0  0  0  0  0  2  0  0  0  0  0  0
  -30.0800  -17.8780   19.7920 C   0  0  0  0  0  0  0  0  0  0  0  0
  -30.5960  -17.7480   18.6460 N   0  0  0  0  0  0  0  0  0  0  0  0
  -31.2770  -16.9910   18.6490 H   0  0  0  0  0  0  0  0  0  0  0  0
  -31.5930  -18.0040   22.4810 C   0  0  0  0  0  2  0  0  0  0  0  0
  -32.0280  -17.1040   21.3200 C   0  0  0  0  0  2  0  0  0  0  0  0
  -30.2050  -17.3600   22.3820 C   0  0  0  0  0  2  0  0  0  0  0  0
  -30.5370  -16.9220   20.9330 C   0  0  1  0  0  0  0  0  0  0  0  0
  -30.8310  -14.5350   20.0360 C   0  0  0  0  0  0  0  0  0  0  0  0
  -30.4860  -12.3800   18.8730 C   0  0  0  0  0  2  0  0  0  0  0  0
  -29.4720  -12.5870   17.7290 C   0  0  0  0  0  2  0  0  0  0  0  0
  -28.0240  -12.4490   18.2410 C   0  0  0  0  0  2  0  0  0  0  0  0
  -27.7610  -13.2710   19.5320 C   0  0  0  0  0  3  0  0  0  0  0  0
  -28.8790  -13.0290   20.5720 C   0  0  0  0  0  2  0  0  0  0  0  0
  -30.1670  -13.3500   19.9320 N   0  0  0  0  0  0  0  0  0  0  0  0
  -31.9080  -14.7470   19.4720 O   0  0  0  0  0  0  0  0  0  0  0  0
  -30.1740  -15.5040   20.7080 N   0  0  0  0  0  0  0  0  0  0  0  0
  -29.2850  -15.2180   21.0880 H   0  0  0  0  0  0  0  0  0  0  0  0
  -25.4160  -13.8840   20.3940 C   0  0  0  0  0  0  0  0  0  0  0  0
  -24.3630  -13.1140   20.8100 C   0  0  0  0  0  0  0  0  0  0  0  0
  -24.8070  -11.7590   20.7200 C   0  0  0  0  0  0  0  0  0  0  0  0
  -26.4360  -12.9990   20.0830 N   0  0  0  0  0  0  0  0  0  0  0  0
  -26.0750  -11.7140   20.3340 N   0  0  0  0  0  0  0  0  0  0  0  0
  -24.0780  -10.4990   20.9250 C   0  0  0  0  0  0  0  0  0  0  0  0
  -24.5270   -9.5290   21.8470 C   0  0  0  0  0  3  0  0  0  0  0  0
  -23.8010   -8.3340   22.0390 C   0  0  0  0  0  3  0  0  0  0  0  0
  -22.6120   -8.1020   21.3070 C   0  0  0  0  0  0  0  0  0  0  0  0
  -22.1840   -9.0580   20.3720 C   0  0  0  0  0  3  0  0  0  0  0  0
  -22.9110  -10.2450   20.1780 C   0  0  0  0  0  3  0  0  0  0  0  0
  -21.8570   -6.9580   21.4100 O   0  0  0  0  0  0  0  0  0  0  0  0
  -21.7930   -6.2380   22.5760 C   0  0  0  0  0  0  0  0  0  0  0  0
  -21.3330   -6.8110   23.7820 C   0  0  0  0  0  3  0  0  0  0  0  0
  -21.2170   -6.0170   24.9400 C   0  0  0  0  0  3  0  0  0  0  0  0
  -21.5530   -4.6500   24.8940 C   0  0  0  0  0  0  0  0  0  0  0  0
  -22.0050   -4.0760   23.6930 C   0  0  0  0  0  3  0  0  0  0  0  0
  -22.1220   -4.8670   22.5370 C   0  0  0  0  0  0  0  0  0  0  0  0
  -22.5390   -4.3050   21.3780 F   0  0  0  0  0  0  0  0  0  0  0  0
  -21.4350   -3.8850   26.0050 F   0  0  0  0  0  0  0  0  0  0  0  0
  -22.9900  -13.5970   21.1780 C   0  0  0  0  0  0  0  0  0  0  0  0
  -22.3080  -12.8860   22.0710 N   0  0  0  0  0  0  0  0  0  0  0  0
  -22.5310  -14.6390   20.7100 O   0  0  0  0  0  0  0  0  0  0  0  0
  -22.6930  -12.0450   22.4730 H   0  0  0  0  0  0  0  0  0  0  0  0
  -21.3870  -13.1900   22.3550 H   0  0  0  0  0  0  0  0  0  0  0  0
  -25.5840  -15.2570   20.2380 N   0  0  0  0  0  0  0  0  0  0  0  0
  -24.8270  -15.9150   20.4000 H   0  0  0  0  0  0  0  0  0  0  0  0
  -26.4090  -15.6940   19.8450 H   0  0  0  0  0  0  0  0  0  0  0  0
  -29.4630  -20.3370   20.5400 C   0  0  0  0  0  2  0  0  0  0  0  0
  -28.5780  -21.5440   20.0920 C   0  0  0  0  0  2  0  0  0  0  0  0
  -28.8400  -22.8810   20.8510 C   0  0  0  0  0  2  0  0  0  0  0  0
  -28.3620  -24.1790   20.1290 C   0  0  0  0  0  2  0  0  0  0  0  0
  -28.4610  -25.4660   21.0000 C   0  0  0  0  0  2  0  0  0  0  0  0
  -28.4650  -26.7130   20.2740 O   0  0  0  0  0  0  0  0  0  0  0  0
  -24.5790  -31.8830   23.3190 C   0  0  0  0  0  0  0  0  0  0  0  0
  -27.2980  -27.4480   20.2860 C   0  0  0  0  0  0  0  0  0  0  0  0
  -23.4210  -30.5060   21.6200 C   0  0  0  0  0  3  0  0  0  0  0  0
  -24.9140  -28.9720   20.2280 C   0  0  0  0  0  0  0  0  0  0  0  0
  -25.9540  -30.8520   21.5090 C   0  0  0  0  0  2  0  0  0  0  0  0
  -26.0540  -29.4840   20.8610 C   0  0  0  0  0  0  0  0  0  0  0  0
  -27.2510  -28.7300   20.8820 C   0  0  0  0  0  3  0  0  0  0  0  0
  -26.1420  -26.9490   19.6520 C   0  0  0  0  0  3  0  0  0  0  0  0
  -24.9530  -27.7040   19.6200 C   0  0  0  0  0  3  0  0  0  0  0  0
  -23.6730  -29.8390   20.2410 C   0  0  0  0  0  2  0  0  0  0  0  0
  -24.6690  -31.0950   22.2090 N   0  0  0  0  0  0  0  0  0  0  0  0
  -23.4830  -32.1550   23.8260 O   0  0  0  0  0  0  0  0  0  0  0  0
  -22.7310  -29.4800   22.5480 C   0  0  0  0  0  0  0  0  0  0  0  0
  -21.4100  -29.3100   22.3750 N   0  0  0  0  0  0  0  0  0  0  0  0
  -23.3820  -28.8380   23.3760 O   0  0  0  0  0  0  0  0  0  0  0  0
  -20.9480  -29.8780   21.6790 H   0  0  0  0  0  0  0  0  0  0  0  0
  -18.0110  -28.1380   22.7490 C   0  0  0  0  0  0  0  0  0  0  0  0
  -20.5620  -28.3680   23.1060 C   0  0  0  0  0  3  0  0  0  0  0  0
  -20.6720  -26.9460   22.5130 C   0  0  0  0  0  2  0  0  0  0  0  0
  -19.5990  -26.6470   21.4590 C   0  0  0  0  0  2  0  0  0  0  0  0
  -18.1990  -26.7960   22.0600 C   0  0  0  0  0  2  0  0  0  0  0  0
  -19.1220  -28.8820   23.2260 C   0  0  0  0  0  0  0  0  0  0  0  0
  -18.8980  -30.1390   23.8280 C   0  0  0  0  0  3  0  0  0  0  0  0
  -17.5930  -30.6520   23.9580 C   0  0  0  0  0  3  0  0  0  0  0  0
  -16.4950  -29.9040   23.4980 C   0  0  0  0  0  3  0  0  0  0  0  0
  -16.7050  -28.6490   22.8990 C   0  0  0  0  0  3  0  0  0  0  0  0
  -25.8490  -32.4980   23.9890 C   0  0  0  0  0  3  0  0  0  0  0  0
  -25.5340  -33.8890   24.3370 N   0  0  0  0  0  0  0  0  0  0  0  0
  -25.8930  -34.9560   23.6110 C   0  0  0  0  0  0  0  0  0  0  0  0
  -26.5960  -34.8710   22.6000 O   0  0  0  0  0  0  0  0  0  0  0  0
  -24.9120  -34.0290   25.1190 H   0  0  0  0  0  0  0  0  0  0  0  0
  -24.1880  -36.7650   23.2300 C   0  0  0  0  0  1  0  0  0  0  0  0
  -25.3950  -36.3360   24.0800 C   0  0  0  0  0  3  0  0  0  0  0  0
  -27.4950  -37.1940   25.0160 C   0  0  0  0  0  1  0  0  0  0  0  0
  -26.4350  -37.3860   24.0300 N   0  0  0  0  0  0  0  0  0  0  0  0
  -26.0260  -38.3040   24.1780 H   0  0  0  0  0  0  0  0  0  0  0  0
  -26.3290  -31.6980   25.2620 C   0  0  1  0  0  0  0  0  0  0  0  0
  -25.2050  -31.4370   26.2910 C   0  0  0  0  0  1  0  0  0  0  0  0
  -26.9240  -30.3290   24.8530 C   0  0  0  0  0  1  0  0  0  0  0  0
  -27.4580  -32.4770   25.9750 C   0  0  0  0  0  1  0  0  0  0  0  0
  1 47  1  0
  2  1  1  0
  2  8  1  0
  3  4  1  0
  3  2  2  0
  6  5  1  0
  7  5  1  0
  8  6  1  0
  8  7  1  0
  9 17  1  0
 10 15  1  0
 11 12  1  0
 11 10  1  0
 13 12  1  0
 13 22  1  0
 13 14  1  0
 15  9  1  0
 15 14  1  0
 16  9  2  0
  8 17  1  6
 17 18  1  0
 19 20  2  0
 20 39  1  0
 21 20  1  0
 21 24  1  0
 22 23  1  0
 22 19  1  0
 23 21  2  0
 24 25  1  0
 25 26  2  0
 27 30  1  0
 27 26  1  0
 28 27  2  0
 29 28  1  0
 29 24  2  0
 30 31  1  0
 31 32  1  0
 32 33  2  0
 34 33  1  0
 34 38  1  0
 35 34  2  0
 36 31  2  0
 36 35  1  0
 37 36  1  0
 39 40  1  0
 40 43  1  0
 40 42  1  0
 41 39  2  0
 44 19  1  0
 44 45  1  0
 46 44  1  0
 48 47  1  0
 48 49  1  0
 50 49  1  0
 50 51  1  0
 52 54  1  0
 52 51  1  0
 53 64  2  0
 54 59  1  0
 55 63  1  0
 55 65  1  0
 56 62  1  0
 56 58  1  0
 57 63  1  0
 58 59  2  0
 58 57  1  0
 60 54  2  0
 61 60  1  0
 61 56  2  0
 62 55  1  0
 63 53  1  0
 65 67  2  0
 66 65  1  0
 68 66  1  0
 69 78  2  0
 69 74  1  0
 70 66  1  0
 70 74  1  0
 71 70  1  0
 72 73  1  0
 72 71  1  0
 73 69  1  0
 74 75  2  0
 75 76  1  0
 77 76  2  0
 78 77  1  0
 79 53  1  0
 79 80  1  0
 79 89  1  0
 80 83  1  0
 81 85  1  0
 81 80  1  0
 82 81  2  0
 85 84  1  0
 87 85  1  0
 87 88  1  0
 87 86  1  0
 89 92  1  1
 89 90  1  0
 91 89  1  0
M  ISO  4   9 100  17 100  51 101  52 101
M  END
>  <TORSDO>  (55) 
F 23

>  <SCORE>  (55) 
-11.836

>  <name>  (55) 
55

>  <ligand_id>  (55) 
55

>  <original_smiles>  (55) 
[H]N=C(C([H])([H])C([H])([H])C([H])([H])C([H])([H])C([H])([H])C([H])([H])Oc1c([H])c([H])c2c(c1[H])C([H])([H])N(C(=O)C([H])(N([H])C(=O)C([H])(N([H])C([H])([H])[H])C([H])([H])[H])C(C([H])([H])[H])(C([H])([H])[H])C([H])([H])[H])C([H])(C(=O)N([H])C1([H])c3c([H])c([H])c([H])c([H])c3C([H])([H])C([H])([H])C1([H])[H])C2([H])[H])C1(N([H])C(=O)N2C([H])([H])C([H])([H])C([H])([H])C([H])(n3nc(-c4c([H])c([H])c(Oc5c([H])c([H])c(F)c([H])c5F)c([H])c4[H])c(C(=O)N([H])[H])c3N([H])[H])C2([H])[H])C([H])([H])C([H])([H])C1([H])[H]

>  <smiles>  (55) 
[H]N=C(C([H])([H])C([H])([H])C([H])([H])C([H])([H])C([H])([H])C([H])([H])Oc1c([H])c([H])c2c(c1[H])C([H])([H])N(C(=O)C([H])(N([H])C(=O)C([H])(N([H])C([H])([H])[H])C([H])([H])[H])C(C([H])([H])[H])(C([H])([H])[H])C([H])([H])[H])C([H])(C(=O)N([H])C1([H])c3c([H])c([H])c([H])c([H])c3C([H])([H])C([H])([H])C1([H])[H])C2([H])[H])C1(N([H])C(=O)N2C([H])([H])C([H])([H])C([H])([H])C([H])(n3nc(-c4c([H])c([H])c(Oc5c([H])c([H])c(F)c([H])c5F)c([H])c4[H])c(C(=O)N([H])[H])c3N([H])[H])C2([H])[H])C([H])([H])C([H])([H])C1([H])[H]

$$$$
56:0:0
     RDKit          3D

 94103  0  0  1  0  0  0  0  0999 V2000
  -27.1510  -21.2470   21.0060 C   0  0  0  0  0  3  0  0  0  0  0  0
  -29.3380  -21.2680   19.6800 C   0  0  0  0  0  2  0  0  0  0  0  0
  -28.4350  -20.6440   20.4450 C   0  0  0  0  0  0  0  0  0  0  0  0
  -30.5500  -20.4150   19.3720 C   0  0  0  0  0  2  0  0  0  0  0  0
  -28.2890  -18.0120   20.1580 C   0  0  0  0  0  2  0  0  0  0  0  0
  -28.9020  -19.2440   20.8410 C   0  0  0  0  0  3  0  0  0  0  0  0
  -30.1460  -19.0710   19.9630 C   0  0  0  0  0  3  0  0  0  0  0  0
  -29.3600  -18.1000   19.0630 C   0  0  0  0  0  3  0  0  0  0  0  0
  -30.0930  -16.8890   18.4600 C   0  0  0  0  0  2  0  0  0  0  0  0
  -30.8020  -14.5850   18.9830 C   0  0  0  0  0  0  0  0  0  0  0  0
  -30.6750  -12.1650   18.5800 C   0  0  0  0  0  2  0  0  0  0  0  0
  -29.5990  -11.8810   17.5090 C   0  0  0  0  0  2  0  0  0  0  0  0
  -28.1980  -11.7800   18.1390 C   0  0  0  0  0  2  0  0  0  0  0  0
  -27.8900  -12.9520   19.1030 C   0  0  0  0  0  3  0  0  0  0  0  0
  -29.0520  -13.1720   20.0940 C   0  0  0  0  0  2  0  0  0  0  0  0
  -30.2800  -13.3770   19.3140 N   0  0  0  0  0  0  0  0  0  0  0  0
  -31.8550  -14.7230   18.3530 O   0  0  0  0  0  0  0  0  0  0  0  0
  -29.9750  -15.6250   19.1940 N   0  0  0  0  0  0  0  0  0  0  0  0
  -29.1240  -15.4490   19.7080 H   0  0  0  0  0  0  0  0  0  0  0  0
  -25.7390  -13.6900   20.2980 C   0  0  0  0  0  0  0  0  0  0  0  0
  -24.6830  -12.9800   20.8000 C   0  0  0  0  0  0  0  0  0  0  0  0
  -24.9870  -11.6050   20.5620 C   0  0  0  0  0  0  0  0  0  0  0  0
  -26.6280  -12.7520   19.8030 N   0  0  0  0  0  0  0  0  0  0  0  0
  -26.1890  -11.4870   20.0170 N   0  0  0  0  0  0  0  0  0  0  0  0
  -24.1820  -10.3950   20.7690 C   0  0  0  0  0  0  0  0  0  0  0  0
  -24.5980   -9.3690   21.6450 C   0  0  0  0  0  3  0  0  0  0  0  0
  -23.7950   -8.2250   21.8390 C   0  0  0  0  0  3  0  0  0  0  0  0
  -22.5630   -8.1000   21.1550 C   0  0  0  0  0  0  0  0  0  0  0  0
  -22.1660   -9.1120   20.2620 C   0  0  0  0  0  3  0  0  0  0  0  0
  -22.9690  -10.2470   20.0670 C   0  0  0  0  0  3  0  0  0  0  0  0
  -21.7300   -7.0120   21.2620 O   0  0  0  0  0  0  0  0  0  0  0  0
  -21.5970   -6.3220   22.4400 C   0  0  0  0  0  0  0  0  0  0  0  0
  -21.1340   -6.9420   23.6200 C   0  0  0  0  0  3  0  0  0  0  0  0
  -20.9470   -6.1790   24.7900 C   0  0  0  0  0  3  0  0  0  0  0  0
  -21.2130   -4.7970   24.7780 C   0  0  0  0  0  0  0  0  0  0  0  0
  -21.6680   -4.1760   23.6020 C   0  0  0  0  0  3  0  0  0  0  0  0
  -21.8560   -4.9360   22.4350 C   0  0  0  0  0  0  0  0  0  0  0  0
  -22.2760   -4.3300   21.2990 F   0  0  0  0  0  0  0  0  0  0  0  0
  -21.0250   -4.0600   25.8990 F   0  0  0  0  0  0  0  0  0  0  0  0
  -23.4120  -13.5430   21.3720 C   0  0  0  0  0  0  0  0  0  0  0  0
  -22.8060  -12.8360   22.3190 N   0  0  0  0  0  0  0  0  0  0  0  0
  -22.9800  -14.6400   21.0170 O   0  0  0  0  0  0  0  0  0  0  0  0
  -23.1730  -11.9470   22.6240 H   0  0  0  0  0  0  0  0  0  0  0  0
  -21.9620  -13.1850   22.7470 H   0  0  0  0  0  0  0  0  0  0  0  0
  -26.0040  -15.0530   20.1950 N   0  0  0  0  0  0  0  0  0  0  0  0
  -25.3410  -15.7600   20.4890 H   0  0  0  0  0  0  0  0  0  0  0  0
  -26.7920  -15.4350   19.6900 H   0  0  0  0  0  0  0  0  0  0  0  0
  -26.9490  -22.7880   20.8220 C   0  0  0  0  0  2  0  0  0  0  0  0
  -26.8450  -23.2930   19.3680 C   0  0  0  0  0  0  0  0  0  0  0  0
  -25.7830  -22.6100   18.5250 C   0  0  0  0  0  1  0  0  0  0  0  0
  -27.4530  -24.2580   18.8020 N   0  0  0  0  0  0  0  0  0  0  0  0
  -28.3430  -25.2160   19.4380 C   0  0  0  0  0  2  0  0  0  0  0  0
  -28.8450  -26.2120   18.3430 C   0  0  0  0  0  2  0  0  0  0  0  0
  -28.7590  -27.6140   18.6550 O   0  0  0  0  0  0  0  0  0  0  0  0
  -24.6600  -31.0960   23.2490 C   0  0  0  0  0  0  0  0  0  0  0  0
  -27.5140  -28.1740   18.8490 C   0  0  0  0  0  0  0  0  0  0  0  0
  -23.4850  -30.0700   21.3290 C   0  0  0  0  0  3  0  0  0  0  0  0
  -24.9700  -29.2710   19.4200 C   0  0  0  0  0  0  0  0  0  0  0  0
  -25.9070  -30.8560   21.1070 C   0  0  0  0  0  2  0  0  0  0  0  0
  -26.1030  -29.7570   20.0820 C   0  0  0  0  0  0  0  0  0  0  0  0
  -27.3780  -29.2130   19.7960 C   0  0  0  0  0  3  0  0  0  0  0  0
  -26.3610  -27.7230   18.1650 C   0  0  0  0  0  3  0  0  0  0  0  0
  -25.0970  -28.2570   18.4570 C   0  0  0  0  0  3  0  0  0  0  0  0
  -23.6360  -29.8640   19.7960 C   0  0  0  0  0  2  0  0  0  0  0  0
  -24.7070  -30.6730   21.9540 N   0  0  0  0  0  0  0  0  0  0  0  0
  -23.6110  -31.0320   23.9100 O   0  0  0  0  0  0  0  0  0  0  0  0
  -23.0740  -28.7280   21.9720 C   0  0  0  0  0  0  0  0  0  0  0  0
  -21.8160  -28.3170   21.7440 N   0  0  0  0  0  0  0  0  0  0  0  0
  -23.8770  -28.0640   22.6290 O   0  0  0  0  0  0  0  0  0  0  0  0
  -21.1940  -28.9380   21.2500 H   0  0  0  0  0  0  0  0  0  0  0  0
  -18.8750  -26.2360   21.5030 C   0  0  0  0  0  0  0  0  0  0  0  0
  -21.2270  -27.0590   22.1930 C   0  0  0  0  0  3  0  0  0  0  0  0
  -21.7810  -25.8680   21.3770 C   0  0  0  0  0  2  0  0  0  0  0  0
  -20.9050  -25.4670   20.1850 C   0  0  0  0  0  2  0  0  0  0  0  0
  -19.4700  -25.1580   20.6160 C   0  0  0  0  0  2  0  0  0  0  0  0
  -19.6990  -27.1350   22.2280 C   0  0  0  0  0  0  0  0  0  0  0  0
  -19.0930  -28.1440   23.0080 C   0  0  0  0  0  3  0  0  0  0  0  0
  -17.6930  -28.2590   23.0760 C   0  0  0  0  0  3  0  0  0  0  0  0
  -16.8830  -27.3600   22.3610 C   0  0  0  0  0  3  0  0  0  0  0  0
  -17.4740  -26.3450   21.5910 C   0  0  0  0  0  3  0  0  0  0  0  0
  -25.9120  -31.7050   23.9580 C   0  0  0  0  0  3  0  0  0  0  0  0
  -25.5820  -33.0900   24.3170 N   0  0  0  0  0  0  0  0  0  0  0  0
  -26.0410  -34.1730   23.6730 C   0  0  0  0  0  0  0  0  0  0  0  0
  -26.8540  -34.1080   22.7470 O   0  0  0  0  0  0  0  0  0  0  0  0
  -24.8810  -33.2160   25.0330 H   0  0  0  0  0  0  0  0  0  0  0  0
  -24.4800  -36.0670   23.1190 C   0  0  0  0  0  1  0  0  0  0  0  0
  -25.5120  -35.5450   24.1320 C   0  0  0  0  0  3  0  0  0  0  0  0
  -27.4550  -36.2690   25.4500 C   0  0  0  0  0  1  0  0  0  0  0  0
  -26.5780  -36.5560   24.3160 N   0  0  0  0  0  0  0  0  0  0  0  0
  -26.1760  -37.4800   24.4570 H   0  0  0  0  0  0  0  0  0  0  0  0
  -26.3640  -30.8910   25.2300 C   0  0  1  0  0  0  0  0  0  0  0  0
  -25.2230  -30.6150   26.2360 C   0  0  0  0  0  1  0  0  0  0  0  0
  -26.9680  -29.5290   24.8110 C   0  0  0  0  0  1  0  0  0  0  0  0
  -27.4760  -31.6640   25.9780 C   0  0  0  0  0  1  0  0  0  0  0  0
  2  3  1  0
  3  6  1  0
  3  1  2  0
  4  2  1  0
  6  5  1  0
  7  4  1  0
  7  6  1  0
  8  9  1  0
  8  7  1  0
  8  5  1  0
  9 18  1  0
 10 18  1  0
 10 16  1  0
 11 16  1  0
 12 13  1  0
 12 11  1  0
 14 13  1  0
 14 23  1  0
 14 15  1  0
 16 15  1  0
 17 10  2  0
 18 19  1  0
 20 21  2  0
 21 40  1  0
 22 25  1  0
 22 21  1  0
 23 24  1  0
 23 20  1  0
 24 22  2  0
 25 26  1  0
 26 27  2  0
 28 31  1  0
 28 27  1  0
 29 28  2  0
 30 29  1  0
 30 25  2  0
 31 32  1  0
 32 33  1  0
 33 34  2  0
 35 34  1  0
 35 39  1  0
 36 35  2  0
 37 32  2  0
 37 36  1  0
 38 37  1  0
 40 41  1  0
 41 43  1  0
 41 44  1  0
 42 40  2  0
 45 20  1  0
 45 46  1  0
 47 45  1  0
 48  1  1  0
 49 48  1  0
 50 49  1  0
 51 49  2  0
 51 52  1  0
 53 54  1  0
 53 52  1  0
 54 56  1  0
 55 66  2  0
 56 61  1  0
 57 65  1  0
 57 67  1  0
 58 64  1  0
 58 60  1  0
 59 65  1  0
 60 59  1  0
 61 60  2  0
 62 63  1  0
 62 56  2  0
 63 58  2  0
 64 57  1  0
 65 55  1  0
 67 69  2  0
 68 67  1  0
 70 68  1  0
 71 80  2  0
 71 76  1  0
 72 68  1  0
 72 76  1  0
 73 72  1  0
 74 75  1  0
 74 73  1  0
 75 71  1  0
 76 77  2  0
 77 78  1  0
 79 78  2  0
 80 79  1  0
 81 55  1  0
 81 82  1  0
 81 91  1  0
 82 85  1  0
 83 87  1  0
 83 82  1  0
 84 83  2  0
 87 86  1  0
 87 89  1  0
 89 90  1  0
 89 88  1  0
 91 94  1  1
 91 92  1  0
 93 91  1  0
M  ISO  4  10 100  18 100  53 101  54 101
M  END
>  <TORSDO>  (56) 
F 22

>  <SCORE>  (56) 
-8.453

>  <name>  (56) 
56

>  <ligand_id>  (56) 
56

>  <original_smiles>  (56) 
[H]C1=C(C([H])([H])C([H])([H])C(=NC([H])([H])C([H])([H])Oc2c([H])c([H])c3c(c2[H])C([H])([H])N(C(=O)C([H])(N([H])C(=O)C([H])(N([H])C([H])([H])[H])C([H])([H])[H])C(C([H])([H])[H])(C([H])([H])[H])C([H])([H])[H])C([H])(C(=O)N([H])C2([H])c4c([H])c([H])c([H])c([H])c4C([H])([H])C([H])([H])C2([H])[H])C3([H])[H])C([H])([H])[H])C2([H])C([H])([H])C([H])(C([H])([H])N([H])C(=O)N3C([H])([H])C([H])([H])C([H])([H])C([H])(n4nc(-c5c([H])c([H])c(Oc6c([H])c([H])c(F)c([H])c6F)c([H])c5[H])c(C(=O)N([H])[H])c4N([H])[H])C3([H])[H])C2([H])C1([H])[H]

>  <smiles>  (56) 
[H]C1=C(C([H])([H])C([H])([H])C(=NC([H])([H])C([H])([H])Oc2c([H])c([H])c3c(c2[H])C([H])([H])N(C(=O)C([H])(N([H])C(=O)C([H])(N([H])C([H])([H])[H])C([H])([H])[H])C(C([H])([H])[H])(C([H])([H])[H])C([H])([H])[H])C([H])(C(=O)N([H])C2([H])c4c([H])c([H])c([H])c([H])c4C([H])([H])C([H])([H])C2([H])[H])C3([H])[H])C([H])([H])[H])C2([H])C([H])([H])C([H])(C([H])([H])N([H])C(=O)N3C([H])([H])C([H])([H])C([H])([H])C([H])(n4nc(-c5c([H])c([H])c(Oc6c([H])c([H])c(F)c([H])c6F)c([H])c5[H])c(C(=O)N([H])[H])c4N([H])[H])C3([H])[H])C2([H])C1([H])[H]

$$$$
57:0:0
     RDKit          3D

 92101  0  0  1  0  0  0  0  0999 V2000
  -31.1960  -20.6680   18.7040 C   0  0  0  0  0  2  0  0  0  0  0  0
  -30.0020  -19.8520   18.1580 C   0  0  0  0  0  2  0  0  0  0  0  0
  -31.2790  -19.2180   20.7790 C   0  0  0  0  0  2  0  0  0  0  0  0
  -30.3090  -18.2510   20.0360 C   0  0  0  0  0  3  0  0  0  0  0  0
  -30.9320  -20.6510   20.2310 C   0  0  0  0  0  3  0  0  0  0  0  0
  -29.3260  -19.4210   19.4820 C   0  0  0  0  0  3  0  0  0  0  0  0
  -29.4650  -20.7010   20.3130 N   0  0  2  0  0  4  0  0  0  0  0  0
  -29.1890  -20.5030   21.2630 H   0  0  0  0  0  0  0  0  0  0  0  0
  -30.5810  -14.6980   20.0940 C   0  0  0  0  0  0  0  0  0  0  0  0
  -30.3580  -12.4830   18.9240 C   0  0  0  0  0  2  0  0  0  0  0  0
  -29.3320  -12.6450   17.7770 C   0  0  0  0  0  2  0  0  0  0  0  0
  -27.8870  -12.4620   18.2840 C   0  0  0  0  0  2  0  0  0  0  0  0
  -27.6120  -13.2580   19.5870 C   0  0  0  0  0  3  0  0  0  0  0  0
  -28.7360  -13.0320   20.6230 C   0  0  0  0  0  2  0  0  0  0  0  0
  -30.0050  -13.4450   19.9960 N   0  0  0  0  0  0  0  0  0  0  0  0
  -31.6860  -14.9140   19.5840 O   0  0  0  0  0  0  0  0  0  0  0  0
  -29.6970  -17.0410   20.8740 C   0  0  0  0  0  0  0  0  0  0  0  0
  -29.7910  -15.6600   20.7040 N   0  0  0  0  0  0  0  0  0  0  0  0
  -28.9510  -17.4060   21.7850 O   0  0  0  0  0  0  0  0  0  0  0  0
  -29.0610  -15.2070   21.2260 H   0  0  0  0  0  0  0  0  0  0  0  0
  -25.2620  -13.8500   20.4390 C   0  0  0  0  0  0  0  0  0  0  0  0
  -24.2130  -13.0760   20.8520 C   0  0  0  0  0  0  0  0  0  0  0  0
  -24.6670  -11.7230   20.7730 C   0  0  0  0  0  0  0  0  0  0  0  0
  -26.2890  -12.9710   20.1360 N   0  0  0  0  0  0  0  0  0  0  0  0
  -25.9390  -11.6850   20.3960 N   0  0  0  0  0  0  0  0  0  0  0  0
  -23.9450  -10.4610   20.9810 C   0  0  0  0  0  0  0  0  0  0  0  0
  -24.4100   -9.4850   21.8900 C   0  0  0  0  0  3  0  0  0  0  0  0
  -23.6890   -8.2880   22.0860 C   0  0  0  0  0  3  0  0  0  0  0  0
  -22.4880   -8.0580   21.3730 C   0  0  0  0  0  0  0  0  0  0  0  0
  -22.0410   -9.0230   20.4530 C   0  0  0  0  0  3  0  0  0  0  0  0
  -22.7630  -10.2120   20.2540 C   0  0  0  0  0  3  0  0  0  0  0  0
  -21.7350   -6.9140   21.4800 O   0  0  0  0  0  0  0  0  0  0  0  0
  -21.7140   -6.1720   22.6330 C   0  0  0  0  0  0  0  0  0  0  0  0
  -21.3100   -6.7250   23.8680 C   0  0  0  0  0  3  0  0  0  0  0  0
  -21.2360   -5.9090   25.0140 C   0  0  0  0  0  3  0  0  0  0  0  0
  -21.5540   -4.5410   24.9280 C   0  0  0  0  0  0  0  0  0  0  0  0
  -21.9500   -3.9870   23.6980 C   0  0  0  0  0  3  0  0  0  0  0  0
  -22.0260   -4.7990   22.5530 C   0  0  0  0  0  0  0  0  0  0  0  0
  -22.3870   -4.2560   21.3660 F   0  0  0  0  0  0  0  0  0  0  0  0
  -21.4750   -3.7550   26.0270 F   0  0  0  0  0  0  0  0  0  0  0  0
  -22.8340  -13.5540   21.2070 C   0  0  0  0  0  0  0  0  0  0  0  0
  -22.1510  -12.8470   22.1010 N   0  0  0  0  0  0  0  0  0  0  0  0
  -22.3740  -14.5880   20.7270 O   0  0  0  0  0  0  0  0  0  0  0  0
  -22.5380  -12.0090   22.5090 H   0  0  0  0  0  0  0  0  0  0  0  0
  -21.2290  -13.1490   22.3800 H   0  0  0  0  0  0  0  0  0  0  0  0
  -25.4230  -15.2240   20.2770 N   0  0  0  0  0  0  0  0  0  0  0  0
  -24.6650  -15.8780   20.4410 H   0  0  0  0  0  0  0  0  0  0  0  0
  -26.2530  -15.6680   19.9060 H   0  0  0  0  0  0  0  0  0  0  0  0
  -28.7230  -22.0080   19.8670 C   0  0  0  0  0  2  0  0  0  0  0  0
  -29.0350  -23.5010   20.4670 C   0  0  0  0  0  3  0  0  0  0  0  0
  -28.0770  -24.7520   20.0140 C   0  0  0  0  0  3  0  0  0  0  0  0
  -28.2950  -26.2190   20.3400 O   0  0  0  0  0  0  0  0  0  0  0  0
  -24.6130  -31.8030   23.2400 C   0  0  0  0  0  0  0  0  0  0  0  0
  -27.2120  -27.1400   20.2470 C   0  0  0  0  0  0  0  0  0  0  0  0
  -23.4170  -30.4040   21.6000 C   0  0  0  0  0  3  0  0  0  0  0  0
  -24.8710  -28.8270   20.1950 C   0  0  0  0  0  0  0  0  0  0  0  0
  -25.9670  -30.6800   21.4480 C   0  0  0  0  0  2  0  0  0  0  0  0
  -26.0410  -29.2910   20.8080 C   0  0  0  0  0  0  0  0  0  0  0  0
  -27.2120  -28.4610   20.8250 C   0  0  0  0  0  3  0  0  0  0  0  0
  -26.0180  -26.7600   19.5900 C   0  0  0  0  0  3  0  0  0  0  0  0
  -24.8670  -27.5700   19.5740 C   0  0  0  0  0  3  0  0  0  0  0  0
  -23.6420  -29.7190   20.2260 C   0  0  0  0  0  2  0  0  0  0  0  0
  -24.6850  -30.9820   22.1510 N   0  0  0  0  0  0  0  0  0  0  0  0
  -23.5260  -32.0950   23.7590 O   0  0  0  0  0  0  0  0  0  0  0  0
  -22.7310  -29.4020   22.5600 C   0  0  0  0  0  0  0  0  0  0  0  0
  -21.4030  -29.2420   22.4280 N   0  0  0  0  0  0  0  0  0  0  0  0
  -23.3960  -28.7700   23.3870 O   0  0  0  0  0  0  0  0  0  0  0  0
  -20.9250  -29.8010   21.7350 H   0  0  0  0  0  0  0  0  0  0  0  0
  -18.0060  -28.0940   22.9270 C   0  0  0  0  0  0  0  0  0  0  0  0
  -20.5690  -28.3180   23.2000 C   0  0  0  0  0  3  0  0  0  0  0  0
  -20.6500  -26.8840   22.6280 C   0  0  0  0  0  2  0  0  0  0  0  0
  -19.5450  -26.5760   21.6130 C   0  0  0  0  0  2  0  0  0  0  0  0
  -18.1640  -26.7430   22.2540 C   0  0  0  0  0  2  0  0  0  0  0  0
  -19.1350  -28.8420   23.3570 C   0  0  0  0  0  0  0  0  0  0  0  0
  -18.9330  -30.1080   23.9480 C   0  0  0  0  0  3  0  0  0  0  0  0
  -17.6350  -30.6270   24.1110 C   0  0  0  0  0  3  0  0  0  0  0  0
  -16.5210  -29.8780   23.6960 C   0  0  0  0  0  3  0  0  0  0  0  0
  -16.7080  -28.6130   23.1100 C   0  0  0  0  0  3  0  0  0  0  0  0
  -25.8920  -32.4330   23.8720 C   0  0  0  0  0  3  0  0  0  0  0  0
  -26.3940  -31.6620   25.1560 C   0  0  1  0  0  0  0  0  0  0  0  0
  -25.2900  -31.4340   26.2150 C   0  0  0  0  0  1  0  0  0  0  0  0
  -26.9730  -30.2810   24.7750 C   0  0  0  0  0  1  0  0  0  0  0  0
  -27.5420  -32.4540   25.8250 C   0  0  0  0  0  1  0  0  0  0  0  0
  -25.5840  -33.8330   24.2000 N   0  0  0  0  0  0  0  0  0  0  0  0
  -25.9160  -34.8860   23.4390 C   0  0  0  0  0  0  0  0  0  0  0  0
  -26.5830  -34.7790   22.4060 O   0  0  0  0  0  0  0  0  0  0  0  0
  -24.9920  -33.9890   25.0020 H   0  0  0  0  0  0  0  0  0  0  0  0
  -24.1880  -36.6820   23.0960 C   0  0  0  0  0  1  0  0  0  0  0  0
  -25.4350  -36.2750   23.8980 C   0  0  0  0  0  3  0  0  0  0  0  0
  -27.5750  -37.1630   24.7130 C   0  0  0  0  0  1  0  0  0  0  0  0
  -26.4680  -37.3280   23.7750 N   0  0  0  0  0  0  0  0  0  0  0  0
  -26.0630  -38.2490   23.9200 H   0  0  0  0  0  0  0  0  0  0  0  0
  2  1  1  0
  4  3  1  0
  4 17  1  0
  5  1  1  0
  5  7  1  0
  5  3  1  0
  6  2  1  0
  6  4  1  0
  6  7  1  0
  7  8  1  1
  9 18  1  0
 10 15  1  0
 11 12  1  0
 11 10  1  0
 13 12  1  0
 13 24  1  0
 13 14  1  0
 15  9  1  0
 15 14  1  0
 16  9  2  0
 17 19  2  0
 18 17  1  0
 18 20  1  0
 21 22  2  0
 22 41  1  0
 23 22  1  0
 23 26  1  0
 24 25  1  0
 24 21  1  0
 25 23  2  0
 26 27  1  0
 27 28  2  0
 29 32  1  0
 29 28  1  0
 30 29  2  0
 31 30  1  0
 31 26  2  0
 32 33  1  0
 33 34  1  0
 34 35  2  0
 36 35  1  0
 36 40  1  0
 37 36  2  0
 38 33  2  0
 38 37  1  0
 39 38  1  0
 41 42  1  0
 42 45  1  0
 42 44  1  0
 43 41  2  0
 46 21  1  0
 46 47  1  0
 48 46  1  0
 49  7  1  0
 49 50  1  0
 51 52  1  0
 51 50  2  0
 53 64  2  0
 54 52  1  0
 54 59  1  0
 55 63  1  0
 55 65  1  0
 56 62  1  0
 56 58  1  0
 57 63  1  0
 58 59  2  0
 58 57  1  0
 60 54  2  0
 61 60  1  0
 61 56  2  0
 62 55  1  0
 63 53  1  0
 65 67  2  0
 66 65  1  0
 68 66  1  0
 69 78  2  0
 69 74  1  0
 70 66  1  0
 70 74  1  0
 71 70  1  0
 72 73  1  0
 72 71  1  0
 73 69  1  0
 74 75  2  0
 75 76  1  0
 77 76  2  0
 78 77  1  0
 79 53  1  0
 79 84  1  0
 79 80  1  0
 80 83  1  1
 80 81  1  0
 82 80  1  0
 84 87  1  0
 85 89  1  0
 85 84  1  0
 86 85  2  0
 89 88  1  0
 91 89  1  0
 91 92  1  0
 91 90  1  0
M  ISO  4   9 100  18 100  51 101  52 101
M  END
>  <TORSDO>  (57) 
F 19

>  <SCORE>  (57) 
-13.779

>  <name>  (57) 
57

>  <ligand_id>  (57) 
57

>  <original_smiles>  (57) 
[H]c1c([H])c([H])c2c(c1[H])C([H])([H])C([H])([H])C([H])([H])C2([H])N([H])C(=O)C1([H])N(C(=O)C([H])(N([H])C(=O)C([H])(N([H])C([H])([H])[H])C([H])([H])[H])C(C([H])([H])[H])(C([H])([H])[H])C([H])([H])[H])C([H])([H])c2c([H])c(OC([H])([H])C([H])([H])C([H])([H])[N+]3([H])C4([H])C([H])([H])C([H])([H])C3([H])C([H])(C(=O)N([H])C(=O)N3C([H])([H])C([H])([H])C([H])([H])C([H])(n5nc(-c6c([H])c([H])c(Oc7c([H])c([H])c(F)c([H])c7F)c([H])c6[H])c(C(=O)N([H])[H])c5N([H])[H])C3([H])[H])C4([H])[H])c([H])c([H])c2C1([H])[H]

>  <smiles>  (57) 
[H]c1c([H])c([H])c2c(c1[H])C([H])([H])C([H])([H])C([H])([H])C2([H])N([H])C(=O)C1([H])N(C(=O)C([H])(N([H])C(=O)C([H])(N([H])C([H])([H])[H])C([H])([H])[H])C(C([H])([H])[H])(C([H])([H])[H])C([H])([H])[H])C([H])([H])c2c([H])c(OC([H])([H])C([H])([H])C([H])([H])[N+]3([H])C4([H])C([H])([H])C([H])([H])C3([H])C([H])(C(=O)N([H])C(=O)N3C([H])([H])C([H])([H])C([H])([H])C([H])(n5nc(-c6c([H])c([H])c(Oc7c([H])c([H])c(F)c([H])c7F)c([H])c6[H])c(C(=O)N([H])[H])c5N([H])[H])C3([H])[H])C4([H])[H])c([H])c([H])c2C1([H])[H]

$$$$
59:0:0
     RDKit          3D

 96105  0  0  1  0  0  0  0  0999 V2000
  -33.1490  -22.4730   21.2270 N   0  0  0  0  0  4  0  0  0  0  0  0
  -33.9550  -23.0780   21.2510 H   0  0  0  0  0  0  0  0  0  0  0  0
  -32.6700  -22.5960   22.1030 H   0  0  0  0  0  0  0  0  0  0  0  0
  -33.6730  -21.0920   21.1230 C   0  0  0  0  0  2  0  0  0  0  0  0
  -30.6300  -14.5390   20.1170 C   0  0  0  0  0  0  0  0  0  0  0  0
  -30.2320  -12.4440   18.9010 C   0  0  0  0  0  2  0  0  0  0  0  0
  -29.2300  -12.7190   17.7630 C   0  0  0  0  0  2  0  0  0  0  0  0
  -27.7820  -12.5660   18.2680 C   0  0  0  0  0  2  0  0  0  0  0  0
  -27.5180  -13.3470   19.5840 C   0  0  0  0  0  3  0  0  0  0  0  0
  -28.6340  -13.0820   20.6210 C   0  0  0  0  0  2  0  0  0  0  0  0
  -29.9270  -13.3840   19.9860 N   0  0  0  0  0  0  0  0  0  0  0  0
  -31.7440  -14.7060   19.6140 O   0  0  0  0  0  0  0  0  0  0  0  0
  -33.4040  -18.6250   21.7350 C   0  0  0  0  0  2  0  0  0  0  0  0
  -32.7220  -17.6580   20.7660 C   0  0  0  0  0  2  0  0  0  0  0  0
  -30.5680  -17.6820   19.3390 C   0  0  0  0  0  2  0  0  0  0  0  0
  -30.4280  -17.7150   21.8610 C   0  0  0  0  0  2  0  0  0  0  0  0
  -31.5160  -19.6830   20.6150 C   0  0  0  0  0  2  0  0  0  0  0  0
  -29.4950  -16.5930   19.5730 C   0  0  0  0  0  2  0  0  0  0  0  0
  -30.2050  -16.1780   21.8950 C   0  0  0  0  0  2  0  0  0  0  0  0
  -32.6880  -19.9820   21.5790 C   0  0  0  0  0  3  0  0  0  0  0  0
  -31.2730  -18.1610   20.6400 C   0  0  1  0  0  0  0  0  0  0  0  0
  -29.9220  -15.5990   20.5670 N   0  0  0  0  0  0  0  0  0  0  0  0
  -25.1440  -13.9150   20.3970 C   0  0  0  0  0  0  0  0  0  0  0  0
  -24.1060  -13.1240   20.8140 C   0  0  0  0  0  0  0  0  0  0  0  0
  -24.5900  -11.7810   20.7640 C   0  0  0  0  0  0  0  0  0  0  0  0
  -26.1930  -13.0500   20.1240 N   0  0  0  0  0  0  0  0  0  0  0  0
  -25.8660  -11.7630   20.4000 N   0  0  0  0  0  0  0  0  0  0  0  0
  -23.8960  -10.5060   20.9900 C   0  0  0  0  0  0  0  0  0  0  0  0
  -24.3670   -9.5680   21.9350 C   0  0  0  0  0  3  0  0  0  0  0  0
  -23.6730   -8.3560   22.1450 C   0  0  0  0  0  3  0  0  0  0  0  0
  -22.4970   -8.0740   21.4120 C   0  0  0  0  0  0  0  0  0  0  0  0
  -22.0470   -9.0020   20.4560 C   0  0  0  0  0  3  0  0  0  0  0  0
  -22.7390  -10.2060   20.2430 C   0  0  0  0  0  3  0  0  0  0  0  0
  -21.7730   -6.9130   21.5320 O   0  0  0  0  0  0  0  0  0  0  0  0
  -21.7400   -6.2060   22.7060 C   0  0  0  0  0  0  0  0  0  0  0  0
  -21.3020   -6.7880   23.9150 C   0  0  0  0  0  3  0  0  0  0  0  0
  -21.2140   -6.0050   25.0830 C   0  0  0  0  0  3  0  0  0  0  0  0
  -21.5550   -4.6400   25.0430 C   0  0  0  0  0  0  0  0  0  0  0  0
  -21.9870   -4.0570   23.8390 C   0  0  0  0  0  3  0  0  0  0  0  0
  -22.0750   -4.8370   22.6730 C   0  0  0  0  0  0  0  0  0  0  0  0
  -22.4710   -4.2660   21.5100 F   0  0  0  0  0  0  0  0  0  0  0  0
  -21.4650   -3.8840   26.1620 F   0  0  0  0  0  0  0  0  0  0  0  0
  -22.7140  -13.5760   21.1490 C   0  0  0  0  0  0  0  0  0  0  0  0
  -22.0430  -12.8740   22.0550 N   0  0  0  0  0  0  0  0  0  0  0  0
  -22.2310  -14.5890   20.6430 O   0  0  0  0  0  0  0  0  0  0  0  0
  -22.4480  -12.0560   22.4850 H   0  0  0  0  0  0  0  0  0  0  0  0
  -21.1120  -13.1580   22.3230 H   0  0  0  0  0  0  0  0  0  0  0  0
  -25.2770  -15.2860   20.2120 N   0  0  0  0  0  0  0  0  0  0  0  0
  -24.5110  -15.9330   20.3600 H   0  0  0  0  0  0  0  0  0  0  0  0
  -26.1210  -15.7370   19.8780 H   0  0  0  0  0  0  0  0  0  0  0  0
  -32.3100  -22.9410   20.1020 C   0  0  0  0  0  2  0  0  0  0  0  0
  -30.8840  -23.3030   20.5590 C   0  0  0  0  0  2  0  0  0  0  0  0
  -30.6750  -24.8160   20.7520 C   0  0  0  0  0  2  0  0  0  0  0  0
  -29.3600  -25.1520   21.4710 C   0  0  0  0  0  2  0  0  0  0  0  0
  -28.9760  -26.6370   21.3760 C   0  0  0  0  0  2  0  0  0  0  0  0
  -28.3560  -26.8580   20.1110 O   0  0  0  0  0  0  0  0  0  0  0  0
  -24.5220  -31.9780   23.2530 C   0  0  0  0  0  0  0  0  0  0  0  0
  -27.2000  -27.5960   20.1520 C   0  0  0  0  0  0  0  0  0  0  0  0
  -23.3190  -30.5660   21.6130 C   0  0  0  0  0  3  0  0  0  0  0  0
  -24.7810  -29.0440   20.1810 C   0  0  0  0  0  0  0  0  0  0  0  0
  -25.8340  -30.9570   21.4020 C   0  0  0  0  0  2  0  0  0  0  0  0
  -25.9290  -29.5870   20.7700 C   0  0  0  0  0  0  0  0  0  0  0  0
  -27.1400  -28.8660   20.7640 C   0  0  0  0  0  3  0  0  0  0  0  0
  -26.0450  -27.0650   19.5470 C   0  0  0  0  0  3  0  0  0  0  0  0
  -24.8300  -27.7780   19.5660 C   0  0  0  0  0  3  0  0  0  0  0  0
  -23.5270  -29.8860   20.2320 C   0  0  0  0  0  2  0  0  0  0  0  0
  -24.5770  -31.1820   22.1470 N   0  0  0  0  0  0  0  0  0  0  0  0
  -23.4420  -32.2390   23.7990 O   0  0  0  0  0  0  0  0  0  0  0  0
  -22.6810  -29.5390   22.5760 C   0  0  0  0  0  0  0  0  0  0  0  0
  -21.3580  -29.3450   22.4500 N   0  0  0  0  0  0  0  0  0  0  0  0
  -23.3710  -28.9190   23.3890 O   0  0  0  0  0  0  0  0  0  0  0  0
  -20.8620  -29.8960   21.7640 H   0  0  0  0  0  0  0  0  0  0  0  0
  -17.9940  -28.1300   22.9510 C   0  0  0  0  0  0  0  0  0  0  0  0
  -20.5500  -28.4010   23.2210 C   0  0  0  0  0  3  0  0  0  0  0  0
  -20.6610  -26.9730   22.6400 C   0  0  0  0  0  2  0  0  0  0  0  0
  -19.5600  -26.6460   21.6270 C   0  0  0  0  0  2  0  0  0  0  0  0
  -18.1780  -26.7820   22.2730 C   0  0  0  0  0  2  0  0  0  0  0  0
  -19.1090  -28.8970   23.3820 C   0  0  0  0  0  0  0  0  0  0  0  0
  -18.8840  -30.1570   23.9750 C   0  0  0  0  0  3  0  0  0  0  0  0
  -17.5770  -30.6530   24.1410 C   0  0  0  0  0  3  0  0  0  0  0  0
  -16.4760  -29.8830   23.7290 C   0  0  0  0  0  3  0  0  0  0  0  0
  -16.6850  -28.6220   23.1410 C   0  0  0  0  0  3  0  0  0  0  0  0
  -25.8080  -32.6140   23.8680 C   0  0  0  0  0  3  0  0  0  0  0  0
  -26.3330  -31.8500   25.1450 C   0  0  1  0  0  0  0  0  0  0  0  0
  -25.2450  -31.6080   26.2160 C   0  0  0  0  0  1  0  0  0  0  0  0
  -26.9200  -30.4740   24.7530 C   0  0  0  0  0  1  0  0  0  0  0  0
  -27.4820  -32.6510   25.8020 C   0  0  0  0  0  1  0  0  0  0  0  0
  -25.4990  -34.0140   24.1890 N   0  0  0  0  0  0  0  0  0  0  0  0
  -25.8440  -35.0610   23.4280 C   0  0  0  0  0  0  0  0  0  0  0  0
  -26.5280  -34.9510   22.4070 O   0  0  0  0  0  0  0  0  0  0  0  0
  -24.8930  -34.1720   24.9810 H   0  0  0  0  0  0  0  0  0  0  0  0
  -24.1310  -36.8570   23.0290 C   0  0  0  0  0  1  0  0  0  0  0  0
  -25.3510  -36.4510   23.8710 C   0  0  0  0  0  3  0  0  0  0  0  0
  -27.4700  -37.3270   24.7480 C   0  0  0  0  0  1  0  0  0  0  0  0
  -26.3900  -37.4990   23.7790 N   0  0  0  0  0  0  0  0  0  0  0  0
  -25.9850  -38.4220   23.9150 H   0  0  0  0  0  0  0  0  0  0  0  0
  1  2  1  0
  1  3  1  0
  4  1  1  0
  5 22  1  0
  6 11  1  0
  7  8  1  0
  7  6  1  0
  9  8  1  0
  9 26  1  0
  9 10  1  0
 11  5  1  0
 11 10  1  0
 12  5  2  0
 14 13  1  0
 15 18  1  0
 16 19  1  0
 21 17  1  6
 17 20  1  0
 18 22  1  0
 20  4  1  0
 20 13  1  0
 21 15  1  0
 21 14  1  0
 21 16  1  0
 22 19  1  0
 23 24  2  0
 24 43  1  0
 25 24  1  0
 25 28  1  0
 26 23  1  0
 26 27  1  0
 27 25  2  0
 28 29  1  0
 29 30  2  0
 31 34  1  0
 31 30  1  0
 32 31  2  0
 33 32  1  0
 33 28  2  0
 34 35  1  0
 35 36  1  0
 36 37  2  0
 38 37  1  0
 38 42  1  0
 39 38  2  0
 40 35  2  0
 40 39  1  0
 41 40  1  0
 43 44  1  0
 44 47  1  0
 44 46  1  0
 45 43  2  0
 48 49  1  0
 48 23  1  0
 50 48  1  0
 51 52  1  0
 51  1  1  0
 52 53  1  0
 53 54  1  0
 55 54  1  0
 56 58  1  0
 56 55  1  0
 57 68  2  0
 58 63  1  0
 59 67  1  0
 59 69  1  0
 60 66  1  0
 60 62  1  0
 61 67  1  0
 62 61  1  0
 63 62  2  0
 64 65  1  0
 64 58  2  0
 65 60  2  0
 66 59  1  0
 67 57  1  0
 69 71  2  0
 70 69  1  0
 72 70  1  0
 73 82  2  0
 73 78  1  0
 74 70  1  0
 74 78  1  0
 75 74  1  0
 76 77  1  0
 76 75  1  0
 77 73  1  0
 78 79  2  0
 79 80  1  0
 81 80  2  0
 82 81  1  0
 83 57  1  0
 83 88  1  0
 83 84  1  0
 84 87  1  1
 84 85  1  0
 86 84  1  0
 88 91  1  0
 89 93  1  0
 89 88  1  0
 90 89  2  0
 93 92  1  0
 95 93  1  0
 95 96  1  0
 95 94  1  0
M  ISO  4   5 100  22 100  55 101  56 101
M  END
>  <TORSDO>  (58) 
F 22

>  <SCORE>  (58) 
-11.957

>  <name>  (58) 
59

>  <ligand_id>  (58) 
59

>  <original_smiles>  (58) 
[H]c1c([H])c([H])c2c(c1[H])C([H])([H])C([H])([H])C([H])([H])C2([H])N([H])C(=O)C1([H])N(C(=O)C([H])(N([H])C(=O)C([H])(N([H])C([H])([H])[H])C([H])([H])[H])C(C([H])([H])[H])(C([H])([H])[H])C([H])([H])[H])C([H])([H])c2c([H])c(OC([H])([H])C([H])([H])C([H])([H])C([H])([H])C([H])([H])[N+]([H])([H])C([H])([H])C3([H])C([H])([H])C([H])([H])C4(C([H])([H])C([H])([H])N(C(=O)N5C([H])([H])C([H])([H])C([H])([H])C([H])(n6nc(-c7c([H])c([H])c(Oc8c([H])c([H])c(F)c([H])c8F)c([H])c7[H])c(C(=O)N([H])[H])c6N([H])[H])C5([H])[H])C([H])([H])C4([H])[H])C3([H])[H])c([H])c([H])c2C1([H])[H]

>  <smiles>  (58) 
[H]c1c([H])c([H])c2c(c1[H])C([H])([H])C([H])([H])C([H])([H])C2([H])N([H])C(=O)C1([H])N(C(=O)C([H])(N([H])C(=O)C([H])(N([H])C([H])([H])[H])C([H])([H])[H])C(C([H])([H])[H])(C([H])([H])[H])C([H])([H])[H])C([H])([H])c2c([H])c(OC([H])([H])C([H])([H])C([H])([H])C([H])([H])C([H])([H])[N+]([H])([H])C([H])([H])C3([H])C([H])([H])C([H])([H])C4(C([H])([H])C([H])([H])N(C(=O)N5C([H])([H])C([H])([H])C([H])([H])C([H])(n6nc(-c7c([H])c([H])c(Oc8c([H])c([H])c(F)c([H])c8F)c([H])c7[H])c(C(=O)N([H])[H])c6N([H])[H])C5([H])[H])C([H])([H])C4([H])[H])C3([H])[H])c([H])c([H])c2C1([H])[H]

$$$$
60:0:0
     RDKit          3D

102110  0  0  1  0  0  0  0  0999 V2000
  -31.7890  -20.8830   20.1760 C   0  0  0  0  0  2  0  0  0  0  0  0
  -29.2910  -20.6260   20.4590 C   0  0  0  0  0  2  0  0  0  0  0  0
  -31.9730  -19.3860   20.4640 C   0  0  0  0  0  2  0  0  0  0  0  0
  -29.4940  -19.1130   20.7170 C   0  0  0  0  0  2  0  0  0  0  0  0
  -30.5270  -21.4650   20.8350 C   0  0  0  0  0  3  0  0  0  0  0  0
  -30.7590  -18.5200   20.0370 C   0  0  1  0  0  0  0  0  0  0  0  0
  -30.5970  -18.5660   18.5690 N   0  0  0  0  0  4  0  0  0  0  0  0
  -30.5430  -19.5190   18.2510 H   0  0  0  0  0  0  0  0  0  0  0  0
  -29.7550  -18.0980   18.2850 H   0  0  0  0  0  0  0  0  0  0  0  0
  -31.3730  -18.1300   18.1020 H   0  0  0  0  0  0  0  0  0  0  0  0
  -30.3850  -22.9510   20.4390 C   0  0  0  0  0  2  0  0  0  0  0  0
  -29.3820  -23.7720   21.2700 C   0  0  0  0  0  2  0  0  0  0  0  0
  -28.1270  -24.2760   20.5290 C   0  0  0  0  0  2  0  0  0  0  0  0
  -28.0400  -25.6370   20.9240 O   0  0  0  0  0  0  0  0  0  0  0  0
  -24.6520  -31.3420   23.2980 C   0  0  0  0  0  0  0  0  0  0  0  0
  -26.8900  -26.3760   20.7840 C   0  0  0  0  0  0  0  0  0  0  0  0
  -23.3360  -29.9130   21.7590 C   0  0  0  0  0  3  0  0  0  0  0  0
  -24.6490  -28.0810   20.5560 C   0  0  0  0  0  0  0  0  0  0  0  0
  -25.8850  -29.9890   21.6110 C   0  0  0  0  0  2  0  0  0  0  0  0
  -25.8350  -28.5560   21.1260 C   0  0  0  0  0  0  0  0  0  0  0  0
  -26.9520  -27.7070   21.2380 C   0  0  0  0  0  3  0  0  0  0  0  0
  -25.6870  -25.8970   20.2160 C   0  0  0  0  0  3  0  0  0  0  0  0
  -24.5680  -26.7510   20.1020 C   0  0  0  0  0  3  0  0  0  0  0  0
  -23.5020  -29.0640   20.4660 C   0  0  0  0  0  2  0  0  0  0  0  0
  -24.6420  -30.4340   22.2800 N   0  0  0  0  0  0  0  0  0  0  0  0
  -23.5950  -31.7810   23.7710 O   0  0  0  0  0  0  0  0  0  0  0  0
  -22.5580  -29.0730   22.7960 C   0  0  0  0  0  0  0  0  0  0  0  0
  -21.2390  -28.9320   22.5790 N   0  0  0  0  0  0  0  0  0  0  0  0
  -23.1390  -28.5430   23.7470 O   0  0  0  0  0  0  0  0  0  0  0  0
  -20.8400  -29.3990   21.7780 H   0  0  0  0  0  0  0  0  0  0  0  0
  -17.7650  -28.0290   22.9700 C   0  0  0  0  0  0  0  0  0  0  0  0
  -20.3110  -28.1560   23.4000 C   0  0  0  0  0  3  0  0  0  0  0  0
  -20.3460  -26.6580   23.0170 C   0  0  0  0  0  2  0  0  0  0  0  0
  -19.2970  -26.2800   21.9660 C   0  0  0  0  0  2  0  0  0  0  0  0
  -17.8880  -26.5960   22.4790 C   0  0  0  0  0  2  0  0  0  0  0  0
  -18.9050  -28.7660   23.3870 C   0  0  0  0  0  0  0  0  0  0  0  0
  -18.7410  -30.1070   23.7980 C   0  0  0  0  0  3  0  0  0  0  0  0
  -17.4700  -30.7110   23.7970 C   0  0  0  0  0  3  0  0  0  0  0  0
  -16.3420  -29.9710   23.4030 C   0  0  0  0  0  3  0  0  0  0  0  0
  -16.4900  -28.6330   22.9960 C   0  0  0  0  0  3  0  0  0  0  0  0
  -25.9870  -31.8880   23.8970 C   0  0  0  0  0  3  0  0  0  0  0  0
  -26.5060  -31.0490   25.1280 C   0  0  1  0  0  0  0  0  0  0  0  0
  -25.4130  -30.7460   26.1790 C   0  0  0  0  0  1  0  0  0  0  0  0
  -27.0930  -29.6970   24.6580 C   0  0  0  0  0  1  0  0  0  0  0  0
  -27.6550  -31.8060   25.8360 C   0  0  0  0  0  1  0  0  0  0  0  0
  -25.7590  -33.2880   24.2810 N   0  0  0  0  0  0  0  0  0  0  0  0
  -26.1270  -34.3460   23.5470 C   0  0  0  0  0  0  0  0  0  0  0  0
  -26.7710  -34.2440   22.4990 O   0  0  0  0  0  0  0  0  0  0  0  0
  -25.1970  -33.4450   25.1060 H   0  0  0  0  0  0  0  0  0  0  0  0
  -24.4880  -36.2330   23.2760 C   0  0  0  0  0  1  0  0  0  0  0  0
  -25.7150  -35.7400   24.0580 C   0  0  0  0  0  3  0  0  0  0  0  0
  -27.9000  -36.4900   24.8910 C   0  0  0  0  0  1  0  0  0  0  0  0
  -26.7980  -36.7440   23.9670 N   0  0  0  0  0  0  0  0  0  0  0  0
  -26.4380  -37.6780   24.1480 H   0  0  0  0  0  0  0  0  0  0  0  0
  -30.9500  -17.0340   20.4760 C   0  0  0  0  0  2  0  0  0  0  0  0
  -32.0920  -16.2890   19.7440 C   0  0  0  0  0  2  0  0  0  0  0  0
  -32.2550  -14.7820   20.0500 C   0  0  0  0  0  3  0  0  0  0  0  0
  -31.0050  -13.2840   18.5030 C   0  0  0  0  0  0  0  0  0  0  0  0
  -29.9430  -11.3550   17.3870 C   0  0  0  0  0  2  0  0  0  0  0  0
  -28.7250  -11.7630   16.5410 C   0  0  0  0  0  2  0  0  0  0  0  0
  -27.4530  -11.8010   17.4080 C   0  0  0  0  0  2  0  0  0  0  0  0
  -27.6480  -12.6190   18.7100 C   0  0  0  0  0  3  0  0  0  0  0  0
  -28.9360  -12.1880   19.4440 C   0  0  0  0  0  2  0  0  0  0  0  0
  -30.0690  -12.3000   18.5060 N   0  0  0  0  0  0  0  0  0  0  0  0
  -31.7860  -13.4700   17.5650 O   0  0  0  0  0  0  0  0  0  0  0  0
  -31.1000  -13.9800   19.6430 N   0  0  0  0  0  0  0  0  0  0  0  0
  -30.4080  -13.7730   20.3470 H   0  0  0  0  0  0  0  0  0  0  0  0
  -25.7520  -13.5280   20.1960 C   0  0  0  0  0  0  0  0  0  0  0  0
  -24.7130  -12.9050   20.8350 C   0  0  0  0  0  0  0  0  0  0  0  0
  -24.8600  -11.5110   20.5610 C   0  0  0  0  0  0  0  0  0  0  0  0
  -26.4760  -12.5210   19.5790 N   0  0  0  0  0  0  0  0  0  0  0  0
  -25.9580  -11.2960   19.8490 N   0  0  0  0  0  0  0  0  0  0  0  0
  -23.9850  -10.3770   20.8850 C   0  0  0  0  0  0  0  0  0  0  0  0
  -24.4240   -9.3210   21.7140 C   0  0  0  0  0  3  0  0  0  0  0  0
  -23.5590   -8.2500   22.0260 C   0  0  0  0  0  3  0  0  0  0  0  0
  -22.2410   -8.2290   21.5130 C   0  0  0  0  0  0  0  0  0  0  0  0
  -21.8170   -9.2710   20.6680 C   0  0  0  0  0  3  0  0  0  0  0  0
  -22.6810  -10.3330   20.3530 C   0  0  0  0  0  3  0  0  0  0  0  0
  -21.3400   -7.2180   21.7410 O   0  0  0  0  0  0  0  0  0  0  0  0
  -21.3430   -6.5000   22.9100 C   0  0  0  0  0  0  0  0  0  0  0  0
  -21.1370   -7.1160   24.1640 C   0  0  0  0  0  3  0  0  0  0  0  0
  -21.0810   -6.3320   25.3340 C   0  0  0  0  0  3  0  0  0  0  0  0
  -21.2220   -4.9340   25.2520 C   0  0  0  0  0  0  0  0  0  0  0  0
  -21.4220   -4.3180   24.0040 C   0  0  0  0  0  3  0  0  0  0  0  0
  -21.4800   -5.0990   22.8360 C   0  0  0  0  0  0  0  0  0  0  0  0
  -21.6530   -4.4990   21.6340 F   0  0  0  0  0  0  0  0  0  0  0  0
  -21.1590   -4.1790   26.3740 F   0  0  0  0  0  0  0  0  0  0  0  0
  -23.5920  -13.5730   21.5790 C   0  0  0  0  0  0  0  0  0  0  0  0
  -23.0930  -12.9360   22.6350 N   0  0  0  0  0  0  0  0  0  0  0  0
  -23.1830  -14.6860   21.2540 O   0  0  0  0  0  0  0  0  0  0  0  0
  -23.4370  -12.0290   22.9100 H   0  0  0  0  0  0  0  0  0  0  0  0
  -22.3530  -13.3650   23.1730 H   0  0  0  0  0  0  0  0  0  0  0  0
  -26.1280  -14.8620   20.0730 N   0  0  0  0  0  0  0  0  0  0  0  0
  -25.5790  -15.6190   20.4680 H   0  0  0  0  0  0  0  0  0  0  0  0
  -26.9180  -15.1850   19.5280 H   0  0  0  0  0  0  0  0  0  0  0  0
  -32.6340  -14.4940   21.5160 C   0  0  0  0  0  2  0  0  0  0  0  0
  -32.5790  -12.9940   21.8750 C   0  0  0  0  0  2  0  0  0  0  0  0
  -33.4550  -12.6130   23.0860 C   0  0  0  0  0  2  0  0  0  0  0  0
  -34.8070  -12.1760   22.6960 N   0  0  0  0  0  4  0  0  0  0  0  0
  -34.7660  -11.3690   22.1010 H   0  0  0  0  0  0  0  0  0  0  0  0
  -35.3320  -11.9270   23.5160 H   0  0  0  0  0  0  0  0  0  0  0  0
  -35.3080  -12.9060   22.2220 H   0  0  0  0  0  0  0  0  0  0  0  0
  1  3  1  0
  1  5  1  0
  2  4  1  0
  2  5  1  0
  5 11  1  0
  6  3  1  0
  6 55  1  1
  6  4  1  0
  7  6  1  0
  8  7  1  0
  9  7  1  0
 10  7  1  0
 11 12  1  0
 13 14  1  0
 13 12  1  0
 15 26  2  0
 16 14  1  0
 16 21  1  0
 17 25  1  0
 17 27  1  0
 18 20  1  0
 19 25  1  0
 20 21  2  0
 20 19  1  0
 22 16  2  0
 23 22  1  0
 23 18  2  0
 24 18  1  0
 24 17  1  0
 25 15  1  0
 27 29  2  0
 28 27  1  0
 30 28  1  0
 31 40  2  0
 31 36  1  0
 32 28  1  0
 33 32  1  0
 34 35  1  0
 34 33  1  0
 35 31  1  0
 36 32  1  0
 36 37  2  0
 38 37  1  0
 39 38  2  0
 40 39  1  0
 41 15  1  0
 41 46  1  0
 41 42  1  0
 42 45  1  1
 42 43  1  0
 44 42  1  0
 46 49  1  0
 47 51  1  0
 47 46  1  0
 48 47  2  0
 51 50  1  0
 53 51  1  0
 53 54  1  0
 53 52  1  0
 56 55  1  0
 57 56  1  0
 57 96  1  0
 58 64  1  0
 58 66  1  0
 59 64  1  0
 60 59  1  0
 60 61  1  0
 62 61  1  0
 62 63  1  0
 62 71  1  0
 64 63  1  0
 65 58  2  0
 66 57  1  0
 66 67  1  0
 68 69  2  0
 69 88  1  0
 70 69  1  0
 70 73  1  0
 71 72  1  0
 71 68  1  0
 72 70  2  0
 73 74  1  0
 74 75  2  0
 76 79  1  0
 76 75  1  0
 77 76  2  0
 78 77  1  0
 78 73  2  0
 79 80  1  0
 80 81  1  0
 81 82  2  0
 83 82  1  0
 83 87  1  0
 84 83  2  0
 85 80  2  0
 85 84  1  0
 86 85  1  0
 88 89  1  0
 89 91  1  0
 89 92  1  0
 90 88  2  0
 93 68  1  0
 93 94  1  0
 95 93  1  0
 96 97  1  0
 97 98  1  0
 99 98  1  0
 99101  1  0
100 99  1  0
102 99  1  0
M  ISO  4  13 101  14 101  58 100  66 100
M  END
>  <TORSDO>  (59) 
F 27

>  <SCORE>  (59) 
-5.165

>  <name>  (59) 
60

>  <ligand_id>  (59) 
60

>  <original_smiles>  (59) 
[H]c1c([H])c([H])c2c(c1[H])C([H])([H])C([H])([H])C([H])([H])C2([H])N([H])C(=O)C1([H])N(C(=O)C([H])(N([H])C(=O)C([H])(N([H])C([H])([H])[H])C([H])([H])[H])C(C([H])([H])[H])(C([H])([H])[H])C([H])([H])[H])C([H])([H])c2c([H])c(OC([H])([H])C([H])([H])C([H])([H])C3([H])C([H])([H])C([H])([H])C(C([H])([H])C([H])([H])C([H])(N([H])C(=O)N4C([H])([H])C([H])([H])C([H])([H])C([H])(n5nc(-c6c([H])c([H])c(Oc7c([H])c([H])c(F)c([H])c7F)c([H])c6[H])c(C(=O)N([H])[H])c5N([H])[H])C4([H])[H])C([H])([H])C([H])([H])C([H])([H])[N+]([H])([H])[H])([N+]([H])([H])[H])C([H])([H])C3([H])[H])c([H])c([H])c2C1([H])[H]

>  <smiles>  (59) 
[H]c1c([H])c([H])c2c(c1[H])C([H])([H])C([H])([H])C([H])([H])C2([H])N([H])C(=O)C1([H])N(C(=O)C([H])(N([H])C(=O)C([H])(N([H])C([H])([H])[H])C([H])([H])[H])C(C([H])([H])[H])(C([H])([H])[H])C([H])([H])[H])C([H])([H])c2c([H])c(OC([H])([H])C([H])([H])C([H])([H])C3([H])C([H])([H])C([H])([H])C(C([H])([H])C([H])([H])C([H])(N([H])C(=O)N4C([H])([H])C([H])([H])C([H])([H])C([H])(n5nc(-c6c([H])c([H])c(Oc7c([H])c([H])c(F)c([H])c7F)c([H])c6[H])c(C(=O)N([H])[H])c5N([H])[H])C4([H])[H])C([H])([H])C([H])([H])C([H])([H])[N+]([H])([H])[H])([N+]([H])([H])[H])C([H])([H])C3([H])[H])c([H])c([H])c2C1([H])[H]

$$$$
61:0:0
     RDKit          3D

106115  0  0  1  0  0  0  0  0999 V2000
  -28.8600  -22.9280   19.9410 C   0  0  0  0  0  2  0  0  0  0  0  0
  -30.8330  -24.4800   20.2990 C   0  0  0  0  0  2  0  0  0  0  0  0
  -28.9830  -22.4900   21.4090 C   0  0  0  0  0  2  0  0  0  0  0  0
  -30.9460  -23.9410   21.7460 C   0  0  0  0  0  2  0  0  0  0  0  0
  -29.4050  -24.3520   19.7360 C   0  0  0  0  0  3  0  0  0  0  0  0
  -30.4580  -22.4690   21.9000 C   0  0  2  0  0  0  0  0  0  0  0  0
  -30.7240  -20.2310   20.6770 C   0  0  0  0  0  3  0  0  0  0  0  0
  -32.6460  -21.7150   20.7320 C   0  0  0  0  0  3  0  0  0  0  0  0
  -31.4400  -19.3320   19.8700 C   0  0  0  0  0  3  0  0  0  0  0  0
  -33.3640  -20.8210   19.9200 C   0  0  0  0  0  3  0  0  0  0  0  0
  -31.2970  -21.4600   21.0830 C   0  0  0  0  0  0  0  0  0  0  0  0
  -32.7540  -19.6370   19.4670 C   0  0  0  0  0  0  0  0  0  0  0  0
  -33.5020  -18.6960   18.5530 C   0  0  0  0  0  2  0  0  0  0  0  0
  -34.6910  -18.0240   19.2470 C   0  0  0  0  0  2  0  0  0  0  0  0
  -34.9210  -16.5970   18.7320 C   0  0  0  0  0  2  0  0  0  0  0  0
  -34.2700  -15.5000   19.5940 C   0  0  0  0  0  2  0  0  0  0  0  0
  -32.5900  -14.2290   18.2690 C   0  0  0  0  0  0  0  0  0  0  0  0
  -32.0040  -11.8650   18.4730 C   0  0  0  0  0  2  0  0  0  0  0  0
  -30.8830  -11.3250   17.5800 C   0  0  0  0  0  2  0  0  0  0  0  0
  -29.5200  -11.5390   18.2510 C   0  0  0  0  0  2  0  0  0  0  0  0
  -29.3120  -13.0090   18.7040 C   0  0  0  0  0  3  0  0  0  0  0  0
  -30.5220  -13.5300   19.5120 C   0  0  0  0  0  2  0  0  0  0  0  0
  -31.7590  -13.2830   18.7500 N   0  0  0  0  0  0  0  0  0  0  0  0
  -33.2870  -14.0880   17.2590 O   0  0  0  0  0  0  0  0  0  0  0  0
  -32.9060  -15.1080   19.2280 N   0  0  0  0  0  0  0  0  0  0  0  0
  -32.2470  -15.1220   19.9920 H   0  0  0  0  0  0  0  0  0  0  0  0
  -27.4600  -14.3060   19.9340 C   0  0  0  0  0  0  0  0  0  0  0  0
  -26.2640  -13.9090   20.4680 C   0  0  0  0  0  0  0  0  0  0  0  0
  -26.1900  -12.4960   20.2590 C   0  0  0  0  0  0  0  0  0  0  0  0
  -28.0580  -13.1570   19.4410 N   0  0  0  0  0  0  0  0  0  0  0  0
  -27.3050  -12.0560   19.6910 N   0  0  0  0  0  0  0  0  0  0  0  0
  -25.0990  -11.5480   20.5150 C   0  0  0  0  0  0  0  0  0  0  0  0
  -25.2860  -10.4110   21.3320 C   0  0  0  0  0  3  0  0  0  0  0  0
  -24.2160   -9.5230   21.5790 C   0  0  0  0  0  3  0  0  0  0  0  0
  -22.9440   -9.7710   21.0110 C   0  0  0  0  0  0  0  0  0  0  0  0
  -22.7690  -10.8910   20.1810 C   0  0  0  0  0  3  0  0  0  0  0  0
  -23.8370  -11.7700   19.9330 C   0  0  0  0  0  3  0  0  0  0  0  0
  -21.8530   -8.9510   21.1760 O   0  0  0  0  0  0  0  0  0  0  0  0
  -21.7780   -8.0550   22.2110 C   0  0  0  0  0  0  0  0  0  0  0  0
  -21.6740   -8.4720   23.5560 C   0  0  0  0  0  3  0  0  0  0  0  0
  -21.5300   -7.5180   24.5820 C   0  0  0  0  0  3  0  0  0  0  0  0
  -21.4800   -6.1480   24.2660 C   0  0  0  0  0  0  0  0  0  0  0  0
  -21.5750   -5.7280   22.9280 C   0  0  0  0  0  3  0  0  0  0  0  0
  -21.7230   -6.6800   21.9040 C   0  0  0  0  0  0  0  0  0  0  0  0
  -21.7940   -6.2720   20.6130 F   0  0  0  0  0  0  0  0  0  0  0  0
  -21.3330   -5.2310   25.2510 F   0  0  0  0  0  0  0  0  0  0  0  0
  -25.2040  -14.7950   21.0560 C   0  0  0  0  0  0  0  0  0  0  0  0
  -24.4850  -14.3070   22.0610 N   0  0  0  0  0  0  0  0  0  0  0  0
  -25.0420  -15.9480   20.6560 O   0  0  0  0  0  0  0  0  0  0  0  0
  -24.6300  -13.3680   22.3990 H   0  0  0  0  0  0  0  0  0  0  0  0
  -23.7780  -14.8810   22.5010 H   0  0  0  0  0  0  0  0  0  0  0  0
  -28.0800  -15.5460   19.8070 N   0  0  0  0  0  0  0  0  0  0  0  0
  -27.6380  -16.4070   20.1050 H   0  0  0  0  0  0  0  0  0  0  0  0
  -28.9700  -15.6900   19.3470 H   0  0  0  0  0  0  0  0  0  0  0  0
  -29.3170  -24.7280   18.2400 C   0  0  0  0  0  2  0  0  0  0  0  0
  -29.4290  -26.4410   16.3800 C   0  0  0  0  0  1  0  0  0  0  0  0
  -29.4920  -26.2250   17.9020 C   0  0  0  0  0  3  0  0  0  0  0  0
  -28.4820  -27.1360   18.6260 C   0  0  0  0  0  2  0  0  0  0  0  0
  -27.1630  -26.8690   18.1570 O   0  0  0  0  0  0  0  0  0  0  0  0
  -24.7760  -31.2930   23.2170 C   0  0  0  0  0  0  0  0  0  0  0  0
  -26.1610  -27.6700   18.6480 C   0  0  0  0  0  0  0  0  0  0  0  0
  -23.0990  -30.5360   21.5580 C   0  0  0  0  0  3  0  0  0  0  0  0
  -24.0330  -29.3060   19.5280 C   0  0  0  0  0  0  0  0  0  0  0  0
  -25.5700  -30.6850   20.9410 C   0  0  0  0  0  2  0  0  0  0  0  0
  -25.3350  -29.5390   19.9860 C   0  0  0  0  0  0  0  0  0  0  0  0
  -26.3970  -28.7250   19.5570 C   0  0  0  0  0  3  0  0  0  0  0  0
  -24.8460  -27.4440   18.1890 C   0  0  0  0  0  3  0  0  0  0  0  0
  -23.7780  -28.2510   18.6290 C   0  0  0  0  0  3  0  0  0  0  0  0
  -22.9580  -30.2390   20.0380 C   0  0  0  0  0  2  0  0  0  0  0  0
  -24.5120  -30.8320   21.9610 N   0  0  0  0  0  0  0  0  0  0  0  0
  -23.8610  -31.5150   24.0220 O   0  0  0  0  0  0  0  0  0  0  0  0
  -22.4720  -29.3640   22.3450 C   0  0  0  0  0  0  0  0  0  0  0  0
  -21.1320  -29.2840   22.3260 N   0  0  0  0  0  0  0  0  0  0  0  0
  -23.1820  -28.5390   22.9270 O   0  0  0  0  0  0  0  0  0  0  0  0
  -20.6220  -30.0010   21.8300 H   0  0  0  0  0  0  0  0  0  0  0  0
  -17.7660  -28.0200   22.6600 C   0  0  0  0  0  0  0  0  0  0  0  0
  -20.3230  -28.2450   22.9620 C   0  0  0  0  0  3  0  0  0  0  0  0
  -20.4310  -26.9090   22.1920 C   0  0  0  0  0  2  0  0  0  0  0  0
  -19.3270  -26.7260   21.1450 C   0  0  0  0  0  2  0  0  0  0  0  0
  -17.9470  -26.7760   21.8060 C   0  0  0  0  0  2  0  0  0  0  0  0
  -18.8830  -28.7180   23.1900 C   0  0  0  0  0  0  0  0  0  0  0  0
  -18.6630  -29.8890   23.9470 C   0  0  0  0  0  3  0  0  0  0  0  0
  -17.3570  -30.3610   24.1810 C   0  0  0  0  0  3  0  0  0  0  0  0
  -16.2540  -29.6550   23.6690 C   0  0  0  0  0  3  0  0  0  0  0  0
  -16.4600  -28.4870   22.9140 C   0  0  0  0  0  3  0  0  0  0  0  0
  -26.2350  -31.5820   23.6940 C   0  0  0  0  0  3  0  0  0  0  0  0
  -26.7960  -30.4880   24.6850 C   0  0  1  0  0  0  0  0  0  0  0  0
  -25.8730  -30.2170   25.8960 C   0  0  0  0  0  1  0  0  0  0  0  0
  -27.0160  -29.1470   23.9470 C   0  0  0  0  0  1  0  0  0  0  0  0
  -28.1770  -30.9300   25.2250 C   0  0  0  0  0  1  0  0  0  0  0  0
  -26.2380  -32.9080   24.3250 N   0  0  0  0  0  0  0  0  0  0  0  0
  -26.7900  -34.0040   23.7850 C   0  0  0  0  0  0  0  0  0  0  0  0
  -27.4200  -33.9840   22.7240 O   0  0  0  0  0  0  0  0  0  0  0  0
  -25.6920  -33.0090   25.1670 H   0  0  0  0  0  0  0  0  0  0  0  0
  -25.6000  -36.2180   23.8000 C   0  0  0  0  0  1  0  0  0  0  0  0
  -26.6120  -35.3320   24.5430 C   0  0  0  0  0  3  0  0  0  0  0  0
  -28.7970  -35.4190   25.6600 C   0  0  0  0  0  1  0  0  0  0  0  0
  -27.8780  -36.0740   24.7340 N   0  0  0  0  0  0  0  0  0  0  0  0
  -27.6970  -37.0140   25.0780 H   0  0  0  0  0  0  0  0  0  0  0  0
  -30.4540  -22.0520   23.3960 C   0  0  0  0  0  2  0  0  0  0  0  0
  -31.2590  -20.7840   23.7530 C   0  0  0  0  0  2  0  0  0  0  0  0
  -30.4500  -19.8050   24.6260 C   0  0  0  0  0  2  0  0  0  0  0  0
  -30.6440  -18.4020   24.2190 N   0  0  0  0  0  4  0  0  0  0  0  0
  -30.3550  -18.2660   23.2660 H   0  0  0  0  0  0  0  0  0  0  0  0
  -30.0910  -17.8000   24.8020 H   0  0  0  0  0  0  0  0  0  0  0  0
  -31.6060  -18.1300   24.3090 H   0  0  0  0  0  0  0  0  0  0  0  0
  1  3  1  0
  2  4  1  0
  3  6  1  0
  4  6  1  0
  5 55  1  0
  5  1  1  0
  5  2  1  0
  6100  1  1
  7 11  1  0
  8 11  2  0
  9  7  2  0
 10  8  1  0
 11  6  1  0
 12  9  1  0
 12 10  2  0
 13 14  1  0
 13 12  1  0
 15 14  1  0
 15 16  1  0
 17 23  1  0
 17 25  1  0
 18 23  1  0
 19 20  1  0
 19 18  1  0
 21 20  1  0
 21 30  1  0
 21 22  1  0
 23 22  1  0
 24 17  2  0
 25 16  1  0
 25 26  1  0
 27 28  2  0
 28 47  1  0
 29 28  1  0
 29 32  1  0
 30 31  1  0
 30 27  1  0
 31 29  2  0
 32 33  1  0
 33 34  2  0
 35 38  1  0
 35 34  1  0
 36 35  2  0
 37 36  1  0
 37 32  2  0
 38 39  1  0
 39 40  1  0
 40 41  2  0
 42 41  1  0
 42 46  1  0
 43 42  2  0
 44 39  2  0
 44 43  1  0
 45 44  1  0
 47 48  1  0
 48 50  1  0
 48 51  1  0
 49 47  2  0
 52 27  1  0
 52 53  1  0
 54 52  1  0
 57 56  1  0
 57 55  1  0
 57 58  1  0
 59 58  1  0
 59 61  1  0
 60 71  2  0
 61 66  1  0
 62 70  1  0
 62 72  1  0
 63 65  1  0
 63 69  1  0
 64 70  1  0
 65 64  1  0
 66 65  2  0
 67 68  1  0
 67 61  2  0
 68 63  2  0
 69 62  1  0
 70 60  1  0
 72 74  2  0
 73 72  1  0
 75 73  1  0
 76 85  2  0
 76 81  1  0
 77 73  1  0
 77 81  1  0
 78 77  1  0
 79 80  1  0
 79 78  1  0
 80 76  1  0
 81 82  2  0
 82 83  1  0
 84 83  2  0
 85 84  1  0
 86 60  1  0
 86 91  1  0
 86 87  1  0
 87 90  1  1
 87 88  1  0
 89 87  1  0
 91 94  1  0
 92 91  1  0
 92 96  1  0
 93 92  2  0
 96 95  1  0
 96 98  1  0
 98 99  1  0
 98 97  1  0
100101  1  0
101102  1  0
103106  1  0
103102  1  0
103105  1  0
104103  1  0
M  ISO  4  17 100  25 100  58 101  59 101
M  END
>  <TORSDO>  (60) 
F 28

>  <SCORE>  (60) 
-7.419

>  <name>  (60) 
61

>  <ligand_id>  (60) 
61

>  <original_smiles>  (60) 
[H]c1c([H])c([H])c2c(c1[H])C([H])([H])C([H])([H])C([H])([H])C2([H])N([H])C(=O)C1([H])N(C(=O)C([H])(N([H])C(=O)C([H])(N([H])C([H])([H])[H])C([H])([H])[H])C(C([H])([H])[H])(C([H])([H])[H])C([H])([H])[H])C([H])([H])c2c([H])c(OC([H])([H])C([H])(C([H])([H])[H])C([H])([H])C3([H])C([H])([H])C([H])([H])C(c4c([H])c([H])c(C([H])([H])C([H])([H])C([H])([H])C([H])([H])N([H])C(=O)N5C([H])([H])C([H])([H])C([H])([H])C([H])(n6nc(-c7c([H])c([H])c(Oc8c([H])c([H])c(F)c([H])c8F)c([H])c7[H])c(C(=O)N([H])[H])c6N([H])[H])C5([H])[H])c([H])c4[H])(C([H])([H])C([H])([H])C([H])([H])[N+]([H])([H])[H])C([H])([H])C3([H])[H])c([H])c([H])c2C1([H])[H]

>  <smiles>  (60) 
[H]c1c([H])c([H])c2c(c1[H])C([H])([H])C([H])([H])C([H])([H])C2([H])N([H])C(=O)C1([H])N(C(=O)C([H])(N([H])C(=O)C([H])(N([H])C([H])([H])[H])C([H])([H])[H])C(C([H])([H])[H])(C([H])([H])[H])C([H])([H])[H])C([H])([H])c2c([H])c(OC([H])([H])C([H])(C([H])([H])[H])C([H])([H])C3([H])C([H])([H])C([H])([H])C(c4c([H])c([H])c(C([H])([H])C([H])([H])C([H])([H])C([H])([H])N([H])C(=O)N5C([H])([H])C([H])([H])C([H])([H])C([H])(n6nc(-c7c([H])c([H])c(Oc8c([H])c([H])c(F)c([H])c8F)c([H])c7[H])c(C(=O)N([H])[H])c6N([H])[H])C5([H])[H])c([H])c4[H])(C([H])([H])C([H])([H])C([H])([H])[N+]([H])([H])[H])C([H])([H])C3([H])[H])c([H])c([H])c2C1([H])[H]

$$$$
62:0:0
     RDKit          3D

 91101  0  0  1  0  0  0  0  0999 V2000
  -28.7860  -22.4580   20.1540 N   0  0  0  0  0  4  0  0  0  0  0  0
  -28.6840  -22.4620   21.1560 H   0  0  0  0  0  0  0  0  0  0  0  0
  -27.8560  -22.3390   19.7800 H   0  0  0  0  0  0  0  0  0  0  0  0
  -29.2180  -20.0660   21.9960 C   0  0  0  0  0  2  0  0  0  0  0  0
  -30.9120  -20.9740   20.4390 C   0  0  0  0  0  2  0  0  0  0  0  0
  -30.6130  -19.7940   21.3990 C   0  0  1  0  0  0  0  0  0  0  0  0
  -28.9350  -19.8680   20.4800 C   0  0  1  0  0  0  0  0  0  0  0  0
  -29.8730  -18.5760   20.7500 C   0  0  0  0  0  3  0  0  0  0  0  0
  -29.5280  -21.1560   19.7880 C   0  0  0  0  0  3  0  0  0  0  0  0
  -30.5780  -17.5380   19.7600 C   0  0  0  0  0  2  0  0  0  0  0  0
  -31.1690  -14.9650   19.8180 C   0  0  0  0  0  0  0  0  0  0  0  0
  -30.9400  -12.6620   18.8880 C   0  0  0  0  0  2  0  0  0  0  0  0
  -29.9210  -12.6980   17.7260 C   0  0  0  0  0  2  0  0  0  0  0  0
  -28.4840  -12.5240   18.2580 C   0  0  0  0  0  2  0  0  0  0  0  0
  -28.1810  -13.4430   19.4710 C   0  0  0  0  0  3  0  0  0  0  0  0
  -29.3110  -13.3870   20.5260 C   0  0  0  0  0  2  0  0  0  0  0  0
  -30.5670  -13.7290   19.8440 N   0  0  0  0  0  0  0  0  0  0  0  0
  -32.3080  -15.0990   19.3640 O   0  0  0  0  0  0  0  0  0  0  0  0
  -30.3800  -16.0630   20.0970 N   0  0  0  0  0  0  0  0  0  0  0  0
  -29.4700  -15.8270   20.4600 H   0  0  0  0  0  0  0  0  0  0  0  0
  -25.8720  -14.0420   20.4200 C   0  0  0  0  0  0  0  0  0  0  0  0
  -24.8220  -13.2690   20.8350 C   0  0  0  0  0  0  0  0  0  0  0  0
  -25.2490  -11.9130   20.6920 C   0  0  0  0  0  0  0  0  0  0  0  0
  -26.8730  -13.1570   20.0530 N   0  0  0  0  0  0  0  0  0  0  0  0
  -26.5090  -11.8680   20.2770 N   0  0  0  0  0  0  0  0  0  0  0  0
  -24.5090  -10.6560   20.8730 C   0  0  0  0  0  0  0  0  0  0  0  0
  -24.8740   -9.7210   21.8680 C   0  0  0  0  0  3  0  0  0  0  0  0
  -24.1380   -8.5290   22.0330 C   0  0  0  0  0  3  0  0  0  0  0  0
  -23.0230   -8.2620   21.2040 C   0  0  0  0  0  0  0  0  0  0  0  0
  -22.6780   -9.1840   20.2000 C   0  0  0  0  0  3  0  0  0  0  0  0
  -23.4150  -10.3690   20.0320 C   0  0  0  0  0  3  0  0  0  0  0  0
  -22.2640   -7.1190   21.2770 O   0  0  0  0  0  0  0  0  0  0  0  0
  -21.9690   -6.5260   22.4780 C   0  0  0  0  0  0  0  0  0  0  0  0
  -21.2650   -7.2090   23.4930 C   0  0  0  0  0  3  0  0  0  0  0  0
  -20.9230   -6.5390   24.6850 C   0  0  0  0  0  3  0  0  0  0  0  0
  -21.2750   -5.1870   24.8610 C   0  0  0  0  0  0  0  0  0  0  0  0
  -21.9710   -4.5040   23.8480 C   0  0  0  0  0  3  0  0  0  0  0  0
  -22.3150   -5.1720   22.6590 C   0  0  0  0  0  0  0  0  0  0  0  0
  -22.9670   -4.5030   21.6780 F   0  0  0  0  0  0  0  0  0  0  0  0
  -20.9390   -4.5410   26.0010 F   0  0  0  0  0  0  0  0  0  0  0  0
  -23.4630  -13.7570   21.2470 C   0  0  0  0  0  0  0  0  0  0  0  0
  -22.8080  -13.0440   22.1570 N   0  0  0  0  0  0  0  0  0  0  0  0
  -22.9960  -14.8030   20.7980 O   0  0  0  0  0  0  0  0  0  0  0  0
  -23.2010  -12.1980   22.5380 H   0  0  0  0  0  0  0  0  0  0  0  0
  -21.8990  -13.3490   22.4760 H   0  0  0  0  0  0  0  0  0  0  0  0
  -26.0530  -15.4170   20.3000 N   0  0  0  0  0  0  0  0  0  0  0  0
  -25.3070  -16.0770   20.4880 H   0  0  0  0  0  0  0  0  0  0  0  0
  -26.8750  -15.8540   19.9000 H   0  0  0  0  0  0  0  0  0  0  0  0
  -29.2370  -23.8660   19.7260 C   0  0  0  0  0  3  0  0  0  0  0  0
  -28.2270  -25.0680   20.1150 C   0  0  0  0  0  3  0  0  0  0  0  0
  -28.4860  -26.5310   19.8550 O   0  0  0  0  0  0  0  0  0  0  0  0
  -24.6610  -31.7230   23.2180 C   0  0  0  0  0  0  0  0  0  0  0  0
  -27.3740  -27.4060   19.8700 C   0  0  0  0  0  0  0  0  0  0  0  0
  -23.4940  -30.4050   21.4920 C   0  0  0  0  0  3  0  0  0  0  0  0
  -24.9800  -28.9910   19.9650 C   0  0  0  0  0  0  0  0  0  0  0  0
  -26.0290  -30.7870   21.3330 C   0  0  0  0  0  2  0  0  0  0  0  0
  -26.1410  -29.4540   20.5980 C   0  0  0  0  0  0  0  0  0  0  0  0
  -27.3420  -28.6730   20.5460 C   0  0  0  0  0  3  0  0  0  0  0  0
  -26.1950  -27.0320   19.1860 C   0  0  0  0  0  3  0  0  0  0  0  0
  -25.0120  -27.7870   19.2500 C   0  0  0  0  0  3  0  0  0  0  0  0
  -23.7240  -29.8330   20.0700 C   0  0  0  0  0  2  0  0  0  0  0  0
  -24.7460  -30.9880   22.0710 N   0  0  0  0  0  0  0  0  0  0  0  0
  -23.5710  -31.9360   23.7690 O   0  0  0  0  0  0  0  0  0  0  0  0
  -22.8580  -29.3090   22.3820 C   0  0  0  0  0  0  0  0  0  0  0  0
  -21.5440  -29.0820   22.2200 N   0  0  0  0  0  0  0  0  0  0  0  0
  -23.5490  -28.6690   23.1800 O   0  0  0  0  0  0  0  0  0  0  0  0
  -21.0460  -29.6510   21.5520 H   0  0  0  0  0  0  0  0  0  0  0  0
  -18.2180  -27.6940   22.5700 C   0  0  0  0  0  0  0  0  0  0  0  0
  -20.7520  -28.0710   22.9250 C   0  0  0  0  0  3  0  0  0  0  0  0
  -20.9440  -26.6740   22.2920 C   0  0  0  0  0  2  0  0  0  0  0  0
  -19.8870  -26.3400   21.2360 C   0  0  0  0  0  2  0  0  0  0  0  0
  -18.4820  -26.3870   21.8440 C   0  0  0  0  0  2  0  0  0  0  0  0
  -19.2840  -28.4920   23.0650 C   0  0  0  0  0  0  0  0  0  0  0  0
  -18.9840  -29.7140   23.7050 C   0  0  0  0  0  3  0  0  0  0  0  0
  -17.6500  -30.1390   23.8560 C   0  0  0  0  0  3  0  0  0  0  0  0
  -16.5980  -29.3370   23.3780 C   0  0  0  0  0  3  0  0  0  0  0  0
  -16.8840  -28.1160   22.7400 C   0  0  0  0  0  3  0  0  0  0  0  0
  -25.9240  -32.3500   23.8810 C   0  0  0  0  0  3  0  0  0  0  0  0
  -26.4660  -31.5070   25.1010 C   0  0  1  0  0  0  0  0  0  0  0  0
  -25.3800  -31.1580   26.1470 C   0  0  0  0  0  1  0  0  0  0  0  0
  -27.0950  -30.1810   24.6150 C   0  0  0  0  0  1  0  0  0  0  0  0
  -27.5930  -32.2920   25.8120 C   0  0  0  0  0  1  0  0  0  0  0  0
  -25.5720  -33.7110   24.3070 N   0  0  0  0  0  0  0  0  0  0  0  0
  -25.8800  -34.8270   23.6310 C   0  0  0  0  0  0  0  0  0  0  0  0
  -26.5600  -34.8160   22.6020 O   0  0  0  0  0  0  0  0  0  0  0  0
  -24.9640  -33.7900   25.1100 H   0  0  0  0  0  0  0  0  0  0  0  0
  -24.1160  -36.6070   23.3870 C   0  0  0  0  0  1  0  0  0  0  0  0
  -25.3520  -36.1640   24.1860 C   0  0  0  0  0  3  0  0  0  0  0  0
  -27.4470  -37.0320   25.1300 C   0  0  0  0  0  1  0  0  0  0  0  0
  -26.3630  -37.2440   24.1740 N   0  0  0  0  0  0  0  0  0  0  0  0
  -25.9340  -38.1440   24.3750 H   0  0  0  0  0  0  0  0  0  0  0  0
  1  2  1  0
  3  1  1  0
  6  5  1  6
  6  4  1  0
  7  8  1  0
  7  6  1  0
  7  4  1  1
  8 10  1  0
  8  6  1  0
  9  1  1  0
  9  5  1  0
  9  7  1  0
 10 19  1  0
 11 17  1  0
 11 19  1  0
 12 17  1  0
 13 14  1  0
 13 12  1  0
 15 14  1  0
 15 24  1  0
 15 16  1  0
 17 16  1  0
 18 11  2  0
 19 20  1  0
 21 22  2  0
 22 41  1  0
 23 22  1  0
 23 26  1  0
 24 25  1  0
 24 21  1  0
 25 23  2  0
 26 27  1  0
 27 28  2  0
 29 32  1  0
 29 28  1  0
 30 29  2  0
 31 30  1  0
 31 26  2  0
 32 33  1  0
 33 38  2  0
 33 34  1  0
 34 35  2  0
 35 36  1  0
 36 40  1  0
 37 36  2  0
 38 37  1  0
 39 38  1  0
 41 42  1  0
 42 45  1  0
 42 44  1  0
 43 41  2  0
 46 21  1  0
 46 47  1  0
 48 46  1  0
 49 50  2  0
 49  1  1  0
 51 53  1  0
 51 50  1  0
 52 63  2  0
 53 58  1  0
 54 62  1  0
 54 64  1  0
 55 61  1  0
 55 57  1  0
 56 62  1  0
 57 56  1  0
 58 57  2  0
 59 60  1  0
 59 53  2  0
 60 55  2  0
 61 54  1  0
 62 52  1  0
 64 66  2  0
 65 64  1  0
 67 65  1  0
 68 77  2  0
 68 73  1  0
 69 65  1  0
 69 73  1  0
 70 69  1  0
 71 72  1  0
 71 70  1  0
 72 68  1  0
 73 74  2  0
 74 75  1  0
 76 75  2  0
 77 76  1  0
 78 52  1  0
 78 83  1  0
 78 79  1  0
 79 82  1  1
 79 80  1  0
 81 79  1  0
 83 86  1  0
 84 88  1  0
 84 83  1  0
 85 84  2  0
 88 87  1  0
 90 88  1  0
 90 91  1  0
 90 89  1  0
M  ISO  4  11 100  19 100  50 101  51 101
M  END
>  <TORSDO>  (61) 
F 20

>  <SCORE>  (61) 
-11.629

>  <name>  (61) 
62

>  <ligand_id>  (61) 
62

>  <original_smiles>  (61) 
[H]c1c([H])c([H])c2c(c1[H])C([H])([H])C([H])([H])C([H])([H])C2([H])N([H])C(=O)C1([H])N(C(=O)C([H])(N([H])C(=O)C([H])(N([H])C([H])([H])[H])C([H])([H])[H])C(C([H])([H])[H])(C([H])([H])[H])C([H])([H])[H])C([H])([H])c2c([H])c(OC([H])([H])C([H])([H])[N+]([H])([H])C3([H])C([H])([H])C4([H])C([H])([H])C3([H])C4([H])C([H])([H])N([H])C(=O)N3C([H])([H])C([H])([H])C([H])([H])C([H])(n4nc(-c5c([H])c([H])c(Oc6c([H])c([H])c(F)c([H])c6F)c([H])c5[H])c(C(=O)N([H])[H])c4N([H])[H])C3([H])[H])c([H])c([H])c2C1([H])[H]

>  <smiles>  (61) 
[H]c1c([H])c([H])c2c(c1[H])C([H])([H])C([H])([H])C([H])([H])C2([H])N([H])C(=O)C1([H])N(C(=O)C([H])(N([H])C(=O)C([H])(N([H])C([H])([H])[H])C([H])([H])[H])C(C([H])([H])[H])(C([H])([H])[H])C([H])([H])[H])C([H])([H])c2c([H])c(OC([H])([H])C([H])([H])[N+]([H])([H])C3([H])C([H])([H])C4([H])C([H])([H])C3([H])C4([H])C([H])([H])N([H])C(=O)N3C([H])([H])C([H])([H])C([H])([H])C([H])(n4nc(-c5c([H])c([H])c(Oc6c([H])c([H])c(F)c([H])c6F)c([H])c5[H])c(C(=O)N([H])[H])c4N([H])[H])C3([H])[H])c([H])c([H])c2C1([H])[H]

$$$$
63:0:0
     RDKit          3D

 97106  0  0  1  0  0  0  0  0999 V2000
  -30.4960  -23.6670   17.8940 C   0  0  0  0  0  3  0  0  0  0  0  0
  -31.0760  -22.8350   18.7790 C   0  0  0  0  0  0  0  0  0  0  0  0
  -30.5650  -25.1700   18.0080 C   0  0  0  0  0  2  0  0  0  0  0  0
  -32.0270  -23.3590   19.8610 C   0  0  0  0  0  2  0  0  0  0  0  0
  -32.1430  -24.8910   19.9270 C   0  0  0  0  0  2  0  0  0  0  0  0
  -30.8410  -25.5540   19.4710 C   0  0  0  0  0  3  0  0  0  0  0  0
  -30.6470  -20.6990   17.5140 C   0  0  0  0  0  3  0  0  0  0  0  0
  -30.3520  -20.7950   19.9400 C   0  0  0  0  0  3  0  0  0  0  0  0
  -30.1720  -19.3730   17.5140 C   0  0  0  0  0  3  0  0  0  0  0  0
  -29.8750  -19.4810   19.9400 C   0  0  0  0  0  3  0  0  0  0  0  0
  -30.7360  -21.4100   18.7320 C   0  0  0  0  0  0  0  0  0  0  0  0
  -29.7910  -18.7720   18.7330 C   0  0  0  0  0  0  0  0  0  0  0  0
  -29.3600  -17.3350   18.8070 C   0  0  0  0  0  2  0  0  0  0  0  0
  -30.5500  -16.4660   19.2580 C   0  0  0  0  0  3  0  0  0  0  0  0
  -30.6990  -14.5650   20.8850 C   0  0  0  0  0  0  0  0  0  0  0  0
  -30.5310  -12.3170   20.0580 C   0  0  0  0  0  2  0  0  0  0  0  0
  -29.7130  -12.4250   18.7510 C   0  0  0  0  0  2  0  0  0  0  0  0
  -28.2040  -12.3220   19.0460 C   0  0  0  0  0  2  0  0  0  0  0  0
  -27.7320  -13.2540   20.1950 C   0  0  0  0  0  3  0  0  0  0  0  0
  -28.6850  -13.1780   21.4120 C   0  0  0  0  0  2  0  0  0  0  0  0
  -30.0700  -13.3760   20.9540 N   0  0  0  0  0  0  0  0  0  0  0  0
  -31.9010  -14.7470   21.0650 O   0  0  0  0  0  0  0  0  0  0  0  0
  -30.0200  -15.3920   20.0900 N   0  0  0  0  0  0  0  0  0  0  0  0
  -29.0760  -15.1000   19.8950 H   0  0  0  0  0  0  0  0  0  0  0  0
  -25.2770  -13.8690   20.6680 C   0  0  0  0  0  0  0  0  0  0  0  0
  -24.1850  -13.0960   20.9570 C   0  0  0  0  0  0  0  0  0  0  0  0
  -24.6600  -11.7500   21.0180 C   0  0  0  0  0  0  0  0  0  0  0  0
  -26.3450  -12.9890   20.5660 N   0  0  0  0  0  0  0  0  0  0  0  0
  -25.9720  -11.7150   20.8410 N   0  0  0  0  0  0  0  0  0  0  0  0
  -23.9350  -10.4850   21.1750 C   0  0  0  0  0  0  0  0  0  0  0  0
  -24.3190   -9.5330   22.1440 C   0  0  0  0  0  3  0  0  0  0  0  0
  -23.5990   -8.3290   22.2880 C   0  0  0  0  0  3  0  0  0  0  0  0
  -22.4790   -8.0700   21.4600 C   0  0  0  0  0  0  0  0  0  0  0  0
  -22.1210   -9.0100   20.4770 C   0  0  0  0  0  3  0  0  0  0  0  0
  -22.8430  -10.2050   20.3330 C   0  0  0  0  0  3  0  0  0  0  0  0
  -21.7280   -6.9230   21.5150 O   0  0  0  0  0  0  0  0  0  0  0  0
  -21.6340   -6.1810   22.6640 C   0  0  0  0  0  0  0  0  0  0  0  0
  -21.1640   -6.7370   23.8740 C   0  0  0  0  0  3  0  0  0  0  0  0
  -21.0170   -5.9210   25.0130 C   0  0  0  0  0  3  0  0  0  0  0  0
  -21.3260   -4.5470   24.9400 C   0  0  0  0  0  0  0  0  0  0  0  0
  -21.7850   -3.9910   23.7320 C   0  0  0  0  0  3  0  0  0  0  0  0
  -21.9360   -4.8070   22.5970 C   0  0  0  0  0  0  0  0  0  0  0  0
  -22.3590   -4.2600   21.4310 F   0  0  0  0  0  0  0  0  0  0  0  0
  -21.1780   -3.7600   26.0310 F   0  0  0  0  0  0  0  0  0  0  0  0
  -22.7640  -13.5630   21.0750 C   0  0  0  0  0  0  0  0  0  0  0  0
  -21.9700  -12.8830   21.8930 N   0  0  0  0  0  0  0  0  0  0  0  0
  -22.3650  -14.5610   20.4770 O   0  0  0  0  0  0  0  0  0  0  0  0
  -22.3120  -12.0700   22.3860 H   0  0  0  0  0  0  0  0  0  0  0  0
  -21.0110  -13.1720   22.0290 H   0  0  0  0  0  0  0  0  0  0  0  0
  -25.4530  -15.2360   20.4640 N   0  0  0  0  0  0  0  0  0  0  0  0
  -24.6880  -15.8990   20.4970 H   0  0  0  0  0  0  0  0  0  0  0  0
  -26.3380  -15.6610   20.2200 H   0  0  0  0  0  0  0  0  0  0  0  0
  -32.7100  -15.3400   18.2370 C   0  0  0  0  0  1  0  0  0  0  0  0
  -31.3310  -15.9760   18.0040 C   0  0  0  0  0  2  0  0  0  0  0  0
  -30.8340  -27.0620   19.7150 C   0  0  0  0  0  2  0  0  0  0  0  0
  -29.4780  -27.7050   19.4120 C   0  0  0  0  0  2  0  0  0  0  0  0
  -28.4070  -26.9190   19.9560 O   0  0  0  0  0  0  0  0  0  0  0  0
  -24.5490  -31.9150   23.1830 C   0  0  0  0  0  0  0  0  0  0  0  0
  -27.2090  -27.5790   20.0480 C   0  0  0  0  0  0  0  0  0  0  0  0
  -23.3200  -30.5020   21.5570 C   0  0  0  0  0  3  0  0  0  0  0  0
  -24.7660  -28.9790   20.1080 C   0  0  0  0  0  0  0  0  0  0  0  0
  -25.8240  -30.9070   21.3080 C   0  0  0  0  0  2  0  0  0  0  0  0
  -25.9130  -29.5390   20.6790 C   0  0  0  0  0  0  0  0  0  0  0  0
  -27.1270  -28.8380   20.6720 C   0  0  0  0  0  3  0  0  0  0  0  0
  -26.0470  -26.9990   19.4990 C   0  0  0  0  0  3  0  0  0  0  0  0
  -24.8210  -27.6980   19.5230 C   0  0  0  0  0  3  0  0  0  0  0  0
  -23.5060  -29.8110   20.1750 C   0  0  0  0  0  2  0  0  0  0  0  0
  -24.5820  -31.1210   22.0750 N   0  0  0  0  0  0  0  0  0  0  0  0
  -23.4770  -32.1770   23.7450 O   0  0  0  0  0  0  0  0  0  0  0  0
  -22.7020  -29.4730   22.5300 C   0  0  0  0  0  0  0  0  0  0  0  0
  -21.3790  -29.2810   22.4250 N   0  0  0  0  0  0  0  0  0  0  0  0
  -23.4080  -28.8490   23.3270 O   0  0  0  0  0  0  0  0  0  0  0  0
  -20.8710  -29.8370   21.7500 H   0  0  0  0  0  0  0  0  0  0  0  0
  -18.0210  -28.0720   22.9610 C   0  0  0  0  0  0  0  0  0  0  0  0
  -20.5800  -28.3370   23.2040 C   0  0  0  0  0  3  0  0  0  0  0  0
  -20.6830  -26.9100   22.6190 C   0  0  0  0  0  2  0  0  0  0  0  0
  -19.5680  -26.5860   21.6180 C   0  0  0  0  0  2  0  0  0  0  0  0
  -18.1950  -26.7250   22.2800 C   0  0  0  0  0  2  0  0  0  0  0  0
  -19.1430  -28.8370   23.3770 C   0  0  0  0  0  0  0  0  0  0  0  0
  -18.9280  -30.1020   23.9680 C   0  0  0  0  0  3  0  0  0  0  0  0
  -17.6260  -30.6010   24.1490 C   0  0  0  0  0  3  0  0  0  0  0  0
  -16.5180  -29.8300   23.7530 C   0  0  0  0  0  3  0  0  0  0  0  0
  -16.7170  -28.5680   23.1650 C   0  0  0  0  0  3  0  0  0  0  0  0
  -25.8470  -32.5470   23.7790 C   0  0  0  0  0  3  0  0  0  0  0  0
  -25.5340  -33.9350   24.1390 N   0  0  0  0  0  0  0  0  0  0  0  0
  -25.8460  -35.0020   23.3930 C   0  0  0  0  0  0  0  0  0  0  0  0
  -26.5020  -34.9240   22.3500 O   0  0  0  0  0  0  0  0  0  0  0  0
  -24.9470  -34.0700   24.9490 H   0  0  0  0  0  0  0  0  0  0  0  0
  -24.0960  -36.7800   23.0870 C   0  0  0  0  0  1  0  0  0  0  0  0
  -25.3490  -36.3760   23.8800 C   0  0  0  0  0  3  0  0  0  0  0  0
  -27.4850  -37.2610   24.7010 C   0  0  0  0  0  1  0  0  0  0  0  0
  -26.3680  -37.4420   23.7770 N   0  0  0  0  0  0  0  0  0  0  0  0
  -25.9550  -38.3540   23.9530 H   0  0  0  0  0  0  0  0  0  0  0  0
  -26.4100  -31.7580   25.0250 C   0  0  1  0  0  0  0  0  0  0  0  0
  -25.3480  -31.4890   26.1160 C   0  0  0  0  0  1  0  0  0  0  0  0
  -27.0010  -30.3960   24.5880 C   0  0  0  0  0  1  0  0  0  0  0  0
  -27.5690  -32.5540   25.6720 C   0  0  0  0  0  1  0  0  0  0  0  0
  1  3  1  0
  1  2  2  0
  2  4  1  0
  3  6  1  0
  4  5  1  0
  6 55  1  0
  6  5  1  0
  7  9  2  0
  7 11  1  0
  9 12  1  0
 10  8  1  0
 11  2  1  0
 11  8  2  0
 12 13  1  0
 12 10  2  0
 13 14  1  0
 14 54  1  0
 14 23  1  0
 15 21  1  0
 15 22  2  0
 16 21  1  0
 17 18  1  0
 17 16  1  0
 19 18  1  0
 19 28  1  0
 19 20  1  0
 21 20  1  0
 23 15  1  0
 24 23  1  0
 25 26  2  0
 26 27  1  0
 26 45  1  0
 27 30  1  0
 28 25  1  0
 28 29  1  0
 29 27  2  0
 30 31  1  0
 31 32  2  0
 33 36  1  0
 33 32  1  0
 34 33  2  0
 35 34  1  0
 35 30  2  0
 36 37  1  0
 37 38  1  0
 38 39  2  0
 40 39  1  0
 40 44  1  0
 41 40  2  0
 42 37  2  0
 42 41  1  0
 43 42  1  0
 45 46  1  0
 46 49  1  0
 46 48  1  0
 47 45  2  0
 50 51  1  0
 50 25  1  0
 52 50  1  0
 54 53  1  0
 56 55  1  0
 56 57  1  0
 57 59  1  0
 58 69  2  0
 59 64  1  0
 60 68  1  0
 60 70  1  0
 61 67  1  0
 61 63  1  0
 62 68  1  0
 63 62  1  0
 64 63  2  0
 65 66  1  0
 65 59  2  0
 66 61  2  0
 67 60  1  0
 68 58  1  0
 70 72  2  0
 71 70  1  0
 73 71  1  0
 74 83  2  0
 74 79  1  0
 75 71  1  0
 75 79  1  0
 76 75  1  0
 77 78  1  0
 77 76  1  0
 78 74  1  0
 79 80  2  0
 80 81  1  0
 82 81  2  0
 83 82  1  0
 84 58  1  0
 84 85  1  0
 84 94  1  0
 85 88  1  0
 86 90  1  0
 86 85  1  0
 87 86  2  0
 90 89  1  0
 92 90  1  0
 92 93  1  0
 92 91  1  0
 94 97  1  1
 94 95  1  0
 96 94  1  0
M  ISO  4  15 100  23 100  56 101  57 101
M  END
>  <TORSDO>  (62) 
F 22

>  <SCORE>  (62) 
-12.771

>  <name>  (62) 
63

>  <ligand_id>  (62) 
63

>  <original_smiles>  (62) 
[H]C1=C(c2c([H])c([H])c(C([H])([H])C([H])(N([H])C(=O)N3C([H])([H])C([H])([H])C([H])([H])C([H])(n4nc(-c5c([H])c([H])c(Oc6c([H])c([H])c(F)c([H])c6F)c([H])c5[H])c(C(=O)N([H])[H])c4N([H])[H])C3([H])[H])C([H])([H])C([H])([H])[H])c([H])c2[H])C([H])([H])C([H])([H])C([H])(C([H])([H])C([H])([H])Oc2c([H])c([H])c3c(c2[H])C([H])([H])N(C(=O)C([H])(N([H])C(=O)C([H])(N([H])C([H])([H])[H])C([H])([H])[H])C(C([H])([H])[H])(C([H])([H])[H])C([H])([H])[H])C([H])(C(=O)N([H])C2([H])c4c([H])c([H])c([H])c([H])c4C([H])([H])C([H])([H])C2([H])[H])C3([H])[H])C1([H])[H]

>  <smiles>  (62) 
[H]C1=C(c2c([H])c([H])c(C([H])([H])C([H])(N([H])C(=O)N3C([H])([H])C([H])([H])C([H])([H])C([H])(n4nc(-c5c([H])c([H])c(Oc6c([H])c([H])c(F)c([H])c6F)c([H])c5[H])c(C(=O)N([H])[H])c4N([H])[H])C3([H])[H])C([H])([H])C([H])([H])[H])c([H])c2[H])C([H])([H])C([H])([H])C([H])(C([H])([H])C([H])([H])Oc2c([H])c([H])c3c(c2[H])C([H])([H])N(C(=O)C([H])(N([H])C(=O)C([H])(N([H])C([H])([H])[H])C([H])([H])[H])C(C([H])([H])[H])(C([H])([H])[H])C([H])([H])[H])C([H])(C(=O)N([H])C2([H])c4c([H])c([H])c([H])c([H])c4C([H])([H])C([H])([H])C2([H])[H])C3([H])[H])C1([H])[H]

$$$$
64:0:0
     RDKit          3D

 97105  0  0  1  0  0  0  0  0999 V2000
  -27.7060  -19.2660   19.3850 C   0  0  0  0  0  3  0  0  0  0  0  0
  -29.1120  -18.5200   21.3890 C   0  0  0  0  0  3  0  0  0  0  0  0
  -30.8890  -16.8580   21.1400 C   0  0  0  0  0  3  0  0  0  0  0  0
  -29.5440  -17.5170   19.2180 C   0  0  0  0  0  3  0  0  0  0  0  0
  -30.1630  -17.7580   21.9490 C   0  0  0  0  0  0  0  0  0  0  0  0
  -28.8000  -18.4060   20.0150 C   0  0  0  0  0  0  0  0  0  0  0  0
  -30.5540  -16.7210   19.7760 C   0  0  0  0  0  0  0  0  0  0  0  0
  -30.5130  -17.9180   23.4160 C   0  0  0  0  0  1  0  0  0  0  0  0
  -31.8670  -14.7280   19.0640 C   0  0  0  0  0  0  0  0  0  0  0  0
  -31.1220  -12.6330   18.0740 C   0  0  0  0  0  2  0  0  0  0  0  0
  -29.9560  -12.9570   17.1130 C   0  0  0  0  0  2  0  0  0  0  0  0
  -28.6140  -12.9350   17.8730 C   0  0  0  0  0  2  0  0  0  0  0  0
  -28.6370  -13.7630   19.1850 C   0  0  0  0  0  3  0  0  0  0  0  0
  -29.8990  -13.4430   20.0130 C   0  0  0  0  0  2  0  0  0  0  0  0
  -31.0730  -13.6320   19.1470 N   0  0  0  0  0  0  0  0  0  0  0  0
  -32.9950  -14.7250   18.5770 O   0  0  0  0  0  0  0  0  0  0  0  0
  -31.1980  -15.8610   18.8700 N   0  0  0  0  0  0  0  0  0  0  0  0
  -31.5770  -16.3580   18.0790 H   0  0  0  0  0  0  0  0  0  0  0  0
  -26.6660  -14.4950   20.6700 C   0  0  0  0  0  0  0  0  0  0  0  0
  -25.5770  -13.8180   21.1410 C   0  0  0  0  0  0  0  0  0  0  0  0
  -25.7200  -12.4720   20.6850 C   0  0  0  0  0  0  0  0  0  0  0  0
  -27.4140  -13.5680   19.9590 N   0  0  0  0  0  0  0  0  0  0  0  0
  -26.8600  -12.3300   20.0210 N   0  0  0  0  0  0  0  0  0  0  0  0
  -24.8100  -11.3250   20.7920 C   0  0  0  0  0  0  0  0  0  0  0  0
  -25.1810  -10.1460   21.4760 C   0  0  0  0  0  3  0  0  0  0  0  0
  -24.2790   -9.0660   21.5800 C   0  0  0  0  0  3  0  0  0  0  0  0
  -22.9920   -9.1560   20.9970 C   0  0  0  0  0  0  0  0  0  0  0  0
  -22.6370  -10.3210   20.2950 C   0  0  0  0  0  3  0  0  0  0  0  0
  -23.5390  -11.3930   20.1880 C   0  0  0  0  0  3  0  0  0  0  0  0
  -22.0630   -8.1460   21.0260 O   0  0  0  0  0  0  0  0  0  0  0  0
  -21.9630   -7.2880   22.0920 C   0  0  0  0  0  0  0  0  0  0  0  0
  -21.6870   -7.7490   23.3980 C   0  0  0  0  0  3  0  0  0  0  0  0
  -21.5230   -6.8260   24.4490 C   0  0  0  0  0  3  0  0  0  0  0  0
  -21.6260   -5.4460   24.2000 C   0  0  0  0  0  0  0  0  0  0  0  0
  -21.8980   -4.9840   22.9000 C   0  0  0  0  0  3  0  0  0  0  0  0
  -22.0620   -5.9030   21.8490 C   0  0  0  0  0  0  0  0  0  0  0  0
  -22.3020   -5.4500   20.5950 F   0  0  0  0  0  0  0  0  0  0  0  0
  -21.4650   -4.5600   25.2100 F   0  0  0  0  0  0  0  0  0  0  0  0
  -24.4160  -14.4000   21.9000 C   0  0  0  0  0  0  0  0  0  0  0  0
  -23.8260  -13.6270   22.8040 N   0  0  0  0  0  0  0  0  0  0  0  0
  -24.0550  -15.5650   21.7250 O   0  0  0  0  0  0  0  0  0  0  0  0
  -24.1360  -12.6770   22.9600 H   0  0  0  0  0  0  0  0  0  0  0  0
  -23.0500  -13.9850   23.3460 H   0  0  0  0  0  0  0  0  0  0  0  0
  -27.0740  -15.8230   20.7710 N   0  0  0  0  0  0  0  0  0  0  0  0
  -26.5500  -16.4880   21.3270 H   0  0  0  0  0  0  0  0  0  0  0  0
  -27.9830  -16.1710   20.4900 H   0  0  0  0  0  0  0  0  0  0  0  0
  -28.3510  -20.5320   18.7640 C   0  0  0  0  0  2  0  0  0  0  0  0
  -27.5440  -21.8170   19.0110 C   0  0  0  0  0  2  0  0  0  0  0  0
  -28.2890  -23.0830   18.5560 C   0  0  0  0  0  2  0  0  0  0  0  0
  -27.4500  -24.3230   18.8720 C   0  0  0  0  0  2  0  0  0  0  0  0
  -27.9510  -25.6440   18.2490 C   0  0  0  0  0  2  0  0  0  0  0  0
  -27.9130  -26.7450   19.1640 O   0  0  0  0  0  0  0  0  0  0  0  0
  -24.5950  -31.6260   23.1310 C   0  0  0  0  0  0  0  0  0  0  0  0
  -26.7540  -27.4740   19.3360 C   0  0  0  0  0  0  0  0  0  0  0  0
  -23.1910  -30.4640   21.4590 C   0  0  0  0  0  3  0  0  0  0  0  0
  -24.4430  -29.0500   19.7560 C   0  0  0  0  0  0  0  0  0  0  0  0
  -25.7100  -30.7370   21.0930 C   0  0  0  0  0  2  0  0  0  0  0  0
  -25.6670  -29.4460   20.3040 C   0  0  0  0  0  0  0  0  0  0  0  0
  -26.8210  -28.6510   20.1130 C   0  0  0  0  0  3  0  0  0  0  0  0
  -25.5100  -27.1130   18.7730 C   0  0  0  0  0  3  0  0  0  0  0  0
  -24.3540  -27.8750   18.9990 C   0  0  0  0  0  3  0  0  0  0  0  0
  -23.2500  -29.9410   20.0020 C   0  0  0  0  0  2  0  0  0  0  0  0
  -24.5210  -30.9490   21.9500 N   0  0  0  0  0  0  0  0  0  0  0  0
  -23.5750  -31.8810   23.7860 O   0  0  0  0  0  0  0  0  0  0  0  0
  -22.5680  -29.3670   22.3520 C   0  0  0  0  0  0  0  0  0  0  0  0
  -21.2360  -29.2190   22.2770 N   0  0  0  0  0  0  0  0  0  0  0  0
  -23.2780  -28.6590   23.0710 O   0  0  0  0  0  0  0  0  0  0  0  0
  -20.7230  -29.8420   21.6670 H   0  0  0  0  0  0  0  0  0  0  0  0
  -17.8810  -27.9740   22.7630 C   0  0  0  0  0  0  0  0  0  0  0  0
  -20.4410  -28.2290   23.0010 C   0  0  0  0  0  3  0  0  0  0  0  0
  -20.5380  -26.8370   22.3320 C   0  0  0  0  0  2  0  0  0  0  0  0
  -19.4170  -26.5750   21.3210 C   0  0  0  0  0  2  0  0  0  0  0  0
  -18.0500  -26.6710   21.9990 C   0  0  0  0  0  2  0  0  0  0  0  0
  -19.0040  -28.7130   23.2180 C   0  0  0  0  0  0  0  0  0  0  0  0
  -18.7900  -29.9360   23.8920 C   0  0  0  0  0  3  0  0  0  0  0  0
  -17.4870  -30.4190   24.1130 C   0  0  0  0  0  3  0  0  0  0  0  0
  -16.3790  -29.6770   23.6710 C   0  0  0  0  0  3  0  0  0  0  0  0
  -16.5760  -28.4540   23.0040 C   0  0  0  0  0  3  0  0  0  0  0  0
  -25.9590  -32.1270   23.7000 C   0  0  0  0  0  3  0  0  0  0  0  0
  -26.5410  -31.1950   24.8300 C   0  0  1  0  0  0  0  0  0  0  0  0
  -25.5280  -30.8830   25.9560 C   0  0  0  0  0  1  0  0  0  0  0  0
  -27.0200  -29.8460   24.2410 C   0  0  0  0  0  1  0  0  0  0  0  0
  -27.7840  -31.8610   25.4650 C   0  0  0  0  0  1  0  0  0  0  0  0
  -25.7500  -33.4900   24.2030 N   0  0  0  0  0  0  0  0  0  0  0  0
  -26.0980  -34.6020   23.5410 C   0  0  0  0  0  0  0  0  0  0  0  0
  -26.6980  -34.5800   22.4630 O   0  0  0  0  0  0  0  0  0  0  0  0
  -25.2160  -33.5880   25.0540 H   0  0  0  0  0  0  0  0  0  0  0  0
  -24.4670  -36.5120   23.4810 C   0  0  0  0  0  1  0  0  0  0  0  0
  -25.7180  -35.9520   24.1750 C   0  0  0  0  0  3  0  0  0  0  0  0
  -27.9390  -36.6140   24.9850 C   0  0  0  0  0  1  0  0  0  0  0  0
  -26.8070  -36.9520   24.1270 N   0  0  0  0  0  0  0  0  0  0  0  0
  -26.4640  -37.8690   24.3990 H   0  0  0  0  0  0  0  0  0  0  0  0
  -26.8590  -18.4470   18.3680 C   0  0  0  0  0  2  0  0  0  0  0  0
  -25.6390  -19.1370   17.9190 N   0  0  0  0  0  4  0  0  0  0  0  0
  -25.0560  -19.3570   18.7050 H   0  0  0  0  0  0  0  0  0  0  0  0
  -25.1150  -18.5440   17.2990 H   0  0  0  0  0  0  0  0  0  0  0  0
  -25.8710  -19.9750   17.4190 H   0  0  0  0  0  0  0  0  0  0  0  0
  1 93  1  0
  1  6  1  0
  2  5  1  0
  3  5  2  0
  4  7  2  0
  4  6  1  0
  5  8  1  0
  6  2  2  0
  7  3  1  0
  9 15  1  0
 10 15  1  0
 11 12  1  0
 11 10  1  0
 13 12  1  0
 13 22  1  0
 13 14  1  0
 15 14  1  0
 16  9  2  0
 17  9  1  0
 17  7  1  0
 18 17  1  0
 19 44  1  0
 19 20  2  0
 20 39  1  0
 21 24  1  0
 21 20  1  0
 22 23  1  0
 22 19  1  0
 23 21  2  0
 24 25  1  0
 25 26  2  0
 27 30  1  0
 27 26  1  0
 28 27  2  0
 29 28  1  0
 29 24  2  0
 30 31  1  0
 31 32  1  0
 32 33  2  0
 34 33  1  0
 34 38  1  0
 35 34  2  0
 36 31  2  0
 36 35  1  0
 37 36  1  0
 39 40  1  0
 40 42  1  0
 40 43  1  0
 41 39  2  0
 44 45  1  0
 46 44  1  0
 47 48  1  0
 47  1  1  0
 49 50  1  0
 49 48  1  0
 51 50  1  0
 51 52  1  0
 52 54  1  0
 53 64  2  0
 54 59  1  0
 55 63  1  0
 55 65  1  0
 56 62  1  0
 56 58  1  0
 57 63  1  0
 58 57  1  0
 59 58  2  0
 60 61  1  0
 60 54  2  0
 61 56  2  0
 62 55  1  0
 63 53  1  0
 65 67  2  0
 66 65  1  0
 68 66  1  0
 69 78  2  0
 69 74  1  0
 70 66  1  0
 70 74  1  0
 71 70  1  0
 72 73  1  0
 72 71  1  0
 73 69  1  0
 74 75  2  0
 75 76  1  0
 77 76  2  0
 78 77  1  0
 79 53  1  0
 79 84  1  0
 79 80  1  0
 80 83  1  1
 80 81  1  0
 82 80  1  0
 84 87  1  0
 85 89  1  0
 85 84  1  0
 86 85  2  0
 89 88  1  0
 91 89  1  0
 91 92  1  0
 91 90  1  0
 94 93  1  0
 94 95  1  0
 96 94  1  0
 97 94  1  0
M  ISO  4   9 100  17 100  51 101  52 101
M  END
>  <TORSDO>  (63) 
F 24

>  <SCORE>  (63) 
-5.900

>  <name>  (63) 
64

>  <ligand_id>  (63) 
64

>  <original_smiles>  (63) 
[H]c1c([H])c([H])c2c(c1[H])C([H])([H])C([H])([H])C([H])([H])C2([H])N([H])C(=O)C1([H])N(C(=O)C([H])(N([H])C(=O)C([H])(N([H])C([H])([H])[H])C([H])([H])[H])C(C([H])([H])[H])(C([H])([H])[H])C([H])([H])[H])C([H])([H])c2c([H])c(OC([H])([H])C([H])([H])C([H])([H])C([H])([H])C([H])([H])C([H])(c3c([H])c(N([H])C(=O)N4C([H])([H])C([H])([H])C([H])([H])C([H])(n5nc(-c6c([H])c([H])c(Oc7c([H])c([H])c(F)c([H])c7F)c([H])c6[H])c(C(=O)N([H])[H])c5N([H])[H])C4([H])[H])c([H])c(C([H])([H])[H])c3[H])C([H])([H])[N+]([H])([H])[H])c([H])c([H])c2C1([H])[H]

>  <smiles>  (63) 
[H]c1c([H])c([H])c2c(c1[H])C([H])([H])C([H])([H])C([H])([H])C2([H])N([H])C(=O)C1([H])N(C(=O)C([H])(N([H])C(=O)C([H])(N([H])C([H])([H])[H])C([H])([H])[H])C(C([H])([H])[H])(C([H])([H])[H])C([H])([H])[H])C([H])([H])c2c([H])c(OC([H])([H])C([H])([H])C([H])([H])C([H])([H])C([H])([H])C([H])(c3c([H])c(N([H])C(=O)N4C([H])([H])C([H])([H])C([H])([H])C([H])(n5nc(-c6c([H])c([H])c(Oc7c([H])c([H])c(F)c([H])c7F)c([H])c6[H])c(C(=O)N([H])[H])c5N([H])[H])C4([H])[H])c([H])c(C([H])([H])[H])c3[H])C([H])([H])[N+]([H])([H])[H])c([H])c([H])c2C1([H])[H]

$$$$
65:0:0
     RDKit          3D

 96103  0  0  1  0  0  0  0  0999 V2000
  -28.9000  -21.2830   23.4880 C   0  0  0  0  0  2  0  0  0  0  0  0
  -30.1740  -20.9870   24.3040 C   0  0  0  0  0  2  0  0  0  0  0  0
  -31.3480  -20.4090   23.4900 C   0  0  0  0  0  2  0  0  0  0  0  0
  -31.0940  -18.9960   22.9390 C   0  0  0  0  0  2  0  0  0  0  0  0
  -31.9650  -18.6810   21.7110 C   0  0  0  0  0  2  0  0  0  0  0  0
  -32.1720  -17.2270   21.5560 N   0  0  0  0  0  4  0  0  0  0  0  0
  -31.3550  -16.7460   21.8870 H   0  0  0  0  0  0  0  0  0  0  0  0
  -32.9490  -16.9590   22.1390 H   0  0  0  0  0  0  0  0  0  0  0  0
  -32.4310  -16.7800   20.1720 C   0  0  0  0  0  2  0  0  0  0  0  0
  -33.0240  -15.3600   20.1240 C   0  0  0  0  0  2  0  0  0  0  0  0
  -32.1460  -13.0800   19.6440 C   0  0  0  0  0  0  0  0  0  0  0  0
  -31.9000  -10.7530   20.3930 C   0  0  0  0  0  2  0  0  0  0  0  0
  -31.0420   -9.8530   19.4930 C   0  0  0  0  0  2  0  0  0  0  0  0
  -29.5580   -9.9730   19.8690 C   0  0  0  0  0  2  0  0  0  0  0  0
  -29.0840  -11.4470   19.9340 C   0  0  0  0  0  3  0  0  0  0  0  0
  -30.0450  -12.3100   20.7840 C   0  0  0  0  0  2  0  0  0  0  0  0
  -31.4230  -12.1370   20.2890 N   0  0  0  0  0  0  0  0  0  0  0  0
  -33.0440  -12.8290   18.8350 O   0  0  0  0  0  0  0  0  0  0  0  0
  -32.0160  -14.2950   20.1920 N   0  0  0  0  0  0  0  0  0  0  0  0
  -31.3400  -14.3420   20.9410 H   0  0  0  0  0  0  0  0  0  0  0  0
  -26.9220  -12.6540   20.6470 C   0  0  0  0  0  0  0  0  0  0  0  0
  -25.6890  -12.1840   21.0150 C   0  0  0  0  0  0  0  0  0  0  0  0
  -25.7850  -10.7590   20.9770 C   0  0  0  0  0  0  0  0  0  0  0  0
  -27.7040  -11.5340   20.4150 N   0  0  0  0  0  0  0  0  0  0  0  0
  -27.0200  -10.3880   20.6680 N   0  0  0  0  0  0  0  0  0  0  0  0
  -24.7550   -9.7270   21.1640 C   0  0  0  0  0  0  0  0  0  0  0  0
  -24.7220   -8.9180   22.3220 C   0  0  0  0  0  3  0  0  0  0  0  0
  -23.7120   -7.9460   22.4850 C   0  0  0  0  0  3  0  0  0  0  0  0
  -22.7200   -7.7770   21.4890 C   0  0  0  0  0  0  0  0  0  0  0  0
  -22.7720   -8.5690   20.3300 C   0  0  0  0  0  3  0  0  0  0  0  0
  -23.7810   -9.5330   20.1650 C   0  0  0  0  0  3  0  0  0  0  0  0
  -21.7160   -6.8400   21.5510 O   0  0  0  0  0  0  0  0  0  0  0  0
  -21.0160   -6.6110   22.7090 C   0  0  0  0  0  0  0  0  0  0  0  0
  -20.2700   -7.6300   23.3410 C   0  0  0  0  0  3  0  0  0  0  0  0
  -19.5090   -7.3350   24.4890 C   0  0  0  0  0  3  0  0  0  0  0  0
  -19.4840   -6.0230   25.0010 C   0  0  0  0  0  0  0  0  0  0  0  0
  -20.2230   -5.0070   24.3700 C   0  0  0  0  0  3  0  0  0  0  0  0
  -20.9840   -5.3000   23.2250 C   0  0  0  0  0  0  0  0  0  0  0  0
  -21.6770   -4.3130   22.6080 F   0  0  0  0  0  0  0  0  0  0  0  0
  -18.7470   -5.7370   26.1000 F   0  0  0  0  0  0  0  0  0  0  0  0
  -24.4640  -13.0060   21.2910 C   0  0  0  0  0  0  0  0  0  0  0  0
  -23.6210  -12.5590   22.2170 N   0  0  0  0  0  0  0  0  0  0  0  0
  -24.2710  -14.0800   20.7220 O   0  0  0  0  0  0  0  0  0  0  0  0
  -23.7880  -11.6880   22.6990 H   0  0  0  0  0  0  0  0  0  0  0  0
  -22.7960  -13.0950   22.4450 H   0  0  0  0  0  0  0  0  0  0  0  0
  -27.4360  -13.9360   20.4740 N   0  0  0  0  0  0  0  0  0  0  0  0
  -26.8680  -14.7680   20.5880 H   0  0  0  0  0  0  0  0  0  0  0  0
  -28.3730  -14.1380   20.1480 H   0  0  0  0  0  0  0  0  0  0  0  0
  -29.1590  -22.0240   22.1620 C   0  0  0  0  0  2  0  0  0  0  0  0
  -27.9410  -22.1140   21.3330 N   0  0  0  0  0  4  0  0  0  0  0  0
  -27.2810  -22.7080   21.8100 H   0  0  0  0  0  0  0  0  0  0  0  0
  -27.5270  -21.1970   21.2540 H   0  0  0  0  0  0  0  0  0  0  0  0
  -28.1710  -22.6610   19.9790 C   0  0  0  0  0  2  0  0  0  0  0  0
  -26.8510  -22.8980   19.2250 C   0  0  0  0  0  2  0  0  0  0  0  0
  -27.0260  -23.7600   17.9650 C   0  0  0  0  0  2  0  0  0  0  0  0
  -25.7680  -23.9600   17.3340 O   0  0  0  0  0  0  0  0  0  0  0  0
  -24.1260  -27.2750   23.4300 C   0  0  0  0  0  0  0  0  0  0  0  0
  -24.8670  -24.7010   18.0570 C   0  0  0  0  0  0  0  0  0  0  0  0
  -22.3070  -27.1070   21.7580 C   0  0  0  0  0  3  0  0  0  0  0  0
  -23.0060  -26.2980   19.4430 C   0  0  0  0  0  0  0  0  0  0  0  0
  -24.7570  -27.1260   21.0280 C   0  0  0  0  0  2  0  0  0  0  0  0
  -24.3470  -26.2740   19.8490 C   0  0  0  0  0  0  0  0  0  0  0  0
  -25.2820  -25.4720   19.1610 C   0  0  0  0  0  3  0  0  0  0  0  0
  -23.5190  -24.7360   17.6510 C   0  0  0  0  0  3  0  0  0  0  0  0
  -22.5820  -25.5220   18.3490 C   0  0  0  0  0  3  0  0  0  0  0  0
  -22.0730  -27.1930   20.2270 C   0  0  0  0  0  2  0  0  0  0  0  0
  -23.7610  -27.1520   22.1220 N   0  0  0  0  0  0  0  0  0  0  0  0
  -23.2760  -27.3970   24.3230 O   0  0  0  0  0  0  0  0  0  0  0  0
  -21.5820  -25.8540   22.2950 C   0  0  0  0  0  0  0  0  0  0  0  0
  -20.2640  -25.7760   22.0490 N   0  0  0  0  0  0  0  0  0  0  0  0
  -22.2030  -24.9680   22.8890 O   0  0  0  0  0  0  0  0  0  0  0  0
  -19.8290  -26.5490   21.5650 H   0  0  0  0  0  0  0  0  0  0  0  0
  -16.9930  -24.3510   21.4890 C   0  0  0  0  0  0  0  0  0  0  0  0
  -19.3810  -24.6730   22.4240 C   0  0  0  0  0  3  0  0  0  0  0  0
  -19.7460  -23.3810   21.6540 C   0  0  0  0  0  2  0  0  0  0  0  0
  -18.9440  -23.2020   20.3610 C   0  0  0  0  0  2  0  0  0  0  0  0
  -17.4430  -23.1590   20.6590 C   0  0  0  0  0  2  0  0  0  0  0  0
  -17.9060  -25.0700   22.3050 C   0  0  0  0  0  0  0  0  0  0  0  0
  -17.4420  -26.1900   23.0280 C   0  0  0  0  0  3  0  0  0  0  0  0
  -16.0940  -26.5880   22.9520 C   0  0  0  0  0  3  0  0  0  0  0  0
  -15.1910  -25.8630   22.1560 C   0  0  0  0  0  3  0  0  0  0  0  0
  -15.6400  -24.7460   21.4300 C   0  0  0  0  0  3  0  0  0  0  0  0
  -25.6270  -27.2940   23.8620 C   0  0  0  0  0  3  0  0  0  0  0  0
  -25.7320  -28.1420   25.0550 N   0  0  0  0  0  0  0  0  0  0  0  0
  -26.3440  -29.3330   25.0900 C   0  0  0  0  0  0  0  0  0  0  0  0
  -26.9500  -29.8030   24.1230 O   0  0  0  0  0  0  0  0  0  0  0  0
  -25.2100  -27.8450   25.8670 H   0  0  0  0  0  0  0  0  0  0  0  0
  -25.2870  -31.3010   26.2490 C   0  0  0  0  0  1  0  0  0  0  0  0
  -26.2710  -30.1310   26.4060 C   0  0  0  0  0  3  0  0  0  0  0  0
  -28.4940  -29.5850   27.2910 C   0  0  0  0  0  1  0  0  0  0  0  0
  -27.5840  -30.6410   26.8570 N   0  0  0  0  0  0  0  0  0  0  0  0
  -27.4710  -31.2980   27.6250 H   0  0  0  0  0  0  0  0  0  0  0  0
  -26.2120  -25.8550   24.1450 C   0  0  1  0  0  0  0  0  0  0  0  0
  -25.3570  -25.0190   25.1270 C   0  0  0  0  0  1  0  0  0  0  0  0
  -26.3460  -25.0490   22.8320 C   0  0  0  0  0  1  0  0  0  0  0  0
  -27.6370  -25.9760   24.7360 C   0  0  0  0  0  1  0  0  0  0  0  0
  1  2  1  0
  3  2  1  0
  4  3  1  0
  5  4  1  0
  6  5  1  0
  6  7  1  0
  6  8  1  0
  9  6  1  0
 10  9  1  0
 10 19  1  0
 11 19  1  0
 11 17  1  0
 13 14  1  0
 13 12  1  0
 15 14  1  0
 15 24  1  0
 15 16  1  0
 17 12  1  0
 17 16  1  0
 18 11  2  0
 19 20  1  0
 21 22  2  0
 22 41  1  0
 23 22  1  0
 23 26  1  0
 24 21  1  0
 24 25  1  0
 25 23  2  0
 26 27  1  0
 27 28  2  0
 29 32  1  0
 29 28  1  0
 30 29  2  0
 31 30  1  0
 31 26  2  0
 32 33  1  0
 33 38  2  0
 33 34  1  0
 34 35  2  0
 35 36  1  0
 36 40  1  0
 37 36  2  0
 38 37  1  0
 39 38  1  0
 41 42  1  0
 42 45  1  0
 42 44  1  0
 43 41  2  0
 46 47  1  0
 46 21  1  0
 48 46  1  0
 49  1  1  0
 50 51  1  0
 50 49  1  0
 52 50  1  0
 53 50  1  0
 54 53  1  0
 55 54  1  0
 56 55  1  0
 56 58  1  0
 57 68  2  0
 58 63  1  0
 59 67  1  0
 59 69  1  0
 60 62  1  0
 60 66  1  0
 61 67  1  0
 62 61  1  0
 63 62  2  0
 64 58  2  0
 64 65  1  0
 65 60  2  0
 66 59  1  0
 67 57  1  0
 69 71  2  0
 70 69  1  0
 72 70  1  0
 73 78  1  0
 74 70  1  0
 75 74  1  0
 76 77  1  0
 76 75  1  0
 77 73  1  0
 78 74  1  0
 78 79  2  0
 80 79  1  0
 81 80  2  0
 82 73  2  0
 82 81  1  0
 83 57  1  0
 83 93  1  0
 83 84  1  0
 84 85  1  0
 84 87  1  0
 85 89  1  0
 86 85  2  0
 89 88  1  0
 89 91  1  0
 91 90  1  0
 91 92  1  0
 93 96  1  1
 93 94  1  0
 95 93  1  0
M  ISO  4  11 100  19 100  55 101  56 101
M  END
>  <TORSDO>  (64) 
F 28

>  <SCORE>  (64) 
-2.289

>  <name>  (64) 
65

>  <ligand_id>  (64) 
65

>  <original_smiles>  (64) 
[H]c1c([H])c([H])c2c(c1[H])C([H])([H])C([H])([H])C([H])([H])C2([H])N([H])C(=O)C1([H])N(C(=O)C([H])(N([H])C(=O)C([H])(N([H])C([H])([H])[H])C([H])([H])[H])C(C([H])([H])[H])(C([H])([H])[H])C([H])([H])[H])C([H])([H])c2c([H])c(OC([H])([H])C([H])([H])C([H])([H])[N+]([H])([H])C([H])([H])C([H])([H])C([H])([H])C([H])([H])C([H])([H])C([H])([H])[N+]([H])([H])C([H])([H])C([H])([H])N([H])C(=O)N3C([H])([H])C([H])([H])C([H])([H])C([H])(n4nc(-c5c([H])c([H])c(Oc6c([H])c([H])c(F)c([H])c6F)c([H])c5[H])c(C(=O)N([H])[H])c4N([H])[H])C3([H])[H])c([H])c([H])c2C1([H])[H]

>  <smiles>  (64) 
[H]c1c([H])c([H])c2c(c1[H])C([H])([H])C([H])([H])C([H])([H])C2([H])N([H])C(=O)C1([H])N(C(=O)C([H])(N([H])C(=O)C([H])(N([H])C([H])([H])[H])C([H])([H])[H])C(C([H])([H])[H])(C([H])([H])[H])C([H])([H])[H])C([H])([H])c2c([H])c(OC([H])([H])C([H])([H])C([H])([H])[N+]([H])([H])C([H])([H])C([H])([H])C([H])([H])C([H])([H])C([H])([H])C([H])([H])[N+]([H])([H])C([H])([H])C([H])([H])N([H])C(=O)N3C([H])([H])C([H])([H])C([H])([H])C([H])(n4nc(-c5c([H])c([H])c(Oc6c([H])c([H])c(F)c([H])c6F)c([H])c5[H])c(C(=O)N([H])[H])c4N([H])[H])C3([H])[H])c([H])c([H])c2C1([H])[H]

$$$$
66:0:0
     RDKit          3D

 96104  0  0  1  0  0  0  0  0999 V2000
  -25.3030  -22.0420   19.5190 C   0  0  0  0  0  2  0  0  0  0  0  0
  -25.1930  -22.7890   20.7930 N   0  0  0  0  0  4  0  0  0  0  0  0
  -25.4360  -22.2000   21.5730 H   0  0  0  0  0  0  0  0  0  0  0  0
  -24.2170  -23.0200   20.9050 H   0  0  0  0  0  0  0  0  0  0  0  0
  -25.9330  -24.0650   20.8510 C   0  0  0  0  0  2  0  0  0  0  0  0
  -27.4360  -23.9050   21.1630 C   0  0  0  0  0  2  0  0  0  0  0  0
  -28.1840  -25.2480   21.1770 C   0  0  0  0  0  2  0  0  0  0  0  0
  -28.6200  -25.7170   19.7680 C   0  0  0  0  0  2  0  0  0  0  0  0
  -28.6380  -27.1390   19.6630 O   0  0  0  0  0  0  0  0  0  0  0  0
  -24.5090  -31.7800   23.0610 C   0  0  0  0  0  0  0  0  0  0  0  0
  -27.4150  -27.7700   19.6710 C   0  0  0  0  0  0  0  0  0  0  0  0
  -23.3840  -30.4330   21.3160 C   0  0  0  0  0  3  0  0  0  0  0  0
  -24.9250  -29.0950   19.7880 C   0  0  0  0  0  0  0  0  0  0  0  0
  -25.8810  -30.9600   21.1540 C   0  0  0  0  0  2  0  0  0  0  0  0
  -26.0450  -29.6480   20.4200 C   0  0  0  0  0  0  0  0  0  0  0  0
  -27.2900  -28.9890   20.3670 C   0  0  0  0  0  3  0  0  0  0  0  0
  -26.2840  -27.2370   19.0100 C   0  0  0  0  0  3  0  0  0  0  0  0
  -25.0380  -27.8850   19.0820 C   0  0  0  0  0  3  0  0  0  0  0  0
  -23.6310  -29.8680   19.8910 C   0  0  0  0  0  2  0  0  0  0  0  0
  -24.6080  -31.0680   21.9020 N   0  0  0  0  0  0  0  0  0  0  0  0
  -23.4150  -31.9500   23.6160 O   0  0  0  0  0  0  0  0  0  0  0  0
  -22.7980  -29.3060   22.1940 C   0  0  0  0  0  0  0  0  0  0  0  0
  -21.4770  -29.0950   22.0920 N   0  0  0  0  0  0  0  0  0  0  0  0
  -23.5260  -28.6260   22.9230 O   0  0  0  0  0  0  0  0  0  0  0  0
  -20.9490  -29.7060   21.4850 H   0  0  0  0  0  0  0  0  0  0  0  0
  -18.1490  -27.7950   22.5910 C   0  0  0  0  0  0  0  0  0  0  0  0
  -20.7090  -28.0670   22.7910 C   0  0  0  0  0  3  0  0  0  0  0  0
  -20.8080  -26.7050   22.0670 C   0  0  0  0  0  2  0  0  0  0  0  0
  -19.6710  -26.4680   21.0690 C   0  0  0  0  0  2  0  0  0  0  0  0
  -18.3150  -26.5240   21.7770 C   0  0  0  0  0  2  0  0  0  0  0  0
  -19.2730  -28.5270   23.0550 C   0  0  0  0  0  0  0  0  0  0  0  0
  -19.0610  -29.7250   23.7740 C   0  0  0  0  0  3  0  0  0  0  0  0
  -17.7560  -30.1840   24.0410 C   0  0  0  0  0  3  0  0  0  0  0  0
  -16.6480  -29.4410   23.5990 C   0  0  0  0  0  3  0  0  0  0  0  0
  -16.8440  -28.2500   22.8780 C   0  0  0  0  0  3  0  0  0  0  0  0
  -25.7590  -32.4330   23.7290 C   0  0  0  0  0  3  0  0  0  0  0  0
  -26.2910  -31.6230   24.9730 C   0  0  1  0  0  0  0  0  0  0  0  0
  -25.1990  -31.2960   26.0190 C   0  0  0  0  0  1  0  0  0  0  0  0
  -26.9230  -30.2870   24.5180 C   0  0  0  0  0  1  0  0  0  0  0  0
  -27.4060  -32.4250   25.6830 C   0  0  0  0  0  1  0  0  0  0  0  0
  -25.3880  -33.8000   24.1130 N   0  0  0  0  0  0  0  0  0  0  0  0
  -25.6850  -34.8960   23.4020 C   0  0  0  0  0  0  0  0  0  0  0  0
  -26.3750  -34.8660   22.3800 O   0  0  0  0  0  0  0  0  0  0  0  0
  -24.7770  -33.8930   24.9110 H   0  0  0  0  0  0  0  0  0  0  0  0
  -23.8850  -36.6230   23.0980 C   0  0  0  0  0  1  0  0  0  0  0  0
  -25.1310  -36.2400   23.9100 C   0  0  0  0  0  3  0  0  0  0  0  0
  -27.2140  -37.1830   24.8090 C   0  0  0  0  0  1  0  0  0  0  0  0
  -26.1190  -37.3400   23.8550 N   0  0  0  0  0  0  0  0  0  0  0  0
  -25.6710  -38.2350   24.0360 H   0  0  0  0  0  0  0  0  0  0  0  0
  -26.0760  -20.7190   19.6800 C   0  0  0  0  0  2  0  0  0  0  0  0
  -27.2610  -20.5590   18.7080 C   0  0  0  0  0  2  0  0  0  0  0  0
  -28.5720  -19.1180   20.4050 C   0  0  0  0  0  2  0  0  0  0  0  0
  -29.8260  -18.2440   20.3190 C   0  0  0  0  0  2  0  0  0  0  0  0
  -29.3280  -19.1550   18.1190 C   0  0  0  0  0  2  0  0  0  0  0  0
  -28.0600  -19.2730   18.9650 C   0  0  0  0  0  3  0  0  0  0  0  0
  -30.1010  -18.0420   18.8220 C   0  0  0  0  0  3  0  0  0  0  0  0
  -31.5980  -17.9930   18.4710 C   0  0  0  0  0  2  0  0  0  0  0  0
  -32.4330  -17.1810   19.4820 C   0  0  0  0  0  2  0  0  0  0  0  0
  -32.1000  -14.7620   19.0310 C   0  0  0  0  0  0  0  0  0  0  0  0
  -31.7850  -12.3280   18.9240 C   0  0  0  0  0  2  0  0  0  0  0  0
  -30.7770  -11.9030   17.8450 C   0  0  0  0  0  2  0  0  0  0  0  0
  -29.3460  -11.9180   18.4070 C   0  0  0  0  0  2  0  0  0  0  0  0
  -29.0030  -13.2510   19.1220 C   0  0  0  0  0  3  0  0  0  0  0  0
  -30.1150  -13.6510   20.1200 C   0  0  0  0  0  2  0  0  0  0  0  0
  -31.4150  -13.6610   19.4190 N   0  0  0  0  0  0  0  0  0  0  0  0
  -32.9780  -14.7520   18.1610 O   0  0  0  0  0  0  0  0  0  0  0  0
  -31.8460  -15.8660   19.7390 N   0  0  0  0  0  0  0  0  0  0  0  0
  -31.1610  -15.7930   20.4770 H   0  0  0  0  0  0  0  0  0  0  0  0
  -26.8760  -14.2090   20.2180 C   0  0  0  0  0  0  0  0  0  0  0  0
  -25.7350  -13.6090   20.6800 C   0  0  0  0  0  0  0  0  0  0  0  0
  -25.9160  -12.2070   20.4770 C   0  0  0  0  0  0  0  0  0  0  0  0
  -27.6930  -13.1810   19.7710 N   0  0  0  0  0  0  0  0  0  0  0  0
  -27.1230  -11.9660   19.9780 N   0  0  0  0  0  0  0  0  0  0  0  0
  -24.9890  -11.0840   20.6760 C   0  0  0  0  0  0  0  0  0  0  0  0
  -25.2690  -10.0500   21.5950 C   0  0  0  0  0  3  0  0  0  0  0  0
  -24.3540   -8.9900   21.7820 C   0  0  0  0  0  3  0  0  0  0  0  0
  -23.1440   -8.9590   21.0500 C   0  0  0  0  0  0  0  0  0  0  0  0
  -22.8810   -9.9790   20.1190 C   0  0  0  0  0  3  0  0  0  0  0  0
  -23.7950  -11.0310   19.9290 C   0  0  0  0  0  3  0  0  0  0  0  0
  -22.2090   -7.9580   21.1460 O   0  0  0  0  0  0  0  0  0  0  0  0
  -21.9540   -7.3250   22.3360 C   0  0  0  0  0  0  0  0  0  0  0  0
  -21.5000   -8.0290   23.4720 C   0  0  0  0  0  3  0  0  0  0  0  0
  -21.1820   -7.3290   24.6540 C   0  0  0  0  0  3  0  0  0  0  0  0
  -21.3070   -5.9270   24.6980 C   0  0  0  0  0  0  0  0  0  0  0  0
  -21.7520   -5.2230   23.5650 C   0  0  0  0  0  3  0  0  0  0  0  0
  -22.0710   -5.9210   22.3870 C   0  0  0  0  0  0  0  0  0  0  0  0
  -22.4790   -5.2360   21.2920 F   0  0  0  0  0  0  0  0  0  0  0  0
  -20.9950   -5.2540   25.8300 F   0  0  0  0  0  0  0  0  0  0  0  0
  -24.5060  -14.3000   21.1970 C   0  0  0  0  0  0  0  0  0  0  0  0
  -23.8060  -13.6830   22.1430 N   0  0  0  0  0  0  0  0  0  0  0  0
  -24.1840  -15.4170   20.7950 O   0  0  0  0  0  0  0  0  0  0  0  0
  -24.0820  -12.7760   22.4900 H   0  0  0  0  0  0  0  0  0  0  0  0
  -22.9840  -14.1240   22.5290 H   0  0  0  0  0  0  0  0  0  0  0  0
  -27.2790  -15.5370   20.1240 N   0  0  0  0  0  0  0  0  0  0  0  0
  -26.6840  -16.3070   20.4040 H   0  0  0  0  0  0  0  0  0  0  0  0
  -28.1650  -15.8380   19.7390 H   0  0  0  0  0  0  0  0  0  0  0  0
  1 50  1  0
  1  2  1  0
  2  5  1  0
  2  4  1  0
  2  3  1  0
  5  6  1  0
  6  7  1  0
  8  7  1  0
  9 11  1  0
  9  8  1  0
 10 21  2  0
 11 16  1  0
 12 20  1  0
 12 22  1  0
 13 19  1  0
 13 15  1  0
 14 20  1  0
 15 14  1  0
 16 15  2  0
 17 18  1  0
 17 11  2  0
 18 13  2  0
 19 12  1  0
 20 10  1  0
 22 24  2  0
 23 22  1  0
 25 23  1  0
 26 35  2  0
 26 31  1  0
 27 23  1  0
 27 31  1  0
 28 27  1  0
 29 30  1  0
 29 28  1  0
 30 26  1  0
 31 32  2  0
 32 33  1  0
 34 33  2  0
 35 34  1  0
 36 10  1  0
 36 41  1  0
 36 37  1  0
 37 40  1  1
 37 38  1  0
 39 37  1  0
 41 44  1  0
 42 46  1  0
 42 41  1  0
 43 42  2  0
 46 45  1  0
 48 46  1  0
 48 49  1  0
 48 47  1  0
 51 50  1  0
 53 52  1  0
 54 56  1  0
 54 55  1  0
 55 51  1  0
 55 52  1  0
 56 57  1  0
 56 53  1  0
 57 58  1  0
 58 67  1  0
 59 65  1  0
 59 67  1  0
 60 65  1  0
 61 62  1  0
 61 60  1  0
 63 62  1  0
 63 72  1  0
 63 64  1  0
 65 64  1  0
 66 59  2  0
 67 68  1  0
 69 70  2  0
 70 89  1  0
 71 74  1  0
 71 70  1  0
 72 73  1  0
 72 69  1  0
 73 71  2  0
 74 75  1  0
 75 76  2  0
 77 80  1  0
 77 76  1  0
 78 77  2  0
 79 78  1  0
 79 74  2  0
 80 81  1  0
 81 86  2  0
 81 82  1  0
 82 83  2  0
 83 84  1  0
 84 88  1  0
 85 84  2  0
 86 85  1  0
 87 86  1  0
 89 90  1  0
 90 92  1  0
 90 93  1  0
 91 89  2  0
 94 69  1  0
 94 95  1  0
 96 94  1  0
M  ISO  4   8 101   9 101  59 100  67 100
M  END
>  <TORSDO>  (65) 
F 26

>  <SCORE>  (65) 
-8.855

>  <name>  (65) 
66

>  <ligand_id>  (65) 
66

>  <original_smiles>  (65) 
[H]c1c([H])c([H])c2c(c1[H])C([H])([H])C([H])([H])C([H])([H])C2([H])N([H])C(=O)C1([H])N(C(=O)C([H])(N([H])C(=O)C([H])(N([H])C([H])([H])[H])C([H])([H])[H])C(C([H])([H])[H])(C([H])([H])[H])C([H])([H])[H])C([H])([H])c2c([H])c(OC([H])([H])C([H])([H])C([H])([H])C([H])([H])[N+]([H])([H])C([H])([H])C([H])([H])C([H])([H])C3([H])C([H])([H])C([H])([H])C([H])(C([H])([H])C([H])([H])N([H])C(=O)N4C([H])([H])C([H])([H])C([H])([H])C([H])(n5nc(-c6c([H])c([H])c(Oc7c([H])c([H])c(F)c([H])c7F)c([H])c6[H])c(C(=O)N([H])[H])c5N([H])[H])C4([H])[H])C3([H])[H])c([H])c([H])c2C1([H])[H]

>  <smiles>  (65) 
[H]c1c([H])c([H])c2c(c1[H])C([H])([H])C([H])([H])C([H])([H])C2([H])N([H])C(=O)C1([H])N(C(=O)C([H])(N([H])C(=O)C([H])(N([H])C([H])([H])[H])C([H])([H])[H])C(C([H])([H])[H])(C([H])([H])[H])C([H])([H])[H])C([H])([H])c2c([H])c(OC([H])([H])C([H])([H])C([H])([H])C([H])([H])[N+]([H])([H])C([H])([H])C([H])([H])C([H])([H])C3([H])C([H])([H])C([H])([H])C([H])(C([H])([H])C([H])([H])N([H])C(=O)N4C([H])([H])C([H])([H])C([H])([H])C([H])(n5nc(-c6c([H])c([H])c(Oc7c([H])c([H])c(F)c([H])c7F)c([H])c6[H])c(C(=O)N([H])[H])c5N([H])[H])C4([H])[H])C3([H])[H])c([H])c([H])c2C1([H])[H]

$$$$
67:0:0
     RDKit          3D

 94103  0  0  1  0  0  0  0  0999 V2000
  -28.1500  -20.9450   20.6620 C   0  0  0  0  0  2  0  0  0  0  0  0
  -27.7270  -22.3850   20.3590 C   0  0  0  0  0  3  0  0  0  0  0  0
  -28.3530  -20.6700   19.1730 C   0  0  0  0  0  3  0  0  0  0  0  0
  -28.5330  -22.3510   19.0360 C   0  0  0  0  0  3  0  0  0  0  0  0
  -29.4280  -24.5190   23.0670 C   0  0  0  0  0  3  0  0  0  0  0  0
  -28.3590  -25.3020   23.5380 C   0  0  0  0  0  3  0  0  0  0  0  0
  -29.2140  -23.5870   22.0340 C   0  0  0  0  0  3  0  0  0  0  0  0
  -27.0790  -25.1500   22.9770 C   0  0  0  0  0  3  0  0  0  0  0  0
  -27.9340  -23.4280   21.4570 C   0  0  0  0  0  0  0  0  0  0  0  0
  -26.8560  -24.2160   21.9430 C   0  0  0  0  0  0  0  0  0  0  0  0
  -25.4460  -24.0780   21.3900 C   0  0  0  0  0  1  0  0  0  0  0  0
  -29.2740  -19.3200   18.8170 C   0  0  0  0  0  2  0  0  0  0  0  0
  -29.6280  -18.0100   19.8110 C   0  0  0  0  0  2  0  0  0  0  0  0
  -30.3350  -15.3620   19.5060 C   0  0  0  0  0  0  0  0  0  0  0  0
  -30.3250  -12.9330   18.7930 C   0  0  0  0  0  2  0  0  0  0  0  0
  -29.3030  -12.7050   17.6580 C   0  0  0  0  0  2  0  0  0  0  0  0
  -27.8980  -12.4420   18.2330 C   0  0  0  0  0  2  0  0  0  0  0  0
  -27.5100  -13.4550   19.3430 C   0  0  0  0  0  3  0  0  0  0  0  0
  -28.6460  -13.6480   20.3670 C   0  0  0  0  0  2  0  0  0  0  0  0
  -29.8310  -14.0720   19.6090 N   0  0  0  0  0  0  0  0  0  0  0  0
  -31.5230  -15.4980   19.2010 O   0  0  0  0  0  0  0  0  0  0  0  0
  -29.4540  -16.4700   19.5430 N   0  0  0  0  0  0  0  0  0  0  0  0
  -28.4930  -16.1710   19.6190 H   0  0  0  0  0  0  0  0  0  0  0  0
  -25.2500  -13.9710   20.4290 C   0  0  0  0  0  0  0  0  0  0  0  0
  -24.2260  -13.1680   20.8510 C   0  0  0  0  0  0  0  0  0  0  0  0
  -24.6620  -11.8250   20.6310 C   0  0  0  0  0  0  0  0  0  0  0  0
  -26.2410  -13.1170   19.9770 N   0  0  0  0  0  0  0  0  0  0  0  0
  -25.9040  -11.8140   20.1630 N   0  0  0  0  0  0  0  0  0  0  0  0
  -23.9440  -10.5530   20.7830 C   0  0  0  0  0  0  0  0  0  0  0  0
  -24.4570   -9.5030   21.5760 C   0  0  0  0  0  3  0  0  0  0  0  0
  -23.7360   -8.2990   21.7230 C   0  0  0  0  0  3  0  0  0  0  0  0
  -22.4890   -8.1340   21.0760 C   0  0  0  0  0  0  0  0  0  0  0  0
  -21.9920   -9.1740   20.2690 C   0  0  0  0  0  3  0  0  0  0  0  0
  -22.7130  -10.3700   20.1200 C   0  0  0  0  0  3  0  0  0  0  0  0
  -21.7310   -6.9900   21.1400 O   0  0  0  0  0  0  0  0  0  0  0  0
  -21.7400   -6.1820   22.2490 C   0  0  0  0  0  0  0  0  0  0  0  0
  -21.3930   -6.6700   23.5280 C   0  0  0  0  0  3  0  0  0  0  0  0
  -21.3480   -5.7910   24.6280 C   0  0  0  0  0  3  0  0  0  0  0  0
  -21.6390   -4.4260   24.4520 C   0  0  0  0  0  0  0  0  0  0  0  0
  -21.9800   -3.9370   23.1780 C   0  0  0  0  0  3  0  0  0  0  0  0
  -22.0270   -4.8130   22.0790 C   0  0  0  0  0  0  0  0  0  0  0  0
  -22.3350   -4.3340   20.8500 F   0  0  0  0  0  0  0  0  0  0  0  0
  -21.5890   -3.5790   25.5060 F   0  0  0  0  0  0  0  0  0  0  0  0
  -22.8810  -13.6220   21.3360 C   0  0  0  0  0  0  0  0  0  0  0  0
  -22.2620  -12.8600   22.2300 N   0  0  0  0  0  0  0  0  0  0  0  0
  -22.3910  -14.6860   20.9580 O   0  0  0  0  0  0  0  0  0  0  0  0
  -22.6730  -11.9940   22.5520 H   0  0  0  0  0  0  0  0  0  0  0  0
  -21.3680  -13.1440   22.6020 H   0  0  0  0  0  0  0  0  0  0  0  0
  -25.4080  -15.3530   20.3650 N   0  0  0  0  0  0  0  0  0  0  0  0
  -24.6600  -15.9870   20.6240 H   0  0  0  0  0  0  0  0  0  0  0  0
  -26.1970  -15.8270   19.9460 H   0  0  0  0  0  0  0  0  0  0  0  0
  -28.0280  -23.5010   17.9210 C   0  0  0  0  0  3  0  0  0  0  0  0
  -27.3250  -24.9690   18.3550 C   0  0  0  0  0  3  0  0  0  0  0  0
  -26.7100  -26.0720   17.4470 O   0  0  0  0  0  0  0  0  0  0  0  0
  -25.1940  -31.0590   22.6710 C   0  0  0  0  0  0  0  0  0  0  0  0
  -25.9110  -27.1420   17.9760 C   0  0  0  0  0  0  0  0  0  0  0  0
  -23.3770  -30.4130   21.1360 C   0  0  0  0  0  3  0  0  0  0  0  0
  -24.0800  -29.1350   19.0210 C   0  0  0  0  0  0  0  0  0  0  0  0
  -25.8210  -30.3310   20.3390 C   0  0  0  0  0  2  0  0  0  0  0  0
  -25.4350  -29.2020   19.3700 C   0  0  0  0  0  0  0  0  0  0  0  0
  -26.3540  -28.2280   18.8290 C   0  0  0  0  0  3  0  0  0  0  0  0
  -24.5450  -27.1770   17.6250 C   0  0  0  0  0  3  0  0  0  0  0  0
  -23.6460  -28.1400   18.1330 C   0  0  0  0  0  3  0  0  0  0  0  0
  -23.1260  -30.1530   19.6280 C   0  0  0  0  0  2  0  0  0  0  0  0
  -24.8330  -30.6020   21.4330 N   0  0  0  0  0  0  0  0  0  0  0  0
  -24.3460  -31.3350   23.5320 O   0  0  0  0  0  0  0  0  0  0  0  0
  -22.7240  -29.2790   21.9660 C   0  0  0  0  0  0  0  0  0  0  0  0
  -21.3810  -29.2230   21.9780 N   0  0  0  0  0  0  0  0  0  0  0  0
  -23.4260  -28.4590   22.5640 O   0  0  0  0  0  0  0  0  0  0  0  0
  -20.8740  -29.9350   21.4690 H   0  0  0  0  0  0  0  0  0  0  0  0
  -17.9890  -28.0760   22.5310 C   0  0  0  0  0  0  0  0  0  0  0  0
  -20.5700  -28.2080   22.6550 C   0  0  0  0  0  3  0  0  0  0  0  0
  -20.5720  -26.8790   21.8660 C   0  0  0  0  0  2  0  0  0  0  0  0
  -19.3940  -26.7520   20.8940 C   0  0  0  0  0  2  0  0  0  0  0  0
  -18.0640  -26.8420   21.6470 C   0  0  0  0  0  2  0  0  0  0  0  0
  -19.1650  -28.7260   22.9910 C   0  0  0  0  0  0  0  0  0  0  0  0
  -19.0400  -29.8890   23.7810 C   0  0  0  0  0  3  0  0  0  0  0  0
  -17.7700  -30.3990   24.1150 C   0  0  0  0  0  3  0  0  0  0  0  0
  -16.6100  -29.7440   23.6700 C   0  0  0  0  0  3  0  0  0  0  0  0
  -16.7220  -28.5820   22.8840 C   0  0  0  0  0  3  0  0  0  0  0  0
  -26.6890  -31.2770   23.0560 C   0  0  0  0  0  3  0  0  0  0  0  0
  -26.7450  -32.3870   24.0210 N   0  0  0  0  0  0  0  0  0  0  0  0
  -27.2200  -33.6100   23.7520 C   0  0  0  0  0  0  0  0  0  0  0  0
  -27.7230  -33.9070   22.6640 O   0  0  0  0  0  0  0  0  0  0  0  0
  -26.2950  -32.2330   24.9110 H   0  0  0  0  0  0  0  0  0  0  0  0
  -25.9900  -35.6610   24.5400 C   0  0  0  0  0  1  0  0  0  0  0  0
  -27.1230  -34.6740   24.8640 C   0  0  0  0  0  3  0  0  0  0  0  0
  -29.4470  -34.6030   25.6570 C   0  0  0  0  0  1  0  0  0  0  0  0
  -28.3820  -35.4190   25.0780 N   0  0  0  0  0  0  0  0  0  0  0  0
  -28.2290  -36.2180   25.6890 H   0  0  0  0  0  0  0  0  0  0  0  0
  -27.3690  -29.9870   23.6610 C   0  0  1  0  0  0  0  0  0  0  0  0
  -26.5610  -29.3330   24.8070 C   0  0  0  0  0  1  0  0  0  0  0  0
  -27.5810  -28.9110   22.5690 C   0  0  0  0  0  1  0  0  0  0  0  0
  -28.7720  -30.3440   24.2060 C   0  0  0  0  0  1  0  0  0  0  0  0
  2  1  1  0
  2  9  1  0
  3 12  1  0
  3  1  1  0
  4 52  1  0
  4  3  1  0
  4  2  1  0
  5  6  1  0
  7  5  2  0
  8  6  2  0
  9 10  2  0
  9  7  1  0
 10  8  1  0
 11 10  1  0
 12 13  1  0
 14 22  1  0
 14 20  1  0
 15 20  1  0
 16 17  1  0
 16 15  1  0
 18 17  1  0
 18 27  1  0
 18 19  1  0
 20 19  1  0
 21 14  2  0
 22 23  1  0
 22 13  1  0
 24 25  2  0
 25 44  1  0
 26 29  1  0
 26 25  1  0
 27 28  1  0
 27 24  1  0
 28 26  2  0
 29 30  1  0
 30 31  2  0
 32 35  1  0
 32 31  1  0
 33 32  2  0
 34 33  1  0
 34 29  2  0
 35 36  1  0
 36 37  1  0
 37 38  2  0
 39 38  1  0
 39 43  1  0
 40 39  2  0
 41 36  2  0
 41 40  1  0
 42 41  1  0
 44 45  1  0
 45 47  1  0
 45 48  1  0
 46 44  2  0
 49 24  1  0
 49 50  1  0
 51 49  1  0
 52 53  2  0
 54 56  1  0
 54 53  1  0
 55 66  2  0
 56 61  1  0
 57 65  1  0
 57 67  1  0
 58 60  1  0
 58 64  1  0
 59 65  1  0
 60 59  1  0
 61 60  2  0
 62 56  2  0
 62 63  1  0
 63 58  2  0
 64 57  1  0
 65 55  1  0
 67 68  1  0
 67 69  2  0
 70 68  1  0
 71 80  2  0
 71 76  1  0
 72 68  1  0
 72 76  1  0
 73 72  1  0
 74 75  1  0
 74 73  1  0
 75 71  1  0
 76 77  2  0
 77 78  1  0
 79 78  2  0
 80 79  1  0
 81 55  1  0
 81 91  1  0
 81 82  1  0
 82 85  1  0
 83 82  1  0
 83 87  1  0
 84 83  2  0
 87 86  1  0
 87 89  1  0
 89 88  1  0
 89 90  1  0
 91 94  1  1
 91 92  1  0
 93 91  1  0
M  ISO  4  14 100  22 100  53 101  54 101
M  END
>  <TORSDO>  (66) 
F 21

>  <SCORE>  (66) 
-10.747

>  <name>  (66) 
67

>  <ligand_id>  (66) 
67

>  <original_smiles>  (66) 
[H]c1c([H])c([H])c(C2([H])C([H])([H])C([H])(C([H])([H])C([H])([H])N([H])C(=O)N3C([H])([H])C([H])([H])C([H])([H])C([H])(n4nc(-c5c([H])c([H])c(Oc6c([H])c([H])c(F)c([H])c6F)c([H])c5[H])c(C(=O)N([H])[H])c4N([H])[H])C3([H])[H])C2([H])C([H])([H])C([H])([H])Oc2c([H])c([H])c3c(c2[H])C([H])([H])N(C(=O)C([H])(N([H])C(=O)C([H])(N([H])C([H])([H])[H])C([H])([H])[H])C(C([H])([H])[H])(C([H])([H])[H])C([H])([H])[H])C([H])(C(=O)N([H])C2([H])c4c([H])c([H])c([H])c([H])c4C([H])([H])C([H])([H])C2([H])[H])C3([H])[H])c(C([H])([H])[H])c1[H]

>  <smiles>  (66) 
[H]c1c([H])c([H])c(C2([H])C([H])([H])C([H])(C([H])([H])C([H])([H])N([H])C(=O)N3C([H])([H])C([H])([H])C([H])([H])C([H])(n4nc(-c5c([H])c([H])c(Oc6c([H])c([H])c(F)c([H])c6F)c([H])c5[H])c(C(=O)N([H])[H])c4N([H])[H])C3([H])[H])C2([H])C([H])([H])C([H])([H])Oc2c([H])c([H])c3c(c2[H])C([H])([H])N(C(=O)C([H])(N([H])C(=O)C([H])(N([H])C([H])([H])[H])C([H])([H])[H])C(C([H])([H])[H])(C([H])([H])[H])C([H])([H])[H])C([H])(C(=O)N([H])C2([H])c4c([H])c([H])c([H])c([H])c4C([H])([H])C([H])([H])C2([H])[H])C3([H])[H])c(C([H])([H])[H])c1[H]

$$$$
68:0:0
     RDKit          3D

 93102  0  0  1  0  0  0  0  0999 V2000
  -30.5830  -20.4690   19.8630 C   0  0  0  0  0  3  0  0  0  0  0  0
  -30.5050  -21.7940   19.5840 C   0  0  0  0  0  0  0  0  0  0  0  0
  -28.1700  -20.3020   20.2570 C   0  0  0  0  0  2  0  0  0  0  0  0
  -29.7020  -20.7560   22.1250 C   0  0  0  0  0  2  0  0  0  0  0  0
  -28.0750  -21.8510   19.9660 C   0  0  0  0  0  2  0  0  0  0  0  0
  -29.6180  -22.2970   21.8320 C   0  0  0  0  0  2  0  0  0  0  0  0
  -29.5630  -19.8880   20.8350 C   0  0  2  0  0  0  0  0  0  0  0  0
  -29.3970  -22.5990   20.3210 C   0  0  1  0  0  0  0  0  0  0  0  0
  -30.8190  -22.5390   17.1670 C   0  0  0  0  0  1  0  0  0  0  0  0
  -31.4330  -22.4550   18.5740 C   0  0  0  0  0  2  0  0  0  0  0  0
  -29.7060  -18.3220   21.1740 C   0  0  0  0  0  3  0  0  0  0  0  0
  -30.1930  -17.2440   20.1170 C   0  0  0  0  0  3  0  0  0  0  0  0
  -30.7570  -14.7160   20.0980 C   0  0  0  0  0  0  0  0  0  0  0  0
  -30.4640  -12.5150   18.9920 C   0  0  0  0  0  2  0  0  0  0  0  0
  -29.4680  -12.6940   17.8250 C   0  0  0  0  0  2  0  0  0  0  0  0
  -28.0160  -12.5340   18.3180 C   0  0  0  0  0  2  0  0  0  0  0  0
  -27.7260  -13.3610   19.6000 C   0  0  0  0  0  3  0  0  0  0  0  0
  -28.8340  -13.1700   20.6600 C   0  0  0  0  0  2  0  0  0  0  0  0
  -30.1180  -13.5080   20.0290 N   0  0  0  0  0  0  0  0  0  0  0  0
  -31.8910  -14.8690   19.6340 O   0  0  0  0  0  0  0  0  0  0  0  0
  -30.0060  -15.7930   20.4880 N   0  0  0  0  0  0  0  0  0  0  0  0
  -29.1030  -15.5530   20.8700 H   0  0  0  0  0  0  0  0  0  0  0  0
  -25.3720  -13.9540   20.4420 C   0  0  0  0  0  0  0  0  0  0  0  0
  -24.3190  -13.1770   20.8450 C   0  0  0  0  0  0  0  0  0  0  0  0
  -24.7730  -11.8250   20.7630 C   0  0  0  0  0  0  0  0  0  0  0  0
  -26.3990  -13.0740   20.1400 N   0  0  0  0  0  0  0  0  0  0  0  0
  -26.0470  -11.7870   20.3930 N   0  0  0  0  0  0  0  0  0  0  0  0
  -24.0490  -10.5620   20.9620 C   0  0  0  0  0  0  0  0  0  0  0  0
  -24.4940   -9.5940   21.8900 C   0  0  0  0  0  3  0  0  0  0  0  0
  -23.7720   -8.3950   22.0750 C   0  0  0  0  0  3  0  0  0  0  0  0
  -22.5900   -8.1570   21.3340 C   0  0  0  0  0  0  0  0  0  0  0  0
  -22.1640   -9.1140   20.3960 C   0  0  0  0  0  3  0  0  0  0  0  0
  -22.8870  -10.3040   20.2080 C   0  0  0  0  0  3  0  0  0  0  0  0
  -21.8400   -7.0100   21.4280 O   0  0  0  0  0  0  0  0  0  0  0  0
  -21.7810   -6.2810   22.5900 C   0  0  0  0  0  0  0  0  0  0  0  0
  -21.2940   -6.8370   23.7940 C   0  0  0  0  0  3  0  0  0  0  0  0
  -21.1840   -6.0330   24.9460 C   0  0  0  0  0  3  0  0  0  0  0  0
  -21.5520   -4.6750   24.8960 C   0  0  0  0  0  0  0  0  0  0  0  0
  -22.0320   -4.1190   23.6980 C   0  0  0  0  0  3  0  0  0  0  0  0
  -22.1440   -4.9200   22.5470 C   0  0  0  0  0  0  0  0  0  0  0  0
  -22.5870   -4.3740   21.3890 F   0  0  0  0  0  0  0  0  0  0  0  0
  -21.4390   -3.9010   26.0010 F   0  0  0  0  0  0  0  0  0  0  0  0
  -22.9390  -13.6550   21.1930 C   0  0  0  0  0  0  0  0  0  0  0  0
  -22.2420  -12.9400   22.0680 N   0  0  0  0  0  0  0  0  0  0  0  0
  -22.4860  -14.6990   20.7230 O   0  0  0  0  0  0  0  0  0  0  0  0
  -22.6190  -12.0960   22.4720 H   0  0  0  0  0  0  0  0  0  0  0  0
  -21.3170  -13.2440   22.3400 H   0  0  0  0  0  0  0  0  0  0  0  0
  -25.5350  -15.3270   20.2870 N   0  0  0  0  0  0  0  0  0  0  0  0
  -24.7760  -15.9810   20.4430 H   0  0  0  0  0  0  0  0  0  0  0  0
  -26.3600  -15.7680   19.9040 H   0  0  0  0  0  0  0  0  0  0  0  0
  -29.4020  -24.1780   20.0050 C   0  0  0  0  0  3  0  0  0  0  0  0
  -28.3390  -25.1720   20.6160 C   0  0  0  0  0  3  0  0  0  0  0  0
  -28.5040  -26.5990   20.2610 O   0  0  0  0  0  0  0  0  0  0  0  0
  -24.5770  -31.8770   23.1940 C   0  0  0  0  0  0  0  0  0  0  0  0
  -27.3620  -27.4020   20.2060 C   0  0  0  0  0  0  0  0  0  0  0  0
  -23.4470  -30.4670   21.5090 C   0  0  0  0  0  3  0  0  0  0  0  0
  -24.9670  -28.9530   20.1220 C   0  0  0  0  0  0  0  0  0  0  0  0
  -25.9820  -30.8400   21.4010 C   0  0  0  0  0  2  0  0  0  0  0  0
  -26.1060  -29.4680   20.7540 C   0  0  0  0  0  0  0  0  0  0  0  0
  -27.3090  -28.7050   20.7840 C   0  0  0  0  0  3  0  0  0  0  0  0
  -26.2060  -26.9380   19.5400 C   0  0  0  0  0  3  0  0  0  0  0  0
  -25.0190  -27.6920   19.5050 C   0  0  0  0  0  3  0  0  0  0  0  0
  -23.7140  -29.8010   20.1330 C   0  0  0  0  0  2  0  0  0  0  0  0
  -24.6850  -31.0780   22.0930 N   0  0  0  0  0  0  0  0  0  0  0  0
  -23.4740  -32.1330   23.6980 O   0  0  0  0  0  0  0  0  0  0  0  0
  -22.7760  -29.4330   22.4430 C   0  0  0  0  0  0  0  0  0  0  0  0
  -21.4550  -29.2420   22.2820 N   0  0  0  0  0  0  0  0  0  0  0  0
  -23.4410  -28.8070   23.2720 O   0  0  0  0  0  0  0  0  0  0  0  0
  -20.9780  -29.8000   21.5880 H   0  0  0  0  0  0  0  0  0  0  0  0
  -18.0750  -28.0280   22.7040 C   0  0  0  0  0  0  0  0  0  0  0  0
  -20.6270  -28.2890   23.0230 C   0  0  0  0  0  3  0  0  0  0  0  0
  -20.7430  -26.8670   22.4250 C   0  0  0  0  0  2  0  0  0  0  0  0
  -19.6590  -26.5590   21.3860 C   0  0  0  0  0  2  0  0  0  0  0  0
  -18.2660  -26.6910   22.0100 C   0  0  0  0  0  2  0  0  0  0  0  0
  -19.1840  -28.7860   23.1660 C   0  0  0  0  0  0  0  0  0  0  0  0
  -18.9520  -30.0380   23.7750 C   0  0  0  0  0  3  0  0  0  0  0  0
  -17.6430  -30.5330   23.9270 C   0  0  0  0  0  3  0  0  0  0  0  0
  -16.5480  -29.7720   23.4830 C   0  0  0  0  0  3  0  0  0  0  0  0
  -16.7640  -28.5220   22.8770 C   0  0  0  0  0  3  0  0  0  0  0  0
  -25.8310  -32.5260   23.8580 C   0  0  0  0  0  3  0  0  0  0  0  0
  -25.4940  -33.9220   24.1710 N   0  0  0  0  0  0  0  0  0  0  0  0
  -25.8450  -34.9770   23.4230 C   0  0  0  0  0  0  0  0  0  0  0  0
  -26.5570  -34.8770   22.4190 O   0  0  0  0  0  0  0  0  0  0  0  0
  -24.8680  -34.0720   24.9480 H   0  0  0  0  0  0  0  0  0  0  0  0
  -24.1300  -36.7610   22.9800 C   0  0  0  0  0  1  0  0  0  0  0  0
  -25.3270  -36.3610   23.8560 C   0  0  0  0  0  3  0  0  0  0  0  0
  -27.4020  -37.2610   24.8120 C   0  0  0  0  0  1  0  0  0  0  0  0
  -26.3590  -37.4190   23.8030 N   0  0  0  0  0  0  0  0  0  0  0  0
  -25.9400  -38.3370   23.9210 H   0  0  0  0  0  0  0  0  0  0  0  0
  -26.3110  -31.7660   25.1550 C   0  0  1  0  0  0  0  0  0  0  0  0
  -25.1830  -31.5140   26.1820 C   0  0  0  0  0  1  0  0  0  0  0  0
  -26.9290  -30.3960   24.7880 C   0  0  0  0  0  1  0  0  0  0  0  0
  -27.4250  -32.5780   25.8550 C   0  0  0  0  0  1  0  0  0  0  0  0
  1  7  1  0
  2  1  2  0
  2  8  1  0
  3  7  1  0
  5  3  1  0
  5  8  1  0
  6  4  1  0
  7 11  1  1
  7  4  1  0
  8 51  1  1
  8  6  1  0
  9 10  1  0
 10  2  1  0
 12 21  1  0
 12 11  2  0
 13 21  1  0
 14 19  1  0
 15 16  1  0
 15 14  1  0
 17 16  1  0
 17 26  1  0
 17 18  1  0
 19 13  1  0
 19 18  1  0
 20 13  2  0
 21 22  1  0
 23 24  2  0
 24 43  1  0
 25 24  1  0
 25 28  1  0
 26 27  1  0
 26 23  1  0
 27 25  2  0
 28 29  1  0
 29 30  2  0
 31 34  1  0
 31 30  1  0
 32 31  2  0
 33 32  1  0
 33 28  2  0
 34 35  1  0
 35 36  1  0
 36 37  2  0
 38 37  1  0
 38 42  1  0
 39 38  2  0
 40 35  2  0
 40 39  1  0
 41 40  1  0
 43 44  1  0
 44 47  1  0
 44 46  1  0
 45 43  2  0
 48 23  1  0
 48 49  1  0
 50 48  1  0
 51 52  2  0
 53 52  1  0
 54 65  2  0
 55 53  1  0
 55 60  1  0
 56 64  1  0
 56 66  1  0
 57 63  1  0
 57 59  1  0
 58 64  1  0
 59 60  2  0
 59 58  1  0
 61 55  2  0
 62 61  1  0
 62 57  2  0
 63 56  1  0
 64 54  1  0
 66 68  2  0
 67 66  1  0
 69 67  1  0
 70 79  2  0
 70 75  1  0
 71 67  1  0
 71 75  1  0
 72 71  1  0
 73 74  1  0
 73 72  1  0
 74 70  1  0
 75 76  2  0
 76 77  1  0
 78 77  2  0
 79 78  1  0
 80 54  1  0
 80 81  1  0
 80 90  1  0
 81 84  1  0
 82 86  1  0
 82 81  1  0
 83 82  2  0
 86 85  1  0
 88 86  1  0
 88 89  1  0
 88 87  1  0
 90 93  1  1
 90 91  1  0
 92 90  1  0
M  ISO  4  13 100  21 100  52 101  53 101
M  END
>  <TORSDO>  (67) 
F 21

>  <SCORE>  (67) 
-13.232

>  <name>  (67) 
68

>  <ligand_id>  (67) 
68

>  <original_smiles>  (67) 
[H]C1=C(C([H])([H])C([H])([H])[H])C2(C([H])([H])C([H])([H])Oc3c([H])c([H])c4c(c3[H])C([H])([H])N(C(=O)C([H])(N([H])C(=O)C([H])(N([H])C([H])([H])[H])C([H])([H])[H])C(C([H])([H])[H])(C([H])([H])[H])C([H])([H])[H])C([H])(C(=O)N([H])C3([H])c5c([H])c([H])c([H])c([H])c5C([H])([H])C([H])([H])C3([H])[H])C4([H])[H])C([H])([H])C([H])([H])C1(C([H])([H])C([H])([H])N([H])C(=O)N1C([H])([H])C([H])([H])C([H])([H])C([H])(n3nc(-c4c([H])c([H])c(Oc5c([H])c([H])c(F)c([H])c5F)c([H])c4[H])c(C(=O)N([H])[H])c3N([H])[H])C1([H])[H])C([H])([H])C2([H])[H]

>  <smiles>  (67) 
[H]C1=C(C([H])([H])C([H])([H])[H])C2(C([H])([H])C([H])([H])Oc3c([H])c([H])c4c(c3[H])C([H])([H])N(C(=O)C([H])(N([H])C(=O)C([H])(N([H])C([H])([H])[H])C([H])([H])[H])C(C([H])([H])[H])(C([H])([H])[H])C([H])([H])[H])C([H])(C(=O)N([H])C3([H])c5c([H])c([H])c([H])c([H])c5C([H])([H])C([H])([H])C3([H])[H])C4([H])[H])C([H])([H])C([H])([H])C1(C([H])([H])C([H])([H])N([H])C(=O)N1C([H])([H])C([H])([H])C([H])([H])C([H])(n3nc(-c4c([H])c([H])c(Oc5c([H])c([H])c(F)c([H])c5F)c([H])c4[H])c(C(=O)N([H])[H])c3N([H])[H])C1([H])[H])C([H])([H])C2([H])[H]

$$$$
69:0:0
     RDKit          3D

 93102  0  0  1  0  0  0  0  0999 V2000
  -27.4130  -21.2780   19.4990 C   0  0  0  0  0  2  0  0  0  0  0  0
  -27.5020  -19.9970   18.6190 C   0  0  0  0  0  2  0  0  0  0  0  0
  -29.5090  -20.4760   20.7140 C   0  0  0  0  0  2  0  0  0  0  0  0
  -29.5600  -21.1060   18.5400 C   0  0  0  0  0  2  0  0  0  0  0  0
  -29.3800  -19.0110   19.9810 C   0  0  0  0  0  3  0  0  0  0  0  0
  -28.8740  -21.6770   19.8030 C   0  0  1  0  0  0  0  0  0  0  0  0
  -29.0090  -19.6330   18.5770 C   0  0  1  0  0  0  0  0  0  0  0  0
  -29.2590  -19.3240   15.9820 C   0  0  0  0  0  1  0  0  0  0  0  0
  -29.4220  -18.7300   17.3870 C   0  0  0  0  0  2  0  0  0  0  0  0
  -29.0770  -23.3350   20.1520 C   0  0  0  0  0  3  0  0  0  0  0  0
  -28.0480  -24.6470   19.8320 C   0  0  0  0  0  3  0  0  0  0  0  0
  -28.2910  -26.1720   20.0980 O   0  0  0  0  0  0  0  0  0  0  0  0
  -24.6550  -31.8180   23.1720 C   0  0  0  0  0  0  0  0  0  0  0  0
  -27.2350  -27.1600   20.0450 C   0  0  0  0  0  0  0  0  0  0  0  0
  -23.4540  -30.4470   21.5110 C   0  0  0  0  0  3  0  0  0  0  0  0
  -24.9040  -28.9050   20.0520 C   0  0  0  0  0  0  0  0  0  0  0  0
  -26.0080  -30.7240   21.3440 C   0  0  0  0  0  2  0  0  0  0  0  0
  -26.0840  -29.3430   20.6650 C   0  0  0  0  0  0  0  0  0  0  0  0
  -27.2500  -28.4860   20.6440 C   0  0  0  0  0  3  0  0  0  0  0  0
  -26.0280  -26.8280   19.3930 C   0  0  0  0  0  3  0  0  0  0  0  0
  -24.8900  -27.6610   19.4000 C   0  0  0  0  0  3  0  0  0  0  0  0
  -23.6740  -29.7960   20.1190 C   0  0  0  0  0  2  0  0  0  0  0  0
  -24.7260  -31.0180   22.0630 N   0  0  0  0  0  0  0  0  0  0  0  0
  -23.5710  -32.0880   23.7080 O   0  0  0  0  0  0  0  0  0  0  0  0
  -22.7830  -29.4210   22.4580 C   0  0  0  0  0  0  0  0  0  0  0  0
  -21.4550  -29.2450   22.3340 N   0  0  0  0  0  0  0  0  0  0  0  0
  -23.4590  -28.7840   23.2700 O   0  0  0  0  0  0  0  0  0  0  0  0
  -20.9630  -29.8110   21.6560 H   0  0  0  0  0  0  0  0  0  0  0  0
  -18.0830  -28.0100   22.8160 C   0  0  0  0  0  0  0  0  0  0  0  0
  -20.6400  -28.2910   23.0900 C   0  0  0  0  0  3  0  0  0  0  0  0
  -20.7520  -26.8670   22.4970 C   0  0  0  0  0  2  0  0  0  0  0  0
  -19.6560  -26.5480   21.4760 C   0  0  0  0  0  2  0  0  0  0  0  0
  -18.2710  -26.6720   22.1200 C   0  0  0  0  0  2  0  0  0  0  0  0
  -19.1950  -28.7780   23.2570 C   0  0  0  0  0  0  0  0  0  0  0  0
  -18.9620  -30.0280   23.8680 C   0  0  0  0  0  3  0  0  0  0  0  0
  -17.6510  -30.5150   24.0400 C   0  0  0  0  0  3  0  0  0  0  0  0
  -16.5540  -29.7440   23.6140 C   0  0  0  0  0  3  0  0  0  0  0  0
  -16.7710  -28.4940   23.0080 C   0  0  0  0  0  3  0  0  0  0  0  0
  -25.9320  -32.4480   23.8060 C   0  0  0  0  0  3  0  0  0  0  0  0
  -25.6160  -33.8410   24.1580 N   0  0  0  0  0  0  0  0  0  0  0  0
  -25.9300  -34.9100   23.4130 C   0  0  0  0  0  0  0  0  0  0  0  0
  -26.5830  -34.8260   22.3690 O   0  0  0  0  0  0  0  0  0  0  0  0
  -25.0350  -33.9790   24.9720 H   0  0  0  0  0  0  0  0  0  0  0  0
  -24.1810  -36.6980   23.1310 C   0  0  0  0  0  1  0  0  0  0  0  0
  -25.4460  -36.2890   23.9020 C   0  0  0  0  0  3  0  0  0  0  0  0
  -27.5980  -37.1790   24.6850 C   0  0  0  0  0  1  0  0  0  0  0  0
  -26.4670  -37.3530   23.7770 N   0  0  0  0  0  0  0  0  0  0  0  0
  -26.0580  -38.2660   23.9480 H   0  0  0  0  0  0  0  0  0  0  0  0
  -26.4450  -31.6640   25.0760 C   0  0  1  0  0  0  0  0  0  0  0  0
  -25.3530  -31.4200   26.1430 C   0  0  0  0  0  1  0  0  0  0  0  0
  -27.0250  -30.2860   24.6760 C   0  0  0  0  0  1  0  0  0  0  0  0
  -27.5990  -32.4480   25.7450 C   0  0  0  0  0  1  0  0  0  0  0  0
  -30.4790  -17.7220   20.1120 C   0  0  0  0  0  3  0  0  0  0  0  0
  -30.8420  -15.0000   19.9450 C   0  0  0  0  0  0  0  0  0  0  0  0
  -30.7060  -12.5930   19.1670 C   0  0  0  0  0  2  0  0  0  0  0  0
  -29.7610  -12.4560   17.9520 C   0  0  0  0  0  2  0  0  0  0  0  0
  -28.3030  -12.2740   18.4190 C   0  0  0  0  0  2  0  0  0  0  0  0
  -27.9020  -13.2880   19.5220 C   0  0  0  0  0  3  0  0  0  0  0  0
  -28.9670  -13.3870   20.6330 C   0  0  0  0  0  2  0  0  0  0  0  0
  -30.2320  -13.7480   19.9800 N   0  0  0  0  0  0  0  0  0  0  0  0
  -32.0450  -15.0350   19.6710 O   0  0  0  0  0  0  0  0  0  0  0  0
  -30.0800  -16.1960   20.0320 N   0  0  0  0  0  0  0  0  0  0  0  0
  -29.0930  -16.0290   20.1590 H   0  0  0  0  0  0  0  0  0  0  0  0
  -25.5570  -13.9290   20.3270 C   0  0  0  0  0  0  0  0  0  0  0  0
  -24.4830  -13.1800   20.7220 C   0  0  0  0  0  0  0  0  0  0  0  0
  -24.9100  -11.8180   20.6750 C   0  0  0  0  0  0  0  0  0  0  0  0
  -26.5700  -13.0240   20.0540 N   0  0  0  0  0  0  0  0  0  0  0  0
  -26.1910  -11.7490   20.3310 N   0  0  0  0  0  0  0  0  0  0  0  0
  -24.1550  -10.5740   20.8790 C   0  0  0  0  0  0  0  0  0  0  0  0
  -24.5550   -9.6160   21.8380 C   0  0  0  0  0  3  0  0  0  0  0  0
  -23.8010   -8.4370   22.0310 C   0  0  0  0  0  3  0  0  0  0  0  0
  -22.6330   -8.2090   21.2640 C   0  0  0  0  0  0  0  0  0  0  0  0
  -22.2520   -9.1560   20.2980 C   0  0  0  0  0  3  0  0  0  0  0  0
  -23.0060  -10.3250   20.1020 C   0  0  0  0  0  3  0  0  0  0  0  0
  -21.8540   -7.0810   21.3640 O   0  0  0  0  0  0  0  0  0  0  0  0
  -21.7290   -6.3960   22.5460 C   0  0  0  0  0  0  0  0  0  0  0  0
  -21.2550   -7.0200   23.7220 C   0  0  0  0  0  3  0  0  0  0  0  0
  -21.0730   -6.2630   24.8960 C   0  0  0  0  0  3  0  0  0  0  0  0
  -21.3540   -4.8830   24.8960 C   0  0  0  0  0  0  0  0  0  0  0  0
  -21.8200   -4.2610   23.7250 C   0  0  0  0  0  3  0  0  0  0  0  0
  -22.0050   -5.0150   22.5550 C   0  0  0  0  0  0  0  0  0  0  0  0
  -22.4330   -4.4050   21.4230 F   0  0  0  0  0  0  0  0  0  0  0  0
  -21.1740   -4.1550   26.0230 F   0  0  0  0  0  0  0  0  0  0  0  0
  -23.1040  -13.6920   21.0250 C   0  0  0  0  0  0  0  0  0  0  0  0
  -22.3810  -13.0220   21.9140 N   0  0  0  0  0  0  0  0  0  0  0  0
  -22.6780  -14.7260   20.5100 O   0  0  0  0  0  0  0  0  0  0  0  0
  -22.7370  -12.1880   22.3560 H   0  0  0  0  0  0  0  0  0  0  0  0
  -21.4560  -13.3480   22.1590 H   0  0  0  0  0  0  0  0  0  0  0  0
  -25.7490  -15.2960   20.1460 N   0  0  0  0  0  0  0  0  0  0  0  0
  -24.9930  -15.9610   20.2520 H   0  0  0  0  0  0  0  0  0  0  0  0
  -26.5830  -15.7060   19.7460 H   0  0  0  0  0  0  0  0  0  0  0  0
  -30.5730  -17.5170   22.6890 C   0  0  0  0  0  1  0  0  0  0  0  0
  -31.3200  -17.8870   21.3970 C   0  0  0  0  0  2  0  0  0  0  0  0
  1  6  1  0
  2  1  1  0
  4  7  1  0
  4  6  1  0
  5 53  1  0
  5  3  1  0
  6 10  1  1
  6  3  1  0
  7  9  1  6
  7  2  1  0
  7  5  1  0
  8  9  1  0
 11 12  1  0
 11 10  2  0
 13 24  2  0
 14 12  1  0
 14 19  1  0
 15 23  1  0
 15 25  1  0
 16 22  1  0
 16 18  1  0
 17 23  1  0
 18 17  1  0
 19 18  2  0
 20 21  1  0
 20 14  2  0
 21 16  2  0
 22 15  1  0
 23 13  1  0
 25 27  2  0
 26 25  1  0
 28 26  1  0
 29 38  2  0
 29 34  1  0
 30 26  1  0
 30 34  1  0
 31 30  1  0
 32 33  1  0
 32 31  1  0
 33 29  1  0
 34 35  2  0
 35 36  1  0
 37 36  2  0
 38 37  1  0
 39 13  1  0
 39 40  1  0
 39 49  1  0
 40 43  1  0
 41 45  1  0
 41 40  1  0
 42 41  2  0
 45 44  1  0
 47 45  1  0
 47 48  1  0
 47 46  1  0
 49 52  1  1
 49 50  1  0
 51 49  1  0
 53 93  1  0
 54 60  1  0
 54 62  1  0
 55 60  1  0
 56 57  1  0
 56 55  1  0
 58 57  1  0
 58 67  1  0
 58 59  1  0
 60 59  1  0
 61 54  2  0
 62 53  1  0
 62 63  1  0
 64 65  2  0
 65 84  1  0
 66 65  1  0
 66 69  1  0
 67 64  1  0
 67 68  1  0
 68 66  2  0
 69 70  1  0
 70 71  2  0
 72 75  1  0
 72 71  1  0
 73 72  2  0
 74 73  1  0
 74 69  2  0
 75 76  1  0
 76 81  2  0
 76 77  1  0
 77 78  2  0
 79 78  1  0
 79 83  1  0
 80 79  2  0
 81 80  1  0
 82 81  1  0
 84 85  1  0
 85 88  1  0
 85 87  1  0
 86 84  2  0
 89 90  1  0
 89 64  1  0
 91 89  1  0
 93 92  1  0
M  ISO  4  11 101  12 101  54 100  62 100
M  END
>  <TORSDO>  (68) 
F 21

>  <SCORE>  (68) 
-14.889

>  <name>  (68) 
69

>  <ligand_id>  (68) 
69

>  <original_smiles>  (68) 
[H]c1c([H])c([H])c2c(c1[H])C([H])([H])C([H])([H])C([H])([H])C2([H])N([H])C(=O)C1([H])N(C(=O)C([H])(N([H])C(=O)C([H])(N([H])C([H])([H])[H])C([H])([H])[H])C(C([H])([H])[H])(C([H])([H])[H])C([H])([H])[H])C([H])([H])c2c([H])c(OC([H])([H])C([H])([H])C34C([H])([H])C([H])([H])C(C([H])([H])C([H])([H])[H])(C3([H])[H])C([H])(C([H])(N([H])C(=O)N3C([H])([H])C([H])([H])C([H])([H])C([H])(n5nc(-c6c([H])c([H])c(Oc7c([H])c([H])c(F)c([H])c7F)c([H])c6[H])c(C(=O)N([H])[H])c5N([H])[H])C3([H])[H])C([H])([H])C([H])([H])[H])C4([H])[H])c([H])c([H])c2C1([H])[H]

>  <smiles>  (68) 
[H]c1c([H])c([H])c2c(c1[H])C([H])([H])C([H])([H])C([H])([H])C2([H])N([H])C(=O)C1([H])N(C(=O)C([H])(N([H])C(=O)C([H])(N([H])C([H])([H])[H])C([H])([H])[H])C(C([H])([H])[H])(C([H])([H])[H])C([H])([H])[H])C([H])([H])c2c([H])c(OC([H])([H])C([H])([H])C34C([H])([H])C([H])([H])C(C([H])([H])C([H])([H])[H])(C3([H])[H])C([H])(C([H])(N([H])C(=O)N3C([H])([H])C([H])([H])C([H])([H])C([H])(n5nc(-c6c([H])c([H])c(Oc7c([H])c([H])c(F)c([H])c7F)c([H])c6[H])c(C(=O)N([H])[H])c5N([H])[H])C3([H])[H])C([H])([H])C([H])([H])[H])C4([H])[H])c([H])c([H])c2C1([H])[H]

$$$$
70:0:0
     RDKit          3D

 95104  0  0  1  0  0  0  0  0999 V2000
  -30.2880  -21.0890   22.5200 C   0  0  0  0  0  3  0  0  0  0  0  0
  -30.6630  -19.7340   22.3410 C   0  0  0  0  0  3  0  0  0  0  0  0
  -30.9110  -20.0910   19.9280 C   0  0  0  0  0  3  0  0  0  0  0  0
  -30.2030  -21.9180   21.3850 C   0  0  0  0  0  0  0  0  0  0  0  0
  -30.5290  -21.4360   20.1230 C   0  0  0  0  0  0  0  0  0  0  0  0
  -30.9460  -19.2190   21.0480 C   0  0  0  0  0  0  0  0  0  0  0  0
  -29.7630  -23.3210   21.2830 C   0  0  0  0  0  0  0  0  0  0  0  0
  -30.3780  -22.5080   19.0680 C   0  0  0  0  0  2  0  0  0  0  0  0
  -29.6480  -23.6800   19.7890 C   0  0  0  0  0  3  0  0  0  0  0  0
  -29.4910  -24.0920   22.2060 O   0  0  0  0  0  0  0  0  0  0  0  0
  -31.2200  -17.7210   20.8620 C   0  0  0  0  0  2  0  0  0  0  0  0
  -29.9640  -16.8230   21.0750 C   0  0  0  0  0  3  0  0  0  0  0  0
  -30.7830  -14.4980   20.3660 C   0  0  0  0  0  0  0  0  0  0  0  0
  -30.4880  -12.3070   19.2530 C   0  0  0  0  0  2  0  0  0  0  0  0
  -29.5310  -12.4510   18.0530 C   0  0  0  0  0  2  0  0  0  0  0  0
  -28.0600  -12.3180   18.4950 C   0  0  0  0  0  2  0  0  0  0  0  0
  -27.7300  -13.2180   19.7130 C   0  0  0  0  0  3  0  0  0  0  0  0
  -28.7850  -13.0240   20.8280 C   0  0  0  0  0  2  0  0  0  0  0  0
  -30.1230  -13.3100   20.2660 N   0  0  0  0  0  0  0  0  0  0  0  0
  -31.7930  -14.7680   19.7120 O   0  0  0  0  0  0  0  0  0  0  0  0
  -30.2070  -15.3720   21.2090 N   0  0  0  0  0  0  0  0  0  0  0  0
  -29.5400  -14.9190   21.8160 H   0  0  0  0  0  0  0  0  0  0  0  0
  -25.3480  -13.8870   20.4510 C   0  0  0  0  0  0  0  0  0  0  0  0
  -24.2690  -13.1390   20.8370 C   0  0  0  0  0  0  0  0  0  0  0  0
  -24.6980  -11.7770   20.7950 C   0  0  0  0  0  0  0  0  0  0  0  0
  -26.3720  -12.9820   20.2060 N   0  0  0  0  0  0  0  0  0  0  0  0
  -25.9820  -11.7080   20.4660 N   0  0  0  0  0  0  0  0  0  0  0  0
  -23.9460  -10.5320   20.9910 C   0  0  0  0  0  0  0  0  0  0  0  0
  -24.3720   -9.5500   21.9130 C   0  0  0  0  0  3  0  0  0  0  0  0
  -23.6220   -8.3680   22.0950 C   0  0  0  0  0  3  0  0  0  0  0  0
  -22.4320   -8.1610   21.3580 C   0  0  0  0  0  0  0  0  0  0  0  0
  -22.0260   -9.1320   20.4260 C   0  0  0  0  0  3  0  0  0  0  0  0
  -22.7760  -10.3040   20.2410 C   0  0  0  0  0  3  0  0  0  0  0  0
  -21.6540   -7.0320   21.4510 O   0  0  0  0  0  0  0  0  0  0  0  0
  -21.6020   -6.2880   22.6020 C   0  0  0  0  0  0  0  0  0  0  0  0
  -21.1990   -6.8470   23.8350 C   0  0  0  0  0  3  0  0  0  0  0  0
  -21.0930   -6.0300   24.9780 C   0  0  0  0  0  3  0  0  0  0  0  0
  -21.3800   -4.6540   24.8900 C   0  0  0  0  0  0  0  0  0  0  0  0
  -21.7780   -4.0950   23.6620 C   0  0  0  0  0  3  0  0  0  0  0  0
  -21.8860   -4.9090   22.5220 C   0  0  0  0  0  0  0  0  0  0  0  0
  -22.2490   -4.3620   21.3370 F   0  0  0  0  0  0  0  0  0  0  0  0
  -21.2700   -3.8670   25.9850 F   0  0  0  0  0  0  0  0  0  0  0  0
  -22.8880  -13.6470   21.1370 C   0  0  0  0  0  0  0  0  0  0  0  0
  -22.1630  -12.9700   22.0190 N   0  0  0  0  0  0  0  0  0  0  0  0
  -22.4620  -14.6820   20.6240 O   0  0  0  0  0  0  0  0  0  0  0  0
  -22.5190  -12.1340   22.4580 H   0  0  0  0  0  0  0  0  0  0  0  0
  -21.2370  -13.2940   22.2620 H   0  0  0  0  0  0  0  0  0  0  0  0
  -25.5320  -15.2540   20.2700 N   0  0  0  0  0  0  0  0  0  0  0  0
  -24.7770  -15.9180   20.3930 H   0  0  0  0  0  0  0  0  0  0  0  0
  -26.3810  -15.6790   19.9230 H   0  0  0  0  0  0  0  0  0  0  0  0
  -27.9950  -18.2730   20.1200 C   0  0  0  0  0  1  0  0  0  0  0  0
  -28.8530  -17.0050   20.0100 C   0  0  0  0  0  2  0  0  0  0  0  0
  -30.1420  -25.1040   19.4030 C   0  0  0  0  0  2  0  0  0  0  0  0
  -29.0150  -26.1160   19.0860 C   0  0  0  0  0  2  0  0  0  0  0  0
  -28.6300  -26.8930   20.2270 O   0  0  0  0  0  0  0  0  0  0  0  0
  -24.6420  -31.9480   23.2720 C   0  0  0  0  0  0  0  0  0  0  0  0
  -27.4330  -27.5870   20.1840 C   0  0  0  0  0  0  0  0  0  0  0  0
  -23.4910  -30.5380   21.5960 C   0  0  0  0  0  3  0  0  0  0  0  0
  -25.0000  -29.0450   20.1830 C   0  0  0  0  0  0  0  0  0  0  0  0
  -26.0120  -30.9470   21.4470 C   0  0  0  0  0  2  0  0  0  0  0  0
  -26.1360  -29.5810   20.7990 C   0  0  0  0  0  0  0  0  0  0  0  0
  -27.3500  -28.8540   20.8080 C   0  0  0  0  0  3  0  0  0  0  0  0
  -26.2670  -27.0580   19.5800 C   0  0  0  0  0  3  0  0  0  0  0  0
  -25.0600  -27.7790   19.5760 C   0  0  0  0  0  3  0  0  0  0  0  0
  -23.7390  -29.8780   20.2150 C   0  0  0  0  0  2  0  0  0  0  0  0
  -24.7320  -31.1580   22.1650 N   0  0  0  0  0  0  0  0  0  0  0  0
  -23.5450  -32.1940   23.7950 O   0  0  0  0  0  0  0  0  0  0  0  0
  -22.8450  -29.4950   22.5360 C   0  0  0  0  0  0  0  0  0  0  0  0
  -21.5230  -29.3040   22.4000 N   0  0  0  0  0  0  0  0  0  0  0  0
  -23.5300  -28.8600   23.3420 O   0  0  0  0  0  0  0  0  0  0  0  0
  -21.0310  -29.8680   21.7200 H   0  0  0  0  0  0  0  0  0  0  0  0
  -18.1480  -28.1080   22.8890 C   0  0  0  0  0  0  0  0  0  0  0  0
  -20.7080  -28.3480   23.1500 C   0  0  0  0  0  3  0  0  0  0  0  0
  -20.8030  -26.9330   22.5340 C   0  0  0  0  0  2  0  0  0  0  0  0
  -19.6910  -26.6430   21.5190 C   0  0  0  0  0  2  0  0  0  0  0  0
  -18.3150  -26.7760   22.1780 C   0  0  0  0  0  2  0  0  0  0  0  0
  -19.2730  -28.8530   23.3330 C   0  0  0  0  0  0  0  0  0  0  0  0
  -19.0640  -30.1020   23.9580 C   0  0  0  0  0  3  0  0  0  0  0  0
  -17.7630  -30.6040   24.1450 C   0  0  0  0  0  3  0  0  0  0  0  0
  -16.6530  -29.8550   23.7200 C   0  0  0  0  0  3  0  0  0  0  0  0
  -16.8460  -28.6090   23.0970 C   0  0  0  0  0  3  0  0  0  0  0  0
  -25.9040  -32.5990   23.9170 C   0  0  0  0  0  3  0  0  0  0  0  0
  -25.5730  -33.9980   24.2170 N   0  0  0  0  0  0  0  0  0  0  0  0
  -25.9220  -35.0420   23.4530 C   0  0  0  0  0  0  0  0  0  0  0  0
  -26.6250  -34.9280   22.4440 O   0  0  0  0  0  0  0  0  0  0  0  0
  -24.9540  -34.1600   24.9970 H   0  0  0  0  0  0  0  0  0  0  0  0
  -24.1910  -36.8100   23.0170 C   0  0  0  0  0  1  0  0  0  0  0  0
  -25.4090  -36.4320   23.8740 C   0  0  0  0  0  3  0  0  0  0  0  0
  -27.5100  -37.3450   24.7580 C   0  0  0  0  0  1  0  0  0  0  0  0
  -26.4380  -37.4910   23.7770 N   0  0  0  0  0  0  0  0  0  0  0  0
  -26.0220  -38.4110   23.8960 H   0  0  0  0  0  0  0  0  0  0  0  0
  -26.3940  -31.8500   25.2160 C   0  0  1  0  0  0  0  0  0  0  0  0
  -25.2740  -31.6050   26.2520 C   0  0  0  0  0  1  0  0  0  0  0  0
  -27.0140  -30.4800   24.8550 C   0  0  0  0  0  1  0  0  0  0  0  0
  -27.5090  -32.6730   25.9050 C   0  0  0  0  0  1  0  0  0  0  0  0
  2  1  1  0
  3  5  2  0
  3  6  1  0
  4  1  2  0
  5  4  1  0
  6  2  2  0
  7  4  1  0
  7 10  2  0
  8  9  1  0
  8  5  1  0
  9 53  1  0
  9  7  1  0
 11  6  1  0
 11 12  1  0
 12 52  1  0
 12 21  1  0
 13 21  1  0
 14 19  1  0
 15 16  1  0
 15 14  1  0
 17 16  1  0
 17 26  1  0
 17 18  1  0
 19 13  1  0
 19 18  1  0
 20 13  2  0
 21 22  1  0
 23 24  2  0
 24 43  1  0
 25 24  1  0
 25 28  1  0
 26 23  1  0
 26 27  1  0
 27 25  2  0
 28 29  1  0
 29 30  2  0
 31 34  1  0
 31 30  1  0
 32 31  2  0
 33 32  1  0
 33 28  2  0
 34 35  1  0
 35 36  1  0
 36 37  2  0
 38 37  1  0
 38 42  1  0
 39 38  2  0
 40 35  2  0
 40 39  1  0
 41 40  1  0
 43 44  1  0
 44 47  1  0
 44 46  1  0
 45 43  2  0
 48 49  1  0
 48 23  1  0
 50 48  1  0
 52 51  1  0
 54 53  1  0
 54 55  1  0
 56 67  2  0
 57 55  1  0
 57 62  1  0
 58 66  1  0
 58 68  1  0
 59 65  1  0
 59 61  1  0
 60 66  1  0
 61 62  2  0
 61 60  1  0
 63 57  2  0
 64 63  1  0
 64 59  2  0
 65 58  1  0
 66 56  1  0
 68 70  2  0
 69 68  1  0
 71 69  1  0
 72 81  2  0
 72 77  1  0
 73 69  1  0
 73 77  1  0
 74 73  1  0
 75 76  1  0
 75 74  1  0
 76 72  1  0
 77 78  2  0
 78 79  1  0
 80 79  2  0
 81 80  1  0
 82 56  1  0
 82 83  1  0
 82 92  1  0
 83 86  1  0
 84 88  1  0
 84 83  1  0
 85 84  2  0
 88 87  1  0
 90 88  1  0
 90 91  1  0
 90 89  1  0
 92 95  1  1
 92 93  1  0
 94 92  1  0
M  ISO  4  13 100  21 100  54 101  55 101
M  END
>  <TORSDO>  (69) 
F 21

>  <SCORE>  (69) 
-13.880

>  <name>  (69) 
70

>  <ligand_id>  (69) 
70

>  <original_smiles>  (69) 
[H]c1c([H])c([H])c2c(c1[H])C([H])([H])C([H])([H])C([H])([H])C2([H])N([H])C(=O)C1([H])N(C(=O)C([H])(N([H])C(=O)C([H])(N([H])C([H])([H])[H])C([H])([H])[H])C(C([H])([H])[H])(C([H])([H])[H])C([H])([H])[H])C([H])([H])c2c([H])c(OC([H])([H])C([H])([H])C3([H])C(=O)c4c([H])c([H])c(C([H])([H])C([H])(N([H])C(=O)N5C([H])([H])C([H])([H])C([H])([H])C([H])(n6nc(-c7c([H])c([H])c(Oc8c([H])c([H])c(F)c([H])c8F)c([H])c7[H])c(C(=O)N([H])[H])c6N([H])[H])C5([H])[H])C([H])([H])C([H])([H])[H])c([H])c4C3([H])[H])c([H])c([H])c2C1([H])[H]

>  <smiles>  (69) 
[H]c1c([H])c([H])c2c(c1[H])C([H])([H])C([H])([H])C([H])([H])C2([H])N([H])C(=O)C1([H])N(C(=O)C([H])(N([H])C(=O)C([H])(N([H])C([H])([H])[H])C([H])([H])[H])C(C([H])([H])[H])(C([H])([H])[H])C([H])([H])[H])C([H])([H])c2c([H])c(OC([H])([H])C([H])([H])C3([H])C(=O)c4c([H])c([H])c(C([H])([H])C([H])(N([H])C(=O)N5C([H])([H])C([H])([H])C([H])([H])C([H])(n6nc(-c7c([H])c([H])c(Oc8c([H])c([H])c(F)c([H])c8F)c([H])c7[H])c(C(=O)N([H])[H])c6N([H])[H])C5([H])[H])C([H])([H])C([H])([H])[H])c([H])c4C3([H])[H])c([H])c([H])c2C1([H])[H]

$$$$
71:0:0
     RDKit          3D

 92100  0  0  1  0  0  0  0  0999 V2000
  -28.6300  -20.9770   20.8310 C   0  0  0  0  0  3  0  0  0  0  0  0
  -29.6700  -20.1720   20.5020 C   0  0  0  0  0  3  0  0  0  0  0  0
  -27.3080  -20.5680   20.1800 C   0  0  0  0  0  2  0  0  0  0  0  0
  -30.1200  -20.3860   19.0630 C   0  0  0  0  0  2  0  0  0  0  0  0
  -27.5300  -19.9830   18.7550 C   0  0  0  0  0  2  0  0  0  0  0  0
  -28.8910  -20.3960   18.1030 C   0  0  0  0  0  2  0  0  0  0  0  0
  -28.7150  -22.5150   20.7830 C   0  0  0  0  0  2  0  0  0  0  0  0
  -30.0820  -23.1550   21.0970 C   0  0  0  0  0  2  0  0  0  0  0  0
  -30.2020  -24.6600   20.7030 C   0  0  0  0  0  2  0  0  0  0  0  0
  -29.3420  -25.6570   21.5170 C   0  0  0  0  0  2  0  0  0  0  0  0
  -29.3780  -26.9980   20.9860 O   0  0  0  0  0  0  0  0  0  0  0  0
  -24.8720  -31.9520   23.4240 C   0  0  0  0  0  0  0  0  0  0  0  0
  -28.1640  -27.6350   20.8430 C   0  0  0  0  0  0  0  0  0  0  0  0
  -23.9600  -30.4090   21.7090 C   0  0  0  0  0  3  0  0  0  0  0  0
  -25.6790  -28.9510   20.5140 C   0  0  0  0  0  0  0  0  0  0  0  0
  -26.4570  -30.9650   21.7720 C   0  0  0  0  0  2  0  0  0  0  0  0
  -26.7210  -29.5860   21.2030 C   0  0  0  0  0  0  0  0  0  0  0  0
  -27.9680  -28.9390   21.3580 C   0  0  0  0  0  3  0  0  0  0  0  0
  -27.1060  -27.0060   20.1540 C   0  0  0  0  0  3  0  0  0  0  0  0
  -25.8690  -27.6600   19.9850 C   0  0  0  0  0  3  0  0  0  0  0  0
  -24.3740  -29.7050   20.3880 C   0  0  0  0  0  2  0  0  0  0  0  0
  -25.1050  -31.1290   22.3620 N   0  0  0  0  0  0  0  0  0  0  0  0
  -23.7230  -32.1560   23.8410 O   0  0  0  0  0  0  0  0  0  0  0  0
  -23.2840  -29.3720   22.6330 C   0  0  0  0  0  0  0  0  0  0  0  0
  -21.9880  -29.1030   22.3930 N   0  0  0  0  0  0  0  0  0  0  0  0
  -23.9240  -28.8110   23.5260 O   0  0  0  0  0  0  0  0  0  0  0  0
  -21.5380  -29.5990   21.6390 H   0  0  0  0  0  0  0  0  0  0  0  0
  -18.6400  -27.7810   22.6830 C   0  0  0  0  0  0  0  0  0  0  0  0
  -21.1620  -28.1380   23.1200 C   0  0  0  0  0  3  0  0  0  0  0  0
  -21.3480  -26.7090   22.5600 C   0  0  0  0  0  2  0  0  0  0  0  0
  -20.3360  -26.3570   21.4650 C   0  0  0  0  0  2  0  0  0  0  0  0
  -18.9080  -26.4470   22.0100 C   0  0  0  0  0  2  0  0  0  0  0  0
  -19.6960  -28.5840   23.1860 C   0  0  0  0  0  0  0  0  0  0  0  0
  -19.3870  -29.8380   23.7580 C   0  0  0  0  0  3  0  0  0  0  0  0
  -18.0530  -30.2850   23.8390 C   0  0  0  0  0  3  0  0  0  0  0  0
  -17.0110  -29.4760   23.3560 C   0  0  0  0  0  3  0  0  0  0  0  0
  -17.3050  -28.2270   22.7810 C   0  0  0  0  0  3  0  0  0  0  0  0
  -26.0370  -32.6960   24.1520 C   0  0  0  0  0  3  0  0  0  0  0  0
  -25.6180  -34.0910   24.3490 N   0  0  0  0  0  0  0  0  0  0  0  0
  -25.9720  -35.1080   23.5520 C   0  0  0  0  0  0  0  0  0  0  0  0
  -26.7570  -34.9810   22.6090 O   0  0  0  0  0  0  0  0  0  0  0  0
  -24.9370  -34.2620   25.0740 H   0  0  0  0  0  0  0  0  0  0  0  0
  -24.1870  -36.7530   22.9010 C   0  0  0  0  0  1  0  0  0  0  0  0
  -25.3610  -36.4890   23.8540 C   0  0  0  0  0  3  0  0  0  0  0  0
  -27.3470  -37.5710   24.8150 C   0  0  0  0  0  1  0  0  0  0  0  0
  -26.3350  -37.5990   23.7620 N   0  0  0  0  0  0  0  0  0  0  0  0
  -25.8590  -38.4950   23.8030 H   0  0  0  0  0  0  0  0  0  0  0  0
  -26.4410  -32.0350   25.5270 C   0  0  1  0  0  0  0  0  0  0  0  0
  -25.2350  -31.7430   26.4480 C   0  0  0  0  0  1  0  0  0  0  0  0
  -27.1910  -30.7010   25.2930 C   0  0  0  0  0  1  0  0  0  0  0  0
  -27.4160  -32.9640   26.2920 C   0  0  0  0  0  1  0  0  0  0  0  0
  -29.5640  -18.6580   20.7610 C   0  0  0  0  0  2  0  0  0  0  0  0
  -30.8510  -17.8040   20.7370 C   0  0  0  0  0  2  0  0  0  0  0  0
  -30.4390  -16.3180   20.9050 C   0  0  0  0  0  2  0  0  0  0  0  0
  -31.7500  -14.4310   19.9440 C   0  0  0  0  0  0  0  0  0  0  0  0
  -31.1860  -12.2480   18.9500 C   0  0  0  0  0  2  0  0  0  0  0  0
  -30.2100  -12.4070   17.7670 C   0  0  0  0  0  2  0  0  0  0  0  0
  -28.7510  -12.3990   18.2590 C   0  0  0  0  0  2  0  0  0  0  0  0
  -28.5190  -13.3680   19.4470 C   0  0  0  0  0  3  0  0  0  0  0  0
  -29.6080  -13.1900   20.5350 C   0  0  0  0  0  2  0  0  0  0  0  0
  -30.9300  -13.3400   19.9050 N   0  0  0  0  0  0  0  0  0  0  0  0
  -32.7790  -14.5190   19.2790 O   0  0  0  0  0  0  0  0  0  0  0  0
  -31.5370  -15.3510   20.8900 N   0  0  0  0  0  0  0  0  0  0  0  0
  -32.4050  -15.7570   21.2080 H   0  0  0  0  0  0  0  0  0  0  0  0
  -26.2390  -14.1990   20.3050 C   0  0  0  0  0  0  0  0  0  0  0  0
  -25.1140  -13.5330   20.7080 C   0  0  0  0  0  0  0  0  0  0  0  0
  -25.4280  -12.1400   20.6190 C   0  0  0  0  0  0  0  0  0  0  0  0
  -27.1720  -13.2220   19.9940 N   0  0  0  0  0  0  0  0  0  0  0  0
  -26.6880  -11.9770   20.2380 N   0  0  0  0  0  0  0  0  0  0  0  0
  -24.5820  -10.9560   20.8130 C   0  0  0  0  0  0  0  0  0  0  0  0
  -24.9050   -9.9690   21.7700 C   0  0  0  0  0  3  0  0  0  0  0  0
  -24.0690   -8.8450   21.9510 C   0  0  0  0  0  3  0  0  0  0  0  0
  -22.8970   -8.7010   21.1700 C   0  0  0  0  0  0  0  0  0  0  0  0
  -22.5940   -9.6740   20.2010 C   0  0  0  0  0  3  0  0  0  0  0  0
  -23.4280  -10.7900   20.0220 C   0  0  0  0  0  3  0  0  0  0  0  0
  -22.0360   -7.6350   21.2580 O   0  0  0  0  0  0  0  0  0  0  0  0
  -21.7910   -7.0080   22.4520 C   0  0  0  0  0  0  0  0  0  0  0  0
  -21.2750   -7.7000   23.5700 C   0  0  0  0  0  3  0  0  0  0  0  0
  -20.9720   -6.9970   24.7540 C   0  0  0  0  0  3  0  0  0  0  0  0
  -21.1780   -5.6070   24.8220 C   0  0  0  0  0  0  0  0  0  0  0  0
  -21.6880   -4.9160   23.7090 C   0  0  0  0  0  3  0  0  0  0  0  0
  -21.9910   -5.6150   22.5280 C   0  0  0  0  0  0  0  0  0  0  0  0
  -22.4620   -4.9380   21.4520 F   0  0  0  0  0  0  0  0  0  0  0  0
  -20.8810   -4.9340   25.9590 F   0  0  0  0  0  0  0  0  0  0  0  0
  -23.7880  -14.1410   21.0690 C   0  0  0  0  0  0  0  0  0  0  0  0
  -23.0570  -13.5160   21.9840 N   0  0  0  0  0  0  0  0  0  0  0  0
  -23.4190  -15.2060   20.5740 O   0  0  0  0  0  0  0  0  0  0  0  0
  -23.3700  -12.6520   22.4020 H   0  0  0  0  0  0  0  0  0  0  0  0
  -22.1710  -13.9060   22.2790 H   0  0  0  0  0  0  0  0  0  0  0  0
  -26.5490  -15.5500   20.1580 N   0  0  0  0  0  0  0  0  0  0  0  0
  -25.8740  -16.2830   20.3420 H   0  0  0  0  0  0  0  0  0  0  0  0
  -27.4210  -15.8970   19.7800 H   0  0  0  0  0  0  0  0  0  0  0  0
  1  7  1  0
  2 52  1  0
  2  1  1  0
  3  1  1  0
  4  2  1  0
  5  3  1  0
  6  5  1  0
  6  4  1  0
  7  8  1  0
  9  8  1  0
  9 10  1  0
 11 10  1  0
 12 23  2  0
 13 11  1  0
 13 18  1  0
 14 22  1  0
 14 24  1  0
 15 17  1  0
 16 22  1  0
 17 18  2  0
 17 16  1  0
 19 13  2  0
 20 19  1  0
 20 15  2  0
 21 15  1  0
 21 14  1  0
 22 12  1  0
 24 26  2  0
 25 24  1  0
 27 25  1  0
 28 37  2  0
 28 33  1  0
 29 25  1  0
 29 33  1  0
 30 29  1  0
 31 32  1  0
 31 30  1  0
 32 28  1  0
 33 34  2  0
 34 35  1  0
 36 35  2  0
 37 36  1  0
 38 12  1  0
 38 39  1  0
 38 48  1  0
 39 42  1  0
 40 44  1  0
 40 39  1  0
 41 40  2  0
 44 43  1  0
 46 47  1  0
 46 44  1  0
 46 45  1  0
 48 51  1  1
 48 49  1  0
 50 48  1  0
 53 52  1  0
 53 54  1  0
 55 63  1  0
 56 61  1  0
 57 58  1  0
 57 56  1  0
 59 58  1  0
 59 68  1  0
 59 60  1  0
 61 55  1  0
 61 60  1  0
 62 55  2  0
 63 54  1  0
 63 64  1  0
 65 66  2  0
 66 85  1  0
 67 66  1  0
 67 70  1  0
 68 69  1  0
 68 65  1  0
 69 67  2  0
 70 71  1  0
 71 72  2  0
 73 76  1  0
 73 72  1  0
 74 73  2  0
 75 74  1  0
 75 70  2  0
 76 77  1  0
 77 82  2  0
 77 78  1  0
 78 79  2  0
 79 80  1  0
 80 84  1  0
 81 80  2  0
 82 81  1  0
 83 82  1  0
 85 86  1  0
 86 89  1  0
 86 88  1  0
 87 85  2  0
 90 65  1  0
 90 91  1  0
 92 90  1  0
M  ISO  4  10 101  11 101  55 100  63 100
M  END
>  <TORSDO>  (70) 
F 23

>  <SCORE>  (70) 
-11.238

>  <name>  (70) 
71

>  <ligand_id>  (70) 
71

>  <original_smiles>  (70) 
[H]c1c([H])c([H])c2c(c1[H])C([H])([H])C([H])([H])C([H])([H])C2([H])N([H])C(=O)C1([H])N(C(=O)C([H])(N([H])C(=O)C([H])(N([H])C([H])([H])[H])C([H])([H])[H])C(C([H])([H])[H])(C([H])([H])[H])C([H])([H])[H])C([H])([H])c2c([H])c(OC([H])([H])C([H])([H])C([H])([H])C([H])([H])C3=C(C([H])([H])C([H])([H])C([H])([H])N([H])C(=O)N4C([H])([H])C([H])([H])C([H])([H])C([H])(n5nc(-c6c([H])c([H])c(Oc7c([H])c([H])c(F)c([H])c7F)c([H])c6[H])c(C(=O)N([H])[H])c5N([H])[H])C4([H])[H])C([H])([H])C([H])([H])C([H])([H])C3([H])[H])c([H])c([H])c2C1([H])[H]

>  <smiles>  (70) 
[H]c1c([H])c([H])c2c(c1[H])C([H])([H])C([H])([H])C([H])([H])C2([H])N([H])C(=O)C1([H])N(C(=O)C([H])(N([H])C(=O)C([H])(N([H])C([H])([H])[H])C([H])([H])[H])C(C([H])([H])[H])(C([H])([H])[H])C([H])([H])[H])C([H])([H])c2c([H])c(OC([H])([H])C([H])([H])C([H])([H])C([H])([H])C3=C(C([H])([H])C([H])([H])C([H])([H])N([H])C(=O)N4C([H])([H])C([H])([H])C([H])([H])C([H])(n5nc(-c6c([H])c([H])c(Oc7c([H])c([H])c(F)c([H])c7F)c([H])c6[H])c(C(=O)N([H])[H])c5N([H])[H])C4([H])[H])C([H])([H])C([H])([H])C([H])([H])C3([H])[H])c([H])c([H])c2C1([H])[H]

$$$$
72:0:0
     RDKit          3D

 96105  0  0  1  0  0  0  0  0999 V2000
  -29.8490  -19.9350   18.9740 C   0  0  0  0  0  2  0  0  0  0  0  0
  -28.9570  -20.9410   20.9910 C   0  0  0  0  0  2  0  0  0  0  0  0
  -29.2550  -21.3160   18.6230 C   0  0  0  0  0  3  0  0  0  0  0  0
  -29.9420  -19.8700   20.5080 C   0  0  0  0  0  3  0  0  0  0  0  0
  -29.0760  -22.0700   19.9560 C   0  0  0  0  0  3  0  0  0  0  0  0
  -31.5800  -23.5680   15.7120 C   0  0  0  0  0  3  0  0  0  0  0  0
  -30.2010  -23.3630   15.5130 C   0  0  0  0  0  3  0  0  0  0  0  0
  -32.2100  -23.0410   16.8540 C   0  0  0  0  0  3  0  0  0  0  0  0
  -29.4530  -22.6300   16.4550 C   0  0  0  0  0  3  0  0  0  0  0  0
  -31.4630  -22.3080   17.7980 C   0  0  0  0  0  3  0  0  0  0  0  0
  -30.0800  -22.0950   17.6020 C   0  0  0  0  0  0  0  0  0  0  0  0
  -29.7040  -18.4640   21.1060 C   0  0  0  0  0  2  0  0  0  0  0  0
  -30.8980  -17.5120   20.8950 C   0  0  0  0  0  2  0  0  0  0  0  0
  -30.8890  -16.2530   21.7930 C   0  0  0  0  0  2  0  0  0  0  0  0
  -30.6180  -14.2900   20.2800 C   0  0  0  0  0  0  0  0  0  0  0  0
  -30.1610  -12.2910   18.9040 C   0  0  0  0  0  2  0  0  0  0  0  0
  -29.1440  -12.6130   17.7930 C   0  0  0  0  0  2  0  0  0  0  0  0
  -27.7030  -12.4500   18.3100 C   0  0  0  0  0  2  0  0  0  0  0  0
  -27.4660  -13.1810   19.6580 C   0  0  0  0  0  3  0  0  0  0  0  0
  -28.5830  -12.8460   20.6700 C   0  0  0  0  0  2  0  0  0  0  0  0
  -29.8780  -13.1750   20.0470 N   0  0  0  0  0  0  0  0  0  0  0  0
  -31.6510  -14.5550   19.6560 O   0  0  0  0  0  0  0  0  0  0  0  0
  -30.1570  -15.1120   21.2350 N   0  0  0  0  0  0  0  0  0  0  0  0
  -29.2930  -14.8460   21.6850 H   0  0  0  0  0  0  0  0  0  0  0  0
  -25.1040  -13.7520   20.5070 C   0  0  0  0  0  0  0  0  0  0  0  0
  -24.0600  -12.9610   20.9100 C   0  0  0  0  0  0  0  0  0  0  0  0
  -24.5270  -11.6150   20.8160 C   0  0  0  0  0  0  0  0  0  0  0  0
  -26.1400  -12.8850   20.1980 N   0  0  0  0  0  0  0  0  0  0  0  0
  -25.8000  -11.5930   20.4390 N   0  0  0  0  0  0  0  0  0  0  0  0
  -23.8210  -10.3410   21.0090 C   0  0  0  0  0  0  0  0  0  0  0  0
  -24.2710   -9.3800   21.9400 C   0  0  0  0  0  3  0  0  0  0  0  0
  -23.5640   -8.1720   22.1200 C   0  0  0  0  0  3  0  0  0  0  0  0
  -22.3920   -7.9170   21.3700 C   0  0  0  0  0  0  0  0  0  0  0  0
  -21.9610   -8.8680   20.4270 C   0  0  0  0  0  3  0  0  0  0  0  0
  -22.6690  -10.0670   20.2450 C   0  0  0  0  0  3  0  0  0  0  0  0
  -21.6550   -6.7610   21.4580 O   0  0  0  0  0  0  0  0  0  0  0  0
  -21.5980   -6.0310   22.6190 C   0  0  0  0  0  0  0  0  0  0  0  0
  -21.0730   -6.5710   23.8130 C   0  0  0  0  0  3  0  0  0  0  0  0
  -20.9700   -5.7640   24.9640 C   0  0  0  0  0  3  0  0  0  0  0  0
  -21.3800   -4.4190   24.9220 C   0  0  0  0  0  0  0  0  0  0  0  0
  -21.8980   -3.8780   23.7320 C   0  0  0  0  0  3  0  0  0  0  0  0
  -22.0040   -4.6810   22.5830 C   0  0  0  0  0  0  0  0  0  0  0  0
  -22.4830   -4.1500   21.4330 F   0  0  0  0  0  0  0  0  0  0  0  0
  -21.2730   -3.6410   26.0250 F   0  0  0  0  0  0  0  0  0  0  0  0
  -22.6770  -13.4200   21.2700 C   0  0  0  0  0  0  0  0  0  0  0  0
  -21.9990  -12.6890   22.1480 N   0  0  0  0  0  0  0  0  0  0  0  0
  -22.2070  -14.4590   20.8090 O   0  0  0  0  0  0  0  0  0  0  0  0
  -22.3930  -11.8480   22.5420 H   0  0  0  0  0  0  0  0  0  0  0  0
  -21.0730  -12.9780   22.4320 H   0  0  0  0  0  0  0  0  0  0  0  0
  -25.2510  -15.1280   20.3600 N   0  0  0  0  0  0  0  0  0  0  0  0
  -24.4900  -15.7770   20.5310 H   0  0  0  0  0  0  0  0  0  0  0  0
  -26.0870  -15.5810   20.0140 H   0  0  0  0  0  0  0  0  0  0  0  0
  -27.8790  -23.0490   19.9550 C   0  0  0  0  0  2  0  0  0  0  0  0
  -28.0930  -24.3380   20.7740 C   0  0  0  0  0  2  0  0  0  0  0  0
  -28.8050  -25.4550   19.9740 C   0  0  0  0  0  2  0  0  0  0  0  0
  -28.6620  -26.7510   20.5660 O   0  0  0  0  0  0  0  0  0  0  0  0
  -24.6030  -31.9050   23.2900 C   0  0  0  0  0  0  0  0  0  0  0  0
  -27.4580  -27.4230   20.4630 C   0  0  0  0  0  0  0  0  0  0  0  0
  -23.4970  -30.4410   21.6310 C   0  0  0  0  0  3  0  0  0  0  0  0
  -25.0390  -28.8890   20.3230 C   0  0  0  0  0  0  0  0  0  0  0  0
  -26.0250  -30.8310   21.5480 C   0  0  0  0  0  2  0  0  0  0  0  0
  -26.1590  -29.4450   20.9540 C   0  0  0  0  0  0  0  0  0  0  0  0
  -27.3660  -28.7180   21.0250 C   0  0  0  0  0  3  0  0  0  0  0  0
  -26.3140  -26.8830   19.8250 C   0  0  0  0  0  3  0  0  0  0  0  0
  -25.1110  -27.6050   19.7600 C   0  0  0  0  0  3  0  0  0  0  0  0
  -23.7830  -29.7300   20.2820 C   0  0  0  0  0  2  0  0  0  0  0  0
  -24.7240  -31.0750   22.2160 N   0  0  0  0  0  0  0  0  0  0  0  0
  -23.4930  -32.1750   23.7680 O   0  0  0  0  0  0  0  0  0  0  0  0
  -22.8140  -29.4370   22.5850 C   0  0  0  0  0  0  0  0  0  0  0  0
  -21.4950  -29.2540   22.4160 N   0  0  0  0  0  0  0  0  0  0  0  0
  -23.4680  -28.8240   23.4320 O   0  0  0  0  0  0  0  0  0  0  0  0
  -21.0280  -29.7990   21.7050 H   0  0  0  0  0  0  0  0  0  0  0  0
  -18.0890  -28.1420   22.8830 C   0  0  0  0  0  0  0  0  0  0  0  0
  -20.6500  -28.3310   23.1750 C   0  0  0  0  0  3  0  0  0  0  0  0
  -20.7210  -26.9030   22.5880 C   0  0  0  0  0  2  0  0  0  0  0  0
  -19.6180  -26.6170   21.5640 C   0  0  0  0  0  2  0  0  0  0  0  0
  -18.2370  -26.7940   22.2010 C   0  0  0  0  0  2  0  0  0  0  0  0
  -19.2240  -28.8710   23.3280 C   0  0  0  0  0  0  0  0  0  0  0  0
  -19.0350  -30.1360   23.9260 C   0  0  0  0  0  3  0  0  0  0  0  0
  -17.7430  -30.6720   24.0840 C   0  0  0  0  0  3  0  0  0  0  0  0
  -16.6220  -29.9390   23.6580 C   0  0  0  0  0  3  0  0  0  0  0  0
  -16.7970  -28.6760   23.0630 C   0  0  0  0  0  3  0  0  0  0  0  0
  -25.8480  -32.5700   23.9530 C   0  0  0  0  0  3  0  0  0  0  0  0
  -25.4990  -33.9670   24.2420 N   0  0  0  0  0  0  0  0  0  0  0  0
  -25.8390  -35.0100   23.4720 C   0  0  0  0  0  0  0  0  0  0  0  0
  -26.5490  -34.8990   22.4690 O   0  0  0  0  0  0  0  0  0  0  0  0
  -24.8700  -34.1260   25.0160 H   0  0  0  0  0  0  0  0  0  0  0  0
  -24.0910  -36.7590   23.0120 C   0  0  0  0  0  1  0  0  0  0  0  0
  -25.3080  -36.3970   23.8800 C   0  0  0  0  0  3  0  0  0  0  0  0
  -27.3840  -37.3490   24.7810 C   0  0  0  0  0  1  0  0  0  0  0  0
  -26.3230  -37.4680   23.7840 N   0  0  0  0  0  0  0  0  0  0  0  0
  -25.8930  -38.3830   23.8870 H   0  0  0  0  0  0  0  0  0  0  0  0
  -26.3240  -31.8300   25.2640 C   0  0  1  0  0  0  0  0  0  0  0  0
  -25.1890  -31.5780   26.2820 C   0  0  0  0  0  1  0  0  0  0  0  0
  -26.9640  -30.4650   24.9190 C   0  0  0  0  0  1  0  0  0  0  0  0
  -27.4220  -32.6640   25.9660 C   0  0  0  0  0  1  0  0  0  0  0  0
  1  4  1  0
  3 11  1  0
  3  1  1  0
  3  5  1  0
  4  2  1  0
  4 12  1  0
  5 53  1  0
  5  2  1  0
  6  8  1  0
  7  6  2  0
  7  9  1  0
  8 10  2  0
  9 11  2  0
 11 10  1  0
 13 12  1  0
 13 14  1  0
 15 23  1  0
 16 21  1  0
 17 18  1  0
 17 16  1  0
 19 18  1  0
 19 28  1  0
 19 20  1  0
 21 15  1  0
 21 20  1  0
 22 15  2  0
 23 24  1  0
 23 14  1  0
 25 26  2  0
 26 45  1  0
 27 26  1  0
 27 30  1  0
 28 29  1  0
 28 25  1  0
 29 27  2  0
 30 31  1  0
 31 32  2  0
 33 36  1  0
 33 32  1  0
 34 33  2  0
 35 34  1  0
 35 30  2  0
 36 37  1  0
 37 38  1  0
 38 39  2  0
 40 39  1  0
 40 44  1  0
 41 40  2  0
 42 37  2  0
 42 41  1  0
 43 42  1  0
 45 46  1  0
 46 49  1  0
 46 48  1  0
 47 45  2  0
 50 25  1  0
 50 51  1  0
 52 50  1  0
 53 54  1  0
 55 56  1  0
 55 54  1  0
 57 68  2  0
 58 56  1  0
 58 63  1  0
 59 67  1  0
 59 69  1  0
 60 62  1  0
 61 67  1  0
 62 63  2  0
 62 61  1  0
 64 58  2  0
 65 64  1  0
 65 60  2  0
 66 60  1  0
 66 59  1  0
 67 57  1  0
 69 71  2  0
 70 69  1  0
 72 70  1  0
 73 82  2  0
 73 78  1  0
 74 70  1  0
 74 78  1  0
 75 74  1  0
 76 77  1  0
 76 75  1  0
 77 73  1  0
 78 79  2  0
 79 80  1  0
 81 80  2  0
 82 81  1  0
 83 57  1  0
 83 84  1  0
 83 93  1  0
 84 87  1  0
 85 89  1  0
 85 84  1  0
 86 85  2  0
 89 88  1  0
 91 89  1  0
 91 92  1  0
 91 90  1  0
 93 96  1  1
 93 94  1  0
 95 93  1  0
M  ISO  4  15 100  23 100  55 101  56 101
M  END
>  <TORSDO>  (71) 
F 23

>  <SCORE>  (71) 
-12.757

>  <name>  (71) 
72

>  <ligand_id>  (71) 
72

>  <original_smiles>  (71) 
[H]c1c([H])c([H])c(C2([H])C([H])([H])C([H])(C([H])([H])C([H])([H])C([H])([H])N([H])C(=O)N3C([H])([H])C([H])([H])C([H])([H])C([H])(n4nc(-c5c([H])c([H])c(Oc6c([H])c([H])c(F)c([H])c6F)c([H])c5[H])c(C(=O)N([H])[H])c4N([H])[H])C3([H])[H])C([H])([H])C2([H])C([H])([H])C([H])([H])C([H])([H])Oc2c([H])c([H])c3c(c2[H])C([H])([H])N(C(=O)C([H])(N([H])C(=O)C([H])(N([H])C([H])([H])[H])C([H])([H])[H])C(C([H])([H])[H])(C([H])([H])[H])C([H])([H])[H])C([H])(C(=O)N([H])C2([H])c4c([H])c([H])c([H])c([H])c4C([H])([H])C([H])([H])C2([H])[H])C3([H])[H])c([H])c1[H]

>  <smiles>  (71) 
[H]c1c([H])c([H])c(C2([H])C([H])([H])C([H])(C([H])([H])C([H])([H])C([H])([H])N([H])C(=O)N3C([H])([H])C([H])([H])C([H])([H])C([H])(n4nc(-c5c([H])c([H])c(Oc6c([H])c([H])c(F)c([H])c6F)c([H])c5[H])c(C(=O)N([H])[H])c4N([H])[H])C3([H])[H])C([H])([H])C2([H])C([H])([H])C([H])([H])C([H])([H])Oc2c([H])c([H])c3c(c2[H])C([H])([H])N(C(=O)C([H])(N([H])C(=O)C([H])(N([H])C([H])([H])[H])C([H])([H])[H])C(C([H])([H])[H])(C([H])([H])[H])C([H])([H])[H])C([H])(C(=O)N([H])C2([H])c4c([H])c([H])c([H])c([H])c4C([H])([H])C([H])([H])C2([H])[H])C3([H])[H])c([H])c1[H]

$$$$
73:0:0
     RDKit          3D

 95 95  0  0  1  0  0  0  0  0999 V2000
  -23.1990  -14.0200   19.0260 C   0  0  0  0  0  3  0  0  0  0  0  0
  -23.5960  -15.6140   18.9210 C   0  0  0  0  0  2  0  0  0  0  0  0
  -21.8660  -13.9180   18.3040 C   0  0  0  0  0  2  0  0  0  0  0  0
  -22.4420  -16.2490   18.1630 C   0  0  0  0  0  2  0  0  0  0  0  0
  -21.2610  -15.3040   18.2040 C   0  0  0  0  0  2  0  0  0  0  0  0
  -24.6290  -11.8130   18.5210 C   0  0  0  0  0  3  0  0  0  0  0  0
  -23.5390  -11.2670   21.4200 C   0  0  0  0  0 15  0  0  0  0  0  0
  -26.1510  -11.1290   18.9280 C   0  0  0  0  0  3  0  0  0  0  0  0
  -25.3360  -10.6140   21.9200 C   0  0  0  0  0  1  0  0  0  0  0  0
  -23.3400  -12.1490   19.6070 C   0  0  0  0  0  2  0  0  0  0  0  0
  -26.6970  -10.6630   20.4940 C   0  0  0  0  0  2  0  0  0  0  0  0
  -28.4740  -11.2600   20.4240 C   0  0  0  0  0  1  0  0  0  0  0  0
  -30.7590  -13.5910   21.0670 C   0  0  0  0  0  3  0  0  0  0  0  0
  -30.7790  -11.3790   19.5000 C   0  0  0  0  0  1  0  0  0  0  0  0
  -29.5460  -12.0400   18.1930 C   0  0  0  0  0  3  0  0  0  0  0  0
  -28.1100  -13.1390   18.6990 C   0  0  0  0  0  3  0  0  0  0  0  0
  -27.6900  -13.6910   20.4800 C   0  0  0  0  0  3  0  0  0  0  0  0
  -28.7400  -13.0390   22.0140 C   0  0  0  0  0  1  0  0  0  0  0  0
  -30.3240  -12.3910   21.1310 N   0  0  0  0  0  2  0  0  0  0  0  0
  -31.6810  -14.2600   20.5700 O   0  0  0  0  0  1  0  0  0  0  0  0
  -29.8730  -13.1010   20.2530 N   0  0  0  0  0  0  0  0  0  0  0  0
  -29.8310  -13.5610   19.3600 H   0  0  0  0  0  0  0  0  0  0  0  0
  -25.4760  -14.4100   21.3120 C   0  0  0  0  0  3  0  0  0  0  0  0
  -24.5700  -13.5640   21.7820 C   0  0  0  0  0  3  0  0  0  0  0  0
  -25.3420  -12.4490   21.1540 C   0  0  0  0  0  3  0  0  0  0  0  0
  -26.4160  -13.6110   20.7990 N   0  0  1  0  0  4  0  0  0  0  0  0
  -26.3290  -12.9010   21.7800 N   0  0  0  0  0  2  0  0  0  0  0  0
  -24.6040   -9.7700   20.5860 C   0  0  0  0  0  3  0  0  0  0  0  0
  -24.9070   -8.5680   21.4640 C   0  0  0  0  0  2  0  0  0  0  0  0
  -24.0080   -7.6970   22.1360 C   0  0  0  0  0  2  0  0  0  0  0  0
  -22.7440   -7.5330   21.5870 C   0  0  0  0  0  0  0  0  0  0  0  0
  -22.4270   -8.3680   20.5130 C   0  0  0  0  0  3  0  0  0  0  0  0
  -23.3180   -9.3480   20.0100 C   0  0  0  0  0  2  0  0  0  0  0  0
  -21.9160   -6.4590   21.8160 O   0  0  0  0  0  0  0  0  0  0  0  0
  -21.8720   -5.7590   22.9960 C   0  0  0  0  0  0  0  0  0  0  0  0
  -21.2620   -6.3260   24.1320 C   0  0  0  0  0  3  0  0  0  0  0  0
  -21.0510   -5.5450   25.2870 C   0  0  0  0  0  3  0  0  0  0  0  0
  -21.4470   -4.1950   25.3080 C   0  0  0  0  0  0  0  0  0  0  0  0
  -22.0710   -3.6290   24.1810 C   0  0  0  0  0  3  0  0  0  0  0  0
  -22.2790   -4.4060   23.0270 C   0  0  0  0  0  0  0  0  0  0  0  0
  -22.8440   -3.8370   21.9340 F   0  0  0  0  0  0  0  0  0  0  0  0
  -21.2270   -3.4390   26.4100 F   0  0  0  0  0  0  0  0  0  0  0  0
  -23.0700  -13.8230   22.2580 C   0  0  0  0  0  0  0  0  0  0  0  0
  -22.4230  -13.1110   23.1850 N   0  0  0  0  0  0  0  0  0  0  0  0
  -22.3410  -14.6310   21.7160 O   0  0  0  0  0  0  0  0  0  0  0  0
  -22.9090  -12.3890   23.6960 H   0  0  0  0  0  0  0  0  0  0  0  0
  -21.4600  -13.3150   23.4010 H   0  0  0  0  0  0  0  0  0  0  0  0
  -25.6700  -15.7180   21.4130 N   0  0  0  0  0  0  0  0  0  0  0  0
  -24.9710  -16.3480   21.7840 H   0  0  0  0  0  0  0  0  0  0  0  0
  -26.5030  -16.1920   21.0940 H   0  0  0  0  0  0  0  0  0  0  0  0
  -24.6850  -17.2730   19.0950 C   0  0  0  0  0 15  0  0  0  0  0  0
  -24.7510  -19.2930   19.5360 C   0  0  0  0  0 15  0  0  0  0  0  0
  -25.8740  -21.0330   19.4840 C   0  0  0  0  0 15  0  0  0  0  0  0
  -25.9550  -23.0740   19.8170 C   0  0  0  0  0 15  0  0  0  0  0  0
  -26.9470  -24.6600   19.9420 O   0  0  0  0  0  1  0  0  0  0  0  0
  -24.5240  -31.4900   23.0390 C   0  0  0  0  0  0  0  0  0  0  0  0
  -26.5150  -26.1680   19.9580 C   0  0  0  0  0  0  0  0  0  0  0  0
  -23.3230  -30.1180   21.4270 C   0  0  0  0  0  3  0  0  0  0  0  0
  -24.6740  -28.5080   19.9260 C   0  0  0  0  0  0  0  0  0  0  0  0
  -25.9100  -30.1230   21.3220 C   0  0  0  0  0  2  0  0  0  0  0  0
  -25.8720  -28.6950   20.6200 C   0  0  0  0  0  0  0  0  0  0  0  0
  -26.8180  -27.5250   20.6240 C   0  0  0  0  0  3  0  0  0  0  0  0
  -25.4330  -26.3180   19.1140 C   0  0  0  0  0  3  0  0  0  0  0  0
  -24.5190  -27.3750   19.1370 C   0  0  0  0  0  3  0  0  0  0  0  0
  -23.5330  -29.5130   20.0200 C   0  0  0  0  0  2  0  0  0  0  0  0
  -24.6200  -30.6190   21.9750 N   0  0  0  0  0  0  0  0  0  0  0  0
  -23.4280  -31.7950   23.5440 O   0  0  0  0  0  0  0  0  0  0  0  0
  -22.6370  -29.0950   22.3720 C   0  0  0  0  0  0  0  0  0  0  0  0
  -21.3090  -28.9130   22.2480 N   0  0  0  0  0  0  0  0  0  0  0  0
  -23.3060  -28.4800   23.2070 O   0  0  0  0  0  0  0  0  0  0  0  0
  -20.8160  -29.4650   21.5600 H   0  0  0  0  0  0  0  0  0  0  0  0
  -17.9470  -27.6330   22.7500 C   0  0  0  0  0  0  0  0  0  0  0  0
  -20.5000  -27.9650   23.0240 C   0  0  0  0  0  3  0  0  0  0  0  0
  -20.6370  -26.5290   22.4680 C   0  0  0  0  0  2  0  0  0  0  0  0
  -19.5510  -26.1700   21.4480 C   0  0  0  0  0  2  0  0  0  0  0  0
  -18.1610  -26.2850   22.0820 C   0  0  0  0  0  2  0  0  0  0  0  0
  -19.0440  -28.4280   23.1780 C   0  0  0  0  0  0  0  0  0  0  0  0
  -18.7870  -29.6850   23.7680 C   0  0  0  0  0  3  0  0  0  0  0  0
  -17.4680  -30.1490   23.9280 C   0  0  0  0  0  3  0  0  0  0  0  0
  -16.3860  -29.3530   23.5130 C   0  0  0  0  0  3  0  0  0  0  0  0
  -16.6270  -28.0960   22.9300 C   0  0  0  0  0  3  0  0  0  0  0  0
  -25.7770  -32.1610   23.6700 C   0  0  0  0  0  3  0  0  0  0  0  0
  -25.4240  -33.5570   24.0120 N   0  0  0  0  0  0  0  0  0  0  0  0
  -25.7410  -34.6400   23.2910 C   0  0  0  0  0  0  0  0  0  0  0  0
  -26.4240  -34.5740   22.2670 O   0  0  0  0  0  0  0  0  0  0  0  0
  -24.8140  -33.6810   24.8060 H   0  0  0  0  0  0  0  0  0  0  0  0
  -23.9880  -36.4260   22.9740 C   0  0  0  0  0  1  0  0  0  0  0  0
  -25.2290  -36.0130   23.7810 C   0  0  0  0  0  3  0  0  0  0  0  0
  -27.3400  -36.9210   24.6530 C   0  0  0  0  0  1  0  0  0  0  0  0
  -26.2440  -37.0880   23.7030 N   0  0  0  0  0  0  0  0  0  0  0  0
  -25.8200  -37.9970   23.8630 H   0  0  0  0  0  0  0  0  0  0  0  0
  -26.2860  -31.4170   24.9660 C   0  0  1  0  0  0  0  0  0  0  0  0
  -25.1860  -31.1830   26.0300 C   0  0  0  0  0  1  0  0  0  0  0  0
  -26.8890  -30.0380   24.6210 C   0  0  0  0  0  1  0  0  0  0  0  0
  -27.4220  -32.2340   25.6240 C   0  0  0  0  0  1  0  0  0  0  0  0
  1 10  1  0
  2  1  1  0
  3  1  1  0
  4  5  1  0
  4  2  1  0
  5  3  1  0
  6  8  2  0
  6 10  1  0
  8 11  1  0
 12 11  1  0
 13 20  1  0
 13 19  1  0
 15 16  2  0
 15 14  1  0
 16 17  1  0
 17 18  1  0
 21 13  1  0
 21 19  1  0
 22 21  1  0
 23 48  1  0
 23 24  1  0
 24 43  1  0
 25 27  1  0
 25 24  1  0
 26 17  1  1
 26 25  1  0
 26 23  1  0
 26 27  1  0
 28 29  1  0
 28  9  1  0
 29 30  1  0
 31 34  1  0
 31 30  1  0
 32 31  2  0
 33 32  1  0
 33 28  1  0
 34 35  1  0
 35 40  2  0
 35 36  1  0
 36 37  2  0
 37 38  1  0
 38 42  1  0
 39 38  2  0
 40 39  1  0
 41 40  1  0
 43 44  1  0
 44 47  1  0
 44 46  1  0
 45 43  2  0
 48 49  1  0
 50 48  1  0
 55 57  1  0
 56 67  2  0
 57 62  1  0
 58 66  1  0
 58 68  1  0
 59 65  1  0
 59 61  1  0
 60 66  1  0
 61 62  2  0
 61 60  1  0
 63 64  1  0
 63 57  2  0
 64 59  2  0
 65 58  1  0
 66 56  1  0
 68 70  2  0
 69 68  1  0
 71 69  1  0
 72 81  2  0
 72 77  1  0
 73 69  1  0
 73 77  1  0
 74 73  1  0
 75 76  1  0
 75 74  1  0
 76 72  1  0
 77 78  2  0
 78 79  1  0
 80 79  2  0
 81 80  1  0
 82 56  1  0
 82 83  1  0
 82 92  1  0
 83 86  1  0
 84 88  1  0
 84 83  1  0
 85 84  2  0
 88 87  1  0
 90 88  1  0
 90 91  1  0
 90 89  1  0
 92 95  1  1
 92 93  1  0
 94 92  1  0
M  ISO  4  13 100  21 100  54 101  55 101
M  END
>  <TORSDO>  (72) 
F 22

>  <SCORE>  (72) 
13.298

>  <name>  (72) 
73

>  <ligand_id>  (72) 
73

>  <original_smiles>  (72) 
[H]c1c([H])c([H])c2c(c1[H])C([H])([H])C([H])([H])C([H])([H])C2([H])N([H])C(=O)C1([H])N(C(=O)C([H])(N([H])C(=O)C([H])(N([H])C([H])([H])[H])C([H])([H])[H])C(C([H])([H])[H])(C([H])([H])[H])C([H])([H])[H])C([H])([H])c2c([H])c(OC([H])([H])C([H])([H])C([H])([H])C([H])([H])C3=C(c4c([H])c([H])c(C([H])([H])N([H])C(=O)N5C([H])([H])C([H])([H])C([H])([H])C([H])(n6nc(-c7c([H])c([H])c(Oc8c([H])c([H])c(F)c([H])c8F)c([H])c7[H])c(C(=O)N([H])[H])c6N([H])[H])C5([H])[H])c([H])c4[H])C([H])([H])C([H])([H])C3([H])[H])c([H])c([H])c2C1([H])[H]

>  <smiles>  (72) 
[H]c1c([H])c([H])c2c(c1[H])C([H])([H])C([H])([H])C([H])([H])C2([H])N([H])C(=O)C1([H])N(C(=O)C([H])(N([H])C(=O)C([H])(N([H])C([H])([H])[H])C([H])([H])[H])C(C([H])([H])[H])(C([H])([H])[H])C([H])([H])[H])C([H])([H])c2c([H])c(OC([H])([H])C([H])([H])C([H])([H])C([H])([H])C3=C(c4c([H])c([H])c(C([H])([H])N([H])C(=O)N5C([H])([H])C([H])([H])C([H])([H])C([H])(n6nc(-c7c([H])c([H])c(Oc8c([H])c([H])c(F)c([H])c8F)c([H])c7[H])c(C(=O)N([H])[H])c6N([H])[H])C5([H])[H])c([H])c4[H])C([H])([H])C([H])([H])C3([H])[H])c([H])c([H])c2C1([H])[H]

$$$$
74:0:0
     RDKit          3D

 98107  0  0  1  0  0  0  0  0999 V2000
  -30.7570  -19.1370   24.0390 C   0  0  0  0  0  3  0  0  0  0  0  0
  -30.7640  -17.8400   23.4670 C   0  0  0  0  0  3  0  0  0  0  0  0
  -29.5850  -18.6800   21.4970 C   0  0  0  0  0  3  0  0  0  0  0  0
  -30.2070  -20.1960   23.2980 C   0  0  0  0  0  0  0  0  0  0  0  0
  -29.6340  -19.9780   22.0510 C   0  0  0  0  0  0  0  0  0  0  0  0
  -30.2120  -17.6020   22.1800 C   0  0  0  0  0  0  0  0  0  0  0  0
  -30.1580  -21.6280   23.6260 C   0  0  0  0  0  0  0  0  0  0  0  0
  -29.1760  -21.2750   21.4120 C   0  0  0  0  0  2  0  0  0  0  0  0
  -29.5510  -22.3880   22.4360 C   0  0  0  0  0  3  0  0  0  0  0  0
  -30.5380  -22.1710   24.6680 O   0  0  0  0  0  0  0  0  0  0  0  0
  -30.3400  -16.2030   21.5300 C   0  0  0  0  0  2  0  0  0  0  0  0
  -31.0120  -16.1460   20.1040 C   0  0  1  0  0  0  0  0  0  0  0  0
  -31.3540  -14.6900   19.5330 C   0  0  0  0  0  0  0  0  0  0  0  0
  -30.7940  -12.4930   18.5310 C   0  0  0  0  0  2  0  0  0  0  0  0
  -29.7360  -12.6820   17.4250 C   0  0  0  0  0  2  0  0  0  0  0  0
  -28.3180  -12.5980   18.0160 C   0  0  0  0  0  2  0  0  0  0  0  0
  -28.1560  -13.4330   19.3170 C   0  0  0  0  0  3  0  0  0  0  0  0
  -29.3490  -13.2560   20.2870 C   0  0  0  0  0  2  0  0  0  0  0  0
  -30.5860  -13.5500   19.5550 N   0  0  0  0  0  0  0  0  0  0  0  0
  -32.3780  -14.6510   18.8500 O   0  0  0  0  0  0  0  0  0  0  0  0
  -25.9230  -14.0330   20.4390 C   0  0  0  0  0  0  0  0  0  0  0  0
  -24.8890  -13.2590   20.8970 C   0  0  0  0  0  0  0  0  0  0  0  0
  -25.2810  -11.9050   20.6750 C   0  0  0  0  0  0  0  0  0  0  0  0
  -26.8830  -13.1480   19.9760 N   0  0  0  0  0  0  0  0  0  0  0  0
  -26.5080  -11.8570   20.1720 N   0  0  0  0  0  0  0  0  0  0  0  0
  -24.5350  -10.6520   20.8590 C   0  0  0  0  0  0  0  0  0  0  0  0
  -25.0010   -9.6330   21.7190 C   0  0  0  0  0  3  0  0  0  0  0  0
  -24.2540   -8.4470   21.9000 C   0  0  0  0  0  3  0  0  0  0  0  0
  -23.0260   -8.2740   21.2150 C   0  0  0  0  0  0  0  0  0  0  0  0
  -22.5790   -9.2800   20.3390 C   0  0  0  0  0  3  0  0  0  0  0  0
  -23.3250  -10.4560   20.1610 C   0  0  0  0  0  3  0  0  0  0  0  0
  -22.2430   -7.1490   21.3090 O   0  0  0  0  0  0  0  0  0  0  0  0
  -22.0940   -6.4720   22.4930 C   0  0  0  0  0  0  0  0  0  0  0  0
  -21.5970   -7.1050   23.6540 C   0  0  0  0  0  3  0  0  0  0  0  0
  -21.3920   -6.3570   24.8310 C   0  0  0  0  0  3  0  0  0  0  0  0
  -21.6730   -4.9780   24.8470 C   0  0  0  0  0  0  0  0  0  0  0  0
  -22.1640   -4.3440   23.6910 C   0  0  0  0  0  3  0  0  0  0  0  0
  -22.3700   -5.0900   22.5160 C   0  0  0  0  0  0  0  0  0  0  0  0
  -22.8220   -4.4700   21.3990 F   0  0  0  0  0  0  0  0  0  0  0  0
  -21.4720   -4.2570   25.9760 F   0  0  0  0  0  0  0  0  0  0  0  0
  -23.5710  -13.7510   21.4200 C   0  0  0  0  0  0  0  0  0  0  0  0
  -22.9770  -13.0210   22.3590 N   0  0  0  0  0  0  0  0  0  0  0  0
  -23.0860  -14.8140   21.0350 O   0  0  0  0  0  0  0  0  0  0  0  0
  -23.3970  -12.1650   22.6860 H   0  0  0  0  0  0  0  0  0  0  0  0
  -22.0960  -13.3190   22.7540 H   0  0  0  0  0  0  0  0  0  0  0  0
  -26.1160  -15.4080   20.3560 N   0  0  0  0  0  0  0  0  0  0  0  0
  -25.3850  -16.0630   20.6060 H   0  0  0  0  0  0  0  0  0  0  0  0
  -26.9200  -15.8570   19.9340 H   0  0  0  0  0  0  0  0  0  0  0  0
  -30.3750  -16.7510   17.5790 C   0  0  0  0  0  1  0  0  0  0  0  0
  -30.0340  -16.8300   19.0800 C   0  0  0  0  0  2  0  0  0  0  0  0
  -32.4080  -18.4630   19.7640 C   0  0  0  0  0  1  0  0  0  0  0  0
  -32.3760  -16.9790   20.2020 C   0  0  0  0  0  2  0  0  0  0  0  0
  -30.5250  -23.4740   21.9010 C   0  0  0  0  0  2  0  0  0  0  0  0
  -29.8690  -24.5970   21.0840 C   0  0  0  0  0  0  0  0  0  0  0  0
  -28.6600  -24.5850   20.8390 O   0  0  0  0  0  0  0  0  0  0  0  0
  -30.7880  -25.7220   20.5750 C   0  0  0  0  0  2  0  0  0  0  0  0
  -30.1130  -27.0990   20.3580 C   0  0  0  0  0  2  0  0  0  0  0  0
  -29.2190  -27.0910   19.2380 O   0  0  0  0  0  0  0  0  0  0  0  0
  -24.8950  -30.9410   23.3980 C   0  0  0  0  0  0  0  0  0  0  0  0
  -27.9840  -27.6680   19.4340 C   0  0  0  0  0  0  0  0  0  0  0  0
  -23.8060  -29.6750   21.5680 C   0  0  0  0  0  3  0  0  0  0  0  0
  -25.3800  -28.7000   19.8110 C   0  0  0  0  0  0  0  0  0  0  0  0
  -26.2130  -30.5030   21.3320 C   0  0  0  0  0  2  0  0  0  0  0  0
  -26.4730  -29.3070   20.4440 C   0  0  0  0  0  0  0  0  0  0  0  0
  -27.7750  -28.7990   20.2570 C   0  0  0  0  0  3  0  0  0  0  0  0
  -26.8810  -27.0850   18.7810 C   0  0  0  0  0  3  0  0  0  0  0  0
  -25.5780  -27.5870   18.9740 C   0  0  0  0  0  3  0  0  0  0  0  0
  -24.0180  -29.3010   20.0750 C   0  0  0  0  0  2  0  0  0  0  0  0
  -24.9910  -30.3790   22.1590 N   0  0  0  0  0  0  0  0  0  0  0  0
  -23.8290  -30.9210   24.0290 O   0  0  0  0  0  0  0  0  0  0  0  0
  -23.4020  -28.4020   22.3430 C   0  0  0  0  0  0  0  0  0  0  0  0
  -22.1670  -27.9280   22.1120 N   0  0  0  0  0  0  0  0  0  0  0  0
  -24.1970  -27.8480   23.1060 O   0  0  0  0  0  0  0  0  0  0  0  0
  -21.5730  -28.4450   21.4780 H   0  0  0  0  0  0  0  0  0  0  0  0
  -19.2770  -25.7630   22.0430 C   0  0  0  0  0  0  0  0  0  0  0  0
  -21.5860  -26.7220   22.6990 C   0  0  0  0  0  3  0  0  0  0  0  0
  -22.1830  -25.4470   22.0590 C   0  0  0  0  0  2  0  0  0  0  0  0
  -21.3590  -24.9230   20.8780 C   0  0  0  0  0  2  0  0  0  0  0  0
  -19.9300  -24.5980   21.3190 C   0  0  0  0  0  2  0  0  0  0  0  0
  -20.0540  -26.7690   22.6760 C   0  0  0  0  0  0  0  0  0  0  0  0
  -19.3960  -27.8490   23.3040 C   0  0  0  0  0  3  0  0  0  0  0  0
  -17.9910  -27.9340   23.3060 C   0  0  0  0  0  3  0  0  0  0  0  0
  -17.2260  -26.9290   22.6910 C   0  0  0  0  0  3  0  0  0  0  0  0
  -17.8690  -25.8440   22.0670 C   0  0  0  0  0  3  0  0  0  0  0  0
  -26.1090  -31.6560   24.0680 C   0  0  0  0  0  3  0  0  0  0  0  0
  -25.7260  -33.0540   24.3030 N   0  0  0  0  0  0  0  0  0  0  0  0
  -26.1100  -34.0840   23.5370 C   0  0  0  0  0  0  0  0  0  0  0  0
  -26.8920  -33.9620   22.5900 O   0  0  0  0  0  0  0  0  0  0  0  0
  -25.0420  -33.2220   25.0250 H   0  0  0  0  0  0  0  0  0  0  0  0
  -24.4050  -35.8160   22.8880 C   0  0  0  0  0  1  0  0  0  0  0  0
  -25.5320  -35.4720   23.8750 C   0  0  0  0  0  3  0  0  0  0  0  0
  -27.5210  -36.4300   24.9500 C   0  0  0  0  0  1  0  0  0  0  0  0
  -26.5460  -36.5490   23.8690 N   0  0  0  0  0  0  0  0  0  0  0  0
  -26.1010  -37.4600   23.9430 H   0  0  0  0  0  0  0  0  0  0  0  0
  -26.5720  -30.9710   25.4120 C   0  0  1  0  0  0  0  0  0  0  0  0
  -25.4270  -30.7620   26.4300 C   0  0  0  0  0  1  0  0  0  0  0  0
  -27.2110  -29.5910   25.1280 C   0  0  0  0  0  1  0  0  0  0  0  0
  -27.6640  -31.8320   26.0890 C   0  0  0  0  0  1  0  0  0  0  0  0
  2  1  1  0
  3  5  2  0
  3  6  1  0
  4  7  1  0
  4  1  2  0
  5  4  1  0
  6  2  2  0
  7 10  2  0
  8  5  1  0
  8  9  1  0
  9 53  1  0
  9  7  1  0
 11  6  1  0
 12 52  1  1
 12 11  1  0
 13 19  1  0
 13 12  1  0
 14 19  1  0
 15 16  1  0
 15 14  1  0
 17 16  1  0
 17 24  1  0
 17 18  1  0
 19 18  1  0
 20 13  2  0
 21 22  2  0
 22 41  1  0
 23 26  1  0
 23 22  1  0
 24 25  1  0
 24 21  1  0
 25 23  2  0
 26 27  1  0
 27 28  2  0
 29 32  1  0
 29 28  1  0
 30 29  2  0
 31 30  1  0
 31 26  2  0
 32 33  1  0
 33 38  2  0
 33 34  1  0
 34 35  2  0
 35 36  1  0
 36 40  1  0
 37 36  2  0
 38 37  1  0
 39 38  1  0
 41 42  1  0
 42 44  1  0
 42 45  1  0
 43 41  2  0
 46 21  1  0
 46 47  1  0
 48 46  1  0
 49 50  1  0
 50 12  1  0
 51 52  1  0
 54 53  1  0
 55 54  2  0
 56 54  1  0
 57 56  1  0
 58 60  1  0
 58 57  1  0
 59 70  2  0
 60 65  1  0
 61 69  1  0
 61 71  1  0
 62 68  1  0
 62 64  1  0
 63 69  1  0
 64 63  1  0
 65 64  2  0
 66 67  1  0
 66 60  2  0
 67 62  2  0
 68 61  1  0
 69 59  1  0
 71 73  2  0
 72 71  1  0
 74 72  1  0
 75 84  2  0
 75 80  1  0
 76 72  1  0
 77 76  1  0
 78 79  1  0
 78 77  1  0
 79 75  1  0
 80 76  1  0
 80 81  2  0
 81 82  1  0
 83 82  2  0
 84 83  1  0
 85 59  1  0
 85 86  1  0
 85 95  1  0
 86 89  1  0
 87 91  1  0
 87 86  1  0
 88 87  2  0
 91 90  1  0
 93 91  1  0
 93 94  1  0
 93 92  1  0
 95 98  1  1
 95 96  1  0
 97 95  1  0
M  ISO  4  12 100  13 100  57 101  58 101
M  END
>  <TORSDO>  (73) 
F 24

>  <SCORE>  (73) 
-7.225

>  <name>  (73) 
74

>  <ligand_id>  (73) 
74

>  <original_smiles>  (73) 
[H]c1c([H])c([H])c2c(c1[H])C([H])([H])C([H])([H])C([H])([H])C2([H])N([H])C(=O)C1([H])N(C(=O)C([H])(N([H])C(=O)C([H])(N([H])C([H])([H])[H])C([H])([H])[H])C(C([H])([H])[H])(C([H])([H])[H])C([H])([H])[H])C([H])([H])c2c([H])c(OC([H])([H])C([H])([H])C(=O)C([H])([H])C3([H])C(=O)c4c([H])c([H])c(C([H])([H])C(C(=O)N5C([H])([H])C([H])([H])C([H])([H])C([H])(n6nc(-c7c([H])c([H])c(Oc8c([H])c([H])c(F)c([H])c8F)c([H])c7[H])c(C(=O)N([H])[H])c6N([H])[H])C5([H])[H])(C([H])([H])C([H])([H])[H])C([H])([H])C([H])([H])[H])c([H])c4C3([H])[H])c([H])c([H])c2C1([H])[H]

>  <smiles>  (73) 
[H]c1c([H])c([H])c2c(c1[H])C([H])([H])C([H])([H])C([H])([H])C2([H])N([H])C(=O)C1([H])N(C(=O)C([H])(N([H])C(=O)C([H])(N([H])C([H])([H])[H])C([H])([H])[H])C(C([H])([H])[H])(C([H])([H])[H])C([H])([H])[H])C([H])([H])c2c([H])c(OC([H])([H])C([H])([H])C(=O)C([H])([H])C3([H])C(=O)c4c([H])c([H])c(C([H])([H])C(C(=O)N5C([H])([H])C([H])([H])C([H])([H])C([H])(n6nc(-c7c([H])c([H])c(Oc8c([H])c([H])c(F)c([H])c8F)c([H])c7[H])c(C(=O)N([H])[H])c6N([H])[H])C5([H])[H])(C([H])([H])C([H])([H])[H])C([H])([H])C([H])([H])[H])c([H])c4C3([H])[H])c([H])c([H])c2C1([H])[H]

$$$$
75:0:0
     RDKit          3D

 93100  0  0  1  0  0  0  0  0999 V2000
  -29.3990  -19.3410   20.7860 C   0  0  0  0  0  3  0  0  0  0  0  0
  -29.8100  -20.6310   20.0130 C   0  0  0  0  0  3  0  0  0  0  0  0
  -28.9890  -21.9280   20.3030 C   0  0  0  0  0  2  0  0  0  0  0  0
  -29.6140  -23.1800   19.6210 C   0  0  0  0  0  2  0  0  0  0  0  0
  -28.7380  -24.4520   19.3780 C   0  0  0  0  0  2  0  0  0  0  0  0
  -28.4620  -25.3870   20.5830 C   0  0  0  0  0  2  0  0  0  0  0  0
  -28.4670  -26.7840   20.2190 O   0  0  0  0  0  0  0  0  0  0  0  0
  -24.5980  -31.9480   23.2520 C   0  0  0  0  0  0  0  0  0  0  0  0
  -27.2740  -27.4810   20.2250 C   0  0  0  0  0  0  0  0  0  0  0  0
  -23.3990  -30.5210   21.6260 C   0  0  0  0  0  3  0  0  0  0  0  0
  -24.8620  -28.9710   20.2170 C   0  0  0  0  0  0  0  0  0  0  0  0
  -25.9210  -30.8930   21.4190 C   0  0  0  0  0  2  0  0  0  0  0  0
  -26.0180  -29.5150   20.7940 C   0  0  0  0  0  0  0  0  0  0  0  0
  -27.2250  -28.7820   20.7840 C   0  0  0  0  0  3  0  0  0  0  0  0
  -26.1010  -26.9480   19.6490 C   0  0  0  0  0  3  0  0  0  0  0  0
  -24.9000  -27.6880   19.6410 C   0  0  0  0  0  3  0  0  0  0  0  0
  -23.6120  -29.8230   20.2550 C   0  0  0  0  0  2  0  0  0  0  0  0
  -24.6580  -31.1370   22.1570 N   0  0  0  0  0  0  0  0  0  0  0  0
  -23.5160  -32.2170   23.7930 O   0  0  0  0  0  0  0  0  0  0  0  0
  -22.7550  -29.5060   22.6000 C   0  0  0  0  0  0  0  0  0  0  0  0
  -21.4320  -29.3120   22.4730 N   0  0  0  0  0  0  0  0  0  0  0  0
  -23.4430  -28.8970   23.4220 O   0  0  0  0  0  0  0  0  0  0  0  0
  -20.9370  -29.8550   21.7790 H   0  0  0  0  0  0  0  0  0  0  0  0
  -18.0680  -28.0950   22.9810 C   0  0  0  0  0  0  0  0  0  0  0  0
  -20.6230  -28.3760   23.2540 C   0  0  0  0  0  3  0  0  0  0  0  0
  -20.7370  -26.9390   22.6930 C   0  0  0  0  0  2  0  0  0  0  0  0
  -19.6410  -26.5980   21.6800 C   0  0  0  0  0  2  0  0  0  0  0  0
  -18.2560  -26.7400   22.3180 C   0  0  0  0  0  2  0  0  0  0  0  0
  -19.1790  -28.8690   23.4050 C   0  0  0  0  0  0  0  0  0  0  0  0
  -18.9500  -30.1380   23.9800 C   0  0  0  0  0  3  0  0  0  0  0  0
  -17.6410  -30.6320   24.1370 C   0  0  0  0  0  3  0  0  0  0  0  0
  -16.5450  -29.8540   23.7300 C   0  0  0  0  0  3  0  0  0  0  0  0
  -16.7590  -28.5870   23.1580 C   0  0  0  0  0  3  0  0  0  0  0  0
  -25.8800  -32.5930   23.8640 C   0  0  0  0  0  3  0  0  0  0  0  0
  -26.4130  -31.8320   25.1400 C   0  0  1  0  0  0  0  0  0  0  0  0
  -25.3290  -31.5860   26.2160 C   0  0  0  0  0  1  0  0  0  0  0  0
  -27.0080  -30.4610   24.7460 C   0  0  0  0  0  1  0  0  0  0  0  0
  -27.5580  -32.6420   25.7930 C   0  0  0  0  0  1  0  0  0  0  0  0
  -25.5610  -33.9890   24.1890 N   0  0  0  0  0  0  0  0  0  0  0  0
  -25.8910  -35.0410   23.4290 C   0  0  0  0  0  0  0  0  0  0  0  0
  -26.5670  -34.9390   22.4010 O   0  0  0  0  0  0  0  0  0  0  0  0
  -24.9610  -34.1430   24.9860 H   0  0  0  0  0  0  0  0  0  0  0  0
  -24.1600  -36.8260   23.0510 C   0  0  0  0  0  1  0  0  0  0  0  0
  -25.3920  -36.4280   23.8790 C   0  0  0  0  0  3  0  0  0  0  0  0
  -27.5120  -37.3210   24.7360 C   0  0  0  0  0  1  0  0  0  0  0  0
  -26.4210  -37.4860   23.7790 N   0  0  0  0  0  0  0  0  0  0  0  0
  -26.0100  -38.4040   23.9210 H   0  0  0  0  0  0  0  0  0  0  0  0
  -29.9480  -17.9630   20.2490 C   0  0  0  0  0  3  0  0  0  0  0  0
  -29.0500  -17.3530   19.1310 C   0  0  0  0  0  2  0  0  0  0  0  0
  -29.0200  -18.1070   17.8000 C   0  0  0  0  0  0  0  0  0  0  0  0
  -27.8380  -18.2880   17.2220 N   0  0  0  0  0  0  0  0  0  0  0  0
  -30.0580  -18.4910   17.2640 O   0  0  0  0  0  0  0  0  0  0  0  0
  -26.9890  -17.9500   17.6530 H   0  0  0  0  0  0  0  0  0  0  0  0
  -27.7770  -18.7540   16.3280 H   0  0  0  0  0  0  0  0  0  0  0  0
  -30.1950  -16.9470   21.4220 C   0  0  0  0  0  2  0  0  0  0  0  0
  -30.6920  -14.5650   20.5890 C   0  0  0  0  0  0  0  0  0  0  0  0
  -30.4560  -12.4350   19.3520 C   0  0  0  0  0  2  0  0  0  0  0  0
  -29.5290  -12.6660   18.1400 C   0  0  0  0  0  2  0  0  0  0  0  0
  -28.0450  -12.5100   18.5370 C   0  0  0  0  0  2  0  0  0  0  0  0
  -27.6860  -13.3090   19.8190 C   0  0  0  0  0  3  0  0  0  0  0  0
  -28.7190  -13.0360   20.9350 C   0  0  0  0  0  2  0  0  0  0  0  0
  -30.0520  -13.3770   20.4060 N   0  0  0  0  0  0  0  0  0  0  0  0
  -31.8220  -14.8000   20.1530 O   0  0  0  0  0  0  0  0  0  0  0  0
  -29.9250  -15.5190   21.1530 N   0  0  0  0  0  0  0  0  0  0  0  0
  -29.0100  -15.1960   21.4320 H   0  0  0  0  0  0  0  0  0  0  0  0
  -25.2650  -13.9140   20.4510 C   0  0  0  0  0  0  0  0  0  0  0  0
  -24.1920  -13.1410   20.8060 C   0  0  0  0  0  0  0  0  0  0  0  0
  -24.6620  -11.7920   20.8090 C   0  0  0  0  0  0  0  0  0  0  0  0
  -26.3210  -13.0350   20.2640 N   0  0  0  0  0  0  0  0  0  0  0  0
  -25.9600  -11.7550   20.5350 N   0  0  0  0  0  0  0  0  0  0  0  0
  -23.9400  -10.5280   21.0020 C   0  0  0  0  0  0  0  0  0  0  0  0
  -24.3520   -9.5810   21.9640 C   0  0  0  0  0  3  0  0  0  0  0  0
  -23.6310   -8.3790   22.1420 C   0  0  0  0  0  3  0  0  0  0  0  0
  -22.4830   -8.1200   21.3580 C   0  0  0  0  0  0  0  0  0  0  0  0
  -22.0910   -9.0560   20.3840 C   0  0  0  0  0  3  0  0  0  0  0  0
  -22.8130  -10.2480   20.2050 C   0  0  0  0  0  3  0  0  0  0  0  0
  -21.7350   -6.9700   21.4430 O   0  0  0  0  0  0  0  0  0  0  0  0
  -21.6540   -6.2480   22.6050 C   0  0  0  0  0  0  0  0  0  0  0  0
  -21.1860   -6.8210   23.8090 C   0  0  0  0  0  3  0  0  0  0  0  0
  -21.0540   -6.0260   24.9630 C   0  0  0  0  0  3  0  0  0  0  0  0
  -21.3820   -4.6570   24.9170 C   0  0  0  0  0  0  0  0  0  0  0  0
  -21.8420   -4.0830   23.7190 C   0  0  0  0  0  3  0  0  0  0  0  0
  -21.9750   -4.8760   22.5660 C   0  0  0  0  0  0  0  0  0  0  0  0
  -22.4000   -4.3140   21.4080 F   0  0  0  0  0  0  0  0  0  0  0  0
  -21.2480   -3.8880   26.0230 F   0  0  0  0  0  0  0  0  0  0  0  0
  -22.7850  -13.6130   21.0350 C   0  0  0  0  0  0  0  0  0  0  0  0
  -22.0370  -12.9250   21.8910 N   0  0  0  0  0  0  0  0  0  0  0  0
  -22.3540  -14.6260   20.4850 O   0  0  0  0  0  0  0  0  0  0  0  0
  -22.3970  -12.1040   22.3550 H   0  0  0  0  0  0  0  0  0  0  0  0
  -21.0900  -13.2220   22.0840 H   0  0  0  0  0  0  0  0  0  0  0  0
  -25.4280  -15.2820   20.2570 N   0  0  0  0  0  0  0  0  0  0  0  0
  -24.6570  -15.9360   20.3290 H   0  0  0  0  0  0  0  0  0  0  0  0
  -26.2920  -15.7180   19.9640 H   0  0  0  0  0  0  0  0  0  0  0  0
  2  3  1  0
  2  1  2  0
  4  3  1  0
  5  4  1  0
  5  6  1  0
  7  9  1  0
  7  6  1  0
  8 19  2  0
  9 14  1  0
 10 18  1  0
 10 20  1  0
 11 17  1  0
 11 13  1  0
 12 18  1  0
 13 12  1  0
 14 13  2  0
 15  9  2  0
 16 15  1  0
 16 11  2  0
 17 10  1  0
 18  8  1  0
 20 22  2  0
 21 20  1  0
 23 21  1  0
 24 33  2  0
 24 29  1  0
 25 21  1  0
 25 29  1  0
 26 25  1  0
 27 28  1  0
 27 26  1  0
 28 24  1  0
 29 30  2  0
 30 31  1  0
 32 31  2  0
 33 32  1  0
 34  8  1  0
 34 39  1  0
 34 35  1  0
 35 38  1  1
 35 36  1  0
 37 35  1  0
 39 42  1  0
 40 44  1  0
 40 39  1  0
 41 40  2  0
 44 43  1  0
 46 44  1  0
 46 47  1  0
 46 45  1  0
 48 49  1  0
 48  1  1  0
 48 55  1  0
 50 49  1  0
 51 53  1  0
 51 50  1  0
 52 50  2  0
 54 51  1  0
 56 64  1  0
 57 62  1  0
 58 59  1  0
 58 57  1  0
 60 59  1  0
 60 69  1  0
 60 61  1  0
 62 56  1  0
 62 61  1  0
 63 56  2  0
 64 55  1  0
 64 65  1  0
 66 67  2  0
 67 68  1  0
 67 86  1  0
 68 71  1  0
 69 66  1  0
 69 70  1  0
 70 68  2  0
 71 72  1  0
 72 73  2  0
 74 77  1  0
 74 73  1  0
 75 74  2  0
 76 75  1  0
 76 71  2  0
 77 78  1  0
 78 79  1  0
 79 80  2  0
 81 80  1  0
 81 85  1  0
 82 81  2  0
 83 78  2  0
 83 82  1  0
 84 83  1  0
 86 87  1  0
 87 90  1  0
 87 89  1  0
 88 86  2  0
 91 92  1  0
 91 66  1  0
 93 91  1  0
M  ISO  4   6 101   7 101  56 100  64 100
M  END
>  <TORSDO>  (74) 
F 25

>  <SCORE>  (74) 
-12.210

>  <name>  (74) 
75

>  <ligand_id>  (74) 
75

>  <original_smiles>  (74) 
[H]c1c([H])c([H])c2c(c1[H])C([H])([H])C([H])([H])C([H])([H])C2([H])N([H])C(=O)C1([H])N(C(=O)C([H])(N([H])C(=O)C([H])(N([H])C([H])([H])[H])C([H])([H])[H])C(C([H])([H])[H])(C([H])([H])[H])C([H])([H])[H])C([H])([H])c2c([H])c(OC([H])([H])C([H])([H])C([H])([H])C([H])([H])C([H])([H])C([H])([H])C([H])(C([H])([H])C(=O)N([H])[H])C([H])([H])N([H])C(=O)N3C([H])([H])C([H])([H])C([H])([H])C([H])(n4nc(-c5c([H])c([H])c(Oc6c([H])c([H])c(F)c([H])c6F)c([H])c5[H])c(C(=O)N([H])[H])c4N([H])[H])C3([H])[H])c([H])c([H])c2C1([H])[H]

>  <smiles>  (74) 
[H]c1c([H])c([H])c2c(c1[H])C([H])([H])C([H])([H])C([H])([H])C2([H])N([H])C(=O)C1([H])N(C(=O)C([H])(N([H])C(=O)C([H])(N([H])C([H])([H])[H])C([H])([H])[H])C(C([H])([H])[H])(C([H])([H])[H])C([H])([H])[H])C([H])([H])c2c([H])c(OC([H])([H])C([H])([H])C([H])([H])C([H])([H])C([H])([H])C([H])([H])C([H])(C([H])([H])C(=O)N([H])[H])C([H])([H])N([H])C(=O)N3C([H])([H])C([H])([H])C([H])([H])C([H])(n4nc(-c5c([H])c([H])c(Oc6c([H])c([H])c(F)c([H])c6F)c([H])c5[H])c(C(=O)N([H])[H])c4N([H])[H])C3([H])[H])c([H])c([H])c2C1([H])[H]

$$$$
76:0:0
     RDKit          3D

 95103  0  0  1  0  0  0  0  0999 V2000
  -27.9890  -22.4440   22.0250 C   0  0  0  0  0  2  0  0  0  0  0  0
  -28.4370  -21.0050   21.7800 C   0  0  0  0  0  2  0  0  0  0  0  0
  -29.2050  -22.4320   19.9490 C   0  0  0  0  0  2  0  0  0  0  0  0
  -28.9860  -23.2730   21.2210 C   0  0  0  0  0  3  0  0  0  0  0  0
  -28.9450  -20.9340   20.3130 C   0  0  2  0  0  0  0  0  0  0  0  0
  -27.8470  -20.3760   19.3630 C   0  0  0  0  0  0  0  0  0  0  0  0
  -28.2360  -19.7660   18.2500 N   0  0  0  0  0  0  0  0  0  0  0  0
  -26.6500  -20.5140   19.6080 O   0  0  0  0  0  0  0  0  0  0  0  0
  -29.2200  -19.6680   18.0470 H   0  0  0  0  0  0  0  0  0  0  0  0
  -27.5550  -19.4030   17.5990 H   0  0  0  0  0  0  0  0  0  0  0  0
  -28.5150  -24.7320   21.0180 C   0  0  0  0  0  2  0  0  0  0  0  0
  -29.3900  -25.5780   20.0670 C   0  0  0  0  0  2  0  0  0  0  0  0
  -29.2100  -26.9830   20.2750 O   0  0  0  0  0  0  0  0  0  0  0  0
  -24.7020  -31.6280   23.1900 C   0  0  0  0  0  0  0  0  0  0  0  0
  -27.9500  -27.5400   20.2010 C   0  0  0  0  0  0  0  0  0  0  0  0
  -23.7380  -30.1560   21.4500 C   0  0  0  0  0  3  0  0  0  0  0  0
  -25.4170  -28.7960   20.0940 C   0  0  0  0  0  0  0  0  0  0  0  0
  -26.2220  -30.7620   21.4140 C   0  0  0  0  0  2  0  0  0  0  0  0
  -26.4790  -29.4200   20.7590 C   0  0  0  0  0  0  0  0  0  0  0  0
  -27.7450  -28.8000   20.8080 C   0  0  0  0  0  3  0  0  0  0  0  0
  -26.8680  -26.9230   19.5340 C   0  0  0  0  0  3  0  0  0  0  0  0
  -25.6060  -27.5450   19.4810 C   0  0  0  0  0  3  0  0  0  0  0  0
  -24.0950  -29.5290   20.0750 C   0  0  0  0  0  2  0  0  0  0  0  0
  -24.9020  -30.8630   22.0780 N   0  0  0  0  0  0  0  0  0  0  0  0
  -23.5690  -31.7820   23.6660 O   0  0  0  0  0  0  0  0  0  0  0  0
  -23.1340  -29.0550   22.3490 C   0  0  0  0  0  0  0  0  0  0  0  0
  -21.8290  -28.7890   22.1710 N   0  0  0  0  0  0  0  0  0  0  0  0
  -23.8340  -28.4450   23.1620 O   0  0  0  0  0  0  0  0  0  0  0  0
  -21.3230  -29.3380   21.4900 H   0  0  0  0  0  0  0  0  0  0  0  0
  -18.5120  -27.4190   22.5840 C   0  0  0  0  0  0  0  0  0  0  0  0
  -21.0560  -27.7680   22.8760 C   0  0  0  0  0  3  0  0  0  0  0  0
  -21.2190  -26.3830   22.2060 C   0  0  0  0  0  2  0  0  0  0  0  0
  -20.1310  -26.0820   21.1720 C   0  0  0  0  0  2  0  0  0  0  0  0
  -18.7450  -26.1260   21.8220 C   0  0  0  0  0  2  0  0  0  0  0  0
  -19.5980  -28.1980   23.0660 C   0  0  0  0  0  0  0  0  0  0  0  0
  -19.3270  -29.4110   23.7360 C   0  0  0  0  0  3  0  0  0  0  0  0
  -18.0020  -29.8450   23.9330 C   0  0  0  0  0  3  0  0  0  0  0  0
  -16.9300  -29.0620   23.4670 C   0  0  0  0  0  3  0  0  0  0  0  0
  -17.1860  -27.8510   22.8000 C   0  0  0  0  0  3  0  0  0  0  0  0
  -25.8820  -32.3620   23.9010 C   0  0  0  0  0  3  0  0  0  0  0  0
  -25.4440  -33.7350   24.1800 N   0  0  0  0  0  0  0  0  0  0  0  0
  -25.7230  -34.7940   23.4080 C   0  0  0  0  0  0  0  0  0  0  0  0
  -26.4480  -34.7240   22.4120 O   0  0  0  0  0  0  0  0  0  0  0  0
  -24.8020  -33.8580   24.9500 H   0  0  0  0  0  0  0  0  0  0  0  0
  -23.8570  -36.4130   22.9380 C   0  0  0  0  0  1  0  0  0  0  0  0
  -25.1000  -36.1470   23.8030 C   0  0  0  0  0  3  0  0  0  0  0  0
  -27.1160  -37.2420   24.6760 C   0  0  0  0  0  1  0  0  0  0  0  0
  -26.0400  -37.2830   23.6910 N   0  0  0  0  0  0  0  0  0  0  0  0
  -25.5490  -38.1670   23.7940 H   0  0  0  0  0  0  0  0  0  0  0  0
  -26.3530  -31.6450   25.2250 C   0  0  1  0  0  0  0  0  0  0  0  0
  -25.1930  -31.2660   26.1750 C   0  0  0  0  0  1  0  0  0  0  0  0
  -27.1340  -30.3520   24.8950 C   0  0  0  0  0  1  0  0  0  0  0  0
  -27.3270  -32.5630   26.0010 C   0  0  0  0  0  1  0  0  0  0  0  0
  -30.2590  -20.0910   20.2570 C   0  0  0  0  0  2  0  0  0  0  0  0
  -30.1610  -18.6250   20.7630 C   0  0  0  0  0  2  0  0  0  0  0  0
  -31.5200  -17.8970   20.7450 C   0  0  0  0  0  2  0  0  0  0  0  0
  -31.6260  -16.6990   21.7160 C   0  0  0  0  0  2  0  0  0  0  0  0
  -31.4240  -14.5790   20.4160 C   0  0  0  0  0  0  0  0  0  0  0  0
  -31.0040  -12.4610   19.2230 C   0  0  0  0  0  2  0  0  0  0  0  0
  -30.0660  -12.6910   18.0220 C   0  0  0  0  0  2  0  0  0  0  0  0
  -28.5920  -12.6100   18.4590 C   0  0  0  0  0  2  0  0  0  0  0  0
  -28.2930  -13.4770   19.7110 C   0  0  0  0  0  3  0  0  0  0  0  0
  -29.3370  -13.2190   20.8200 C   0  0  0  0  0  2  0  0  0  0  0  0
  -30.6750  -13.4570   20.2520 N   0  0  0  0  0  0  0  0  0  0  0  0
  -32.4930  -14.7690   19.8280 O   0  0  0  0  0  0  0  0  0  0  0  0
  -30.9260  -15.4950   21.2620 N   0  0  0  0  0  0  0  0  0  0  0  0
  -30.0410  -15.2790   21.6960 H   0  0  0  0  0  0  0  0  0  0  0  0
  -25.9450  -14.1960   20.4870 C   0  0  0  0  0  0  0  0  0  0  0  0
  -24.8350  -13.4730   20.8290 C   0  0  0  0  0  0  0  0  0  0  0  0
  -25.2080  -12.0980   20.7180 C   0  0  0  0  0  0  0  0  0  0  0  0
  -26.9300  -13.2640   20.1930 N   0  0  0  0  0  0  0  0  0  0  0  0
  -26.4890  -11.9950   20.3870 N   0  0  0  0  0  0  0  0  0  0  0  0
  -24.4050  -10.8750   20.8510 C   0  0  0  0  0  0  0  0  0  0  0  0
  -24.7880   -9.8330   21.7240 C   0  0  0  0  0  3  0  0  0  0  0  0
  -23.9910   -8.6750   21.8480 C   0  0  0  0  0  3  0  0  0  0  0  0
  -22.7960   -8.5520   21.0980 C   0  0  0  0  0  0  0  0  0  0  0  0
  -22.4340   -9.5820   20.2130 C   0  0  0  0  0  3  0  0  0  0  0  0
  -23.2310  -10.7320   20.0880 C   0  0  0  0  0  3  0  0  0  0  0  0
  -21.9730   -7.4530   21.1350 O   0  0  0  0  0  0  0  0  0  0  0  0
  -21.8220   -6.7040   22.2750 C   0  0  0  0  0  0  0  0  0  0  0  0
  -21.3850   -7.2750   23.4890 C   0  0  0  0  0  3  0  0  0  0  0  0
  -21.1770   -6.4560   24.6180 C   0  0  0  0  0  3  0  0  0  0  0  0
  -21.3970   -5.0690   24.5320 C   0  0  0  0  0  0  0  0  0  0  0  0
  -21.8260   -4.4970   23.3210 C   0  0  0  0  0  3  0  0  0  0  0  0
  -22.0350   -5.3120   22.1950 C   0  0  0  0  0  0  0  0  0  0  0  0
  -22.4290   -4.7540   21.0250 F   0  0  0  0  0  0  0  0  0  0  0  0
  -21.1890   -4.2810   25.6120 F   0  0  0  0  0  0  0  0  0  0  0  0
  -23.4740  -14.0210   21.1510 C   0  0  0  0  0  0  0  0  0  0  0  0
  -22.7230  -13.3350   22.0060 N   0  0  0  0  0  0  0  0  0  0  0  0
  -23.0880  -15.0900   20.6810 O   0  0  0  0  0  0  0  0  0  0  0  0
  -23.0490  -12.4670   22.4070 H   0  0  0  0  0  0  0  0  0  0  0  0
  -21.8100  -13.6820   22.2630 H   0  0  0  0  0  0  0  0  0  0  0  0
  -26.1960  -15.5610   20.3830 N   0  0  0  0  0  0  0  0  0  0  0  0
  -25.4790  -16.2580   20.5510 H   0  0  0  0  0  0  0  0  0  0  0  0
  -27.0770  -15.9610   20.0890 H   0  0  0  0  0  0  0  0  0  0  0  0
  2  1  1  0
  3  5  1  0
  3  4  1  0
  4 11  1  0
  4  1  1  0
  5 54  1  1
  5  2  1  0
  6  8  2  0
  6  5  1  0
  7  6  1  0
  9  7  1  0
 10  7  1  0
 12 13  1  0
 12 11  1  0
 14 25  2  0
 15 13  1  0
 15 20  1  0
 16 24  1  0
 16 26  1  0
 17 19  1  0
 18 24  1  0
 19 20  2  0
 19 18  1  0
 21 15  2  0
 22 21  1  0
 22 17  2  0
 23 17  1  0
 23 16  1  0
 24 14  1  0
 26 28  2  0
 27 26  1  0
 29 27  1  0
 30 39  2  0
 30 35  1  0
 31 27  1  0
 31 35  1  0
 32 31  1  0
 33 34  1  0
 33 32  1  0
 34 30  1  0
 35 36  2  0
 36 37  1  0
 38 37  2  0
 39 38  1  0
 40 14  1  0
 40 41  1  0
 40 50  1  0
 41 44  1  0
 42 46  1  0
 42 41  1  0
 43 42  2  0
 46 45  1  0
 48 49  1  0
 48 46  1  0
 48 47  1  0
 50 53  1  1
 50 51  1  0
 52 50  1  0
 54 55  1  0
 56 55  1  0
 56 57  1  0
 58 66  1  0
 59 64  1  0
 60 61  1  0
 60 59  1  0
 62 61  1  0
 62 71  1  0
 62 63  1  0
 64 58  1  0
 64 63  1  0
 65 58  2  0
 66 67  1  0
 66 57  1  0
 68 69  2  0
 69 88  1  0
 70 69  1  0
 70 73  1  0
 71 72  1  0
 71 68  1  0
 72 70  2  0
 73 74  1  0
 74 75  2  0
 76 79  1  0
 76 75  1  0
 77 76  2  0
 78 77  1  0
 78 73  2  0
 79 80  1  0
 80 81  1  0
 81 82  2  0
 83 82  1  0
 83 87  1  0
 84 83  2  0
 85 80  2  0
 85 84  1  0
 86 85  1  0
 88 89  1  0
 89 92  1  0
 89 91  1  0
 90 88  2  0
 93 68  1  0
 93 94  1  0
 95 93  1  0
M  ISO  4  12 101  13 101  58 100  66 100
M  END
>  <TORSDO>  (75) 
F 23

>  <SCORE>  (75) 
-10.602

>  <name>  (75) 
76

>  <ligand_id>  (75) 
76

>  <original_smiles>  (75) 
[H]c1c([H])c([H])c2c(c1[H])C([H])([H])C([H])([H])C([H])([H])C2([H])N([H])C(=O)C1([H])N(C(=O)C([H])(N([H])C(=O)C([H])(N([H])C([H])([H])[H])C([H])([H])[H])C(C([H])([H])[H])(C([H])([H])[H])C([H])([H])[H])C([H])([H])c2c([H])c(OC([H])([H])C([H])([H])C3([H])C([H])([H])C([H])([H])C(C(=O)N([H])[H])(C([H])([H])C([H])([H])C([H])([H])C([H])([H])N([H])C(=O)N4C([H])([H])C([H])([H])C([H])([H])C([H])(n5nc(-c6c([H])c([H])c(Oc7c([H])c([H])c(F)c([H])c7F)c([H])c6[H])c(C(=O)N([H])[H])c5N([H])[H])C4([H])[H])C3([H])[H])c([H])c([H])c2C1([H])[H]

>  <smiles>  (75) 
[H]c1c([H])c([H])c2c(c1[H])C([H])([H])C([H])([H])C([H])([H])C2([H])N([H])C(=O)C1([H])N(C(=O)C([H])(N([H])C(=O)C([H])(N([H])C([H])([H])[H])C([H])([H])[H])C(C([H])([H])[H])(C([H])([H])[H])C([H])([H])[H])C([H])([H])c2c([H])c(OC([H])([H])C([H])([H])C3([H])C([H])([H])C([H])([H])C(C(=O)N([H])[H])(C([H])([H])C([H])([H])C([H])([H])C([H])([H])N([H])C(=O)N4C([H])([H])C([H])([H])C([H])([H])C([H])(n5nc(-c6c([H])c([H])c(Oc7c([H])c([H])c(F)c([H])c7F)c([H])c6[H])c(C(=O)N([H])[H])c5N([H])[H])C4([H])[H])C3([H])[H])c([H])c([H])c2C1([H])[H]

$$$$
77:0:0
     RDKit          3D

 97105  0  0  1  0  0  0  0  0999 V2000
  -28.2190  -19.6070   19.7840 C   0  0  0  0  0  3  0  0  0  0  0  0
  -28.0220  -20.9780   19.5430 C   0  0  0  0  0  3  0  0  0  0  0  0
  -30.6130  -19.8630   19.3740 C   0  0  0  0  0  0  0  0  0  0  0  0
  -29.4970  -19.0230   19.6610 C   0  0  0  0  0  0  0  0  0  0  0  0
  -29.0960  -21.8080   19.1730 C   0  0  0  0  0  0  0  0  0  0  0  0
  -30.4140  -21.2630   19.1360 C   0  0  0  0  0  0  0  0  0  0  0  0
  -31.9860  -19.2540   19.2810 C   0  0  0  0  0  0  0  0  0  0  0  0
  -32.7670  -19.4500   20.3350 N   0  0  0  0  0  0  0  0  0  0  0  0
  -32.3450  -18.6060   18.3020 O   0  0  0  0  0  0  0  0  0  0  0  0
  -32.4170  -19.9790   21.1210 H   0  0  0  0  0  0  0  0  0  0  0  0
  -33.7030  -19.0750   20.3590 H   0  0  0  0  0  0  0  0  0  0  0  0
  -31.9210  -22.1610   17.2760 C   0  0  0  0  0  1  0  0  0  0  0  0
  -31.5920  -22.1780   18.7770 C   0  0  0  0  0  2  0  0  0  0  0  0
  -29.5910  -17.4870   19.7500 C   0  0  0  0  0  2  0  0  0  0  0  0
  -30.1710  -16.8960   21.0580 C   0  0  0  0  0  2  0  0  0  0  0  0
  -30.6670  -14.4740   20.5590 C   0  0  0  0  0  0  0  0  0  0  0  0
  -30.4030  -12.3320   19.3680 C   0  0  0  0  0  2  0  0  0  0  0  0
  -29.4750  -12.5610   18.1570 C   0  0  0  0  0  2  0  0  0  0  0  0
  -27.9930  -12.4230   18.5600 C   0  0  0  0  0  2  0  0  0  0  0  0
  -27.6420  -13.2370   19.8350 C   0  0  0  0  0  3  0  0  0  0  0  0
  -28.6790  -12.9760   20.9510 C   0  0  0  0  0  2  0  0  0  0  0  0
  -30.0160  -13.2900   20.4130 N   0  0  0  0  0  0  0  0  0  0  0  0
  -31.7780  -14.7020   20.0720 O   0  0  0  0  0  0  0  0  0  0  0  0
  -29.9360  -15.4460   21.1300 N   0  0  0  0  0  0  0  0  0  0  0  0
  -29.0500  -15.1520   21.5130 H   0  0  0  0  0  0  0  0  0  0  0  0
  -25.2270  -13.8440   20.4950 C   0  0  0  0  0  0  0  0  0  0  0  0
  -24.1550  -13.0710   20.8530 C   0  0  0  0  0  0  0  0  0  0  0  0
  -24.6210  -11.7200   20.8400 C   0  0  0  0  0  0  0  0  0  0  0  0
  -26.2790  -12.9630   20.2890 N   0  0  0  0  0  0  0  0  0  0  0  0
  -25.9150  -11.6830   20.5530 N   0  0  0  0  0  0  0  0  0  0  0  0
  -23.8960  -10.4570   21.0290 C   0  0  0  0  0  0  0  0  0  0  0  0
  -24.3170   -9.5000   21.9790 C   0  0  0  0  0  3  0  0  0  0  0  0
  -23.5940   -8.3010   22.1550 C   0  0  0  0  0  3  0  0  0  0  0  0
  -22.4360   -8.0500   21.3810 C   0  0  0  0  0  0  0  0  0  0  0  0
  -22.0360   -8.9960   20.4210 C   0  0  0  0  0  3  0  0  0  0  0  0
  -22.7590  -10.1870   20.2440 C   0  0  0  0  0  3  0  0  0  0  0  0
  -21.6860   -6.9030   21.4650 O   0  0  0  0  0  0  0  0  0  0  0  0
  -21.6170   -6.1710   22.6230 C   0  0  0  0  0  0  0  0  0  0  0  0
  -21.1610   -6.7330   23.8350 C   0  0  0  0  0  3  0  0  0  0  0  0
  -21.0410   -5.9270   24.9840 C   0  0  0  0  0  3  0  0  0  0  0  0
  -21.3670   -4.5580   24.9230 C   0  0  0  0  0  0  0  0  0  0  0  0
  -21.8160   -3.9960   23.7150 C   0  0  0  0  0  3  0  0  0  0  0  0
  -21.9370   -4.7980   22.5690 C   0  0  0  0  0  0  0  0  0  0  0  0
  -22.3500   -4.2460   21.4030 F   0  0  0  0  0  0  0  0  0  0  0  0
  -21.2440   -3.7820   26.0240 F   0  0  0  0  0  0  0  0  0  0  0  0
  -22.7520  -13.5450   21.1000 C   0  0  0  0  0  0  0  0  0  0  0  0
  -22.0100  -12.8500   21.9560 N   0  0  0  0  0  0  0  0  0  0  0  0
  -22.3190  -14.5670   20.5690 O   0  0  0  0  0  0  0  0  0  0  0  0
  -22.3730  -12.0240   22.4100 H   0  0  0  0  0  0  0  0  0  0  0  0
  -21.0670  -13.1480   22.1600 H   0  0  0  0  0  0  0  0  0  0  0  0
  -25.3910  -15.2140   20.3100 N   0  0  0  0  0  0  0  0  0  0  0  0
  -24.6190  -15.8670   20.3940 H   0  0  0  0  0  0  0  0  0  0  0  0
  -26.2430  -15.6510   19.9830 H   0  0  0  0  0  0  0  0  0  0  0  0
  -28.7700  -23.2360   18.7060 C   0  0  0  0  0  2  0  0  0  0  0  0
  -28.6270  -24.3090   19.8080 C   0  0  0  0  0  2  0  0  0  0  0  0
  -28.6770  -25.7350   19.2090 C   0  0  0  0  0  2  0  0  0  0  0  0
  -28.4360  -26.7700   20.1720 O   0  0  0  0  0  0  0  0  0  0  0  0
  -24.5860  -31.9070   23.2380 C   0  0  0  0  0  0  0  0  0  0  0  0
  -27.2330  -27.4520   20.1670 C   0  0  0  0  0  0  0  0  0  0  0  0
  -23.3760  -30.4930   21.6090 C   0  0  0  0  0  3  0  0  0  0  0  0
  -24.8250  -28.9460   20.1910 C   0  0  0  0  0  0  0  0  0  0  0  0
  -25.8990  -30.8540   21.3990 C   0  0  0  0  0  2  0  0  0  0  0  0
  -25.9840  -29.4770   20.7720 C   0  0  0  0  0  0  0  0  0  0  0  0
  -27.1850  -28.7320   20.7650 C   0  0  0  0  0  3  0  0  0  0  0  0
  -26.0470  -26.9230   19.6050 C   0  0  0  0  0  3  0  0  0  0  0  0
  -24.8510  -27.6660   19.6090 C   0  0  0  0  0  3  0  0  0  0  0  0
  -23.5810  -29.8030   20.2330 C   0  0  0  0  0  2  0  0  0  0  0  0
  -24.6390  -31.1000   22.1410 N   0  0  0  0  0  0  0  0  0  0  0  0
  -23.5060  -32.1800   23.7800 O   0  0  0  0  0  0  0  0  0  0  0  0
  -22.7280  -29.4780   22.5780 C   0  0  0  0  0  0  0  0  0  0  0  0
  -21.4050  -29.2930   22.4530 N   0  0  0  0  0  0  0  0  0  0  0  0
  -23.4150  -28.8580   23.3950 O   0  0  0  0  0  0  0  0  0  0  0  0
  -20.9120  -29.8440   21.7640 H   0  0  0  0  0  0  0  0  0  0  0  0
  -18.0300  -28.1080   22.9650 C   0  0  0  0  0  0  0  0  0  0  0  0
  -20.5890  -28.3600   23.2300 C   0  0  0  0  0  3  0  0  0  0  0  0
  -20.6880  -26.9280   22.6580 C   0  0  0  0  0  2  0  0  0  0  0  0
  -19.5830  -26.6030   21.6480 C   0  0  0  0  0  2  0  0  0  0  0  0
  -18.2030  -26.7550   22.2950 C   0  0  0  0  0  2  0  0  0  0  0  0
  -19.1520  -28.8680   23.3900 C   0  0  0  0  0  0  0  0  0  0  0  0
  -18.9380  -30.1350   23.9760 C   0  0  0  0  0  3  0  0  0  0  0  0
  -17.6360  -30.6410   24.1420 C   0  0  0  0  0  3  0  0  0  0  0  0
  -16.5290  -29.8770   23.7350 C   0  0  0  0  0  3  0  0  0  0  0  0
  -16.7270  -28.6130   23.1520 C   0  0  0  0  0  3  0  0  0  0  0  0
  -25.8730  -32.5420   23.8510 C   0  0  0  0  0  3  0  0  0  0  0  0
  -25.5640  -33.9400   24.1780 N   0  0  0  0  0  0  0  0  0  0  0  0
  -25.9010  -34.9900   23.4180 C   0  0  0  0  0  0  0  0  0  0  0  0
  -26.5740  -34.8850   22.3890 O   0  0  0  0  0  0  0  0  0  0  0  0
  -24.9680  -34.0970   24.9770 H   0  0  0  0  0  0  0  0  0  0  0  0
  -24.1810  -36.7850   23.0400 C   0  0  0  0  0  1  0  0  0  0  0  0
  -25.4100  -36.3790   23.8680 C   0  0  0  0  0  3  0  0  0  0  0  0
  -27.5340  -37.2570   24.7320 C   0  0  0  0  0  1  0  0  0  0  0  0
  -26.4470  -37.4290   23.7720 N   0  0  0  0  0  0  0  0  0  0  0  0
  -26.0410  -38.3500   23.9130 H   0  0  0  0  0  0  0  0  0  0  0  0
  -26.3990  -31.7730   25.1250 C   0  0  1  0  0  0  0  0  0  0  0  0
  -25.3130  -31.5340   26.1990 C   0  0  0  0  0  1  0  0  0  0  0  0
  -26.9830  -30.3980   24.7280 C   0  0  0  0  0  1  0  0  0  0  0  0
  -27.5510  -32.5710   25.7800 C   0  0  0  0  0  1  0  0  0  0  0  0
  2  1  2  0
  3  4  2  0
  4 14  1  0
  4  1  1  0
  5  2  1  0
  6  5  2  0
  6  3  1  0
  7  3  1  0
  7  8  1  0
  8 11  1  0
  8 10  1  0
  9  7  2  0
 12 13  1  0
 13  6  1  0
 14 15  1  0
 15 24  1  0
 16 24  1  0
 17 22  1  0
 18 19  1  0
 18 17  1  0
 20 19  1  0
 20 29  1  0
 20 21  1  0
 22 16  1  0
 22 21  1  0
 23 16  2  0
 24 25  1  0
 26 27  2  0
 27 46  1  0
 28 27  1  0
 28 31  1  0
 29 26  1  0
 29 30  1  0
 30 28  2  0
 31 32  1  0
 32 33  2  0
 34 37  1  0
 34 33  1  0
 35 34  2  0
 36 35  1  0
 36 31  2  0
 37 38  1  0
 38 39  1  0
 39 40  2  0
 41 40  1  0
 41 45  1  0
 42 41  2  0
 43 38  2  0
 43 42  1  0
 44 43  1  0
 46 47  1  0
 47 50  1  0
 47 49  1  0
 48 46  2  0
 51 52  1  0
 51 26  1  0
 53 51  1  0
 54  5  1  0
 54 55  1  0
 56 55  1  0
 56 57  1  0
 58 69  2  0
 59 57  1  0
 59 64  1  0
 60 68  1  0
 60 70  1  0
 61 67  1  0
 61 63  1  0
 62 68  1  0
 63 62  1  0
 64 63  2  0
 65 66  1  0
 65 59  2  0
 66 61  2  0
 67 60  1  0
 68 58  1  0
 70 72  2  0
 71 70  1  0
 73 71  1  0
 74 83  2  0
 74 79  1  0
 75 71  1  0
 75 79  1  0
 76 75  1  0
 77 78  1  0
 77 76  1  0
 78 74  1  0
 79 80  2  0
 80 81  1  0
 82 81  2  0
 83 82  1  0
 84 58  1  0
 84 85  1  0
 84 94  1  0
 85 88  1  0
 86 90  1  0
 86 85  1  0
 87 86  2  0
 90 89  1  0
 92 90  1  0
 92 93  1  0
 92 91  1  0
 94 97  1  1
 94 95  1  0
 96 94  1  0
M  ISO  4  16 100  24 100  56 101  57 101
M  END
>  <TORSDO>  (76) 
F 23

>  <SCORE>  (76) 
-12.988

>  <name>  (76) 
77

>  <ligand_id>  (76) 
77

>  <original_smiles>  (76) 
[H]c1c([H])c([H])c2c(c1[H])C([H])([H])C([H])([H])C([H])([H])C2([H])N([H])C(=O)C1([H])N(C(=O)C([H])(N([H])C(=O)C([H])(N([H])C([H])([H])[H])C([H])([H])[H])C(C([H])([H])[H])(C([H])([H])[H])C([H])([H])[H])C([H])([H])c2c([H])c(OC([H])([H])C([H])([H])C([H])([H])c3c([H])c([H])c(C([H])([H])C([H])([H])N([H])C(=O)N4C([H])([H])C([H])([H])C([H])([H])C([H])(n5nc(-c6c([H])c([H])c(Oc7c([H])c([H])c(F)c([H])c7F)c([H])c6[H])c(C(=O)N([H])[H])c5N([H])[H])C4([H])[H])c(C(=O)N([H])[H])c3C([H])([H])C([H])([H])[H])c([H])c([H])c2C1([H])[H]

>  <smiles>  (76) 
[H]c1c([H])c([H])c2c(c1[H])C([H])([H])C([H])([H])C([H])([H])C2([H])N([H])C(=O)C1([H])N(C(=O)C([H])(N([H])C(=O)C([H])(N([H])C([H])([H])[H])C([H])([H])[H])C(C([H])([H])[H])(C([H])([H])[H])C([H])([H])[H])C([H])([H])c2c([H])c(OC([H])([H])C([H])([H])C([H])([H])c3c([H])c([H])c(C([H])([H])C([H])([H])N([H])C(=O)N4C([H])([H])C([H])([H])C([H])([H])C([H])(n5nc(-c6c([H])c([H])c(Oc7c([H])c([H])c(F)c([H])c7F)c([H])c6[H])c(C(=O)N([H])[H])c5N([H])[H])C4([H])[H])c(C(=O)N([H])[H])c3C([H])([H])C([H])([H])[H])c([H])c([H])c2C1([H])[H]

$$$$
78:0:0
     RDKit          3D

 91 99  0  0  1  0  0  0  0  0999 V2000
  -29.1820  -22.1350   20.1350 C   0  0  0  0  0  0  0  0  0  0  0  0
  -29.7090  -23.1160   20.9070 N   0  0  0  0  0  0  0  0  0  0  0  0
  -28.4610  -22.3620   19.1580 O   0  0  0  0  0  0  0  0  0  0  0  0
  -30.2780  -22.7760   21.6790 H   0  0  0  0  0  0  0  0  0  0  0  0
  -28.3680  -19.8740   21.1510 C   0  0  0  0  0  2  0  0  0  0  0  0
  -28.7970  -18.3930   21.0550 C   0  0  0  0  0  2  0  0  0  0  0  0
  -29.9930  -19.7120   19.3800 C   0  0  0  0  0  2  0  0  0  0  0  0
  -29.5340  -20.6590   20.5280 C   0  0  0  0  0  3  0  0  0  0  0  0
  -29.5120  -18.2550   19.7000 C   0  0  0  0  0  3  0  0  0  0  0  0
  -30.6320  -17.1570   19.6640 C   0  0  0  0  0  2  0  0  0  0  0  0
  -30.9700  -14.6730   19.7780 C   0  0  0  0  0  0  0  0  0  0  0  0
  -30.6770  -12.3980   18.8770 C   0  0  0  0  0  2  0  0  0  0  0  0
  -29.6690  -12.4750   17.7120 C   0  0  0  0  0  2  0  0  0  0  0  0
  -28.2220  -12.3490   18.2310 C   0  0  0  0  0  2  0  0  0  0  0  0
  -27.9300  -13.2800   19.4420 C   0  0  0  0  0  3  0  0  0  0  0  0
  -29.0500  -13.1950   20.4990 C   0  0  0  0  0  2  0  0  0  0  0  0
  -30.3260  -13.4710   19.8230 N   0  0  0  0  0  0  0  0  0  0  0  0
  -32.1070  -14.7880   19.3200 O   0  0  0  0  0  0  0  0  0  0  0  0
  -30.2190  -15.7730   20.0250 N   0  0  0  0  0  0  0  0  0  0  0  0
  -29.2790  -15.6220   20.3590 H   0  0  0  0  0  0  0  0  0  0  0  0
  -25.6280  -13.9220   20.3890 C   0  0  0  0  0  0  0  0  0  0  0  0
  -24.5660  -13.1670   20.8070 C   0  0  0  0  0  0  0  0  0  0  0  0
  -24.9730  -11.8040   20.6720 C   0  0  0  0  0  0  0  0  0  0  0  0
  -26.6150  -13.0210   20.0220 N   0  0  0  0  0  0  0  0  0  0  0  0
  -26.2300  -11.7390   20.2470 N   0  0  0  0  0  0  0  0  0  0  0  0
  -24.2180  -10.5590   20.8590 C   0  0  0  0  0  0  0  0  0  0  0  0
  -24.5860   -9.6120   21.8410 C   0  0  0  0  0  3  0  0  0  0  0  0
  -23.8300   -8.4340   22.0190 C   0  0  0  0  0  3  0  0  0  0  0  0
  -22.6940   -8.1910   21.2110 C   0  0  0  0  0  0  0  0  0  0  0  0
  -22.3450   -9.1250   20.2200 C   0  0  0  0  0  3  0  0  0  0  0  0
  -23.1000  -10.2970   20.0410 C   0  0  0  0  0  3  0  0  0  0  0  0
  -21.9170   -7.0610   21.2930 O   0  0  0  0  0  0  0  0  0  0  0  0
  -21.6450   -6.4570   22.4950 C   0  0  0  0  0  0  0  0  0  0  0  0
  -20.9760   -7.1390   23.5330 C   0  0  0  0  0  3  0  0  0  0  0  0
  -20.6550   -6.4620   24.7270 C   0  0  0  0  0  3  0  0  0  0  0  0
  -20.9940   -5.1030   24.8770 C   0  0  0  0  0  0  0  0  0  0  0  0
  -21.6530   -4.4200   23.8400 C   0  0  0  0  0  3  0  0  0  0  0  0
  -21.9760   -5.0960   22.6500 C   0  0  0  0  0  0  0  0  0  0  0  0
  -22.5930   -4.4290   21.6450 F   0  0  0  0  0  0  0  0  0  0  0  0
  -20.6770   -4.4510   26.0200 F   0  0  0  0  0  0  0  0  0  0  0  0
  -23.2130  -13.6790   21.2140 C   0  0  0  0  0  0  0  0  0  0  0  0
  -22.5290  -12.9800   22.1120 N   0  0  0  0  0  0  0  0  0  0  0  0
  -22.7740  -14.7380   20.7670 O   0  0  0  0  0  0  0  0  0  0  0  0
  -22.8930  -12.1280   22.5110 H   0  0  0  0  0  0  0  0  0  0  0  0
  -21.6240  -13.3120   22.4150 H   0  0  0  0  0  0  0  0  0  0  0  0
  -25.8250  -15.2950   20.2750 N   0  0  0  0  0  0  0  0  0  0  0  0
  -25.0830  -15.9530   20.4900 H   0  0  0  0  0  0  0  0  0  0  0  0
  -26.6530  -15.7470   19.9120 H   0  0  0  0  0  0  0  0  0  0  0  0
  -29.6940  -24.6050   20.7960 C   0  0  0  0  0  2  0  0  0  0  0  0
  -28.5730  -25.3110   19.9720 C   0  0  0  0  0  2  0  0  0  0  0  0
  -28.5940  -26.7400   20.2330 O   0  0  0  0  0  0  0  0  0  0  0  0
  -24.5440  -31.7760   23.2630 C   0  0  0  0  0  0  0  0  0  0  0  0
  -27.4040  -27.4500   20.1740 C   0  0  0  0  0  0  0  0  0  0  0  0
  -23.4290  -30.3750   21.5560 C   0  0  0  0  0  3  0  0  0  0  0  0
  -24.9670  -28.9090   20.1390 C   0  0  0  0  0  0  0  0  0  0  0  0
  -25.9530  -30.7990   21.4500 C   0  0  0  0  0  2  0  0  0  0  0  0
  -26.0950  -29.4480   20.7730 C   0  0  0  0  0  0  0  0  0  0  0  0
  -27.3130  -28.7270   20.7830 C   0  0  0  0  0  3  0  0  0  0  0  0
  -26.2610  -26.9400   19.5190 C   0  0  0  0  0  3  0  0  0  0  0  0
  -25.0480  -27.6550   19.5090 C   0  0  0  0  0  3  0  0  0  0  0  0
  -23.6990  -29.7300   20.1700 C   0  0  0  0  0  2  0  0  0  0  0  0
  -24.6570  -31.0000   22.1470 N   0  0  0  0  0  0  0  0  0  0  0  0
  -23.4380  -32.0050   23.7740 O   0  0  0  0  0  0  0  0  0  0  0  0
  -22.7820  -29.3160   22.4760 C   0  0  0  0  0  0  0  0  0  0  0  0
  -21.4730  -29.0810   22.3000 N   0  0  0  0  0  0  0  0  0  0  0  0
  -23.4610  -28.7060   23.3090 O   0  0  0  0  0  0  0  0  0  0  0  0
  -20.9840  -29.6270   21.6020 H   0  0  0  0  0  0  0  0  0  0  0  0
  -18.1260  -27.7740   22.6840 C   0  0  0  0  0  0  0  0  0  0  0  0
  -20.6680  -28.0970   23.0230 C   0  0  0  0  0  3  0  0  0  0  0  0
  -20.8270  -26.6870   22.4070 C   0  0  0  0  0  2  0  0  0  0  0  0
  -19.7560  -26.3640   21.3600 C   0  0  0  0  0  2  0  0  0  0  0  0
  -18.3570  -26.4510   21.9750 C   0  0  0  0  0  2  0  0  0  0  0  0
  -19.2100  -28.5560   23.1620 C   0  0  0  0  0  0  0  0  0  0  0  0
  -18.9390  -29.7980   23.7770 C   0  0  0  0  0  3  0  0  0  0  0  0
  -17.6150  -30.2530   23.9250 C   0  0  0  0  0  3  0  0  0  0  0  0
  -16.5450  -29.4660   23.4640 C   0  0  0  0  0  3  0  0  0  0  0  0
  -16.8030  -28.2290   22.8480 C   0  0  0  0  0  3  0  0  0  0  0  0
  -25.7900  -32.4320   23.9350 C   0  0  0  0  0  3  0  0  0  0  0  0
  -26.2450  -31.7010   25.2580 C   0  0  1  0  0  0  0  0  0  0  0  0
  -25.0960  -31.4700   26.2680 C   0  0  0  0  0  1  0  0  0  0  0  0
  -26.8720  -30.3250   24.9330 C   0  0  0  0  0  1  0  0  0  0  0  0
  -27.3430  -32.5330   25.9620 C   0  0  0  0  0  1  0  0  0  0  0  0
  -25.4550  -33.8360   24.2100 N   0  0  0  0  0  0  0  0  0  0  0  0
  -25.7890  -34.8660   23.4180 C   0  0  0  0  0  0  0  0  0  0  0  0
  -26.4770  -34.7360   22.4030 O   0  0  0  0  0  0  0  0  0  0  0  0
  -24.8500  -34.0130   24.9980 H   0  0  0  0  0  0  0  0  0  0  0  0
  -24.0310  -36.6100   22.9830 C   0  0  0  0  0  1  0  0  0  0  0  0
  -25.2760  -36.2640   23.8180 C   0  0  0  0  0  3  0  0  0  0  0  0
  -27.3850  -37.2250   24.6300 C   0  0  0  0  0  1  0  0  0  0  0  0
  -26.2910  -37.3290   23.6670 N   0  0  0  0  0  0  0  0  0  0  0  0
  -25.8640  -38.2470   23.7670 H   0  0  0  0  0  0  0  0  0  0  0  0
  1  2  1  0
  2  4  1  0
  3  1  2  0
  6  5  1  0
  7  9  1  0
  7  8  1  0
  8  1  1  0
  8  5  1  0
  9 10  1  0
  9  6  1  0
 10 19  1  0
 11 17  1  0
 11 19  1  0
 12 17  1  0
 13 14  1  0
 13 12  1  0
 15 14  1  0
 15 24  1  0
 15 16  1  0
 17 16  1  0
 18 11  2  0
 19 20  1  0
 21 22  2  0
 22 41  1  0
 23 22  1  0
 23 26  1  0
 24 25  1  0
 24 21  1  0
 25 23  2  0
 26 27  1  0
 27 28  2  0
 29 32  1  0
 29 28  1  0
 30 29  2  0
 31 30  1  0
 31 26  2  0
 32 33  1  0
 33 38  2  0
 33 34  1  0
 34 35  2  0
 35 36  1  0
 36 40  1  0
 37 36  2  0
 38 37  1  0
 39 38  1  0
 41 42  1  0
 42 45  1  0
 42 44  1  0
 43 41  2  0
 46 21  1  0
 46 47  1  0
 48 46  1  0
 49  2  1  0
 50 51  1  0
 50 49  1  0
 52 63  2  0
 53 51  1  0
 53 58  1  0
 54 62  1  0
 54 64  1  0
 55 61  1  0
 55 57  1  0
 56 62  1  0
 57 58  2  0
 57 56  1  0
 59 53  2  0
 60 59  1  0
 60 55  2  0
 61 54  1  0
 62 52  1  0
 64 66  2  0
 65 64  1  0
 67 65  1  0
 68 77  2  0
 68 73  1  0
 69 65  1  0
 69 73  1  0
 70 69  1  0
 71 72  1  0
 71 70  1  0
 72 68  1  0
 73 74  2  0
 74 75  1  0
 76 75  2  0
 77 76  1  0
 78 52  1  0
 78 83  1  0
 78 79  1  0
 79 82  1  1
 79 80  1  0
 81 79  1  0
 83 86  1  0
 84 88  1  0
 84 83  1  0
 85 84  2  0
 88 87  1  0
 90 91  1  0
 90 88  1  0
 90 89  1  0
M  ISO  4  11 100  19 100  50 101  51 101
M  END
>  <TORSDO>  (77) 
F 20

>  <SCORE>  (77) 
-12.278

>  <name>  (77) 
78

>  <ligand_id>  (77) 
78

>  <original_smiles>  (77) 
[H]c1c([H])c([H])c2c(c1[H])C([H])([H])C([H])([H])C([H])([H])C2([H])N([H])C(=O)C1([H])N(C(=O)C([H])(N([H])C(=O)C([H])(N([H])C([H])([H])[H])C([H])([H])[H])C(C([H])([H])[H])(C([H])([H])[H])C([H])([H])[H])C([H])([H])c2c([H])c(OC([H])([H])C([H])([H])N([H])C(=O)C3([H])C([H])([H])C([H])([H])C([H])(C([H])([H])N([H])C(=O)N4C([H])([H])C([H])([H])C([H])([H])C([H])(n5nc(-c6c([H])c([H])c(Oc7c([H])c([H])c(F)c([H])c7F)c([H])c6[H])c(C(=O)N([H])[H])c5N([H])[H])C4([H])[H])C3([H])[H])c([H])c([H])c2C1([H])[H]

>  <smiles>  (77) 
[H]c1c([H])c([H])c2c(c1[H])C([H])([H])C([H])([H])C([H])([H])C2([H])N([H])C(=O)C1([H])N(C(=O)C([H])(N([H])C(=O)C([H])(N([H])C([H])([H])[H])C([H])([H])[H])C(C([H])([H])[H])(C([H])([H])[H])C([H])([H])[H])C([H])([H])c2c([H])c(OC([H])([H])C([H])([H])N([H])C(=O)C3([H])C([H])([H])C([H])([H])C([H])(C([H])([H])N([H])C(=O)N4C([H])([H])C([H])([H])C([H])([H])C([H])(n5nc(-c6c([H])c([H])c(Oc7c([H])c([H])c(F)c([H])c7F)c([H])c6[H])c(C(=O)N([H])[H])c5N([H])[H])C4([H])[H])C3([H])[H])c([H])c([H])c2C1([H])[H]

$$$$
79:0:0
     RDKit          3D

 93102  0  0  1  0  0  0  0  0999 V2000
  -29.1150  -17.8610   19.1500 C   0  0  0  0  0  0  0  0  0  0  0  0
  -29.1310  -20.3640   21.6810 C   0  0  0  0  0  2  0  0  0  0  0  0
  -28.1550  -21.1640   20.8050 C   0  0  0  0  0  2  0  0  0  0  0  0
  -30.0110  -17.8820   21.3390 C   0  0  0  0  0  2  0  0  0  0  0  0
  -28.3240  -18.9430   19.8740 C   0  0  0  0  0  3  0  0  0  0  0  0
  -29.6730  -16.8950   20.2030 C   0  0  0  0  0  3  0  0  0  0  0  0
  -28.8470  -18.9040   21.3100 C   0  0  0  0  0  3  0  0  0  0  0  0
  -28.1820  -20.4560   19.4350 C   0  0  0  0  0  3  0  0  0  0  0  0
  -29.2630  -17.7450   17.8980 N   0  0  0  0  0  0  0  0  0  0  0  0
  -28.7670  -18.4740   17.3980 H   0  0  0  0  0  0  0  0  0  0  0  0
  -31.3060  -14.8470   19.9000 C   0  0  0  0  0  0  0  0  0  0  0  0
  -30.8010  -12.6720   18.8600 C   0  0  0  0  0  2  0  0  0  0  0  0
  -29.8380  -12.8540   17.6730 C   0  0  0  0  0  2  0  0  0  0  0  0
  -28.3810  -12.7730   18.1640 C   0  0  0  0  0  2  0  0  0  0  0  0
  -28.1110  -13.6660   19.4040 C   0  0  0  0  0  3  0  0  0  0  0  0
  -29.2090  -13.5230   20.4820 C   0  0  0  0  0  2  0  0  0  0  0  0
  -30.4940  -13.7510   19.8160 N   0  0  0  0  0  0  0  0  0  0  0  0
  -32.4990  -14.7750   19.6230 O   0  0  0  0  0  0  0  0  0  0  0  0
  -30.7890  -16.0780   19.6860 N   0  0  0  0  0  0  0  0  0  0  0  0
  -31.4770  -16.6660   19.2370 H   0  0  0  0  0  0  0  0  0  0  0  0
  -25.7960  -14.3770   20.2500 C   0  0  0  0  0  0  0  0  0  0  0  0
  -24.7070  -13.6550   20.6570 C   0  0  0  0  0  0  0  0  0  0  0  0
  -25.0930  -12.2810   20.5800 C   0  0  0  0  0  0  0  0  0  0  0  0
  -26.7780  -13.4460   19.9540 N   0  0  0  0  0  0  0  0  0  0  0  0
  -26.3630  -12.1770   20.2100 N   0  0  0  0  0  0  0  0  0  0  0  0
  -24.3050  -11.0560   20.7680 C   0  0  0  0  0  0  0  0  0  0  0  0
  -24.7180  -10.0440   21.6640 C   0  0  0  0  0  3  0  0  0  0  0  0
  -23.9340   -8.8840   21.8430 C   0  0  0  0  0  3  0  0  0  0  0  0
  -22.7220   -8.7280   21.1270 C   0  0  0  0  0  0  0  0  0  0  0  0
  -22.3310   -9.7270   20.2190 C   0  0  0  0  0  3  0  0  0  0  0  0
  -23.1160  -10.8780   20.0380 C   0  0  0  0  0  3  0  0  0  0  0  0
  -21.9130   -7.6230   21.2180 O   0  0  0  0  0  0  0  0  0  0  0  0
  -21.8670   -6.8540   22.3540 C   0  0  0  0  0  0  0  0  0  0  0  0
  -21.5320   -7.4030   23.6120 C   0  0  0  0  0  3  0  0  0  0  0  0
  -21.4320   -6.5660   24.7430 C   0  0  0  0  0  3  0  0  0  0  0  0
  -21.6550   -5.1810   24.6150 C   0  0  0  0  0  0  0  0  0  0  0  0
  -21.9820   -4.6330   23.3620 C   0  0  0  0  0  3  0  0  0  0  0  0
  -22.0870   -5.4670   22.2360 C   0  0  0  0  0  0  0  0  0  0  0  0
  -22.3820   -4.9310   21.0280 F   0  0  0  0  0  0  0  0  0  0  0  0
  -21.5510   -4.3760   25.6970 F   0  0  0  0  0  0  0  0  0  0  0  0
  -23.3480  -14.2010   20.9880 C   0  0  0  0  0  0  0  0  0  0  0  0
  -22.6200  -13.5320   21.8750 N   0  0  0  0  0  0  0  0  0  0  0  0
  -22.9410  -15.2510   20.4920 O   0  0  0  0  0  0  0  0  0  0  0  0
  -22.9590  -12.6800   22.2980 H   0  0  0  0  0  0  0  0  0  0  0  0
  -21.7070  -13.8720   22.1360 H   0  0  0  0  0  0  0  0  0  0  0  0
  -26.0200  -15.7410   20.0740 N   0  0  0  0  0  0  0  0  0  0  0  0
  -25.2660  -16.4130   20.1690 H   0  0  0  0  0  0  0  0  0  0  0  0
  -26.8060  -16.0970   19.5480 H   0  0  0  0  0  0  0  0  0  0  0  0
  -29.1590  -21.2220   18.4700 C   0  0  0  0  0  2  0  0  0  0  0  0
  -28.5650  -22.6070   18.0060 C   0  0  0  0  0  2  0  0  0  0  0  0
  -29.2070  -23.9900   18.4100 C   0  0  0  0  0  2  0  0  0  0  0  0
  -28.1390  -25.1310   18.2890 C   0  0  0  0  0  2  0  0  0  0  0  0
  -28.3610  -26.5070   18.7390 O   0  0  0  0  0  0  0  0  0  0  0  0
  -24.6850  -31.2260   22.7640 C   0  0  0  0  0  0  0  0  0  0  0  0
  -27.2080  -27.2930   18.8960 C   0  0  0  0  0  0  0  0  0  0  0  0
  -23.4070  -30.0160   21.0370 C   0  0  0  0  0  3  0  0  0  0  0  0
  -24.7920  -28.7550   19.3070 C   0  0  0  0  0  0  0  0  0  0  0  0
  -25.9120  -30.4710   20.7220 C   0  0  0  0  0  2  0  0  0  0  0  0
  -25.9840  -29.2040   19.8870 C   0  0  0  0  0  0  0  0  0  0  0  0
  -27.1950  -28.4770   19.6880 C   0  0  0  0  0  3  0  0  0  0  0  0
  -25.9840  -26.9120   18.2880 C   0  0  0  0  0  3  0  0  0  0  0  0
  -24.7890  -27.6070   18.5080 C   0  0  0  0  0  3  0  0  0  0  0  0
  -23.5310  -29.5430   19.5680 C   0  0  0  0  0  2  0  0  0  0  0  0
  -24.6910  -30.5830   21.5630 N   0  0  0  0  0  0  0  0  0  0  0  0
  -23.6350  -31.3800   23.4040 O   0  0  0  0  0  0  0  0  0  0  0  0
  -22.8620  -28.8470   21.8920 C   0  0  0  0  0  0  0  0  0  0  0  0
  -21.5430  -28.6020   21.7980 N   0  0  0  0  0  0  0  0  0  0  0  0
  -23.6160  -28.1660   22.5910 O   0  0  0  0  0  0  0  0  0  0  0  0
  -20.9850  -29.2290   21.2380 H   0  0  0  0  0  0  0  0  0  0  0  0
  -18.2850  -27.0880   22.1890 C   0  0  0  0  0  0  0  0  0  0  0  0
  -20.8210  -27.5200   22.4640 C   0  0  0  0  0  3  0  0  0  0  0  0
  -21.0310  -26.1710   21.7350 C   0  0  0  0  0  2  0  0  0  0  0  0
  -19.9360  -25.8720   20.7070 C   0  0  0  0  0  2  0  0  0  0  0  0
  -18.5570  -25.8380   21.3730 C   0  0  0  0  0  2  0  0  0  0  0  0
  -19.3490  -27.8850   22.6850 C   0  0  0  0  0  0  0  0  0  0  0  0
  -19.0450  -29.0610   23.4070 C   0  0  0  0  0  3  0  0  0  0  0  0
  -17.7110  -29.4430   23.6350 C   0  0  0  0  0  3  0  0  0  0  0  0
  -16.6610  -28.6390   23.1630 C   0  0  0  0  0  3  0  0  0  0  0  0
  -16.9500  -27.4620   22.4470 C   0  0  0  0  0  3  0  0  0  0  0  0
  -25.9930  -31.8150   23.3770 C   0  0  0  0  0  3  0  0  0  0  0  0
  -26.6350  -30.8910   24.4830 C   0  0  1  0  0  0  0  0  0  0  0  0
  -25.6400  -30.4570   25.5840 C   0  0  0  0  0  1  0  0  0  0  0  0
  -27.2250  -29.6100   23.8480 C   0  0  0  0  0  1  0  0  0  0  0  0
  -27.8090  -31.6300   25.1650 C   0  0  0  0  0  1  0  0  0  0  0  0
  -25.6580  -33.1340   23.9320 N   0  0  0  0  0  0  0  0  0  0  0  0
  -25.9170  -34.3010   23.3270 C   0  0  0  0  0  0  0  0  0  0  0  0
  -26.5270  -34.3790   22.2570 O   0  0  0  0  0  0  0  0  0  0  0  0
  -25.1020  -33.1450   24.7740 H   0  0  0  0  0  0  0  0  0  0  0  0
  -24.1110  -36.0540   23.3490 C   0  0  0  0  0  1  0  0  0  0  0  0
  -25.4140  -35.5840   24.0170 C   0  0  0  0  0  3  0  0  0  0  0  0
  -27.5670  -36.4230   24.8440 C   0  0  0  0  0  1  0  0  0  0  0  0
  -26.4010  -36.6850   24.0040 N   0  0  0  0  0  0  0  0  0  0  0  0
  -25.9750  -37.5540   24.3130 H   0  0  0  0  0  0  0  0  0  0  0  0
  1  6  1  0
  3  2  1  0
  5  1  1  0
  5  7  1  0
  6 19  1  0
  6  4  1  0
  7  4  1  0
  7  2  1  0
  8 49  1  0
  8  5  1  0
  8  3  1  0
  9  1  2  0
 10  9  1  0
 12 17  1  0
 13 14  1  0
 13 12  1  0
 15 14  1  0
 15 24  1  0
 15 16  1  0
 17 11  1  0
 17 16  1  0
 18 11  2  0
 19 11  1  0
 20 19  1  0
 21 22  2  0
 22 41  1  0
 23 22  1  0
 23 26  1  0
 24 25  1  0
 24 21  1  0
 25 23  2  0
 26 27  1  0
 27 28  2  0
 29 32  1  0
 29 28  1  0
 30 29  2  0
 31 30  1  0
 31 26  2  0
 32 33  1  0
 33 34  1  0
 34 35  2  0
 36 35  1  0
 36 40  1  0
 37 36  2  0
 38 33  2  0
 38 37  1  0
 39 38  1  0
 41 42  1  0
 42 45  1  0
 42 44  1  0
 43 41  2  0
 46 47  1  0
 46 21  1  0
 48 46  1  0
 50 51  1  0
 50 49  1  0
 52 51  1  0
 52 53  1  0
 53 55  1  0
 54 65  2  0
 55 60  1  0
 56 64  1  0
 56 66  1  0
 57 63  1  0
 57 59  1  0
 58 64  1  0
 59 58  1  0
 60 59  2  0
 61 62  1  0
 61 55  2  0
 62 57  2  0
 63 56  1  0
 64 54  1  0
 66 68  2  0
 67 66  1  0
 69 67  1  0
 70 79  2  0
 70 75  1  0
 71 67  1  0
 71 75  1  0
 72 71  1  0
 73 74  1  0
 73 72  1  0
 74 70  1  0
 75 76  2  0
 76 77  1  0
 78 77  2  0
 79 78  1  0
 80 54  1  0
 80 85  1  0
 80 81  1  0
 81 84  1  1
 81 82  1  0
 83 81  1  0
 85 88  1  0
 86 85  1  0
 86 90  1  0
 87 86  2  0
 90 89  1  0
 92 90  1  0
 92 93  1  0
 92 91  1  0
M  ISO  4  11 100  19 100  52 101  53 101
M  END
>  <TORSDO>  (78) 
F 20

>  <SCORE>  (78) 
-10.350

>  <name>  (78) 
79

>  <ligand_id>  (78) 
79

>  <original_smiles>  (78) 
[H]N=C1C([H])(N([H])C(=O)N2C([H])([H])C([H])([H])C([H])([H])C([H])(n3nc(-c4c([H])c([H])c(Oc5c([H])c([H])c(F)c([H])c5F)c([H])c4[H])c(C(=O)N([H])[H])c3N([H])[H])C2([H])[H])C([H])([H])C2([H])C([H])([H])C([H])([H])C([H])(C([H])([H])C([H])([H])C([H])([H])C([H])([H])Oc3c([H])c([H])c4c(c3[H])C([H])([H])N(C(=O)C([H])(N([H])C(=O)C([H])(N([H])C([H])([H])[H])C([H])([H])[H])C(C([H])([H])[H])(C([H])([H])[H])C([H])([H])[H])C([H])(C(=O)N([H])C3([H])c5c([H])c([H])c([H])c([H])c5C([H])([H])C([H])([H])C3([H])[H])C4([H])[H])C12[H]

>  <smiles>  (78) 
[H]N=C1C([H])(N([H])C(=O)N2C([H])([H])C([H])([H])C([H])([H])C([H])(n3nc(-c4c([H])c([H])c(Oc5c([H])c([H])c(F)c([H])c5F)c([H])c4[H])c(C(=O)N([H])[H])c3N([H])[H])C2([H])[H])C([H])([H])C2([H])C([H])([H])C([H])([H])C([H])(C([H])([H])C([H])([H])C([H])([H])C([H])([H])Oc3c([H])c([H])c4c(c3[H])C([H])([H])N(C(=O)C([H])(N([H])C(=O)C([H])(N([H])C([H])([H])[H])C([H])([H])[H])C(C([H])([H])[H])(C([H])([H])[H])C([H])([H])[H])C([H])(C(=O)N([H])C3([H])c5c([H])c([H])c([H])c([H])c5C([H])([H])C([H])([H])C3([H])[H])C4([H])[H])C12[H]

$$$$
80:0:0
     RDKit          3D

 90 97  0  0  1  0  0  0  0  0999 V2000
  -29.8940  -20.5470   20.0500 C   0  0  0  0  0  3  0  0  0  0  0  0
  -28.8790  -21.8490   19.7510 C   0  0  0  0  0  3  0  0  0  0  0  0
  -29.1630  -23.4460   20.1700 C   0  0  0  0  0  3  0  0  0  0  0  0
  -28.1350  -24.7080   19.8000 C   0  0  0  0  0  3  0  0  0  0  0  0
  -28.3630  -26.2170   20.0400 O   0  0  0  0  0  0  0  0  0  0  0  0
  -24.5720  -31.7500   23.0320 C   0  0  0  0  0  0  0  0  0  0  0  0
  -27.2720  -27.1490   19.9740 C   0  0  0  0  0  0  0  0  0  0  0  0
  -23.4080  -30.3340   21.3840 C   0  0  0  0  0  3  0  0  0  0  0  0
  -24.8950  -28.8100   19.9520 C   0  0  0  0  0  0  0  0  0  0  0  0
  -25.9510  -30.6730   21.2200 C   0  0  0  0  0  2  0  0  0  0  0  0
  -26.0610  -29.2900   20.5620 C   0  0  0  0  0  0  0  0  0  0  0  0
  -27.2510  -28.4750   20.5560 C   0  0  0  0  0  3  0  0  0  0  0  0
  -26.0760  -26.7610   19.3290 C   0  0  0  0  0  3  0  0  0  0  0  0
  -24.9130  -27.5580   19.3230 C   0  0  0  0  0  3  0  0  0  0  0  0
  -23.6440  -29.6720   20.0020 C   0  0  0  0  0  2  0  0  0  0  0  0
  -24.6630  -30.9390   21.9350 N   0  0  0  0  0  0  0  0  0  0  0  0
  -23.4800  -32.0050   23.5610 O   0  0  0  0  0  0  0  0  0  0  0  0
  -22.7530  -29.3050   22.3390 C   0  0  0  0  0  0  0  0  0  0  0  0
  -21.4270  -29.1180   22.2220 N   0  0  0  0  0  0  0  0  0  0  0  0
  -23.4420  -28.6760   23.1480 O   0  0  0  0  0  0  0  0  0  0  0  0
  -20.9280  -29.6780   21.5450 H   0  0  0  0  0  0  0  0  0  0  0  0
  -18.0630  -27.8900   22.7560 C   0  0  0  0  0  0  0  0  0  0  0  0
  -20.6240  -28.1620   22.9880 C   0  0  0  0  0  3  0  0  0  0  0  0
  -20.7250  -26.7410   22.3870 C   0  0  0  0  0  2  0  0  0  0  0  0
  -19.6100  -26.4290   21.3850 C   0  0  0  0  0  2  0  0  0  0  0  0
  -18.2370  -26.5530   22.0520 C   0  0  0  0  0  2  0  0  0  0  0  0
  -19.1830  -28.6510   23.1810 C   0  0  0  0  0  0  0  0  0  0  0  0
  -18.9660  -29.9010   23.8010 C   0  0  0  0  0  3  0  0  0  0  0  0
  -17.6600  -30.3880   24.0000 C   0  0  0  0  0  3  0  0  0  0  0  0
  -16.5550  -29.6240   23.5900 C   0  0  0  0  0  3  0  0  0  0  0  0
  -16.7560  -28.3760   22.9730 C   0  0  0  0  0  3  0  0  0  0  0  0
  -25.8360  -32.4110   23.6640 C   0  0  0  0  0  3  0  0  0  0  0  0
  -25.4740  -33.7820   24.0530 N   0  0  0  0  0  0  0  0  0  0  0  0
  -25.7600  -34.8790   23.3400 C   0  0  0  0  0  0  0  0  0  0  0  0
  -26.4230  -34.8460   22.3000 O   0  0  0  0  0  0  0  0  0  0  0  0
  -24.8800  -33.8790   24.8640 H   0  0  0  0  0  0  0  0  0  0  0  0
  -23.9660  -36.6250   23.0800 C   0  0  0  0  0  1  0  0  0  0  0  0
  -25.2280  -36.2290   23.8630 C   0  0  0  0  0  3  0  0  0  0  0  0
  -27.3340  -37.1580   24.7180 C   0  0  0  0  0  1  0  0  0  0  0  0
  -26.2210  -37.3230   23.7880 N   0  0  0  0  0  0  0  0  0  0  0  0
  -25.7830  -38.2210   23.9730 H   0  0  0  0  0  0  0  0  0  0  0  0
  -26.3950  -31.6150   24.9080 C   0  0  1  0  0  0  0  0  0  0  0  0
  -25.3220  -31.2910   25.9740 C   0  0  0  0  0  1  0  0  0  0  0  0
  -27.0340  -30.2790   24.4630 C   0  0  0  0  0  1  0  0  0  0  0  0
  -27.5160  -32.4340   25.5900 C   0  0  0  0  0  1  0  0  0  0  0  0
  -29.6460  -18.9590   19.5450 C   0  0  0  0  0  3  0  0  0  0  0  0
  -28.1830  -18.5440   19.7610 C   0  0  0  0  0  0  0  0  0  0  0  0
  -27.4790  -19.1580   20.7050 N   0  0  0  0  0  0  0  0  0  0  0  0
  -27.6870  -17.6450   19.0850 O   0  0  0  0  0  0  0  0  0  0  0  0
  -27.9010  -19.8930   21.2550 H   0  0  0  0  0  0  0  0  0  0  0  0
  -26.5170  -18.9010   20.8740 H   0  0  0  0  0  0  0  0  0  0  0  0
  -30.6400  -17.6680   19.9560 C   0  0  0  0  0  2  0  0  0  0  0  0
  -30.9190  -14.9590   19.8920 C   0  0  0  0  0  0  0  0  0  0  0  0
  -30.6750  -12.6120   18.9980 C   0  0  0  0  0  2  0  0  0  0  0  0
  -29.7040  -12.5940   17.7950 C   0  0  0  0  0  2  0  0  0  0  0  0
  -28.2470  -12.4450   18.2750 C   0  0  0  0  0  2  0  0  0  0  0  0
  -27.9080  -13.4020   19.4500 C   0  0  0  0  0  3  0  0  0  0  0  0
  -28.9970  -13.3930   20.5430 C   0  0  0  0  0  2  0  0  0  0  0  0
  -30.2670  -13.7320   19.8870 N   0  0  0  0  0  0  0  0  0  0  0  0
  -32.1110  -14.9830   19.5760 O   0  0  0  0  0  0  0  0  0  0  0  0
  -30.1970  -16.1610   20.0400 N   0  0  0  0  0  0  0  0  0  0  0  0
  -29.2140  -16.0290   20.2360 H   0  0  0  0  0  0  0  0  0  0  0  0
  -25.5690  -14.0570   20.2630 C   0  0  0  0  0  0  0  0  0  0  0  0
  -24.4920  -13.3160   20.6620 C   0  0  0  0  0  0  0  0  0  0  0  0
  -24.9130  -11.9510   20.6170 C   0  0  0  0  0  0  0  0  0  0  0  0
  -26.5770  -13.1480   19.9920 N   0  0  0  0  0  0  0  0  0  0  0  0
  -26.1920  -11.8750   20.2710 N   0  0  0  0  0  0  0  0  0  0  0  0
  -24.1500  -10.7130   20.8290 C   0  0  0  0  0  0  0  0  0  0  0  0
  -24.5640   -9.7420   21.7670 C   0  0  0  0  0  3  0  0  0  0  0  0
  -23.8020   -8.5710   21.9680 C   0  0  0  0  0  3  0  0  0  0  0  0
  -22.6130   -8.3620   21.2290 C   0  0  0  0  0  0  0  0  0  0  0  0
  -22.2180   -9.3220   20.2800 C   0  0  0  0  0  3  0  0  0  0  0  0
  -22.9800  -10.4850   20.0790 C   0  0  0  0  0  3  0  0  0  0  0  0
  -21.8240   -7.2430   21.3380 O   0  0  0  0  0  0  0  0  0  0  0  0
  -21.7450   -6.5290   22.5070 C   0  0  0  0  0  0  0  0  0  0  0  0
  -21.3280   -7.1240   23.7170 C   0  0  0  0  0  3  0  0  0  0  0  0
  -21.1950   -6.3370   24.8780 C   0  0  0  0  0  3  0  0  0  0  0  0
  -21.4680   -4.9570   24.8310 C   0  0  0  0  0  0  0  0  0  0  0  0
  -21.8780   -4.3620   23.6250 C   0  0  0  0  0  3  0  0  0  0  0  0
  -22.0130   -5.1460   22.4650 C   0  0  0  0  0  0  0  0  0  0  0  0
  -22.3880   -4.5630   21.3010 F   0  0  0  0  0  0  0  0  0  0  0  0
  -21.3330   -4.1990   25.9450 F   0  0  0  0  0  0  0  0  0  0  0  0
  -23.1210  -13.8390   20.9770 C   0  0  0  0  0  0  0  0  0  0  0  0
  -22.4050  -13.1750   21.8780 N   0  0  0  0  0  0  0  0  0  0  0  0
  -22.6960  -14.8710   20.4600 O   0  0  0  0  0  0  0  0  0  0  0  0
  -22.7640  -12.3400   22.3170 H   0  0  0  0  0  0  0  0  0  0  0  0
  -21.4860  -13.5080   22.1350 H   0  0  0  0  0  0  0  0  0  0  0  0
  -25.7620  -15.4230   20.0880 N   0  0  0  0  0  0  0  0  0  0  0  0
  -25.0230  -16.0890   20.2800 H   0  0  0  0  0  0  0  0  0  0  0  0
  -26.6420  -15.8830   19.8830 H   0  0  0  0  0  0  0  0  0  0  0  0
  2  1  2  0
  2  3  1  0
  4  5  1  0
  4  3  2  0
  6 17  2  0
  7  5  1  0
  7 12  1  0
  8 16  1  0
  8 18  1  0
  9 15  1  0
  9 11  1  0
 10 16  1  0
 11 10  1  0
 12 11  2  0
 13  7  2  0
 14 13  1  0
 14  9  2  0
 15  8  1  0
 16  6  1  0
 18 20  2  0
 19 18  1  0
 21 19  1  0
 22 31  2  0
 22 27  1  0
 23 19  1  0
 23 27  1  0
 24 23  1  0
 25 26  1  0
 25 24  1  0
 26 22  1  0
 27 28  2  0
 28 29  1  0
 30 29  2  0
 31 30  1  0
 32  6  1  0
 32 33  1  0
 32 42  1  0
 33 36  1  0
 34 38  1  0
 34 33  1  0
 35 34  2  0
 38 37  1  0
 40 38  1  0
 40 41  1  0
 40 39  1  0
 42 45  1  1
 42 43  1  0
 44 42  1  0
 46 47  1  0
 46 52  1  0
 46  1  1  0
 47 48  1  0
 48 51  1  0
 48 50  1  0
 49 47  2  0
 52 61  1  0
 53 61  1  0
 54 59  1  0
 55 56  1  0
 55 54  1  0
 57 56  1  0
 57 66  1  0
 57 58  1  0
 59 53  1  0
 59 58  1  0
 60 53  2  0
 61 62  1  0
 63 64  2  0
 64 83  1  0
 65 64  1  0
 65 68  1  0
 66 63  1  0
 66 67  1  0
 67 65  2  0
 68 69  1  0
 69 70  2  0
 71 74  1  0
 71 70  1  0
 72 71  2  0
 73 72  1  0
 73 68  2  0
 74 75  1  0
 75 76  1  0
 76 77  2  0
 78 77  1  0
 78 82  1  0
 79 78  2  0
 80 75  2  0
 80 79  1  0
 81 80  1  0
 83 84  1  0
 84 87  1  0
 84 86  1  0
 85 83  2  0
 88 63  1  0
 88 89  1  0
 90 88  1  0
M  ISO  4   4 101   5 101  53 100  61 100
M  END
>  <TORSDO>  (79) 
F 22

>  <SCORE>  (79) 
-12.791

>  <name>  (79) 
80

>  <ligand_id>  (79) 
80

>  <original_smiles>  (79) 
[H]c1c([H])c([H])c2c(c1[H])C([H])([H])C([H])([H])C([H])([H])C2([H])N([H])C(=O)C1([H])N(C(=O)C([H])(N([H])C(=O)C([H])(N([H])C([H])([H])[H])C([H])([H])[H])C(C([H])([H])[H])(C([H])([H])[H])C([H])([H])[H])C([H])([H])c2c([H])c(OC([H])([H])C([H])([H])C([H])([H])C([H])([H])C([H])(C(=O)N([H])[H])C([H])([H])N([H])C(=O)N3C([H])([H])C([H])([H])C([H])([H])C([H])(n4nc(-c5c([H])c([H])c(Oc6c([H])c([H])c(F)c([H])c6F)c([H])c5[H])c(C(=O)N([H])[H])c4N([H])[H])C3([H])[H])c([H])c([H])c2C1([H])[H]

>  <smiles>  (79) 
[H]c1c([H])c([H])c2c(c1[H])C([H])([H])C([H])([H])C([H])([H])C2([H])N([H])C(=O)C1([H])N(C(=O)C([H])(N([H])C(=O)C([H])(N([H])C([H])([H])[H])C([H])([H])[H])C(C([H])([H])[H])(C([H])([H])[H])C([H])([H])[H])C([H])([H])c2c([H])c(OC([H])([H])C([H])([H])C([H])([H])C([H])([H])C([H])(C(=O)N([H])[H])C([H])([H])N([H])C(=O)N3C([H])([H])C([H])([H])C([H])([H])C([H])(n4nc(-c5c([H])c([H])c(Oc6c([H])c([H])c(F)c([H])c6F)c([H])c5[H])c(C(=O)N([H])[H])c4N([H])[H])C3([H])[H])c([H])c([H])c2C1([H])[H]

$$$$
81:0:0
     RDKit          3D

 90 99  0  0  1  0  0  0  0  0999 V2000
  -31.4160  -18.9280   19.8480 C   0  0  0  0  0  2  0  0  0  0  0  0
  -30.6310  -20.1220   19.2980 C   0  0  0  0  0  2  0  0  0  0  0  0
  -29.3980  -19.2780   21.1410 C   0  0  0  0  0  2  0  0  0  0  0  0
  -30.3100  -21.7970   21.2830 C   0  0  0  0  0  2  0  0  0  0  0  0
  -28.6060  -21.6170   20.0450 C   0  0  0  0  0  2  0  0  0  0  0  0
  -30.4360  -18.1620   20.7560 C   0  0  0  0  0  3  0  0  0  0  0  0
  -29.1000  -22.7190   21.0110 C   0  0  0  0  0  3  0  0  0  0  0  0
  -29.7430  -20.6280   20.4320 C   0  0  1  0  0  0  0  0  0  0  0  0
  -29.3280  -24.2010   20.5450 C   0  0  0  0  0  3  0  0  0  0  0  0
  -28.0870  -25.1510   20.6050 C   0  0  0  0  0  3  0  0  0  0  0  0
  -28.3370  -26.5530   20.2590 O   0  0  0  0  0  0  0  0  0  0  0  0
  -24.6060  -31.8940   23.2410 C   0  0  0  0  0  0  0  0  0  0  0  0
  -27.2110  -27.3710   20.2070 C   0  0  0  0  0  0  0  0  0  0  0  0
  -23.3950  -30.4910   21.6090 C   0  0  0  0  0  3  0  0  0  0  0  0
  -24.8420  -28.9450   20.1850 C   0  0  0  0  0  0  0  0  0  0  0  0
  -25.9280  -30.8230   21.4150 C   0  0  0  0  0  2  0  0  0  0  0  0
  -26.0080  -29.4470   20.7770 C   0  0  0  0  0  0  0  0  0  0  0  0
  -27.1980  -28.6710   20.7800 C   0  0  0  0  0  3  0  0  0  0  0  0
  -26.0310  -26.9170   19.5750 C   0  0  0  0  0  3  0  0  0  0  0  0
  -24.8540  -27.6830   19.5740 C   0  0  0  0  0  3  0  0  0  0  0  0
  -23.6010  -29.8090   20.2310 C   0  0  0  0  0  2  0  0  0  0  0  0
  -24.6620  -31.0850   22.1450 N   0  0  0  0  0  0  0  0  0  0  0  0
  -23.5240  -32.1750   23.7770 O   0  0  0  0  0  0  0  0  0  0  0  0
  -22.7380  -29.4760   22.5730 C   0  0  0  0  0  0  0  0  0  0  0  0
  -21.4130  -29.2980   22.4460 N   0  0  0  0  0  0  0  0  0  0  0  0
  -23.4170  -28.8520   23.3940 O   0  0  0  0  0  0  0  0  0  0  0  0
  -20.9240  -29.8510   21.7550 H   0  0  0  0  0  0  0  0  0  0  0  0
  -18.0320  -28.1220   22.9540 C   0  0  0  0  0  0  0  0  0  0  0  0
  -20.5920  -28.3680   23.2220 C   0  0  0  0  0  3  0  0  0  0  0  0
  -20.6890  -26.9350   22.6520 C   0  0  0  0  0  2  0  0  0  0  0  0
  -19.5840  -26.6120   21.6390 C   0  0  0  0  0  2  0  0  0  0  0  0
  -18.2030  -26.7690   22.2830 C   0  0  0  0  0  2  0  0  0  0  0  0
  -19.1580  -28.8780   23.3800 C   0  0  0  0  0  0  0  0  0  0  0  0
  -18.9470  -30.1460   23.9680 C   0  0  0  0  0  3  0  0  0  0  0  0
  -17.6450  -30.6560   24.1330 C   0  0  0  0  0  3  0  0  0  0  0  0
  -16.5370  -29.8950   23.7230 C   0  0  0  0  0  3  0  0  0  0  0  0
  -16.7310  -28.6310   23.1410 C   0  0  0  0  0  3  0  0  0  0  0  0
  -25.8930  -32.5240   23.8570 C   0  0  0  0  0  3  0  0  0  0  0  0
  -26.4160  -31.7500   25.1300 C   0  0  1  0  0  0  0  0  0  0  0  0
  -25.3280  -31.5110   26.2020 C   0  0  0  0  0  1  0  0  0  0  0  0
  -26.9980  -30.3730   24.7350 C   0  0  0  0  0  1  0  0  0  0  0  0
  -27.5660  -32.5460   25.7900 C   0  0  0  0  0  1  0  0  0  0  0  0
  -25.5840  -33.9210   24.1910 N   0  0  0  0  0  0  0  0  0  0  0  0
  -25.9070  -34.9760   23.4300 C   0  0  0  0  0  0  0  0  0  0  0  0
  -26.5700  -34.8760   22.3940 O   0  0  0  0  0  0  0  0  0  0  0  0
  -24.9930  -34.0710   24.9950 H   0  0  0  0  0  0  0  0  0  0  0  0
  -24.1710  -36.7630   23.0890 C   0  0  0  0  0  1  0  0  0  0  0  0
  -25.4200  -36.3620   23.8920 C   0  0  0  0  0  3  0  0  0  0  0  0
  -27.5590  -37.2500   24.7030 C   0  0  0  0  0  1  0  0  0  0  0  0
  -26.4470  -37.4180   23.7710 N   0  0  0  0  0  0  0  0  0  0  0  0
  -26.0400  -38.3370   23.9220 H   0  0  0  0  0  0  0  0  0  0  0  0
  -29.8440  -16.8970   20.0310 C   0  0  0  0  0  2  0  0  0  0  0  0
  -30.6320  -14.5320   20.4120 C   0  0  0  0  0  0  0  0  0  0  0  0
  -30.3610  -12.3410   19.3230 C   0  0  0  0  0  2  0  0  0  0  0  0
  -29.4340  -12.5520   18.1080 C   0  0  0  0  0  2  0  0  0  0  0  0
  -27.9550  -12.4250   18.5210 C   0  0  0  0  0  2  0  0  0  0  0  0
  -27.6120  -13.2590   19.7870 C   0  0  0  0  0  3  0  0  0  0  0  0
  -28.6600  -13.0350   20.9030 C   0  0  0  0  0  2  0  0  0  0  0  0
  -29.9880  -13.3320   20.3460 N   0  0  0  0  0  0  0  0  0  0  0  0
  -31.7700  -14.6990   19.9640 O   0  0  0  0  0  0  0  0  0  0  0  0
  -29.8560  -15.5920   20.7460 N   0  0  0  0  0  0  0  0  0  0  0  0
  -28.9810  -15.3410   21.1840 H   0  0  0  0  0  0  0  0  0  0  0  0
  -25.2120  -13.8860   20.4640 C   0  0  0  0  0  0  0  0  0  0  0  0
  -24.1390  -13.1220   20.8360 C   0  0  0  0  0  0  0  0  0  0  0  0
  -24.5910  -11.7690   20.8200 C   0  0  0  0  0  0  0  0  0  0  0  0
  -26.2540  -12.9960   20.2540 N   0  0  0  0  0  0  0  0  0  0  0  0
  -25.8830  -11.7180   20.5210 N   0  0  0  0  0  0  0  0  0  0  0  0
  -23.8540  -10.5150   21.0170 C   0  0  0  0  0  0  0  0  0  0  0  0
  -24.2830   -9.5450   21.9500 C   0  0  0  0  0  3  0  0  0  0  0  0
  -23.5490   -8.3520   22.1350 C   0  0  0  0  0  3  0  0  0  0  0  0
  -22.3700   -8.1210   21.3870 C   0  0  0  0  0  0  0  0  0  0  0  0
  -21.9600   -9.0780   20.4390 C   0  0  0  0  0  3  0  0  0  0  0  0
  -22.6960  -10.2620   20.2540 C   0  0  0  0  0  3  0  0  0  0  0  0
  -21.6090   -6.9820   21.4800 O   0  0  0  0  0  0  0  0  0  0  0  0
  -21.5670   -6.2350   22.6300 C   0  0  0  0  0  0  0  0  0  0  0  0
  -21.1690   -6.7940   23.8660 C   0  0  0  0  0  3  0  0  0  0  0  0
  -21.0770   -5.9750   25.0090 C   0  0  0  0  0  3  0  0  0  0  0  0
  -21.3670   -4.6000   24.9170 C   0  0  0  0  0  0  0  0  0  0  0  0
  -21.7560   -4.0430   23.6850 C   0  0  0  0  0  3  0  0  0  0  0  0
  -21.8530   -4.8590   22.5460 C   0  0  0  0  0  0  0  0  0  0  0  0
  -22.2070   -4.3130   21.3560 F   0  0  0  0  0  0  0  0  0  0  0  0
  -21.2680   -3.8120   26.0120 F   0  0  0  0  0  0  0  0  0  0  0  0
  -22.7420  -13.6100   21.0990 C   0  0  0  0  0  0  0  0  0  0  0  0
  -22.0040  -12.9280   21.9670 N   0  0  0  0  0  0  0  0  0  0  0  0
  -22.3140  -14.6330   20.5650 O   0  0  0  0  0  0  0  0  0  0  0  0
  -22.3590  -12.1000   22.4220 H   0  0  0  0  0  0  0  0  0  0  0  0
  -21.0680  -13.2420   22.1850 H   0  0  0  0  0  0  0  0  0  0  0  0
  -25.3870  -15.2540   20.2730 N   0  0  0  0  0  0  0  0  0  0  0  0
  -24.6170  -15.9110   20.3540 H   0  0  0  0  0  0  0  0  0  0  0  0
  -26.2400  -15.6840   19.9400 H   0  0  0  0  0  0  0  0  0  0  0  0
  1  6  1  0
  2  1  1  0
  8  5  1  6
  5  7  1  0
  6 52  1  0
  6  3  1  0
  7  9  1  0
  7  4  1  0
  8  2  1  0
  8  3  1  0
  8  4  1  0
  9 10  2  0
 11 10  1  0
 12 23  2  0
 13 11  1  0
 13 18  1  0
 14 22  1  0
 14 24  1  0
 15 21  1  0
 15 17  1  0
 16 22  1  0
 17 18  2  0
 17 16  1  0
 19 13  2  0
 20 19  1  0
 20 15  2  0
 21 14  1  0
 22 12  1  0
 24 26  2  0
 25 24  1  0
 27 25  1  0
 28 37  2  0
 28 33  1  0
 29 25  1  0
 29 33  1  0
 30 29  1  0
 31 32  1  0
 31 30  1  0
 32 28  1  0
 33 34  2  0
 34 35  1  0
 36 35  2  0
 37 36  1  0
 38 12  1  0
 38 43  1  0
 38 39  1  0
 39 42  1  1
 39 40  1  0
 41 39  1  0
 43 46  1  0
 44 48  1  0
 44 43  1  0
 45 44  2  0
 48 47  1  0
 50 48  1  0
 50 51  1  0
 50 49  1  0
 52 61  1  0
 53 61  1  0
 54 59  1  0
 55 56  1  0
 55 54  1  0
 57 56  1  0
 57 66  1  0
 57 58  1  0
 59 53  1  0
 59 58  1  0
 60 53  2  0
 61 62  1  0
 63 64  2  0
 64 83  1  0
 65 64  1  0
 65 68  1  0
 66 63  1  0
 66 67  1  0
 67 65  2  0
 68 69  1  0
 69 70  2  0
 71 74  1  0
 71 70  1  0
 72 71  2  0
 73 72  1  0
 73 68  2  0
 74 75  1  0
 75 76  1  0
 76 77  2  0
 78 77  1  0
 78 82  1  0
 79 78  2  0
 80 75  2  0
 80 79  1  0
 81 80  1  0
 83 84  1  0
 84 87  1  0
 84 86  1  0
 85 83  2  0
 88 89  1  0
 88 63  1  0
 90 88  1  0
M  ISO  4  10 101  11 101  53 100  61 100
M  END
>  <TORSDO>  (80) 
F 19

>  <SCORE>  (80) 
-14.060

>  <name>  (80) 
81

>  <ligand_id>  (80) 
81

>  <original_smiles>  (80) 
[H]c1c([H])c([H])c2c(c1[H])C([H])([H])C([H])([H])C([H])([H])C2([H])N([H])C(=O)C1([H])N(C(=O)C([H])(N([H])C(=O)C([H])(N([H])C([H])([H])[H])C([H])([H])[H])C(C([H])([H])[H])(C([H])([H])[H])C([H])([H])[H])C([H])([H])c2c([H])c(OC([H])([H])C([H])([H])C3([H])C([H])([H])C4(C([H])([H])C([H])([H])C([H])(C([H])([H])N([H])C(=O)N5C([H])([H])C([H])([H])C([H])([H])C([H])(n6nc(-c7c([H])c([H])c(Oc8c([H])c([H])c(F)c([H])c8F)c([H])c7[H])c(C(=O)N([H])[H])c6N([H])[H])C5([H])[H])C4([H])[H])C3([H])[H])c([H])c([H])c2C1([H])[H]

>  <smiles>  (80) 
[H]c1c([H])c([H])c2c(c1[H])C([H])([H])C([H])([H])C([H])([H])C2([H])N([H])C(=O)C1([H])N(C(=O)C([H])(N([H])C(=O)C([H])(N([H])C([H])([H])[H])C([H])([H])[H])C(C([H])([H])[H])(C([H])([H])[H])C([H])([H])[H])C([H])([H])c2c([H])c(OC([H])([H])C([H])([H])C3([H])C([H])([H])C4(C([H])([H])C([H])([H])C([H])(C([H])([H])N([H])C(=O)N5C([H])([H])C([H])([H])C([H])([H])C([H])(n6nc(-c7c([H])c([H])c(Oc8c([H])c([H])c(F)c([H])c8F)c([H])c7[H])c(C(=O)N([H])[H])c6N([H])[H])C5([H])[H])C4([H])[H])C3([H])[H])c([H])c([H])c2C1([H])[H]

$$$$
82:0:0
     RDKit          3D

 93102  0  0  1  0  0  0  0  0999 V2000
  -28.3450  -18.2880   18.6300 C   0  0  0  0  0  2  0  0  0  0  0  0
  -27.9000  -19.7890   18.6130 C   0  0  0  0  0  2  0  0  0  0  0  0
  -31.2510  -21.3140   17.6620 C   0  0  0  0  0  2  0  0  0  0  0  0
  -30.6430  -19.2730   19.0620 C   0  0  0  0  0  2  0  0  0  0  0  0
  -30.3520  -22.5530   17.7360 C   0  0  0  0  0  2  0  0  0  0  0  0
  -30.3070  -20.1100   17.8040 C   0  0  0  0  0  3  0  0  0  0  0  0
  -29.6750  -18.1090   19.4110 C   0  0  0  0  0  3  0  0  0  0  0  0
  -28.8960  -20.7430   17.8780 C   0  0  0  0  0  3  0  0  0  0  0  0
  -29.1010  -22.1350   18.4110 N   0  0  2  0  0  4  0  0  0  0  0  0
  -29.2980  -22.0490   19.3900 H   0  0  0  0  0  0  0  0  0  0  0  0
  -30.3800  -16.7240   19.2600 C   0  0  0  0  0  2  0  0  0  0  0  0
  -30.6420  -14.5230   20.3650 C   0  0  0  0  0  0  0  0  0  0  0  0
  -30.3520  -12.3200   19.3820 C   0  0  0  0  0  2  0  0  0  0  0  0
  -29.4350  -12.5330   18.1580 C   0  0  0  0  0  2  0  0  0  0  0  0
  -27.9500  -12.4320   18.5640 C   0  0  0  0  0  2  0  0  0  0  0  0
  -27.6060  -13.2700   19.8260 C   0  0  0  0  0  3  0  0  0  0  0  0
  -28.6550  -13.0990   20.9520 C   0  0  0  0  0  2  0  0  0  0  0  0
  -29.9790  -13.3400   20.3690 N   0  0  0  0  0  0  0  0  0  0  0  0
  -31.8660  -14.5940   20.2130 O   0  0  0  0  0  0  0  0  0  0  0  0
  -29.8720  -15.5950   20.0780 N   0  0  0  0  0  0  0  0  0  0  0  0
  -28.8700  -15.4770   20.1390 H   0  0  0  0  0  0  0  0  0  0  0  0
  -25.2060  -13.8830   20.5000 C   0  0  0  0  0  0  0  0  0  0  0  0
  -24.1290  -13.1120   20.8520 C   0  0  0  0  0  0  0  0  0  0  0  0
  -24.5910  -11.7640   20.8430 C   0  0  0  0  0  0  0  0  0  0  0  0
  -26.2520  -12.9980   20.2960 N   0  0  0  0  0  0  0  0  0  0  0  0
  -25.8870  -11.7210   20.5650 N   0  0  0  0  0  0  0  0  0  0  0  0
  -23.8620  -10.5040   21.0280 C   0  0  0  0  0  0  0  0  0  0  0  0
  -24.2710   -9.5470   21.9820 C   0  0  0  0  0  3  0  0  0  0  0  0
  -23.5410   -8.3490   22.1550 C   0  0  0  0  0  3  0  0  0  0  0  0
  -22.3890   -8.1030   21.3710 C   0  0  0  0  0  0  0  0  0  0  0  0
  -22.0020   -9.0480   20.4030 C   0  0  0  0  0  3  0  0  0  0  0  0
  -22.7330  -10.2350   20.2300 C   0  0  0  0  0  3  0  0  0  0  0  0
  -21.6310   -6.9600   21.4510 O   0  0  0  0  0  0  0  0  0  0  0  0
  -21.5430   -6.2350   22.6130 C   0  0  0  0  0  0  0  0  0  0  0  0
  -21.0590   -6.8040   23.8120 C   0  0  0  0  0  3  0  0  0  0  0  0
  -20.9190   -6.0030   24.9620 C   0  0  0  0  0  3  0  0  0  0  0  0
  -21.2520   -4.6370   24.9170 C   0  0  0  0  0  0  0  0  0  0  0  0
  -21.7300   -4.0690   23.7230 C   0  0  0  0  0  3  0  0  0  0  0  0
  -21.8710   -4.8650   22.5730 C   0  0  0  0  0  0  0  0  0  0  0  0
  -22.3110   -4.3060   21.4200 F   0  0  0  0  0  0  0  0  0  0  0  0
  -21.1090   -3.8680   26.0210 F   0  0  0  0  0  0  0  0  0  0  0  0
  -22.7290  -13.5960   21.0890 C   0  0  0  0  0  0  0  0  0  0  0  0
  -21.9830  -12.9000   21.9390 N   0  0  0  0  0  0  0  0  0  0  0  0
  -22.3030  -14.6200   20.5540 O   0  0  0  0  0  0  0  0  0  0  0  0
  -22.3440  -12.0730   22.3900 H   0  0  0  0  0  0  0  0  0  0  0  0
  -21.0400  -13.1990   22.1440 H   0  0  0  0  0  0  0  0  0  0  0  0
  -25.3740  -15.2510   20.3120 N   0  0  0  0  0  0  0  0  0  0  0  0
  -24.6050  -15.9090   20.4020 H   0  0  0  0  0  0  0  0  0  0  0  0
  -26.2320  -15.6980   20.0110 H   0  0  0  0  0  0  0  0  0  0  0  0
  -28.0090  -23.1710   18.2440 C   0  0  0  0  0  2  0  0  0  0  0  0
  -27.5520  -23.9600   19.5430 C   0  0  0  0  0  2  0  0  0  0  0  0
  -28.3400  -25.1550   20.2360 C   0  0  0  0  0  2  0  0  0  0  0  0
  -28.3030  -26.5950   19.9220 O   0  0  0  0  0  0  0  0  0  0  0  0
  -24.5780  -31.9040   23.2280 C   0  0  0  0  0  0  0  0  0  0  0  0
  -27.1630  -27.3650   20.0990 C   0  0  0  0  0  0  0  0  0  0  0  0
  -23.3680  -30.5080   21.5950 C   0  0  0  0  0  3  0  0  0  0  0  0
  -24.8130  -28.9590   20.1750 C   0  0  0  0  0  0  0  0  0  0  0  0
  -25.9070  -30.8130   21.4290 C   0  0  0  0  0  2  0  0  0  0  0  0
  -25.9790  -29.4290   20.7860 C   0  0  0  0  0  0  0  0  0  0  0  0
  -27.1660  -28.6410   20.7490 C   0  0  0  0  0  3  0  0  0  0  0  0
  -25.9820  -26.9590   19.4530 C   0  0  0  0  0  3  0  0  0  0  0  0
  -24.8170  -27.7380   19.4950 C   0  0  0  0  0  3  0  0  0  0  0  0
  -23.5870  -29.8410   20.2130 C   0  0  0  0  0  2  0  0  0  0  0  0
  -24.6340  -31.0890   22.1460 N   0  0  0  0  0  0  0  0  0  0  0  0
  -23.4960  -32.1780   23.7550 O   0  0  0  0  0  0  0  0  0  0  0  0
  -22.7010  -29.4890   22.5370 C   0  0  0  0  0  0  0  0  0  0  0  0
  -21.3680  -29.3270   22.4220 N   0  0  0  0  0  0  0  0  0  0  0  0
  -23.3760  -28.8470   23.3460 O   0  0  0  0  0  0  0  0  0  0  0  0
  -20.8680  -29.9000   21.7530 H   0  0  0  0  0  0  0  0  0  0  0  0
  -17.9990  -28.1480   22.9560 C   0  0  0  0  0  0  0  0  0  0  0  0
  -20.5620  -28.3780   23.1970 C   0  0  0  0  0  3  0  0  0  0  0  0
  -20.6410  -26.9440   22.6200 C   0  0  0  0  0  2  0  0  0  0  0  0
  -19.5310  -26.6480   21.6040 C   0  0  0  0  0  2  0  0  0  0  0  0
  -18.1520  -26.8080   22.2530 C   0  0  0  0  0  2  0  0  0  0  0  0
  -19.1290  -28.8950   23.3840 C   0  0  0  0  0  0  0  0  0  0  0  0
  -18.9250  -30.1550   23.9840 C   0  0  0  0  0  3  0  0  0  0  0  0
  -17.6260  -30.6760   24.1480 C   0  0  0  0  0  3  0  0  0  0  0  0
  -16.5100  -29.9240   23.7370 C   0  0  0  0  0  3  0  0  0  0  0  0
  -16.7010  -28.6610   23.1470 C   0  0  0  0  0  3  0  0  0  0  0  0
  -25.8590  -32.5410   23.8530 C   0  0  0  0  0  3  0  0  0  0  0  0
  -26.3770  -31.7590   25.1210 C   0  0  1  0  0  0  0  0  0  0  0  0
  -25.2800  -31.5200   26.1800 C   0  0  0  0  0  1  0  0  0  0  0  0
  -26.9640  -30.3910   24.7230 C   0  0  0  0  0  1  0  0  0  0  0  0
  -27.5390  -32.5410   25.7830 C   0  0  0  0  0  1  0  0  0  0  0  0
  -25.5600  -33.9400   24.1940 N   0  0  0  0  0  0  0  0  0  0  0  0
  -25.8980  -34.9910   23.4380 C   0  0  0  0  0  0  0  0  0  0  0  0
  -26.5530  -34.8850   22.3990 O   0  0  0  0  0  0  0  0  0  0  0  0
  -24.9760  -34.0920   24.9990 H   0  0  0  0  0  0  0  0  0  0  0  0
  -24.1850  -36.7890   23.0670 C   0  0  0  0  0  1  0  0  0  0  0  0
  -25.4200  -36.3840   23.8900 C   0  0  0  0  0  3  0  0  0  0  0  0
  -27.5520  -37.2480   24.7270 C   0  0  0  0  0  1  0  0  0  0  0  0
  -26.4630  -37.4290   23.7710 N   0  0  0  0  0  0  0  0  0  0  0  0
  -26.0750  -38.3590   23.9190 H   0  0  0  0  0  0  0  0  0  0  0  0
  1  7  1  0
  2  1  1  0
  3  5  1  0
  4  7  1  0
  5  9  1  0
  6  3  1  0
  6  8  1  0
  6  4  1  0
  7 11  1  0
  8  9  1  0
  8  2  1  0
  9 10  1  1
 11 20  1  0
 12 18  1  0
 13 18  1  0
 14 15  1  0
 14 13  1  0
 16 15  1  0
 16 25  1  0
 16 17  1  0
 18 17  1  0
 19 12  2  0
 20 21  1  0
 20 12  1  0
 22 23  2  0
 23 42  1  0
 24 23  1  0
 24 27  1  0
 25 22  1  0
 25 26  1  0
 26 24  2  0
 27 28  1  0
 28 29  2  0
 30 33  1  0
 30 29  1  0
 31 30  2  0
 32 31  1  0
 32 27  2  0
 33 34  1  0
 34 35  1  0
 35 36  2  0
 37 36  1  0
 37 41  1  0
 38 37  2  0
 39 34  2  0
 39 38  1  0
 40 39  1  0
 42 43  1  0
 43 46  1  0
 43 45  1  0
 44 42  2  0
 47 48  1  0
 47 22  1  0
 49 47  1  0
 50  9  1  0
 50 51  1  0
 51 52  1  0
 53 55  1  0
 53 52  1  0
 54 65  2  0
 55 60  1  0
 56 64  1  0
 56 66  1  0
 57 63  1  0
 57 59  1  0
 58 64  1  0
 59 58  1  0
 60 59  2  0
 61 62  1  0
 61 55  2  0
 62 57  2  0
 63 56  1  0
 64 54  1  0
 66 68  2  0
 67 66  1  0
 69 67  1  0
 70 79  2  0
 70 75  1  0
 71 67  1  0
 71 75  1  0
 72 71  1  0
 73 74  1  0
 73 72  1  0
 74 70  1  0
 75 76  2  0
 76 77  1  0
 78 77  2  0
 79 78  1  0
 80 54  1  0
 80 85  1  0
 80 81  1  0
 81 84  1  1
 81 82  1  0
 83 81  1  0
 85 88  1  0
 86 90  1  0
 86 85  1  0
 87 86  2  0
 90 89  1  0
 92 90  1  0
 92 93  1  0
 92 91  1  0
M  ISO  4  12 100  20 100  52 101  53 101
M  END
>  <TORSDO>  (81) 
F 20

>  <SCORE>  (81) 
-13.884

>  <name>  (81) 
82

>  <ligand_id>  (81) 
82

>  <original_smiles>  (81) 
[H]c1c([H])c([H])c2c(c1[H])C([H])([H])C([H])([H])C([H])([H])C2([H])N([H])C(=O)C1([H])N(C(=O)C([H])(N([H])C(=O)C([H])(N([H])C([H])([H])[H])C([H])([H])[H])C(C([H])([H])[H])(C([H])([H])[H])C([H])([H])[H])C([H])([H])c2c([H])c(OC([H])([H])C([H])([H])C([H])([H])[N+]3([H])C([H])([H])C([H])([H])C4([H])C([H])([H])C([H])(C([H])([H])N([H])C(=O)N5C([H])([H])C([H])([H])C([H])([H])C([H])(n6nc(-c7c([H])c([H])c(Oc8c([H])c([H])c(F)c([H])c8F)c([H])c7[H])c(C(=O)N([H])[H])c6N([H])[H])C5([H])[H])C([H])([H])C([H])([H])C43[H])c([H])c([H])c2C1([H])[H]

>  <smiles>  (81) 
[H]c1c([H])c([H])c2c(c1[H])C([H])([H])C([H])([H])C([H])([H])C2([H])N([H])C(=O)C1([H])N(C(=O)C([H])(N([H])C(=O)C([H])(N([H])C([H])([H])[H])C([H])([H])[H])C(C([H])([H])[H])(C([H])([H])[H])C([H])([H])[H])C([H])([H])c2c([H])c(OC([H])([H])C([H])([H])C([H])([H])[N+]3([H])C([H])([H])C([H])([H])C4([H])C([H])([H])C([H])(C([H])([H])N([H])C(=O)N5C([H])([H])C([H])([H])C([H])([H])C([H])(n6nc(-c7c([H])c([H])c(Oc8c([H])c([H])c(F)c([H])c8F)c([H])c7[H])c(C(=O)N([H])[H])c6N([H])[H])C5([H])[H])C([H])([H])C([H])([H])C43[H])c([H])c([H])c2C1([H])[H]

$$$$
83:0:0
     RDKit          3D

 97105  0  0  1  0  0  0  0  0999 V2000
  -28.0970  -20.9370   17.6520 C   0  0  0  0  0  2  0  0  0  0  0  0
  -28.2390  -19.4280   19.7440 C   0  0  0  0  0  2  0  0  0  0  0  0
  -30.0070  -19.3110   17.9720 C   0  0  0  0  0  2  0  0  0  0  0  0
  -29.1860  -18.7290   20.7360 C   0  0  0  0  0  2  0  0  0  0  0  0
  -30.9540  -18.5970   18.9500 C   0  0  0  0  0  2  0  0  0  0  0  0
  -29.0120  -20.2420   18.6870 C   0  0  0  0  0  3  0  0  0  0  0  0
  -30.2060  -17.7890   20.0410 C   0  0  0  0  0  3  0  0  0  0  0  0
  -31.1850  -17.1030   21.0530 C   0  0  0  0  0  3  0  0  0  0  0  0
  -31.3300  -15.8550   23.3460 C   0  0  0  0  0  1  0  0  0  0  0  0
  -30.4420  -16.5490   22.3010 C   0  0  0  0  0  2  0  0  0  0  0  0
  -32.0710  -16.0110   20.3960 C   0  0  0  0  0  2  0  0  0  0  0  0
  -31.6640  -13.7520   19.4080 C   0  0  0  0  0  0  0  0  0  0  0  0
  -31.0580  -11.4840   18.6480 C   0  0  0  0  0  2  0  0  0  0  0  0
  -29.9880  -11.5290   17.5410 C   0  0  0  0  0  2  0  0  0  0  0  0
  -28.5720  -11.5880   18.1470 C   0  0  0  0  0  2  0  0  0  0  0  0
  -28.4380  -12.6760   19.2450 C   0  0  0  0  0  3  0  0  0  0  0  0
  -29.5980  -12.5750   20.2580 C   0  0  0  0  0  2  0  0  0  0  0  0
  -30.8710  -12.6550   19.5160 N   0  0  0  0  0  0  0  0  0  0  0  0
  -32.6230  -13.8270   18.6360 O   0  0  0  0  0  0  0  0  0  0  0  0
  -31.3480  -14.7530   20.2360 N   0  0  0  0  0  0  0  0  0  0  0  0
  -30.5540  -14.6050   20.8380 H   0  0  0  0  0  0  0  0  0  0  0  0
  -26.3110  -13.6310   20.3390 C   0  0  0  0  0  0  0  0  0  0  0  0
  -25.1790  -13.0280   20.8200 C   0  0  0  0  0  0  0  0  0  0  0  0
  -25.3730  -11.6250   20.6400 C   0  0  0  0  0  0  0  0  0  0  0  0
  -27.1350  -12.6050   19.9040 N   0  0  0  0  0  0  0  0  0  0  0  0
  -26.5780  -11.3880   20.1380 N   0  0  0  0  0  0  0  0  0  0  0  0
  -24.4610  -10.4960   20.8640 C   0  0  0  0  0  0  0  0  0  0  0  0
  -24.8100   -9.4220   21.7120 C   0  0  0  0  0  3  0  0  0  0  0  0
  -23.9080   -8.3560   21.9260 C   0  0  0  0  0  3  0  0  0  0  0  0
  -22.6430   -8.3590   21.2930 C   0  0  0  0  0  0  0  0  0  0  0  0
  -22.3100   -9.4200   20.4320 C   0  0  0  0  0  3  0  0  0  0  0  0
  -23.2100  -10.4770   20.2160 C   0  0  0  0  0  3  0  0  0  0  0  0
  -21.7140   -7.3550   21.4220 O   0  0  0  0  0  0  0  0  0  0  0  0
  -21.5890   -6.6350   22.5830 C   0  0  0  0  0  0  0  0  0  0  0  0
  -21.3030   -7.2570   23.8180 C   0  0  0  0  0  3  0  0  0  0  0  0
  -21.1140   -6.4720   24.9730 C   0  0  0  0  0  3  0  0  0  0  0  0
  -21.1990   -5.0690   24.8960 C   0  0  0  0  0  0  0  0  0  0  0  0
  -21.4780   -4.4480   23.6650 C   0  0  0  0  0  3  0  0  0  0  0  0
  -21.6690   -5.2290   22.5120 C   0  0  0  0  0  0  0  0  0  0  0  0
  -21.9160   -4.6240   21.3240 F   0  0  0  0  0  0  0  0  0  0  0  0
  -21.0100   -4.3150   26.0040 F   0  0  0  0  0  0  0  0  0  0  0  0
  -23.9440  -13.7160   21.3280 C   0  0  0  0  0  0  0  0  0  0  0  0
  -23.2620  -13.1150   22.2970 N   0  0  0  0  0  0  0  0  0  0  0  0
  -23.6060  -14.8190   20.9020 O   0  0  0  0  0  0  0  0  0  0  0  0
  -23.5530  -12.2210   22.6630 H   0  0  0  0  0  0  0  0  0  0  0  0
  -22.4370  -13.5570   22.6780 H   0  0  0  0  0  0  0  0  0  0  0  0
  -26.7010  -14.9610   20.2170 N   0  0  0  0  0  0  0  0  0  0  0  0
  -26.0980  -15.7320   20.4840 H   0  0  0  0  0  0  0  0  0  0  0  0
  -27.5770  -15.2650   19.8110 H   0  0  0  0  0  0  0  0  0  0  0  0
  -27.1280  -21.8690   18.2690 N   0  0  0  0  0  4  0  0  0  0  0  0
  -27.1830  -21.8130   19.2730 H   0  0  0  0  0  0  0  0  0  0  0  0
  -26.2110  -21.5410   18.0090 H   0  0  0  0  0  0  0  0  0  0  0  0
  -27.2230  -23.2820   17.8390 C   0  0  0  0  0  2  0  0  0  0  0  0
  -28.3550  -24.0500   18.5520 C   0  0  0  0  0  2  0  0  0  0  0  0
  -28.5240  -25.4810   18.0030 C   0  0  0  0  0  2  0  0  0  0  0  0
  -29.1620  -26.4760   18.9960 C   0  0  0  0  0  2  0  0  0  0  0  0
  -28.4660  -26.6050   20.2380 O   0  0  0  0  0  0  0  0  0  0  0  0
  -24.5630  -31.7300   23.2740 C   0  0  0  0  0  0  0  0  0  0  0  0
  -27.3010  -27.3320   20.2190 C   0  0  0  0  0  0  0  0  0  0  0  0
  -23.4010  -30.3320   21.5980 C   0  0  0  0  0  3  0  0  0  0  0  0
  -24.8930  -28.8050   20.2080 C   0  0  0  0  0  0  0  0  0  0  0  0
  -25.9320  -30.7000   21.4660 C   0  0  0  0  0  2  0  0  0  0  0  0
  -26.0360  -29.3350   20.8220 C   0  0  0  0  0  0  0  0  0  0  0  0
  -27.2440  -28.6020   20.8290 C   0  0  0  0  0  3  0  0  0  0  0  0
  -26.1300  -26.7930   19.6450 C   0  0  0  0  0  3  0  0  0  0  0  0
  -24.9300  -27.5270   19.6260 C   0  0  0  0  0  3  0  0  0  0  0  0
  -23.6450  -29.6590   20.2230 C   0  0  0  0  0  2  0  0  0  0  0  0
  -24.6490  -30.9360   22.1710 N   0  0  0  0  0  0  0  0  0  0  0  0
  -23.4680  -31.9960   23.7870 O   0  0  0  0  0  0  0  0  0  0  0  0
  -22.7310  -29.3050   22.5390 C   0  0  0  0  0  0  0  0  0  0  0  0
  -21.4130  -29.1060   22.3640 N   0  0  0  0  0  0  0  0  0  0  0  0
  -23.3920  -28.6890   23.3790 O   0  0  0  0  0  0  0  0  0  0  0  0
  -20.9410  -29.6520   21.6560 H   0  0  0  0  0  0  0  0  0  0  0  0
  -18.0420  -27.8580   22.7240 C   0  0  0  0  0  0  0  0  0  0  0  0
  -20.5800  -28.1630   23.1070 C   0  0  0  0  0  3  0  0  0  0  0  0
  -20.7330  -26.7290   22.5500 C   0  0  0  0  0  2  0  0  0  0  0  0
  -19.6820  -26.3760   21.4920 C   0  0  0  0  0  2  0  0  0  0  0  0
  -18.2710  -26.5040   22.0720 C   0  0  0  0  0  2  0  0  0  0  0  0
  -19.1270  -28.6430   23.1960 C   0  0  0  0  0  0  0  0  0  0  0  0
  -18.8600  -29.9070   23.7630 C   0  0  0  0  0  3  0  0  0  0  0  0
  -17.5410  -30.3890   23.8600 C   0  0  0  0  0  3  0  0  0  0  0  0
  -16.4700  -29.6030   23.4030 C   0  0  0  0  0  3  0  0  0  0  0  0
  -16.7210  -28.3380   22.8430 C   0  0  0  0  0  3  0  0  0  0  0  0
  -25.8320  -32.3580   23.9300 C   0  0  0  0  0  3  0  0  0  0  0  0
  -26.2900  -31.6140   25.2440 C   0  0  1  0  0  0  0  0  0  0  0  0
  -25.1510  -31.4040   26.2690 C   0  0  0  0  0  1  0  0  0  0  0  0
  -26.8820  -30.2260   24.9070 C   0  0  0  0  0  1  0  0  0  0  0  0
  -27.4190  -32.4190   25.9320 C   0  0  0  0  0  1  0  0  0  0  0  0
  -25.5260  -33.7680   24.2090 N   0  0  0  0  0  0  0  0  0  0  0  0
  -25.8780  -34.7910   23.4190 C   0  0  0  0  0  0  0  0  0  0  0  0
  -26.5620  -34.6480   22.4010 O   0  0  0  0  0  0  0  0  0  0  0  0
  -24.9130  -33.9530   24.9890 H   0  0  0  0  0  0  0  0  0  0  0  0
  -24.1410  -36.5620   23.0170 C   0  0  0  0  0  1  0  0  0  0  0  0
  -25.3960  -36.1960   23.8240 C   0  0  0  0  0  3  0  0  0  0  0  0
  -27.5400  -37.1200   24.5820 C   0  0  0  0  0  1  0  0  0  0  0  0
  -26.4240  -37.2440   23.6480 N   0  0  0  0  0  0  0  0  0  0  0  0
  -26.0190  -38.1700   23.7580 H   0  0  0  0  0  0  0  0  0  0  0  0
  1 50  1  0
  2  4  1  0
  3  6  1  0
  3  5  1  0
  5  7  1  0
  6  1  1  0
  6  2  1  0
  7  4  1  0
  7  8  1  0
  8 11  1  0
  8 10  1  0
 10  9  1  0
 12 18  1  0
 12 20  1  0
 13 18  1  0
 14 15  1  0
 14 13  1  0
 16 15  1  0
 16 25  1  0
 16 17  1  0
 18 17  1  0
 19 12  2  0
 20 11  1  0
 20 21  1  0
 22 23  2  0
 23 42  1  0
 24 23  1  0
 24 27  1  0
 25 26  1  0
 25 22  1  0
 26 24  2  0
 27 28  1  0
 28 29  2  0
 30 33  1  0
 30 29  1  0
 31 30  2  0
 32 31  1  0
 32 27  2  0
 33 34  1  0
 34 35  1  0
 35 36  2  0
 37 36  1  0
 37 41  1  0
 38 37  2  0
 39 34  2  0
 39 38  1  0
 40 39  1  0
 42 43  1  0
 43 45  1  0
 43 46  1  0
 44 42  2  0
 47 22  1  0
 47 48  1  0
 49 47  1  0
 50 51  1  0
 52 50  1  0
 53 50  1  0
 53 54  1  0
 55 54  1  0
 55 56  1  0
 56 57  1  0
 58 69  2  0
 59 57  1  0
 59 64  1  0
 60 68  1  0
 60 70  1  0
 61 67  1  0
 61 63  1  0
 62 68  1  0
 63 64  2  0
 63 62  1  0
 65 59  2  0
 66 65  1  0
 66 61  2  0
 67 60  1  0
 68 58  1  0
 70 72  2  0
 71 70  1  0
 73 71  1  0
 74 83  2  0
 74 79  1  0
 75 71  1  0
 75 79  1  0
 76 75  1  0
 77 78  1  0
 77 76  1  0
 78 74  1  0
 79 80  2  0
 80 81  1  0
 82 81  2  0
 83 82  1  0
 84 58  1  0
 84 89  1  0
 84 85  1  0
 85 88  1  1
 85 86  1  0
 87 85  1  0
 89 92  1  0
 90 94  1  0
 90 89  1  0
 91 90  2  0
 94 93  1  0
 96 97  1  0
 96 94  1  0
 96 95  1  0
M  ISO  4  12 100  20 100  56 101  57 101
M  END
>  <TORSDO>  (82) 
F 25

>  <SCORE>  (82) 
-9.318

>  <name>  (82) 
83

>  <ligand_id>  (82) 
83

>  <original_smiles>  (82) 
[H]c1c([H])c([H])c2c(c1[H])C([H])([H])C([H])([H])C([H])([H])C2([H])N([H])C(=O)C1([H])N(C(=O)C([H])(N([H])C(=O)C([H])(N([H])C([H])([H])[H])C([H])([H])[H])C(C([H])([H])[H])(C([H])([H])[H])C([H])([H])[H])C([H])([H])c2c([H])c(OC([H])([H])C([H])([H])C([H])([H])C([H])([H])[N+]([H])([H])C([H])([H])C3([H])C([H])([H])C([H])([H])C([H])(C([H])(C([H])([H])N([H])C(=O)N4C([H])([H])C([H])([H])C([H])([H])C([H])(n5nc(-c6c([H])c([H])c(Oc7c([H])c([H])c(F)c([H])c7F)c([H])c6[H])c(C(=O)N([H])[H])c5N([H])[H])C4([H])[H])C([H])([H])C([H])([H])[H])C([H])([H])C3([H])[H])c([H])c([H])c2C1([H])[H]

>  <smiles>  (82) 
[H]c1c([H])c([H])c2c(c1[H])C([H])([H])C([H])([H])C([H])([H])C2([H])N([H])C(=O)C1([H])N(C(=O)C([H])(N([H])C(=O)C([H])(N([H])C([H])([H])[H])C([H])([H])[H])C(C([H])([H])[H])(C([H])([H])[H])C([H])([H])[H])C([H])([H])c2c([H])c(OC([H])([H])C([H])([H])C([H])([H])C([H])([H])[N+]([H])([H])C([H])([H])C3([H])C([H])([H])C([H])([H])C([H])(C([H])(C([H])([H])N([H])C(=O)N4C([H])([H])C([H])([H])C([H])([H])C([H])(n5nc(-c6c([H])c([H])c(Oc7c([H])c([H])c(F)c([H])c7F)c([H])c6[H])c(C(=O)N([H])[H])c5N([H])[H])C4([H])[H])C([H])([H])C([H])([H])[H])C([H])([H])C3([H])[H])c([H])c([H])c2C1([H])[H]

$$$$
84:0:0
     RDKit          3D

 98107  0  0  1  0  0  0  0  0999 V2000
  -29.4000  -22.0330   23.1040 C   0  0  0  0  0  3  0  0  0  0  0  0
  -29.0300  -23.3860   23.0020 C   0  0  0  0  0  3  0  0  0  0  0  0
  -28.8810  -21.7170   20.7480 C   0  0  0  0  0  3  0  0  0  0  0  0
  -29.4300  -21.2270   21.9490 C   0  0  0  0  0  0  0  0  0  0  0  0
  -28.6950  -23.9310   21.7460 C   0  0  0  0  0  0  0  0  0  0  0  0
  -28.5020  -23.0710   20.6330 C   0  0  0  0  0  0  0  0  0  0  0  0
  -31.1570  -20.0450   20.6590 C   0  0  0  0  0  2  0  0  0  0  0  0
  -29.5430  -18.6390   22.0280 C   0  0  0  0  0  2  0  0  0  0  0  0
  -32.1160  -18.8650   20.5500 C   0  0  0  0  0  2  0  0  0  0  0  0
  -30.5170  -17.4500   21.9120 C   0  0  0  0  0  2  0  0  0  0  0  0
  -30.2990  -19.9810   21.9380 C   0  0  0  0  0  3  0  0  0  0  0  0
  -31.3710  -17.5200   20.6230 C   0  0  0  0  0  3  0  0  0  0  0  0
  -32.4010  -16.3830   20.4870 C   0  0  0  0  0  2  0  0  0  0  0  0
  -32.0120  -15.0220   21.0760 C   0  0  0  0  0  2  0  0  0  0  0  0
  -30.7800  -13.8880   19.2060 C   0  0  0  0  0  0  0  0  0  0  0  0
  -30.1750  -11.7360   18.1690 C   0  0  0  0  0  2  0  0  0  0  0  0
  -29.0310  -11.7770   17.1460 C   0  0  0  0  0  2  0  0  0  0  0  0
  -27.6710  -11.6580   17.8530 C   0  0  0  0  0  2  0  0  0  0  0  0
  -27.5240  -12.6740   19.0130 C   0  0  0  0  0  3  0  0  0  0  0  0
  -28.7440  -12.6230   19.9530 C   0  0  0  0  0  2  0  0  0  0  0  0
  -29.9710  -12.8060   19.1520 N   0  0  0  0  0  0  0  0  0  0  0  0
  -31.5520  -14.2220   18.2990 O   0  0  0  0  0  0  0  0  0  0  0  0
  -30.8640  -14.3820   20.4440 N   0  0  0  0  0  0  0  0  0  0  0  0
  -30.1750  -14.0090   21.0820 H   0  0  0  0  0  0  0  0  0  0  0  0
  -25.3620  -13.4040   20.2090 C   0  0  0  0  0  0  0  0  0  0  0  0
  -24.3390  -12.6830   20.7660 C   0  0  0  0  0  0  0  0  0  0  0  0
  -24.6920  -11.3080   20.6060 C   0  0  0  0  0  0  0  0  0  0  0  0
  -26.2770  -12.4680   19.7500 N   0  0  0  0  0  0  0  0  0  0  0  0
  -25.8870  -11.2010   20.0410 N   0  0  0  0  0  0  0  0  0  0  0  0
  -23.9330  -10.0850   20.9050 C   0  0  0  0  0  0  0  0  0  0  0  0
  -24.4460   -9.0910   21.7640 C   0  0  0  0  0  3  0  0  0  0  0  0
  -23.6910   -7.9320   22.0500 C   0  0  0  0  0  3  0  0  0  0  0  0
  -22.4100   -7.7620   21.4770 C   0  0  0  0  0  0  0  0  0  0  0  0
  -21.9120   -8.7450   20.6030 C   0  0  0  0  0  3  0  0  0  0  0  0
  -22.6670   -9.8960   20.3160 C   0  0  0  0  0  3  0  0  0  0  0  0
  -21.6150   -6.6580   21.6750 O   0  0  0  0  0  0  0  0  0  0  0  0
  -21.6090   -5.9820   22.8680 C   0  0  0  0  0  0  0  0  0  0  0  0
  -21.3030   -6.6250   24.0890 C   0  0  0  0  0  3  0  0  0  0  0  0
  -21.2390   -5.8770   25.2810 C   0  0  0  0  0  3  0  0  0  0  0  0
  -21.4740   -4.4890   25.2580 C   0  0  0  0  0  0  0  0  0  0  0  0
  -21.7720   -3.8470   24.0420 C   0  0  0  0  0  3  0  0  0  0  0  0
  -21.8390   -4.5920   22.8520 C   0  0  0  0  0  0  0  0  0  0  0  0
  -22.1070   -3.9630   21.6820 F   0  0  0  0  0  0  0  0  0  0  0  0
  -21.4040   -3.7700   26.4020 F   0  0  0  0  0  0  0  0  0  0  0  0
  -23.0600  -13.2350   21.3280 C   0  0  0  0  0  0  0  0  0  0  0  0
  -22.4910  -12.5670   22.3260 N   0  0  0  0  0  0  0  0  0  0  0  0
  -22.5820  -14.2910   20.9160 O   0  0  0  0  0  0  0  0  0  0  0  0
  -22.8950  -11.7120   22.6790 H   0  0  0  0  0  0  0  0  0  0  0  0
  -21.6400  -12.9170   22.7430 H   0  0  0  0  0  0  0  0  0  0  0  0
  -25.5830  -14.7660   20.0400 N   0  0  0  0  0  0  0  0  0  0  0  0
  -24.9050  -15.4640   20.3230 H   0  0  0  0  0  0  0  0  0  0  0  0
  -26.3920  -15.1640   19.5800 H   0  0  0  0  0  0  0  0  0  0  0  0
  -26.8290  -22.8020   18.7340 C   0  0  0  0  0  1  0  0  0  0  0  0
  -28.0430  -23.5760   19.2700 C   0  0  0  0  0  2  0  0  0  0  0  0
  -28.8470  -25.4370   21.5750 C   0  0  0  0  0  2  0  0  0  0  0  0
  -29.8480  -25.7090   20.4130 C   0  0  0  0  0  2  0  0  0  0  0  0
  -30.7120  -26.9880   20.5440 C   0  0  0  0  0  2  0  0  0  0  0  0
  -30.3120  -28.0460   19.6680 O   0  0  0  0  0  0  0  0  0  0  0  0
  -25.3610  -30.6690   24.0390 C   0  0  0  0  0  0  0  0  0  0  0  0
  -29.0070  -28.4150   19.8410 C   0  0  0  0  0  0  0  0  0  0  0  0
  -24.5340  -29.6030   21.9670 C   0  0  0  0  0  3  0  0  0  0  0  0
  -26.3000  -29.0930   20.2040 C   0  0  0  0  0  0  0  0  0  0  0  0
  -26.8410  -30.7030   22.0370 C   0  0  0  0  0  2  0  0  0  0  0  0
  -27.2840  -29.6960   20.9960 C   0  0  0  0  0  0  0  0  0  0  0  0
  -28.6440  -29.3610   20.8250 C   0  0  0  0  0  3  0  0  0  0  0  0
  -28.0130  -27.8260   19.0370 C   0  0  0  0  0  3  0  0  0  0  0  0
  -26.6580  -28.1520   19.2230 C   0  0  0  0  0  3  0  0  0  0  0  0
  -24.8700  -29.5020   20.4570 C   0  0  0  0  0  2  0  0  0  0  0  0
  -25.5950  -30.3250   22.7420 N   0  0  0  0  0  0  0  0  0  0  0  0
  -24.2740  -30.4310   24.5800 O   0  0  0  0  0  0  0  0  0  0  0  0
  -24.2450  -28.1810   22.5050 C   0  0  0  0  0  0  0  0  0  0  0  0
  -23.1220  -27.5900   22.0660 N   0  0  0  0  0  0  0  0  0  0  0  0
  -25.0330  -27.6230   23.2720 O   0  0  0  0  0  0  0  0  0  0  0  0
  -22.5280  -28.1130   21.4410 H   0  0  0  0  0  0  0  0  0  0  0  0
  -20.5570  -25.1330   21.4160 C   0  0  0  0  0  0  0  0  0  0  0  0
  -22.6690  -26.2450   22.4110 C   0  0  0  0  0  3  0  0  0  0  0  0
  -23.4740  -25.1730   21.6410 C   0  0  0  0  0  2  0  0  0  0  0  0
  -22.8100  -24.7470   20.3280 C   0  0  0  0  0  2  0  0  0  0  0  0
  -21.4090  -24.1880   20.5860 C   0  0  0  0  0  2  0  0  0  0  0  0
  -21.1490  -26.1070   22.2620 C   0  0  0  0  0  0  0  0  0  0  0  0
  -20.3120  -26.9870   22.9820 C   0  0  0  0  0  3  0  0  0  0  0  0
  -18.9110  -26.9010   22.8730 C   0  0  0  0  0  3  0  0  0  0  0  0
  -18.3310  -25.9190   22.0520 C   0  0  0  0  0  3  0  0  0  0  0  0
  -19.1520  -25.0390   21.3260 C   0  0  0  0  0  3  0  0  0  0  0  0
  -26.4390  -31.4010   24.8950 C   0  0  0  0  0  3  0  0  0  0  0  0
  -25.9660  -32.7700   25.1340 N   0  0  0  0  0  0  0  0  0  0  0  0
  -26.3840  -33.8490   24.4570 C   0  0  0  0  0  0  0  0  0  0  0  0
  -27.2800  -33.8030   23.6100 O   0  0  0  0  0  0  0  0  0  0  0  0
  -25.2090  -32.8770   25.7930 H   0  0  0  0  0  0  0  0  0  0  0  0
  -24.6790  -35.5140   23.6750 C   0  0  0  0  0  1  0  0  0  0  0  0
  -25.6990  -35.1890   24.7780 C   0  0  0  0  0  3  0  0  0  0  0  0
  -27.5650  -36.1460   26.0540 C   0  0  0  0  0  1  0  0  0  0  0  0
  -26.6480  -36.3140   24.9290 N   0  0  0  0  0  0  0  0  0  0  0  0
  -26.1480  -37.1900   25.0580 H   0  0  0  0  0  0  0  0  0  0  0  0
  -26.7520  -30.6740   26.2570 C   0  0  1  0  0  0  0  0  0  0  0  0
  -25.4900  -30.2480   27.0380 C   0  0  0  0  0  1  0  0  0  0  0  0
  -27.6060  -29.4090   26.0190 C   0  0  0  0  0  1  0  0  0  0  0  0
  -27.5910  -31.6040   27.1660 C   0  0  0  0  0  1  0  0  0  0  0  0
  2  1  1  0
  3  4  1  0
  4  1  2  0
  5  2  2  0
  6  3  2  0
  6  5  1  0
  7 11  1  0
  9 12  1  0
  9  7  1  0
 10  8  1  0
 11  4  1  0
 11  8  1  0
 12 13  1  0
 12 10  1  0
 13 14  1  0
 15 23  1  0
 16 21  1  0
 17 18  1  0
 17 16  1  0
 19 18  1  0
 19 28  1  0
 19 20  1  0
 21 15  1  0
 21 20  1  0
 22 15  2  0
 23 14  1  0
 23 24  1  0
 25 26  2  0
 26 45  1  0
 27 26  1  0
 27 30  1  0
 28 29  1  0
 28 25  1  0
 29 27  2  0
 30 31  1  0
 31 32  2  0
 33 36  1  0
 33 32  1  0
 34 33  2  0
 35 34  1  0
 35 30  2  0
 36 37  1  0
 37 38  1  0
 38 39  2  0
 40 39  1  0
 40 44  1  0
 41 40  2  0
 42 37  2  0
 42 41  1  0
 43 42  1  0
 45 46  1  0
 46 48  1  0
 46 49  1  0
 47 45  2  0
 50 25  1  0
 50 51  1  0
 52 50  1  0
 53 54  1  0
 54  6  1  0
 55  5  1  0
 56 57  1  0
 56 55  1  0
 58 60  1  0
 58 57  1  0
 59 70  2  0
 60 65  1  0
 61 71  1  0
 61 69  1  0
 62 68  1  0
 62 64  1  0
 63 69  1  0
 64 63  1  0
 65 64  2  0
 66 67  1  0
 66 60  2  0
 67 62  2  0
 68 61  1  0
 69 59  1  0
 71 73  2  0
 72 71  1  0
 74 72  1  0
 75 80  1  0
 76 72  1  0
 77 76  1  0
 78 79  1  0
 78 77  1  0
 79 75  1  0
 80 76  1  0
 80 81  2  0
 82 81  1  0
 83 82  2  0
 84 75  2  0
 84 83  1  0
 85 59  1  0
 85 86  1  0
 85 95  1  0
 86 89  1  0
 87 91  1  0
 87 86  1  0
 88 87  2  0
 91 90  1  0
 91 93  1  0
 93 94  1  0
 93 92  1  0
 95 96  1  1
 95 98  1  0
 97 95  1  0
M  ISO  4  15 100  23 100  57 101  58 101
M  END
>  <TORSDO>  (83) 
F 23

>  <SCORE>  (83) 
-5.592

>  <name>  (83) 
84

>  <ligand_id>  (83) 
84

>  <original_smiles>  (83) 
[H]c1c([H])c([H])c2c(c1[H])C([H])([H])C([H])([H])C([H])([H])C2([H])N([H])C(=O)C1([H])N(C(=O)C([H])(N([H])C(=O)C([H])(N([H])C([H])([H])[H])C([H])([H])[H])C(C([H])([H])[H])(C([H])([H])[H])C([H])([H])[H])C([H])([H])c2c([H])c(OC([H])([H])C([H])([H])C([H])([H])c3c([H])c([H])c(C4([H])C([H])([H])C([H])([H])C([H])(C([H])([H])C([H])([H])N([H])C(=O)N5C([H])([H])C([H])([H])C([H])([H])C([H])(n6nc(-c7c([H])c([H])c(Oc8c([H])c([H])c(F)c([H])c8F)c([H])c7[H])c(C(=O)N([H])[H])c6N([H])[H])C5([H])[H])C([H])([H])C4([H])[H])c([H])c3C([H])([H])C([H])([H])[H])c([H])c([H])c2C1([H])[H]

>  <smiles>  (83) 
[H]c1c([H])c([H])c2c(c1[H])C([H])([H])C([H])([H])C([H])([H])C2([H])N([H])C(=O)C1([H])N(C(=O)C([H])(N([H])C(=O)C([H])(N([H])C([H])([H])[H])C([H])([H])[H])C(C([H])([H])[H])(C([H])([H])[H])C([H])([H])[H])C([H])([H])c2c([H])c(OC([H])([H])C([H])([H])C([H])([H])c3c([H])c([H])c(C4([H])C([H])([H])C([H])([H])C([H])(C([H])([H])C([H])([H])N([H])C(=O)N5C([H])([H])C([H])([H])C([H])([H])C([H])(n6nc(-c7c([H])c([H])c(Oc8c([H])c([H])c(F)c([H])c8F)c([H])c7[H])c(C(=O)N([H])[H])c6N([H])[H])C5([H])[H])C([H])([H])C4([H])[H])c([H])c3C([H])([H])C([H])([H])[H])c([H])c([H])c2C1([H])[H]

$$$$
85:0:0
     RDKit          3D

 97106  0  0  1  0  0  0  0  0999 V2000
  -24.2980  -20.9910   19.4340 C   0  0  0  0  0  2  0  0  0  0  0  0
  -24.7280  -20.4460   18.0630 C   0  0  0  0  0  2  0  0  0  0  0  0
  -26.8080  -19.2660   16.9590 C   0  0  0  0  0  2  0  0  0  0  0  0
  -26.7450  -18.8450   18.4110 C   0  0  0  0  0  3  0  0  0  0  0  0
  -26.2200  -20.1960   17.9970 C   0  0  0  0  0  3  0  0  0  0  0  0
  -29.4070  -19.2540   21.1420 C   0  0  0  0  0  3  0  0  0  0  0  0
  -28.2630  -19.4830   20.3510 C   0  0  0  0  0  3  0  0  0  0  0  0
  -30.2560  -18.1620   20.8680 C   0  0  0  0  0  3  0  0  0  0  0  0
  -28.8530  -17.6050   18.9460 C   0  0  0  0  0  3  0  0  0  0  0  0
  -27.9830  -18.6690   19.2350 C   0  0  0  0  0  0  0  0  0  0  0  0
  -29.9550  -17.3160   19.7790 C   0  0  0  0  0  0  0  0  0  0  0  0
  -31.3440  -15.3230   20.2930 C   0  0  0  0  0  0  0  0  0  0  0  0
  -31.1260  -13.0410   19.4790 C   0  0  0  0  0  2  0  0  0  0  0  0
  -30.2390  -13.1360   18.2180 C   0  0  0  0  0  2  0  0  0  0  0  0
  -28.7420  -13.0670   18.5880 C   0  0  0  0  0  2  0  0  0  0  0  0
  -28.3450  -14.0160   19.7510 C   0  0  0  0  0  3  0  0  0  0  0  0
  -29.3660  -13.9450   20.9140 C   0  0  0  0  0  2  0  0  0  0  0  0
  -30.7220  -14.1270   20.3690 N   0  0  0  0  0  0  0  0  0  0  0  0
  -32.5630  -15.4920   20.3120 O   0  0  0  0  0  0  0  0  0  0  0  0
  -30.6450  -16.1230   19.4820 N   0  0  0  0  0  0  0  0  0  0  0  0
  -30.1770  -15.5800   18.7730 H   0  0  0  0  0  0  0  0  0  0  0  0
  -25.9640  -14.7150   20.4310 C   0  0  0  0  0  0  0  0  0  0  0  0
  -24.8480  -13.9830   20.7310 C   0  0  0  0  0  0  0  0  0  0  0  0
  -25.2500  -12.6140   20.6650 C   0  0  0  0  0  0  0  0  0  0  0  0
  -26.9730  -13.7930   20.1960 N   0  0  0  0  0  0  0  0  0  0  0  0
  -26.5450  -12.5240   20.3990 N   0  0  0  0  0  0  0  0  0  0  0  0
  -24.4640  -11.3830   20.7860 C   0  0  0  0  0  0  0  0  0  0  0  0
  -24.8060  -10.3810   21.7210 C   0  0  0  0  0  3  0  0  0  0  0  0
  -24.0260   -9.2110   21.8300 C   0  0  0  0  0  3  0  0  0  0  0  0
  -22.8910   -9.0360   21.0030 C   0  0  0  0  0  0  0  0  0  0  0  0
  -22.5690  -10.0260   20.0590 C   0  0  0  0  0  3  0  0  0  0  0  0
  -23.3500  -11.1880   19.9470 C   0  0  0  0  0  3  0  0  0  0  0  0
  -22.0890   -7.9200   21.0230 O   0  0  0  0  0  0  0  0  0  0  0  0
  -21.8920   -7.1980   22.1710 C   0  0  0  0  0  0  0  0  0  0  0  0
  -21.3770   -7.7900   23.3460 C   0  0  0  0  0  3  0  0  0  0  0  0
  -21.1240   -6.9940   24.4810 C   0  0  0  0  0  3  0  0  0  0  0  0
  -21.3750   -5.6100   24.4430 C   0  0  0  0  0  0  0  0  0  0  0  0
  -21.8850   -5.0190   23.2730 C   0  0  0  0  0  3  0  0  0  0  0  0
  -22.1390   -5.8100   22.1400 C   0  0  0  0  0  0  0  0  0  0  0  0
  -22.6100   -5.2330   21.0080 F   0  0  0  0  0  0  0  0  0  0  0  0
  -21.1250   -4.8450   25.5300 F   0  0  0  0  0  0  0  0  0  0  0  0
  -23.4650  -14.5160   20.9720 C   0  0  0  0  0  0  0  0  0  0  0  0
  -22.6820  -13.8340   21.8000 N   0  0  0  0  0  0  0  0  0  0  0  0
  -23.0880  -15.5720   20.4640 O   0  0  0  0  0  0  0  0  0  0  0  0
  -23.0010  -12.9820   22.2360 H   0  0  0  0  0  0  0  0  0  0  0  0
  -21.7520  -14.1720   22.0080 H   0  0  0  0  0  0  0  0  0  0  0  0
  -26.1920  -16.0810   20.3240 N   0  0  0  0  0  0  0  0  0  0  0  0
  -25.4500  -16.7560   20.4660 H   0  0  0  0  0  0  0  0  0  0  0  0
  -27.0900  -16.5120   20.1480 H   0  0  0  0  0  0  0  0  0  0  0  0
  -24.4640  -22.5160   19.5610 C   0  0  0  0  0  2  0  0  0  0  0  0
  -25.3130  -22.9830   20.7550 C   0  0  0  0  0  2  0  0  0  0  0  0
  -26.8350  -22.8370   20.5180 C   0  0  0  0  0  2  0  0  0  0  0  0
  -27.7300  -23.6940   21.4440 C   0  0  0  0  0  2  0  0  0  0  0  0
  -26.7250  -25.8310   22.4670 C   0  0  0  0  0  1  0  0  0  0  0  0
  -27.4820  -25.2130   21.2660 C   0  0  0  0  0  3  0  0  0  0  0  0
  -28.7160  -26.0590   20.8330 C   0  0  0  0  0  2  0  0  0  0  0  0
  -28.4900  -27.0660   19.8290 O   0  0  0  0  0  0  0  0  0  0  0  0
  -24.6510  -32.0250   23.2050 C   0  0  0  0  0  0  0  0  0  0  0  0
  -27.3230  -27.7860   19.9040 C   0  0  0  0  0  0  0  0  0  0  0  0
  -23.4390  -30.6410   21.5540 C   0  0  0  0  0  3  0  0  0  0  0  0
  -24.8920  -29.2040   20.0360 C   0  0  0  0  0  0  0  0  0  0  0  0
  -25.9430  -31.0840   21.3000 C   0  0  0  0  0  2  0  0  0  0  0  0
  -26.0490  -29.7350   20.6240 C   0  0  0  0  0  0  0  0  0  0  0  0
  -27.2700  -29.0250   20.5730 C   0  0  0  0  0  3  0  0  0  0  0  0
  -26.1670  -27.2980   19.2580 C   0  0  0  0  0  3  0  0  0  0  0  0
  -24.9430  -27.9790   19.3550 C   0  0  0  0  0  3  0  0  0  0  0  0
  -23.6270  -30.0190   20.1460 C   0  0  0  0  0  2  0  0  0  0  0  0
  -24.6980  -31.2620   22.0790 N   0  0  0  0  0  0  0  0  0  0  0  0
  -23.5780  -32.2500   23.7820 O   0  0  0  0  0  0  0  0  0  0  0  0
  -22.8470  -29.5690   22.4990 C   0  0  0  0  0  0  0  0  0  0  0  0
  -21.5290  -29.3350   22.3870 N   0  0  0  0  0  0  0  0  0  0  0  0
  -23.5690  -28.9530   23.2870 O   0  0  0  0  0  0  0  0  0  0  0  0
  -21.0030  -29.8850   21.7220 H   0  0  0  0  0  0  0  0  0  0  0  0
  -18.2200  -27.9780   22.8950 C   0  0  0  0  0  0  0  0  0  0  0  0
  -20.7650  -28.3490   23.1500 C   0  0  0  0  0  3  0  0  0  0  0  0
  -20.9300  -26.9350   22.5480 C   0  0  0  0  0  2  0  0  0  0  0  0
  -19.8370  -26.5830   21.5340 C   0  0  0  0  0  2  0  0  0  0  0  0
  -18.4540  -26.6540   22.1880 C   0  0  0  0  0  2  0  0  0  0  0  0
  -19.3050  -28.7840   23.3320 C   0  0  0  0  0  0  0  0  0  0  0  0
  -19.0330  -30.0270   23.9430 C   0  0  0  0  0  3  0  0  0  0  0  0
  -17.7070  -30.4650   24.1240 C   0  0  0  0  0  3  0  0  0  0  0  0
  -16.6370  -29.6560   23.7070 C   0  0  0  0  0  3  0  0  0  0  0  0
  -16.8940  -28.4150   23.0960 C   0  0  0  0  0  3  0  0  0  0  0  0
  -25.9390  -32.6760   23.8030 C   0  0  0  0  0  3  0  0  0  0  0  0
  -26.4850  -31.9170   25.0730 C   0  0  1  0  0  0  0  0  0  0  0  0
  -25.4110  -31.6680   26.1570 C   0  0  0  0  0  1  0  0  0  0  0  0
  -27.0830  -30.5460   24.6750 C   0  0  0  0  0  1  0  0  0  0  0  0
  -27.6340  -32.7290   25.7170 C   0  0  0  0  0  1  0  0  0  0  0  0
  -25.6160  -34.0730   24.1290 N   0  0  0  0  0  0  0  0  0  0  0  0
  -25.9250  -35.1250   23.3600 C   0  0  0  0  0  0  0  0  0  0  0  0
  -26.5870  -35.0250   22.3230 O   0  0  0  0  0  0  0  0  0  0  0  0
  -25.0310  -34.2240   24.9390 H   0  0  0  0  0  0  0  0  0  0  0  0
  -24.1700  -36.8910   23.0150 C   0  0  0  0  0  1  0  0  0  0  0  0
  -25.4250  -36.5100   23.8150 C   0  0  0  0  0  3  0  0  0  0  0  0
  -27.5560  -37.4250   24.6160 C   0  0  0  0  0  1  0  0  0  0  0  0
  -26.4400  -37.5740   23.6850 N   0  0  0  0  0  0  0  0  0  0  0  0
  -26.0240  -38.4890   23.8360 H   0  0  0  0  0  0  0  0  0  0  0  0
  1 50  1  0
  2  1  1  0
  3  5  1  0
  3  4  1  0
  4 10  1  0
  5  2  1  0
  5  4  1  0
  7  6  2  0
  8  6  1  0
  9 10  2  0
  9 11  1  0
 10  7  1  0
 11  8  2  0
 12 19  2  0
 12 18  1  0
 13 18  1  0
 14 15  1  0
 14 13  1  0
 16 15  1  0
 16 25  1  0
 16 17  1  0
 18 17  1  0
 20 11  1  0
 20 12  1  0
 21 20  1  0
 22 23  2  0
 23 42  1  0
 24 23  1  0
 24 27  1  0
 25 26  1  0
 25 22  1  0
 26 24  2  0
 27 28  1  0
 28 29  2  0
 30 33  1  0
 30 29  1  0
 31 30  2  0
 32 31  1  0
 32 27  2  0
 33 34  1  0
 34 35  1  0
 35 36  2  0
 37 36  1  0
 37 41  1  0
 38 37  2  0
 39 34  2  0
 39 38  1  0
 40 39  1  0
 42 43  1  0
 43 46  1  0
 43 45  1  0
 44 42  2  0
 47 22  1  0
 47 48  1  0
 49 47  1  0
 50 51  1  0
 52 51  1  0
 52 53  1  0
 55 53  1  0
 55 54  1  0
 56 55  1  0
 57 59  1  0
 57 56  1  0
 58 69  2  0
 59 64  1  0
 60 68  1  0
 60 70  1  0
 61 67  1  0
 61 63  1  0
 62 68  1  0
 63 62  1  0
 64 63  2  0
 65 66  1  0
 65 59  2  0
 66 61  2  0
 67 60  1  0
 68 58  1  0
 70 72  2  0
 71 70  1  0
 73 71  1  0
 74 83  2  0
 74 79  1  0
 75 71  1  0
 75 79  1  0
 76 75  1  0
 77 78  1  0
 77 76  1  0
 78 74  1  0
 79 80  2  0
 80 81  1  0
 82 81  2  0
 83 82  1  0
 84 58  1  0
 84 89  1  0
 84 85  1  0
 85 88  1  1
 85 86  1  0
 87 85  1  0
 89 92  1  0
 90 94  1  0
 90 89  1  0
 91 90  2  0
 94 93  1  0
 96 94  1  0
 96 97  1  0
 96 95  1  0
M  ISO  4  12 100  20 100  56 101  57 101
M  END
>  <TORSDO>  (84) 
F 25

>  <SCORE>  (84) 
-8.740

>  <name>  (84) 
85

>  <ligand_id>  (84) 
85

>  <original_smiles>  (84) 
[H]c1c([H])c([H])c2c(c1[H])C([H])([H])C([H])([H])C([H])([H])C2([H])N([H])C(=O)C1([H])N(C(=O)C([H])(N([H])C(=O)C([H])(N([H])C([H])([H])[H])C([H])([H])[H])C(C([H])([H])[H])(C([H])([H])[H])C([H])([H])[H])C([H])([H])c2c([H])c(OC([H])([H])C([H])(C([H])([H])[H])C([H])([H])C([H])([H])C([H])([H])C([H])([H])C([H])([H])C([H])([H])C3([H])C([H])([H])C3([H])c3c([H])c([H])c([H])c(N([H])C(=O)N4C([H])([H])C([H])([H])C([H])([H])C([H])(n5nc(-c6c([H])c([H])c(Oc7c([H])c([H])c(F)c([H])c7F)c([H])c6[H])c(C(=O)N([H])[H])c5N([H])[H])C4([H])[H])c3[H])c([H])c([H])c2C1([H])[H]

>  <smiles>  (84) 
[H]c1c([H])c([H])c2c(c1[H])C([H])([H])C([H])([H])C([H])([H])C2([H])N([H])C(=O)C1([H])N(C(=O)C([H])(N([H])C(=O)C([H])(N([H])C([H])([H])[H])C([H])([H])[H])C(C([H])([H])[H])(C([H])([H])[H])C([H])([H])[H])C([H])([H])c2c([H])c(OC([H])([H])C([H])(C([H])([H])[H])C([H])([H])C([H])([H])C([H])([H])C([H])([H])C([H])([H])C([H])([H])C3([H])C([H])([H])C3([H])c3c([H])c([H])c([H])c(N([H])C(=O)N4C([H])([H])C([H])([H])C([H])([H])C([H])(n5nc(-c6c([H])c([H])c(Oc7c([H])c([H])c(F)c([H])c7F)c([H])c6[H])c(C(=O)N([H])[H])c5N([H])[H])C4([H])[H])c3[H])c([H])c([H])c2C1([H])[H]

$$$$
86:0:0
     RDKit          3D

 94103  0  0  1  0  0  0  0  0999 V2000
  -27.3460  -19.4390   18.3690 C   0  0  0  0  0  2  0  0  0  0  0  0
  -29.2490  -17.6150   18.5220 C   0  0  0  0  0  2  0  0  0  0  0  0
  -29.2160  -18.9860   20.7190 C   0  0  0  0  0  2  0  0  0  0  0  0
  -28.6940  -18.9150   17.9010 C   0  0  0  0  0  3  0  0  0  0  0  0
  -28.5860  -20.2660   18.6030 C   0  0  0  0  0  3  0  0  0  0  0  0
  -29.1700  -20.4880   19.9880 C   0  0  0  0  0  3  0  0  0  0  0  0
  -29.9200  -17.6840   19.9420 C   0  0  1  0  0  0  0  0  0  0  0  0
  -30.5800  -15.0120   20.2470 C   0  0  0  0  0  0  0  0  0  0  0  0
  -30.4250  -12.6730   19.3160 C   0  0  0  0  0  2  0  0  0  0  0  0
  -29.4790  -12.6640   18.0930 C   0  0  0  0  0  2  0  0  0  0  0  0
  -28.0140  -12.4720   18.5290 C   0  0  0  0  0  2  0  0  0  0  0  0
  -27.6330  -13.3650   19.7390 C   0  0  0  0  0  3  0  0  0  0  0  0
  -28.7070  -13.3470   20.8520 C   0  0  0  0  0  2  0  0  0  0  0  0
  -29.9770  -13.7550   20.2380 N   0  0  0  0  0  0  0  0  0  0  0  0
  -31.7480  -15.0610   19.8530 O   0  0  0  0  0  0  0  0  0  0  0  0
  -29.8250  -16.1930   20.4850 N   0  0  0  0  0  0  0  0  0  0  0  0
  -28.9290  -15.9940   20.9000 H   0  0  0  0  0  0  0  0  0  0  0  0
  -25.2570  -13.9170   20.5160 C   0  0  0  0  0  0  0  0  0  0  0  0
  -24.2050  -13.1310   20.8910 C   0  0  0  0  0  0  0  0  0  0  0  0
  -24.6800  -11.7830   20.8410 C   0  0  0  0  0  0  0  0  0  0  0  0
  -26.3040  -13.0490   20.2500 N   0  0  0  0  0  0  0  0  0  0  0  0
  -25.9660  -11.7590   20.5060 N   0  0  0  0  0  0  0  0  0  0  0  0
  -23.9650  -10.5160   21.0230 C   0  0  0  0  0  0  0  0  0  0  0  0
  -24.3980   -9.5510   21.9570 C   0  0  0  0  0  3  0  0  0  0  0  0
  -23.6790   -8.3460   22.1260 C   0  0  0  0  0  3  0  0  0  0  0  0
  -22.5180   -8.0990   21.3590 C   0  0  0  0  0  0  0  0  0  0  0  0
  -22.1080   -9.0520   20.4100 C   0  0  0  0  0  3  0  0  0  0  0  0
  -22.8250  -10.2480   20.2360 C   0  0  0  0  0  3  0  0  0  0  0  0
  -21.7650   -6.9510   21.4420 O   0  0  0  0  0  0  0  0  0  0  0  0
  -21.6850   -6.2230   22.5990 C   0  0  0  0  0  0  0  0  0  0  0  0
  -21.1730   -6.7740   23.7950 C   0  0  0  0  0  3  0  0  0  0  0  0
  -21.0470   -5.9690   24.9440 C   0  0  0  0  0  3  0  0  0  0  0  0
  -21.4190   -4.6120   24.9000 C   0  0  0  0  0  0  0  0  0  0  0  0
  -21.9250   -4.0600   23.7080 C   0  0  0  0  0  3  0  0  0  0  0  0
  -22.0560   -4.8640   22.5650 C   0  0  0  0  0  0  0  0  0  0  0  0
  -22.5240   -4.3220   21.4150 F   0  0  0  0  0  0  0  0  0  0  0  0
  -21.2900   -3.8350   26.0020 F   0  0  0  0  0  0  0  0  0  0  0  0
  -22.8110  -13.5960   21.1910 C   0  0  0  0  0  0  0  0  0  0  0  0
  -22.0950  -12.8800   22.0490 N   0  0  0  0  0  0  0  0  0  0  0  0
  -22.3630  -14.6300   20.6990 O   0  0  0  0  0  0  0  0  0  0  0  0
  -22.4640  -12.0390   22.4660 H   0  0  0  0  0  0  0  0  0  0  0  0
  -21.1610  -13.1790   22.2960 H   0  0  0  0  0  0  0  0  0  0  0  0
  -25.4080  -15.2930   20.3560 N   0  0  0  0  0  0  0  0  0  0  0  0
  -24.6410  -15.9430   20.4940 H   0  0  0  0  0  0  0  0  0  0  0  0
  -26.2590  -15.7490   20.0570 H   0  0  0  0  0  0  0  0  0  0  0  0
  -31.4160  -18.0920   19.8290 C   0  0  0  0  0  0  0  0  0  0  0  0
  -32.1680  -17.9800   20.9190 N   0  0  0  0  0  0  0  0  0  0  0  0
  -31.9000  -18.5330   18.7880 O   0  0  0  0  0  0  0  0  0  0  0  0
  -31.7730  -17.6230   21.7770 H   0  0  0  0  0  0  0  0  0  0  0  0
  -33.1490  -18.2220   20.8850 H   0  0  0  0  0  0  0  0  0  0  0  0
  -28.5310  -21.8900   20.6550 C   0  0  0  0  0  2  0  0  0  0  0  0
  -28.7710  -23.4450   20.0790 C   0  0  0  0  0  3  0  0  0  0  0  0
  -27.9550  -24.7990   20.6220 C   0  0  0  0  0  3  0  0  0  0  0  0
  -28.2440  -26.2840   20.2940 O   0  0  0  0  0  0  0  0  0  0  0  0
  -24.6060  -31.9570   23.2310 C   0  0  0  0  0  0  0  0  0  0  0  0
  -27.1870  -27.2510   20.2460 C   0  0  0  0  0  0  0  0  0  0  0  0
  -23.4090  -30.5540   21.5910 C   0  0  0  0  0  3  0  0  0  0  0  0
  -24.8590  -28.9750   20.1840 C   0  0  0  0  0  0  0  0  0  0  0  0
  -25.9600  -30.8270   21.4340 C   0  0  0  0  0  2  0  0  0  0  0  0
  -26.0370  -29.4350   20.7930 C   0  0  0  0  0  0  0  0  0  0  0  0
  -27.2030  -28.5870   20.8080 C   0  0  0  0  0  3  0  0  0  0  0  0
  -25.9890  -26.8890   19.5930 C   0  0  0  0  0  3  0  0  0  0  0  0
  -24.8470  -27.7120   19.5750 C   0  0  0  0  0  3  0  0  0  0  0  0
  -23.6310  -29.8680   20.2200 C   0  0  0  0  0  2  0  0  0  0  0  0
  -24.6780  -31.1350   22.1400 N   0  0  0  0  0  0  0  0  0  0  0  0
  -23.5180  -32.2430   23.7530 O   0  0  0  0  0  0  0  0  0  0  0  0
  -22.7310  -29.5500   22.5570 C   0  0  0  0  0  0  0  0  0  0  0  0
  -21.4020  -29.3860   22.4300 N   0  0  0  0  0  0  0  0  0  0  0  0
  -23.3990  -28.9230   23.3820 O   0  0  0  0  0  0  0  0  0  0  0  0
  -20.9200  -29.9480   21.7410 H   0  0  0  0  0  0  0  0  0  0  0  0
  -18.0110  -28.2250   22.9530 C   0  0  0  0  0  0  0  0  0  0  0  0
  -20.5740  -28.4550   23.2030 C   0  0  0  0  0  3  0  0  0  0  0  0
  -20.6530  -27.0230   22.6240 C   0  0  0  0  0  2  0  0  0  0  0  0
  -19.5410  -26.7170   21.6170 C   0  0  0  0  0  2  0  0  0  0  0  0
  -18.1670  -26.8780   22.2700 C   0  0  0  0  0  2  0  0  0  0  0  0
  -19.1420  -28.9740   23.3760 C   0  0  0  0  0  0  0  0  0  0  0  0
  -18.9410  -30.2360   23.9750 C   0  0  0  0  0  3  0  0  0  0  0  0
  -17.6430  -30.7490   24.1580 C   0  0  0  0  0  3  0  0  0  0  0  0
  -16.5270  -29.9980   23.7500 C   0  0  0  0  0  3  0  0  0  0  0  0
  -16.7130  -28.7370   23.1530 C   0  0  0  0  0  3  0  0  0  0  0  0
  -25.8830  -32.5970   23.8590 C   0  0  0  0  0  3  0  0  0  0  0  0
  -26.3820  -31.8400   25.1520 C   0  0  1  0  0  0  0  0  0  0  0  0
  -25.2800  -31.6150   26.2110 C   0  0  0  0  0  1  0  0  0  0  0  0
  -26.9700  -30.4580   24.7870 C   0  0  0  0  0  1  0  0  0  0  0  0
  -27.5270  -32.6440   25.8170 C   0  0  0  0  0  1  0  0  0  0  0  0
  -25.5710  -33.9990   24.1730 N   0  0  0  0  0  0  0  0  0  0  0  0
  -25.9120  -35.0470   23.4110 C   0  0  0  0  0  0  0  0  0  0  0  0
  -26.5850  -34.9350   22.3830 O   0  0  0  0  0  0  0  0  0  0  0  0
  -24.9790  -34.1630   24.9710 H   0  0  0  0  0  0  0  0  0  0  0  0
  -24.2050  -36.8580   23.0230 C   0  0  0  0  0  1  0  0  0  0  0  0
  -25.4270  -36.4390   23.8590 C   0  0  0  0  0  3  0  0  0  0  0  0
  -27.5450  -37.3180   24.7360 C   0  0  0  0  0  1  0  0  0  0  0  0
  -26.4670  -37.4880   23.7640 N   0  0  0  0  0  0  0  0  0  0  0  0
  -26.0630  -38.4100   23.8990 H   0  0  0  0  0  0  0  0  0  0  0  0
  2  7  1  0
  4  1  1  0
  4  2  1  0
  4  5  1  0
  5  1  1  0
  5  6  1  0
  6 51  1  0
  6  3  1  0
  7 46  1  0
  7 16  1  1
  7  3  1  0
  8 16  1  0
  9 14  1  0
 10 11  1  0
 10  9  1  0
 12 11  1  0
 12 21  1  0
 12 13  1  0
 14  8  1  0
 14 13  1  0
 15  8  2  0
 16 17  1  0
 18 19  2  0
 19 38  1  0
 20 19  1  0
 20 23  1  0
 21 22  1  0
 21 18  1  0
 22 20  2  0
 23 24  1  0
 24 25  2  0
 26 29  1  0
 26 25  1  0
 27 26  2  0
 28 27  1  0
 28 23  2  0
 29 30  1  0
 30 31  1  0
 31 32  2  0
 33 32  1  0
 33 37  1  0
 34 33  2  0
 35 30  2  0
 35 34  1  0
 36 35  1  0
 38 39  1  0
 39 42  1  0
 39 41  1  0
 40 38  2  0
 43 44  1  0
 43 18  1  0
 45 43  1  0
 46 47  1  0
 47 49  1  0
 48 46  2  0
 50 47  1  0
 52 53  2  0
 52 51  1  0
 54 53  1  0
 55 66  2  0
 56 54  1  0
 56 61  1  0
 57 65  1  0
 57 67  1  0
 58 64  1  0
 58 60  1  0
 59 65  1  0
 60 61  2  0
 60 59  1  0
 62 56  2  0
 63 62  1  0
 63 58  2  0
 64 57  1  0
 65 55  1  0
 67 69  2  0
 68 67  1  0
 70 68  1  0
 71 80  2  0
 71 76  1  0
 72 68  1  0
 72 76  1  0
 73 72  1  0
 74 75  1  0
 74 73  1  0
 75 71  1  0
 76 77  2  0
 77 78  1  0
 79 78  2  0
 80 79  1  0
 81 55  1  0
 81 86  1  0
 81 82  1  0
 82 85  1  1
 82 83  1  0
 84 82  1  0
 86 89  1  0
 87 91  1  0
 87 86  1  0
 88 87  2  0
 91 90  1  0
 93 91  1  0
 93 94  1  0
 93 92  1  0
M  ISO  4   8 100  16 100  53 101  54 101
M  END
>  <TORSDO>  (85) 
F 20

>  <SCORE>  (85) 
-14.070

>  <name>  (85) 
86

>  <ligand_id>  (85) 
86

>  <original_smiles>  (85) 
[H]c1c([H])c([H])c2c(c1[H])C([H])([H])C([H])([H])C([H])([H])C2([H])N([H])C(=O)C1([H])N(C(=O)C([H])(N([H])C(=O)C([H])(N([H])C([H])([H])[H])C([H])([H])[H])C(C([H])([H])[H])(C([H])([H])[H])C([H])([H])[H])C([H])([H])c2c([H])c(OC([H])([H])C([H])([H])C([H])([H])C3([H])C([H])([H])C(C(=O)N([H])[H])(N([H])C(=O)N4C([H])([H])C([H])([H])C([H])([H])C([H])(n5nc(-c6c([H])c([H])c(Oc7c([H])c([H])c(F)c([H])c7F)c([H])c6[H])c(C(=O)N([H])[H])c5N([H])[H])C4([H])[H])C([H])([H])C4([H])C([H])([H])C34[H])c([H])c([H])c2C1([H])[H]

>  <smiles>  (85) 
[H]c1c([H])c([H])c2c(c1[H])C([H])([H])C([H])([H])C([H])([H])C2([H])N([H])C(=O)C1([H])N(C(=O)C([H])(N([H])C(=O)C([H])(N([H])C([H])([H])[H])C([H])([H])[H])C(C([H])([H])[H])(C([H])([H])[H])C([H])([H])[H])C([H])([H])c2c([H])c(OC([H])([H])C([H])([H])C([H])([H])C3([H])C([H])([H])C(C(=O)N([H])[H])(N([H])C(=O)N4C([H])([H])C([H])([H])C([H])([H])C([H])(n5nc(-c6c([H])c([H])c(Oc7c([H])c([H])c(F)c([H])c7F)c([H])c6[H])c(C(=O)N([H])[H])c5N([H])[H])C4([H])[H])C([H])([H])C4([H])C([H])([H])C34[H])c([H])c([H])c2C1([H])[H]

$$$$
87:0:0
     RDKit          3D

 92100  0  0  1  0  0  0  0  0999 V2000
  -29.9140  -18.3800   21.2090 C   0  0  0  0  0  0  0  0  0  0  0  0
  -30.6440  -19.7810   21.0330 C   0  0  0  0  0  2  0  0  0  0  0  0
  -29.2450  -19.1490   18.3880 C   0  0  0  0  0  2  0  0  0  0  0  0
  -30.1060  -17.8720   18.6610 C   0  0  0  0  0  2  0  0  0  0  0  0
  -29.9200  -20.5320   18.5920 C   0  0  0  0  0  2  0  0  0  0  0  0
  -29.8200  -17.2940   20.0620 C   0  0  0  0  0  3  0  0  0  0  0  0
  -30.3140  -21.0260   20.0310 C   0  0  2  0  0  0  0  0  0  0  0  0
  -29.4350  -18.1260   22.3160 O   0  0  0  0  0  0  0  0  0  0  0  0
  -30.7730  -14.7400   19.9820 C   0  0  0  0  0  0  0  0  0  0  0  0
  -30.5430  -12.4880   18.9140 C   0  0  0  0  0  2  0  0  0  0  0  0
  -29.5230  -12.6300   17.7590 C   0  0  0  0  0  2  0  0  0  0  0  0
  -28.0820  -12.4350   18.2740 C   0  0  0  0  0  2  0  0  0  0  0  0
  -27.7950  -13.2750   19.5470 C   0  0  0  0  0  3  0  0  0  0  0  0
  -28.9240  -13.1170   20.5930 C   0  0  0  0  0  2  0  0  0  0  0  0
  -30.1890  -13.4940   19.9430 N   0  0  0  0  0  0  0  0  0  0  0  0
  -31.9060  -14.9170   19.5280 O   0  0  0  0  0  0  0  0  0  0  0  0
  -29.9300  -15.7820   20.3160 N   0  0  0  0  0  0  0  0  0  0  0  0
  -29.0820  -15.4220   20.7230 H   0  0  0  0  0  0  0  0  0  0  0  0
  -25.4620  -13.8580   20.4470 C   0  0  0  0  0  0  0  0  0  0  0  0
  -24.4170  -13.0780   20.8620 C   0  0  0  0  0  0  0  0  0  0  0  0
  -24.8650  -11.7260   20.7510 C   0  0  0  0  0  0  0  0  0  0  0  0
  -26.4810  -12.9810   20.1120 N   0  0  0  0  0  0  0  0  0  0  0  0
  -26.1330  -11.6920   20.3560 N   0  0  0  0  0  0  0  0  0  0  0  0
  -24.1420  -10.4610   20.9410 C   0  0  0  0  0  0  0  0  0  0  0  0
  -24.5870   -9.4900   21.8650 C   0  0  0  0  0  3  0  0  0  0  0  0
  -23.8640   -8.2910   22.0460 C   0  0  0  0  0  3  0  0  0  0  0  0
  -22.6830   -8.0540   21.3030 C   0  0  0  0  0  0  0  0  0  0  0  0
  -22.2560   -9.0150   20.3690 C   0  0  0  0  0  3  0  0  0  0  0  0
  -22.9790  -10.2060   20.1860 C   0  0  0  0  0  3  0  0  0  0  0  0
  -21.9320   -6.9070   21.3940 O   0  0  0  0  0  0  0  0  0  0  0  0
  -21.8470   -6.1930   22.5620 C   0  0  0  0  0  0  0  0  0  0  0  0
  -21.3270   -6.7580   23.7460 C   0  0  0  0  0  3  0  0  0  0  0  0
  -21.1950   -5.9670   24.9040 C   0  0  0  0  0  3  0  0  0  0  0  0
  -21.5720   -4.6100   24.8790 C   0  0  0  0  0  0  0  0  0  0  0  0
  -22.0830   -4.0440   23.6970 C   0  0  0  0  0  3  0  0  0  0  0  0
  -22.2180   -4.8330   22.5420 C   0  0  0  0  0  0  0  0  0  0  0  0
  -22.6920   -4.2780   21.4000 F   0  0  0  0  0  0  0  0  0  0  0  0
  -21.4380   -3.8470   25.9890 F   0  0  0  0  0  0  0  0  0  0  0  0
  -23.0450  -13.5520   21.2420 C   0  0  0  0  0  0  0  0  0  0  0  0
  -22.3690  -12.8300   22.1290 N   0  0  0  0  0  0  0  0  0  0  0  0
  -22.5830  -14.5990   20.7880 O   0  0  0  0  0  0  0  0  0  0  0  0
  -22.7520  -11.9830   22.5180 H   0  0  0  0  0  0  0  0  0  0  0  0
  -21.4500  -13.1320   22.4230 H   0  0  0  0  0  0  0  0  0  0  0  0
  -25.6240  -15.2340   20.3050 N   0  0  0  0  0  0  0  0  0  0  0  0
  -24.8610  -15.8830   20.4730 H   0  0  0  0  0  0  0  0  0  0  0  0
  -26.4410  -15.6790   19.9090 H   0  0  0  0  0  0  0  0  0  0  0  0
  -32.9520  -21.0030   19.5000 C   0  0  0  0  0  1  0  0  0  0  0  0
  -31.6760  -21.7890   19.8750 C   0  0  0  0  0  2  0  0  0  0  0  0
  -29.3070  -22.2160   20.5590 C   0  0  0  0  0  2  0  0  0  0  0  0
  -29.3950  -23.7730   20.0360 C   0  0  0  0  0  3  0  0  0  0  0  0
  -28.4170  -24.9390   20.6030 C   0  0  0  0  0  3  0  0  0  0  0  0
  -28.5930  -26.3970   20.2480 O   0  0  0  0  0  0  0  0  0  0  0  0
  -24.6310  -31.7560   23.1780 C   0  0  0  0  0  0  0  0  0  0  0  0
  -27.4630  -27.2490   20.1970 C   0  0  0  0  0  0  0  0  0  0  0  0
  -23.5270  -30.3550   21.4690 C   0  0  0  0  0  3  0  0  0  0  0  0
  -25.0700  -28.8420   20.0950 C   0  0  0  0  0  0  0  0  0  0  0  0
  -26.0690  -30.7130   21.4070 C   0  0  0  0  0  2  0  0  0  0  0  0
  -26.2040  -29.3410   20.7460 C   0  0  0  0  0  0  0  0  0  0  0  0
  -27.4040  -28.5600   20.7830 C   0  0  0  0  0  3  0  0  0  0  0  0
  -26.3060  -26.8180   19.5120 C   0  0  0  0  0  3  0  0  0  0  0  0
  -25.1240  -27.5850   19.4700 C   0  0  0  0  0  3  0  0  0  0  0  0
  -23.8160  -29.6960   20.0940 C   0  0  0  0  0  2  0  0  0  0  0  0
  -24.7580  -30.9610   22.0740 N   0  0  0  0  0  0  0  0  0  0  0  0
  -23.5190  -32.0090   23.6680 O   0  0  0  0  0  0  0  0  0  0  0  0
  -22.8410  -29.3180   22.3910 C   0  0  0  0  0  0  0  0  0  0  0  0
  -21.5200  -29.1380   22.2240 N   0  0  0  0  0  0  0  0  0  0  0  0
  -23.4990  -28.6770   23.2150 O   0  0  0  0  0  0  0  0  0  0  0  0
  -21.0490  -29.7040   21.5320 H   0  0  0  0  0  0  0  0  0  0  0  0
  -18.1260  -27.9600   22.6630 C   0  0  0  0  0  0  0  0  0  0  0  0
  -20.6860  -28.1800   22.9520 C   0  0  0  0  0  3  0  0  0  0  0  0
  -20.7740  -26.7730   22.3180 C   0  0  0  0  0  2  0  0  0  0  0  0
  -19.6730  -26.5050   21.2860 C   0  0  0  0  0  2  0  0  0  0  0  0
  -18.2900  -26.6390   21.9300 C   0  0  0  0  0  2  0  0  0  0  0  0
  -19.2510  -28.6910   23.1280 C   0  0  0  0  0  0  0  0  0  0  0  0
  -19.0450  -29.9300   23.7720 C   0  0  0  0  0  3  0  0  0  0  0  0
  -17.7460  -30.4380   23.9570 C   0  0  0  0  0  3  0  0  0  0  0  0
  -16.6340  -29.7040   23.5090 C   0  0  0  0  0  3  0  0  0  0  0  0
  -16.8250  -28.4670   22.8660 C   0  0  0  0  0  3  0  0  0  0  0  0
  -25.8730  -32.4060   23.8630 C   0  0  0  0  0  3  0  0  0  0  0  0
  -26.3310  -31.6480   25.1700 C   0  0  1  0  0  0  0  0  0  0  0  0
  -25.1840  -31.3950   26.1750 C   0  0  0  0  0  1  0  0  0  0  0  0
  -26.9600  -30.2790   24.8210 C   0  0  0  0  0  1  0  0  0  0  0  0
  -27.4290  -32.4640   25.8910 C   0  0  0  0  0  1  0  0  0  0  0  0
  -25.5340  -33.8030   24.1700 N   0  0  0  0  0  0  0  0  0  0  0  0
  -25.8850  -34.8560   23.4180 C   0  0  0  0  0  0  0  0  0  0  0  0
  -26.5950  -34.7530   22.4150 O   0  0  0  0  0  0  0  0  0  0  0  0
  -24.9120  -33.9600   24.9500 H   0  0  0  0  0  0  0  0  0  0  0  0
  -24.1660  -36.6350   22.9680 C   0  0  0  0  0  1  0  0  0  0  0  0
  -25.3630  -36.2400   23.8460 C   0  0  0  0  0  3  0  0  0  0  0  0
  -27.4360  -37.1460   24.8020 C   0  0  0  0  0  1  0  0  0  0  0  0
  -26.3930  -37.3000   23.7910 N   0  0  0  0  0  0  0  0  0  0  0  0
  -25.9720  -38.2180   23.9080 H   0  0  0  0  0  0  0  0  0  0  0  0
  1  8  2  0
  2  1  1  0
  3  5  1  0
  3  4  1  0
  4  6  1  0
  5  7  1  0
  6 17  1  0
  6  1  1  0
  7 48  1  6
  7 49  1  0
  7  2  1  0
  9 17  1  0
 10 15  1  0
 11 12  1  0
 11 10  1  0
 13 12  1  0
 13 22  1  0
 13 14  1  0
 15  9  1  0
 15 14  1  0
 16  9  2  0
 17 18  1  0
 19 20  2  0
 20 39  1  0
 21 20  1  0
 21 24  1  0
 22 23  1  0
 22 19  1  0
 23 21  2  0
 24 25  1  0
 25 26  2  0
 27 30  1  0
 27 26  1  0
 28 27  2  0
 29 28  1  0
 29 24  2  0
 30 31  1  0
 31 32  1  0
 32 33  2  0
 34 33  1  0
 34 38  1  0
 35 34  2  0
 36 31  2  0
 36 35  1  0
 37 36  1  0
 39 40  1  0
 40 43  1  0
 40 42  1  0
 41 39  2  0
 44 19  1  0
 44 45  1  0
 46 44  1  0
 47 48  1  0
 50 49  1  0
 50 51  2  0
 52 51  1  0
 53 64  2  0
 54 52  1  0
 54 59  1  0
 55 63  1  0
 55 65  1  0
 56 58  1  0
 57 63  1  0
 58 59  2  0
 58 57  1  0
 60 54  2  0
 61 60  1  0
 61 56  2  0
 62 56  1  0
 62 55  1  0
 63 53  1  0
 65 67  2  0
 66 65  1  0
 68 66  1  0
 69 78  2  0
 69 74  1  0
 70 66  1  0
 70 74  1  0
 71 70  1  0
 72 73  1  0
 72 71  1  0
 73 69  1  0
 74 75  2  0
 75 76  1  0
 77 76  2  0
 78 77  1  0
 79 53  1  0
 79 84  1  0
 79 80  1  0
 80 83  1  1
 80 81  1  0
 82 80  1  0
 84 87  1  0
 85 89  1  0
 85 84  1  0
 86 85  2  0
 89 88  1  0
 91 89  1  0
 91 92  1  0
 91 90  1  0
M  ISO  4   9 100  17 100  51 101  52 101
M  END
>  <TORSDO>  (86) 
F 20

>  <SCORE>  (86) 
-12.638

>  <name>  (86) 
87

>  <ligand_id>  (86) 
87

>  <original_smiles>  (86) 
[H]c1c([H])c([H])c2c(c1[H])C([H])([H])C([H])([H])C([H])([H])C2([H])N([H])C(=O)C1([H])N(C(=O)C([H])(N([H])C(=O)C([H])(N([H])C([H])([H])[H])C([H])([H])[H])C(C([H])([H])[H])(C([H])([H])[H])C([H])([H])[H])C([H])([H])c2c([H])c(OC([H])([H])C([H])([H])C([H])([H])C3(C([H])([H])C([H])([H])[H])C([H])([H])C(=O)C([H])(N([H])C(=O)N4C([H])([H])C([H])([H])C([H])([H])C([H])(n5nc(-c6c([H])c([H])c(Oc7c([H])c([H])c(F)c([H])c7F)c([H])c6[H])c(C(=O)N([H])[H])c5N([H])[H])C4([H])[H])C([H])([H])C([H])([H])C3([H])[H])c([H])c([H])c2C1([H])[H]

>  <smiles>  (86) 
[H]c1c([H])c([H])c2c(c1[H])C([H])([H])C([H])([H])C([H])([H])C2([H])N([H])C(=O)C1([H])N(C(=O)C([H])(N([H])C(=O)C([H])(N([H])C([H])([H])[H])C([H])([H])[H])C(C([H])([H])[H])(C([H])([H])[H])C([H])([H])[H])C([H])([H])c2c([H])c(OC([H])([H])C([H])([H])C([H])([H])C3(C([H])([H])C([H])([H])[H])C([H])([H])C(=O)C([H])(N([H])C(=O)N4C([H])([H])C([H])([H])C([H])([H])C([H])(n5nc(-c6c([H])c([H])c(Oc7c([H])c([H])c(F)c([H])c7F)c([H])c6[H])c(C(=O)N([H])[H])c5N([H])[H])C4([H])[H])C([H])([H])C([H])([H])C3([H])[H])c([H])c([H])c2C1([H])[H]

$$$$
88:0:0
     RDKit          3D

 96103  0  0  1  0  0  0  0  0999 V2000
  -29.5520  -20.5950   20.7790 C   0  0  0  0  0  2  0  0  0  0  0  0
  -29.9900  -22.0070   20.3310 C   0  0  0  0  0  0  0  0  0  0  0  0
  -29.3480  -23.0540   20.8710 N   0  0  0  0  0  0  0  0  0  0  0  0
  -30.8860  -22.1360   19.4940 O   0  0  0  0  0  0  0  0  0  0  0  0
  -28.6430  -22.8430   21.5650 H   0  0  0  0  0  0  0  0  0  0  0  0
  -29.5810  -24.4800   20.5990 C   0  0  0  0  0  2  0  0  0  0  0  0
  -28.2880  -25.1840   20.1380 C   0  0  0  0  0  2  0  0  0  0  0  0
  -28.4050  -26.6140   20.2390 O   0  0  0  0  0  0  0  0  0  0  0  0
  -24.6220  -31.8630   23.2180 C   0  0  0  0  0  0  0  0  0  0  0  0
  -27.2350  -27.3490   20.2070 C   0  0  0  0  0  0  0  0  0  0  0  0
  -23.4140  -30.4640   21.5760 C   0  0  0  0  0  3  0  0  0  0  0  0
  -24.8590  -28.8930   20.1830 C   0  0  0  0  0  0  0  0  0  0  0  0
  -25.9480  -30.7820   21.4030 C   0  0  0  0  0  2  0  0  0  0  0  0
  -26.0200  -29.4050   20.7740 C   0  0  0  0  0  0  0  0  0  0  0  0
  -27.2110  -28.6440   20.7770 C   0  0  0  0  0  3  0  0  0  0  0  0
  -26.0500  -26.8510   19.6140 C   0  0  0  0  0  3  0  0  0  0  0  0
  -24.8680  -27.6150   19.6020 C   0  0  0  0  0  3  0  0  0  0  0  0
  -23.6310  -29.7760   20.2030 C   0  0  0  0  0  2  0  0  0  0  0  0
  -24.6780  -31.0520   22.1230 N   0  0  0  0  0  0  0  0  0  0  0  0
  -23.5380  -32.1560   23.7420 O   0  0  0  0  0  0  0  0  0  0  0  0
  -22.7370  -29.4590   22.5360 C   0  0  0  0  0  0  0  0  0  0  0  0
  -21.4100  -29.3050   22.4020 N   0  0  0  0  0  0  0  0  0  0  0  0
  -23.4020  -28.8230   23.3570 O   0  0  0  0  0  0  0  0  0  0  0  0
  -20.9360  -29.8740   21.7150 H   0  0  0  0  0  0  0  0  0  0  0  0
  -18.0000  -28.2260   22.9230 C   0  0  0  0  0  0  0  0  0  0  0  0
  -20.5680  -28.3910   23.1720 C   0  0  0  0  0  3  0  0  0  0  0  0
  -20.6150  -26.9620   22.5820 C   0  0  0  0  0  2  0  0  0  0  0  0
  -19.4910  -26.6880   21.5770 C   0  0  0  0  0  2  0  0  0  0  0  0
  -18.1210  -26.8750   22.2370 C   0  0  0  0  0  2  0  0  0  0  0  0
  -19.1480  -28.9430   23.3500 C   0  0  0  0  0  0  0  0  0  0  0  0
  -18.9820  -30.2070   23.9530 C   0  0  0  0  0  3  0  0  0  0  0  0
  -17.6970  -30.7540   24.1380 C   0  0  0  0  0  3  0  0  0  0  0  0
  -16.5620  -30.0320   23.7280 C   0  0  0  0  0  3  0  0  0  0  0  0
  -16.7140  -28.7720   23.1250 C   0  0  0  0  0  3  0  0  0  0  0  0
  -25.9080  -32.4800   23.8480 C   0  0  0  0  0  3  0  0  0  0  0  0
  -26.4180  -31.6950   25.1180 C   0  0  1  0  0  0  0  0  0  0  0  0
  -25.3210  -31.4490   26.1820 C   0  0  0  0  0  1  0  0  0  0  0  0
  -26.9990  -30.3190   24.7140 C   0  0  0  0  0  1  0  0  0  0  0  0
  -27.5670  -32.4800   25.7920 C   0  0  0  0  0  1  0  0  0  0  0  0
  -25.6060  -33.8760   24.1860 N   0  0  0  0  0  0  0  0  0  0  0  0
  -25.9470  -34.9310   23.4330 C   0  0  0  0  0  0  0  0  0  0  0  0
  -26.6210  -34.8300   22.4040 O   0  0  0  0  0  0  0  0  0  0  0  0
  -25.0030  -34.0270   24.9810 H   0  0  0  0  0  0  0  0  0  0  0  0
  -24.2330  -36.7410   23.0800 C   0  0  0  0  0  1  0  0  0  0  0  0
  -25.4650  -36.3190   23.8980 C   0  0  0  0  0  3  0  0  0  0  0  0
  -27.5980  -37.1850   24.7530 C   0  0  0  0  0  1  0  0  0  0  0  0
  -26.5050  -37.3660   23.8020 N   0  0  0  0  0  0  0  0  0  0  0  0
  -26.1020  -38.2870   23.9500 H   0  0  0  0  0  0  0  0  0  0  0  0
  -30.6710  -19.6620   21.3500 C   0  0  0  0  0  3  0  0  0  0  0  0
  -30.9360  -19.8790   22.8720 C   0  0  0  0  0  2  0  0  0  0  0  0
  -31.5400  -21.2330   23.2580 C   0  0  0  0  0  0  0  0  0  0  0  0
  -30.8630  -21.9820   24.1210 N   0  0  0  0  0  0  0  0  0  0  0  0
  -32.6100  -21.6050   22.7850 O   0  0  0  0  0  0  0  0  0  0  0  0
  -30.0000  -21.6460   24.5270 H   0  0  0  0  0  0  0  0  0  0  0  0
  -31.2100  -22.8900   24.3940 H   0  0  0  0  0  0  0  0  0  0  0  0
  -30.3170  -18.1630   21.1030 C   0  0  0  0  0  2  0  0  0  0  0  0
  -31.5310  -17.2060   21.1020 C   0  0  0  0  0  2  0  0  0  0  0  0
  -31.3160  -15.8630   21.8410 C   0  0  0  0  0  2  0  0  0  0  0  0
  -30.7060  -14.1290   20.1630 C   0  0  0  0  0  0  0  0  0  0  0  0
  -30.2310  -12.0340   18.9510 C   0  0  0  0  0  2  0  0  0  0  0  0
  -29.2300  -12.2440   17.8000 C   0  0  0  0  0  2  0  0  0  0  0  0
  -27.7860  -12.1100   18.3130 C   0  0  0  0  0  2  0  0  0  0  0  0
  -27.5230  -12.9670   19.5780 C   0  0  0  0  0  3  0  0  0  0  0  0
  -28.6290  -12.7570   20.6360 C   0  0  0  0  0  2  0  0  0  0  0  0
  -29.9370  -13.0190   20.0040 N   0  0  0  0  0  0  0  0  0  0  0  0
  -31.6880  -14.3750   19.4600 O   0  0  0  0  0  0  0  0  0  0  0  0
  -30.3970  -14.9110   21.2070 N   0  0  0  0  0  0  0  0  0  0  0  0
  -29.5760  -14.6440   21.7320 H   0  0  0  0  0  0  0  0  0  0  0  0
  -25.1680  -13.5960   20.4100 C   0  0  0  0  0  0  0  0  0  0  0  0
  -24.1120  -12.8330   20.8320 C   0  0  0  0  0  0  0  0  0  0  0  0
  -24.5580  -11.4770   20.7750 C   0  0  0  0  0  0  0  0  0  0  0  0
  -26.1920  -12.7060   20.1260 N   0  0  0  0  0  0  0  0  0  0  0  0
  -25.8300  -11.4250   20.4010 N   0  0  0  0  0  0  0  0  0  0  0  0
  -23.8290  -10.2210   20.9980 C   0  0  0  0  0  0  0  0  0  0  0  0
  -24.2700   -9.2710   21.9460 C   0  0  0  0  0  3  0  0  0  0  0  0
  -23.5410   -8.0800   22.1570 C   0  0  0  0  0  3  0  0  0  0  0  0
  -22.3580   -7.8310   21.4210 C   0  0  0  0  0  0  0  0  0  0  0  0
  -21.9370   -8.7700   20.4640 C   0  0  0  0  0  3  0  0  0  0  0  0
  -22.6650   -9.9520   20.2510 C   0  0  0  0  0  3  0  0  0  0  0  0
  -21.6020   -6.6910   21.5410 O   0  0  0  0  0  0  0  0  0  0  0  0
  -21.5480   -5.9830   22.7150 C   0  0  0  0  0  0  0  0  0  0  0  0
  -21.1010   -6.5680   23.9190 C   0  0  0  0  0  3  0  0  0  0  0  0
  -20.9960   -5.7860   25.0870 C   0  0  0  0  0  3  0  0  0  0  0  0
  -21.3260   -4.4180   25.0500 C   0  0  0  0  0  0  0  0  0  0  0  0
  -21.7660   -3.8310   23.8490 C   0  0  0  0  0  3  0  0  0  0  0  0
  -21.8730   -4.6120   22.6850 C   0  0  0  0  0  0  0  0  0  0  0  0
  -22.2760   -4.0360   21.5270 F   0  0  0  0  0  0  0  0  0  0  0  0
  -21.2180   -3.6640   26.1680 F   0  0  0  0  0  0  0  0  0  0  0  0
  -22.7350  -13.3240   21.1790 C   0  0  0  0  0  0  0  0  0  0  0  0
  -22.0470  -12.6310   22.0790 N   0  0  0  0  0  0  0  0  0  0  0  0
  -22.2800  -14.3560   20.6860 O   0  0  0  0  0  0  0  0  0  0  0  0
  -22.4280  -11.7950   22.4990 H   0  0  0  0  0  0  0  0  0  0  0  0
  -21.1270  -12.9410   22.3550 H   0  0  0  0  0  0  0  0  0  0  0  0
  -25.3370  -14.9640   20.2270 N   0  0  0  0  0  0  0  0  0  0  0  0
  -24.5890  -15.6320   20.3780 H   0  0  0  0  0  0  0  0  0  0  0  0
  -26.1830  -15.3930   19.8730 H   0  0  0  0  0  0  0  0  0  0  0  0
  2  1  1  0
  2  3  1  0
  3  5  1  0
  4  2  2  0
  6  3  1  0
  7  8  1  0
  7  6  1  0
  9 20  2  0
 10  8  1  0
 10 15  1  0
 11 19  1  0
 11 21  1  0
 12 18  1  0
 12 14  1  0
 13 19  1  0
 14 15  2  0
 14 13  1  0
 16 10  2  0
 17 16  1  0
 17 12  2  0
 18 11  1  0
 19  9  1  0
 21 23  2  0
 22 21  1  0
 24 22  1  0
 25 34  2  0
 25 30  1  0
 26 22  1  0
 26 30  1  0
 27 26  1  0
 28 29  1  0
 28 27  1  0
 29 25  1  0
 30 31  2  0
 31 32  1  0
 33 32  2  0
 34 33  1  0
 35  9  1  0
 35 40  1  0
 35 36  1  0
 36 39  1  1
 36 37  1  0
 38 36  1  0
 40 43  1  0
 41 45  1  0
 41 40  1  0
 42 41  2  0
 45 44  1  0
 47 45  1  0
 47 48  1  0
 47 46  1  0
 49  1  1  0
 49 50  1  0
 50 51  1  0
 51 52  1  0
 52 55  1  0
 52 54  1  0
 53 51  2  0
 56 49  1  0
 57 56  1  0
 57 58  1  0
 59 67  1  0
 60 65  1  0
 61 62  1  0
 61 60  1  0
 63 62  1  0
 63 72  1  0
 63 64  1  0
 65 59  1  0
 65 64  1  0
 66 59  2  0
 67 68  1  0
 67 58  1  0
 69 70  2  0
 70 89  1  0
 71 70  1  0
 71 74  1  0
 72 73  1  0
 72 69  1  0
 73 71  2  0
 74 75  1  0
 75 76  2  0
 77 80  1  0
 77 76  1  0
 78 77  2  0
 79 78  1  0
 79 74  2  0
 80 81  1  0
 81 82  1  0
 82 83  2  0
 84 83  1  0
 84 88  1  0
 85 84  2  0
 86 81  2  0
 86 85  1  0
 87 86  1  0
 89 90  1  0
 90 93  1  0
 90 92  1  0
 91 89  2  0
 94 95  1  0
 94 69  1  0
 96 94  1  0
M  ISO  4   7 101   8 101  59 100  67 100
M  END
>  <TORSDO>  (87) 
F 25

>  <SCORE>  (87) 
-11.793

>  <name>  (87) 
88

>  <ligand_id>  (87) 
88

>  <original_smiles>  (87) 
[H]c1c([H])c([H])c2c(c1[H])C([H])([H])C([H])([H])C([H])([H])C2([H])N([H])C(=O)C1([H])N(C(=O)C([H])(N([H])C(=O)C([H])(N([H])C([H])([H])[H])C([H])([H])[H])C(C([H])([H])[H])(C([H])([H])[H])C([H])([H])[H])C([H])([H])c2c([H])c(OC([H])([H])C([H])([H])N([H])C(=O)C([H])([H])C([H])(C([H])([H])C(=O)N([H])[H])C([H])([H])C([H])([H])C([H])([H])N([H])C(=O)N3C([H])([H])C([H])([H])C([H])([H])C([H])(n4nc(-c5c([H])c([H])c(Oc6c([H])c([H])c(F)c([H])c6F)c([H])c5[H])c(C(=O)N([H])[H])c4N([H])[H])C3([H])[H])c([H])c([H])c2C1([H])[H]

>  <smiles>  (87) 
[H]c1c([H])c([H])c2c(c1[H])C([H])([H])C([H])([H])C([H])([H])C2([H])N([H])C(=O)C1([H])N(C(=O)C([H])(N([H])C(=O)C([H])(N([H])C([H])([H])[H])C([H])([H])[H])C(C([H])([H])[H])(C([H])([H])[H])C([H])([H])[H])C([H])([H])c2c([H])c(OC([H])([H])C([H])([H])N([H])C(=O)C([H])([H])C([H])(C([H])([H])C(=O)N([H])[H])C([H])([H])C([H])([H])C([H])([H])N([H])C(=O)N3C([H])([H])C([H])([H])C([H])([H])C([H])(n4nc(-c5c([H])c([H])c(Oc6c([H])c([H])c(F)c([H])c6F)c([H])c5[H])c(C(=O)N([H])[H])c4N([H])[H])C3([H])[H])c([H])c([H])c2C1([H])[H]

$$$$
89:0:0
     RDKit          3D

 96105  0  0  1  0  0  0  0  0999 V2000
  -30.1130  -21.1100   23.2770 C   0  0  0  0  0  2  0  0  0  0  0  0
  -30.0210  -19.6740   20.2290 C   0  0  0  0  0  2  0  0  0  0  0  0
  -31.4900  -20.0760   20.4350 C   0  0  0  0  0  2  0  0  0  0  0  0
  -29.6890  -17.6450   21.7010 C   0  0  0  0  0  2  0  0  0  0  0  0
  -32.2260  -18.1300   21.9170 C   0  0  0  0  0  2  0  0  0  0  0  0
  -29.5380  -19.1740   21.6120 C   0  0  0  0  0  3  0  0  0  0  0  0
  -31.8320  -19.6320   21.8720 C   0  0  0  0  0  3  0  0  0  0  0  0
  -31.1300  -17.1900   21.3290 C   0  0  0  0  0  3  0  0  0  0  0  0
  -30.5130  -19.7560   22.6470 C   0  0  0  0  0  3  0  0  0  0  0  0
  -31.3790  -15.7110   21.6750 C   0  0  0  0  0  2  0  0  0  0  0  0
  -30.4220  -14.4240   19.7490 C   0  0  0  0  0  0  0  0  0  0  0  0
  -29.8480  -12.4510   18.3890 C   0  0  0  0  0  2  0  0  0  0  0  0
  -28.7070  -12.6700   17.3840 C   0  0  0  0  0  2  0  0  0  0  0  0
  -27.3420  -12.4340   18.0550 C   0  0  0  0  0  2  0  0  0  0  0  0
  -27.1940  -13.2260   19.3790 C   0  0  0  0  0  3  0  0  0  0  0  0
  -28.4180  -13.0090   20.2920 C   0  0  0  0  0  2  0  0  0  0  0  0
  -29.6440  -13.3370   19.5390 N   0  0  0  0  0  0  0  0  0  0  0  0
  -31.2080  -14.8860   18.9140 O   0  0  0  0  0  0  0  0  0  0  0  0
  -30.4250  -14.8160   21.0260 N   0  0  0  0  0  0  0  0  0  0  0  0
  -29.7590  -14.3490   21.6240 H   0  0  0  0  0  0  0  0  0  0  0  0
  -24.9430  -13.7240   20.5300 C   0  0  0  0  0  0  0  0  0  0  0  0
  -23.9740  -12.9000   21.0330 C   0  0  0  0  0  0  0  0  0  0  0  0
  -24.4510  -11.5660   20.8450 C   0  0  0  0  0  0  0  0  0  0  0  0
  -25.9480  -12.8880   20.0670 N   0  0  0  0  0  0  0  0  0  0  0  0
  -25.6660  -11.5830   20.3140 N   0  0  0  0  0  0  0  0  0  0  0  0
  -23.8000  -10.2730   21.0890 C   0  0  0  0  0  0  0  0  0  0  0  0
  -24.3330   -9.3370   22.0030 C   0  0  0  0  0  3  0  0  0  0  0  0
  -23.6780   -8.1080   22.2320 C   0  0  0  0  0  3  0  0  0  0  0  0
  -22.4780   -7.8060   21.5460 C   0  0  0  0  0  0  0  0  0  0  0  0
  -21.9640   -8.7310   20.6200 C   0  0  0  0  0  3  0  0  0  0  0  0
  -22.6200   -9.9520   20.3890 C   0  0  0  0  0  3  0  0  0  0  0  0
  -21.7870   -6.6260   21.6850 O   0  0  0  0  0  0  0  0  0  0  0  0
  -21.7650   -5.9400   22.8720 C   0  0  0  0  0  0  0  0  0  0  0  0
  -21.2800   -6.5250   24.0610 C   0  0  0  0  0  3  0  0  0  0  0  0
  -21.2090   -5.7620   25.2430 C   0  0  0  0  0  3  0  0  0  0  0  0
  -21.6130   -4.4130   25.2370 C   0  0  0  0  0  0  0  0  0  0  0  0
  -22.0920   -3.8270   24.0530 C   0  0  0  0  0  3  0  0  0  0  0  0
  -22.1640   -4.5870   22.8720 C   0  0  0  0  0  0  0  0  0  0  0  0
  -22.6060   -4.0120   21.7280 F   0  0  0  0  0  0  0  0  0  0  0  0
  -21.5390   -3.6780   26.3710 F   0  0  0  0  0  0  0  0  0  0  0  0
  -22.6360  -13.3160   21.5740 C   0  0  0  0  0  0  0  0  0  0  0  0
  -22.1020  -12.5680   22.5330 N   0  0  0  0  0  0  0  0  0  0  0  0
  -22.0790  -14.3410   21.1810 O   0  0  0  0  0  0  0  0  0  0  0  0
  -22.5680  -11.7390   22.8690 H   0  0  0  0  0  0  0  0  0  0  0  0
  -21.2100  -12.8270   22.9340 H   0  0  0  0  0  0  0  0  0  0  0  0
  -25.0450  -15.1050   20.4070 N   0  0  0  0  0  0  0  0  0  0  0  0
  -24.3030  -15.7340   20.6940 H   0  0  0  0  0  0  0  0  0  0  0  0
  -25.8280  -15.5880   19.9830 H   0  0  0  0  0  0  0  0  0  0  0  0
  -30.3930  -22.3750   22.4570 C   0  0  0  0  0  2  0  0  0  0  0  0
  -29.4830  -23.5620   22.8050 C   0  0  0  0  0  2  0  0  0  0  0  0
  -29.7940  -24.6930   21.9160 N   0  0  0  0  0  4  0  0  0  0  0  0
  -29.6760  -24.4030   20.9550 H   0  0  0  0  0  0  0  0  0  0  0  0
  -30.7690  -24.9030   22.0520 H   0  0  0  0  0  0  0  0  0  0  0  0
  -29.0230  -25.9260   22.1640 C   0  0  0  0  0  2  0  0  0  0  0  0
  -29.4910  -27.0470   21.2190 C   0  0  0  0  0  2  0  0  0  0  0  0
  -28.7010  -27.0460   20.0210 O   0  0  0  0  0  0  0  0  0  0  0  0
  -24.7550  -31.8710   23.4080 C   0  0  0  0  0  0  0  0  0  0  0  0
  -27.5210  -27.7550   20.0760 C   0  0  0  0  0  0  0  0  0  0  0  0
  -23.5630  -30.5420   21.6890 C   0  0  0  0  0  3  0  0  0  0  0  0
  -25.0490  -29.1230   20.1760 C   0  0  0  0  0  0  0  0  0  0  0  0
  -26.0580  -31.0150   21.4650 C   0  0  0  0  0  2  0  0  0  0  0  0
  -26.1860  -29.6800   20.7690 C   0  0  0  0  0  0  0  0  0  0  0  0
  -27.4190  -29.0150   20.7090 C   0  0  0  0  0  3  0  0  0  0  0  0
  -26.3740  -27.2050   19.4660 C   0  0  0  0  0  3  0  0  0  0  0  0
  -25.1340  -27.8820   19.5170 C   0  0  0  0  0  3  0  0  0  0  0  0
  -23.7760  -29.9340   20.2760 C   0  0  0  0  0  2  0  0  0  0  0  0
  -24.8120  -31.1540   22.2510 N   0  0  0  0  0  0  0  0  0  0  0  0
  -23.6730  -32.0730   23.9800 O   0  0  0  0  0  0  0  0  0  0  0  0
  -22.9560  -29.4510   22.5960 C   0  0  0  0  0  0  0  0  0  0  0  0
  -21.6470  -29.2000   22.4280 N   0  0  0  0  0  0  0  0  0  0  0  0
  -23.6600  -28.8290   23.3980 O   0  0  0  0  0  0  0  0  0  0  0  0
  -21.1400  -29.7490   21.7470 H   0  0  0  0  0  0  0  0  0  0  0  0
  -18.3460  -27.8040   22.7830 C   0  0  0  0  0  0  0  0  0  0  0  0
  -20.8720  -28.1900   23.1440 C   0  0  0  0  0  3  0  0  0  0  0  0
  -21.0780  -26.7930   22.5140 C   0  0  0  0  0  2  0  0  0  0  0  0
  -20.0260  -26.4520   21.4560 C   0  0  0  0  0  2  0  0  0  0  0  0
  -18.6180  -26.4970   22.0610 C   0  0  0  0  0  2  0  0  0  0  0  0
  -19.4070  -28.6060   23.2790 C   0  0  0  0  0  0  0  0  0  0  0  0
  -19.1040  -29.8300   23.9110 C   0  0  0  0  0  3  0  0  0  0  0  0
  -17.7700  -30.2550   24.0540 C   0  0  0  0  0  3  0  0  0  0  0  0
  -16.7210  -29.4510   23.5780 C   0  0  0  0  0  3  0  0  0  0  0  0
  -17.0100  -28.2280   22.9460 C   0  0  0  0  0  3  0  0  0  0  0  0
  -26.0340  -32.4940   24.0540 C   0  0  0  0  0  3  0  0  0  0  0  0
  -25.7190  -33.8820   24.4120 N   0  0  0  0  0  0  0  0  0  0  0  0
  -26.0820  -34.9540   23.6920 C   0  0  0  0  0  0  0  0  0  0  0  0
  -26.7880  -34.8750   22.6840 O   0  0  0  0  0  0  0  0  0  0  0  0
  -25.0990  -34.0170   25.1960 H   0  0  0  0  0  0  0  0  0  0  0  0
  -24.3730  -36.7560   23.3140 C   0  0  0  0  0  1  0  0  0  0  0  0
  -25.5760  -36.3270   24.1680 C   0  0  0  0  0  3  0  0  0  0  0  0
  -27.6700  -37.1840   25.1210 C   0  0  0  0  0  1  0  0  0  0  0  0
  -26.6120  -37.3820   24.1330 N   0  0  0  0  0  0  0  0  0  0  0  0
  -26.1990  -38.2980   24.2910 H   0  0  0  0  0  0  0  0  0  0  0  0
  -26.5510  -31.6960   25.3130 C   0  0  1  0  0  0  0  0  0  0  0  0
  -25.4420  -31.3760   26.3390 C   0  0  0  0  0  1  0  0  0  0  0  0
  -27.2000  -30.3630   24.8800 C   0  0  0  0  0  1  0  0  0  0  0  0
  -27.6490  -32.5080   26.0430 C   0  0  0  0  0  1  0  0  0  0  0  0
  2  3  1  0
  6  2  1  0
  6  4  1  0
  6  9  1  0
  7  3  1  0
  7  5  1  0
  7  9  1  0
  8 10  1  0
  8  4  1  0
  8  5  1  0
  9  1  1  0
 11 19  1  0
 12 17  1  0
 13 14  1  0
 13 12  1  0
 15 14  1  0
 15 24  1  0
 15 16  1  0
 17 11  1  0
 17 16  1  0
 18 11  2  0
 19 20  1  0
 19 10  1  0
 21 22  2  0
 22 41  1  0
 23 22  1  0
 23 26  1  0
 24 25  1  0
 24 21  1  0
 25 23  2  0
 26 27  1  0
 27 28  2  0
 29 32  1  0
 29 28  1  0
 30 29  2  0
 31 30  1  0
 31 26  2  0
 32 33  1  0
 33 34  1  0
 34 35  2  0
 36 35  1  0
 36 40  1  0
 37 36  2  0
 38 33  2  0
 38 37  1  0
 39 38  1  0
 41 42  1  0
 42 44  1  0
 42 45  1  0
 43 41  2  0
 46 21  1  0
 46 47  1  0
 48 46  1  0
 49 50  1  0
 49  1  1  0
 51 53  1  0
 51 54  1  0
 51 50  1  0
 52 51  1  0
 55 54  1  0
 56 58  1  0
 56 55  1  0
 57 68  2  0
 58 63  1  0
 59 67  1  0
 59 69  1  0
 60 66  1  0
 60 62  1  0
 61 67  1  0
 62 61  1  0
 63 62  2  0
 64 65  1  0
 64 58  2  0
 65 60  2  0
 66 59  1  0
 67 57  1  0
 69 71  2  0
 70 69  1  0
 72 70  1  0
 73 82  2  0
 73 78  1  0
 74 70  1  0
 74 78  1  0
 75 74  1  0
 76 77  1  0
 76 75  1  0
 77 73  1  0
 78 79  2  0
 79 80  1  0
 81 80  2  0
 82 81  1  0
 83 57  1  0
 83 84  1  0
 83 93  1  0
 84 87  1  0
 85 89  1  0
 85 84  1  0
 86 85  2  0
 89 88  1  0
 91 89  1  0
 91 92  1  0
 91 90  1  0
 93 96  1  1
 93 94  1  0
 95 93  1  0
M  ISO  4  11 100  19 100  55 101  56 101
M  END
>  <TORSDO>  (88) 
F 23

>  <SCORE>  (88) 
-10.142

>  <name>  (88) 
89

>  <ligand_id>  (88) 
89

>  <original_smiles>  (88) 
[H]c1c([H])c([H])c2c(c1[H])C([H])([H])C([H])([H])C([H])([H])C2([H])N([H])C(=O)C1([H])N(C(=O)C([H])(N([H])C(=O)C([H])(N([H])C([H])([H])[H])C([H])([H])[H])C(C([H])([H])[H])(C([H])([H])[H])C([H])([H])[H])C([H])([H])c2c([H])c(OC([H])([H])C([H])([H])[N+]([H])([H])C([H])([H])C([H])([H])C([H])([H])C3([H])C4([H])C([H])([H])C([H])([H])C3([H])C([H])([H])C([H])(C([H])([H])N([H])C(=O)N3C([H])([H])C([H])([H])C([H])([H])C([H])(n5nc(-c6c([H])c([H])c(Oc7c([H])c([H])c(F)c([H])c7F)c([H])c6[H])c(C(=O)N([H])[H])c5N([H])[H])C3([H])[H])C4([H])[H])c([H])c([H])c2C1([H])[H]

>  <smiles>  (88) 
[H]c1c([H])c([H])c2c(c1[H])C([H])([H])C([H])([H])C([H])([H])C2([H])N([H])C(=O)C1([H])N(C(=O)C([H])(N([H])C(=O)C([H])(N([H])C([H])([H])[H])C([H])([H])[H])C(C([H])([H])[H])(C([H])([H])[H])C([H])([H])[H])C([H])([H])c2c([H])c(OC([H])([H])C([H])([H])[N+]([H])([H])C([H])([H])C([H])([H])C([H])([H])C3([H])C4([H])C([H])([H])C([H])([H])C3([H])C([H])([H])C([H])(C([H])([H])N([H])C(=O)N3C([H])([H])C([H])([H])C([H])([H])C([H])(n5nc(-c6c([H])c([H])c(Oc7c([H])c([H])c(F)c([H])c7F)c([H])c6[H])c(C(=O)N([H])[H])c5N([H])[H])C3([H])[H])C4([H])[H])c([H])c([H])c2C1([H])[H]

$$$$
90:0:0
     RDKit          3D

 94103  0  0  1  0  0  0  0  0999 V2000
  -28.6120  -20.9860   21.6410 N   0  0  0  0  0  4  0  0  0  0  0  0
  -29.5660  -21.1370   21.9250 H   0  0  0  0  0  0  0  0  0  0  0  0
  -28.0610  -20.8720   22.4780 H   0  0  0  0  0  0  0  0  0  0  0  0
  -29.1430  -19.1420   18.2790 C   0  0  0  0  0  2  0  0  0  0  0  0
  -29.2530  -17.7450   18.8870 C   0  0  0  0  0  2  0  0  0  0  0  0
  -29.2810  -18.5460   21.4220 C   0  0  0  0  0  2  0  0  0  0  0  0
  -29.5160  -19.7250   19.6430 C   0  0  0  0  0  3  0  0  0  0  0  0
  -28.5360  -19.7490   20.8300 C   0  0  0  0  0  3  0  0  0  0  0  0
  -30.0220  -18.3390   20.0860 C   0  0  2  0  0  0  0  0  0  0  0  0
  -31.5340  -18.0950   20.1470 C   0  0  0  0  0  2  0  0  0  0  0  0
  -31.9540  -16.9690   21.1130 C   0  0  0  0  0  2  0  0  0  0  0  0
  -31.6380  -14.8060   19.9220 C   0  0  0  0  0  0  0  0  0  0  0  0
  -31.2140  -12.5660   18.9830 C   0  0  0  0  0  2  0  0  0  0  0  0
  -30.2320  -12.6160   17.7990 C   0  0  0  0  0  2  0  0  0  0  0  0
  -28.7770  -12.5440   18.2970 C   0  0  0  0  0  2  0  0  0  0  0  0
  -28.4880  -13.5650   19.4280 C   0  0  0  0  0  3  0  0  0  0  0  0
  -29.5720  -13.4900   20.5260 C   0  0  0  0  0  2  0  0  0  0  0  0
  -30.8950  -13.6720   19.8980 N   0  0  0  0  0  0  0  0  0  0  0  0
  -32.6140  -14.9960   19.1900 O   0  0  0  0  0  0  0  0  0  0  0  0
  -31.2780  -15.7010   20.8470 N   0  0  0  0  0  0  0  0  0  0  0  0
  -30.4840  -15.4650   21.4240 H   0  0  0  0  0  0  0  0  0  0  0  0
  -26.1920  -14.3250   20.3200 C   0  0  0  0  0  0  0  0  0  0  0  0
  -25.0900  -13.6230   20.7270 C   0  0  0  0  0  0  0  0  0  0  0  0
  -25.4350  -12.2430   20.6000 C   0  0  0  0  0  0  0  0  0  0  0  0
  -27.1470  -13.3780   19.9810 N   0  0  0  0  0  0  0  0  0  0  0  0
  -26.6950  -12.1170   20.2020 N   0  0  0  0  0  0  0  0  0  0  0  0
  -24.6200  -11.0340   20.7800 C   0  0  0  0  0  0  0  0  0  0  0  0
  -24.9760  -10.0360   21.7120 C   0  0  0  0  0  3  0  0  0  0  0  0
  -24.1670   -8.8920   21.8800 C   0  0  0  0  0  3  0  0  0  0  0  0
  -22.9870   -8.7400   21.1140 C   0  0  0  0  0  0  0  0  0  0  0  0
  -22.6490   -9.7260   20.1710 C   0  0  0  0  0  3  0  0  0  0  0  0
  -23.4580  -10.8610   20.0010 C   0  0  0  0  0  3  0  0  0  0  0  0
  -22.1540   -7.6500   21.1900 O   0  0  0  0  0  0  0  0  0  0  0  0
  -21.9590   -6.9730   22.3680 C   0  0  0  0  0  0  0  0  0  0  0  0
  -21.4510   -7.6140   23.5190 C   0  0  0  0  0  3  0  0  0  0  0  0
  -21.2010   -6.8660   24.6870 C   0  0  0  0  0  3  0  0  0  0  0  0
  -21.4480   -5.4810   24.7050 C   0  0  0  0  0  0  0  0  0  0  0  0
  -21.9490   -4.8410   23.5570 C   0  0  0  0  0  3  0  0  0  0  0  0
  -22.2010   -5.5850   22.3910 C   0  0  0  0  0  0  0  0  0  0  0  0
  -22.6630   -4.9600   21.2820 F   0  0  0  0  0  0  0  0  0  0  0  0
  -21.2010   -4.7610   25.8240 F   0  0  0  0  0  0  0  0  0  0  0  0
  -23.7580  -14.1960   21.1180 C   0  0  0  0  0  0  0  0  0  0  0  0
  -23.0440  -13.5290   22.0170 N   0  0  0  0  0  0  0  0  0  0  0  0
  -23.3650  -15.2690   20.6610 O   0  0  0  0  0  0  0  0  0  0  0  0
  -23.3770  -12.6590   22.4070 H   0  0  0  0  0  0  0  0  0  0  0  0
  -22.1520  -13.8930   22.3210 H   0  0  0  0  0  0  0  0  0  0  0  0
  -26.4540  -15.6850   20.1930 N   0  0  0  0  0  0  0  0  0  0  0  0
  -25.7500  -16.3910   20.3760 H   0  0  0  0  0  0  0  0  0  0  0  0
  -27.3120  -16.0650   19.8150 H   0  0  0  0  0  0  0  0  0  0  0  0
  -28.1290  -22.1800   20.9190 C   0  0  0  0  0  2  0  0  0  0  0  0
  -28.6410  -23.4950   21.5310 C   0  0  0  0  0  2  0  0  0  0  0  0
  -28.3040  -24.6970   20.6350 C   0  0  0  0  0  2  0  0  0  0  0  0
  -28.9180  -26.0160   21.1240 C   0  0  0  0  0  2  0  0  0  0  0  0
  -28.7710  -27.0180   20.1250 O   0  0  0  0  0  0  0  0  0  0  0  0
  -24.6920  -31.9170   23.2610 C   0  0  0  0  0  0  0  0  0  0  0  0
  -27.5700  -27.6740   20.1530 C   0  0  0  0  0  0  0  0  0  0  0  0
  -23.5740  -30.5100   21.5590 C   0  0  0  0  0  3  0  0  0  0  0  0
  -25.1160  -29.0550   20.1430 C   0  0  0  0  0  0  0  0  0  0  0  0
  -26.0840  -30.9710   21.4300 C   0  0  0  0  0  2  0  0  0  0  0  0
  -26.2350  -29.6180   20.7710 C   0  0  0  0  0  0  0  0  0  0  0  0
  -27.4650  -28.9300   20.7820 C   0  0  0  0  0  3  0  0  0  0  0  0
  -26.4440  -27.1160   19.5160 C   0  0  0  0  0  3  0  0  0  0  0  0
  -25.2130  -27.7990   19.5160 C   0  0  0  0  0  3  0  0  0  0  0  0
  -23.8400  -29.8640   20.1720 C   0  0  0  0  0  2  0  0  0  0  0  0
  -24.7980  -31.1460   22.1430 N   0  0  0  0  0  0  0  0  0  0  0  0
  -23.5890  -32.1400   23.7810 O   0  0  0  0  0  0  0  0  0  0  0  0
  -22.9380  -29.4470   22.4820 C   0  0  0  0  0  0  0  0  0  0  0  0
  -21.6230  -29.2270   22.3210 N   0  0  0  0  0  0  0  0  0  0  0  0
  -23.6240  -28.8220   23.2950 O   0  0  0  0  0  0  0  0  0  0  0  0
  -21.1310  -29.7860   21.6390 H   0  0  0  0  0  0  0  0  0  0  0  0
  -18.2680  -27.9610   22.7510 C   0  0  0  0  0  0  0  0  0  0  0  0
  -20.8190  -28.2470   23.0490 C   0  0  0  0  0  3  0  0  0  0  0  0
  -20.9480  -26.8420   22.4180 C   0  0  0  0  0  2  0  0  0  0  0  0
  -19.8570  -26.5410   21.3860 C   0  0  0  0  0  2  0  0  0  0  0  0
  -18.4690  -26.6410   22.0270 C   0  0  0  0  0  2  0  0  0  0  0  0
  -19.3720  -28.7230   23.2180 C   0  0  0  0  0  0  0  0  0  0  0  0
  -19.1310  -29.9610   23.8540 C   0  0  0  0  0  3  0  0  0  0  0  0
  -17.8190  -30.4360   24.0280 C   0  0  0  0  0  3  0  0  0  0  0  0
  -16.7280  -29.6710   23.5800 C   0  0  0  0  0  3  0  0  0  0  0  0
  -16.9530  -28.4350   22.9480 C   0  0  0  0  0  3  0  0  0  0  0  0
  -25.9420  -32.5760   23.9250 C   0  0  0  0  0  3  0  0  0  0  0  0
  -25.5910  -33.9660   24.2440 N   0  0  0  0  0  0  0  0  0  0  0  0
  -25.9250  -35.0250   23.4930 C   0  0  0  0  0  0  0  0  0  0  0  0
  -26.6310  -34.9350   22.4850 O   0  0  0  0  0  0  0  0  0  0  0  0
  -24.9670  -34.1080   25.0250 H   0  0  0  0  0  0  0  0  0  0  0  0
  -24.1720  -36.7780   23.0700 C   0  0  0  0  0  1  0  0  0  0  0  0
  -25.3890  -36.4010   23.9300 C   0  0  0  0  0  3  0  0  0  0  0  0
  -27.4680  -37.3320   24.8480 C   0  0  0  0  0  1  0  0  0  0  0  0
  -26.4030  -37.4770   23.8590 N   0  0  0  0  0  0  0  0  0  0  0  0
  -25.9710  -38.3880   23.9880 H   0  0  0  0  0  0  0  0  0  0  0  0
  -26.4360  -31.8130   25.2150 C   0  0  1  0  0  0  0  0  0  0  0  0
  -25.3090  -31.5190   26.2330 C   0  0  0  0  0  1  0  0  0  0  0  0
  -27.0910  -30.4650   24.8330 C   0  0  0  0  0  1  0  0  0  0  0  0
  -27.5230  -32.6460   25.9340 C   0  0  0  0  0  1  0  0  0  0  0  0
  1  2  1  0
  1  3  1  0
  4  5  1  0
  5  9  1  0
  7  4  1  0
  7  9  1  0
  7  8  1  0
  8  6  1  0
  8  1  1  0
  9 10  1  1
  9  6  1  0
 10 11  1  0
 12 20  1  0
 13 18  1  0
 14 15  1  0
 14 13  1  0
 16 15  1  0
 16 25  1  0
 16 17  1  0
 18 12  1  0
 18 17  1  0
 19 12  2  0
 20 11  1  0
 20 21  1  0
 22 23  2  0
 23 42  1  0
 24 23  1  0
 24 27  1  0
 25 26  1  0
 25 22  1  0
 26 24  2  0
 27 28  1  0
 28 29  2  0
 30 33  1  0
 30 29  1  0
 31 30  2  0
 32 31  1  0
 32 27  2  0
 33 34  1  0
 34 39  2  0
 34 35  1  0
 35 36  2  0
 36 37  1  0
 37 41  1  0
 38 37  2  0
 39 38  1  0
 40 39  1  0
 42 43  1  0
 43 46  1  0
 43 45  1  0
 44 42  2  0
 47 22  1  0
 47 48  1  0
 49 47  1  0
 50 51  1  0
 50  1  1  0
 52 53  1  0
 52 51  1  0
 54 56  1  0
 54 53  1  0
 55 66  2  0
 56 61  1  0
 57 65  1  0
 57 67  1  0
 58 64  1  0
 58 60  1  0
 59 65  1  0
 60 61  2  0
 60 59  1  0
 62 56  2  0
 63 62  1  0
 63 58  2  0
 64 57  1  0
 65 55  1  0
 67 69  2  0
 68 67  1  0
 70 68  1  0
 71 80  2  0
 71 76  1  0
 72 68  1  0
 72 76  1  0
 73 72  1  0
 74 75  1  0
 74 73  1  0
 75 71  1  0
 76 77  2  0
 77 78  1  0
 79 78  2  0
 80 79  1  0
 81 55  1  0
 81 82  1  0
 81 91  1  0
 82 85  1  0
 83 87  1  0
 83 82  1  0
 84 83  2  0
 87 86  1  0
 89 87  1  0
 89 90  1  0
 89 88  1  0
 91 94  1  1
 91 92  1  0
 93 91  1  0
M  ISO  4  12 100  20 100  53 101  54 101
M  END
>  <TORSDO>  (89) 
F 23

>  <SCORE>  (89) 
-11.299

>  <name>  (89) 
90

>  <ligand_id>  (89) 
90

>  <original_smiles>  (89) 
[H]c1c([H])c([H])c2c(c1[H])C([H])([H])C([H])([H])C([H])([H])C2([H])N([H])C(=O)C1([H])N(C(=O)C([H])(N([H])C(=O)C([H])(N([H])C([H])([H])[H])C([H])([H])[H])C(C([H])([H])[H])(C([H])([H])[H])C([H])([H])[H])C([H])([H])c2c([H])c(OC([H])([H])C([H])([H])C([H])([H])C([H])([H])[N+]([H])([H])C3([H])C([H])([H])C4(C([H])([H])C([H])([H])N([H])C(=O)N5C([H])([H])C([H])([H])C([H])([H])C([H])(n6nc(-c7c([H])c([H])c(Oc8c([H])c([H])c(F)c([H])c8F)c([H])c7[H])c(C(=O)N([H])[H])c6N([H])[H])C5([H])[H])C([H])([H])C([H])([H])C43[H])c([H])c([H])c2C1([H])[H]

>  <smiles>  (89) 
[H]c1c([H])c([H])c2c(c1[H])C([H])([H])C([H])([H])C([H])([H])C2([H])N([H])C(=O)C1([H])N(C(=O)C([H])(N([H])C(=O)C([H])(N([H])C([H])([H])[H])C([H])([H])[H])C(C([H])([H])[H])(C([H])([H])[H])C([H])([H])[H])C([H])([H])c2c([H])c(OC([H])([H])C([H])([H])C([H])([H])C([H])([H])[N+]([H])([H])C3([H])C([H])([H])C4(C([H])([H])C([H])([H])N([H])C(=O)N5C([H])([H])C([H])([H])C([H])([H])C([H])(n6nc(-c7c([H])c([H])c(Oc8c([H])c([H])c(F)c([H])c8F)c([H])c7[H])c(C(=O)N([H])[H])c6N([H])[H])C5([H])[H])C([H])([H])C([H])([H])C43[H])c([H])c([H])c2C1([H])[H]

$$$$
91:0:0
     RDKit          3D

 92100  0  0  1  0  0  0  0  0999 V2000
  -28.6110  -21.6740   18.8510 C   0  0  0  0  0  3  0  0  0  0  0  0
  -28.5270  -20.4130   18.2350 C   0  0  0  0  0  3  0  0  0  0  0  0
  -29.1330  -20.5850   20.9610 C   0  0  0  0  0  3  0  0  0  0  0  0
  -28.8910  -21.7810   20.2290 C   0  0  0  0  0  0  0  0  0  0  0  0
  -28.7170  -19.2270   18.9720 C   0  0  0  0  0  0  0  0  0  0  0  0
  -29.0490  -19.3020   20.3510 C   0  0  0  0  0  0  0  0  0  0  0  0
  -27.0080  -17.5710   18.0940 C   0  0  0  0  0  1  0  0  0  0  0  0
  -28.4990  -17.9050   18.2380 C   0  0  0  0  0  2  0  0  0  0  0  0
  -28.9030  -23.1490   20.9350 C   0  0  0  0  0  2  0  0  0  0  0  0
  -28.5720  -24.3980   20.0590 C   0  0  0  0  0  2  0  0  0  0  0  0
  -28.4980  -25.7290   20.8510 C   0  0  0  0  0  2  0  0  0  0  0  0
  -28.4310  -26.8980   20.0140 O   0  0  0  0  0  0  0  0  0  0  0  0
  -24.6050  -31.9820   23.2320 C   0  0  0  0  0  0  0  0  0  0  0  0
  -27.2530  -27.6110   20.0640 C   0  0  0  0  0  0  0  0  0  0  0  0
  -23.3840  -30.5830   21.5970 C   0  0  0  0  0  3  0  0  0  0  0  0
  -24.8340  -29.0770   20.1320 C   0  0  0  0  0  0  0  0  0  0  0  0
  -25.9000  -30.9810   21.3500 C   0  0  0  0  0  2  0  0  0  0  0  0
  -25.9950  -29.6170   20.7000 C   0  0  0  0  0  0  0  0  0  0  0  0
  -27.2100  -28.8920   20.6580 C   0  0  0  0  0  3  0  0  0  0  0  0
  -26.0760  -27.0790   19.4960 C   0  0  0  0  0  3  0  0  0  0  0  0
  -24.8690  -27.8060   19.5270 C   0  0  0  0  0  3  0  0  0  0  0  0
  -23.5780  -29.9170   20.2080 C   0  0  0  0  0  2  0  0  0  0  0  0
  -24.6490  -31.1960   22.1180 N   0  0  0  0  0  0  0  0  0  0  0  0
  -23.5310  -32.2320   23.7990 O   0  0  0  0  0  0  0  0  0  0  0  0
  -22.7670  -29.5420   22.5590 C   0  0  0  0  0  0  0  0  0  0  0  0
  -21.4480  -29.3230   22.4390 N   0  0  0  0  0  0  0  0  0  0  0  0
  -23.4720  -28.9330   23.3670 O   0  0  0  0  0  0  0  0  0  0  0  0
  -20.9380  -29.8700   21.7580 H   0  0  0  0  0  0  0  0  0  0  0  0
  -18.1160  -28.0180   22.9380 C   0  0  0  0  0  0  0  0  0  0  0  0
  -20.6630  -28.3600   23.2100 C   0  0  0  0  0  3  0  0  0  0  0  0
  -20.8140  -26.9320   22.6370 C   0  0  0  0  0  2  0  0  0  0  0  0
  -19.7240  -26.5720   21.6210 C   0  0  0  0  0  2  0  0  0  0  0  0
  -18.3380  -26.6730   22.2650 C   0  0  0  0  0  2  0  0  0  0  0  0
  -19.2080  -28.8160   23.3680 C   0  0  0  0  0  0  0  0  0  0  0  0
  -18.9490  -30.0740   23.9540 C   0  0  0  0  0  3  0  0  0  0  0  0
  -17.6290  -30.5340   24.1170 C   0  0  0  0  0  3  0  0  0  0  0  0
  -16.5510  -29.7330   23.7040 C   0  0  0  0  0  3  0  0  0  0  0  0
  -16.7940  -28.4780   23.1190 C   0  0  0  0  0  3  0  0  0  0  0  0
  -25.8940  -32.6250   23.8320 C   0  0  0  0  0  3  0  0  0  0  0  0
  -25.5780  -34.0200   24.1670 N   0  0  0  0  0  0  0  0  0  0  0  0
  -25.9030  -35.0750   23.4090 C   0  0  0  0  0  0  0  0  0  0  0  0
  -26.5730  -34.9780   22.3770 O   0  0  0  0  0  0  0  0  0  0  0  0
  -24.9860  -34.1700   24.9710 H   0  0  0  0  0  0  0  0  0  0  0  0
  -24.1730  -36.8640   23.0480 C   0  0  0  0  0  1  0  0  0  0  0  0
  -25.4080  -36.4600   23.8690 C   0  0  0  0  0  3  0  0  0  0  0  0
  -27.5310  -37.3490   24.7240 C   0  0  0  0  0  1  0  0  0  0  0  0
  -26.4380  -37.5170   23.7700 N   0  0  0  0  0  0  0  0  0  0  0  0
  -26.0270  -38.4340   23.9170 H   0  0  0  0  0  0  0  0  0  0  0  0
  -26.4410  -31.8570   25.0980 C   0  0  1  0  0  0  0  0  0  0  0  0
  -25.3680  -31.6030   26.1840 C   0  0  0  0  0  1  0  0  0  0  0  0
  -27.0360  -30.4880   24.6930 C   0  0  0  0  0  1  0  0  0  0  0  0
  -27.5930  -32.6630   25.7430 C   0  0  0  0  0  1  0  0  0  0  0  0
  -29.2170  -18.0240   21.1910 C   0  0  0  0  0  2  0  0  0  0  0  0
  -30.4880  -17.1750   20.8930 C   0  0  0  0  0  2  0  0  0  0  0  0
  -30.9980  -14.7350   20.5920 C   0  0  0  0  0  0  0  0  0  0  0  0
  -30.7170  -12.6220   19.3550 C   0  0  0  0  0  2  0  0  0  0  0  0
  -29.7990  -12.9030   18.1470 C   0  0  0  0  0  2  0  0  0  0  0  0
  -28.3120  -12.7830   18.5390 C   0  0  0  0  0  2  0  0  0  0  0  0
  -27.9690  -13.5510   19.8440 C   0  0  0  0  0  3  0  0  0  0  0  0
  -29.0000  -13.2420   20.9550 C   0  0  0  0  0  2  0  0  0  0  0  0
  -30.3380  -13.5560   20.4270 N   0  0  0  0  0  0  0  0  0  0  0  0
  -32.1280  -14.9450   20.1420 O   0  0  0  0  0  0  0  0  0  0  0  0
  -30.2510  -15.7340   21.0980 N   0  0  0  0  0  0  0  0  0  0  0  0
  -29.3500  -15.4630   21.4610 H   0  0  0  0  0  0  0  0  0  0  0  0
  -25.5500  -14.1630   20.4760 C   0  0  0  0  0  0  0  0  0  0  0  0
  -24.4700  -13.3930   20.8180 C   0  0  0  0  0  0  0  0  0  0  0  0
  -24.9300  -12.0410   20.8030 C   0  0  0  0  0  0  0  0  0  0  0  0
  -26.6000  -13.2790   20.2800 N   0  0  0  0  0  0  0  0  0  0  0  0
  -26.2280  -11.9990   20.5310 N   0  0  0  0  0  0  0  0  0  0  0  0
  -24.1940  -10.7820   20.9760 C   0  0  0  0  0  0  0  0  0  0  0  0
  -24.5760   -9.8320   21.9480 C   0  0  0  0  0  3  0  0  0  0  0  0
  -23.8440   -8.6360   22.1080 C   0  0  0  0  0  3  0  0  0  0  0  0
  -22.7160   -8.3810   21.2910 C   0  0  0  0  0  0  0  0  0  0  0  0
  -22.3520   -9.3200   20.3090 C   0  0  0  0  0  3  0  0  0  0  0  0
  -23.0860  -10.5070   20.1490 C   0  0  0  0  0  3  0  0  0  0  0  0
  -21.9590   -7.2350   21.3580 O   0  0  0  0  0  0  0  0  0  0  0  0
  -21.7980   -6.5450   22.5320 C   0  0  0  0  0  0  0  0  0  0  0  0
  -21.2270   -7.1460   23.6750 C   0  0  0  0  0  3  0  0  0  0  0  0
  -21.0160   -6.3810   24.8410 C   0  0  0  0  0  3  0  0  0  0  0  0
  -21.3660   -5.0190   24.8630 C   0  0  0  0  0  0  0  0  0  0  0  0
  -21.9310   -4.4180   23.7250 C   0  0  0  0  0  3  0  0  0  0  0  0
  -22.1450   -5.1790   22.5620 C   0  0  0  0  0  0  0  0  0  0  0  0
  -22.6690   -4.5910   21.4600 F   0  0  0  0  0  0  0  0  0  0  0  0
  -21.1580   -4.2820   25.9800 F   0  0  0  0  0  0  0  0  0  0  0  0
  -23.0670  -13.8750   21.0530 C   0  0  0  0  0  0  0  0  0  0  0  0
  -22.3170  -13.1860   21.9050 N   0  0  0  0  0  0  0  0  0  0  0  0
  -22.6430  -14.8980   20.5160 O   0  0  0  0  0  0  0  0  0  0  0  0
  -22.6700  -12.3590   22.3640 H   0  0  0  0  0  0  0  0  0  0  0  0
  -21.3760  -13.4940   22.1060 H   0  0  0  0  0  0  0  0  0  0  0  0
  -25.7210  -15.5320   20.2970 N   0  0  0  0  0  0  0  0  0  0  0  0
  -24.9440  -16.1810   20.3570 H   0  0  0  0  0  0  0  0  0  0  0  0
  -26.5640  -15.9570   19.9350 H   0  0  0  0  0  0  0  0  0  0  0  0
  1  4  1  0
  2  1  2  0
  2  5  1  0
  4  9  1  0
  4  3  2  0
  5  6  2  0
  6  3  1  0
  6 53  1  0
  7  8  1  0
  8  5  1  0
 10 11  1  0
 10  9  1  0
 12 14  1  0
 12 11  1  0
 13 24  2  0
 14 19  1  0
 15 23  1  0
 15 25  1  0
 16 22  1  0
 16 18  1  0
 17 23  1  0
 18 17  1  0
 19 18  2  0
 20 21  1  0
 20 14  2  0
 21 16  2  0
 22 15  1  0
 23 13  1  0
 25 27  2  0
 26 25  1  0
 28 26  1  0
 29 38  2  0
 29 34  1  0
 30 26  1  0
 30 34  1  0
 31 30  1  0
 32 33  1  0
 32 31  1  0
 33 29  1  0
 34 35  2  0
 35 36  1  0
 37 36  2  0
 38 37  1  0
 39 13  1  0
 39 40  1  0
 39 49  1  0
 40 43  1  0
 41 45  1  0
 41 40  1  0
 42 41  2  0
 45 44  1  0
 47 45  1  0
 47 48  1  0
 47 46  1  0
 49 52  1  1
 49 50  1  0
 51 49  1  0
 54 63  1  0
 54 53  1  0
 55 63  1  0
 56 61  1  0
 57 58  1  0
 57 56  1  0
 59 58  1  0
 59 68  1  0
 59 60  1  0
 61 55  1  0
 61 60  1  0
 62 55  2  0
 63 64  1  0
 65 66  2  0
 66 85  1  0
 67 66  1  0
 67 70  1  0
 68 65  1  0
 68 69  1  0
 69 67  2  0
 70 71  1  0
 71 72  2  0
 73 76  1  0
 73 72  1  0
 74 73  2  0
 75 74  1  0
 75 70  2  0
 76 77  1  0
 77 82  2  0
 77 78  1  0
 78 79  2  0
 79 80  1  0
 80 84  1  0
 81 80  2  0
 82 81  1  0
 83 82  1  0
 85 86  1  0
 86 89  1  0
 86 88  1  0
 87 85  2  0
 90 91  1  0
 90 65  1  0
 92 90  1  0
M  ISO  4  11 101  12 101  55 100  63 100
M  END
>  <TORSDO>  (90) 
F 22

>  <SCORE>  (90) 
-12.105

>  <name>  (90) 
91

>  <ligand_id>  (90) 
91

>  <original_smiles>  (90) 
[H]c1c([H])c([H])c2c(c1[H])C([H])([H])C([H])([H])C([H])([H])C2([H])N([H])C(=O)C1([H])N(C(=O)C([H])(N([H])C(=O)C([H])(N([H])C([H])([H])[H])C([H])([H])[H])C(C([H])([H])[H])(C([H])([H])[H])C([H])([H])[H])C([H])([H])c2c([H])c(OC([H])([H])C([H])([H])C([H])([H])c3c([H])c([H])c(C([H])([H])C([H])([H])[H])c(C([H])([H])C([H])([H])N([H])C(=O)N4C([H])([H])C([H])([H])C([H])([H])C([H])(n5nc(-c6c([H])c([H])c(Oc7c([H])c([H])c(F)c([H])c7F)c([H])c6[H])c(C(=O)N([H])[H])c5N([H])[H])C4([H])[H])c3[H])c([H])c([H])c2C1([H])[H]

>  <smiles>  (90) 
[H]c1c([H])c([H])c2c(c1[H])C([H])([H])C([H])([H])C([H])([H])C2([H])N([H])C(=O)C1([H])N(C(=O)C([H])(N([H])C(=O)C([H])(N([H])C([H])([H])[H])C([H])([H])[H])C(C([H])([H])[H])(C([H])([H])[H])C([H])([H])[H])C([H])([H])c2c([H])c(OC([H])([H])C([H])([H])C([H])([H])c3c([H])c([H])c(C([H])([H])C([H])([H])[H])c(C([H])([H])C([H])([H])N([H])C(=O)N4C([H])([H])C([H])([H])C([H])([H])C([H])(n5nc(-c6c([H])c([H])c(Oc7c([H])c([H])c(F)c([H])c7F)c([H])c6[H])c(C(=O)N([H])[H])c5N([H])[H])C4([H])[H])c3[H])c([H])c([H])c2C1([H])[H]

$$$$
92:0:0
     RDKit          3D

 94102  0  0  1  0  0  0  0  0999 V2000
  -27.3150  -20.4810   21.4190 C   0  0  0  0  0  2  0  0  0  0  0  0
  -27.4890  -21.2380   20.0950 C   0  0  0  0  0  2  0  0  0  0  0  0
  -28.7130  -20.3750   22.0600 C   0  0  0  0  0  2  0  0  0  0  0  0
  -28.9430  -21.7220   20.0460 C   0  0  0  0  0  3  0  0  0  0  0  0
  -29.7210  -20.5000   20.9040 C   0  0  2  0  0  0  0  0  0  0  0  0
  -29.0100  -23.3720   20.4860 C   0  0  0  0  0  3  0  0  0  0  0  0
  -28.0800  -24.6590   19.9300 C   0  0  0  0  0  3  0  0  0  0  0  0
  -28.2830  -26.1750   20.2320 O   0  0  0  0  0  0  0  0  0  0  0  0
  -24.6410  -31.8440   23.1850 C   0  0  0  0  0  0  0  0  0  0  0  0
  -27.2230  -27.1500   20.1450 C   0  0  0  0  0  0  0  0  0  0  0  0
  -23.4420  -30.4620   21.5310 C   0  0  0  0  0  3  0  0  0  0  0  0
  -24.8920  -28.8880   20.1070 C   0  0  0  0  0  0  0  0  0  0  0  0
  -25.9960  -30.7260   21.3770 C   0  0  0  0  0  2  0  0  0  0  0  0
  -26.0680  -29.3360   20.7230 C   0  0  0  0  0  0  0  0  0  0  0  0
  -27.2330  -28.4820   20.7250 C   0  0  0  0  0  3  0  0  0  0  0  0
  -26.0230  -26.8030   19.4860 C   0  0  0  0  0  3  0  0  0  0  0  0
  -24.8810  -27.6350   19.4750 C   0  0  0  0  0  3  0  0  0  0  0  0
  -23.6670  -29.7880   20.1510 C   0  0  0  0  0  2  0  0  0  0  0  0
  -24.7130  -31.0310   22.0880 N   0  0  0  0  0  0  0  0  0  0  0  0
  -23.5540  -32.1320   23.7090 O   0  0  0  0  0  0  0  0  0  0  0  0
  -22.7560  -29.4540   22.4870 C   0  0  0  0  0  0  0  0  0  0  0  0
  -21.4240  -29.3050   22.3650 N   0  0  0  0  0  0  0  0  0  0  0  0
  -23.4210  -28.8090   23.3000 O   0  0  0  0  0  0  0  0  0  0  0  0
  -20.9440  -29.8800   21.6870 H   0  0  0  0  0  0  0  0  0  0  0  0
  -18.0310  -28.1410   22.8480 C   0  0  0  0  0  0  0  0  0  0  0  0
  -20.5910  -28.3710   23.1250 C   0  0  0  0  0  3  0  0  0  0  0  0
  -20.6780  -26.9420   22.5400 C   0  0  0  0  0  2  0  0  0  0  0  0
  -19.5750  -26.6380   21.5200 C   0  0  0  0  0  2  0  0  0  0  0  0
  -18.1950  -26.7950   22.1620 C   0  0  0  0  0  2  0  0  0  0  0  0
  -19.1560  -28.8870   23.2870 C   0  0  0  0  0  0  0  0  0  0  0  0
  -18.9470  -30.1480   23.8890 C   0  0  0  0  0  3  0  0  0  0  0  0
  -17.6470  -30.6600   24.0550 C   0  0  0  0  0  3  0  0  0  0  0  0
  -16.5360  -29.9090   23.6330 C   0  0  0  0  0  3  0  0  0  0  0  0
  -16.7300  -28.6500   23.0350 C   0  0  0  0  0  3  0  0  0  0  0  0
  -25.9190  -32.4680   23.8250 C   0  0  0  0  0  3  0  0  0  0  0  0
  -25.5930  -33.8470   24.2150 N   0  0  0  0  0  0  0  0  0  0  0  0
  -25.9070  -34.9380   23.5040 C   0  0  0  0  0  0  0  0  0  0  0  0
  -26.5670  -34.8900   22.4620 O   0  0  0  0  0  0  0  0  0  0  0  0
  -24.9990  -33.9560   25.0240 H   0  0  0  0  0  0  0  0  0  0  0  0
  -24.1490  -36.7260   23.2640 C   0  0  0  0  0  1  0  0  0  0  0  0
  -25.4110  -36.3000   24.0300 C   0  0  0  0  0  3  0  0  0  0  0  0
  -27.5570  -37.1780   24.8450 C   0  0  0  0  0  1  0  0  0  0  0  0
  -26.4270  -37.3710   23.9410 N   0  0  0  0  0  0  0  0  0  0  0  0
  -26.0110  -38.2770   24.1380 H   0  0  0  0  0  0  0  0  0  0  0  0
  -26.4490  -31.6550   25.0700 C   0  0  1  0  0  0  0  0  0  0  0  0
  -25.3640  -31.3760   26.1380 C   0  0  0  0  0  1  0  0  0  0  0  0
  -27.0340  -30.2940   24.6270 C   0  0  0  0  0  1  0  0  0  0  0  0
  -27.6000  -32.4310   25.7530 C   0  0  0  0  0  1  0  0  0  0  0  0
  -30.1890  -18.9180   20.4250 C   0  0  0  0  0  2  0  0  0  0  0  0
  -29.3390  -17.5040   20.2240 C   0  0  0  0  0  2  0  0  0  0  0  0
  -30.5160  -14.9110   20.4040 C   0  0  0  0  0  0  0  0  0  0  0  0
  -30.4470  -12.5440   19.4990 C   0  0  0  0  0  2  0  0  0  0  0  0
  -29.5350  -12.5570   18.2470 C   0  0  0  0  0  2  0  0  0  0  0  0
  -28.0510  -12.3750   18.6380 C   0  0  0  0  0  2  0  0  0  0  0  0
  -27.6420  -13.2550   19.8530 C   0  0  0  0  0  3  0  0  0  0  0  0
  -28.6920  -13.2000   20.9880 C   0  0  0  0  0  2  0  0  0  0  0  0
  -29.9770  -13.6250   20.4110 N   0  0  0  0  0  0  0  0  0  0  0  0
  -31.6810  -15.0540   20.0150 O   0  0  0  0  0  0  0  0  0  0  0  0
  -29.6640  -16.0120   20.6690 N   0  0  0  0  0  0  0  0  0  0  0  0
  -28.8330  -15.6280   21.0900 H   0  0  0  0  0  0  0  0  0  0  0  0
  -25.2470  -13.8220   20.5730 C   0  0  0  0  0  0  0  0  0  0  0  0
  -24.1770  -13.0440   20.9230 C   0  0  0  0  0  0  0  0  0  0  0  0
  -24.6390  -11.6930   20.8700 C   0  0  0  0  0  0  0  0  0  0  0  0
  -26.2940  -12.9490   20.3290 N   0  0  0  0  0  0  0  0  0  0  0  0
  -25.9340  -11.6610   20.5700 N   0  0  0  0  0  0  0  0  0  0  0  0
  -23.9050  -10.4310   21.0370 C   0  0  0  0  0  0  0  0  0  0  0  0
  -24.3590   -9.4230   21.9170 C   0  0  0  0  0  3  0  0  0  0  0  0
  -23.6280   -8.2260   22.0730 C   0  0  0  0  0  3  0  0  0  0  0  0
  -22.4270   -8.0260   21.3540 C   0  0  0  0  0  0  0  0  0  0  0  0
  -21.9890   -9.0240   20.4640 C   0  0  0  0  0  3  0  0  0  0  0  0
  -22.7210  -10.2130   20.3040 C   0  0  0  0  0  3  0  0  0  0  0  0
  -21.6630   -6.8870   21.4240 O   0  0  0  0  0  0  0  0  0  0  0  0
  -21.6850   -6.0710   22.5290 C   0  0  0  0  0  0  0  0  0  0  0  0
  -21.4020   -6.5620   23.8200 C   0  0  0  0  0  3  0  0  0  0  0  0
  -21.3680   -5.6770   24.9170 C   0  0  0  0  0  3  0  0  0  0  0  0
  -21.6050   -4.3040   24.7220 C   0  0  0  0  0  0  0  0  0  0  0  0
  -21.8810   -3.8120   23.4350 C   0  0  0  0  0  3  0  0  0  0  0  0
  -21.9190   -4.6950   22.3390 C   0  0  0  0  0  0  0  0  0  0  0  0
  -22.1650   -4.2120   21.0980 F   0  0  0  0  0  0  0  0  0  0  0  0
  -21.5640   -3.4520   25.7740 F   0  0  0  0  0  0  0  0  0  0  0  0
  -22.7780  -13.5230   21.1880 C   0  0  0  0  0  0  0  0  0  0  0  0
  -22.0380  -12.8230   22.0420 N   0  0  0  0  0  0  0  0  0  0  0  0
  -22.3480  -14.5540   20.6730 O   0  0  0  0  0  0  0  0  0  0  0  0
  -22.3960  -11.9920   22.4900 H   0  0  0  0  0  0  0  0  0  0  0  0
  -21.0980  -13.1290   22.2540 H   0  0  0  0  0  0  0  0  0  0  0  0
  -25.4110  -15.1960   20.4160 N   0  0  0  0  0  0  0  0  0  0  0  0
  -24.6390  -15.8430   20.5380 H   0  0  0  0  0  0  0  0  0  0  0  0
  -26.2480  -15.6410   20.0660 H   0  0  0  0  0  0  0  0  0  0  0  0
  -31.0630  -21.1960   21.3040 C   0  0  0  0  0  2  0  0  0  0  0  0
  -31.8810  -20.5320   22.3380 N   0  0  0  0  0  4  0  0  0  0  0  0
  -31.9790  -19.5580   22.1060 H   0  0  0  0  0  0  0  0  0  0  0  0
  -31.3950  -20.6030   23.2160 H   0  0  0  0  0  0  0  0  0  0  0  0
  -33.8370  -20.8700   23.8580 C   0  0  0  0  0  1  0  0  0  0  0  0
  -33.2370  -21.1180   22.4690 C   0  0  0  0  0  2  0  0  0  0  0  0
  1  3  1  0
  2  1  1  0
  4  2  1  0
  4  6  1  0
  4  5  1  0
  5 49  1  6
  5 89  1  0
  5  3  1  0
  7  8  1  0
  7  6  2  0
  9 20  2  0
 10  8  1  0
 10 15  1  0
 11 19  1  0
 11 21  1  0
 12 18  1  0
 12 14  1  0
 13 19  1  0
 14 15  2  0
 14 13  1  0
 16 10  2  0
 17 16  1  0
 17 12  2  0
 18 11  1  0
 19  9  1  0
 21 23  2  0
 22 21  1  0
 24 22  1  0
 25 34  2  0
 25 30  1  0
 26 22  1  0
 26 30  1  0
 27 26  1  0
 28 29  1  0
 28 27  1  0
 29 25  1  0
 30 31  2  0
 31 32  1  0
 33 32  2  0
 34 33  1  0
 35  9  1  0
 35 36  1  0
 35 45  1  0
 36 39  1  0
 37 41  1  0
 37 36  1  0
 38 37  2  0
 41 40  1  0
 43 41  1  0
 43 44  1  0
 43 42  1  0
 45 48  1  1
 45 46  1  0
 47 45  1  0
 50 49  1  0
 50 59  1  0
 51 57  1  0
 51 59  1  0
 52 57  1  0
 53 54  1  0
 53 52  1  0
 55 54  1  0
 55 64  1  0
 55 56  1  0
 57 56  1  0
 58 51  2  0
 59 60  1  0
 61 62  2  0
 62 81  1  0
 63 62  1  0
 63 66  1  0
 64 65  1  0
 64 61  1  0
 65 63  2  0
 66 67  1  0
 67 68  2  0
 69 72  1  0
 69 68  1  0
 70 69  2  0
 71 70  1  0
 71 66  2  0
 72 73  1  0
 73 74  1  0
 74 75  2  0
 76 75  1  0
 76 80  1  0
 77 76  2  0
 78 73  2  0
 78 77  1  0
 79 78  1  0
 81 82  1  0
 82 85  1  0
 82 84  1  0
 83 81  2  0
 86 87  1  0
 86 61  1  0
 88 86  1  0
 89 90  1  0
 90 94  1  0
 90 92  1  0
 91 90  1  0
 94 93  1  0
M  ISO  4   7 101   8 101  51 100  59 100
M  END
>  <TORSDO>  (91) 
F 23

>  <SCORE>  (91) 
-9.819

>  <name>  (91) 
92

>  <ligand_id>  (91) 
92

>  <original_smiles>  (91) 
[H]c1c([H])c([H])c2c(c1[H])C([H])([H])C([H])([H])C([H])([H])C2([H])N([H])C(=O)C1([H])N(C(=O)C([H])(N([H])C(=O)C([H])(N([H])C([H])([H])[H])C([H])([H])[H])C(C([H])([H])[H])(C([H])([H])[H])C([H])([H])[H])C([H])([H])c2c([H])c(OC([H])([H])C([H])([H])C3([H])C([H])([H])C([H])([H])C([H])([H])C3(C([H])([H])C([H])([H])N([H])C(=O)N3C([H])([H])C([H])([H])C([H])([H])C([H])(n4nc(-c5c([H])c([H])c(Oc6c([H])c([H])c(F)c([H])c6F)c([H])c5[H])c(C(=O)N([H])[H])c4N([H])[H])C3([H])[H])C([H])([H])[N+]([H])([H])C([H])([H])C([H])([H])[H])c([H])c([H])c2C1([H])[H]

>  <smiles>  (91) 
[H]c1c([H])c([H])c2c(c1[H])C([H])([H])C([H])([H])C([H])([H])C2([H])N([H])C(=O)C1([H])N(C(=O)C([H])(N([H])C(=O)C([H])(N([H])C([H])([H])[H])C([H])([H])[H])C(C([H])([H])[H])(C([H])([H])[H])C([H])([H])[H])C([H])([H])c2c([H])c(OC([H])([H])C([H])([H])C3([H])C([H])([H])C([H])([H])C([H])([H])C3(C([H])([H])C([H])([H])N([H])C(=O)N3C([H])([H])C([H])([H])C([H])([H])C([H])(n4nc(-c5c([H])c([H])c(Oc6c([H])c([H])c(F)c([H])c6F)c([H])c5[H])c(C(=O)N([H])[H])c4N([H])[H])C3([H])[H])C([H])([H])[N+]([H])([H])C([H])([H])C([H])([H])[H])c([H])c([H])c2C1([H])[H]

$$$$
93:0:0
     RDKit          3D

 94103  0  0  1  0  0  0  0  0999 V2000
  -30.2010  -19.2130   20.2930 C   0  0  0  0  0  3  0  0  0  0  0  0
  -30.7620  -15.1620   20.6110 C   0  0  0  0  0  0  0  0  0  0  0  0
  -30.7110  -12.7590   19.8030 C   0  0  0  0  0  2  0  0  0  0  0  0
  -29.8530  -12.5800   18.5310 C   0  0  0  0  0  2  0  0  0  0  0  0
  -28.3650  -12.4000   18.8890 C   0  0  0  0  0  2  0  0  0  0  0  0
  -27.8710  -13.3820   19.9830 C   0  0  0  0  0  3  0  0  0  0  0  0
  -28.8650  -13.5140   21.1530 C   0  0  0  0  0  2  0  0  0  0  0  0
  -30.1530  -13.9070   20.5670 N   0  0  0  0  0  0  0  0  0  0  0  0
  -31.9970  -15.1830   20.6260 O   0  0  0  0  0  0  0  0  0  0  0  0
  -27.1550  -19.1900   18.7920 C   0  0  0  0  0  2  0  0  0  0  0  0
  -27.3380  -18.9390   20.0900 C   0  0  0  0  0  2  0  0  0  0  0  0
  -27.7680  -18.1350   17.9100 C   0  0  0  0  0  2  0  0  0  0  0  0
  -29.5740  -16.4290   18.8140 C   0  0  0  0  0  2  0  0  0  0  0  0
  -28.0930  -17.6540   20.3300 C   0  0  0  0  0  3  0  0  0  0  0  0
  -28.1670  -17.0350   18.9200 C   0  0  0  0  0  3  0  0  0  0  0  0
  -29.5750  -17.7270   20.7790 C   0  0  0  0  0  3  0  0  0  0  0  0
  -30.0490  -16.3360   20.1990 N   0  0  0  0  0  0  0  0  0  0  0  0
  -25.4510  -13.9760   20.5830 C   0  0  0  0  0  0  0  0  0  0  0  0
  -24.3660  -13.2070   20.8930 C   0  0  0  0  0  0  0  0  0  0  0  0
  -24.8340  -11.8600   20.9120 C   0  0  0  0  0  0  0  0  0  0  0  0
  -26.5100  -13.0980   20.4180 N   0  0  0  0  0  0  0  0  0  0  0  0
  -26.1420  -11.8190   20.6850 N   0  0  0  0  0  0  0  0  0  0  0  0
  -24.1010  -10.6010   21.0720 C   0  0  0  0  0  0  0  0  0  0  0  0
  -24.4730   -9.6540   22.0510 C   0  0  0  0  0  3  0  0  0  0  0  0
  -23.7400   -8.4580   22.2010 C   0  0  0  0  0  3  0  0  0  0  0  0
  -22.6250   -8.2010   21.3700 C   0  0  0  0  0  0  0  0  0  0  0  0
  -22.2730   -9.1360   20.3800 C   0  0  0  0  0  3  0  0  0  0  0  0
  -23.0060  -10.3240   20.2280 C   0  0  0  0  0  3  0  0  0  0  0  0
  -21.8690   -7.0560   21.4270 O   0  0  0  0  0  0  0  0  0  0  0  0
  -21.7340   -6.3430   22.5900 C   0  0  0  0  0  0  0  0  0  0  0  0
  -21.1740   -6.9130   23.7550 C   0  0  0  0  0  3  0  0  0  0  0  0
  -20.9890   -6.1230   24.9070 C   0  0  0  0  0  3  0  0  0  0  0  0
  -21.3530   -4.7640   24.8950 C   0  0  0  0  0  0  0  0  0  0  0  0
  -21.9050   -4.1920   23.7350 C   0  0  0  0  0  3  0  0  0  0  0  0
  -22.0920   -4.9810   22.5840 C   0  0  0  0  0  0  0  0  0  0  0  0
  -22.6030   -4.4180   21.4630 F   0  0  0  0  0  0  0  0  0  0  0  0
  -21.1680   -4.0020   25.9980 F   0  0  0  0  0  0  0  0  0  0  0  0
  -22.9550  -13.6900   21.0600 C   0  0  0  0  0  0  0  0  0  0  0  0
  -22.1720  -13.0150   21.8940 N   0  0  0  0  0  0  0  0  0  0  0  0
  -22.5530  -14.7030   20.4880 O   0  0  0  0  0  0  0  0  0  0  0  0
  -22.5110  -12.1950   22.3770 H   0  0  0  0  0  0  0  0  0  0  0  0
  -21.2260  -13.3270   22.0610 H   0  0  0  0  0  0  0  0  0  0  0  0
  -25.6040  -15.3420   20.4010 N   0  0  0  0  0  0  0  0  0  0  0  0
  -24.8180  -15.9810   20.4250 H   0  0  0  0  0  0  0  0  0  0  0  0
  -26.4720  -15.7910   20.1420 H   0  0  0  0  0  0  0  0  0  0  0  0
  -31.7160  -19.0690   20.3120 C   0  0  0  0  0  3  0  0  0  0  0  0
  -32.6110  -19.5620   19.4300 C   0  0  0  0  0  0  0  0  0  0  0  0
  -34.0940  -19.2980   19.5950 C   0  0  0  0  0  1  0  0  0  0  0  0
  -32.2660  -20.4160   18.2230 C   0  0  0  0  0  1  0  0  0  0  0  0
  -29.7900  -20.7080   20.9640 C   0  0  0  0  0  3  0  0  0  0  0  0
  -29.2260  -22.0660   20.1590 C   0  0  0  0  0  3  0  0  0  0  0  0
  -29.1980  -23.6290   20.7620 C   0  0  0  0  0  3  0  0  0  0  0  0
  -28.3050  -24.8900   20.1220 C   0  0  0  0  0  3  0  0  0  0  0  0
  -28.4330  -26.3940   20.4540 O   0  0  0  0  0  0  0  0  0  0  0  0
  -24.6230  -31.9670   23.3000 C   0  0  0  0  0  0  0  0  0  0  0  0
  -27.3410  -27.3200   20.3340 C   0  0  0  0  0  0  0  0  0  0  0  0
  -23.4690  -30.5420   21.6500 C   0  0  0  0  0  3  0  0  0  0  0  0
  -24.9670  -28.9900   20.2520 C   0  0  0  0  0  0  0  0  0  0  0  0
  -26.0160  -30.8630   21.5180 C   0  0  0  0  0  2  0  0  0  0  0  0
  -26.1250  -29.4730   20.8770 C   0  0  0  0  0  0  0  0  0  0  0  0
  -27.3090  -28.6510   20.9050 C   0  0  0  0  0  3  0  0  0  0  0  0
  -26.1590  -26.9350   19.6570 C   0  0  0  0  0  3  0  0  0  0  0  0
  -24.9960  -27.7350   19.6270 C   0  0  0  0  0  3  0  0  0  0  0  0
  -23.7200  -29.8590   20.2790 C   0  0  0  0  0  2  0  0  0  0  0  0
  -24.7210  -31.1460   22.2120 N   0  0  0  0  0  0  0  0  0  0  0  0
  -23.5250  -32.2350   23.8110 O   0  0  0  0  0  0  0  0  0  0  0  0
  -22.7960  -29.5300   22.6090 C   0  0  0  0  0  0  0  0  0  0  0  0
  -21.4720  -29.3390   22.4670 N   0  0  0  0  0  0  0  0  0  0  0  0
  -23.4670  -28.9150   23.4420 O   0  0  0  0  0  0  0  0  0  0  0  0
  -20.9860  -29.8840   21.7670 H   0  0  0  0  0  0  0  0  0  0  0  0
  -18.0990  -28.1150   22.9510 C   0  0  0  0  0  0  0  0  0  0  0  0
  -20.6550  -28.3940   23.2330 C   0  0  0  0  0  3  0  0  0  0  0  0
  -20.7710  -26.9650   22.6540 C   0  0  0  0  0  2  0  0  0  0  0  0
  -19.6750  -26.6340   21.6370 C   0  0  0  0  0  2  0  0  0  0  0  0
  -18.2880  -26.7680   22.2730 C   0  0  0  0  0  2  0  0  0  0  0  0
  -19.2100  -28.8850   23.3880 C   0  0  0  0  0  0  0  0  0  0  0  0
  -18.9790  -30.1430   23.9860 C   0  0  0  0  0  3  0  0  0  0  0  0
  -17.6700  -30.6330   24.1480 C   0  0  0  0  0  3  0  0  0  0  0  0
  -16.5720  -29.8620   23.7270 C   0  0  0  0  0  3  0  0  0  0  0  0
  -16.7890  -28.6050   23.1350 C   0  0  0  0  0  3  0  0  0  0  0  0
  -25.8820  -32.6270   23.9400 C   0  0  0  0  0  3  0  0  0  0  0  0
  -25.5530  -34.0320   24.2290 N   0  0  0  0  0  0  0  0  0  0  0  0
  -25.8960  -35.0700   23.4560 C   0  0  0  0  0  0  0  0  0  0  0  0
  -26.5870  -34.9470   22.4410 O   0  0  0  0  0  0  0  0  0  0  0  0
  -24.9430  -34.1990   25.0150 H   0  0  0  0  0  0  0  0  0  0  0  0
  -24.1720  -36.8510   23.0220 C   0  0  0  0  0  1  0  0  0  0  0  0
  -25.3930  -36.4670   23.8740 C   0  0  0  0  0  3  0  0  0  0  0  0
  -27.4960  -37.3830   24.7500 C   0  0  0  0  0  1  0  0  0  0  0  0
  -26.4250  -37.5210   23.7670 N   0  0  0  0  0  0  0  0  0  0  0  0
  -26.0100  -38.4430   23.8760 H   0  0  0  0  0  0  0  0  0  0  0  0
  -26.3660  -31.8920   25.2510 C   0  0  1  0  0  0  0  0  0  0  0  0
  -25.2430  -31.6710   26.2910 C   0  0  0  0  0  1  0  0  0  0  0  0
  -26.9750  -30.5120   24.9180 C   0  0  0  0  0  1  0  0  0  0  0  0
  -27.4870  -32.7160   25.9280 C   0  0  0  0  0  1  0  0  0  0  0  0
  1 46  1  0
  1 50  1  0
  2  9  2  0
  3  8  1  0
  4  5  1  0
  4  3  1  0
  6  5  1  0
  6 21  1  0
  6  7  1  0
  8  2  1  0
  8  7  1  0
 10 11  1  0
 12 10  1  0
 13 15  1  0
 13 17  1  0
 14 11  1  0
 14 16  1  0
 15 12  1  0
 15 14  1  0
 16  1  1  0
 17  2  1  0
 17 16  1  0
 18 19  2  0
 19 20  1  0
 19 38  1  0
 20 23  1  0
 21 18  1  0
 21 22  1  0
 22 20  2  0
 23 24  1  0
 24 25  2  0
 26 29  1  0
 26 25  1  0
 27 26  2  0
 28 27  1  0
 28 23  2  0
 29 30  1  0
 30 31  1  0
 31 32  2  0
 33 32  1  0
 33 37  1  0
 34 33  2  0
 35 30  2  0
 35 34  1  0
 36 35  1  0
 38 39  1  0
 39 42  1  0
 39 41  1  0
 40 38  2  0
 43 44  1  0
 43 18  1  0
 45 43  1  0
 47 48  1  0
 47 46  2  0
 49 47  1  0
 51 52  1  0
 51 50  2  0
 53 54  1  0
 53 52  2  0
 55 66  2  0
 56 54  1  0
 56 61  1  0
 57 65  1  0
 57 67  1  0
 58 64  1  0
 58 60  1  0
 59 65  1  0
 60 61  2  0
 60 59  1  0
 62 56  2  0
 63 62  1  0
 63 58  2  0
 64 57  1  0
 65 55  1  0
 67 69  2  0
 68 67  1  0
 70 68  1  0
 71 80  2  0
 71 76  1  0
 72 68  1  0
 72 76  1  0
 73 72  1  0
 74 75  1  0
 74 73  1  0
 75 71  1  0
 76 77  2  0
 77 78  1  0
 79 78  2  0
 80 79  1  0
 81 55  1  0
 81 82  1  0
 81 91  1  0
 82 85  1  0
 83 87  1  0
 83 82  1  0
 84 83  2  0
 87 86  1  0
 89 87  1  0
 89 90  1  0
 89 88  1  0
 91 94  1  1
 91 92  1  0
 93 91  1  0
M  ISO  4   2 100  17 100  53 101  54 101
M  END
>  <TORSDO>  (92) 
F 21

>  <SCORE>  (92) 
-13.510

>  <name>  (92) 
93

>  <ligand_id>  (92) 
93

>  <original_smiles>  (92) 
[H]C1=C([H])C2([H])C([H])(C([H])(C([H])=C(C([H])([H])[H])C([H])([H])[H])C([H])([H])C([H])([H])C([H])([H])C([H])([H])Oc3c([H])c([H])c4c(c3[H])C([H])([H])N(C(=O)C([H])(N([H])C(=O)C([H])(N([H])C([H])([H])[H])C([H])([H])[H])C(C([H])([H])[H])(C([H])([H])[H])C([H])([H])[H])C([H])(C(=O)N([H])C3([H])c5c([H])c([H])c([H])c([H])c5C([H])([H])C([H])([H])C3([H])[H])C4([H])[H])N(C(=O)N3C([H])([H])C([H])([H])C([H])([H])C([H])(n4nc(-c5c([H])c([H])c(Oc6c([H])c([H])c(F)c([H])c6F)c([H])c5[H])c(C(=O)N([H])[H])c4N([H])[H])C3([H])[H])C([H])([H])C2([H])C1([H])[H]

>  <smiles>  (92) 
[H]C1=C([H])C2([H])C([H])(C([H])(C([H])=C(C([H])([H])[H])C([H])([H])[H])C([H])([H])C([H])([H])C([H])([H])C([H])([H])Oc3c([H])c([H])c4c(c3[H])C([H])([H])N(C(=O)C([H])(N([H])C(=O)C([H])(N([H])C([H])([H])[H])C([H])([H])[H])C(C([H])([H])[H])(C([H])([H])[H])C([H])([H])[H])C([H])(C(=O)N([H])C3([H])c5c([H])c([H])c([H])c([H])c5C([H])([H])C([H])([H])C3([H])[H])C4([H])[H])N(C(=O)N3C([H])([H])C([H])([H])C([H])([H])C([H])(n4nc(-c5c([H])c([H])c(Oc6c([H])c([H])c(F)c([H])c6F)c([H])c5[H])c(C(=O)N([H])[H])c4N([H])[H])C3([H])[H])C([H])([H])C2([H])C1([H])[H]

$$$$
94:0:0
     RDKit          3D

 96105  0  0  1  0  0  0  0  0999 V2000
  -31.4950  -22.9240   20.8870 C   0  0  0  0  0  0  0  0  0  0  0  0
  -31.3370  -22.1340   19.5970 C   0  0  0  0  0  2  0  0  0  0  0  0
  -27.9500  -20.3120   20.4070 C   0  0  0  0  0  2  0  0  0  0  0  0
  -28.5120  -19.0740   21.1170 C   0  0  0  0  0  2  0  0  0  0  0  0
  -29.2090  -22.1810   21.6620 C   0  0  0  0  0  2  0  0  0  0  0  0
  -30.8590  -19.7420   20.4460 C   0  0  0  0  0  2  0  0  0  0  0  0
  -30.1860  -23.3740   21.5350 C   0  0  0  0  0  3  0  0  0  0  0  0
  -30.3090  -20.9820   19.7040 C   0  0  0  0  0  3  0  0  0  0  0  0
  -28.9710  -21.4600   20.3140 C   0  0  0  0  0  3  0  0  0  0  0  0
  -29.8210  -18.5980   20.4620 C   0  0  0  0  0  3  0  0  0  0  0  0
  -32.6250  -23.1900   21.3880 N   0  0  0  0  0  0  0  0  0  0  0  0
  -33.3870  -22.8170   20.8300 H   0  0  0  0  0  0  0  0  0  0  0  0
  -29.5110  -24.5570   20.8010 C   0  0  0  0  0  2  0  0  0  0  0  0
  -30.4140  -25.7430   20.4150 C   0  0  0  0  0  2  0  0  0  0  0  0
  -29.5870  -27.0170   20.2130 C   0  0  0  0  0  2  0  0  0  0  0  0
  -28.4960  -26.7230   19.3430 O   0  0  0  0  0  0  0  0  0  0  0  0
  -24.6720  -31.5590   22.9460 C   0  0  0  0  0  0  0  0  0  0  0  0
  -27.3370  -27.4530   19.4850 C   0  0  0  0  0  0  0  0  0  0  0  0
  -23.4420  -30.2490   21.2400 C   0  0  0  0  0  3  0  0  0  0  0  0
  -24.8860  -28.8500   19.6720 C   0  0  0  0  0  0  0  0  0  0  0  0
  -25.9430  -30.6970   20.9900 C   0  0  0  0  0  2  0  0  0  0  0  0
  -26.0400  -29.3760   20.2590 C   0  0  0  0  0  0  0  0  0  0  0  0
  -27.2650  -28.6900   20.1660 C   0  0  0  0  0  3  0  0  0  0  0  0
  -26.1650  -26.9310   18.8990 C   0  0  0  0  0  3  0  0  0  0  0  0
  -24.9390  -27.6210   18.9890 C   0  0  0  0  0  3  0  0  0  0  0  0
  -23.6210  -29.6670   19.8120 C   0  0  0  0  0  2  0  0  0  0  0  0
  -24.7050  -30.8450   21.7850 N   0  0  0  0  0  0  0  0  0  0  0  0
  -23.6040  -31.7680   23.5370 O   0  0  0  0  0  0  0  0  0  0  0  0
  -22.8430  -29.1500   22.1460 C   0  0  0  0  0  0  0  0  0  0  0  0
  -21.5160  -28.9660   22.0610 N   0  0  0  0  0  0  0  0  0  0  0  0
  -23.5670  -28.4690   22.8770 O   0  0  0  0  0  0  0  0  0  0  0  0
  -20.9960  -29.5710   21.4410 H   0  0  0  0  0  0  0  0  0  0  0  0
  -18.1680  -27.7310   22.6190 C   0  0  0  0  0  0  0  0  0  0  0  0
  -20.7370  -27.9650   22.7860 C   0  0  0  0  0  3  0  0  0  0  0  0
  -20.8060  -26.5890   22.0830 C   0  0  0  0  0  2  0  0  0  0  0  0
  -19.6540  -26.3550   21.1010 C   0  0  0  0  0  2  0  0  0  0  0  0
  -18.3070  -26.4440   21.8230 C   0  0  0  0  0  2  0  0  0  0  0  0
  -19.3100  -28.4530   23.0580 C   0  0  0  0  0  0  0  0  0  0  0  0
  -19.1250  -29.6620   23.7630 C   0  0  0  0  0  3  0  0  0  0  0  0
  -17.8320  -30.1460   24.0340 C   0  0  0  0  0  3  0  0  0  0  0  0
  -16.7060  -29.4190   23.6120 C   0  0  0  0  0  3  0  0  0  0  0  0
  -16.8750  -28.2120   22.9110 C   0  0  0  0  0  3  0  0  0  0  0  0
  -25.9670  -32.1690   23.5710 C   0  0  0  0  0  3  0  0  0  0  0  0
  -25.6450  -33.5310   24.0120 N   0  0  0  0  0  0  0  0  0  0  0  0
  -25.9480  -34.6420   23.3260 C   0  0  0  0  0  0  0  0  0  0  0  0
  -26.5990  -34.6260   22.2780 O   0  0  0  0  0  0  0  0  0  0  0  0
  -25.0640  -33.6160   24.8320 H   0  0  0  0  0  0  0  0  0  0  0  0
  -24.1820  -36.4220   23.1380 C   0  0  0  0  0  1  0  0  0  0  0  0
  -25.4470  -35.9840   23.8940 C   0  0  0  0  0  3  0  0  0  0  0  0
  -27.5840  -36.8430   24.7440 C   0  0  0  0  0  1  0  0  0  0  0  0
  -26.4600  -37.0600   23.8370 N   0  0  0  0  0  0  0  0  0  0  0  0
  -26.0430  -37.9600   24.0590 H   0  0  0  0  0  0  0  0  0  0  0  0
  -26.5430  -31.3140   24.7660 C   0  0  1  0  0  0  0  0  0  0  0  0
  -25.4920  -30.9750   25.8490 C   0  0  0  0  0  1  0  0  0  0  0  0
  -27.1340  -29.9820   24.2470 C   0  0  0  0  0  1  0  0  0  0  0  0
  -27.7030  -32.0790   25.4450 C   0  0  0  0  0  1  0  0  0  0  0  0
  -30.3230  -17.3090   21.1350 C   0  0  0  0  0  2  0  0  0  0  0  0
  -31.1150  -16.3890   20.1900 C   0  0  0  0  0  2  0  0  0  0  0  0
  -31.2530  -13.9980   19.6400 C   0  0  0  0  0  0  0  0  0  0  0  0
  -30.7510  -11.7920   18.6760 C   0  0  0  0  0  2  0  0  0  0  0  0
  -29.7260  -11.9410   17.5340 C   0  0  0  0  0  2  0  0  0  0  0  0
  -28.2850  -11.9190   18.0800 C   0  0  0  0  0  2  0  0  0  0  0  0
  -28.0870  -12.8830   19.2790 C   0  0  0  0  0  3  0  0  0  0  0  0
  -29.2080  -12.6890   20.3260 C   0  0  0  0  0  2  0  0  0  0  0  0
  -30.5090  -12.8630   19.6500 N   0  0  0  0  0  0  0  0  0  0  0  0
  -32.2550  -14.1580   18.9350 O   0  0  0  0  0  0  0  0  0  0  0  0
  -30.7730  -14.9900   20.3930 N   0  0  0  0  0  0  0  0  0  0  0  0
  -29.9670  -14.7780   20.9620 H   0  0  0  0  0  0  0  0  0  0  0  0
  -25.8180  -13.6890   20.2000 C   0  0  0  0  0  0  0  0  0  0  0  0
  -24.7260  -13.0070   20.6670 C   0  0  0  0  0  0  0  0  0  0  0  0
  -25.0630  -11.6210   20.5850 C   0  0  0  0  0  0  0  0  0  0  0  0
  -26.7600  -12.7250   19.8730 N   0  0  0  0  0  0  0  0  0  0  0  0
  -26.3100  -11.4740   20.1560 N   0  0  0  0  0  0  0  0  0  0  0  0
  -24.2510  -10.4230   20.8370 C   0  0  0  0  0  0  0  0  0  0  0  0
  -24.6450   -9.4500   21.7810 C   0  0  0  0  0  3  0  0  0  0  0  0
  -23.8420   -8.3140   22.0180 C   0  0  0  0  0  3  0  0  0  0  0  0
  -22.6280   -8.1460   21.3110 C   0  0  0  0  0  0  0  0  0  0  0  0
  -22.2490   -9.1070   20.3570 C   0  0  0  0  0  3  0  0  0  0  0  0
  -23.0530  -10.2330   20.1190 C   0  0  0  0  0  3  0  0  0  0  0  0
  -21.7940   -7.0620   21.4570 O   0  0  0  0  0  0  0  0  0  0  0  0
  -21.6850   -6.3940   22.6500 C   0  0  0  0  0  0  0  0  0  0  0  0
  -21.2980   -7.0510   23.8390 C   0  0  0  0  0  3  0  0  0  0  0  0
  -21.1290   -6.3140   25.0280 C   0  0  0  0  0  3  0  0  0  0  0  0
  -21.3400   -4.9220   25.0290 C   0  0  0  0  0  0  0  0  0  0  0  0
  -21.7230   -4.2660   23.8460 C   0  0  0  0  0  3  0  0  0  0  0  0
  -21.8900   -5.0000   22.6590 C   0  0  0  0  0  0  0  0  0  0  0  0
  -22.2370   -4.3600   21.5170 F   0  0  0  0  0  0  0  0  0  0  0  0
  -21.1710   -4.2120   26.1700 F   0  0  0  0  0  0  0  0  0  0  0  0
  -23.4070  -13.5980   21.0710 C   0  0  0  0  0  0  0  0  0  0  0  0
  -22.7170  -12.9690   22.0170 N   0  0  0  0  0  0  0  0  0  0  0  0
  -23.0020  -14.6520   20.5850 O   0  0  0  0  0  0  0  0  0  0  0  0
  -23.0570  -12.1120   22.4280 H   0  0  0  0  0  0  0  0  0  0  0  0
  -21.8360  -13.3480   22.3320 H   0  0  0  0  0  0  0  0  0  0  0  0
  -26.0830  -15.0400   20.0050 N   0  0  0  0  0  0  0  0  0  0  0  0
  -25.3770  -15.7540   20.1450 H   0  0  0  0  0  0  0  0  0  0  0  0
  -26.9180  -15.3910   19.5530 H   0  0  0  0  0  0  0  0  0  0  0  0
  1 11  2  0
  1  7  1  0
  2  1  1  0
  3  4  1  0
  6 10  1  0
  7 13  1  0
  7  5  1  0
  8  2  1  0
  8  9  1  0
  8  6  1  0
  9  3  1  0
  9  5  1  0
 10  4  1  0
 10 57  1  0
 12 11  1  0
 14 13  1  0
 15 14  1  0
 16 18  1  0
 16 15  1  0
 17 28  2  0
 18 23  1  0
 19 27  1  0
 19 29  1  0
 20 26  1  0
 20 22  1  0
 21 27  1  0
 22 21  1  0
 23 22  2  0
 24 25  1  0
 24 18  2  0
 25 20  2  0
 26 19  1  0
 27 17  1  0
 29 31  2  0
 30 29  1  0
 32 30  1  0
 33 42  2  0
 33 38  1  0
 34 30  1  0
 34 38  1  0
 35 34  1  0
 36 37  1  0
 36 35  1  0
 37 33  1  0
 38 39  2  0
 39 40  1  0
 41 40  2  0
 42 41  1  0
 43 17  1  0
 43 44  1  0
 43 53  1  0
 44 47  1  0
 45 49  1  0
 45 44  1  0
 46 45  2  0
 49 48  1  0
 51 49  1  0
 51 52  1  0
 51 50  1  0
 53 56  1  1
 53 54  1  0
 55 53  1  0
 58 67  1  0
 58 57  1  0
 59 65  1  0
 59 67  1  0
 60 65  1  0
 61 62  1  0
 61 60  1  0
 63 62  1  0
 63 72  1  0
 63 64  1  0
 65 64  1  0
 66 59  2  0
 67 68  1  0
 69 70  2  0
 70 89  1  0
 71 70  1  0
 71 74  1  0
 72 73  1  0
 72 69  1  0
 73 71  2  0
 74 75  1  0
 75 76  2  0
 77 80  1  0
 77 76  1  0
 78 77  2  0
 79 78  1  0
 79 74  2  0
 80 81  1  0
 81 86  2  0
 81 82  1  0
 82 83  2  0
 83 84  1  0
 84 88  1  0
 85 84  2  0
 86 85  1  0
 87 86  1  0
 89 90  1  0
 90 93  1  0
 90 92  1  0
 91 89  2  0
 94 95  1  0
 94 69  1  0
 96 94  1  0
M  ISO  4  15 101  16 101  59 100  67 100
M  END
>  <TORSDO>  (93) 
F 21

>  <SCORE>  (93) 
-10.983

>  <name>  (93) 
94

>  <ligand_id>  (93) 
94

>  <original_smiles>  (93) 
[H]N=C1C([H])([H])C2([H])C([H])([H])C([H])(C([H])([H])C([H])([H])N([H])C(=O)N3C([H])([H])C([H])([H])C([H])([H])C([H])(n4nc(-c5c([H])c([H])c(Oc6c([H])c([H])c(F)c([H])c6F)c([H])c5[H])c(C(=O)N([H])[H])c4N([H])[H])C3([H])[H])C([H])([H])C([H])([H])C2([H])C([H])([H])C1([H])C([H])([H])C([H])([H])C([H])([H])Oc1c([H])c([H])c2c(c1[H])C([H])([H])N(C(=O)C([H])(N([H])C(=O)C([H])(N([H])C([H])([H])[H])C([H])([H])[H])C(C([H])([H])[H])(C([H])([H])[H])C([H])([H])[H])C([H])(C(=O)N([H])C1([H])c3c([H])c([H])c([H])c([H])c3C([H])([H])C([H])([H])C1([H])[H])C2([H])[H]

>  <smiles>  (93) 
[H]N=C1C([H])([H])C2([H])C([H])([H])C([H])(C([H])([H])C([H])([H])N([H])C(=O)N3C([H])([H])C([H])([H])C([H])([H])C([H])(n4nc(-c5c([H])c([H])c(Oc6c([H])c([H])c(F)c([H])c6F)c([H])c5[H])c(C(=O)N([H])[H])c4N([H])[H])C3([H])[H])C([H])([H])C([H])([H])C2([H])C([H])([H])C1([H])C([H])([H])C([H])([H])C([H])([H])Oc1c([H])c([H])c2c(c1[H])C([H])([H])N(C(=O)C([H])(N([H])C(=O)C([H])(N([H])C([H])([H])[H])C([H])([H])[H])C(C([H])([H])[H])(C([H])([H])[H])C([H])([H])[H])C([H])(C(=O)N([H])C1([H])c3c([H])c([H])c([H])c([H])c3C([H])([H])C([H])([H])C1([H])[H])C2([H])[H]

$$$$
95:0:0
     RDKit          3D

105112  0  0  1  0  0  0  0  0999 V2000
  -28.5040  -17.9270   19.1610 C   0  0  0  0  0  3  0  0  0  0  0  0
  -28.5040  -16.7890   18.2140 N   0  0  0  0  0  4  0  0  0  0  0  0
  -27.8130  -16.0990   18.4450 H   0  0  0  0  0  0  0  0  0  0  0  0
  -29.4090  -16.3530   18.1610 H   0  0  0  0  0  0  0  0  0  0  0  0
  -28.2900  -17.1200   17.2880 H   0  0  0  0  0  0  0  0  0  0  0  0
  -28.8660  -17.5470   20.6250 C   0  0  0  0  0  2  0  0  0  0  0  0
  -30.2280  -16.8330   20.8390 C   0  0  0  0  0  3  0  0  0  0  0  0
  -30.7090  -14.4050   20.5170 C   0  0  0  0  0  0  0  0  0  0  0  0
  -30.4040  -12.2710   19.3470 C   0  0  0  0  0  2  0  0  0  0  0  0
  -29.4820  -12.5090   18.1340 C   0  0  0  0  0  2  0  0  0  0  0  0
  -27.9970  -12.3920   18.5410 C   0  0  0  0  0  2  0  0  0  0  0  0
  -27.6530  -13.2250   19.8070 C   0  0  0  0  0  3  0  0  0  0  0  0
  -28.6870  -12.9620   20.9270 C   0  0  0  0  0  2  0  0  0  0  0  0
  -30.0310  -13.2380   20.3850 N   0  0  0  0  0  0  0  0  0  0  0  0
  -31.8240  -14.6200   20.0370 O   0  0  0  0  0  0  0  0  0  0  0  0
  -29.9690  -15.4040   21.0120 N   0  0  0  0  0  0  0  0  0  0  0  0
  -29.0900  -15.1340   21.4250 H   0  0  0  0  0  0  0  0  0  0  0  0
  -25.2380  -13.8680   20.4410 C   0  0  0  0  0  0  0  0  0  0  0  0
  -24.1560  -13.1100   20.7970 C   0  0  0  0  0  0  0  0  0  0  0  0
  -24.6100  -11.7560   20.8040 C   0  0  0  0  0  0  0  0  0  0  0  0
  -26.2850  -12.9760   20.2600 N   0  0  0  0  0  0  0  0  0  0  0  0
  -25.9070  -11.7020   20.5310 N   0  0  0  0  0  0  0  0  0  0  0  0
  -23.8740  -10.5020   21.0060 C   0  0  0  0  0  0  0  0  0  0  0  0
  -24.3000   -9.5410   21.9500 C   0  0  0  0  0  3  0  0  0  0  0  0
  -23.5670   -8.3500   22.1380 C   0  0  0  0  0  3  0  0  0  0  0  0
  -22.3950   -8.1120   21.3820 C   0  0  0  0  0  0  0  0  0  0  0  0
  -21.9870   -9.0610   20.4290 C   0  0  0  0  0  3  0  0  0  0  0  0
  -22.7210  -10.2440   20.2390 C   0  0  0  0  0  3  0  0  0  0  0  0
  -21.6340   -6.9730   21.4780 O   0  0  0  0  0  0  0  0  0  0  0  0
  -21.5910   -6.2310   22.6300 C   0  0  0  0  0  0  0  0  0  0  0  0
  -21.2000   -6.7920   23.8650 C   0  0  0  0  0  3  0  0  0  0  0  0
  -21.1040   -5.9790   25.0100 C   0  0  0  0  0  3  0  0  0  0  0  0
  -21.3900   -4.6030   24.9230 C   0  0  0  0  0  0  0  0  0  0  0  0
  -21.7740   -4.0390   23.6930 C   0  0  0  0  0  3  0  0  0  0  0  0
  -21.8720   -4.8520   22.5490 C   0  0  0  0  0  0  0  0  0  0  0  0
  -22.2230   -4.3010   21.3630 F   0  0  0  0  0  0  0  0  0  0  0  0
  -21.2880   -3.8190   26.0210 F   0  0  0  0  0  0  0  0  0  0  0  0
  -22.7560  -13.6010   21.0320 C   0  0  0  0  0  0  0  0  0  0  0  0
  -22.0080  -12.9280   21.9000 N   0  0  0  0  0  0  0  0  0  0  0  0
  -22.3320  -14.6170   20.4830 O   0  0  0  0  0  0  0  0  0  0  0  0
  -22.3640  -12.1080   22.3700 H   0  0  0  0  0  0  0  0  0  0  0  0
  -21.0700  -13.2410   22.1010 H   0  0  0  0  0  0  0  0  0  0  0  0
  -25.4130  -15.2370   20.2480 N   0  0  0  0  0  0  0  0  0  0  0  0
  -24.6430  -15.8860   20.3690 H   0  0  0  0  0  0  0  0  0  0  0  0
  -26.3070  -15.6940   20.1720 H   0  0  0  0  0  0  0  0  0  0  0  0
  -31.0400  -17.3560   22.0490 C   0  0  0  0  0  2  0  0  0  0  0  0
  -31.6410  -18.7680   21.8700 C   0  0  0  0  0  2  0  0  0  0  0  0
  -32.5500  -18.8740   20.6690 C   0  0  0  0  0  0  0  0  0  0  0  0
  -33.1650  -17.7970   20.1560 N   0  0  0  0  0  0  0  0  0  0  0  0
  -32.7550  -20.0790   20.1180 N   0  0  0  0  0  4  0  0  0  0  0  0
  -33.0090  -16.8750   20.5440 H   0  0  0  0  0  0  0  0  0  0  0  0
  -33.7880  -17.8360   19.3620 H   0  0  0  0  0  0  0  0  0  0  0  0
  -32.3370  -20.9080   20.5210 H   0  0  0  0  0  0  0  0  0  0  0  0
  -33.3570  -20.2320   19.3200 H   0  0  0  0  0  0  0  0  0  0  0  0
  -27.1330  -18.6480   19.1340 C   0  0  0  0  0  2  0  0  0  0  0  0
  -26.9180  -19.6230   17.9570 C   0  0  0  0  0  2  0  0  0  0  0  0
  -27.9710  -20.7450   17.8290 C   0  0  0  0  0  2  0  0  0  0  0  0
  -28.3380  -21.4480   19.1520 C   0  0  0  0  0  2  0  0  0  0  0  0
  -27.2020  -22.2210   19.6930 N   0  0  0  0  0  4  0  0  0  0  0  0
  -27.2110  -22.1950   20.7010 H   0  0  0  0  0  0  0  0  0  0  0  0
  -26.3450  -21.7850   19.3930 H   0  0  0  0  0  0  0  0  0  0  0  0
  -27.1950  -23.6250   19.2530 C   0  0  0  0  0  2  0  0  0  0  0  0
  -28.1620  -24.4920   20.0820 C   0  0  0  0  0  2  0  0  0  0  0  0
  -28.6090  -25.7660   19.3490 C   0  0  0  0  0  2  0  0  0  0  0  0
  -28.4580  -26.8960   20.1960 O   0  0  0  0  0  0  0  0  0  0  0  0
  -24.6000  -31.9820   23.2860 C   0  0  0  0  0  0  0  0  0  0  0  0
  -27.2440  -27.5460   20.2160 C   0  0  0  0  0  0  0  0  0  0  0  0
  -23.3890  -30.5730   21.6540 C   0  0  0  0  0  3  0  0  0  0  0  0
  -24.8370  -29.0270   20.2460 C   0  0  0  0  0  0  0  0  0  0  0  0
  -25.9140  -30.9270   21.4550 C   0  0  0  0  0  2  0  0  0  0  0  0
  -25.9930  -29.5530   20.8340 C   0  0  0  0  0  0  0  0  0  0  0  0
  -27.1930  -28.8140   20.8310 C   0  0  0  0  0  3  0  0  0  0  0  0
  -26.0630  -27.0250   19.6360 C   0  0  0  0  0  3  0  0  0  0  0  0
  -24.8630  -27.7550   19.6560 C   0  0  0  0  0  3  0  0  0  0  0  0
  -23.5970  -29.8870   20.2790 C   0  0  0  0  0  2  0  0  0  0  0  0
  -24.6510  -31.1750   22.1910 N   0  0  0  0  0  0  0  0  0  0  0  0
  -23.5190  -32.2640   23.8240 O   0  0  0  0  0  0  0  0  0  0  0  0
  -22.7360  -29.5560   22.6190 C   0  0  0  0  0  0  0  0  0  0  0  0
  -21.4130  -29.3750   22.4860 N   0  0  0  0  0  0  0  0  0  0  0  0
  -23.4170  -28.9360   23.4390 O   0  0  0  0  0  0  0  0  0  0  0  0
  -20.9270  -29.9260   21.7920 H   0  0  0  0  0  0  0  0  0  0  0  0
  -18.0360  -28.1920   22.9640 C   0  0  0  0  0  0  0  0  0  0  0  0
  -20.5890  -28.4480   23.2610 C   0  0  0  0  0  3  0  0  0  0  0  0
  -20.6980  -27.0110   22.7020 C   0  0  0  0  0  2  0  0  0  0  0  0
  -19.6060  -26.6770   21.6810 C   0  0  0  0  0  2  0  0  0  0  0  0
  -18.2180  -26.8320   22.3070 C   0  0  0  0  0  2  0  0  0  0  0  0
  -19.1500  -28.9560   23.3960 C   0  0  0  0  0  0  0  0  0  0  0  0
  -18.9280  -30.2280   23.9670 C   0  0  0  0  0  3  0  0  0  0  0  0
  -17.6240  -30.7340   24.1130 C   0  0  0  0  0  3  0  0  0  0  0  0
  -16.5220  -29.9660   23.7000 C   0  0  0  0  0  3  0  0  0  0  0  0
  -16.7290  -28.6960   23.1300 C   0  0  0  0  0  3  0  0  0  0  0  0
  -25.8890  -32.6120   23.8980 C   0  0  0  0  0  3  0  0  0  0  0  0
  -25.5860  -34.0110   24.2200 N   0  0  0  0  0  0  0  0  0  0  0  0
  -25.9170  -35.0580   23.4520 C   0  0  0  0  0  0  0  0  0  0  0  0
  -26.5860  -34.9470   22.4200 O   0  0  0  0  0  0  0  0  0  0  0  0
  -24.9940  -34.1730   25.0230 H   0  0  0  0  0  0  0  0  0  0  0  0
  -24.1870  -36.8460   23.0920 C   0  0  0  0  0  1  0  0  0  0  0  0
  -25.4300  -36.4490   23.9020 C   0  0  0  0  0  3  0  0  0  0  0  0
  -27.5710  -37.3370   24.7140 C   0  0  0  0  0  1  0  0  0  0  0  0
  -26.4630  -37.5000   23.7770 N   0  0  0  0  0  0  0  0  0  0  0  0
  -26.0580  -38.4220   23.9220 H   0  0  0  0  0  0  0  0  0  0  0  0
  -26.4080  -31.8430   25.1740 C   0  0  1  0  0  0  0  0  0  0  0  0
  -25.3180  -31.6070   26.2450 C   0  0  0  0  0  1  0  0  0  0  0  0
  -26.9880  -30.4650   24.7800 C   0  0  0  0  0  1  0  0  0  0  0  0
  -27.5620  -32.6360   25.8300 C   0  0  0  0  0  1  0  0  0  0  0  0
  1 55  1  0
  1  6  1  0
  2  3  1  0
  2  1  1  0
  4  2  1  0
  5  2  1  0
  7  6  1  0
  7 16  1  0
  7 46  1  0
  8 16  1  0
  9 14  1  0
 10 11  1  0
 10  9  1  0
 12 11  1  0
 12 21  1  0
 12 13  1  0
 14  8  1  0
 14 13  1  0
 15  8  2  0
 16 17  1  0
 18 19  2  0
 19 20  1  0
 19 38  1  0
 20 23  1  0
 21 18  1  0
 21 22  1  0
 22 20  2  0
 23 24  1  0
 24 25  2  0
 26 29  1  0
 26 25  1  0
 27 26  2  0
 28 27  1  0
 28 23  2  0
 29 30  1  0
 30 31  1  0
 31 32  2  0
 33 32  1  0
 33 37  1  0
 34 33  2  0
 35 30  2  0
 35 34  1  0
 36 35  1  0
 38 39  1  0
 39 42  1  0
 39 41  1  0
 40 38  2  0
 43 44  1  0
 43 18  1  0
 45 43  1  0
 47 46  1  0
 48 47  1  0
 49 51  1  0
 49 48  1  0
 50 53  1  0
 50 48  2  0
 52 49  1  0
 54 50  1  0
 56 55  1  0
 57 56  1  0
 57 58  1  0
 58 59  1  0
 59 60  1  0
 61 59  1  0
 62 59  1  0
 62 63  1  0
 64 63  1  0
 64 65  1  0
 65 67  1  0
 66 77  2  0
 67 72  1  0
 68 76  1  0
 68 78  1  0
 69 75  1  0
 69 71  1  0
 70 76  1  0
 71 70  1  0
 72 71  2  0
 73 74  1  0
 73 67  2  0
 74 69  2  0
 75 68  1  0
 76 66  1  0
 78 80  2  0
 79 78  1  0
 81 79  1  0
 82 91  2  0
 82 87  1  0
 83 79  1  0
 83 87  1  0
 84 83  1  0
 85 86  1  0
 85 84  1  0
 86 82  1  0
 87 88  2  0
 88 89  1  0
 90 89  2  0
 91 90  1  0
 92 66  1  0
 92 93  1  0
 92102  1  0
 93 96  1  0
 94 98  1  0
 94 93  1  0
 95 94  2  0
 98 97  1  0
100 98  1  0
100101  1  0
100 99  1  0
102105  1  1
102103  1  0
104102  1  0
M  ISO  4   8 100  16 100  64 101  65 101
M  END
>  <TORSDO>  (94) 
F 30

>  <SCORE>  (94) 
-11.233

>  <name>  (94) 
95

>  <ligand_id>  (94) 
95

>  <original_smiles>  (94) 
[H]c1c([H])c([H])c2c(c1[H])C([H])([H])C([H])([H])C([H])([H])C2([H])N([H])C(=O)C1([H])N(C(=O)C([H])(N([H])C(=O)C([H])(N([H])C([H])([H])[H])C([H])([H])[H])C(C([H])([H])[H])(C([H])([H])[H])C([H])([H])[H])C([H])([H])c2c([H])c(OC([H])([H])C([H])([H])C([H])([H])[N+]([H])([H])C([H])([H])C([H])([H])C([H])([H])C([H])([H])C([H])(C([H])([H])C([H])(N([H])C(=O)N3C([H])([H])C([H])([H])C([H])([H])C([H])(n4nc(-c5c([H])c([H])c(Oc6c([H])c([H])c(F)c([H])c6F)c([H])c5[H])c(C(=O)N([H])[H])c4N([H])[H])C3([H])[H])C([H])([H])C([H])([H])C(N([H])[H])=[N+]([H])[H])[N+]([H])([H])[H])c([H])c([H])c2C1([H])[H]

>  <smiles>  (94) 
[H]c1c([H])c([H])c2c(c1[H])C([H])([H])C([H])([H])C([H])([H])C2([H])N([H])C(=O)C1([H])N(C(=O)C([H])(N([H])C(=O)C([H])(N([H])C([H])([H])[H])C([H])([H])[H])C(C([H])([H])[H])(C([H])([H])[H])C([H])([H])[H])C([H])([H])c2c([H])c(OC([H])([H])C([H])([H])C([H])([H])[N+]([H])([H])C([H])([H])C([H])([H])C([H])([H])C([H])([H])C([H])(C([H])([H])C([H])(N([H])C(=O)N3C([H])([H])C([H])([H])C([H])([H])C([H])(n4nc(-c5c([H])c([H])c(Oc6c([H])c([H])c(F)c([H])c6F)c([H])c5[H])c(C(=O)N([H])[H])c4N([H])[H])C3([H])[H])C([H])([H])C([H])([H])C(N([H])[H])=[N+]([H])[H])[N+]([H])([H])[H])c([H])c([H])c2C1([H])[H]

$$$$
96:0:0
     RDKit          3D

101110  0  0  1  0  0  0  0  0999 V2000
  -30.9160  -20.2080   18.2250 C   0  0  0  0  0  3  0  0  0  0  0  0
  -31.4990  -19.3410   16.0520 C   0  0  0  0  0  3  0  0  0  0  0  0
  -32.6510  -21.3550   16.8650 C   0  0  0  0  0  0  0  0  0  0  0  0
  -31.8540  -21.2600   18.0500 C   0  0  0  0  0  0  0  0  0  0  0  0
  -30.7590  -19.2140   17.2370 C   0  0  0  0  0  0  0  0  0  0  0  0
  -32.4510  -20.3620   15.8640 C   0  0  0  0  0  0  0  0  0  0  0  0
  -33.6350  -22.5050   16.7020 C   0  0  0  0  0  0  0  0  0  0  0  0
  -32.0150  -22.2920   19.1590 C   0  0  0  0  0  2  0  0  0  0  0  0
  -33.7940  -23.4560   17.8820 C   0  0  0  0  0  2  0  0  0  0  0  0
  -32.4520  -23.6530   18.5880 C   0  0  0  0  0  3  0  0  0  0  0  0
  -34.2930  -22.7630   15.6910 O   0  0  0  0  0  0  0  0  0  0  0  0
  -29.8100  -18.0150   17.3340 C   0  0  0  0  0  2  0  0  0  0  0  0
  -29.1990  -17.6210   18.7060 C   0  0  0  0  0  2  0  0  0  0  0  0
  -30.1920  -17.0360   19.7470 C   0  0  0  0  0  2  0  0  0  0  0  0
  -30.6270  -14.6260   20.3350 C   0  0  0  0  0  0  0  0  0  0  0  0
  -30.3680  -12.4290   19.3030 C   0  0  0  0  0  2  0  0  0  0  0  0
  -29.4230  -12.6330   18.1030 C   0  0  0  0  0  2  0  0  0  0  0  0
  -27.9470  -12.4990   18.5400 C   0  0  0  0  0  2  0  0  0  0  0  0
  -27.6060  -13.3390   19.8040 C   0  0  0  0  0  3  0  0  0  0  0  0
  -28.6790  -13.1300   20.8990 C   0  0  0  0  0  2  0  0  0  0  0  0
  -29.9900  -13.4280   20.3070 N   0  0  0  0  0  0  0  0  0  0  0  0
  -31.8310  -14.7510   20.1030 O   0  0  0  0  0  0  0  0  0  0  0  0
  -29.8110  -15.6980   20.2690 N   0  0  0  0  0  0  0  0  0  0  0  0
  -28.8290  -15.5250   20.4240 H   0  0  0  0  0  0  0  0  0  0  0  0
  -25.2080  -13.9170   20.5460 C   0  0  0  0  0  0  0  0  0  0  0  0
  -24.1500  -13.1300   20.9110 C   0  0  0  0  0  0  0  0  0  0  0  0
  -24.6220  -11.7820   20.8580 C   0  0  0  0  0  0  0  0  0  0  0  0
  -26.2590  -13.0450   20.2960 N   0  0  0  0  0  0  0  0  0  0  0  0
  -25.9100  -11.7570   20.5500 N   0  0  0  0  0  0  0  0  0  0  0  0
  -23.9050  -10.5100   21.0320 C   0  0  0  0  0  0  0  0  0  0  0  0
  -24.3210   -9.5620   21.9880 C   0  0  0  0  0  3  0  0  0  0  0  0
  -23.6120   -8.3520   22.1580 C   0  0  0  0  0  3  0  0  0  0  0  0
  -22.4700   -8.0870   21.3670 C   0  0  0  0  0  0  0  0  0  0  0  0
  -22.0670   -9.0260   20.4010 C   0  0  0  0  0  3  0  0  0  0  0  0
  -22.7780  -10.2250   20.2330 C   0  0  0  0  0  3  0  0  0  0  0  0
  -21.7340   -6.9310   21.4410 O   0  0  0  0  0  0  0  0  0  0  0  0
  -21.6340   -6.2160   22.6050 C   0  0  0  0  0  0  0  0  0  0  0  0
  -21.0820   -6.7730   23.7780 C   0  0  0  0  0  3  0  0  0  0  0  0
  -20.9390   -5.9820   24.9350 C   0  0  0  0  0  3  0  0  0  0  0  0
  -21.3280   -4.6280   24.9150 C   0  0  0  0  0  0  0  0  0  0  0  0
  -21.8700   -4.0690   23.7460 C   0  0  0  0  0  3  0  0  0  0  0  0
  -22.0180   -4.8600   22.5920 C   0  0  0  0  0  0  0  0  0  0  0  0
  -22.5220   -4.3100   21.4600 F   0  0  0  0  0  0  0  0  0  0  0  0
  -21.1810   -3.8650   26.0220 F   0  0  0  0  0  0  0  0  0  0  0  0
  -22.7490  -13.5850   21.1920 C   0  0  0  0  0  0  0  0  0  0  0  0
  -22.0250  -12.8600   22.0390 N   0  0  0  0  0  0  0  0  0  0  0  0
  -22.3010  -14.6190   20.6970 O   0  0  0  0  0  0  0  0  0  0  0  0
  -22.3980  -12.0160   22.4470 H   0  0  0  0  0  0  0  0  0  0  0  0
  -21.0930  -13.1560   22.2850 H   0  0  0  0  0  0  0  0  0  0  0  0
  -25.3610  -15.2880   20.3810 N   0  0  0  0  0  0  0  0  0  0  0  0
  -24.5880  -15.9360   20.5080 H   0  0  0  0  0  0  0  0  0  0  0  0
  -26.1950  -15.7370   20.0190 H   0  0  0  0  0  0  0  0  0  0  0  0
  -32.4450  -24.7890   19.6240 C   0  0  0  0  0  2  0  0  0  0  0  0
  -31.0540  -25.4560   19.6930 C   0  0  0  0  0  2  0  0  0  0  0  0
  -30.8660  -26.3710   20.9110 C   0  0  0  0  0  2  0  0  0  0  0  0
  -29.6730  -27.3380   20.8150 C   0  0  0  0  0  2  0  0  0  0  0  0
  -28.4830  -26.7180   20.3190 O   0  0  0  0  0  0  0  0  0  0  0  0
  -24.6020  -31.9220   23.2670 C   0  0  0  0  0  0  0  0  0  0  0  0
  -27.3250  -27.4740   20.3200 C   0  0  0  0  0  0  0  0  0  0  0  0
  -23.4100  -30.4840   21.6360 C   0  0  0  0  0  3  0  0  0  0  0  0
  -24.8870  -28.9180   20.2630 C   0  0  0  0  0  0  0  0  0  0  0  0
  -25.9240  -30.8690   21.4410 C   0  0  0  0  0  2  0  0  0  0  0  0
  -26.0270  -29.4850   20.8420 C   0  0  0  0  0  0  0  0  0  0  0  0
  -27.2390  -28.7770   20.8700 C   0  0  0  0  0  3  0  0  0  0  0  0
  -26.1660  -26.9110   19.7430 C   0  0  0  0  0  3  0  0  0  0  0  0
  -24.9500  -27.6240   19.7110 C   0  0  0  0  0  3  0  0  0  0  0  0
  -23.6310  -29.7610   20.2760 C   0  0  0  0  0  2  0  0  0  0  0  0
  -24.6650  -31.1040   22.1760 N   0  0  0  0  0  0  0  0  0  0  0  0
  -23.5170  -32.2020   23.7920 O   0  0  0  0  0  0  0  0  0  0  0  0
  -22.7590  -29.4830   22.6130 C   0  0  0  0  0  0  0  0  0  0  0  0
  -21.4430  -29.2700   22.4560 N   0  0  0  0  0  0  0  0  0  0  0  0
  -23.4330  -28.8970   23.4650 O   0  0  0  0  0  0  0  0  0  0  0  0
  -20.9610  -29.7910   21.7370 H   0  0  0  0  0  0  0  0  0  0  0  0
  -18.0810  -28.0380   22.9020 C   0  0  0  0  0  0  0  0  0  0  0  0
  -20.6240  -28.3420   23.2360 C   0  0  0  0  0  3  0  0  0  0  0  0
  -20.7640  -26.8960   22.7040 C   0  0  0  0  0  2  0  0  0  0  0  0
  -19.6950  -26.5280   21.6720 C   0  0  0  0  0  2  0  0  0  0  0  0
  -18.2960  -26.6730   22.2720 C   0  0  0  0  0  2  0  0  0  0  0  0
  -19.1760  -28.8290   23.3400 C   0  0  0  0  0  0  0  0  0  0  0  0
  -18.9250  -30.1070   23.8850 C   0  0  0  0  0  3  0  0  0  0  0  0
  -17.6100  -30.5960   24.0010 C   0  0  0  0  0  3  0  0  0  0  0  0
  -16.5290  -29.8010   23.5820 C   0  0  0  0  0  3  0  0  0  0  0  0
  -16.7640  -28.5250   23.0400 C   0  0  0  0  0  3  0  0  0  0  0  0
  -25.8860  -32.5660   23.8820 C   0  0  0  0  0  3  0  0  0  0  0  0
  -26.4070  -31.8130   25.1670 C   0  0  1  0  0  0  0  0  0  0  0  0
  -25.3010  -31.5330   26.2100 C   0  0  0  0  0  1  0  0  0  0  0  0
  -27.0490  -30.4580   24.7820 C   0  0  0  0  0  1  0  0  0  0  0  0
  -27.5150  -32.6460   25.8540 C   0  0  0  0  0  1  0  0  0  0  0  0
  -25.5730  -33.9670   24.1910 N   0  0  0  0  0  0  0  0  0  0  0  0
  -25.9110  -35.0100   23.4210 C   0  0  0  0  0  0  0  0  0  0  0  0
  -26.5940  -34.8950   22.3980 O   0  0  0  0  0  0  0  0  0  0  0  0
  -24.9700  -34.1320   24.9840 H   0  0  0  0  0  0  0  0  0  0  0  0
  -24.1960  -36.8000   23.0010 C   0  0  0  0  0  1  0  0  0  0  0  0
  -25.4140  -36.4030   23.8510 C   0  0  0  0  0  3  0  0  0  0  0  0
  -27.5210  -37.2970   24.7400 C   0  0  0  0  0  1  0  0  0  0  0  0
  -26.4510  -37.4530   23.7590 N   0  0  0  0  0  0  0  0  0  0  0  0
  -26.0410  -38.3750   23.8800 H   0  0  0  0  0  0  0  0  0  0  0  0
  -33.1950  -20.3010   14.5480 C   0  0  0  0  0  2  0  0  0  0  0  0
  -32.3770  -20.9150   13.4110 C   0  0  0  0  0  2  0  0  0  0  0  0
  -32.0830  -20.7450   10.8940 C   0  0  0  0  0  1  0  0  0  0  0  0
  -33.0370  -20.5860   12.0720 C   0  0  0  0  0  2  0  0  0  0  0  0
  2  5  1  0
  3  4  2  0
  4  1  1  0
  4  8  1  0
  5 12  1  0
  5  1  2  0
  6  2  2  0
  6  3  1  0
  7  3  1  0
  7  9  1  0
  9 10  1  0
 10  8  1  0
 10 53  1  0
 11  7  2  0
 12 13  1  0
 13 14  1  0
 14 23  1  0
 16 21  1  0
 17 18  1  0
 17 16  1  0
 19 18  1  0
 19 28  1  0
 19 20  1  0
 21 15  1  0
 21 20  1  0
 22 15  2  0
 23 15  1  0
 23 24  1  0
 25 26  2  0
 26 45  1  0
 27 26  1  0
 27 30  1  0
 28 25  1  0
 28 29  1  0
 29 27  2  0
 30 31  1  0
 31 32  2  0
 33 36  1  0
 33 32  1  0
 34 33  2  0
 35 34  1  0
 35 30  2  0
 36 37  1  0
 37 38  1  0
 38 39  2  0
 40 39  1  0
 40 44  1  0
 41 40  2  0
 42 37  2  0
 42 41  1  0
 43 42  1  0
 45 46  1  0
 46 49  1  0
 46 48  1  0
 47 45  2  0
 50 51  1  0
 50 25  1  0
 52 50  1  0
 53 54  1  0
 54 55  1  0
 56 55  1  0
 57 59  1  0
 57 56  1  0
 58 69  2  0
 59 64  1  0
 60 68  1  0
 60 70  1  0
 61 67  1  0
 61 63  1  0
 62 68  1  0
 63 64  2  0
 63 62  1  0
 65 59  2  0
 66 65  1  0
 66 61  2  0
 67 60  1  0
 68 58  1  0
 70 72  2  0
 71 70  1  0
 73 71  1  0
 74 83  2  0
 74 79  1  0
 75 71  1  0
 75 79  1  0
 76 75  1  0
 77 78  1  0
 77 76  1  0
 78 74  1  0
 79 80  2  0
 80 81  1  0
 82 81  2  0
 83 82  1  0
 84 58  1  0
 84 89  1  0
 84 85  1  0
 85 88  1  1
 85 86  1  0
 87 85  1  0
 89 92  1  0
 90 94  1  0
 90 89  1  0
 91 90  2  0
 94 93  1  0
 96 94  1  0
 96 97  1  0
 96 95  1  0
 98  6  1  0
 99 98  1  0
100101  1  0
101 99  1  0
M  ISO  4  15 100  23 100  56 101  57 101
M  END
>  <TORSDO>  (95) 
F 26

>  <SCORE>  (95) 
-11.762

>  <name>  (95) 
96

>  <ligand_id>  (95) 
96

>  <original_smiles>  (95) 
[H]c1c([H])c([H])c2c(c1[H])C([H])([H])C([H])([H])C([H])([H])C2([H])N([H])C(=O)C1([H])N(C(=O)C([H])(N([H])C(=O)C([H])(N([H])C([H])([H])[H])C([H])([H])[H])C(C([H])([H])[H])(C([H])([H])[H])C([H])([H])[H])C([H])([H])c2c([H])c(OC([H])([H])C([H])([H])C([H])([H])C([H])([H])C3([H])C([H])([H])C(=O)c4c(C([H])([H])C([H])([H])C([H])([H])C([H])([H])[H])c([H])c(C([H])([H])C([H])([H])C([H])([H])N([H])C(=O)N5C([H])([H])C([H])([H])C([H])([H])C([H])(n6nc(-c7c([H])c([H])c(Oc8c([H])c([H])c(F)c([H])c8F)c([H])c7[H])c(C(=O)N([H])[H])c6N([H])[H])C5([H])[H])c([H])c4C3([H])[H])c([H])c([H])c2C1([H])[H]

>  <smiles>  (95) 
[H]c1c([H])c([H])c2c(c1[H])C([H])([H])C([H])([H])C([H])([H])C2([H])N([H])C(=O)C1([H])N(C(=O)C([H])(N([H])C(=O)C([H])(N([H])C([H])([H])[H])C([H])([H])[H])C(C([H])([H])[H])(C([H])([H])[H])C([H])([H])[H])C([H])([H])c2c([H])c(OC([H])([H])C([H])([H])C([H])([H])C([H])([H])C3([H])C([H])([H])C(=O)c4c(C([H])([H])C([H])([H])C([H])([H])C([H])([H])[H])c([H])c(C([H])([H])C([H])([H])C([H])([H])N([H])C(=O)N5C([H])([H])C([H])([H])C([H])([H])C([H])(n6nc(-c7c([H])c([H])c(Oc8c([H])c([H])c(F)c([H])c8F)c([H])c7[H])c(C(=O)N([H])[H])c6N([H])[H])C5([H])[H])c([H])c4C3([H])[H])c([H])c([H])c2C1([H])[H]

$$$$
97:0:0
     RDKit          3D

 91100  0  0  1  0  0  0  0  0999 V2000
  -30.1930  -21.7660   21.7480 C   0  0  0  0  0  2  0  0  0  0  0  0
  -30.1070  -19.0510   21.8110 C   0  0  0  0  0  2  0  0  0  0  0  0
  -28.5710  -21.2610   19.9650 C   0  0  0  0  0  2  0  0  0  0  0  0
  -30.5290  -20.3840   21.1510 C   0  0  0  0  0  3  0  0  0  0  0  0
  -29.6080  -20.0810   19.9920 C   0  0  0  0  0  3  0  0  0  0  0  0
  -28.9830  -22.4020   20.9860 C   0  0  0  0  0  3  0  0  0  0  0  0
  -29.4160  -18.5730   20.5210 C   0  0  0  0  0  3  0  0  0  0  0  0
  -29.2440  -23.9300   20.5160 C   0  0  0  0  0  3  0  0  0  0  0  0
  -28.0480  -24.9710   20.2970 C   0  0  0  0  0  3  0  0  0  0  0  0
  -28.3170  -26.4420   20.2430 O   0  0  0  0  0  0  0  0  0  0  0  0
  -24.6200  -31.9050   23.2320 C   0  0  0  0  0  0  0  0  0  0  0  0
  -27.2120  -27.3160   20.1880 C   0  0  0  0  0  0  0  0  0  0  0  0
  -23.4090  -30.5000   21.6050 C   0  0  0  0  0  3  0  0  0  0  0  0
  -24.8520  -28.9470   20.1750 C   0  0  0  0  0  0  0  0  0  0  0  0
  -25.9500  -30.8140   21.4100 C   0  0  0  0  0  2  0  0  0  0  0  0
  -26.0260  -29.4330   20.7640 C   0  0  0  0  0  0  0  0  0  0  0  0
  -27.2110  -28.6320   20.7560 C   0  0  0  0  0  3  0  0  0  0  0  0
  -26.0130  -26.8930   19.5710 C   0  0  0  0  0  3  0  0  0  0  0  0
  -24.8500  -27.6850   19.5660 C   0  0  0  0  0  3  0  0  0  0  0  0
  -23.6160  -29.8220   20.2250 C   0  0  0  0  0  2  0  0  0  0  0  0
  -24.6790  -31.0920   22.1370 N   0  0  0  0  0  0  0  0  0  0  0  0
  -23.5390  -32.1850   23.7700 O   0  0  0  0  0  0  0  0  0  0  0  0
  -22.7520  -29.4860   22.5720 C   0  0  0  0  0  0  0  0  0  0  0  0
  -21.4260  -29.3060   22.4510 N   0  0  0  0  0  0  0  0  0  0  0  0
  -23.4350  -28.8640   23.3890 O   0  0  0  0  0  0  0  0  0  0  0  0
  -20.9330  -29.8610   21.7660 H   0  0  0  0  0  0  0  0  0  0  0  0
  -18.0510  -28.1070   22.9730 C   0  0  0  0  0  0  0  0  0  0  0  0
  -20.6110  -28.3730   23.2320 C   0  0  0  0  0  3  0  0  0  0  0  0
  -20.7120  -26.9370   22.6660 C   0  0  0  0  0  2  0  0  0  0  0  0
  -19.6070  -26.6070   21.6570 C   0  0  0  0  0  2  0  0  0  0  0  0
  -18.2270  -26.7540   22.3040 C   0  0  0  0  0  2  0  0  0  0  0  0
  -19.1710  -28.8750   23.3940 C   0  0  0  0  0  0  0  0  0  0  0  0
  -18.9510  -30.1410   23.9780 C   0  0  0  0  0  3  0  0  0  0  0  0
  -17.6470  -30.6410   24.1470 C   0  0  0  0  0  3  0  0  0  0  0  0
  -16.5420  -29.8720   23.7410 C   0  0  0  0  0  3  0  0  0  0  0  0
  -16.7450  -28.6060   23.1620 C   0  0  0  0  0  3  0  0  0  0  0  0
  -25.9060  -32.5410   23.8450 C   0  0  0  0  0  3  0  0  0  0  0  0
  -26.4340  -31.7720   25.1170 C   0  0  1  0  0  0  0  0  0  0  0  0
  -25.3490  -31.5330   26.1940 C   0  0  0  0  0  1  0  0  0  0  0  0
  -27.0180  -30.3970   24.7220 C   0  0  0  0  0  1  0  0  0  0  0  0
  -27.5880  -32.5710   25.7690 C   0  0  0  0  0  1  0  0  0  0  0  0
  -25.5950  -33.9380   24.1780 N   0  0  0  0  0  0  0  0  0  0  0  0
  -25.9220  -34.9940   23.4220 C   0  0  0  0  0  0  0  0  0  0  0  0
  -26.5870  -34.8950   22.3870 O   0  0  0  0  0  0  0  0  0  0  0  0
  -25.0080  -34.0900   24.9860 H   0  0  0  0  0  0  0  0  0  0  0  0
  -24.1910  -36.7850   23.0770 C   0  0  0  0  0  1  0  0  0  0  0  0
  -25.4350  -36.3810   23.8860 C   0  0  0  0  0  3  0  0  0  0  0  0
  -27.5700  -37.2600   24.7160 C   0  0  0  0  0  1  0  0  0  0  0  0
  -26.4660  -37.4340   23.7750 N   0  0  0  0  0  0  0  0  0  0  0  0
  -26.0600  -38.3530   23.9300 H   0  0  0  0  0  0  0  0  0  0  0  0
  -29.9490  -17.2610   19.7410 C   0  0  0  0  0  0  0  0  0  0  0  0
  -30.6780  -14.7360   20.2560 C   0  0  0  0  0  0  0  0  0  0  0  0
  -30.4230  -12.4880   19.2300 C   0  0  0  0  0  2  0  0  0  0  0  0
  -29.4840  -12.6140   18.0100 C   0  0  0  0  0  2  0  0  0  0  0  0
  -28.0120  -12.4630   18.4420 C   0  0  0  0  0  2  0  0  0  0  0  0
  -27.6610  -13.3310   19.6810 C   0  0  0  0  0  3  0  0  0  0  0  0
  -28.7230  -13.2050   20.7940 C   0  0  0  0  0  2  0  0  0  0  0  0
  -30.0260  -13.5290   20.2030 N   0  0  0  0  0  0  0  0  0  0  0  0
  -31.8700  -14.7850   19.9520 O   0  0  0  0  0  0  0  0  0  0  0  0
  -29.9080  -15.8780   20.4110 N   0  0  0  0  0  4  0  0  0  0  0  0
  -28.9950  -15.6610   20.7770 H   0  0  0  0  0  0  0  0  0  0  0  0
  -25.2760  -13.9340   20.4100 C   0  0  0  0  0  0  0  0  0  0  0  0
  -24.2110  -13.1660   20.7920 C   0  0  0  0  0  0  0  0  0  0  0  0
  -24.6710  -11.8140   20.7710 C   0  0  0  0  0  0  0  0  0  0  0  0
  -26.3170  -13.0510   20.1750 N   0  0  0  0  0  0  0  0  0  0  0  0
  -25.9600  -11.7710   20.4570 N   0  0  0  0  0  0  0  0  0  0  0  0
  -23.9430  -10.5550   20.9740 C   0  0  0  0  0  0  0  0  0  0  0  0
  -24.3800   -9.5910   21.9090 C   0  0  0  0  0  3  0  0  0  0  0  0
  -23.6520   -8.3980   22.1000 C   0  0  0  0  0  3  0  0  0  0  0  0
  -22.4720   -8.1590   21.3560 C   0  0  0  0  0  0  0  0  0  0  0  0
  -22.0540   -9.1100   20.4100 C   0  0  0  0  0  3  0  0  0  0  0  0
  -22.7820  -10.2960   20.2170 C   0  0  0  0  0  3  0  0  0  0  0  0
  -21.7120   -7.0170   21.4580 O   0  0  0  0  0  0  0  0  0  0  0  0
  -21.6730   -6.2780   22.6120 C   0  0  0  0  0  0  0  0  0  0  0  0
  -21.2720   -6.8420   23.8440 C   0  0  0  0  0  3  0  0  0  0  0  0
  -21.1790   -6.0300   24.9910 C   0  0  0  0  0  3  0  0  0  0  0  0
  -21.4780   -4.6560   24.9090 C   0  0  0  0  0  0  0  0  0  0  0  0
  -21.8730   -4.0930   23.6840 C   0  0  0  0  0  3  0  0  0  0  0  0
  -21.9690   -4.9020   22.5380 C   0  0  0  0  0  0  0  0  0  0  0  0
  -22.3300   -4.3500   21.3550 F   0  0  0  0  0  0  0  0  0  0  0  0
  -21.3820   -3.8740   26.0100 F   0  0  0  0  0  0  0  0  0  0  0  0
  -22.8160  -13.6500   21.0640 C   0  0  0  0  0  0  0  0  0  0  0  0
  -22.0900  -12.9640   21.9400 N   0  0  0  0  0  0  0  0  0  0  0  0
  -22.3790  -14.6690   20.5310 O   0  0  0  0  0  0  0  0  0  0  0  0
  -22.4570  -12.1410   22.3940 H   0  0  0  0  0  0  0  0  0  0  0  0
  -21.1520  -13.2690   22.1620 H   0  0  0  0  0  0  0  0  0  0  0  0
  -25.4430  -15.3040   20.2220 N   0  0  0  0  0  0  0  0  0  0  0  0
  -24.6750  -15.9570   20.3300 H   0  0  0  0  0  0  0  0  0  0  0  0
  -26.2820  -15.7360   19.8590 H   0  0  0  0  0  0  0  0  0  0  0  0
  -30.8300  -17.9180   17.4040 C   0  0  0  0  0  1  0  0  0  0  0  0
  -31.1960  -17.5670   18.8550 C   0  0  0  0  0  2  0  0  0  0  0  0
  3  6  1  0
  4  1  1  0
  4  2  1  0
  5  3  1  0
  5  7  1  0
  5  4  1  0
  6  8  1  0
  6  1  1  0
  7 51  1  0
  7  2  1  0
  9  8  2  0
 10  9  1  0
 11 22  2  0
 12 10  1  0
 12 17  1  0
 13 21  1  0
 13 23  1  0
 14 20  1  0
 14 16  1  0
 15 21  1  0
 16 15  1  0
 17 16  2  0
 18 12  2  0
 19 18  1  0
 19 14  2  0
 20 13  1  0
 21 11  1  0
 23 25  2  0
 24 23  1  0
 26 24  1  0
 27 36  2  0
 27 32  1  0
 28 24  1  0
 28 32  1  0
 29 28  1  0
 30 31  1  0
 30 29  1  0
 31 27  1  0
 32 33  2  0
 33 34  1  0
 35 34  2  0
 36 35  1  0
 37 11  1  0
 37 42  1  0
 37 38  1  0
 38 41  1  1
 38 39  1  0
 40 38  1  0
 42 45  1  0
 43 47  1  0
 43 42  1  0
 44 43  2  0
 47 46  1  0
 49 47  1  0
 49 50  1  0
 49 48  1  0
 51 60  2  0
 52 60  1  0
 53 58  1  0
 54 55  1  0
 54 53  1  0
 56 55  1  0
 56 65  1  0
 56 57  1  0
 58 52  1  0
 58 57  1  0
 59 52  2  0
 60 61  1  0
 62 63  2  0
 63 82  1  0
 64 63  1  0
 64 67  1  0
 65 62  1  0
 65 66  1  0
 66 64  2  0
 67 68  1  0
 68 69  2  0
 70 73  1  0
 70 69  1  0
 71 70  2  0
 72 71  1  0
 72 67  2  0
 73 74  1  0
 74 75  1  0
 75 76  2  0
 77 76  1  0
 77 81  1  0
 78 77  2  0
 79 74  2  0
 79 78  1  0
 80 79  1  0
 82 83  1  0
 83 86  1  0
 83 85  1  0
 84 82  2  0
 87 88  1  0
 87 62  1  0
 89 87  1  0
 90 91  1  0
 91 51  1  0
M  ISO  4   9 101  10 101  52 100  60 100
M  END
>  <TORSDO>  (96) 
F 20

>  <SCORE>  (96) 
-13.663

>  <name>  (96) 
97

>  <ligand_id>  (96) 
97

>  <original_smiles>  (96) 
[H]c1c([H])c([H])c2c(c1[H])C([H])([H])C([H])([H])C([H])([H])C2([H])N([H])C(=O)C1([H])N(C(=O)C([H])(N([H])C(=O)C([H])(N([H])C([H])([H])[H])C([H])([H])[H])C(C([H])([H])[H])(C([H])([H])[H])C([H])([H])[H])C([H])([H])c2c([H])c(OC([H])([H])C([H])([H])C3([H])C([H])([H])C4([H])C([H])([H])C([H])(C([H])(N([H])C(=O)N5C([H])([H])C([H])([H])C([H])([H])C([H])(n6nc(-c7c([H])c([H])c(Oc8c([H])c([H])c(F)c([H])c8F)c([H])c7[H])c(C(=O)N([H])[H])c6N([H])[H])C5([H])[H])C([H])([H])C([H])([H])[H])C4([H])C3([H])[H])c([H])c([H])c2C1([H])[H]

>  <smiles>  (96) 
[H]c1c([H])c([H])c2c(c1[H])C([H])([H])C([H])([H])C([H])([H])C2([H])N([H])C(=O)C1([H])N(C(=O)C([H])(N([H])C(=O)C([H])(N([H])C([H])([H])[H])C([H])([H])[H])C(C([H])([H])[H])(C([H])([H])[H])C([H])([H])[H])C([H])([H])c2c([H])c(OC([H])([H])C([H])([H])C3([H])C([H])([H])C4([H])C([H])([H])C([H])(C([H])(N([H])C(=O)N5C([H])([H])C([H])([H])C([H])([H])C([H])(n6nc(-c7c([H])c([H])c(Oc8c([H])c([H])c(F)c([H])c8F)c([H])c7[H])c(C(=O)N([H])[H])c6N([H])[H])C5([H])[H])C([H])([H])C([H])([H])[H])C4([H])C3([H])[H])c([H])c([H])c2C1([H])[H]

$$$$
