0:0:0
     RDKit          3D

 95104  0  0  1  0  0  0  0  0999 V2000
  -29.6760  -21.1010   22.5550 C   0  0  0  0  0  3  0  0  0  0  0  0
  -29.7420  -19.6940   22.4770 C   0  0  0  0  0  3  0  0  0  0  0  0
  -29.6560  -19.8280   20.0460 C   0  0  0  0  0  3  0  0  0  0  0  0
  -29.6150  -21.8800   21.3770 C   0  0  0  0  0  0  0  0  0  0  0  0
  -29.5890  -21.2330   20.1210 C   0  0  0  0  0  0  0  0  0  0  0  0
  -29.7460  -19.0550   21.2200 C   0  0  0  0  0  0  0  0  0  0  0  0
  -29.5570  -23.3670   21.4620 C   0  0  0  0  0  0  0  0  0  0  0  0
  -29.5060  -22.0540   18.8510 C   0  0  0  0  0  2  0  0  0  0  0  0
  -30.3680  -23.3080   18.9900 C   0  0  0  0  0  2  0  0  0  0  0  0
  -30.0010  -24.1790   20.2210 C   0  0  0  0  0  3  0  0  0  0  0  0
  -29.2070  -23.9640   22.4830 O   0  0  0  0  0  0  0  0  0  0  0  0
  -29.8060  -17.5400   21.1160 C   0  0  0  0  0  2  0  0  0  0  0  0
  -32.3630  -17.5600   20.9980 C   0  0  0  0  0  1  0  0  0  0  0  0
  -31.0650  -16.9960   20.4000 C   0  0  0  0  0  3  0  0  0  0  0  0
  -31.5400  -14.6420   19.6160 C   0  0  0  0  0  0  0  0  0  0  0  0
  -31.1450  -12.4280   18.5950 C   0  0  0  0  0  2  0  0  0  0  0  0
  -30.1050  -12.5560   17.4630 C   0  0  0  0  0  2  0  0  0  0  0  0
  -28.6670  -12.4750   18.0150 C   0  0  0  0  0  2  0  0  0  0  0  0
  -28.4430  -13.4180   19.2250 C   0  0  0  0  0  3  0  0  0  0  0  0
  -29.5700  -13.2170   20.2640 C   0  0  0  0  0  2  0  0  0  0  0  0
  -30.8660  -13.4630   19.5990 N   0  0  0  0  0  0  0  0  0  0  0  0
  -32.5000  -14.8950   18.8780 O   0  0  0  0  0  0  0  0  0  0  0  0
  -31.0280  -15.5370   20.4740 N   0  0  0  0  0  0  0  0  0  0  0  0
  -30.3240  -15.1560   21.0880 H   0  0  0  0  0  0  0  0  0  0  0  0
  -26.1650  -14.1640   20.1710 C   0  0  0  0  0  0  0  0  0  0  0  0
  -25.0880  -13.4520   20.6290 C   0  0  0  0  0  0  0  0  0  0  0  0
  -25.4520  -12.0750   20.5220 C   0  0  0  0  0  0  0  0  0  0  0  0
  -27.1220  -13.2240   19.8200 N   0  0  0  0  0  0  0  0  0  0  0  0
  -26.6990  -11.9620   20.0830 N   0  0  0  0  0  0  0  0  0  0  0  0
  -24.6680  -10.8580   20.7570 C   0  0  0  0  0  0  0  0  0  0  0  0
  -25.0520   -9.9090   21.7330 C   0  0  0  0  0  3  0  0  0  0  0  0
  -24.2720   -8.7530   21.9520 C   0  0  0  0  0  3  0  0  0  0  0  0
  -23.0950   -8.5370   21.1960 C   0  0  0  0  0  0  0  0  0  0  0  0
  -22.7300   -9.4740   20.2130 C   0  0  0  0  0  3  0  0  0  0  0  0
  -23.5100  -10.6210   19.9910 C   0  0  0  0  0  3  0  0  0  0  0  0
  -22.2890   -7.4310   21.3230 O   0  0  0  0  0  0  0  0  0  0  0  0
  -22.0560   -6.8470   22.5440 C   0  0  0  0  0  0  0  0  0  0  0  0
  -21.5140   -7.5730   23.6260 C   0  0  0  0  0  3  0  0  0  0  0  0
  -21.2250   -6.9160   24.8390 C   0  0  0  0  0  3  0  0  0  0  0  0
  -21.4680   -5.5350   24.9690 C   0  0  0  0  0  0  0  0  0  0  0  0
  -22.0040   -4.8110   23.8900 C   0  0  0  0  0  3  0  0  0  0  0  0
  -22.2940   -5.4650   22.6800 C   0  0  0  0  0  0  0  0  0  0  0  0
  -22.7890   -4.7560   21.6360 F   0  0  0  0  0  0  0  0  0  0  0  0
  -21.1840   -4.9030   26.1310 F   0  0  0  0  0  0  0  0  0  0  0  0
  -23.7590  -14.0090   21.0530 C   0  0  0  0  0  0  0  0  0  0  0  0
  -23.0960  -13.3610   22.0030 N   0  0  0  0  0  0  0  0  0  0  0  0
  -23.3220  -15.0550   20.5740 O   0  0  0  0  0  0  0  0  0  0  0  0
  -23.4630  -12.5140   22.4110 H   0  0  0  0  0  0  0  0  0  0  0  0
  -22.2080  -13.7180   22.3280 H   0  0  0  0  0  0  0  0  0  0  0  0
  -26.4040  -15.5250   20.0100 N   0  0  0  0  0  0  0  0  0  0  0  0
  -25.7030  -16.2280   20.2180 H   0  0  0  0  0  0  0  0  0  0  0  0
  -27.2470  -15.9130   19.6060 H   0  0  0  0  0  0  0  0  0  0  0  0
  -31.1690  -25.1090   20.6040 C   0  0  0  0  0  2  0  0  0  0  0  0
  -31.3410  -26.3360   19.6940 C   0  0  0  0  0  2  0  0  0  0  0  0
  -30.7850  -27.4710   20.3380 O   0  0  0  0  0  0  0  0  0  0  0  0
  -25.5260  -30.9180   23.5790 C   0  0  0  0  0  0  0  0  0  0  0  0
  -29.4370  -27.7500   20.2990 C   0  0  0  0  0  0  0  0  0  0  0  0
  -24.8390  -29.5270   21.6500 C   0  0  0  0  0  3  0  0  0  0  0  0
  -26.7380  -28.5880   20.2350 C   0  0  0  0  0  0  0  0  0  0  0  0
  -27.1970  -30.5010   21.7800 C   0  0  0  0  0  2  0  0  0  0  0  0
  -27.6700  -29.2900   21.0060 C   0  0  0  0  0  0  0  0  0  0  0  0
  -29.0150  -28.8730   21.0390 C   0  0  0  0  0  3  0  0  0  0  0  0
  -28.4790  -27.0340   19.5400 C   0  0  0  0  0  3  0  0  0  0  0  0
  -27.1350  -27.4550   19.5030 C   0  0  0  0  0  3  0  0  0  0  0  0
  -25.3230  -29.1170   20.2330 C   0  0  0  0  0  2  0  0  0  0  0  0
  -25.8630  -30.3270   22.3990 N   0  0  0  0  0  0  0  0  0  0  0  0
  -24.3710  -30.8490   24.0220 O   0  0  0  0  0  0  0  0  0  0  0  0
  -24.3830  -28.2570   22.4010 C   0  0  0  0  0  0  0  0  0  0  0  0
  -23.1700  -27.7800   22.0810 N   0  0  0  0  0  0  0  0  0  0  0  0
  -25.1210  -27.7060   23.2210 O   0  0  0  0  0  0  0  0  0  0  0  0
  -22.6280  -28.2980   21.4040 H   0  0  0  0  0  0  0  0  0  0  0  0
  -20.1770  -25.7590   21.9860 C   0  0  0  0  0  0  0  0  0  0  0  0
  -22.5480  -26.5720   22.6200 C   0  0  0  0  0  3  0  0  0  0  0  0
  -23.0650  -25.3100   21.8930 C   0  0  0  0  0  2  0  0  0  0  0  0
  -22.1830  -24.8910   20.7130 C   0  0  0  0  0  2  0  0  0  0  0  0
  -20.7550  -24.6050   21.1840 C   0  0  0  0  0  2  0  0  0  0  0  0
  -21.0210  -26.6920   22.6450 C   0  0  0  0  0  0  0  0  0  0  0  0
  -20.4350  -27.7690   23.3450 C   0  0  0  0  0  3  0  0  0  0  0  0
  -19.0360  -27.9200   23.3930 C   0  0  0  0  0  3  0  0  0  0  0  0
  -18.2070  -26.9850   22.7520 C   0  0  0  0  0  3  0  0  0  0  0  0
  -18.7760  -25.9060   22.0540 C   0  0  0  0  0  3  0  0  0  0  0  0
  -26.5650  -31.7270   24.4180 C   0  0  0  0  0  3  0  0  0  0  0  0
  -27.0120  -30.9870   25.7390 C   0  0  1  0  0  0  0  0  0  0  0  0
  -25.8290  -30.4950   26.6050 C   0  0  0  0  0  1  0  0  0  0  0  0
  -27.8970  -29.7640   25.4000 C   0  0  0  0  0  1  0  0  0  0  0  0
  -27.8750  -31.9350   26.6060 C   0  0  0  0  0  1  0  0  0  0  0  0
  -25.9640  -33.0290   24.7300 N   0  0  0  0  0  0  0  0  0  0  0  0
  -26.2120  -34.1610   24.0560 C   0  0  0  0  0  0  0  0  0  0  0  0
  -27.0380  -34.2310   23.1430 O   0  0  0  0  0  0  0  0  0  0  0  0
  -25.2350  -33.0350   25.4270 H   0  0  0  0  0  0  0  0  0  0  0  0
  -24.2590  -35.6360   23.4730 C   0  0  0  0  0  1  0  0  0  0  0  0
  -25.4130  -35.4150   24.4620 C   0  0  0  0  0  3  0  0  0  0  0  0
  -27.2020  -36.6190   25.6400 C   0  0  0  0  0  1  0  0  0  0  0  0
  -26.2410  -36.6390   24.5390 N   0  0  0  0  0  0  0  0  0  0  0  0
  -25.6560  -37.4620   24.6430 H   0  0  0  0  0  0  0  0  0  0  0  0
  2  1  1  0
  3  5  2  0
  3  6  1  0
  4  7  1  0
  4  1  2  0
  5  4  1  0
  6  2  2  0
  7 11  2  0
  8  9  1  0
  8  5  1  0
  9 10  1  0
 10 53  1  0
 10  7  1  0
 12  6  1  0
 14 23  1  0
 14 13  1  0
 14 12  1  0
 15 23  1  0
 16 21  1  0
 17 18  1  0
 17 16  1  0
 19 18  1  0
 19 28  1  0
 19 20  1  0
 21 15  1  0
 21 20  1  0
 22 15  2  0
 23 24  1  0
 25 26  2  0
 26 45  1  0
 27 26  1  0
 27 30  1  0
 28 29  1  0
 28 25  1  0
 29 27  2  0
 30 31  1  0
 31 32  2  0
 33 36  1  0
 33 32  1  0
 34 33  2  0
 35 34  1  0
 35 30  2  0
 36 37  1  0
 37 42  2  0
 37 38  1  0
 38 39  2  0
 39 40  1  0
 40 44  1  0
 41 40  2  0
 42 41  1  0
 43 42  1  0
 45 46  1  0
 46 49  1  0
 46 48  1  0
 47 45  2  0
 50 25  1  0
 50 51  1  0
 52 50  1  0
 54 55  1  0
 54 53  1  0
 56 67  2  0
 57 55  1  0
 57 62  1  0
 58 66  1  0
 58 68  1  0
 59 61  1  0
 60 66  1  0
 61 62  2  0
 61 60  1  0
 63 57  2  0
 64 63  1  0
 64 59  2  0
 65 59  1  0
 65 58  1  0
 66 56  1  0
 68 70  2  0
 69 68  1  0
 71 69  1  0
 72 81  2  0
 72 77  1  0
 73 69  1  0
 73 77  1  0
 74 73  1  0
 75 76  1  0
 75 74  1  0
 76 72  1  0
 77 78  2  0
 78 79  1  0
 80 79  2  0
 81 80  1  0
 82 56  1  0
 82 87  1  0
 82 83  1  0
 83 84  1  1
 83 86  1  0
 85 83  1  0
 87 90  1  0
 88 92  1  0
 88 87  1  0
 89 88  2  0
 92 91  1  0
 92 94  1  0
 94 95  1  0
 94 93  1  0
M  ISO  4  15 100  23 100  54 101  55 101
M  END
>  <TORSDO>  (1) 
F 20

>  <SCORE>  (1) 
-7.819

>  <name>  (1) 
0

>  <ligand_id>  (1) 
0

>  <original_smiles>  (1) 
[H]c1c([H])c([H])c2c(c1[H])C([H])([H])C([H])([H])C([H])([H])C2([H])N([H])C(=O)C1([H])N(C(=O)C([H])(N([H])C(=O)C([H])(N([H])C([H])([H])[H])C([H])([H])[H])C(C([H])([H])[H])(C([H])([H])[H])C([H])([H])[H])C([H])([H])c2c([H])c(OC([H])([H])C([H])([H])C3([H])C(=O)c4c([H])c([H])c(C([H])([H])C([H])(N([H])C(=O)N5C([H])([H])C([H])([H])C([H])([H])C([H])(n6nc(-c7c([H])c([H])c(Oc8c([H])c([H])c(F)c([H])c8F)c([H])c7[H])c(C(=O)N([H])[H])c6N([H])[H])C5([H])[H])C([H])([H])[H])c([H])c4C([H])([H])C3([H])[H])c([H])c([H])c2C1([H])[H]

>  <smiles>  (1) 
[H]c1c([H])c([H])c2c(c1[H])C([H])([H])C([H])([H])C([H])([H])C2([H])N([H])C(=O)C1([H])N(C(=O)C([H])(N([H])C(=O)C([H])(N([H])C([H])([H])[H])C([H])([H])[H])C(C([H])([H])[H])(C([H])([H])[H])C([H])([H])[H])C([H])([H])c2c([H])c(OC([H])([H])C([H])([H])C3([H])C(=O)c4c([H])c([H])c(C([H])([H])C([H])(N([H])C(=O)N5C([H])([H])C([H])([H])C([H])([H])C([H])(n6nc(-c7c([H])c([H])c(Oc8c([H])c([H])c(F)c([H])c8F)c([H])c7[H])c(C(=O)N([H])[H])c6N([H])[H])C5([H])[H])C([H])([H])[H])c([H])c4C([H])([H])C3([H])[H])c([H])c([H])c2C1([H])[H]

$$$$
1:0:0
     RDKit          3D

 93102  0  0  1  0  0  0  0  0999 V2000
  -29.6550  -22.0630   20.8500 N   0  0  0  0  0  4  0  0  0  0  0  0
  -29.6360  -22.0850   19.8440 H   0  0  0  0  0  0  0  0  0  0  0  0
  -30.6060  -22.2400   21.1350 H   0  0  0  0  0  0  0  0  0  0  0  0
  -29.3040  -20.6870   21.2650 C   0  0  0  0  0  2  0  0  0  0  0  0
  -28.8140  -19.3790   18.1260 C   0  0  0  0  0  2  0  0  0  0  0  0
  -28.1020  -20.4650   18.9280 C   0  0  0  0  0  2  0  0  0  0  0  0
  -28.6050  -18.1300   18.9330 C   0  0  0  0  0  3  0  0  0  0  0  0
  -28.2900  -18.5010   20.3610 C   0  0  0  0  0  3  0  0  0  0  0  0
  -28.1840  -20.0290   20.4100 C   0  0  0  0  0  3  0  0  0  0  0  0
  -29.5380  -17.6810   20.0260 C   0  0  0  0  0  3  0  0  0  0  0  0
  -29.6050  -16.1720   20.1400 C   0  0  0  0  0  2  0  0  0  0  0  0
  -31.2890  -14.4230   20.3660 C   0  0  0  0  0  0  0  0  0  0  0  0
  -30.8960  -12.1920   19.3930 C   0  0  0  0  0  2  0  0  0  0  0  0
  -29.9740  -12.2770   18.1590 C   0  0  0  0  0  2  0  0  0  0  0  0
  -28.4960  -12.1880   18.5860 C   0  0  0  0  0  2  0  0  0  0  0  0
  -28.1500  -13.1840   19.7200 C   0  0  0  0  0  3  0  0  0  0  0  0
  -29.1840  -13.1030   20.8700 C   0  0  0  0  0  2  0  0  0  0  0  0
  -30.5310  -13.2910   20.3030 N   0  0  0  0  0  0  0  0  0  0  0  0
  -32.4410  -14.4870   19.9380 O   0  0  0  0  0  0  0  0  0  0  0  0
  -30.7180  -15.5370   20.8510 N   0  0  0  0  0  0  0  0  0  0  0  0
  -31.4010  -16.2090   21.1680 H   0  0  0  0  0  0  0  0  0  0  0  0
  -25.7960  -13.9640   20.4100 C   0  0  0  0  0  0  0  0  0  0  0  0
  -24.6800  -13.2640   20.7790 C   0  0  0  0  0  0  0  0  0  0  0  0
  -25.0600  -11.8890   20.7700 C   0  0  0  0  0  0  0  0  0  0  0  0
  -26.7870  -13.0140   20.2000 N   0  0  0  0  0  0  0  0  0  0  0  0
  -26.3460  -11.7630   20.4760 N   0  0  0  0  0  0  0  0  0  0  0  0
  -24.2630  -10.6730   20.9660 C   0  0  0  0  0  0  0  0  0  0  0  0
  -24.6290   -9.6970   21.9170 C   0  0  0  0  0  3  0  0  0  0  0  0
  -23.8330   -8.5460   22.0990 C   0  0  0  0  0  3  0  0  0  0  0  0
  -22.6580   -8.3660   21.3310 C   0  0  0  0  0  0  0  0  0  0  0  0
  -22.3160   -9.3290   20.3660 C   0  0  0  0  0  3  0  0  0  0  0  0
  -23.1100  -10.4710   20.1810 C   0  0  0  0  0  3  0  0  0  0  0  0
  -21.8410   -7.2650   21.4230 O   0  0  0  0  0  0  0  0  0  0  0  0
  -21.7220   -6.5520   22.5890 C   0  0  0  0  0  0  0  0  0  0  0  0
  -21.2950   -7.1560   23.7920 C   0  0  0  0  0  3  0  0  0  0  0  0
  -21.1180   -6.3710   24.9490 C   0  0  0  0  0  3  0  0  0  0  0  0
  -21.3590   -4.9840   24.9040 C   0  0  0  0  0  0  0  0  0  0  0  0
  -21.7790   -4.3810   23.7060 C   0  0  0  0  0  3  0  0  0  0  0  0
  -21.9550   -5.1630   22.5500 C   0  0  0  0  0  0  0  0  0  0  0  0
  -22.3380   -4.5730   21.3910 F   0  0  0  0  0  0  0  0  0  0  0  0
  -21.1850   -4.2280   26.0130 F   0  0  0  0  0  0  0  0  0  0  0  0
  -23.3090  -13.8280   21.0270 C   0  0  0  0  0  0  0  0  0  0  0  0
  -22.5390  -13.1940   21.9060 N   0  0  0  0  0  0  0  0  0  0  0  0
  -22.9320  -14.8610   20.4770 O   0  0  0  0  0  0  0  0  0  0  0  0
  -22.8550  -12.3580   22.3720 H   0  0  0  0  0  0  0  0  0  0  0  0
  -21.6170  -13.5520   22.1170 H   0  0  0  0  0  0  0  0  0  0  0  0
  -26.0410  -15.3190   20.2070 N   0  0  0  0  0  0  0  0  0  0  0  0
  -25.3070  -16.0160   20.2770 H   0  0  0  0  0  0  0  0  0  0  0  0
  -26.9110  -15.6940   19.8550 H   0  0  0  0  0  0  0  0  0  0  0  0
  -28.8050  -23.1630   21.3600 C   0  0  0  0  0  2  0  0  0  0  0  0
  -28.8860  -24.4040   20.4430 C   0  0  0  0  0  2  0  0  0  0  0  0
  -28.3880  -25.6930   21.1070 C   0  0  0  0  0  2  0  0  0  0  0  0
  -28.4160  -26.7690   20.1640 O   0  0  0  0  0  0  0  0  0  0  0  0
  -24.5830  -31.8890   23.2270 C   0  0  0  0  0  0  0  0  0  0  0  0
  -27.2550  -27.4980   20.1460 C   0  0  0  0  0  0  0  0  0  0  0  0
  -23.3810  -30.4810   21.5800 C   0  0  0  0  0  3  0  0  0  0  0  0
  -24.8470  -28.9590   20.1490 C   0  0  0  0  0  0  0  0  0  0  0  0
  -25.8990  -30.8730   21.3730 C   0  0  0  0  0  2  0  0  0  0  0  0
  -25.9970  -29.5030   20.7380 C   0  0  0  0  0  0  0  0  0  0  0  0
  -27.2060  -28.7770   20.7400 C   0  0  0  0  0  3  0  0  0  0  0  0
  -26.1010  -26.9640   19.5370 C   0  0  0  0  0  3  0  0  0  0  0  0
  -24.8960  -27.6920   19.5380 C   0  0  0  0  0  3  0  0  0  0  0  0
  -23.5920  -29.8010   20.2000 C   0  0  0  0  0  2  0  0  0  0  0  0
  -24.6390  -31.0950   22.1200 N   0  0  0  0  0  0  0  0  0  0  0  0
  -23.5030  -32.1500   23.7730 O   0  0  0  0  0  0  0  0  0  0  0  0
  -22.7440  -29.4540   22.5430 C   0  0  0  0  0  0  0  0  0  0  0  0
  -21.4200  -29.2710   22.4260 N   0  0  0  0  0  0  0  0  0  0  0  0
  -23.4340  -28.8260   23.3520 O   0  0  0  0  0  0  0  0  0  0  0  0
  -20.9300  -29.8200   21.7340 H   0  0  0  0  0  0  0  0  0  0  0  0
  -18.0470  -28.0830   22.9490 C   0  0  0  0  0  0  0  0  0  0  0  0
  -20.6110  -28.3300   23.1980 C   0  0  0  0  0  3  0  0  0  0  0  0
  -20.6960  -26.9050   22.5980 C   0  0  0  0  0  2  0  0  0  0  0  0
  -19.5850  -26.6110   21.5870 C   0  0  0  0  0  2  0  0  0  0  0  0
  -18.2150  -26.7420   22.2560 C   0  0  0  0  0  2  0  0  0  0  0  0
  -19.1730  -28.8390   23.3790 C   0  0  0  0  0  0  0  0  0  0  0  0
  -18.9620  -30.0990   23.9760 C   0  0  0  0  0  3  0  0  0  0  0  0
  -17.6610  -30.6040   24.1610 C   0  0  0  0  0  3  0  0  0  0  0  0
  -16.5500  -29.8460   23.7470 C   0  0  0  0  0  3  0  0  0  0  0  0
  -16.7450  -28.5900   23.1460 C   0  0  0  0  0  3  0  0  0  0  0  0
  -25.8690  -32.5270   23.8420 C   0  0  0  0  0  3  0  0  0  0  0  0
  -25.5570  -33.9240   24.1720 N   0  0  0  0  0  0  0  0  0  0  0  0
  -25.8890  -34.9760   23.4100 C   0  0  0  0  0  0  0  0  0  0  0  0
  -26.5610  -34.8720   22.3790 O   0  0  0  0  0  0  0  0  0  0  0  0
  -24.9580  -34.0790   24.9710 H   0  0  0  0  0  0  0  0  0  0  0  0
  -24.1600  -36.7650   23.0390 C   0  0  0  0  0  1  0  0  0  0  0  0
  -25.3960  -36.3630   23.8610 C   0  0  0  0  0  3  0  0  0  0  0  0
  -27.5190  -37.2550   24.7070 C   0  0  0  0  0  1  0  0  0  0  0  0
  -26.4260  -37.4170   23.7530 N   0  0  0  0  0  0  0  0  0  0  0  0
  -26.0180  -38.3370   23.8940 H   0  0  0  0  0  0  0  0  0  0  0  0
  -26.3920  -31.7560   25.1160 C   0  0  1  0  0  0  0  0  0  0  0  0
  -25.3020  -31.5080   26.1850 C   0  0  0  0  0  1  0  0  0  0  0  0
  -26.9840  -30.3840   24.7160 C   0  0  0  0  0  1  0  0  0  0  0  0
  -27.5380  -32.5560   25.7800 C   0  0  0  0  0  1  0  0  0  0  0  0
  1  3  1  0
  1  4  1  0
  1 50  1  0
  2  1  1  0
  5  6  1  0
  6  9  1  0
  7  5  1  0
  7 10  1  0
  7  8  1  0
  8  9  1  0
  9  4  1  0
 10 11  1  0
 10  8  1  0
 11 20  1  0
 12 20  1  0
 13 18  1  0
 14 15  1  0
 14 13  1  0
 15 16  1  0
 16 25  1  0
 16 17  1  0
 18 12  1  0
 18 17  1  0
 19 12  2  0
 20 21  1  0
 22 23  2  0
 23 42  1  0
 24 23  1  0
 24 27  1  0
 25 22  1  0
 25 26  1  0
 26 24  2  0
 27 28  1  0
 28 29  2  0
 30 33  1  0
 30 29  1  0
 31 30  2  0
 32 31  1  0
 32 27  2  0
 33 34  1  0
 34 35  1  0
 35 36  2  0
 37 36  1  0
 37 41  1  0
 38 37  2  0
 39 34  2  0
 39 38  1  0
 40 39  1  0
 42 43  1  0
 43 46  1  0
 43 45  1  0
 44 42  2  0
 47 48  1  0
 47 22  1  0
 49 47  1  0
 51 52  1  0
 51 50  1  0
 53 52  1  0
 54 65  2  0
 54 80  1  0
 55 53  1  0
 55 60  1  0
 56 64  1  0
 56 66  1  0
 57 63  1  0
 57 59  1  0
 58 64  1  0
 59 60  2  0
 59 58  1  0
 61 62  1  0
 61 55  2  0
 62 57  2  0
 63 56  1  0
 64 54  1  0
 66 68  2  0
 67 66  1  0
 67 71  1  0
 69 67  1  0
 70 79  2  0
 70 75  1  0
 71 75  1  0
 72 71  1  0
 73 74  1  0
 73 72  1  0
 74 70  1  0
 75 76  2  0
 76 77  1  0
 78 77  2  0
 79 78  1  0
 80 81  1  0
 80 90  1  0
 81 84  1  0
 82 86  1  0
 82 81  1  0
 83 82  2  0
 85 86  1  0
 88 86  1  0
 88 89  1  0
 88 87  1  0
 90 93  1  1
 90 91  1  0
 92 90  1  0
M  ISO  4  12 100  20 100  52 101  53 101
M  END
>  <TORSDO>  (2) 
F 22

>  <SCORE>  (2) 
-13.064

>  <name>  (2) 
1

>  <ligand_id>  (2) 
1

>  <original_smiles>  (2) 
[H]c1c([H])c([H])c2c(c1[H])C([H])([H])C([H])([H])C([H])([H])C2([H])N([H])C(=O)C1([H])N(C(=O)C([H])(N([H])C(=O)C([H])(N([H])C([H])([H])[H])C([H])([H])[H])C(C([H])([H])[H])(C([H])([H])[H])C([H])([H])[H])C([H])([H])c2c([H])c(OC([H])([H])C([H])([H])C([H])([H])[N+]([H])([H])C([H])([H])C3([H])C([H])([H])C([H])([H])C4([H])C([H])(C([H])([H])N([H])C(=O)N5C([H])([H])C([H])([H])C([H])([H])C([H])(n6nc(-c7c([H])c([H])c(Oc8c([H])c([H])c(F)c([H])c8F)c([H])c7[H])c(C(=O)N([H])[H])c6N([H])[H])C5([H])[H])C43[H])c([H])c([H])c2C1([H])[H]

>  <smiles>  (2) 
[H]c1c([H])c([H])c2c(c1[H])C([H])([H])C([H])([H])C([H])([H])C2([H])N([H])C(=O)C1([H])N(C(=O)C([H])(N([H])C(=O)C([H])(N([H])C([H])([H])[H])C([H])([H])[H])C(C([H])([H])[H])(C([H])([H])[H])C([H])([H])[H])C([H])([H])c2c([H])c(OC([H])([H])C([H])([H])C([H])([H])[N+]([H])([H])C([H])([H])C3([H])C([H])([H])C([H])([H])C4([H])C([H])(C([H])([H])N([H])C(=O)N5C([H])([H])C([H])([H])C([H])([H])C([H])(n6nc(-c7c([H])c([H])c(Oc8c([H])c([H])c(F)c([H])c8F)c([H])c7[H])c(C(=O)N([H])[H])c6N([H])[H])C5([H])[H])C43[H])c([H])c([H])c2C1([H])[H]

$$$$
2:0:0
     RDKit          3D

 92 99  0  0  1  0  0  0  0  0999 V2000
  -28.6660  -22.4820   18.3130 C   0  0  0  0  0  0  0  0  0  0  0  0
  -28.8540  -22.9750   17.1990 O   0  0  0  0  0  0  0  0  0  0  0  0
  -28.1200  -21.0640   18.4660 C   0  0  0  0  0  2  0  0  0  0  0  0
  -29.2410  -20.0240   18.6360 C   0  0  0  0  0  2  0  0  0  0  0  0
  -29.2260  -19.3260   20.0050 C   0  0  0  0  0  2  0  0  0  0  0  0
  -30.4800  -18.4650   20.2040 C   0  0  0  0  0  2  0  0  0  0  0  0
  -30.3670  -17.4630   21.3600 C   0  0  0  0  0  2  0  0  0  0  0  0
  -31.6810  -16.6840   21.5530 C   0  0  0  0  0  2  0  0  0  0  0  0
  -31.5200  -15.2860   22.1750 C   0  0  0  0  0  2  0  0  0  0  0  0
  -30.6870  -14.0020   20.1680 C   0  0  0  0  0  0  0  0  0  0  0  0
  -30.1170  -12.0620   18.7610 C   0  0  0  0  0  2  0  0  0  0  0  0
  -29.0850  -12.3390   17.6570 C   0  0  0  0  0  2  0  0  0  0  0  0
  -27.6550  -12.1890   18.2010 C   0  0  0  0  0  2  0  0  0  0  0  0
  -27.4360  -13.0040   19.5010 C   0  0  0  0  0  3  0  0  0  0  0  0
  -28.5540  -12.7170   20.5250 C   0  0  0  0  0  2  0  0  0  0  0  0
  -29.8640  -12.9640   19.8910 N   0  0  0  0  0  0  0  0  0  0  0  0
  -31.5630  -14.4040   19.3950 O   0  0  0  0  0  0  0  0  0  0  0  0
  -30.6050  -14.4120   21.4410 N   0  0  0  0  0  0  0  0  0  0  0  0
  -29.8960  -13.9490   21.9910 H   0  0  0  0  0  0  0  0  0  0  0  0
  -25.0940  -13.6410   20.3610 C   0  0  0  0  0  0  0  0  0  0  0  0
  -24.0490  -12.8820   20.8150 C   0  0  0  0  0  0  0  0  0  0  0  0
  -24.5000  -11.5250   20.7760 C   0  0  0  0  0  0  0  0  0  0  0  0
  -26.1150  -12.7490   20.0720 N   0  0  0  0  0  0  0  0  0  0  0  0
  -25.7650  -11.4730   20.3790 N   0  0  0  0  0  0  0  0  0  0  0  0
  -23.7830  -10.2720   21.0380 C   0  0  0  0  0  0  0  0  0  0  0  0
  -24.2640   -9.3280   21.9720 C   0  0  0  0  0  3  0  0  0  0  0  0
  -23.5490   -8.1370   22.2190 C   0  0  0  0  0  3  0  0  0  0  0  0
  -22.3380   -7.8810   21.5300 C   0  0  0  0  0  0  0  0  0  0  0  0
  -21.8740   -8.8160   20.5880 C   0  0  0  0  0  3  0  0  0  0  0  0
  -22.5900   -9.9980   20.3400 C   0  0  0  0  0  3  0  0  0  0  0  0
  -21.5880   -6.7390   21.6860 O   0  0  0  0  0  0  0  0  0  0  0  0
  -21.5990   -6.0270   22.8600 C   0  0  0  0  0  0  0  0  0  0  0  0
  -21.2430   -6.6180   24.0930 C   0  0  0  0  0  3  0  0  0  0  0  0
  -21.1990   -5.8330   25.2610 C   0  0  0  0  0  3  0  0  0  0  0  0
  -21.4990   -4.4590   25.2010 C   0  0  0  0  0  0  0  0  0  0  0  0
  -21.8470   -3.8680   23.9730 C   0  0  0  0  0  3  0  0  0  0  0  0
  -21.8930   -4.6500   22.8060 C   0  0  0  0  0  0  0  0  0  0  0  0
  -22.2080   -4.0720   21.6220 F   0  0  0  0  0  0  0  0  0  0  0  0
  -21.4490   -3.7030   26.3210 F   0  0  0  0  0  0  0  0  0  0  0  0
  -22.6770  -13.3720   21.1760 C   0  0  0  0  0  0  0  0  0  0  0  0
  -22.0080  -12.6960   22.1040 N   0  0  0  0  0  0  0  0  0  0  0  0
  -22.2070  -14.3890   20.6700 O   0  0  0  0  0  0  0  0  0  0  0  0
  -22.4020  -11.8720   22.5360 H   0  0  0  0  0  0  0  0  0  0  0  0
  -21.0880  -13.0050   22.3870 H   0  0  0  0  0  0  0  0  0  0  0  0
  -25.2540  -15.0070   20.1500 N   0  0  0  0  0  0  0  0  0  0  0  0
  -24.5050  -15.6720   20.3080 H   0  0  0  0  0  0  0  0  0  0  0  0
  -26.0900  -15.4330   19.7690 H   0  0  0  0  0  0  0  0  0  0  0  0
  -28.9560  -23.2800   19.5850 C   0  0  0  0  0  2  0  0  0  0  0  0
  -26.5750  -23.5990   20.4950 C   0  0  0  0  0  1  0  0  0  0  0  0
  -27.8300  -24.2830   19.9130 C   0  0  0  0  0  3  0  0  0  0  0  0
  -28.3090  -25.4230   20.8400 C   0  0  0  0  0  2  0  0  0  0  0  0
  -28.3980  -26.6750   20.1580 O   0  0  0  0  0  0  0  0  0  0  0  0
  -24.6180  -31.8390   23.2460 C   0  0  0  0  0  0  0  0  0  0  0  0
  -27.2340  -27.4030   20.1580 C   0  0  0  0  0  0  0  0  0  0  0  0
  -23.4070  -30.4480   21.5950 C   0  0  0  0  0  3  0  0  0  0  0  0
  -24.8510  -28.9100   20.1770 C   0  0  0  0  0  0  0  0  0  0  0  0
  -25.9370  -30.7910   21.4130 C   0  0  0  0  0  2  0  0  0  0  0  0
  -26.0100  -29.4240   20.7720 C   0  0  0  0  0  0  0  0  0  0  0  0
  -27.2050  -28.6740   20.7700 C   0  0  0  0  0  3  0  0  0  0  0  0
  -26.0590  -26.9060   19.5530 C   0  0  0  0  0  3  0  0  0  0  0  0
  -24.8680  -27.6460   19.5680 C   0  0  0  0  0  3  0  0  0  0  0  0
  -23.6140  -29.7690   20.2170 C   0  0  0  0  0  2  0  0  0  0  0  0
  -24.6710  -31.0420   22.1420 N   0  0  0  0  0  0  0  0  0  0  0  0
  -23.5360  -32.1160   23.7820 O   0  0  0  0  0  0  0  0  0  0  0  0
  -22.7440  -29.4280   22.5470 C   0  0  0  0  0  0  0  0  0  0  0  0
  -21.4180  -29.2650   22.4160 N   0  0  0  0  0  0  0  0  0  0  0  0
  -23.4200  -28.7870   23.3560 O   0  0  0  0  0  0  0  0  0  0  0  0
  -20.9390  -29.8370   21.7350 H   0  0  0  0  0  0  0  0  0  0  0  0
  -18.0250  -28.1250   22.9060 C   0  0  0  0  0  0  0  0  0  0  0  0
  -20.5860  -28.3330   23.1760 C   0  0  0  0  0  3  0  0  0  0  0  0
  -20.6630  -26.9070   22.5860 C   0  0  0  0  0  2  0  0  0  0  0  0
  -19.5550  -26.6140   21.5710 C   0  0  0  0  0  2  0  0  0  0  0  0
  -18.1760  -26.7800   22.2170 C   0  0  0  0  0  2  0  0  0  0  0  0
  -19.1570  -28.8620   23.3400 C   0  0  0  0  0  0  0  0  0  0  0  0
  -18.9650  -30.1240   23.9420 C   0  0  0  0  0  3  0  0  0  0  0  0
  -17.6710  -30.6480   24.1170 C   0  0  0  0  0  3  0  0  0  0  0  0
  -16.5500  -29.9030   23.7070 C   0  0  0  0  0  3  0  0  0  0  0  0
  -16.7290  -28.6440   23.1060 C   0  0  0  0  0  3  0  0  0  0  0  0
  -25.9060  -32.4570   23.8740 C   0  0  0  0  0  3  0  0  0  0  0  0
  -26.4260  -31.6680   25.1370 C   0  0  1  0  0  0  0  0  0  0  0  0
  -25.3370  -31.4140   26.2050 C   0  0  0  0  0  1  0  0  0  0  0  0
  -27.0060  -30.2940   24.7230 C   0  0  0  0  0  1  0  0  0  0  0  0
  -27.5860  -32.4500   25.8020 C   0  0  0  0  0  1  0  0  0  0  0  0
  -25.6070  -33.8520   24.2260 N   0  0  0  0  0  0  0  0  0  0  0  0
  -25.9260  -34.9110   23.4700 C   0  0  0  0  0  0  0  0  0  0  0  0
  -26.5780  -34.8150   22.4260 O   0  0  0  0  0  0  0  0  0  0  0  0
  -25.0450  -34.0040   25.0500 H   0  0  0  0  0  0  0  0  0  0  0  0
  -24.1830  -36.6980   23.1620 C   0  0  0  0  0  1  0  0  0  0  0  0
  -25.4410  -36.2930   23.9480 C   0  0  0  0  0  3  0  0  0  0  0  0
  -27.5870  -37.1730   24.7490 C   0  0  0  0  0  1  0  0  0  0  0  0
  -26.4690  -37.3500   23.8250 N   0  0  0  0  0  0  0  0  0  0  0  0
  -26.0630  -38.2650   23.9950 H   0  0  0  0  0  0  0  0  0  0  0  0
  1  3  1  0
  1 48  1  0
  2  1  2  0
  3  4  1  0
  4  5  1  0
  5  6  1  0
  6  7  1  0
  7  8  1  0
  8  9  1  0
 10 18  1  0
 11 16  1  0
 12 13  1  0
 12 11  1  0
 14 13  1  0
 14 23  1  0
 14 15  1  0
 16 10  1  0
 16 15  1  0
 17 10  2  0
 18 19  1  0
 18  9  1  0
 20 21  2  0
 21 40  1  0
 22 21  1  0
 22 25  1  0
 23 20  1  0
 23 24  1  0
 24 22  2  0
 25 26  1  0
 26 27  2  0
 28 31  1  0
 28 27  1  0
 29 28  2  0
 30 29  1  0
 30 25  2  0
 31 32  1  0
 32 33  1  0
 33 34  2  0
 35 34  1  0
 35 39  1  0
 36 35  2  0
 37 32  2  0
 37 36  1  0
 38 37  1  0
 40 41  1  0
 41 44  1  0
 41 43  1  0
 42 40  2  0
 45 46  1  0
 45 20  1  0
 47 45  1  0
 48 50  1  0
 50 49  1  0
 50 51  1  0
 52 51  1  0
 53 64  2  0
 54 52  1  0
 54 59  1  0
 55 63  1  0
 55 65  1  0
 56 62  1  0
 56 58  1  0
 57 63  1  0
 58 57  1  0
 59 58  2  0
 60 61  1  0
 60 54  2  0
 61 56  2  0
 62 55  1  0
 63 53  1  0
 65 67  2  0
 66 65  1  0
 68 66  1  0
 69 78  2  0
 69 74  1  0
 70 66  1  0
 70 74  1  0
 71 70  1  0
 72 73  1  0
 72 71  1  0
 73 69  1  0
 74 75  2  0
 75 76  1  0
 77 76  2  0
 78 77  1  0
 79 53  1  0
 79 84  1  0
 79 80  1  0
 80 83  1  1
 80 81  1  0
 82 80  1  0
 84 87  1  0
 85 89  1  0
 85 84  1  0
 86 85  2  0
 89 88  1  0
 91 89  1  0
 91 92  1  0
 91 90  1  0
M  ISO  4  10 100  18 100  51 101  52 101
M  END
>  <TORSDO>  (3) 
F 26

>  <SCORE>  (3) 
-10.744

>  <name>  (3) 
2

>  <ligand_id>  (3) 
2

>  <original_smiles>  (3) 
[H]c1c([H])c([H])c2c(c1[H])C([H])([H])C([H])([H])C([H])([H])C2([H])N([H])C(=O)C1([H])N(C(=O)C([H])(N([H])C(=O)C([H])(N([H])C([H])([H])[H])C([H])([H])[H])C(C([H])([H])[H])(C([H])([H])[H])C([H])([H])[H])C([H])([H])c2c([H])c(OC([H])([H])C([H])(C([H])([H])[H])C([H])([H])C(=O)C([H])([H])C([H])([H])C([H])([H])C([H])([H])C([H])([H])C([H])([H])C([H])([H])N([H])C(=O)N3C([H])([H])C([H])([H])C([H])([H])C([H])(n4nc(-c5c([H])c([H])c(Oc6c([H])c([H])c(F)c([H])c6F)c([H])c5[H])c(C(=O)N([H])[H])c4N([H])[H])C3([H])[H])c([H])c([H])c2C1([H])[H]

>  <smiles>  (3) 
[H]c1c([H])c([H])c2c(c1[H])C([H])([H])C([H])([H])C([H])([H])C2([H])N([H])C(=O)C1([H])N(C(=O)C([H])(N([H])C(=O)C([H])(N([H])C([H])([H])[H])C([H])([H])[H])C(C([H])([H])[H])(C([H])([H])[H])C([H])([H])[H])C([H])([H])c2c([H])c(OC([H])([H])C([H])(C([H])([H])[H])C([H])([H])C(=O)C([H])([H])C([H])([H])C([H])([H])C([H])([H])C([H])([H])C([H])([H])C([H])([H])N([H])C(=O)N3C([H])([H])C([H])([H])C([H])([H])C([H])(n4nc(-c5c([H])c([H])c(Oc6c([H])c([H])c(F)c([H])c6F)c([H])c5[H])c(C(=O)N([H])[H])c4N([H])[H])C3([H])[H])c([H])c([H])c2C1([H])[H]

$$$$
3:0:0
     RDKit          3D

 98106  0  0  1  0  0  0  0  0999 V2000
  -37.9460  -11.1510    9.7380 C   0  0  0  0  0  2  0  0  0  0  0  0
  -37.5140  -12.3970   10.5350 C   0  0  0  0  0  2  0  0  0  0  0  0
  -35.9820  -12.6150   10.5430 C   0  0  0  0  0  2  0  0  0  0  0  0
  -35.3380  -12.6270    9.1930 N   0  0  2  0  0  4  0  0  0  0  0  0
  -34.3600  -12.4480    9.3610 H   0  0  0  0  0  0  0  0  0  0  0  0
  -35.7410  -11.4910    8.3220 C   0  0  0  0  0  2  0  0  0  0  0  0
  -35.2040  -11.6380    6.8820 C   0  0  0  0  0  2  0  0  0  0  0  0
  -35.3700  -13.0410    6.2590 C   0  0  0  0  0  2  0  0  0  0  0  0
  -34.8070  -11.7430    4.1430 C   0  0  0  0  0  1  0  0  0  0  0  0
  -35.0080  -13.1290    4.7660 C   0  0  0  0  0  2  0  0  0  0  0  0
  -35.3590  -13.9380    8.4850 C   0  0  0  0  0  2  0  0  0  0  0  0
  -33.9530  -14.5070    8.2080 C   0  0  0  0  0  2  0  0  0  0  0  0
  -32.8600  -12.6620    9.4600 C   0  0  0  0  0  0  0  0  0  0  0  0
  -31.9530  -10.5180   10.2550 C   0  0  0  0  0  2  0  0  0  0  0  0
  -32.4960   -9.3600    9.3940 C   0  0  0  0  0  2  0  0  0  0  0  0
  -31.6170   -9.1480    8.1470 C   0  0  0  0  0  2  0  0  0  0  0  0
  -31.3320  -10.4670    7.3820 C   0  0  0  0  0  3  0  0  0  0  0  0
  -30.8700  -11.5770    8.3520 C   0  0  0  0  0  2  0  0  0  0  0  0
  -31.8890  -11.7170    9.4080 N   0  0  0  0  0  0  0  0  0  0  0  0
  -33.7130  -12.7090   10.3490 O   0  0  0  0  0  0  0  0  0  0  0  0
  -32.9030  -13.5040    8.4190 N   0  0  0  0  0  0  0  0  0  0  0  0
  -32.2290  -13.3390    7.6860 H   0  0  0  0  0  0  0  0  0  0  0  0
  -30.0240   -9.0870    5.6470 C   0  0  0  0  0  0  0  0  0  0  0  0
  -29.0270   -9.4280    4.7720 C   0  0  0  0  0  0  0  0  0  0  0  0
  -28.8070  -10.8270    4.9500 C   0  0  0  0  0  0  0  0  0  0  0  0
  -30.3700  -10.2590    6.3010 N   0  0  0  0  0  0  0  0  0  0  0  0
  -29.6650  -11.3200    5.8350 N   0  0  0  0  0  0  0  0  0  0  0  0
  -27.7920  -11.7170    4.3730 C   0  0  0  0  0  0  0  0  0  0  0  0
  -27.6600  -13.0590    4.7950 C   0  0  0  0  0  3  0  0  0  0  0  0
  -26.6890  -13.9010    4.2140 C   0  0  0  0  0  3  0  0  0  0  0  0
  -25.8390  -13.4060    3.1950 C   0  0  0  0  0  0  0  0  0  0  0  0
  -25.9590  -12.0640    2.7940 C   0  0  0  0  0  3  0  0  0  0  0  0
  -26.9240  -11.2250    3.3790 C   0  0  0  0  0  3  0  0  0  0  0  0
  -24.8510  -14.1430    2.5900 O   0  0  0  0  0  0  0  0  0  0  0  0
  -24.5830  -15.4350    2.9660 C   0  0  0  0  0  0  0  0  0  0  0  0
  -25.4710  -16.1730    3.7790 C   0  0  0  0  0  3  0  0  0  0  0  0
  -25.1900  -17.5200    4.0840 C   0  0  0  0  0  3  0  0  0  0  0  0
  -24.0310  -18.1330    3.5730 C   0  0  0  0  0  0  0  0  0  0  0  0
  -23.1480  -17.4010    2.7600 C   0  0  0  0  0  3  0  0  0  0  0  0
  -23.4250  -16.0560    2.4550 C   0  0  0  0  0  0  0  0  0  0  0  0
  -22.5830  -15.3610    1.6540 F   0  0  0  0  0  0  0  0  0  0  0  0
  -23.7650  -19.4280    3.8600 F   0  0  0  0  0  0  0  0  0  0  0  0
  -28.2520   -8.4910    3.8900 C   0  0  0  0  0  0  0  0  0  0  0  0
  -28.7420   -8.2440    2.6800 N   0  0  0  0  0  0  0  0  0  0  0  0
  -27.2300   -7.9340    4.2880 O   0  0  0  0  0  0  0  0  0  0  0  0
  -29.5910   -8.6860    2.3590 H   0  0  0  0  0  0  0  0  0  0  0  0
  -28.2620   -7.6030    2.0640 H   0  0  0  0  0  0  0  0  0  0  0  0
  -30.6500   -7.8830    5.9530 N   0  0  0  0  0  0  0  0  0  0  0  0
  -30.3660   -7.0040    5.5340 H   0  0  0  0  0  0  0  0  0  0  0  0
  -31.3350   -7.7670    6.6890 H   0  0  0  0  0  0  0  0  0  0  0  0
  -39.3240  -11.3350    9.0710 C   0  0  0  0  0  2  0  0  0  0  0  0
  -39.8420  -12.7160    9.1920 N   0  0  0  0  0  4  0  0  0  0  0  0
  -40.3220  -12.9630    8.3410 H   0  0  0  0  0  0  0  0  0  0  0  0
  -40.5080  -12.7390    9.9460 H   0  0  0  0  0  0  0  0  0  0  0  0
  -38.7750  -13.7130    9.4470 C   0  0  0  0  0  2  0  0  0  0  0  0
  -38.2960  -14.4590    8.1860 C   0  0  0  0  0  2  0  0  0  0  0  0
  -37.6280  -15.8190    8.4710 C   0  0  0  0  0  2  0  0  0  0  0  0
  -36.5910  -15.6520    9.4290 O   0  0  0  0  0  0  0  0  0  0  0  0
  -36.1480  -14.6160   16.4460 C   0  0  0  0  0  0  0  0  0  0  0  0
  -36.8030  -16.1620   10.6840 C   0  0  0  0  0  0  0  0  0  0  0  0
  -36.8630  -16.8780   15.7370 C   0  0  0  0  0  3  0  0  0  0  0  0
  -37.4070  -17.1390   13.2590 C   0  0  0  0  0  0  0  0  0  0  0  0
  -37.3100  -14.8430   14.2540 C   0  0  0  0  0  2  0  0  0  0  0  0
  -37.2020  -15.7670   13.0600 C   0  0  0  0  0  0  0  0  0  0  0  0
  -36.9100  -15.2730   11.7730 C   0  0  0  0  0  3  0  0  0  0  0  0
  -36.9990  -17.5440   10.8920 C   0  0  0  0  0  3  0  0  0  0  0  0
  -37.3010  -18.0350   12.1790 C   0  0  0  0  0  3  0  0  0  0  0  0
  -37.7420  -17.5790   14.6650 C   0  0  0  0  0  2  0  0  0  0  0  0
  -36.7300  -15.4040   15.4970 N   0  0  0  0  0  0  0  0  0  0  0  0
  -35.7680  -15.0880   17.5260 O   0  0  0  0  0  0  0  0  0  0  0  0
  -35.5060  -17.6120   15.8120 C   0  0  0  0  0  0  0  0  0  0  0  0
  -34.6920  -17.4700   14.7540 N   0  0  0  0  0  0  0  0  0  0  0  0
  -35.1930  -18.2610   16.8130 O   0  0  0  0  0  0  0  0  0  0  0  0
  -35.0270  -16.9270   13.9700 H   0  0  0  0  0  0  0  0  0  0  0  0
  -32.8370  -20.2880   13.4640 C   0  0  0  0  0  0  0  0  0  0  0  0
  -33.3500  -18.0330   14.6190 C   0  0  0  0  0  3  0  0  0  0  0  0
  -32.5840  -17.3760   13.4490 C   0  0  0  0  0  2  0  0  0  0  0  0
  -32.7250  -18.1410   12.1290 C   0  0  0  0  0  2  0  0  0  0  0  0
  -32.2060  -19.5730   12.2810 C   0  0  0  0  0  2  0  0  0  0  0  0
  -33.3880  -19.5640   14.5540 C   0  0  0  0  0  0  0  0  0  0  0  0
  -33.9960  -20.2760   15.6120 C   0  0  0  0  0  3  0  0  0  0  0  0
  -34.0560  -21.6820   15.5930 C   0  0  0  0  0  3  0  0  0  0  0  0
  -33.4930  -22.3940   14.5190 C   0  0  0  0  0  3  0  0  0  0  0  0
  -32.8820  -21.6970   13.4610 C   0  0  0  0  0  3  0  0  0  0  0  0
  -35.9560  -13.0810   16.2310 C   0  0  0  0  0  3  0  0  0  0  0  0
  -37.2300  -12.5400   15.7420 N   0  0  0  0  0  0  0  0  0  0  0  0
  -37.6960  -11.3170   16.0300 C   0  0  0  0  0  3  0  0  0  0  0  0
  -37.1230  -10.5460   16.8050 O   0  0  0  0  0  0  0  0  0  0  0  0
  -37.7280  -13.0970   15.0630 H   0  0  0  0  0  0  0  0  0  0  0  0
  -39.9960  -12.0520   15.3370 C   0  0  0  0  0  1  0  0  0  0  0  0
  -39.0070  -10.8780   15.3500 C   0  0  0  0  0  3  0  0  0  0  0  0
  -37.6050   -9.5680   13.8170 C   0  0  0  0  0  1  0  0  0  0  0  0
  -38.8150  -10.3720   13.9730 N   0  0  0  0  0  0  0  0  0  0  0  0
  -39.6100   -9.8080   13.6830 H   0  0  0  0  0  0  0  0  0  0  0  0
  -35.4890  -12.3230   17.5350 C   0  0  1  0  0  0  0  0  0  0  0  0
  -34.1370  -12.8210   18.0940 C   0  0  0  0  0  1  0  0  0  0  0  0
  -35.3610  -10.8050   17.2620 C   0  0  0  0  0  2  0  0  0  0  0  0
  -36.5550  -12.4840   18.6460 C   0  0  0  0  0  1  0  0  0  0  0  0
  1  2  1  0
  2  3  1  0
  4  5  1  1
  4  3  1  0
  6  4  1  0
  7  6  1  0
  8  7  1  0
  9 10  1  0
 10  8  1  0
 11  4  1  0
 12 21  1  0
 12 11  1  0
 13 20  2  0
 15 14  1  0
 16 15  1  0
 17 26  1  0
 17 16  1  0
 17 18  1  0
 18 19  1  0
 19 13  1  0
 19 14  1  0
 21 13  1  0
 22 21  1  0
 23 48  1  0
 23 26  1  0
 24 25  1  0
 24 23  2  0
 25 27  2  0
 27 26  1  0
 28 29  1  0
 28 25  1  0
 30 29  2  0
 31 30  1  0
 32 31  2  0
 32 33  1  0
 33 28  2  0
 34 35  1  0
 34 31  1  0
 35 36  1  0
 36 37  2  0
 38 42  1  0
 38 37  1  0
 39 38  2  0
 40 39  1  0
 40 35  2  0
 41 40  1  0
 43 45  2  0
 43 24  1  0
 44 43  1  0
 46 44  1  0
 47 44  1  0
 48 50  1  0
 49 48  1  0
 51 52  1  0
 51  1  1  0
 52 55  1  0
 52 54  1  0
 53 52  1  0
 56 57  1  0
 56 55  1  0
 57 58  1  0
 58 60  1  0
 59 70  2  0
 60 66  2  0
 60 65  1  0
 61 71  1  0
 62 68  1  0
 63 69  1  0
 64 62  1  0
 64 63  1  0
 65 64  2  0
 66 67  1  0
 67 62  2  0
 68 61  1  0
 69 61  1  0
 69 59  1  0
 71 73  2  0
 72 71  1  0
 74 72  1  0
 75 80  1  0
 76 72  1  0
 77 76  1  0
 78 79  1  0
 78 77  1  0
 79 75  1  0
 80 76  1  0
 80 81  2  0
 82 81  1  0
 83 82  2  0
 84 75  2  0
 84 83  1  0
 85 59  1  0
 85 95  1  0
 86 87  1  0
 86 85  1  0
 87 91  1  0
 87 88  1  0
 88 97  1  0
 89 86  1  0
 91 90  1  0
 92 93  1  0
 93 91  1  0
 94 93  1  0
 95 96  1  1
 95 98  1  0
 97 95  1  0
M  ISO  4  13 100  21 100  57 101  58 101
M  END
>  <TORSDO>  (4) 
F 30

>  <SCORE>  (4) 
0.222

>  <name>  (4) 
3

>  <ligand_id>  (4) 
3

>  <original_smiles>  (4) 
[H]c1c([H])c([H])c2c(c1[H])C([H])([H])C([H])([H])C([H])([H])C2([H])N([H])C(=O)C1([H])N(C(=O)C([H])(N([H])C(=O)C([H])(N([H])C([H])([H])[H])C([H])([H])[H])C(C([H])([H])[H])(C([H])([H])[H])C([H])([H])[H])C([H])([H])c2c([H])c(OC([H])([H])C([H])([H])C([H])([H])[N+]([H])([H])C([H])([H])C([H])([H])C([H])([H])C([H])([H])[N+]([H])(C([H])([H])C([H])([H])N([H])C(=O)N3C([H])([H])C([H])([H])C([H])([H])C([H])(n4nc(-c5c([H])c([H])c(Oc6c([H])c([H])c(F)c([H])c6F)c([H])c5[H])c(C(=O)N([H])[H])c4N([H])[H])C3([H])[H])C([H])([H])C([H])([H])C([H])([H])C([H])([H])C([H])([H])[H])c([H])c([H])c2C1([H])[H]

>  <smiles>  (4) 
[H]c1c([H])c([H])c2c(c1[H])C([H])([H])C([H])([H])C([H])([H])C2([H])N([H])C(=O)C1([H])N(C(=O)C([H])(N([H])C(=O)C([H])(N([H])C([H])([H])[H])C([H])([H])[H])C(C([H])([H])[H])(C([H])([H])[H])C([H])([H])[H])C([H])([H])c2c([H])c(OC([H])([H])C([H])([H])C([H])([H])[N+]([H])([H])C([H])([H])C([H])([H])C([H])([H])C([H])([H])[N+]([H])(C([H])([H])C([H])([H])N([H])C(=O)N3C([H])([H])C([H])([H])C([H])([H])C([H])(n4nc(-c5c([H])c([H])c(Oc6c([H])c([H])c(F)c([H])c6F)c([H])c5[H])c(C(=O)N([H])[H])c4N([H])[H])C3([H])[H])C([H])([H])C([H])([H])C([H])([H])C([H])([H])C([H])([H])[H])c([H])c([H])c2C1([H])[H]

$$$$
4:0:0
     RDKit          3D

 97106  0  0  1  0  0  0  0  0999 V2000
  -30.0860  -23.0620   19.8010 C   0  0  0  0  0  2  0  0  0  0  0  0
  -29.3410  -18.1740   20.4860 C   0  0  0  0  0  2  0  0  0  0  0  0
  -30.5890  -21.6250   20.0050 C   0  0  0  0  0  2  0  0  0  0  0  0
  -29.0020  -19.5560   19.8730 C   0  0  0  0  0  2  0  0  0  0  0  0
  -29.9020  -20.3660   22.1160 C   0  0  0  0  0  2  0  0  0  0  0  0
  -28.3060  -21.8510   20.7920 C   0  0  0  0  0  2  0  0  0  0  0  0
  -30.9090  -19.1760   22.1960 C   0  0  0  0  0  3  0  0  0  0  0  0
  -28.9430  -23.2500   20.8000 C   0  0  0  0  0  3  0  0  0  0  0  0
  -30.7770  -18.1340   21.0390 C   0  0  0  0  0  3  0  0  0  0  0  0
  -29.4590  -20.8090   20.6950 C   0  0  1  0  0  0  0  0  0  0  0  0
  -32.3610  -19.6310   22.4300 C   0  0  0  0  0  0  0  0  0  0  0  0
  -32.7010  -19.9710   23.6670 N   0  0  0  0  0  0  0  0  0  0  0  0
  -33.1900  -19.6500   21.5210 O   0  0  0  0  0  0  0  0  0  0  0  0
  -32.0160  -19.9500   24.4110 H   0  0  0  0  0  0  0  0  0  0  0  0
  -33.6490  -20.2550   23.8770 H   0  0  0  0  0  0  0  0  0  0  0  0
  -27.9910  -24.4260   20.4390 C   0  0  0  0  0  2  0  0  0  0  0  0
  -28.5290  -25.8220   20.8410 C   0  0  0  0  0  2  0  0  0  0  0  0
  -28.3000  -26.8430   19.8640 O   0  0  0  0  0  0  0  0  0  0  0  0
  -24.5320  -31.9360   23.1550 C   0  0  0  0  0  0  0  0  0  0  0  0
  -27.1230  -27.5450   19.9690 C   0  0  0  0  0  0  0  0  0  0  0  0
  -23.2960  -30.5540   21.5160 C   0  0  0  0  0  3  0  0  0  0  0  0
  -24.7250  -29.0370   20.0440 C   0  0  0  0  0  0  0  0  0  0  0  0
  -25.8140  -30.9260   21.2700 C   0  0  0  0  0  2  0  0  0  0  0  0
  -25.8910  -29.5600   20.6170 C   0  0  0  0  0  0  0  0  0  0  0  0
  -27.0950  -28.8180   20.5790 C   0  0  0  0  0  3  0  0  0  0  0  0
  -25.9440  -27.0310   19.3930 C   0  0  0  0  0  3  0  0  0  0  0  0
  -24.7440  -27.7710   19.4320 C   0  0  0  0  0  3  0  0  0  0  0  0
  -23.4810  -29.8930   20.1230 C   0  0  0  0  0  2  0  0  0  0  0  0
  -24.5660  -31.1540   22.0400 N   0  0  0  0  0  0  0  0  0  0  0  0
  -23.4640  -32.2000   23.7220 O   0  0  0  0  0  0  0  0  0  0  0  0
  -22.6690  -29.5170   22.4740 C   0  0  0  0  0  0  0  0  0  0  0  0
  -21.3500  -29.3000   22.3410 N   0  0  0  0  0  0  0  0  0  0  0  0
  -23.3630  -28.9090   23.2940 O   0  0  0  0  0  0  0  0  0  0  0  0
  -20.8510  -29.8440   21.6520 H   0  0  0  0  0  0  0  0  0  0  0  0
  -18.0100  -27.9940   22.7830 C   0  0  0  0  0  0  0  0  0  0  0  0
  -20.5520  -28.3430   23.1060 C   0  0  0  0  0  3  0  0  0  0  0  0
  -20.7190  -26.9100   22.5480 C   0  0  0  0  0  2  0  0  0  0  0  0
  -19.6500  -26.5390   21.5160 C   0  0  0  0  0  2  0  0  0  0  0  0
  -18.2500  -26.6430   22.1300 C   0  0  0  0  0  2  0  0  0  0  0  0
  -19.0930  -28.7990   23.2260 C   0  0  0  0  0  0  0  0  0  0  0  0
  -18.8200  -30.0620   23.7960 C   0  0  0  0  0  3  0  0  0  0  0  0
  -17.4950  -30.5200   23.9310 C   0  0  0  0  0  3  0  0  0  0  0  0
  -16.4260  -29.7110   23.5070 C   0  0  0  0  0  3  0  0  0  0  0  0
  -16.6850  -28.4510   22.9380 C   0  0  0  0  0  3  0  0  0  0  0  0
  -25.8320  -32.5600   23.7560 C   0  0  0  0  0  3  0  0  0  0  0  0
  -26.3790  -31.7710   25.0070 C   0  0  1  0  0  0  0  0  0  0  0  0
  -25.3090  -31.5080   26.0930 C   0  0  0  0  0  1  0  0  0  0  0  0
  -26.9610  -30.4050   24.5760 C   0  0  0  0  0  1  0  0  0  0  0  0
  -27.5380  -32.5620   25.6610 C   0  0  0  0  0  1  0  0  0  0  0  0
  -25.5310  -33.9530   24.1090 N   0  0  0  0  0  0  0  0  0  0  0  0
  -25.8670  -35.0150   23.3630 C   0  0  0  0  0  0  0  0  0  0  0  0
  -26.5340  -34.9230   22.3280 O   0  0  0  0  0  0  0  0  0  0  0  0
  -24.9360  -34.0970   24.9100 H   0  0  0  0  0  0  0  0  0  0  0  0
  -24.1590  -36.8300   23.0240 C   0  0  0  0  0  1  0  0  0  0  0  0
  -25.3880  -36.3980   23.8410 C   0  0  0  0  0  3  0  0  0  0  0  0
  -27.5180  -37.2520   24.7200 C   0  0  0  0  0  1  0  0  0  0  0  0
  -26.4310  -37.4440   23.7610 N   0  0  0  0  0  0  0  0  0  0  0  0
  -26.0310  -38.3650   23.9200 H   0  0  0  0  0  0  0  0  0  0  0  0
  -31.3060  -16.7320   21.4910 C   0  0  0  0  0  2  0  0  0  0  0  0
  -31.2300  -14.6340   20.0850 C   0  0  0  0  0  0  0  0  0  0  0  0
  -30.8370  -12.4670   18.9520 C   0  0  0  0  0  2  0  0  0  0  0  0
  -29.8370  -12.6300   17.7930 C   0  0  0  0  0  2  0  0  0  0  0  0
  -28.3830  -12.5310   18.2960 C   0  0  0  0  0  2  0  0  0  0  0  0
  -28.1200  -13.4250   19.5360 C   0  0  0  0  0  3  0  0  0  0  0  0
  -29.2130  -13.2050   20.6010 C   0  0  0  0  0  2  0  0  0  0  0  0
  -30.5170  -13.4800   19.9690 N   0  0  0  0  0  0  0  0  0  0  0  0
  -32.2920  -14.8360   19.4920 O   0  0  0  0  0  0  0  0  0  0  0  0
  -30.6740  -15.5530   20.8880 N   0  0  0  0  0  0  0  0  0  0  0  0
  -29.7720  -15.2960   21.2660 H   0  0  0  0  0  0  0  0  0  0  0  0
  -25.7980  -14.1300   20.3980 C   0  0  0  0  0  0  0  0  0  0  0  0
  -24.7150  -13.3990   20.8060 C   0  0  0  0  0  0  0  0  0  0  0  0
  -25.1060  -12.0290   20.7120 C   0  0  0  0  0  0  0  0  0  0  0  0
  -26.7830  -13.2060   20.0820 N   0  0  0  0  0  0  0  0  0  0  0  0
  -26.3710  -11.9350   20.3260 N   0  0  0  0  0  0  0  0  0  0  0  0
  -24.3310  -10.7980   20.9100 C   0  0  0  0  0  0  0  0  0  0  0  0
  -24.7190   -9.8240   21.8570 C   0  0  0  0  0  3  0  0  0  0  0  0
  -23.9480   -8.6560   22.0410 C   0  0  0  0  0  3  0  0  0  0  0  0
  -22.7750   -8.4520   21.2770 C   0  0  0  0  0  0  0  0  0  0  0  0
  -22.4050   -9.4140   20.3190 C   0  0  0  0  0  3  0  0  0  0  0  0
  -23.1760  -10.5730   20.1340 C   0  0  0  0  0  3  0  0  0  0  0  0
  -21.9790   -7.3370   21.3690 O   0  0  0  0  0  0  0  0  0  0  0  0
  -21.8230   -6.6600   22.5520 C   0  0  0  0  0  0  0  0  0  0  0  0
  -21.2910   -7.2810   23.7040 C   0  0  0  0  0  3  0  0  0  0  0  0
  -21.0840   -6.5290   24.8770 C   0  0  0  0  0  3  0  0  0  0  0  0
  -21.3980   -5.1580   24.9000 C   0  0  0  0  0  0  0  0  0  0  0  0
  -21.9240   -4.5360   23.7530 C   0  0  0  0  0  3  0  0  0  0  0  0
  -22.1320   -5.2850   22.5820 C   0  0  0  0  0  0  0  0  0  0  0  0
  -22.6180   -4.6760   21.4740 F   0  0  0  0  0  0  0  0  0  0  0  0
  -21.1930   -4.4330   26.0240 F   0  0  0  0  0  0  0  0  0  0  0  0
  -23.3610  -13.9340   21.1750 C   0  0  0  0  0  0  0  0  0  0  0  0
  -22.6570  -13.2520   22.0730 N   0  0  0  0  0  0  0  0  0  0  0  0
  -22.9380  -14.9880   20.7020 O   0  0  0  0  0  0  0  0  0  0  0  0
  -23.0110  -12.3980   22.4760 H   0  0  0  0  0  0  0  0  0  0  0  0
  -21.7490  -13.5910   22.3620 H   0  0  0  0  0  0  0  0  0  0  0  0
  -26.0240  -15.4950   20.2500 N   0  0  0  0  0  0  0  0  0  0  0  0
  -25.3030  -16.1880   20.4250 H   0  0  0  0  0  0  0  0  0  0  0  0
  -26.8820  -15.8990   19.8960 H   0  0  0  0  0  0  0  0  0  0  0  0
  1  3  1  0
  1  8  1  0
  2  9  1  0
 10  3  1  6
  4  2  1  0
  5  7  1  0
  6  8  1  0
  7 11  1  0
  8 16  1  0
  9 59  1  0
  9  7  1  0
 10  4  1  0
 10  6  1  0
 10  5  1  0
 11 12  1  0
 12 15  1  0
 12 14  1  0
 13 11  2  0
 16 17  1  0
 18 20  1  0
 18 17  1  0
 19 30  2  0
 20 25  1  0
 21 29  1  0
 21 31  1  0
 22 28  1  0
 22 24  1  0
 23 29  1  0
 24 23  1  0
 25 24  2  0
 26 27  1  0
 26 20  2  0
 27 22  2  0
 28 21  1  0
 29 19  1  0
 31 33  2  0
 32 31  1  0
 34 32  1  0
 35 44  2  0
 35 40  1  0
 36 32  1  0
 36 40  1  0
 37 36  1  0
 38 39  1  0
 38 37  1  0
 39 35  1  0
 40 41  2  0
 41 42  1  0
 43 42  2  0
 44 43  1  0
 45 19  1  0
 45 50  1  0
 45 46  1  0
 46 49  1  1
 46 47  1  0
 48 46  1  0
 50 53  1  0
 51 55  1  0
 51 50  1  0
 52 51  2  0
 55 54  1  0
 57 55  1  0
 57 58  1  0
 57 56  1  0
 60 68  1  0
 61 66  1  0
 62 63  1  0
 62 61  1  0
 64 63  1  0
 64 73  1  0
 64 65  1  0
 66 60  1  0
 66 65  1  0
 67 60  2  0
 68 69  1  0
 68 59  1  0
 70 71  2  0
 71 90  1  0
 72 71  1  0
 72 75  1  0
 73 74  1  0
 73 70  1  0
 74 72  2  0
 75 76  1  0
 76 77  2  0
 78 81  1  0
 78 77  1  0
 79 78  2  0
 80 79  1  0
 80 75  2  0
 81 82  1  0
 82 87  2  0
 82 83  1  0
 83 84  2  0
 84 85  1  0
 85 89  1  0
 86 85  2  0
 87 86  1  0
 88 87  1  0
 90 91  1  0
 91 94  1  0
 91 93  1  0
 92 90  2  0
 95 70  1  0
 95 96  1  0
 97 95  1  0
M  ISO  4  17 101  18 101  60 100  68 100
M  END
>  <TORSDO>  (5) 
F 20

>  <SCORE>  (5) 
-13.235

>  <name>  (5) 
4

>  <ligand_id>  (5) 
4

>  <original_smiles>  (5) 
[H]c1c([H])c([H])c2c(c1[H])C([H])([H])C([H])([H])C([H])([H])C2([H])N([H])C(=O)C1([H])N(C(=O)C([H])(N([H])C(=O)C([H])(N([H])C([H])([H])[H])C([H])([H])[H])C(C([H])([H])[H])(C([H])([H])[H])C([H])([H])[H])C([H])([H])c2c([H])c(OC([H])([H])C([H])([H])C3([H])C([H])([H])C([H])([H])C4(C([H])([H])C([H])([H])C([H])(C([H])([H])N([H])C(=O)N5C([H])([H])C([H])([H])C([H])([H])C([H])(n6nc(-c7c([H])c([H])c(Oc8c([H])c([H])c(F)c([H])c8F)c([H])c7[H])c(C(=O)N([H])[H])c6N([H])[H])C5([H])[H])C([H])(C(=O)N([H])[H])C4([H])[H])C3([H])[H])c([H])c([H])c2C1([H])[H]

>  <smiles>  (5) 
[H]c1c([H])c([H])c2c(c1[H])C([H])([H])C([H])([H])C([H])([H])C2([H])N([H])C(=O)C1([H])N(C(=O)C([H])(N([H])C(=O)C([H])(N([H])C([H])([H])[H])C([H])([H])[H])C(C([H])([H])[H])(C([H])([H])[H])C([H])([H])[H])C([H])([H])c2c([H])c(OC([H])([H])C([H])([H])C3([H])C([H])([H])C([H])([H])C4(C([H])([H])C([H])([H])C([H])(C([H])([H])N([H])C(=O)N5C([H])([H])C([H])([H])C([H])([H])C([H])(n6nc(-c7c([H])c([H])c(Oc8c([H])c([H])c(F)c([H])c8F)c([H])c7[H])c(C(=O)N([H])[H])c6N([H])[H])C5([H])[H])C([H])(C(=O)N([H])[H])C4([H])[H])C3([H])[H])c([H])c([H])c2C1([H])[H]

$$$$
5:0:0
     RDKit          3D

 97106  0  0  1  0  0  0  0  0999 V2000
  -29.8570  -23.2250   21.2190 C   0  0  0  0  0  3  0  0  0  0  0  0
  -29.5660  -24.4670   20.6030 C   0  0  0  0  0  3  0  0  0  0  0  0
  -29.2580  -23.3170   18.5080 C   0  0  0  0  0  3  0  0  0  0  0  0
  -29.9040  -21.9960   20.5020 C   0  0  0  0  0  0  0  0  0  0  0  0
  -29.2750  -24.5300   19.2300 C   0  0  0  0  0  0  0  0  0  0  0  0
  -29.5390  -22.0680   19.1200 C   0  0  0  0  0  0  0  0  0  0  0  0
  -29.3790  -20.8440   18.2300 C   0  0  0  0  0  1  0  0  0  0  0  0
  -31.7560  -20.4770   21.5470 C   0  0  0  0  0  2  0  0  0  0  0  0
  -32.2440  -19.1810   20.8860 C   0  0  0  0  0  2  0  0  0  0  0  0
  -29.9270  -19.3040   20.5390 C   0  0  0  0  0  2  0  0  0  0  0  0
  -30.2170  -20.6640   21.2920 C   0  0  2  0  0  0  0  0  0  0  0  0
  -31.0480  -18.2260   20.7820 C   0  0  2  0  0  0  0  0  0  0  0  0
  -28.3600  -21.7710   22.9030 C   0  0  0  0  0  1  0  0  0  0  0  0
  -29.4490  -20.7010   22.6620 C   0  0  0  0  0  2  0  0  0  0  0  0
  -31.5420  -17.7590   23.3960 C   0  0  0  0  0  1  0  0  0  0  0  0
  -30.8320  -17.3730   22.0870 C   0  0  0  0  0  2  0  0  0  0  0  0
  -31.2650  -17.2700   19.5260 C   0  0  0  0  0  2  0  0  0  0  0  0
  -31.6100  -14.7580   19.3430 C   0  0  0  0  0  0  0  0  0  0  0  0
  -31.2140  -12.4450   18.5740 C   0  0  0  0  0  2  0  0  0  0  0  0
  -30.1870  -12.5050   17.4240 C   0  0  0  0  0  2  0  0  0  0  0  0
  -28.7430  -12.5070   17.9640 C   0  0  0  0  0  2  0  0  0  0  0  0
  -28.5330  -13.5240   19.1200 C   0  0  0  0  0  3  0  0  0  0  0  0
  -29.6600  -13.4040   20.1700 C   0  0  0  0  0  2  0  0  0  0  0  0
  -30.9400  -13.5790   19.4660 N   0  0  0  0  0  0  0  0  0  0  0  0
  -32.7150  -14.8480   18.7990 O   0  0  0  0  0  0  0  0  0  0  0  0
  -30.8960  -15.8490   19.6950 N   0  0  0  0  0  0  0  0  0  0  0  0
  -29.9880  -15.6710   20.0960 H   0  0  0  0  0  0  0  0  0  0  0  0
  -26.3080  -14.3710   20.0920 C   0  0  0  0  0  0  0  0  0  0  0  0
  -25.2000  -13.7110   20.5480 C   0  0  0  0  0  0  0  0  0  0  0  0
  -25.4940  -12.3170   20.4360 C   0  0  0  0  0  0  0  0  0  0  0  0
  -27.2120  -13.3870   19.7290 N   0  0  0  0  0  0  0  0  0  0  0  0
  -26.7330  -12.1440   19.9920 N   0  0  0  0  0  0  0  0  0  0  0  0
  -24.6500  -11.1400   20.6720 C   0  0  0  0  0  0  0  0  0  0  0  0
  -25.0200  -10.1420   21.5980 C   0  0  0  0  0  3  0  0  0  0  0  0
  -24.1840   -9.0260   21.8200 C   0  0  0  0  0  3  0  0  0  0  0  0
  -22.9620   -8.9030   21.1180 C   0  0  0  0  0  0  0  0  0  0  0  0
  -22.6080   -9.8900   20.1820 C   0  0  0  0  0  3  0  0  0  0  0  0
  -23.4430  -10.9970   19.9570 C   0  0  0  0  0  3  0  0  0  0  0  0
  -22.1000   -7.8430   21.2500 O   0  0  0  0  0  0  0  0  0  0  0  0
  -21.9100   -7.2150   22.4540 C   0  0  0  0  0  0  0  0  0  0  0  0
  -21.5090   -7.9220   23.6080 C   0  0  0  0  0  3  0  0  0  0  0  0
  -21.2550   -7.2270   24.8080 C   0  0  0  0  0  3  0  0  0  0  0  0
  -21.3940   -5.8270   24.8540 C   0  0  0  0  0  0  0  0  0  0  0  0
  -21.7860   -5.1200   23.7030 C   0  0  0  0  0  3  0  0  0  0  0  0
  -22.0400   -5.8120   22.5070 C   0  0  0  0  0  0  0  0  0  0  0  0
  -22.3980   -5.1240   21.3960 F   0  0  0  0  0  0  0  0  0  0  0  0
  -21.1420   -5.1580   26.0040 F   0  0  0  0  0  0  0  0  0  0  0  0
  -23.9030  -14.3330   20.9810 C   0  0  0  0  0  0  0  0  0  0  0  0
  -23.2330  -13.7370   21.9600 N   0  0  0  0  0  0  0  0  0  0  0  0
  -23.4990  -15.3810   20.4790 O   0  0  0  0  0  0  0  0  0  0  0  0
  -23.5740  -12.8880   22.3870 H   0  0  0  0  0  0  0  0  0  0  0  0
  -22.3670  -14.1400   22.2910 H   0  0  0  0  0  0  0  0  0  0  0  0
  -26.6150  -15.7200   19.9330 N   0  0  0  0  0  0  0  0  0  0  0  0
  -25.9570  -16.4550   20.1660 H   0  0  0  0  0  0  0  0  0  0  0  0
  -27.4700  -16.0730   19.5240 H   0  0  0  0  0  0  0  0  0  0  0  0
  -29.0990  -25.8720   18.5030 C   0  0  0  0  0  2  0  0  0  0  0  0
  -28.9420  -27.0370   19.3300 O   0  0  0  0  0  0  0  0  0  0  0  0
  -25.0510  -31.4860   23.2720 C   0  0  0  0  0  0  0  0  0  0  0  0
  -27.7230  -27.6820   19.4410 C   0  0  0  0  0  0  0  0  0  0  0  0
  -23.8300  -30.3310   21.4530 C   0  0  0  0  0  3  0  0  0  0  0  0
  -25.2790  -29.0900   19.7570 C   0  0  0  0  0  0  0  0  0  0  0  0
  -26.3350  -30.7970   21.2500 C   0  0  0  0  0  2  0  0  0  0  0  0
  -26.4370  -29.5500   20.3950 C   0  0  0  0  0  0  0  0  0  0  0  0
  -27.6560  -28.8520   20.2350 C   0  0  0  0  0  3  0  0  0  0  0  0
  -26.5410  -27.2320   18.8100 C   0  0  0  0  0  3  0  0  0  0  0  0
  -25.3270  -27.9290   18.9680 C   0  0  0  0  0  3  0  0  0  0  0  0
  -24.0110  -29.8840   19.9770 C   0  0  0  0  0  2  0  0  0  0  0  0
  -25.0900  -30.8810   22.0510 N   0  0  0  0  0  0  0  0  0  0  0  0
  -23.9820  -31.6270   23.8810 O   0  0  0  0  0  0  0  0  0  0  0  0
  -23.2400  -29.1500   22.2530 C   0  0  0  0  0  0  0  0  0  0  0  0
  -21.9230  -28.9330   22.1140 N   0  0  0  0  0  0  0  0  0  0  0  0
  -23.9620  -28.4340   22.9520 O   0  0  0  0  0  0  0  0  0  0  0  0
  -21.3970  -29.5600   21.5220 H   0  0  0  0  0  0  0  0  0  0  0  0
  -18.6230  -27.4810   22.4340 C   0  0  0  0  0  0  0  0  0  0  0  0
  -21.1640  -27.8480   22.7320 C   0  0  0  0  0  3  0  0  0  0  0  0
  -21.3450  -26.5370   21.9340 C   0  0  0  0  0  2  0  0  0  0  0  0
  -20.2410  -26.3040   20.9000 C   0  0  0  0  0  2  0  0  0  0  0  0
  -18.8770  -26.2450   21.5910 C   0  0  0  0  0  2  0  0  0  0  0  0
  -19.7000  -28.2420   22.9580 C   0  0  0  0  0  0  0  0  0  0  0  0
  -19.4170  -29.4030   23.7120 C   0  0  0  0  0  3  0  0  0  0  0  0
  -18.0900  -29.8050   23.9380 C   0  0  0  0  0  3  0  0  0  0  0  0
  -17.0250  -29.0420   23.4260 C   0  0  0  0  0  3  0  0  0  0  0  0
  -17.2930  -27.8810   22.6800 C   0  0  0  0  0  3  0  0  0  0  0  0
  -26.3410  -32.0460   23.9520 C   0  0  0  0  0  3  0  0  0  0  0  0
  -26.0090  -33.3660   24.5060 N   0  0  0  0  0  0  0  0  0  0  0  0
  -26.3620  -34.5310   23.9520 C   0  0  0  0  0  0  0  0  0  0  0  0
  -27.0680  -34.6080   22.9430 O   0  0  0  0  0  0  0  0  0  0  0  0
  -25.3840  -33.3800   25.2990 H   0  0  0  0  0  0  0  0  0  0  0  0
  -24.6450  -36.3660   23.8320 C   0  0  0  0  0  1  0  0  0  0  0  0
  -25.8470  -35.8210   24.6200 C   0  0  0  0  0  3  0  0  0  0  0  0
  -27.9350  -36.5330   25.6940 C   0  0  0  0  0  1  0  0  0  0  0  0
  -26.8790  -36.8720   24.7460 N   0  0  0  0  0  0  0  0  0  0  0  0
  -26.4640  -37.7540   25.0340 H   0  0  0  0  0  0  0  0  0  0  0  0
  -26.9180  -31.0980   25.0740 C   0  0  1  0  0  0  0  0  0  0  0  0
  -25.8630  -30.6470   26.1110 C   0  0  0  0  0  1  0  0  0  0  0  0
  -27.5350  -29.8240   24.4490 C   0  0  0  0  0  1  0  0  0  0  0  0
  -28.0600  -31.8160   25.8320 C   0  0  0  0  0  1  0  0  0  0  0  0
  2  1  1  0
  3  6  2  0
  3  5  1  0
  4  1  2  0
  4 11  1  0
  5  2  2  0
  6  4  1  0
  7  6  1  0
  9  8  1  0
 10 12  1  0
 10 11  1  0
 11  8  1  0
 11 14  1  1
 12 17  1  6
 12  9  1  0
 12 16  1  0
 14 13  1  0
 16 15  1  0
 17 26  1  0
 18 24  1  0
 18 26  1  0
 19 24  1  0
 20 21  1  0
 20 19  1  0
 22 21  1  0
 22 31  1  0
 22 23  1  0
 24 23  1  0
 25 18  2  0
 26 27  1  0
 28 29  2  0
 29 48  1  0
 30 29  1  0
 30 33  1  0
 31 32  1  0
 31 28  1  0
 32 30  2  0
 33 34  1  0
 34 35  2  0
 36 39  1  0
 36 35  1  0
 37 36  2  0
 38 37  1  0
 38 33  2  0
 39 40  1  0
 40 45  2  0
 40 41  1  0
 41 42  2  0
 42 43  1  0
 43 47  1  0
 44 43  2  0
 45 44  1  0
 46 45  1  0
 48 49  1  0
 49 52  1  0
 49 51  1  0
 50 48  2  0
 53 28  1  0
 53 54  1  0
 55 53  1  0
 56  5  1  0
 56 57  1  0
 57 59  1  0
 58 69  2  0
 59 64  1  0
 60 68  1  0
 60 70  1  0
 61 67  1  0
 61 63  1  0
 62 68  1  0
 63 62  1  0
 64 63  2  0
 65 66  1  0
 65 59  2  0
 66 61  2  0
 67 60  1  0
 68 58  1  0
 70 72  2  0
 71 70  1  0
 73 71  1  0
 74 83  2  0
 74 79  1  0
 75 71  1  0
 75 79  1  0
 76 75  1  0
 77 78  1  0
 77 76  1  0
 78 74  1  0
 79 80  2  0
 80 81  1  0
 82 81  2  0
 83 82  1  0
 84 58  1  0
 84 85  1  0
 84 94  1  0
 85 88  1  0
 86 85  1  0
 86 90  1  0
 87 86  2  0
 90 89  1  0
 90 92  1  0
 92 93  1  0
 92 91  1  0
 94 97  1  1
 94 95  1  0
 96 94  1  0
M  ISO  4  18 100  26 100  56 101  57 101
M  END
>  <TORSDO>  (6) 
F 21

>  <SCORE>  (6) 
-7.676

>  <name>  (6) 
5

>  <ligand_id>  (6) 
5

>  <original_smiles>  (6) 
[H]c1c([H])c([H])c2c(c1[H])C([H])([H])C([H])([H])C([H])([H])C2([H])N([H])C(=O)C1([H])N(C(=O)C([H])(N([H])C(=O)C([H])(N([H])C([H])([H])[H])C([H])([H])[H])C(C([H])([H])[H])(C([H])([H])[H])C([H])([H])[H])C([H])([H])c2c([H])c(OC([H])([H])c3c([H])c([H])c(C4(C([H])([H])C([H])([H])[H])C([H])([H])C([H])([H])C(C([H])([H])N([H])C(=O)N5C([H])([H])C([H])([H])C([H])([H])C([H])(n6nc(-c7c([H])c([H])c(Oc8c([H])c([H])c(F)c([H])c8F)c([H])c7[H])c(C(=O)N([H])[H])c6N([H])[H])C5([H])[H])(C([H])([H])C([H])([H])[H])C4([H])[H])c(C([H])([H])[H])c3[H])c([H])c([H])c2C1([H])[H]

>  <smiles>  (6) 
[H]c1c([H])c([H])c2c(c1[H])C([H])([H])C([H])([H])C([H])([H])C2([H])N([H])C(=O)C1([H])N(C(=O)C([H])(N([H])C(=O)C([H])(N([H])C([H])([H])[H])C([H])([H])[H])C(C([H])([H])[H])(C([H])([H])[H])C([H])([H])[H])C([H])([H])c2c([H])c(OC([H])([H])c3c([H])c([H])c(C4(C([H])([H])C([H])([H])[H])C([H])([H])C([H])([H])C(C([H])([H])N([H])C(=O)N5C([H])([H])C([H])([H])C([H])([H])C([H])(n6nc(-c7c([H])c([H])c(Oc8c([H])c([H])c(F)c([H])c8F)c([H])c7[H])c(C(=O)N([H])[H])c6N([H])[H])C5([H])[H])(C([H])([H])C([H])([H])[H])C4([H])[H])c(C([H])([H])[H])c3[H])c([H])c([H])c2C1([H])[H]

$$$$
6:0:0
     RDKit          3D

 90 97  0  0  1  0  0  0  0  0999 V2000
  -29.6130  -22.3680   21.4520 C   0  0  0  0  0  2  0  0  0  0  0  0
  -29.6450  -23.8250   21.9440 C   0  0  0  0  0  2  0  0  0  0  0  0
  -29.1970  -24.7890   20.8370 C   0  0  0  0  0  2  0  0  0  0  0  0
  -28.9160  -26.2170   21.3130 C   0  0  0  0  0  2  0  0  0  0  0  0
  -28.5620  -26.9540   20.1510 O   0  0  0  0  0  0  0  0  0  0  0  0
  -24.6360  -31.9740   23.3410 C   0  0  0  0  0  0  0  0  0  0  0  0
  -27.3760  -27.6330   20.2310 C   0  0  0  0  0  0  0  0  0  0  0  0
  -23.4600  -30.5590   21.6800 C   0  0  0  0  0  3  0  0  0  0  0  0
  -24.9490  -29.0590   20.2560 C   0  0  0  0  0  0  0  0  0  0  0  0
  -25.9750  -30.9760   21.4950 C   0  0  0  0  0  2  0  0  0  0  0  0
  -26.0890  -29.6090   20.8550 C   0  0  0  0  0  0  0  0  0  0  0  0
  -27.3060  -28.8960   20.8520 C   0  0  0  0  0  3  0  0  0  0  0  0
  -26.2250  -27.0830   19.6340 C   0  0  0  0  0  3  0  0  0  0  0  0
  -25.0070  -27.7900   19.6510 C   0  0  0  0  0  3  0  0  0  0  0  0
  -23.6900  -29.8940   20.2970 C   0  0  0  0  0  2  0  0  0  0  0  0
  -24.7070  -31.1830   22.2330 N   0  0  0  0  0  0  0  0  0  0  0  0
  -23.5480  -32.2250   23.8790 O   0  0  0  0  0  0  0  0  0  0  0  0
  -22.8210  -29.5220   22.6300 C   0  0  0  0  0  0  0  0  0  0  0  0
  -21.5070  -29.2990   22.4730 N   0  0  0  0  0  0  0  0  0  0  0  0
  -23.5050  -28.9190   23.4610 O   0  0  0  0  0  0  0  0  0  0  0  0
  -21.0190  -29.8380   21.7720 H   0  0  0  0  0  0  0  0  0  0  0  0
  -18.1660  -27.9760   22.8510 C   0  0  0  0  0  0  0  0  0  0  0  0
  -20.6980  -28.3370   23.2220 C   0  0  0  0  0  3  0  0  0  0  0  0
  -20.8810  -26.9070   22.6660 C   0  0  0  0  0  2  0  0  0  0  0  0
  -19.8330  -26.5290   21.6140 C   0  0  0  0  0  2  0  0  0  0  0  0
  -18.4240  -26.6260   22.2040 C   0  0  0  0  0  2  0  0  0  0  0  0
  -19.2360  -28.7870   23.3140 C   0  0  0  0  0  0  0  0  0  0  0  0
  -18.9490  -30.0500   23.8760 C   0  0  0  0  0  3  0  0  0  0  0  0
  -17.6200  -30.5040   23.9820 C   0  0  0  0  0  3  0  0  0  0  0  0
  -16.5630  -29.6890   23.5410 C   0  0  0  0  0  3  0  0  0  0  0  0
  -16.8350  -28.4270   22.9820 C   0  0  0  0  0  3  0  0  0  0  0  0
  -25.9110  -32.6170   23.9710 C   0  0  0  0  0  3  0  0  0  0  0  0
  -25.6040  -34.0220   24.2640 N   0  0  0  0  0  0  0  0  0  0  0  0
  -25.9550  -35.0540   23.4850 C   0  0  0  0  0  0  0  0  0  0  0  0
  -26.6440  -34.9220   22.4690 O   0  0  0  0  0  0  0  0  0  0  0  0
  -24.9940  -34.1970   25.0490 H   0  0  0  0  0  0  0  0  0  0  0  0
  -24.2360  -36.8360   23.0490 C   0  0  0  0  0  1  0  0  0  0  0  0
  -25.4600  -36.4530   23.8960 C   0  0  0  0  0  3  0  0  0  0  0  0
  -27.5780  -37.3570   24.7470 C   0  0  0  0  0  1  0  0  0  0  0  0
  -26.4970  -37.5020   23.7770 N   0  0  0  0  0  0  0  0  0  0  0  0
  -26.0880  -38.4260   23.8940 H   0  0  0  0  0  0  0  0  0  0  0  0
  -26.4050  -31.8700   25.2700 C   0  0  1  0  0  0  0  0  0  0  0  0
  -25.2910  -31.6470   26.3190 C   0  0  0  0  0  1  0  0  0  0  0  0
  -27.0070  -30.4930   24.9090 C   0  0  0  0  0  1  0  0  0  0  0  0
  -27.5400  -32.6830   25.9390 C   0  0  0  0  0  1  0  0  0  0  0  0
  -30.1710  -21.3540   22.4630 C   0  0  0  0  0  2  0  0  0  0  0  0
  -30.6710  -18.9140   22.2050 C   0  0  0  0  0  0  0  0  0  0  0  0
  -29.9290  -20.0020   21.9640 N   0  0  0  0  0  0  0  0  0  0  0  0
  -31.6660  -18.9370   22.9320 O   0  0  0  0  0  0  0  0  0  0  0  0
  -29.1160  -19.8800   21.3770 H   0  0  0  0  0  0  0  0  0  0  0  0
  -30.2110  -17.6040   21.5450 C   0  0  0  0  0  2  0  0  0  0  0  0
  -31.3500  -16.6070   21.2330 C   0  0  0  0  0  2  0  0  0  0  0  0
  -31.2440  -14.4070   20.0110 C   0  0  0  0  0  0  0  0  0  0  0  0
  -30.7890  -12.2590   18.8770 C   0  0  0  0  0  2  0  0  0  0  0  0
  -29.8060  -12.4480   17.7050 C   0  0  0  0  0  2  0  0  0  0  0  0
  -28.3480  -12.3700   18.1960 C   0  0  0  0  0  2  0  0  0  0  0  0
  -28.0880  -13.2830   19.4240 C   0  0  0  0  0  3  0  0  0  0  0  0
  -29.1690  -13.0570   20.5050 C   0  0  0  0  0  2  0  0  0  0  0  0
  -30.4950  -13.2780   19.8950 N   0  0  0  0  0  0  0  0  0  0  0  0
  -32.2520  -14.6290   19.3340 O   0  0  0  0  0  0  0  0  0  0  0  0
  -30.8040  -15.2790   20.9290 N   0  0  0  0  0  0  0  0  0  0  0  0
  -29.9990  -14.9800   21.4580 H   0  0  0  0  0  0  0  0  0  0  0  0
  -25.7590  -14.0260   20.2410 C   0  0  0  0  0  0  0  0  0  0  0  0
  -24.6650  -13.3150   20.6550 C   0  0  0  0  0  0  0  0  0  0  0  0
  -25.0440  -11.9390   20.5980 C   0  0  0  0  0  0  0  0  0  0  0  0
  -26.7410  -13.0870   19.9590 N   0  0  0  0  0  0  0  0  0  0  0  0
  -26.3130  -11.8270   20.2290 N   0  0  0  0  0  0  0  0  0  0  0  0
  -24.2550  -10.7200   20.8180 C   0  0  0  0  0  0  0  0  0  0  0  0
  -24.6460   -9.7480   21.7650 C   0  0  0  0  0  3  0  0  0  0  0  0
  -23.8630   -8.5930   21.9710 C   0  0  0  0  0  3  0  0  0  0  0  0
  -22.6730   -8.4010   21.2300 C   0  0  0  0  0  0  0  0  0  0  0  0
  -22.3010   -9.3590   20.2700 C   0  0  0  0  0  3  0  0  0  0  0  0
  -23.0840  -10.5070   20.0630 C   0  0  0  0  0  3  0  0  0  0  0  0
  -21.8620   -7.2980   21.3450 O   0  0  0  0  0  0  0  0  0  0  0  0
  -21.7340   -6.6180   22.5300 C   0  0  0  0  0  0  0  0  0  0  0  0
  -21.2870   -7.2540   23.7090 C   0  0  0  0  0  3  0  0  0  0  0  0
  -21.1070   -6.5030   24.8870 C   0  0  0  0  0  3  0  0  0  0  0  0
  -21.3590   -5.1180   24.8860 C   0  0  0  0  0  0  0  0  0  0  0  0
  -21.7960   -4.4820   23.7110 C   0  0  0  0  0  3  0  0  0  0  0  0
  -21.9800   -5.2310   22.5360 C   0  0  0  0  0  0  0  0  0  0  0  0
  -22.3830   -4.6090   21.4010 F   0  0  0  0  0  0  0  0  0  0  0  0
  -21.1750   -4.3940   26.0150 F   0  0  0  0  0  0  0  0  0  0  0  0
  -23.3120  -13.8700   20.9980 C   0  0  0  0  0  0  0  0  0  0  0  0
  -22.5940  -13.2200   21.9060 N   0  0  0  0  0  0  0  0  0  0  0  0
  -22.9050  -14.9180   20.4950 O   0  0  0  0  0  0  0  0  0  0  0  0
  -22.9360  -12.3720   22.3360 H   0  0  0  0  0  0  0  0  0  0  0  0
  -21.6860  -13.5730   22.1760 H   0  0  0  0  0  0  0  0  0  0  0  0
  -25.9970  -15.3860   20.0640 N   0  0  0  0  0  0  0  0  0  0  0  0
  -25.2800  -16.0870   20.2130 H   0  0  0  0  0  0  0  0  0  0  0  0
  -26.8620  -15.7730   19.7050 H   0  0  0  0  0  0  0  0  0  0  0  0
  1  2  1  0
  1 46  1  0
  3  4  1  0
  3  2  1  0
  5  7  1  0
  5  4  1  0
  6 17  2  0
  7 12  1  0
  8 16  1  0
  8 18  1  0
  9 15  1  0
  9 11  1  0
 10 16  1  0
 11 10  1  0
 12 11  2  0
 13 14  1  0
 13  7  2  0
 14  9  2  0
 15  8  1  0
 16  6  1  0
 18 20  2  0
 19 18  1  0
 21 19  1  0
 22 31  2  0
 22 27  1  0
 23 19  1  0
 23 27  1  0
 24 23  1  0
 25 26  1  0
 25 24  1  0
 26 22  1  0
 27 28  2  0
 28 29  1  0
 30 29  2  0
 31 30  1  0
 32  6  1  0
 32 33  1  0
 32 42  1  0
 33 36  1  0
 34 38  1  0
 34 33  1  0
 35 34  2  0
 38 37  1  0
 40 41  1  0
 40 38  1  0
 40 39  1  0
 42 45  1  1
 42 43  1  0
 44 42  1  0
 47 49  2  0
 48 47  1  0
 48 46  1  0
 50 48  1  0
 51 47  1  0
 52 51  1  0
 53 61  1  0
 54 59  1  0
 55 56  1  0
 55 54  1  0
 57 56  1  0
 57 66  1  0
 57 58  1  0
 59 53  1  0
 59 58  1  0
 60 53  2  0
 61 52  1  0
 61 62  1  0
 63 64  2  0
 64 83  1  0
 65 64  1  0
 65 68  1  0
 66 67  1  0
 66 63  1  0
 67 65  2  0
 68 69  1  0
 69 70  2  0
 71 74  1  0
 71 70  1  0
 72 71  2  0
 73 72  1  0
 73 68  2  0
 74 75  1  0
 75 80  2  0
 75 76  1  0
 76 77  2  0
 78 77  1  0
 78 82  1  0
 79 78  2  0
 80 79  1  0
 81 80  1  0
 83 84  1  0
 84 87  1  0
 84 86  1  0
 85 83  2  0
 88 89  1  0
 88 63  1  0
 90 88  1  0
M  ISO  4   4 101   5 101  53 100  61 100
M  END
>  <TORSDO>  (7) 
F 23

>  <SCORE>  (7) 
-12.177

>  <name>  (7) 
6

>  <ligand_id>  (7) 
6

>  <original_smiles>  (7) 
[H]c1c([H])c([H])c2c(c1[H])C([H])([H])C([H])([H])C([H])([H])C2([H])N([H])C(=O)C1([H])N(C(=O)C([H])(N([H])C(=O)C([H])(N([H])C([H])([H])[H])C([H])([H])[H])C(C([H])([H])[H])(C([H])([H])[H])C([H])([H])[H])C([H])([H])c2c([H])c(OC([H])([H])C([H])([H])C([H])([H])C([H])([H])C([H])([H])N([H])C(=O)C([H])([H])C([H])([H])N([H])C(=O)N3C([H])([H])C([H])([H])C([H])([H])C([H])(n4nc(-c5c([H])c([H])c(Oc6c([H])c([H])c(F)c([H])c6F)c([H])c5[H])c(C(=O)N([H])[H])c4N([H])[H])C3([H])[H])c([H])c([H])c2C1([H])[H]

>  <smiles>  (7) 
[H]c1c([H])c([H])c2c(c1[H])C([H])([H])C([H])([H])C([H])([H])C2([H])N([H])C(=O)C1([H])N(C(=O)C([H])(N([H])C(=O)C([H])(N([H])C([H])([H])[H])C([H])([H])[H])C(C([H])([H])[H])(C([H])([H])[H])C([H])([H])[H])C([H])([H])c2c([H])c(OC([H])([H])C([H])([H])C([H])([H])C([H])([H])C([H])([H])N([H])C(=O)C([H])([H])C([H])([H])N([H])C(=O)N3C([H])([H])C([H])([H])C([H])([H])C([H])(n4nc(-c5c([H])c([H])c(Oc6c([H])c([H])c(F)c([H])c6F)c([H])c5[H])c(C(=O)N([H])[H])c4N([H])[H])C3([H])[H])c([H])c([H])c2C1([H])[H]

$$$$
7:0:0
     RDKit          3D

 96103  0  0  1  0  0  0  0  0999 V2000
  -29.3960  -21.4580   24.7500 C   0  0  0  0  0  2  0  0  0  0  0  0
  -30.7510  -20.8780   24.8940 N   0  0  0  0  0  4  0  0  0  0  0  0
  -30.7590  -20.2810   25.7050 H   0  0  0  0  0  0  0  0  0  0  0  0
  -31.3750  -21.6410   25.0960 H   0  0  0  0  0  0  0  0  0  0  0  0
  -31.2880  -20.1390   23.7230 C   0  0  0  0  0  2  0  0  0  0  0  0
  -30.8230  -18.6670   23.6450 C   0  0  0  0  0  2  0  0  0  0  0  0
  -31.1150  -18.0310   22.2750 C   0  0  0  0  0  2  0  0  0  0  0  0
  -30.2640  -16.7630   22.0400 C   0  0  0  0  0  2  0  0  0  0  0  0
  -30.6510  -15.9580   20.8010 C   0  0  0  0  0  0  0  0  0  0  0  0
  -31.0450  -14.7450   20.9530 N   0  0  0  0  0  0  0  0  0  0  0  0
  -31.3390  -13.9610   19.8520 C   0  0  0  0  0  0  0  0  0  0  0  0
  -30.7750  -11.8630   18.6680 C   0  0  0  0  0  2  0  0  0  0  0  0
  -29.7660  -12.0420   17.5250 C   0  0  0  0  0  2  0  0  0  0  0  0
  -28.3220  -11.9880   18.0520 C   0  0  0  0  0  2  0  0  0  0  0  0
  -28.1070  -12.9140   19.2740 C   0  0  0  0  0  3  0  0  0  0  0  0
  -29.2110  -12.6860   20.3340 C   0  0  0  0  0  2  0  0  0  0  0  0
  -30.5170  -12.8930   19.6810 N   0  0  0  0  0  0  0  0  0  0  0  0
  -32.2910  -14.1680   19.0980 O   0  0  0  0  0  0  0  0  0  0  0  0
  -25.8030  -13.7090   20.1050 C   0  0  0  0  0  0  0  0  0  0  0  0
  -24.7090  -13.0180   20.5620 C   0  0  0  0  0  0  0  0  0  0  0  0
  -25.0750  -11.6400   20.5400 C   0  0  0  0  0  0  0  0  0  0  0  0
  -26.7690  -12.7530   19.8410 N   0  0  0  0  0  0  0  0  0  0  0  0
  -26.3360  -11.5040   20.1540 N   0  0  0  0  0  0  0  0  0  0  0  0
  -24.2820  -10.4330   20.8080 C   0  0  0  0  0  0  0  0  0  0  0  0
  -24.6950   -9.4790   21.7650 C   0  0  0  0  0  3  0  0  0  0  0  0
  -23.9070   -8.3360   22.0230 C   0  0  0  0  0  3  0  0  0  0  0  0
  -22.6900   -8.1400   21.3280 C   0  0  0  0  0  0  0  0  0  0  0  0
  -22.2980   -9.0800   20.3600 C   0  0  0  0  0  3  0  0  0  0  0  0
  -23.0850  -10.2140   20.0990 C   0  0  0  0  0  3  0  0  0  0  0  0
  -21.8750   -7.0460   21.4880 O   0  0  0  0  0  0  0  0  0  0  0  0
  -21.7080   -6.4490   22.7120 C   0  0  0  0  0  0  0  0  0  0  0  0
  -21.2670   -7.1740   23.8410 C   0  0  0  0  0  3  0  0  0  0  0  0
  -21.0450   -6.5080   25.0630 C   0  0  0  0  0  3  0  0  0  0  0  0
  -21.2550   -5.1180   25.1540 C   0  0  0  0  0  0  0  0  0  0  0  0
  -21.6880   -4.3930   24.0280 C   0  0  0  0  0  3  0  0  0  0  0  0
  -21.9110   -5.0590   22.8100 C   0  0  0  0  0  0  0  0  0  0  0  0
  -22.3090   -4.3530   21.7230 F   0  0  0  0  0  0  0  0  0  0  0  0
  -21.0340   -4.4730   26.3240 F   0  0  0  0  0  0  0  0  0  0  0  0
  -23.3660  -13.5960   20.9100 C   0  0  0  0  0  0  0  0  0  0  0  0
  -22.6730  -12.9940   21.8740 N   0  0  0  0  0  0  0  0  0  0  0  0
  -22.9450  -14.6120   20.3610 O   0  0  0  0  0  0  0  0  0  0  0  0
  -23.0240  -12.1670   22.3350 H   0  0  0  0  0  0  0  0  0  0  0  0
  -21.7760  -13.3680   22.1540 H   0  0  0  0  0  0  0  0  0  0  0  0
  -26.0450  -15.0570   19.8730 N   0  0  0  0  0  0  0  0  0  0  0  0
  -25.3410  -15.7750   20.0130 H   0  0  0  0  0  0  0  0  0  0  0  0
  -26.9090  -15.4130   19.4820 H   0  0  0  0  0  0  0  0  0  0  0  0
  -30.5020  -16.7350   19.4860 C   0  0  0  0  0  2  0  0  0  0  0  0
  -31.7890  -18.6430   18.3120 C   0  0  0  0  0  1  0  0  0  0  0  0
  -31.8540  -17.2390   18.9310 C   0  0  0  0  0  2  0  0  0  0  0  0
  -29.3440  -22.6420   23.7590 C   0  0  0  0  0  2  0  0  0  0  0  0
  -29.2190  -22.2190   22.2850 C   0  0  0  0  0  2  0  0  0  0  0  0
  -28.8690  -23.3960   21.3620 C   0  0  0  0  0  2  0  0  0  0  0  0
  -30.0500  -24.3440   21.0910 C   0  0  0  0  0  2  0  0  0  0  0  0
  -29.5890  -25.7980   20.9120 C   0  0  0  0  0  2  0  0  0  0  0  0
  -30.2370  -26.5150   19.7160 C   0  0  0  0  0  2  0  0  0  0  0  0
  -29.8780  -27.8930   19.7050 O   0  0  0  0  0  0  0  0  0  0  0  0
  -24.8690  -31.2900   23.3750 C   0  0  0  0  0  0  0  0  0  0  0  0
  -28.5430  -28.2120   19.7690 C   0  0  0  0  0  0  0  0  0  0  0  0
  -24.0440  -29.8550   21.5350 C   0  0  0  0  0  3  0  0  0  0  0  0
  -25.8280  -28.9640   19.9430 C   0  0  0  0  0  0  0  0  0  0  0  0
  -26.3710  -30.9020   21.4300 C   0  0  0  0  0  2  0  0  0  0  0  0
  -26.8070  -29.7020   20.6200 C   0  0  0  0  0  0  0  0  0  0  0  0
  -28.1640  -29.3340   20.5310 C   0  0  0  0  0  3  0  0  0  0  0  0
  -27.5500  -27.4750   19.0850 C   0  0  0  0  0  3  0  0  0  0  0  0
  -26.1960  -27.8480   19.1710 C   0  0  0  0  0  3  0  0  0  0  0  0
  -24.4000  -29.4390   20.0810 C   0  0  0  0  0  2  0  0  0  0  0  0
  -25.1110  -30.6910   22.1760 N   0  0  0  0  0  0  0  0  0  0  0  0
  -23.7650  -31.1920   23.9260 O   0  0  0  0  0  0  0  0  0  0  0  0
  -23.7050  -28.5780   22.3370 C   0  0  0  0  0  0  0  0  0  0  0  0
  -22.5300  -27.9920   22.0550 N   0  0  0  0  0  0  0  0  0  0  0  0
  -24.4960  -28.1210   23.1670 O   0  0  0  0  0  0  0  0  0  0  0  0
  -21.9330  -28.4330   21.3670 H   0  0  0  0  0  0  0  0  0  0  0  0
  -19.8060  -25.6190   21.9480 C   0  0  0  0  0  0  0  0  0  0  0  0
  -22.0160  -26.7590   22.6550 C   0  0  0  0  0  3  0  0  0  0  0  0
  -22.7250  -25.5180   22.0700 C   0  0  0  0  0  2  0  0  0  0  0  0
  -21.9840  -24.9050   20.8770 C   0  0  0  0  0  2  0  0  0  0  0  0
  -20.5680  -24.4860   21.2820 C   0  0  0  0  0  2  0  0  0  0  0  0
  -20.4860  -26.6960   22.5780 C   0  0  0  0  0  0  0  0  0  0  0  0
  -19.7310  -27.7420   23.1510 C   0  0  0  0  0  3  0  0  0  0  0  0
  -18.3250  -27.7240   23.1040 C   0  0  0  0  0  3  0  0  0  0  0  0
  -17.6550  -26.6500   22.4930 C   0  0  0  0  0  3  0  0  0  0  0  0
  -18.3960  -25.5990   21.9210 C   0  0  0  0  0  3  0  0  0  0  0  0
  -25.9580  -32.1430   24.1010 C   0  0  0  0  0  3  0  0  0  0  0  0
  -26.4100  -31.5310   25.4820 C   0  0  1  0  0  0  0  0  0  0  0  0
  -25.2320  -31.1930   26.4240 C   0  0  0  0  0  1  0  0  0  0  0  0
  -27.2290  -30.2380   25.2700 C   0  0  0  0  0  1  0  0  0  0  0  0
  -27.3450  -32.5230   26.2180 C   0  0  0  0  0  1  0  0  0  0  0  0
  -25.4130  -33.4940   24.2810 N   0  0  0  0  0  0  0  0  0  0  0  0
  -25.7130  -34.5470   23.5050 C   0  0  0  0  0  0  0  0  0  0  0  0
  -26.5490  -34.4940   22.5980 O   0  0  0  0  0  0  0  0  0  0  0  0
  -24.6820  -33.6010   24.9700 H   0  0  0  0  0  0  0  0  0  0  0  0
  -23.8380  -36.0420   22.7520 C   0  0  0  0  0  1  0  0  0  0  0  0
  -24.9680  -35.8650   23.7800 C   0  0  0  0  0  3  0  0  0  0  0  0
  -26.8100  -37.0780   24.8550 C   0  0  0  0  0  1  0  0  0  0  0  0
  -25.8500  -37.0520   23.7550 N   0  0  0  0  0  0  0  0  0  0  0  0
  -25.3050  -37.9090   23.7810 H   0  0  0  0  0  0  0  0  0  0  0  0
  1  2  1  0
  2  4  1  0
  2  3  1  0
  5  2  1  0
  6  5  1  0
  7  6  1  0
  8  7  1  0
  9 10  2  0
  9  8  1  0
 11 10  1  0
 12 17  1  0
 13 14  1  0
 13 12  1  0
 15 14  1  0
 15 22  1  0
 15 16  1  0
 17 11  1  0
 17 16  1  0
 18 11  2  0
 19 20  2  0
 20 39  1  0
 21 20  1  0
 21 24  1  0
 22 19  1  0
 22 23  1  0
 23 21  2  0
 24 25  1  0
 25 26  2  0
 27 30  1  0
 27 26  1  0
 28 27  2  0
 29 28  1  0
 29 24  2  0
 30 31  1  0
 31 36  2  0
 31 32  1  0
 32 33  2  0
 33 34  1  0
 34 38  1  0
 35 34  2  0
 36 35  1  0
 37 36  1  0
 39 40  1  0
 40 43  1  0
 40 42  1  0
 41 39  2  0
 44 45  1  0
 44 19  1  0
 46 44  1  0
 47  9  1  0
 48 49  1  0
 49 47  1  0
 50  1  1  0
 51 50  1  0
 52 51  1  0
 53 52  1  0
 54 53  1  0
 55 54  1  0
 56 55  1  0
 56 58  1  0
 57 68  2  0
 58 63  1  0
 59 67  1  0
 59 69  1  0
 60 66  1  0
 60 62  1  0
 61 67  1  0
 62 61  1  0
 63 62  2  0
 64 65  1  0
 64 58  2  0
 65 60  2  0
 66 59  1  0
 67 57  1  0
 69 71  2  0
 70 69  1  0
 72 70  1  0
 73 78  1  0
 74 70  1  0
 75 74  1  0
 76 77  1  0
 76 75  1  0
 77 73  1  0
 78 74  1  0
 78 79  2  0
 80 79  1  0
 81 80  2  0
 82 73  2  0
 82 81  1  0
 83 57  1  0
 83 88  1  0
 83 84  1  0
 84 87  1  1
 84 85  1  0
 86 84  1  0
 88 91  1  0
 89 93  1  0
 89 88  1  0
 90 89  2  0
 93 92  1  0
 95 93  1  0
 95 96  1  0
 95 94  1  0
M  ISO  4  10 100  11 100  55 101  56 101
M  END
>  <TORSDO>  (8) 
F 30

>  <SCORE>  (8) 
-6.537

>  <name>  (8) 
7

>  <ligand_id>  (8) 
7

>  <original_smiles>  (8) 
[H]c1c([H])c([H])c2c(c1[H])C([H])([H])C([H])([H])C([H])([H])C2([H])N([H])C(=O)C1([H])N(C(=O)C([H])(N([H])C(=O)C([H])(N([H])C([H])([H])[H])C([H])([H])[H])C(C([H])([H])[H])(C([H])([H])[H])C([H])([H])[H])C([H])([H])c2c([H])c(OC([H])([H])C([H])([H])C([H])([H])C([H])([H])C([H])([H])C([H])([H])C([H])([H])[N+]([H])([H])C([H])([H])C([H])([H])C([H])([H])C([H])([H])C(=NC(=O)N3C([H])([H])C([H])([H])C([H])([H])C([H])(n4nc(-c5c([H])c([H])c(Oc6c([H])c([H])c(F)c([H])c6F)c([H])c5[H])c(C(=O)N([H])[H])c4N([H])[H])C3([H])[H])C([H])([H])C([H])([H])C([H])([H])[H])c([H])c([H])c2C1([H])[H]

>  <smiles>  (8) 
[H]c1c([H])c([H])c2c(c1[H])C([H])([H])C([H])([H])C([H])([H])C2([H])N([H])C(=O)C1([H])N(C(=O)C([H])(N([H])C(=O)C([H])(N([H])C([H])([H])[H])C([H])([H])[H])C(C([H])([H])[H])(C([H])([H])[H])C([H])([H])[H])C([H])([H])c2c([H])c(OC([H])([H])C([H])([H])C([H])([H])C([H])([H])C([H])([H])C([H])([H])C([H])([H])[N+]([H])([H])C([H])([H])C([H])([H])C([H])([H])C([H])([H])C(=NC(=O)N3C([H])([H])C([H])([H])C([H])([H])C([H])(n4nc(-c5c([H])c([H])c(Oc6c([H])c([H])c(F)c([H])c6F)c([H])c5[H])c(C(=O)N([H])[H])c4N([H])[H])C3([H])[H])C([H])([H])C([H])([H])C([H])([H])[H])c([H])c([H])c2C1([H])[H]

$$$$
8:0:0
     RDKit          3D

 95 99  0  0  1  0  0  0  0  0999 V2000
  -28.2920  -18.6850   20.2680 C   0  0  0  0  0  3  0  0  0  0  0  0
  -29.5780  -18.7460   20.9850 N   0  0  0  0  0  4  0  0  0  0  0  0
  -29.4310  -18.9240   21.9630 H   0  0  0  0  0  0  0  0  0  0  0  0
  -30.1510  -19.4870   20.6170 H   0  0  0  0  0  0  0  0  0  0  0  0
  -30.0820  -17.8840   20.8950 H   0  0  0  0  0  0  0  0  0  0  0  0
  -27.5470  -17.0800   20.7830 C   0  0  0  0  0  2  0  0  0  0  0  0
  -28.0920  -11.4940   21.5560 C   0  0  0  0  0 15  0  0  0  0  0  0
  -27.8350  -13.6350   22.2270 C   0  0  0  0  0 15  0  0  0  0  0  0
  -28.0670  -11.2000   19.2860 C   0  0  0  0  0 15  0  0  0  0  0  0
  -27.9560  -14.7820   18.8990 C   0  0  0  0  0  2  0  0  0  0  0  0
  -28.0040  -15.2730   20.7890 C   0  0  0  0  0  2  0  0  0  0  0  0
  -28.3410  -13.0470   18.1590 C   0  0  0  0  0  2  0  0  0  0  0  0
  -29.9250  -13.7150   17.7590 C   0  0  0  0  0  2  0  0  0  0  0  0
  -31.6640  -14.4490   20.0210 C   0  0  0  0  0  0  0  0  0  0  0  0
  -32.0020  -12.2270   20.7040 C   0  0  0  0  0  2  0  0  0  0  0  0
  -31.4560  -11.7260   19.4290 C   0  0  0  0  0  2  0  0  0  0  0  0
  -30.0280  -11.8510   19.6950 C   0  0  0  0  0  2  0  0  0  0  0  0
  -29.0190  -13.1890   20.3030 C   0  0  0  0  0  2  0  0  0  0  0  0
  -30.0370  -13.3760   21.5210 C   0  0  0  0  0  2  0  0  0  0  0  0
  -31.3440  -13.4970   20.9230 N   0  0  0  0  0  0  0  0  0  0  0  0
  -32.6500  -15.1060   20.3260 O   0  0  0  0  0  0  0  0  0  0  0  0
  -31.0310  -14.4920   18.7100 N   0  0  0  0  0  0  0  0  0  0  0  0
  -31.4520  -15.2500   18.1850 H   0  0  0  0  0  0  0  0  0  0  0  0
  -25.6380  -14.1130   20.3970 C   0  0  0  0  0  0  0  0  0  0  0  0
  -24.5960  -13.3270   20.8660 C   0  0  0  0  0  3  0  0  0  0  0  0
  -25.0100  -12.0110   20.9690 C   0  0  0  0  0  3  0  0  0  0  0  0
  -26.7840  -13.3300   20.1090 N   0  0  0  0  0  2  0  0  0  0  0  0
  -25.8010  -12.2500   20.0270 N   0  0  0  0  0  0  0  0  0  0  0  0
  -24.4030  -10.6500   21.0860 C   0  0  0  0  0  0  0  0  0  0  0  0
  -24.7920   -9.6920   22.0610 C   0  0  0  0  0  3  0  0  0  0  0  0
  -24.1100   -8.4570   22.1910 C   0  0  0  0  0  3  0  0  0  0  0  0
  -23.0120   -8.1660   21.3480 C   0  0  0  0  0  0  0  0  0  0  0  0
  -22.6790   -9.0800   20.3330 C   0  0  0  0  0  3  0  0  0  0  0  0
  -23.3750  -10.2920   20.1920 C   0  0  0  0  0  3  0  0  0  0  0  0
  -22.2500   -7.0220   21.4210 O   0  0  0  0  0  0  0  0  0  0  0  0
  -22.0800   -6.3250   22.5920 C   0  0  0  0  0  0  0  0  0  0  0  0
  -21.5430   -6.9190   23.7580 C   0  0  0  0  0  3  0  0  0  0  0  0
  -21.3320   -6.1420   24.9140 C   0  0  0  0  0  3  0  0  0  0  0  0
  -21.6450   -4.7690   24.9080 C   0  0  0  0  0  0  0  0  0  0  0  0
  -22.1680   -4.1730   23.7460 C   0  0  0  0  0  3  0  0  0  0  0  0
  -22.3800   -4.9480   22.5930 C   0  0  0  0  0  0  0  0  0  0  0  0
  -22.8630   -4.3610   21.4730 F   0  0  0  0  0  0  0  0  0  0  0  0
  -21.4380   -4.0200   26.0150 F   0  0  0  0  0  0  0  0  0  0  0  0
  -23.1910  -13.7280   20.8720 C   0  0  0  0  0  0  0  0  0  0  0  0
  -22.3890  -13.0610   21.6860 N   0  0  0  0  0  0  0  0  0  0  0  0
  -22.8080  -14.6330   20.1360 O   0  0  0  0  0  0  0  0  0  0  0  0
  -22.7370  -12.3240   22.2780 H   0  0  0  0  0  0  0  0  0  0  0  0
  -21.4040  -13.2880   21.7180 H   0  0  0  0  0  0  0  0  0  0  0  0
  -25.5200  -15.4590   20.2050 N   0  0  0  0  0  0  0  0  0  0  0  0
  -24.6070  -15.8950   20.1590 H   0  0  0  0  0  0  0  0  0  0  0  0
  -26.2720  -15.9830   19.7740 H   0  0  0  0  0  0  0  0  0  0  0  0
  -27.7070  -20.4330   20.1890 C   0  0  0  0  0  2  0  0  0  0  0  0
  -28.4690  -22.0950   19.9680 C   0  0  0  0  0  3  0  0  0  0  0  0
  -27.8860  -23.8400   20.0120 C   0  0  0  0  0  3  0  0  0  0  0  0
  -28.5100  -25.4080   20.0040 O   0  0  0  0  0  0  0  0  0  0  0  0
  -25.2900  -31.3220   23.4190 C   0  0  0  0  0  0  0  0  0  0  0  0
  -27.7060  -26.6700   19.9850 C   0  0  0  0  0  0  0  0  0  0  0  0
  -24.1460  -30.1850   21.5720 C   0  0  0  0  0  3  0  0  0  0  0  0
  -25.6020  -28.7380   20.0130 C   0  0  0  0  0  0  0  0  0  0  0  0
  -26.7260  -30.2980   21.5750 C   0  0  0  0  0  2  0  0  0  0  0  0
  -26.7690  -28.9750   20.7500 C   0  0  0  0  0  0  0  0  0  0  0  0
  -27.8350  -27.9610   20.7090 C   0  0  0  0  0  3  0  0  0  0  0  0
  -26.5650  -26.6410   19.1660 C   0  0  0  0  0  3  0  0  0  0  0  0
  -25.5380  -27.6080   19.1900 C   0  0  0  0  0  3  0  0  0  0  0  0
  -24.4240  -29.7000   20.1250 C   0  0  0  0  0  2  0  0  0  0  0  0
  -25.4100  -30.6210   22.2460 N   0  0  0  0  0  0  0  0  0  0  0  0
  -24.1820  -31.5810   23.9150 O   0  0  0  0  0  0  0  0  0  0  0  0
  -23.3880  -29.0850   22.3600 C   0  0  0  0  0  0  0  0  0  0  0  0
  -22.0570  -29.0000   22.1850 N   0  0  0  0  0  0  0  0  0  0  0  0
  -24.0020  -28.3160   23.1030 O   0  0  0  0  0  0  0  0  0  0  0  0
  -21.6170  -29.6660   21.5670 H   0  0  0  0  0  0  0  0  0  0  0  0
  -18.6070  -27.9120   22.4710 C   0  0  0  0  0  0  0  0  0  0  0  0
  -21.1720  -28.0040   22.7990 C   0  0  0  0  0  3  0  0  0  0  0  0
  -21.2130  -26.6700   22.0180 C   0  0  0  0  0  2  0  0  0  0  0  0
  -20.1160  -26.5570   20.9550 C   0  0  0  0  0  2  0  0  0  0  0  0
  -18.7310  -26.6730   21.5990 C   0  0  0  0  0  2  0  0  0  0  0  0
  -19.7540  -28.5450   23.0210 C   0  0  0  0  0  0  0  0  0  0  0  0
  -19.5820  -29.7130   23.7950 C   0  0  0  0  0  3  0  0  0  0  0  0
  -18.2970  -30.2420   24.0270 C   0  0  0  0  0  3  0  0  0  0  0  0
  -17.1660  -29.6020   23.4890 C   0  0  0  0  0  3  0  0  0  0  0  0
  -17.3220  -28.4390   22.7150 C   0  0  0  0  0  3  0  0  0  0  0  0
  -26.5380  -31.8490   24.1860 C   0  0  0  0  0  3  0  0  0  0  0  0
  -26.9380  -30.9390   25.4120 C   0  0  1  0  0  0  0  0  0  0  0  0
  -25.7700  -30.6480   26.3830 C   0  0  0  0  0  1  0  0  0  0  0  0
  -27.4890  -29.5790   24.9290 C   0  0  0  0  0  1  0  0  0  0  0  0
  -28.0760  -31.6120   26.2120 C   0  0  0  0  0  1  0  0  0  0  0  0
  -26.2410  -33.2180   24.6490 N   0  0  0  0  0  0  0  0  0  0  0  0
  -26.7000  -34.3390   24.0770 C   0  0  0  0  0  0  0  0  0  0  0  0
  -27.4830  -34.3260   23.1220 O   0  0  0  0  0  0  0  0  0  0  0  0
  -25.5610  -33.3050   25.3910 H   0  0  0  0  0  0  0  0  0  0  0  0
  -25.1320  -36.2820   23.7460 C   0  0  0  0  0  1  0  0  0  0  0  0
  -26.2230  -35.6880   24.6530 C   0  0  0  0  0  3  0  0  0  0  0  0
  -28.2500  -36.3130   25.8880 C   0  0  0  0  0  1  0  0  0  0  0  0
  -27.3120  -36.6740   24.8290 N   0  0  0  0  0  0  0  0  0  0  0  0
  -26.9350  -37.5940   25.0390 H   0  0  0  0  0  0  0  0  0  0  0  0
  1 52  1  0
  1  6  1  0
  1  2  1  0
  2  3  1  0
  4  2  1  0
  5  2  1  0
  6 11  1  0
 10 11  1  0
 12 10  1  0
 13 12  1  0
 13 22  1  0
 14 21  2  0
 14 20  1  0
 15 20  1  0
 16 17  1  0
 16 15  1  0
 17 18  1  0
 18 19  1  0
 20 19  1  0
 22 14  1  0
 23 22  1  0
 24 49  1  0
 24 25  1  0
 25 44  1  0
 25 26  1  0
 26 29  1  0
 27 24  1  0
 28 27  1  0
 28 24  1  0
 28 26  1  0
 29 30  1  0
 30 31  2  0
 32 35  1  0
 32 31  1  0
 33 32  2  0
 34 33  1  0
 34 29  2  0
 35 36  1  0
 36 41  2  0
 36 37  1  0
 37 38  2  0
 39 38  1  0
 39 43  1  0
 40 39  2  0
 41 40  1  0
 42 41  1  0
 44 45  1  0
 45 48  1  0
 45 47  1  0
 46 44  2  0
 50 49  1  0
 51 49  1  0
 53 54  2  0
 53 52  1  0
 55 54  1  0
 56 67  2  0
 57 55  1  0
 57 62  1  0
 58 66  1  0
 58 68  1  0
 59 65  1  0
 59 61  1  0
 60 66  1  0
 61 60  1  0
 62 61  2  0
 63 64  1  0
 63 57  2  0
 64 59  2  0
 65 58  1  0
 66 56  1  0
 68 70  2  0
 69 68  1  0
 71 69  1  0
 72 81  2  0
 72 77  1  0
 73 69  1  0
 73 77  1  0
 74 73  1  0
 75 76  1  0
 75 74  1  0
 76 72  1  0
 77 78  2  0
 78 79  1  0
 80 79  2  0
 81 80  1  0
 82 56  1  0
 82 87  1  0
 82 83  1  0
 83 86  1  1
 83 84  1  0
 85 83  1  0
 87 90  1  0
 88 87  1  0
 88 92  1  0
 89 88  2  0
 92 91  1  0
 92 94  1  0
 94 95  1  0
 94 93  1  0
M  ISO  4  14 100  22 100  54 101  55 101
M  END
>  <TORSDO>  (9) 
F 23

>  <SCORE>  (9) 
-12.531

>  <name>  (9) 
8

>  <ligand_id>  (9) 
8

>  <original_smiles>  (9) 
[H]c1c([H])c([H])c2c(c1[H])C([H])([H])C([H])([H])C([H])([H])C2([H])N([H])C(=O)C1([H])N(C(=O)C([H])(N([H])C(=O)C([H])(N([H])C([H])([H])[H])C([H])([H])[H])C(C([H])([H])[H])(C([H])([H])[H])C([H])([H])[H])C([H])([H])c2c([H])c(OC([H])([H])C([H])([H])C([H])([H])C([H])(C([H])([H])C3([H])C([H])([H])C([H])([H])C([H])([H])C([H])(C([H])([H])N([H])C(=O)N4C([H])([H])C([H])([H])C([H])([H])C([H])(n5nc(-c6c([H])c([H])c(Oc7c([H])c([H])c(F)c([H])c7F)c([H])c6[H])c(C(=O)N([H])[H])c5N([H])[H])C4([H])[H])C3([H])[H])[N+]([H])([H])[H])c([H])c([H])c2C1([H])[H]

>  <smiles>  (9) 
[H]c1c([H])c([H])c2c(c1[H])C([H])([H])C([H])([H])C([H])([H])C2([H])N([H])C(=O)C1([H])N(C(=O)C([H])(N([H])C(=O)C([H])(N([H])C([H])([H])[H])C([H])([H])[H])C(C([H])([H])[H])(C([H])([H])[H])C([H])([H])[H])C([H])([H])c2c([H])c(OC([H])([H])C([H])([H])C([H])([H])C([H])(C([H])([H])C3([H])C([H])([H])C([H])([H])C([H])([H])C([H])(C([H])([H])N([H])C(=O)N4C([H])([H])C([H])([H])C([H])([H])C([H])(n5nc(-c6c([H])c([H])c(Oc7c([H])c([H])c(F)c([H])c7F)c([H])c6[H])c(C(=O)N([H])[H])c5N([H])[H])C4([H])[H])C3([H])[H])[N+]([H])([H])[H])c([H])c([H])c2C1([H])[H]

$$$$
9:0:0
     RDKit          3D

 91 98  0  0  1  0  0  0  0  0999 V2000
  -28.7090  -21.8070   19.8030 C   0  0  0  0  0  3  0  0  0  0  0  0
  -29.4190  -20.5370   20.4630 N   0  0  0  0  0  4  0  0  0  0  0  0
  -30.4030  -20.6670   20.2840 H   0  0  0  0  0  0  0  0  0  0  0  0
  -29.3240  -20.6300   21.4620 H   0  0  0  0  0  0  0  0  0  0  0  0
  -29.1220  -19.0060   20.1390 C   0  0  0  0  0  3  0  0  0  0  0  0
  -30.1780  -17.7360   20.5000 C   0  0  0  0  0  3  0  0  0  0  0  0
  -30.5860  -15.0110   20.3480 C   0  0  0  0  0  0  0  0  0  0  0  0
  -30.4540  -12.6800   19.3720 C   0  0  0  0  0  2  0  0  0  0  0  0
  -29.5110  -12.6750   18.1470 C   0  0  0  0  0  2  0  0  0  0  0  0
  -28.0510  -12.4530   18.5900 C   0  0  0  0  0  2  0  0  0  0  0  0
  -27.6550  -13.3550   19.7900 C   0  0  0  0  0  3  0  0  0  0  0  0
  -28.7220  -13.3320   20.9030 C   0  0  0  0  0  2  0  0  0  0  0  0
  -29.9870  -13.7570   20.2880 N   0  0  0  0  0  0  0  0  0  0  0  0
  -31.7900  -15.0800   20.0780 O   0  0  0  0  0  0  0  0  0  0  0  0
  -29.8120  -16.1910   20.4990 N   0  0  0  0  0  0  0  0  0  0  0  0
  -28.8380  -15.9930   20.6820 H   0  0  0  0  0  0  0  0  0  0  0  0
  -25.2700  -13.9180   20.5320 C   0  0  0  0  0  0  0  0  0  0  0  0
  -24.2110  -13.1350   20.8950 C   0  0  0  0  0  0  0  0  0  0  0  0
  -24.6800  -11.7860   20.8550 C   0  0  0  0  0  0  0  0  0  0  0  0
  -26.3190  -13.0470   20.2870 N   0  0  0  0  0  0  0  0  0  0  0  0
  -25.9730  -11.7580   20.5480 N   0  0  0  0  0  0  0  0  0  0  0  0
  -23.9580  -10.5190   21.0320 C   0  0  0  0  0  0  0  0  0  0  0  0
  -24.3680   -9.5640   21.9880 C   0  0  0  0  0  3  0  0  0  0  0  0
  -23.6450   -8.3630   22.1570 C   0  0  0  0  0  3  0  0  0  0  0  0
  -22.4980   -8.1100   21.3680 C   0  0  0  0  0  0  0  0  0  0  0  0
  -22.1050   -9.0530   20.4040 C   0  0  0  0  0  3  0  0  0  0  0  0
  -22.8280  -10.2450   20.2340 C   0  0  0  0  0  3  0  0  0  0  0  0
  -21.7510   -6.9590   21.4450 O   0  0  0  0  0  0  0  0  0  0  0  0
  -21.6460   -6.2470   22.6120 C   0  0  0  0  0  0  0  0  0  0  0  0
  -21.1070   -6.8160   23.7860 C   0  0  0  0  0  3  0  0  0  0  0  0
  -20.9560   -6.0310   24.9450 C   0  0  0  0  0  3  0  0  0  0  0  0
  -21.3280   -4.6740   24.9290 C   0  0  0  0  0  0  0  0  0  0  0  0
  -21.8600   -4.1020   23.7610 C   0  0  0  0  0  3  0  0  0  0  0  0
  -22.0160   -4.8870   22.6050 C   0  0  0  0  0  0  0  0  0  0  0  0
  -22.5100   -4.3270   21.4740 F   0  0  0  0  0  0  0  0  0  0  0  0
  -21.1730   -3.9140   26.0400 F   0  0  0  0  0  0  0  0  0  0  0  0
  -22.8090  -13.6040   21.1660 C   0  0  0  0  0  0  0  0  0  0  0  0
  -22.0790  -12.8970   22.0190 N   0  0  0  0  0  0  0  0  0  0  0  0
  -22.3720  -14.6370   20.6570 O   0  0  0  0  0  0  0  0  0  0  0  0
  -22.4410  -12.0630   22.4540 H   0  0  0  0  0  0  0  0  0  0  0  0
  -21.1420  -13.1970   22.2460 H   0  0  0  0  0  0  0  0  0  0  0  0
  -25.4240  -15.2900   20.3630 N   0  0  0  0  0  0  0  0  0  0  0  0
  -24.6420  -15.9260   20.4850 H   0  0  0  0  0  0  0  0  0  0  0  0
  -26.2490  -15.7390   19.9870 H   0  0  0  0  0  0  0  0  0  0  0  0
  -28.8450  -23.3550   20.4740 C   0  0  0  0  0  3  0  0  0  0  0  0
  -28.0710  -24.7380   19.8920 C   0  0  0  0  0  3  0  0  0  0  0  0
  -28.3210  -26.2360   20.2240 O   0  0  0  0  0  0  0  0  0  0  0  0
  -24.6490  -31.9140   23.1480 C   0  0  0  0  0  0  0  0  0  0  0  0
  -27.2610  -27.2080   20.1390 C   0  0  0  0  0  0  0  0  0  0  0  0
  -23.4590  -30.4880   21.5240 C   0  0  0  0  0  3  0  0  0  0  0  0
  -24.9170  -28.9160   20.1120 C   0  0  0  0  0  0  0  0  0  0  0  0
  -26.0070  -30.7810   21.3520 C   0  0  0  0  0  2  0  0  0  0  0  0
  -26.0930  -29.3840   20.7120 C   0  0  0  0  0  0  0  0  0  0  0  0
  -27.2660  -28.5420   20.7120 C   0  0  0  0  0  3  0  0  0  0  0  0
  -26.0620  -26.8500   19.4830 C   0  0  0  0  0  3  0  0  0  0  0  0
  -24.9130  -27.6660   19.4810 C   0  0  0  0  0  3  0  0  0  0  0  0
  -23.6840  -29.8000   20.1520 C   0  0  0  0  0  2  0  0  0  0  0  0
  -24.7250  -31.0840   22.0630 N   0  0  0  0  0  0  0  0  0  0  0  0
  -23.5620  -32.1960   23.6750 O   0  0  0  0  0  0  0  0  0  0  0  0
  -22.7900  -29.4860   22.5000 C   0  0  0  0  0  0  0  0  0  0  0  0
  -21.4660  -29.2950   22.3720 N   0  0  0  0  0  0  0  0  0  0  0  0
  -23.4670  -28.8840   23.3380 O   0  0  0  0  0  0  0  0  0  0  0  0
  -20.9740  -29.8330   21.6720 H   0  0  0  0  0  0  0  0  0  0  0  0
  -18.0990  -28.0570   22.8800 C   0  0  0  0  0  0  0  0  0  0  0  0
  -20.6530  -28.3580   23.1540 C   0  0  0  0  0  3  0  0  0  0  0  0
  -20.7780  -26.9190   22.6010 C   0  0  0  0  0  2  0  0  0  0  0  0
  -19.6860  -26.5670   21.5860 C   0  0  0  0  0  2  0  0  0  0  0  0
  -18.2990  -26.7020   22.2220 C   0  0  0  0  0  2  0  0  0  0  0  0
  -19.2050  -28.8420   23.3040 C   0  0  0  0  0  0  0  0  0  0  0  0
  -18.9650  -30.1080   23.8790 C   0  0  0  0  0  3  0  0  0  0  0  0
  -17.6520  -30.5920   24.0320 C   0  0  0  0  0  3  0  0  0  0  0  0
  -16.5610  -29.8060   23.6230 C   0  0  0  0  0  3  0  0  0  0  0  0
  -16.7850  -28.5390   23.0560 C   0  0  0  0  0  3  0  0  0  0  0  0
  -25.9230  -32.5680   23.7640 C   0  0  0  0  0  3  0  0  0  0  0  0
  -25.5940  -33.9600   24.1070 N   0  0  0  0  0  0  0  0  0  0  0  0
  -25.9170  -35.0290   23.3650 C   0  0  0  0  0  0  0  0  0  0  0  0
  -26.5920  -34.9450   22.3360 O   0  0  0  0  0  0  0  0  0  0  0  0
  -25.0060  -34.1000   24.9150 H   0  0  0  0  0  0  0  0  0  0  0  0
  -24.1860  -36.8220   23.0110 C   0  0  0  0  0  1  0  0  0  0  0  0
  -25.4110  -36.4050   23.8400 C   0  0  0  0  0  3  0  0  0  0  0  0
  -27.5160  -37.2950   24.7400 C   0  0  0  0  0  1  0  0  0  0  0  0
  -26.4380  -37.4680   23.7700 N   0  0  0  0  0  0  0  0  0  0  0  0
  -26.0200  -38.3820   23.9220 H   0  0  0  0  0  0  0  0  0  0  0  0
  -26.4560  -31.8030   25.0380 C   0  0  1  0  0  0  0  0  0  0  0  0
  -25.3720  -31.5420   26.1080 C   0  0  0  0  0  1  0  0  0  0  0  0
  -27.0600  -30.4360   24.6430 C   0  0  0  0  0  1  0  0  0  0  0  0
  -27.5900  -32.6170   25.7060 C   0  0  0  0  0  1  0  0  0  0  0  0
  -27.2080  -21.5730   19.4320 C   0  0  0  0  0  2  0  0  0  0  0  0
  -27.8650  -20.7940   17.0510 C   0  0  0  0  0  1  0  0  0  0  0  0
  -25.4600  -20.9330   17.6680 C   0  0  0  0  0  1  0  0  0  0  0  0
  -26.8690  -20.6590   18.2170 C   0  0  0  0  0  3  0  0  0  0  0  0
  1 88  1  0
  1  2  1  0
  1 45  1  0
  2  4  1  0
  3  2  1  0
  5  2  1  0
  5  6  2  0
  7 15  1  0
  8 13  1  0
  9 10  1  0
  9  8  1  0
 11 10  1  0
 11 20  1  0
 11 12  1  0
 13  7  1  0
 13 12  1  0
 14  7  2  0
 15  6  1  0
 15 16  1  0
 17 18  2  0
 18 37  1  0
 19 18  1  0
 19 22  1  0
 20 17  1  0
 20 21  1  0
 21 19  2  0
 22 23  1  0
 23 24  2  0
 25 28  1  0
 25 24  1  0
 26 25  2  0
 27 26  1  0
 27 22  2  0
 28 29  1  0
 29 30  1  0
 30 31  2  0
 32 31  1  0
 32 36  1  0
 33 32  2  0
 34 29  2  0
 34 33  1  0
 35 34  1  0
 37 38  1  0
 38 41  1  0
 38 40  1  0
 39 37  2  0
 42 43  1  0
 42 17  1  0
 44 42  1  0
 46 47  1  0
 46 45  2  0
 48 59  2  0
 49 47  1  0
 49 54  1  0
 50 58  1  0
 50 60  1  0
 51 57  1  0
 51 53  1  0
 52 58  1  0
 53 52  1  0
 54 53  2  0
 55 49  2  0
 56 55  1  0
 56 51  2  0
 57 50  1  0
 58 48  1  0
 60 62  2  0
 61 60  1  0
 63 61  1  0
 64 73  2  0
 64 69  1  0
 65 61  1  0
 65 69  1  0
 66 65  1  0
 67 68  1  0
 67 66  1  0
 68 64  1  0
 69 70  2  0
 70 71  1  0
 72 71  2  0
 73 72  1  0
 74 48  1  0
 74 75  1  0
 74 84  1  0
 75 78  1  0
 76 80  1  0
 76 75  1  0
 77 76  2  0
 80 79  1  0
 82 80  1  0
 82 83  1  0
 82 81  1  0
 84 87  1  1
 84 85  1  0
 86 84  1  0
 89 91  1  0
 90 91  1  0
 91 88  1  0
M  ISO  4   7 100  15 100  46 101  47 101
M  END
>  <TORSDO>  (10) 
F 23

>  <SCORE>  (10) 
-12.724

>  <name>  (10) 
9

>  <ligand_id>  (10) 
9

>  <original_smiles>  (10) 
[H]c1c([H])c([H])c2c(c1[H])C([H])([H])C([H])([H])C([H])([H])C2([H])N([H])C(=O)C1([H])N(C(=O)C([H])(N([H])C(=O)C([H])(N([H])C([H])([H])[H])C([H])([H])[H])C(C([H])([H])[H])(C([H])([H])[H])C([H])([H])[H])C([H])([H])c2c([H])c(OC([H])([H])C([H])([H])C([H])(C([H])([H])C([H])(C([H])([H])[H])C([H])([H])[H])[N+]([H])([H])C([H])([H])C([H])([H])N([H])C(=O)N3C([H])([H])C([H])([H])C([H])([H])C([H])(n4nc(-c5c([H])c([H])c(Oc6c([H])c([H])c(F)c([H])c6F)c([H])c5[H])c(C(=O)N([H])[H])c4N([H])[H])C3([H])[H])c([H])c([H])c2C1([H])[H]

>  <smiles>  (10) 
[H]c1c([H])c([H])c2c(c1[H])C([H])([H])C([H])([H])C([H])([H])C2([H])N([H])C(=O)C1([H])N(C(=O)C([H])(N([H])C(=O)C([H])(N([H])C([H])([H])[H])C([H])([H])[H])C(C([H])([H])[H])(C([H])([H])[H])C([H])([H])[H])C([H])([H])c2c([H])c(OC([H])([H])C([H])([H])C([H])(C([H])([H])C([H])(C([H])([H])[H])C([H])([H])[H])[N+]([H])([H])C([H])([H])C([H])([H])N([H])C(=O)N3C([H])([H])C([H])([H])C([H])([H])C([H])(n4nc(-c5c([H])c([H])c(Oc6c([H])c([H])c(F)c([H])c6F)c([H])c5[H])c(C(=O)N([H])[H])c4N([H])[H])C3([H])[H])c([H])c([H])c2C1([H])[H]

$$$$
10:0:0
     RDKit          3D

 97106  0  0  1  0  0  0  0  0999 V2000
  -27.3720  -20.7890   19.4730 C   0  0  0  0  0  2  0  0  0  0  0  0
  -29.6350  -21.4270   18.5340 C   0  0  0  0  0  2  0  0  0  0  0  0
  -26.9040  -22.0810   18.7310 C   0  0  0  0  0  2  0  0  0  0  0  0
  -29.1740  -22.9130   18.3150 C   0  0  0  0  0  2  0  0  0  0  0  0
  -28.8930  -20.7050   19.6880 C   0  0  0  0  0  3  0  0  0  0  0  0
  -27.8060  -23.3280   18.9380 C   0  0  0  0  0  3  0  0  0  0  0  0
  -29.3950  -19.2440   20.0620 C   0  0  0  0  0  2  0  0  0  0  0  0
  -32.0430  -18.1790   22.7380 C   0  0  0  0  0  3  0  0  0  0  0  0
  -32.1680  -19.3920   23.4460 C   0  0  0  0  0  3  0  0  0  0  0  0
  -30.3250  -20.2820   22.1600 C   0  0  0  0  0  3  0  0  0  0  0  0
  -31.1330  -18.0310   21.6470 C   0  0  0  0  0  0  0  0  0  0  0  0
  -31.3250  -20.4680   23.1140 C   0  0  0  0  0  0  0  0  0  0  0  0
  -30.2840  -19.1430   21.3200 C   0  0  0  0  0  0  0  0  0  0  0  0
  -31.5340  -21.8760   23.6330 C   0  0  0  0  0  1  0  0  0  0  0  0
  -30.2940  -14.9460   19.6510 C   0  0  0  0  0  0  0  0  0  0  0  0
  -29.9710  -12.6390   18.8660 C   0  0  0  0  0  2  0  0  0  0  0  0
  -28.9090  -12.5470   17.7530 C   0  0  0  0  0  2  0  0  0  0  0  0
  -27.5380  -12.2770   18.3820 C   0  0  0  0  0  2  0  0  0  0  0  0
  -27.2020  -13.2610   19.5310 C   0  0  0  0  0  3  0  0  0  0  0  0
  -28.3860  -13.4840   20.5240 C   0  0  0  0  0  2  0  0  0  0  0  0
  -29.6360  -13.7480   19.7830 N   0  0  0  0  0  0  0  0  0  0  0  0
  -30.9200  -15.1710   18.6120 O   0  0  0  0  0  0  0  0  0  0  0  0
  -31.3190  -16.8140   20.7630 C   0  0  0  0  0  0  0  0  0  0  0  0
  -30.3920  -15.8070   20.6970 N   0  0  0  0  0  0  0  0  0  0  0  0
  -32.3860  -16.7950   20.1360 O   0  0  0  0  0  0  0  0  0  0  0  0
  -29.8040  -15.6650   21.4990 H   0  0  0  0  0  0  0  0  0  0  0  0
  -24.9490  -13.6660   20.7250 C   0  0  0  0  0  0  0  0  0  0  0  0
  -23.9750  -12.8160   21.1790 C   0  0  0  0  0  0  0  0  0  0  0  0
  -24.4420  -11.4950   20.8900 C   0  0  0  0  0  0  0  0  0  0  0  0
  -25.9540  -12.8660   20.2060 N   0  0  0  0  0  0  0  0  0  0  0  0
  -25.6560  -11.5450   20.3520 N   0  0  0  0  0  0  0  0  0  0  0  0
  -23.7750  -10.1940   21.0500 C   0  0  0  0  0  0  0  0  0  0  0  0
  -24.2600   -9.2230   21.9580 C   0  0  0  0  0  3  0  0  0  0  0  0
  -23.5890   -7.9900   22.1160 C   0  0  0  0  0  3  0  0  0  0  0  0
  -22.4210   -7.7150   21.3650 C   0  0  0  0  0  0  0  0  0  0  0  0
  -21.9580   -8.6720   20.4450 C   0  0  0  0  0  3  0  0  0  0  0  0
  -22.6310   -9.8950   20.2840 C   0  0  0  0  0  3  0  0  0  0  0  0
  -21.7300   -6.5280   21.4230 O   0  0  0  0  0  0  0  0  0  0  0  0
  -21.6060   -5.8250   22.5940 C   0  0  0  0  0  0  0  0  0  0  0  0
  -20.9670   -6.3680   23.7300 C   0  0  0  0  0  3  0  0  0  0  0  0
  -20.8030   -5.5830   24.8890 C   0  0  0  0  0  3  0  0  0  0  0  0
  -21.2690   -4.2560   24.9140 C   0  0  0  0  0  0  0  0  0  0  0  0
  -21.9070   -3.7130   23.7830 C   0  0  0  0  0  3  0  0  0  0  0  0
  -22.0680   -4.4930   22.6270 C   0  0  0  0  0  0  0  0  0  0  0  0
  -22.6620   -3.9550   21.5330 F   0  0  0  0  0  0  0  0  0  0  0  0
  -21.1050   -3.4990   26.0250 F   0  0  0  0  0  0  0  0  0  0  0  0
  -22.6500  -13.2050   21.7680 C   0  0  0  0  0  0  0  0  0  0  0  0
  -22.0940  -12.3680   22.6380 N   0  0  0  0  0  0  0  0  0  0  0  0
  -22.1190  -14.2850   21.4940 O   0  0  0  0  0  0  0  0  0  0  0  0
  -22.5380  -11.4980   22.8840 H   0  0  0  0  0  0  0  0  0  0  0  0
  -21.2140  -12.6030   23.0720 H   0  0  0  0  0  0  0  0  0  0  0  0
  -25.0550  -15.0520   20.7080 N   0  0  0  0  0  0  0  0  0  0  0  0
  -24.3000  -15.6420   21.0410 H   0  0  0  0  0  0  0  0  0  0  0  0
  -25.8360  -15.5740   20.3320 H   0  0  0  0  0  0  0  0  0  0  0  0
  -27.2610  -24.6750   18.2800 C   0  0  0  0  0  3  0  0  0  0  0  0
  -26.8950  -25.9200   19.1680 C   0  0  0  0  0  3  0  0  0  0  0  0
  -26.7720  -27.1880   18.4410 O   0  0  0  0  0  0  0  0  0  0  0  0
  -24.6710  -32.0380   23.3020 C   0  0  0  0  0  0  0  0  0  0  0  0
  -25.8020  -28.0890   18.8680 C   0  0  0  0  0  0  0  0  0  0  0  0
  -22.9300  -31.1810   21.7770 C   0  0  0  0  0  3  0  0  0  0  0  0
  -23.7630  -29.8630   19.7450 C   0  0  0  0  0  0  0  0  0  0  0  0
  -25.3760  -31.2780   21.0270 C   0  0  0  0  0  2  0  0  0  0  0  0
  -25.0920  -30.0830   20.1290 C   0  0  0  0  0  0  0  0  0  0  0  0
  -26.1170  -29.2070   19.6840 C   0  0  0  0  0  3  0  0  0  0  0  0
  -24.4630  -27.9090   18.4680 C   0  0  0  0  0  3  0  0  0  0  0  0
  -23.4470  -28.7900   18.8940 C   0  0  0  0  0  3  0  0  0  0  0  0
  -22.7160  -30.8160   20.2830 C   0  0  0  0  0  2  0  0  0  0  0  0
  -24.3600  -31.5050   22.0850 N   0  0  0  0  0  0  0  0  0  0  0  0
  -23.7920  -32.2910   24.1390 O   0  0  0  0  0  0  0  0  0  0  0  0
  -22.3510  -30.0470   22.6520 C   0  0  0  0  0  0  0  0  0  0  0  0
  -21.0190  -29.8760   22.6070 N   0  0  0  0  0  0  0  0  0  0  0  0
  -23.0940  -29.3260   23.3210 O   0  0  0  0  0  0  0  0  0  0  0  0
  -20.4840  -30.5050   22.0230 H   0  0  0  0  0  0  0  0  0  0  0  0
  -17.7430  -28.3850   22.9750 C   0  0  0  0  0  0  0  0  0  0  0  0
  -20.2650  -28.8440   23.3220 C   0  0  0  0  0  3  0  0  0  0  0  0
  -20.4960  -27.4520   22.6850 C   0  0  0  0  0  2  0  0  0  0  0  0
  -19.4470  -27.0730   21.6340 C   0  0  0  0  0  2  0  0  0  0  0  0
  -18.0470  -27.0800   22.2540 C   0  0  0  0  0  2  0  0  0  0  0  0
  -18.7840  -29.2180   23.4630 C   0  0  0  0  0  0  0  0  0  0  0  0
  -18.4460  -30.4320   24.1030 C   0  0  0  0  0  3  0  0  0  0  0  0
  -17.1000  -30.8110   24.2600 C   0  0  0  0  0  3  0  0  0  0  0  0
  -16.0720  -29.9750   23.7930 C   0  0  0  0  0  3  0  0  0  0  0  0
  -16.3970  -28.7630   23.1490 C   0  0  0  0  0  3  0  0  0  0  0  0
  -26.1430  -32.3790   23.6980 C   0  0  0  0  0  3  0  0  0  0  0  0
  -26.8100  -31.2740   24.6010 C   0  0  1  0  0  0  0  0  0  0  0  0
  -25.9640  -30.8820   25.8370 C   0  0  0  0  0  1  0  0  0  0  0  0
  -27.0700  -29.9890   23.7830 C   0  0  0  0  0  1  0  0  0  0  0  0
  -28.1950  -31.7740   25.0990 C   0  0  0  0  0  1  0  0  0  0  0  0
  -26.1420  -33.6810   24.3810 N   0  0  0  0  0  0  0  0  0  0  0  0
  -26.4820  -34.8410   23.8050 C   0  0  0  0  0  0  0  0  0  0  0  0
  -26.9100  -34.9160   22.6490 O   0  0  0  0  0  0  0  0  0  0  0  0
  -25.7790  -33.6970   25.3200 H   0  0  0  0  0  0  0  0  0  0  0  0
  -25.0340  -36.8430   24.2450 C   0  0  0  0  0  1  0  0  0  0  0  0
  -26.3310  -36.1220   24.6480 C   0  0  0  0  0  3  0  0  0  0  0  0
  -28.6980  -36.5360   25.1320 C   0  0  0  0  0  1  0  0  0  0  0  0
  -27.4730  -37.0500   24.5270 N   0  0  0  0  0  0  0  0  0  0  0  0
  -27.2620  -37.9490   24.9490 H   0  0  0  0  0  0  0  0  0  0  0  0
  1  5  1  0
  2  5  1  0
  3  6  1  0
  3  1  1  0
  4  2  1  0
  4  6  1  0
  5  7  1  0
  6 55  1  0
  7 13  1  0
  8  9  1  0
 10 12  1  0
 11  8  2  0
 12  9  2  0
 12 14  1  0
 13 11  1  0
 13 10  2  0
 15 21  1  0
 15 24  1  0
 16 21  1  0
 17 18  1  0
 17 16  1  0
 19 18  1  0
 19 30  1  0
 19 20  1  0
 21 20  1  0
 22 15  2  0
 23 11  1  0
 24 23  1  0
 24 26  1  0
 25 23  2  0
 27 28  2  0
 28 47  1  0
 29 32  1  0
 29 28  1  0
 30 31  1  0
 30 27  1  0
 31 29  2  0
 32 33  1  0
 33 34  2  0
 35 38  1  0
 35 34  1  0
 36 35  2  0
 37 36  1  0
 37 32  2  0
 38 39  1  0
 39 44  2  0
 39 40  1  0
 40 41  2  0
 41 42  1  0
 42 46  1  0
 43 42  2  0
 44 43  1  0
 45 44  1  0
 47 48  1  0
 48 50  1  0
 48 51  1  0
 49 47  2  0
 52 27  1  0
 52 53  1  0
 54 52  1  0
 55 56  2  0
 57 59  1  0
 57 56  1  0
 58 69  2  0
 59 64  1  0
 60 68  1  0
 60 70  1  0
 61 63  1  0
 61 67  1  0
 62 68  1  0
 63 62  1  0
 64 63  2  0
 65 59  2  0
 65 66  1  0
 66 61  2  0
 67 60  1  0
 68 58  1  0
 70 72  2  0
 71 70  1  0
 73 71  1  0
 74 83  2  0
 74 79  1  0
 75 71  1  0
 75 79  1  0
 76 75  1  0
 77 78  1  0
 77 76  1  0
 78 74  1  0
 79 80  2  0
 80 81  1  0
 82 81  2  0
 83 82  1  0
 84 58  1  0
 84 89  1  0
 84 85  1  0
 85 88  1  1
 85 86  1  0
 87 85  1  0
 89 92  1  0
 90 89  1  0
 90 94  1  0
 91 90  2  0
 94 93  1  0
 96 94  1  0
 96 97  1  0
 96 95  1  0
M  ISO  4  15 100  24 100  56 101  57 101
M  END
>  <TORSDO>  (11) 
F 20

>  <SCORE>  (11) 
-9.421

>  <name>  (11) 
10

>  <ligand_id>  (11) 
10

>  <original_smiles>  (11) 
[H]c1c([H])c([H])c2c(c1[H])C([H])([H])C([H])([H])C([H])([H])C2([H])N([H])C(=O)C1([H])N(C(=O)C([H])(N([H])C(=O)C([H])(N([H])C([H])([H])[H])C([H])([H])[H])C(C([H])([H])[H])(C([H])([H])[H])C([H])([H])[H])C([H])([H])c2c([H])c(OC([H])([H])C([H])([H])C3([H])C([H])([H])C([H])([H])C([H])(C([H])([H])c4c([H])c(C([H])([H])[H])c([H])c([H])c4C(=O)N([H])C(=O)N4C([H])([H])C([H])([H])C([H])([H])C([H])(n5nc(-c6c([H])c([H])c(Oc7c([H])c([H])c(F)c([H])c7F)c([H])c6[H])c(C(=O)N([H])[H])c5N([H])[H])C4([H])[H])C([H])([H])C3([H])[H])c([H])c([H])c2C1([H])[H]

>  <smiles>  (11) 
[H]c1c([H])c([H])c2c(c1[H])C([H])([H])C([H])([H])C([H])([H])C2([H])N([H])C(=O)C1([H])N(C(=O)C([H])(N([H])C(=O)C([H])(N([H])C([H])([H])[H])C([H])([H])[H])C(C([H])([H])[H])(C([H])([H])[H])C([H])([H])[H])C([H])([H])c2c([H])c(OC([H])([H])C([H])([H])C3([H])C([H])([H])C([H])([H])C([H])(C([H])([H])c4c([H])c(C([H])([H])[H])c([H])c([H])c4C(=O)N([H])C(=O)N4C([H])([H])C([H])([H])C([H])([H])C([H])(n5nc(-c6c([H])c([H])c(Oc7c([H])c([H])c(F)c([H])c7F)c([H])c6[H])c(C(=O)N([H])[H])c5N([H])[H])C4([H])[H])C([H])([H])C3([H])[H])c([H])c([H])c2C1([H])[H]

$$$$
11:0:0
     RDKit          3D

 95103  0  0  1  0  0  0  0  0999 V2000
  -29.6540  -24.4050   19.9800 C   0  0  2  0  0  0  0  0  0  0  0  0
  -31.3470  -26.4650   20.2390 C   0  0  0  0  0  1  0  0  0  0  0  0
  -30.9040  -25.0520   20.6650 C   0  0  0  0  0  2  0  0  0  0  0  0
  -29.6910  -22.8920   20.4780 C   0  0  0  0  0  2  0  0  0  0  0  0
  -28.6510  -21.8290   20.0020 C   0  0  0  0  0  2  0  0  0  0  0  0
  -29.8810  -18.8750   17.8540 C   0  0  0  0  0  3  0  0  0  0  0  0
  -29.4310  -20.1440   18.2680 C   0  0  0  0  0  3  0  0  0  0  0  0
  -30.1250  -17.8590   18.7980 C   0  0  0  0  0  3  0  0  0  0  0  0
  -29.4650  -19.3890   20.5810 C   0  0  0  0  0  3  0  0  0  0  0  0
  -29.2100  -20.4270   19.6330 C   0  0  0  0  0  0  0  0  0  0  0  0
  -29.9240  -18.0950   20.1730 C   0  0  0  0  0  0  0  0  0  0  0  0
  -30.2880  -16.9850   21.1870 C   0  0  0  0  0  2  0  0  0  0  0  0
  -30.6180  -14.5500   20.4540 C   0  0  0  0  0  0  0  0  0  0  0  0
  -30.3550  -12.3600   19.3230 C   0  0  0  0  0  2  0  0  0  0  0  0
  -29.4110  -12.5390   18.1160 C   0  0  0  0  0  2  0  0  0  0  0  0
  -27.9360  -12.3920   18.5440 C   0  0  0  0  0  2  0  0  0  0  0  0
  -27.5920  -13.2350   19.8020 C   0  0  0  0  0  3  0  0  0  0  0  0
  -28.6500  -13.0360   20.9100 C   0  0  0  0  0  2  0  0  0  0  0  0
  -29.9640  -13.3580   20.3340 N   0  0  0  0  0  0  0  0  0  0  0  0
  -31.7750  -14.7100   20.0570 O   0  0  0  0  0  0  0  0  0  0  0  0
  -29.8670  -15.5920   20.8850 N   0  0  0  0  0  0  0  0  0  0  0  0
  -28.9130  -15.3680   21.1160 H   0  0  0  0  0  0  0  0  0  0  0  0
  -25.1970  -13.8440   20.5070 C   0  0  0  0  0  0  0  0  0  0  0  0
  -24.1280  -13.0730   20.8830 C   0  0  0  0  0  0  0  0  0  0  0  0
  -24.5900  -11.7210   20.8600 C   0  0  0  0  0  0  0  0  0  0  0  0
  -26.2410  -12.9610   20.2830 N   0  0  0  0  0  0  0  0  0  0  0  0
  -25.8800  -11.6800   20.5530 N   0  0  0  0  0  0  0  0  0  0  0  0
  -23.8640  -10.4610   21.0570 C   0  0  0  0  0  0  0  0  0  0  0  0
  -24.3080   -9.4880   21.9810 C   0  0  0  0  0  3  0  0  0  0  0  0
  -23.5820   -8.2920   22.1630 C   0  0  0  0  0  3  0  0  0  0  0  0
  -22.3980   -8.0600   21.4250 C   0  0  0  0  0  0  0  0  0  0  0  0
  -21.9740   -9.0200   20.4900 C   0  0  0  0  0  3  0  0  0  0  0  0
  -22.7000  -10.2080   20.3040 C   0  0  0  0  0  3  0  0  0  0  0  0
  -21.6440   -6.9150   21.5190 O   0  0  0  0  0  0  0  0  0  0  0  0
  -21.6240   -6.1570   22.6620 C   0  0  0  0  0  0  0  0  0  0  0  0
  -21.2440   -6.6990   23.9100 C   0  0  0  0  0  3  0  0  0  0  0  0
  -21.1710   -5.8680   25.0460 C   0  0  0  0  0  3  0  0  0  0  0  0
  -21.4670   -4.4970   24.9360 C   0  0  0  0  0  0  0  0  0  0  0  0
  -21.8380   -3.9540   23.6940 C   0  0  0  0  0  3  0  0  0  0  0  0
  -21.9130   -4.7820   22.5590 C   0  0  0  0  0  0  0  0  0  0  0  0
  -22.2520   -4.2500   21.3600 F   0  0  0  0  0  0  0  0  0  0  0  0
  -21.3890   -3.6950   26.0240 F   0  0  0  0  0  0  0  0  0  0  0  0
  -22.7310  -13.5510   21.1490 C   0  0  0  0  0  0  0  0  0  0  0  0
  -22.0020  -12.8610   22.0200 N   0  0  0  0  0  0  0  0  0  0  0  0
  -22.2940  -14.5720   20.6220 O   0  0  0  0  0  0  0  0  0  0  0  0
  -22.3660  -12.0330   22.4690 H   0  0  0  0  0  0  0  0  0  0  0  0
  -21.0640  -13.1640   22.2400 H   0  0  0  0  0  0  0  0  0  0  0  0
  -25.3620  -15.2130   20.3200 N   0  0  0  0  0  0  0  0  0  0  0  0
  -24.5900  -15.8650   20.4140 H   0  0  0  0  0  0  0  0  0  0  0  0
  -26.2080  -15.6490   19.9760 H   0  0  0  0  0  0  0  0  0  0  0  0
  -29.7550  -24.4660   18.4270 C   0  0  0  0  0  2  0  0  0  0  0  0
  -31.0050  -23.9540   16.2530 C   0  0  0  0  0  1  0  0  0  0  0  0
  -30.9720  -23.7740   17.7760 C   0  0  0  0  0  2  0  0  0  0  0  0
  -28.3530  -25.1920   20.4140 C   0  0  0  0  0  2  0  0  0  0  0  0
  -28.3840  -26.6210   20.1100 O   0  0  0  0  0  0  0  0  0  0  0  0
  -24.6110  -31.8770   23.2170 C   0  0  0  0  0  0  0  0  0  0  0  0
  -27.2110  -27.3640   20.1430 C   0  0  0  0  0  0  0  0  0  0  0  0
  -23.3890  -30.4690   21.5950 C   0  0  0  0  0  3  0  0  0  0  0  0
  -24.8250  -28.9150   20.1680 C   0  0  0  0  0  0  0  0  0  0  0  0
  -25.9190  -30.8090   21.3760 C   0  0  0  0  0  2  0  0  0  0  0  0
  -25.9950  -29.4300   20.7400 C   0  0  0  0  0  0  0  0  0  0  0  0
  -27.1900  -28.6660   20.7170 C   0  0  0  0  0  3  0  0  0  0  0  0
  -26.0190  -26.8770   19.5630 C   0  0  0  0  0  3  0  0  0  0  0  0
  -24.8350  -27.6400   19.5750 C   0  0  0  0  0  3  0  0  0  0  0  0
  -23.5870  -29.7830   20.2170 C   0  0  0  0  0  2  0  0  0  0  0  0
  -24.6590  -31.0680   22.1200 N   0  0  0  0  0  0  0  0  0  0  0  0
  -23.5330  -32.1540   23.7640 O   0  0  0  0  0  0  0  0  0  0  0  0
  -22.7430  -29.4550   22.5670 C   0  0  0  0  0  0  0  0  0  0  0  0
  -21.4170  -29.2730   22.4510 N   0  0  0  0  0  0  0  0  0  0  0  0
  -23.4320  -28.8340   23.3800 O   0  0  0  0  0  0  0  0  0  0  0  0
  -20.9220  -29.8260   21.7660 H   0  0  0  0  0  0  0  0  0  0  0  0
  -18.0480  -28.0700   22.9750 C   0  0  0  0  0  0  0  0  0  0  0  0
  -20.6060  -28.3390   23.2330 C   0  0  0  0  0  3  0  0  0  0  0  0
  -20.7110  -26.9040   22.6670 C   0  0  0  0  0  2  0  0  0  0  0  0
  -19.6050  -26.5710   21.6590 C   0  0  0  0  0  2  0  0  0  0  0  0
  -18.2260  -26.7160   22.3100 C   0  0  0  0  0  2  0  0  0  0  0  0
  -19.1660  -28.8390   23.3950 C   0  0  0  0  0  0  0  0  0  0  0  0
  -18.9450  -30.1060   23.9770 C   0  0  0  0  0  3  0  0  0  0  0  0
  -17.6400  -30.6050   24.1440 C   0  0  0  0  0  3  0  0  0  0  0  0
  -16.5370  -29.8330   23.7410 C   0  0  0  0  0  3  0  0  0  0  0  0
  -16.7410  -28.5680   23.1630 C   0  0  0  0  0  3  0  0  0  0  0  0
  -25.9020  -32.5120   23.8230 C   0  0  0  0  0  3  0  0  0  0  0  0
  -25.5900  -33.9060   24.1690 N   0  0  0  0  0  0  0  0  0  0  0  0
  -25.9040  -34.9660   23.4130 C   0  0  0  0  0  0  0  0  0  0  0  0
  -26.5570  -34.8730   22.3690 O   0  0  0  0  0  0  0  0  0  0  0  0
  -25.0090  -34.0520   24.9810 H   0  0  0  0  0  0  0  0  0  0  0  0
  -24.1600  -36.7500   23.1010 C   0  0  0  0  0  1  0  0  0  0  0  0
  -25.4170  -36.3480   23.8880 C   0  0  0  0  0  3  0  0  0  0  0  0
  -27.5630  -37.2370   24.6860 C   0  0  0  0  0  1  0  0  0  0  0  0
  -26.4430  -37.4080   23.7650 N   0  0  0  0  0  0  0  0  0  0  0  0
  -26.0340  -38.3230   23.9280 H   0  0  0  0  0  0  0  0  0  0  0  0
  -26.4440  -31.7340   25.0850 C   0  0  1  0  0  0  0  0  0  0  0  0
  -25.3690  -31.4850   26.1700 C   0  0  0  0  0  1  0  0  0  0  0  0
  -27.0250  -30.3620   24.6720 C   0  0  0  0  0  1  0  0  0  0  0  0
  -27.6040  -32.5290   25.7320 C   0  0  0  0  0  1  0  0  0  0  0  0
  1 51  1  6
  1 54  1  0
  1  4  1  0
  1  3  1  0
  2  3  1  0
  5  4  1  0
  6  7  2  0
  6  8  1  0
  7 10  1  0
  8 11  2  0
 10  5  1  0
 10  9  2  0
 11  9  1  0
 11 12  1  0
 13 21  1  0
 14 19  1  0
 15 16  1  0
 15 14  1  0
 17 16  1  0
 17 26  1  0
 17 18  1  0
 19 13  1  0
 19 18  1  0
 20 13  2  0
 21 22  1  0
 21 12  1  0
 23 24  2  0
 24 43  1  0
 25 24  1  0
 25 28  1  0
 26 23  1  0
 26 27  1  0
 27 25  2  0
 28 29  1  0
 29 30  2  0
 31 34  1  0
 31 30  1  0
 32 31  2  0
 33 32  1  0
 33 28  2  0
 34 35  1  0
 35 36  1  0
 36 37  2  0
 38 37  1  0
 38 42  1  0
 39 38  2  0
 40 35  2  0
 40 39  1  0
 41 40  1  0
 43 44  1  0
 44 47  1  0
 44 46  1  0
 45 43  2  0
 48 49  1  0
 48 23  1  0
 50 48  1  0
 52 53  1  0
 53 51  1  0
 55 57  1  0
 55 54  1  0
 56 67  2  0
 57 62  1  0
 58 66  1  0
 58 68  1  0
 59 65  1  0
 59 61  1  0
 60 66  1  0
 61 60  1  0
 62 61  2  0
 63 64  1  0
 63 57  2  0
 64 59  2  0
 65 58  1  0
 66 56  1  0
 68 70  2  0
 69 68  1  0
 71 69  1  0
 72 81  2  0
 72 77  1  0
 73 69  1  0
 73 77  1  0
 74 73  1  0
 75 76  1  0
 75 74  1  0
 76 72  1  0
 77 78  2  0
 78 79  1  0
 80 79  2  0
 81 80  1  0
 82 56  1  0
 82 83  1  0
 82 92  1  0
 83 86  1  0
 84 88  1  0
 84 83  1  0
 85 84  2  0
 88 87  1  0
 90 88  1  0
 90 91  1  0
 90 89  1  0
 92 95  1  1
 92 93  1  0
 94 92  1  0
M  ISO  4  13 100  21 100  54 101  55 101
M  END
>  <TORSDO>  (12) 
F 24

>  <SCORE>  (12) 
-12.642

>  <name>  (12) 
11

>  <ligand_id>  (12) 
11

>  <original_smiles>  (12) 
[H]c1c([H])c([H])c2c(c1[H])C([H])([H])C([H])([H])C([H])([H])C2([H])N([H])C(=O)C1([H])N(C(=O)C([H])(N([H])C(=O)C([H])(N([H])C([H])([H])[H])C([H])([H])[H])C(C([H])([H])[H])(C([H])([H])[H])C([H])([H])[H])C([H])([H])c2c([H])c(OC([H])([H])C(C([H])([H])C([H])([H])[H])(C([H])([H])C([H])([H])c3c([H])c([H])c([H])c(C([H])([H])N([H])C(=O)N4C([H])([H])C([H])([H])C([H])([H])C([H])(n5nc(-c6c([H])c([H])c(Oc7c([H])c([H])c(F)c([H])c7F)c([H])c6[H])c(C(=O)N([H])[H])c5N([H])[H])C4([H])[H])c3[H])C([H])([H])C([H])([H])C([H])([H])[H])c([H])c([H])c2C1([H])[H]

>  <smiles>  (12) 
[H]c1c([H])c([H])c2c(c1[H])C([H])([H])C([H])([H])C([H])([H])C2([H])N([H])C(=O)C1([H])N(C(=O)C([H])(N([H])C(=O)C([H])(N([H])C([H])([H])[H])C([H])([H])[H])C(C([H])([H])[H])(C([H])([H])[H])C([H])([H])[H])C([H])([H])c2c([H])c(OC([H])([H])C(C([H])([H])C([H])([H])[H])(C([H])([H])C([H])([H])c3c([H])c([H])c([H])c(C([H])([H])N([H])C(=O)N4C([H])([H])C([H])([H])C([H])([H])C([H])(n5nc(-c6c([H])c([H])c(Oc7c([H])c([H])c(F)c([H])c7F)c([H])c6[H])c(C(=O)N([H])[H])c5N([H])[H])C4([H])[H])c3[H])C([H])([H])C([H])([H])C([H])([H])[H])c([H])c([H])c2C1([H])[H]

$$$$
12:0:0
     RDKit          3D

 94101  0  0  1  0  0  0  0  0999 V2000
  -26.9590  -20.8660   19.9050 C   0  0  0  0  0  2  0  0  0  0  0  0
  -26.6670  -22.3540   19.6450 C   0  0  0  0  0  2  0  0  0  0  0  0
  -27.9050  -23.2560   19.8240 C   0  0  0  0  0  2  0  0  0  0  0  0
  -27.5540  -25.0020   21.6310 C   0  0  0  0  0  1  0  0  0  0  0  0
  -27.5530  -24.7350   20.1140 C   0  0  0  0  0  3  0  0  0  0  0  0
  -28.4450  -25.7310   19.3140 C   0  0  0  0  0  2  0  0  0  0  0  0
  -28.4100  -27.1000   19.7560 O   0  0  0  0  0  0  0  0  0  0  0  0
  -24.4990  -31.8430   23.3070 C   0  0  0  0  0  0  0  0  0  0  0  0
  -27.2090  -27.7800   19.7860 C   0  0  0  0  0  0  0  0  0  0  0  0
  -23.3000  -30.5240   21.5950 C   0  0  0  0  0  3  0  0  0  0  0  0
  -24.7630  -29.1820   20.0020 C   0  0  0  0  0  0  0  0  0  0  0  0
  -25.8020  -31.0040   21.3600 C   0  0  0  0  0  2  0  0  0  0  0  0
  -25.9170  -29.6980   20.6060 C   0  0  0  0  0  0  0  0  0  0  0  0
  -27.1390  -28.9950   20.5070 C   0  0  0  0  0  3  0  0  0  0  0  0
  -26.0430  -27.3120   19.1380 C   0  0  0  0  0  3  0  0  0  0  0  0
  -24.8190  -27.9870   19.2700 C   0  0  0  0  0  3  0  0  0  0  0  0
  -23.4880  -29.9760   20.1580 C   0  0  0  0  0  2  0  0  0  0  0  0
  -24.5530  -31.1350   22.1460 N   0  0  0  0  0  0  0  0  0  0  0  0
  -23.4250  -32.0250   23.8980 O   0  0  0  0  0  0  0  0  0  0  0  0
  -22.7270  -29.3980   22.4860 C   0  0  0  0  0  0  0  0  0  0  0  0
  -21.4160  -29.1410   22.3560 N   0  0  0  0  0  0  0  0  0  0  0  0
  -23.4590  -28.7650   23.2530 O   0  0  0  0  0  0  0  0  0  0  0  0
  -20.8830  -29.7100   21.7140 H   0  0  0  0  0  0  0  0  0  0  0  0
  -18.1340  -27.6900   22.7790 C   0  0  0  0  0  0  0  0  0  0  0  0
  -20.6670  -28.1050   23.0680 C   0  0  0  0  0  3  0  0  0  0  0  0
  -20.8670  -26.7220   22.4080 C   0  0  0  0  0  2  0  0  0  0  0  0
  -19.7880  -26.3850   21.3740 C   0  0  0  0  0  2  0  0  0  0  0  0
  -18.4000  -26.3970   22.0230 C   0  0  0  0  0  2  0  0  0  0  0  0
  -19.1980  -28.4990   23.2540 C   0  0  0  0  0  0  0  0  0  0  0  0
  -18.8980  -29.7070   23.9210 C   0  0  0  0  0  3  0  0  0  0  0  0
  -17.5620  -30.1090   24.1120 C   0  0  0  0  0  3  0  0  0  0  0  0
  -16.5110  -29.2970   23.6520 C   0  0  0  0  0  3  0  0  0  0  0  0
  -16.7980  -28.0880   22.9920 C   0  0  0  0  0  3  0  0  0  0  0  0
  -25.7780  -32.4820   23.9340 C   0  0  0  0  0  3  0  0  0  0  0  0
  -26.3050  -31.7020   25.2010 C   0  0  1  0  0  0  0  0  0  0  0  0
  -25.2130  -31.4270   26.2610 C   0  0  0  0  0  1  0  0  0  0  0  0
  -26.9170  -30.3420   24.7930 C   0  0  0  0  0  1  0  0  0  0  0  0
  -27.4370  -32.5090   25.8820 C   0  0  0  0  0  1  0  0  0  0  0  0
  -25.4540  -33.8730   24.2800 N   0  0  0  0  0  0  0  0  0  0  0  0
  -25.8010  -34.9390   23.5460 C   0  0  0  0  0  0  0  0  0  0  0  0
  -26.4990  -34.8550   22.5330 O   0  0  0  0  0  0  0  0  0  0  0  0
  -24.8380  -34.0120   25.0690 H   0  0  0  0  0  0  0  0  0  0  0  0
  -24.0860  -36.7360   23.1540 C   0  0  0  0  0  1  0  0  0  0  0  0
  -25.2920  -36.3180   24.0110 C   0  0  0  0  0  3  0  0  0  0  0  0
  -27.3860  -37.1850   24.9550 C   0  0  0  0  0  1  0  0  0  0  0  0
  -26.3290  -37.3710   23.9630 N   0  0  0  0  0  0  0  0  0  0  0  0
  -25.9150  -38.2890   24.1100 H   0  0  0  0  0  0  0  0  0  0  0  0
  -25.9430  -19.9150   19.2320 C   0  0  0  0  0  2  0  0  0  0  0  0
  -26.2410  -18.4220   19.5040 C   0  0  0  0  0  2  0  0  0  0  0  0
  -27.1060  -17.7530   18.5010 N   0  0  0  0  0  4  0  0  0  0  0  0
  -27.2120  -16.7870   18.7880 H   0  0  0  0  0  0  0  0  0  0  0  0
  -26.6190  -17.7490   17.6190 H   0  0  0  0  0  0  0  0  0  0  0  0
  -28.4440  -18.3310   18.2610 C   0  0  0  0  0  2  0  0  0  0  0  0
  -29.6040  -17.3580   18.5300 C   0  0  0  0  0  2  0  0  0  0  0  0
  -29.9180  -17.0580   20.0070 C   0  0  0  0  0  2  0  0  0  0  0  0
  -31.2670  -16.3320   20.1350 C   0  0  0  0  0  2  0  0  0  0  0  0
  -31.9560  -14.2410   21.0460 C   0  0  0  0  0  0  0  0  0  0  0  0
  -31.4550  -12.2950   19.6410 C   0  0  0  0  0  2  0  0  0  0  0  0
  -30.6520  -12.7700   18.4130 C   0  0  0  0  0  2  0  0  0  0  0  0
  -29.1450  -12.8020   18.7320 C   0  0  0  0  0  2  0  0  0  0  0  0
  -28.8170  -13.5460   20.0520 C   0  0  0  0  0  3  0  0  0  0  0  0
  -29.7420  -13.0660   21.1970 C   0  0  0  0  0  2  0  0  0  0  0  0
  -31.1360  -13.2040   20.7480 N   0  0  0  0  0  0  0  0  0  0  0  0
  -33.1640  -14.2630   20.8010 O   0  0  0  0  0  0  0  0  0  0  0  0
  -31.3130  -15.3950   21.2600 N   0  0  0  0  0  0  0  0  0  0  0  0
  -31.6340  -15.8520   22.1020 H   0  0  0  0  0  0  0  0  0  0  0  0
  -26.4450  -14.4260   20.5450 C   0  0  0  0  0  0  0  0  0  0  0  0
  -25.2620  -13.7790   20.7930 C   0  0  0  0  0  0  0  0  0  0  0  0
  -25.5710  -12.3870   20.7910 C   0  0  0  0  0  0  0  0  0  0  0  0
  -27.4000  -13.4300   20.3990 N   0  0  0  0  0  0  0  0  0  0  0  0
  -26.8700  -12.1990   20.6090 N   0  0  0  0  0  0  0  0  0  0  0  0
  -24.6930  -11.2180   20.9000 C   0  0  0  0  0  0  0  0  0  0  0  0
  -24.9370  -10.2040   21.8510 C   0  0  0  0  0  3  0  0  0  0  0  0
  -24.0700   -9.0920   21.9510 C   0  0  0  0  0  3  0  0  0  0  0  0
  -22.9470   -8.9900   21.0950 C   0  0  0  0  0  0  0  0  0  0  0  0
  -22.7260   -9.9900   20.1310 C   0  0  0  0  0  3  0  0  0  0  0  0
  -23.5870  -11.0970   20.0360 C   0  0  0  0  0  3  0  0  0  0  0  0
  -22.0650   -7.9360   21.1110 O   0  0  0  0  0  0  0  0  0  0  0  0
  -21.8280   -7.2110   22.2520 C   0  0  0  0  0  0  0  0  0  0  0  0
  -21.3240   -7.8090   23.4300 C   0  0  0  0  0  3  0  0  0  0  0  0
  -21.0260   -7.0110   24.5540 C   0  0  0  0  0  3  0  0  0  0  0  0
  -21.2210   -5.6160   24.5010 C   0  0  0  0  0  0  0  0  0  0  0  0
  -21.7160   -5.0200   23.3290 C   0  0  0  0  0  3  0  0  0  0  0  0
  -22.0140   -5.8130   22.2090 C   0  0  0  0  0  0  0  0  0  0  0  0
  -22.4680   -5.2320   21.0710 F   0  0  0  0  0  0  0  0  0  0  0  0
  -20.9310   -4.8470   25.5760 F   0  0  0  0  0  0  0  0  0  0  0  0
  -23.9090  -14.4160   20.9380 C   0  0  0  0  0  0  0  0  0  0  0  0
  -23.0390  -13.8410   21.7630 N   0  0  0  0  0  0  0  0  0  0  0  0
  -23.6290  -15.4640   20.3580 O   0  0  0  0  0  0  0  0  0  0  0  0
  -23.2410  -12.9710   22.2300 H   0  0  0  0  0  0  0  0  0  0  0  0
  -22.1460  -14.2810   21.9290 H   0  0  0  0  0  0  0  0  0  0  0  0
  -26.7880  -15.7680   20.4330 N   0  0  0  0  0  0  0  0  0  0  0  0
  -26.0820  -16.3130   20.9170 H   0  0  0  0  0  0  0  0  0  0  0  0
  -27.6950  -15.8910   20.8690 H   0  0  0  0  0  0  0  0  0  0  0  0
  2  3  1  0
  2  1  1  0
  3  5  1  0
  5  4  1  0
  6  7  1  0
  6  5  1  0
  7  9  1  0
  8 19  2  0
  9 14  1  0
 10 18  1  0
 10 20  1  0
 11 17  1  0
 11 13  1  0
 12 18  1  0
 13 12  1  0
 14 13  2  0
 15 16  1  0
 15  9  2  0
 16 11  2  0
 17 10  1  0
 18  8  1  0
 20 22  2  0
 21 20  1  0
 23 21  1  0
 24 33  2  0
 24 29  1  0
 25 21  1  0
 25 29  1  0
 26 25  1  0
 27 28  1  0
 27 26  1  0
 28 24  1  0
 29 30  2  0
 30 31  1  0
 32 31  2  0
 33 32  1  0
 34  8  1  0
 34 39  1  0
 34 35  1  0
 35 38  1  1
 35 36  1  0
 37 35  1  0
 39 42  1  0
 40 44  1  0
 40 39  1  0
 41 40  2  0
 44 43  1  0
 46 44  1  0
 46 47  1  0
 46 45  1  0
 48 49  1  0
 48  1  1  0
 50 51  1  0
 50 49  1  0
 52 50  1  0
 53 50  1  0
 53 54  1  0
 54 55  1  0
 55 56  1  0
 56 65  1  0
 57 65  1  0
 58 63  1  0
 59 60  1  0
 59 58  1  0
 61 60  1  0
 61 70  1  0
 61 62  1  0
 63 57  1  0
 63 62  1  0
 64 57  2  0
 65 66  1  0
 67 68  2  0
 68 87  1  0
 69 68  1  0
 69 72  1  0
 70 67  1  0
 70 71  1  0
 71 69  2  0
 72 73  1  0
 73 74  2  0
 75 78  1  0
 75 74  1  0
 76 75  2  0
 77 76  1  0
 77 72  2  0
 78 79  1  0
 79 80  1  0
 80 81  2  0
 82 81  1  0
 82 86  1  0
 83 82  2  0
 84 79  2  0
 84 83  1  0
 85 84  1  0
 87 88  1  0
 88 91  1  0
 88 90  1  0
 89 87  2  0
 92 67  1  0
 92 94  1  0
 92 93  1  0
M  ISO  4   6 101   7 101  57 100  65 100
M  END
>  <TORSDO>  (13) 
F 27

>  <SCORE>  (13) 
-8.520

>  <name>  (13) 
12

>  <ligand_id>  (13) 
12

>  <original_smiles>  (13) 
[H]c1c([H])c([H])c2c(c1[H])C([H])([H])C([H])([H])C([H])([H])C2([H])N([H])C(=O)C1([H])N(C(=O)C([H])(N([H])C(=O)C([H])(N([H])C([H])([H])[H])C([H])([H])[H])C(C([H])([H])[H])(C([H])([H])[H])C([H])([H])[H])C([H])([H])c2c([H])c(OC([H])([H])C([H])(C([H])([H])[H])C([H])([H])C([H])([H])C([H])([H])C([H])([H])C([H])([H])[N+]([H])([H])C([H])([H])C([H])([H])C([H])([H])C([H])([H])N([H])C(=O)N3C([H])([H])C([H])([H])C([H])([H])C([H])(n4nc(-c5c([H])c([H])c(Oc6c([H])c([H])c(F)c([H])c6F)c([H])c5[H])c(C(=O)N([H])[H])c4N([H])[H])C3([H])[H])c([H])c([H])c2C1([H])[H]

>  <smiles>  (13) 
[H]c1c([H])c([H])c2c(c1[H])C([H])([H])C([H])([H])C([H])([H])C2([H])N([H])C(=O)C1([H])N(C(=O)C([H])(N([H])C(=O)C([H])(N([H])C([H])([H])[H])C([H])([H])[H])C(C([H])([H])[H])(C([H])([H])[H])C([H])([H])[H])C([H])([H])c2c([H])c(OC([H])([H])C([H])(C([H])([H])[H])C([H])([H])C([H])([H])C([H])([H])C([H])([H])C([H])([H])[N+]([H])([H])C([H])([H])C([H])([H])C([H])([H])C([H])([H])N([H])C(=O)N3C([H])([H])C([H])([H])C([H])([H])C([H])(n4nc(-c5c([H])c([H])c(Oc6c([H])c([H])c(F)c([H])c6F)c([H])c5[H])c(C(=O)N([H])[H])c4N([H])[H])C3([H])[H])c([H])c([H])c2C1([H])[H]

$$$$
13:0:0
     RDKit          3D

 91 98  0  0  1  0  0  0  0  0999 V2000
  -29.7400  -21.9660   20.8570 N   0  0  0  0  0  4  0  0  0  0  0  0
  -30.6300  -22.2710   20.4980 H   0  0  0  0  0  0  0  0  0  0  0  0
  -29.2170  -21.5930   20.0790 H   0  0  0  0  0  0  0  0  0  0  0  0
  -29.0010  -23.1580   21.3620 C   0  0  0  0  0  2  0  0  0  0  0  0
  -28.8770  -24.3110   20.3300 C   0  0  0  0  0  2  0  0  0  0  0  0
  -28.2490  -25.5790   20.9500 C   0  0  0  0  0  2  0  0  0  0  0  0
  -28.3260  -26.7250   20.0870 O   0  0  0  0  0  0  0  0  0  0  0  0
  -24.5780  -31.8910   23.2390 C   0  0  0  0  0  0  0  0  0  0  0  0
  -27.1820  -27.4870   20.0910 C   0  0  0  0  0  0  0  0  0  0  0  0
  -23.3530  -30.5100   21.5920 C   0  0  0  0  0  3  0  0  0  0  0  0
  -24.7920  -28.9890   20.1350 C   0  0  0  0  0  0  0  0  0  0  0  0
  -25.8770  -30.8720   21.3720 C   0  0  0  0  0  2  0  0  0  0  0  0
  -25.9560  -29.5080   20.7170 C   0  0  0  0  0  0  0  0  0  0  0  0
  -27.1580  -28.7650   20.6910 C   0  0  0  0  0  3  0  0  0  0  0  0
  -26.0070  -26.9790   19.5000 C   0  0  0  0  0  3  0  0  0  0  0  0
  -24.8120  -27.7240   19.5220 C   0  0  0  0  0  3  0  0  0  0  0  0
  -23.5480  -29.8450   20.2020 C   0  0  0  0  0  2  0  0  0  0  0  0
  -24.6210  -31.1040   22.1270 N   0  0  0  0  0  0  0  0  0  0  0  0
  -23.5030  -32.1580   23.7930 O   0  0  0  0  0  0  0  0  0  0  0  0
  -22.7090  -29.4800   22.5470 C   0  0  0  0  0  0  0  0  0  0  0  0
  -21.3850  -29.2930   22.4220 N   0  0  0  0  0  0  0  0  0  0  0  0
  -23.3980  -28.8510   23.3550 O   0  0  0  0  0  0  0  0  0  0  0  0
  -20.8910  -29.8530   21.7410 H   0  0  0  0  0  0  0  0  0  0  0  0
  -18.0210  -28.0670   22.9000 C   0  0  0  0  0  0  0  0  0  0  0  0
  -20.5750  -28.3480   23.1880 C   0  0  0  0  0  3  0  0  0  0  0  0
  -20.6950  -26.9180   22.6120 C   0  0  0  0  0  2  0  0  0  0  0  0
  -19.6020  -26.5870   21.5900 C   0  0  0  0  0  2  0  0  0  0  0  0
  -18.2140  -26.7200   22.2260 C   0  0  0  0  0  2  0  0  0  0  0  0
  -19.1300  -28.8390   23.3370 C   0  0  0  0  0  0  0  0  0  0  0  0
  -18.8970  -30.1010   23.9260 C   0  0  0  0  0  3  0  0  0  0  0  0
  -17.5860  -30.5900   24.0840 C   0  0  0  0  0  3  0  0  0  0  0  0
  -16.4930  -29.8160   23.6630 C   0  0  0  0  0  3  0  0  0  0  0  0
  -16.7100  -28.5570   23.0760 C   0  0  0  0  0  3  0  0  0  0  0  0
  -25.8710  -32.5120   23.8540 C   0  0  0  0  0  3  0  0  0  0  0  0
  -26.3880  -31.7380   25.1280 C   0  0  1  0  0  0  0  0  0  0  0  0
  -25.2960  -31.5120   26.2010 C   0  0  0  0  0  1  0  0  0  0  0  0
  -26.9550  -30.3550   24.7330 C   0  0  0  0  0  1  0  0  0  0  0  0
  -27.5480  -32.5230   25.7840 C   0  0  0  0  0  1  0  0  0  0  0  0
  -25.5770  -33.9130   24.1800 N   0  0  0  0  0  0  0  0  0  0  0  0
  -25.9320  -34.9600   23.4210 C   0  0  0  0  0  0  0  0  0  0  0  0
  -26.6110  -34.8460   22.3970 O   0  0  0  0  0  0  0  0  0  0  0  0
  -24.9750  -34.0780   24.9730 H   0  0  0  0  0  0  0  0  0  0  0  0
  -24.2330  -36.7750   23.0420 C   0  0  0  0  0  1  0  0  0  0  0  0
  -25.4570  -36.3550   23.8710 C   0  0  0  0  0  3  0  0  0  0  0  0
  -27.5910  -37.2120   24.7300 C   0  0  0  0  0  1  0  0  0  0  0  0
  -26.5050  -37.3940   23.7700 N   0  0  0  0  0  0  0  0  0  0  0  0
  -26.1100  -38.3200   23.9100 H   0  0  0  0  0  0  0  0  0  0  0  0
  -29.9640  -20.8440   21.8220 C   0  0  0  0  0  3  0  0  0  0  0  0
  -31.3150  -20.2220   23.9890 C   0  0  0  0  0  1  0  0  0  0  0  0
  -30.8430  -21.3150   23.0200 C   0  0  0  0  0  2  0  0  0  0  0  0
  -30.5920  -19.6220   21.0820 C   0  0  0  0  0  2  0  0  0  0  0  0
  -30.0650  -18.2070   21.4550 C   0  0  0  0  0  2  0  0  0  0  0  0
  -31.0220  -17.1010   20.9540 C   0  0  0  0  0  2  0  0  0  0  0  0
  -31.1500  -14.6710   20.5380 C   0  0  0  0  0  0  0  0  0  0  0  0
  -30.8010  -12.5390   19.3650 C   0  0  0  0  0  2  0  0  0  0  0  0
  -29.8950  -12.7890   18.1440 C   0  0  0  0  0  2  0  0  0  0  0  0
  -28.4100  -12.6850   18.5420 C   0  0  0  0  0  2  0  0  0  0  0  0
  -28.0680  -13.5160   19.8090 C   0  0  0  0  0  3  0  0  0  0  0  0
  -29.0940  -13.2620   20.9360 C   0  0  0  0  0  2  0  0  0  0  0  0
  -30.4370  -13.5230   20.3950 N   0  0  0  0  0  0  0  0  0  0  0  0
  -32.2930  -14.8080   20.0910 O   0  0  0  0  0  0  0  0  0  0  0  0
  -30.4870  -15.7330   21.0340 N   0  0  0  0  0  0  0  0  0  0  0  0
  -29.5430  -15.5930   21.3640 H   0  0  0  0  0  0  0  0  0  0  0  0
  -25.6640  -14.1700   20.4560 C   0  0  0  0  0  0  0  0  0  0  0  0
  -24.5740  -13.4190   20.8050 C   0  0  0  0  0  0  0  0  0  0  0  0
  -25.0110  -12.0590   20.7930 C   0  0  0  0  0  0  0  0  0  0  0  0
  -26.6990  -13.2690   20.2570 N   0  0  0  0  0  0  0  0  0  0  0  0
  -26.3080  -11.9950   20.5150 N   0  0  0  0  0  0  0  0  0  0  0  0
  -24.2600  -10.8100   20.9720 C   0  0  0  0  0  0  0  0  0  0  0  0
  -24.6400   -9.8500   21.9340 C   0  0  0  0  0  3  0  0  0  0  0  0
  -23.8900   -8.6660   22.1000 C   0  0  0  0  0  3  0  0  0  0  0  0
  -22.7430   -8.4350   21.3040 C   0  0  0  0  0  0  0  0  0  0  0  0
  -22.3820   -9.3850   20.3320 C   0  0  0  0  0  3  0  0  0  0  0  0
  -23.1330  -10.5600   20.1640 C   0  0  0  0  0  3  0  0  0  0  0  0
  -21.9680   -7.3030   21.3770 O   0  0  0  0  0  0  0  0  0  0  0  0
  -21.8420   -6.5920   22.5440 C   0  0  0  0  0  0  0  0  0  0  0  0
  -21.3470   -7.1830   23.7280 C   0  0  0  0  0  3  0  0  0  0  0  0
  -21.1690   -6.3990   24.8840 C   0  0  0  0  0  3  0  0  0  0  0  0
  -21.4750   -5.0240   24.8580 C   0  0  0  0  0  0  0  0  0  0  0  0
  -21.9610   -4.4330   23.6790 C   0  0  0  0  0  3  0  0  0  0  0  0
  -22.1410   -5.2150   22.5240 C   0  0  0  0  0  0  0  0  0  0  0  0
  -22.5910   -4.6370   21.3840 F   0  0  0  0  0  0  0  0  0  0  0  0
  -21.2950   -4.2680   25.9660 F   0  0  0  0  0  0  0  0  0  0  0  0
  -23.1790  -13.9230   21.0430 C   0  0  0  0  0  0  0  0  0  0  0  0
  -22.4210  -13.2470   21.9010 N   0  0  0  0  0  0  0  0  0  0  0  0
  -22.7700  -14.9490   20.5020 O   0  0  0  0  0  0  0  0  0  0  0  0
  -22.7650  -12.4180   22.3600 H   0  0  0  0  0  0  0  0  0  0  0  0
  -21.4840  -13.5660   22.1000 H   0  0  0  0  0  0  0  0  0  0  0  0
  -25.8570  -15.5360   20.2730 N   0  0  0  0  0  0  0  0  0  0  0  0
  -25.0960  -16.2020   20.3530 H   0  0  0  0  0  0  0  0  0  0  0  0
  -26.7200  -15.9590   19.9570 H   0  0  0  0  0  0  0  0  0  0  0  0
  1  4  1  0
  1 48  1  0
  2  1  1  0
  3  1  1  0
  5  6  1  0
  5  4  1  0
  7  9  1  0
  7  6  1  0
  8 19  2  0
  9 14  1  0
 10 18  1  0
 10 20  1  0
 11 17  1  0
 11 13  1  0
 12 18  1  0
 13 12  1  0
 14 13  2  0
 15 16  1  0
 15  9  2  0
 16 11  2  0
 17 10  1  0
 18  8  1  0
 20 22  2  0
 21 20  1  0
 23 21  1  0
 24 33  2  0
 24 29  1  0
 25 21  1  0
 25 29  1  0
 26 25  1  0
 27 28  1  0
 27 26  1  0
 28 24  1  0
 29 30  2  0
 30 31  1  0
 32 31  2  0
 33 32  1  0
 34  8  1  0
 34 39  1  0
 34 35  1  0
 35 38  1  1
 35 36  1  0
 37 35  1  0
 39 42  1  0
 40 44  1  0
 40 39  1  0
 41 40  2  0
 44 43  1  0
 46 44  1  0
 46 47  1  0
 46 45  1  0
 48 51  1  0
 48 50  1  0
 50 49  1  0
 51 52  1  0
 53 62  1  0
 53 52  1  0
 54 62  1  0
 55 60  1  0
 56 57  1  0
 56 55  1  0
 58 57  1  0
 58 67  1  0
 58 59  1  0
 60 54  1  0
 60 59  1  0
 61 54  2  0
 62 63  1  0
 64 65  2  0
 65 84  1  0
 66 65  1  0
 66 69  1  0
 67 64  1  0
 67 68  1  0
 68 66  2  0
 69 70  1  0
 70 71  2  0
 72 75  1  0
 72 71  1  0
 73 72  2  0
 74 73  1  0
 74 69  2  0
 75 76  1  0
 76 77  1  0
 77 78  2  0
 79 78  1  0
 79 83  1  0
 80 79  2  0
 81 76  2  0
 81 80  1  0
 82 81  1  0
 84 85  1  0
 85 88  1  0
 85 87  1  0
 86 84  2  0
 89 90  1  0
 89 64  1  0
 91 89  1  0
M  ISO  4   6 101   7 101  54 100  62 100
M  END
>  <TORSDO>  (14) 
F 24

>  <SCORE>  (14) 
-12.276

>  <name>  (14) 
13

>  <ligand_id>  (14) 
13

>  <original_smiles>  (14) 
[H]c1c([H])c([H])c2c(c1[H])C([H])([H])C([H])([H])C([H])([H])C2([H])N([H])C(=O)C1([H])N(C(=O)C([H])(N([H])C(=O)C([H])(N([H])C([H])([H])[H])C([H])([H])[H])C(C([H])([H])[H])(C([H])([H])[H])C([H])([H])[H])C([H])([H])c2c([H])c(OC([H])([H])C([H])([H])C([H])([H])[N+]([H])([H])C([H])(C([H])([H])C([H])([H])[H])C([H])([H])C([H])([H])C([H])([H])N([H])C(=O)N3C([H])([H])C([H])([H])C([H])([H])C([H])(n4nc(-c5c([H])c([H])c(Oc6c([H])c([H])c(F)c([H])c6F)c([H])c5[H])c(C(=O)N([H])[H])c4N([H])[H])C3([H])[H])c([H])c([H])c2C1([H])[H]

>  <smiles>  (14) 
[H]c1c([H])c([H])c2c(c1[H])C([H])([H])C([H])([H])C([H])([H])C2([H])N([H])C(=O)C1([H])N(C(=O)C([H])(N([H])C(=O)C([H])(N([H])C([H])([H])[H])C([H])([H])[H])C(C([H])([H])[H])(C([H])([H])[H])C([H])([H])[H])C([H])([H])c2c([H])c(OC([H])([H])C([H])([H])C([H])([H])[N+]([H])([H])C([H])(C([H])([H])C([H])([H])[H])C([H])([H])C([H])([H])C([H])([H])N([H])C(=O)N3C([H])([H])C([H])([H])C([H])([H])C([H])(n4nc(-c5c([H])c([H])c(Oc6c([H])c([H])c(F)c([H])c6F)c([H])c5[H])c(C(=O)N([H])[H])c4N([H])[H])C3([H])[H])c([H])c([H])c2C1([H])[H]

$$$$
14:0:0
     RDKit          3D

 92101  0  0  1  0  0  0  0  0999 V2000
  -30.1390  -22.4780   24.3140 C   0  0  0  0  0  2  0  0  0  0  0  0
  -29.4420  -23.7550   23.7940 C   0  0  0  0  0  2  0  0  0  0  0  0
  -31.1550  -23.1870   22.2830 C   0  0  0  0  0  2  0  0  0  0  0  0
  -28.9710  -22.5100   21.6400 C   0  0  0  0  0  2  0  0  0  0  0  0
  -30.8150  -21.9160   23.0510 C   0  0  0  0  0  3  0  0  0  0  0  0
  -29.7550  -21.2640   22.1390 C   0  0  0  0  0  3  0  0  0  0  0  0
  -29.7170  -23.7150   22.2690 C   0  0  1  0  0  0  0  0  0  0  0  0
  -30.4040  -20.4300   21.0050 C   0  0  0  0  0  2  0  0  0  0  0  0
  -29.6540  -19.1550   20.6570 C   0  0  0  0  0  3  0  0  0  0  0  0
  -30.2160  -17.9260   20.6200 C   0  0  0  0  0  3  0  0  0  0  0  0
  -29.4880  -16.6800   20.1520 C   0  0  0  0  0  2  0  0  0  0  0  0
  -30.5500  -14.4690   20.3110 C   0  0  0  0  0  0  0  0  0  0  0  0
  -30.2830  -12.3340   19.1270 C   0  0  0  0  0  2  0  0  0  0  0  0
  -29.3030  -12.5660   17.9540 C   0  0  0  0  0  2  0  0  0  0  0  0
  -27.8350  -12.4380   18.4110 C   0  0  0  0  0  2  0  0  0  0  0  0
  -27.5300  -13.2300   19.7140 C   0  0  0  0  0  3  0  0  0  0  0  0
  -28.6110  -12.9390   20.7820 C   0  0  0  0  0  2  0  0  0  0  0  0
  -29.9280  -13.2650   20.2080 N   0  0  0  0  0  0  0  0  0  0  0  0
  -31.6230  -14.7270   19.7530 O   0  0  0  0  0  0  0  0  0  0  0  0
  -29.8000  -15.4340   20.8660 N   0  0  0  0  0  0  0  0  0  0  0  0
  -29.0510  -15.0860   21.4460 H   0  0  0  0  0  0  0  0  0  0  0  0
  -25.1370  -13.8150   20.4800 C   0  0  0  0  0  0  0  0  0  0  0  0
  -24.0830  -13.0360   20.8740 C   0  0  0  0  0  0  0  0  0  0  0  0
  -24.5580  -11.6880   20.8260 C   0  0  0  0  0  0  0  0  0  0  0  0
  -26.1850  -12.9460   20.2170 N   0  0  0  0  0  0  0  0  0  0  0  0
  -25.8400  -11.6610   20.4790 N   0  0  0  0  0  0  0  0  0  0  0  0
  -23.8500  -10.4180   21.0320 C   0  0  0  0  0  0  0  0  0  0  0  0
  -24.3200   -9.4500   21.9460 C   0  0  0  0  0  3  0  0  0  0  0  0
  -23.6100   -8.2480   22.1420 C   0  0  0  0  0  3  0  0  0  0  0  0
  -22.4160   -7.9990   21.4240 C   0  0  0  0  0  0  0  0  0  0  0  0
  -21.9640   -8.9580   20.4990 C   0  0  0  0  0  3  0  0  0  0  0  0
  -22.6760  -10.1530   20.3000 C   0  0  0  0  0  3  0  0  0  0  0  0
  -21.6790   -6.8460   21.5240 O   0  0  0  0  0  0  0  0  0  0  0  0
  -21.6760   -6.0890   22.6710 C   0  0  0  0  0  0  0  0  0  0  0  0
  -21.2930   -6.6300   23.9190 C   0  0  0  0  0  3  0  0  0  0  0  0
  -21.2360   -5.8010   25.0550 C   0  0  0  0  0  3  0  0  0  0  0  0
  -21.5550   -4.4350   24.9500 C   0  0  0  0  0  0  0  0  0  0  0  0
  -21.9350   -3.8950   23.7080 C   0  0  0  0  0  3  0  0  0  0  0  0
  -21.9920   -4.7210   22.5710 C   0  0  0  0  0  0  0  0  0  0  0  0
  -22.3350   -4.1920   21.3720 F   0  0  0  0  0  0  0  0  0  0  0  0
  -21.4990   -3.6380   26.0410 F   0  0  0  0  0  0  0  0  0  0  0  0
  -22.6880  -13.5000   21.1850 C   0  0  0  0  0  0  0  0  0  0  0  0
  -21.9910  -12.7970   22.0730 N   0  0  0  0  0  0  0  0  0  0  0  0
  -22.2250  -14.5210   20.6810 O   0  0  0  0  0  0  0  0  0  0  0  0
  -22.3780  -11.9780   22.5110 H   0  0  0  0  0  0  0  0  0  0  0  0
  -21.0560  -13.0930   22.3170 H   0  0  0  0  0  0  0  0  0  0  0  0
  -25.2840  -15.1880   20.3000 N   0  0  0  0  0  0  0  0  0  0  0  0
  -24.5190  -15.8370   20.4310 H   0  0  0  0  0  0  0  0  0  0  0  0
  -26.1160  -15.6320   19.9380 H   0  0  0  0  0  0  0  0  0  0  0  0
  -29.5740  -25.0570   21.4900 C   0  0  0  0  0  2  0  0  0  0  0  0
  -28.1540  -25.5590   21.1330 C   0  0  0  0  0  2  0  0  0  0  0  0
  -28.2620  -26.6730   20.2250 O   0  0  0  0  0  0  0  0  0  0  0  0
  -24.5450  -31.8840   23.2050 C   0  0  0  0  0  0  0  0  0  0  0  0
  -27.1200  -27.4310   20.1530 C   0  0  0  0  0  0  0  0  0  0  0  0
  -23.3090  -30.4860   21.5780 C   0  0  0  0  0  3  0  0  0  0  0  0
  -24.7380  -28.9450   20.1370 C   0  0  0  0  0  0  0  0  0  0  0  0
  -25.8250  -30.8540   21.3310 C   0  0  0  0  0  2  0  0  0  0  0  0
  -25.9030  -29.4780   20.7060 C   0  0  0  0  0  0  0  0  0  0  0  0
  -27.0990  -28.7280   20.7080 C   0  0  0  0  0  3  0  0  0  0  0  0
  -25.9480  -26.9110   19.5600 C   0  0  0  0  0  3  0  0  0  0  0  0
  -24.7570  -27.6660   19.5530 C   0  0  0  0  0  3  0  0  0  0  0  0
  -23.4960  -29.8050   20.1950 C   0  0  0  0  0  2  0  0  0  0  0  0
  -24.5790  -31.0880   22.1000 N   0  0  0  0  0  0  0  0  0  0  0  0
  -23.4730  -32.1600   23.7610 O   0  0  0  0  0  0  0  0  0  0  0  0
  -22.6700  -29.4700   22.5500 C   0  0  0  0  0  0  0  0  0  0  0  0
  -21.3440  -29.2900   22.4410 N   0  0  0  0  0  0  0  0  0  0  0  0
  -23.3630  -28.8450   23.3590 O   0  0  0  0  0  0  0  0  0  0  0  0
  -20.8480  -29.8460   21.7580 H   0  0  0  0  0  0  0  0  0  0  0  0
  -17.9770  -28.0930   22.9680 C   0  0  0  0  0  0  0  0  0  0  0  0
  -20.5360  -28.3570   23.2240 C   0  0  0  0  0  3  0  0  0  0  0  0
  -20.6370  -26.9210   22.6580 C   0  0  0  0  0  2  0  0  0  0  0  0
  -19.5300  -26.5900   21.6510 C   0  0  0  0  0  2  0  0  0  0  0  0
  -18.1510  -26.7380   22.3010 C   0  0  0  0  0  2  0  0  0  0  0  0
  -19.0970  -28.8590   23.3880 C   0  0  0  0  0  0  0  0  0  0  0  0
  -18.8800  -30.1260   23.9720 C   0  0  0  0  0  3  0  0  0  0  0  0
  -17.5760  -30.6280   24.1380 C   0  0  0  0  0  3  0  0  0  0  0  0
  -16.4710  -29.8590   23.7330 C   0  0  0  0  0  3  0  0  0  0  0  0
  -16.6730  -28.5940   23.1540 C   0  0  0  0  0  3  0  0  0  0  0  0
  -25.8420  -32.5110   23.8070 C   0  0  0  0  0  3  0  0  0  0  0  0
  -25.5390  -33.9070   24.1540 N   0  0  0  0  0  0  0  0  0  0  0  0
  -25.8710  -34.9650   23.4010 C   0  0  0  0  0  0  0  0  0  0  0  0
  -26.5310  -34.8670   22.3640 O   0  0  0  0  0  0  0  0  0  0  0  0
  -24.9480  -34.0560   24.9580 H   0  0  0  0  0  0  0  0  0  0  0  0
  -24.1490  -36.7660   23.0710 C   0  0  0  0  0  1  0  0  0  0  0  0
  -25.3920  -36.3510   23.8740 C   0  0  0  0  0  3  0  0  0  0  0  0
  -27.5370  -37.2130   24.7020 C   0  0  0  0  0  1  0  0  0  0  0  0
  -26.4310  -37.3990   23.7670 N   0  0  0  0  0  0  0  0  0  0  0  0
  -26.0310  -38.3200   23.9270 H   0  0  0  0  0  0  0  0  0  0  0  0
  -26.3880  -31.7280   25.0630 C   0  0  1  0  0  0  0  0  0  0  0  0
  -25.3170  -31.4750   26.1500 C   0  0  0  0  0  1  0  0  0  0  0  0
  -26.9620  -30.3580   24.6340 C   0  0  0  0  0  1  0  0  0  0  0  0
  -27.5520  -32.5180   25.7070 C   0  0  0  0  0  1  0  0  0  0  0  0
  2  1  1  0
  4  6  1  0
  4  7  1  0
  5  3  1  0
  5  1  1  0
  6  8  1  0
  6  5  1  0
  7 50  1  6
  7  3  1  0
  7  2  1  0
  9  8  1  0
 10  9  2  0
 11 10  1  0
 11 20  1  0
 12 20  1  0
 13 18  1  0
 14 15  1  0
 14 13  1  0
 16 15  1  0
 16 25  1  0
 16 17  1  0
 18 12  1  0
 18 17  1  0
 19 12  2  0
 20 21  1  0
 22 23  2  0
 23 42  1  0
 24 23  1  0
 24 27  1  0
 25 26  1  0
 25 22  1  0
 26 24  2  0
 27 28  1  0
 28 29  2  0
 30 33  1  0
 30 29  1  0
 31 30  2  0
 32 31  1  0
 32 27  2  0
 33 34  1  0
 34 35  1  0
 35 36  2  0
 37 36  1  0
 37 41  1  0
 38 37  2  0
 39 34  2  0
 39 38  1  0
 40 39  1  0
 42 43  1  0
 43 46  1  0
 43 45  1  0
 44 42  2  0
 47 48  1  0
 47 22  1  0
 49 47  1  0
 51 50  1  0
 52 51  1  0
 53 64  2  0
 54 52  1  0
 54 59  1  0
 55 63  1  0
 55 65  1  0
 56 62  1  0
 56 58  1  0
 57 63  1  0
 58 59  2  0
 58 57  1  0
 60 54  2  0
 61 60  1  0
 61 56  2  0
 62 55  1  0
 63 53  1  0
 65 67  2  0
 66 65  1  0
 68 66  1  0
 69 78  2  0
 69 74  1  0
 70 66  1  0
 70 74  1  0
 71 70  1  0
 72 73  1  0
 72 71  1  0
 73 69  1  0
 74 75  2  0
 75 76  1  0
 77 76  2  0
 78 77  1  0
 79 53  1  0
 79 80  1  0
 79 89  1  0
 80 83  1  0
 81 85  1  0
 81 80  1  0
 82 81  2  0
 85 84  1  0
 87 85  1  0
 87 88  1  0
 87 86  1  0
 89 92  1  1
 89 90  1  0
 91 89  1  0
M  ISO  4  12 100  20 100  51 101  52 101
M  END
>  <TORSDO>  (15) 
F 21

>  <SCORE>  (15) 
-13.007

>  <name>  (15) 
14

>  <ligand_id>  (15) 
14

>  <original_smiles>  (15) 
[H]C(=C([H])C([H])([H])C1([H])C([H])([H])C2(C([H])([H])C([H])([H])Oc3c([H])c([H])c4c(c3[H])C([H])([H])N(C(=O)C([H])(N([H])C(=O)C([H])(N([H])C([H])([H])[H])C([H])([H])[H])C(C([H])([H])[H])(C([H])([H])[H])C([H])([H])[H])C([H])(C(=O)N([H])C3([H])c5c([H])c([H])c([H])c([H])c5C([H])([H])C([H])([H])C3([H])[H])C4([H])[H])C([H])([H])C([H])([H])C1([H])C2([H])[H])C([H])([H])N([H])C(=O)N1C([H])([H])C([H])([H])C([H])([H])C([H])(n2nc(-c3c([H])c([H])c(Oc4c([H])c([H])c(F)c([H])c4F)c([H])c3[H])c(C(=O)N([H])[H])c2N([H])[H])C1([H])[H]

>  <smiles>  (15) 
[H]C(=C([H])C([H])([H])C1([H])C([H])([H])C2(C([H])([H])C([H])([H])Oc3c([H])c([H])c4c(c3[H])C([H])([H])N(C(=O)C([H])(N([H])C(=O)C([H])(N([H])C([H])([H])[H])C([H])([H])[H])C(C([H])([H])[H])(C([H])([H])[H])C([H])([H])[H])C([H])(C(=O)N([H])C3([H])c5c([H])c([H])c([H])c([H])c5C([H])([H])C([H])([H])C3([H])[H])C4([H])[H])C([H])([H])C([H])([H])C1([H])C2([H])[H])C([H])([H])N([H])C(=O)N1C([H])([H])C([H])([H])C([H])([H])C([H])(n2nc(-c3c([H])c([H])c(Oc4c([H])c([H])c(F)c([H])c4F)c([H])c3[H])c(C(=O)N([H])[H])c2N([H])[H])C1([H])[H]

$$$$
15:0:0
     RDKit          3D

 99108  0  0  1  0  0  0  0  0999 V2000
  -31.6020  -21.0020   19.4170 C   0  0  0  0  0  0  0  0  0  0  0  0
  -30.7220  -20.0660   19.8250 C   0  0  0  0  0  0  0  0  0  0  0  0
  -29.4420  -20.1100   19.0160 C   0  0  0  0  0  2  0  0  0  0  0  0
  -30.7040  -23.2730   18.6640 C   0  0  0  0  0  2  0  0  0  0  0  0
  -28.6560  -22.2990   17.8910 C   0  0  0  0  0  2  0  0  0  0  0  0
  -31.0420  -21.8210   18.2660 C   0  0  0  0  0  3  0  0  0  0  0  0
  -29.6890  -21.1640   17.9160 C   0  0  0  0  0  3  0  0  0  0  0  0
  -29.1870  -23.3080   18.9080 C   0  0  0  0  0  3  0  0  0  0  0  0
  -32.9360  -21.2740   19.8650 C   0  0  0  0  0  0  0  0  0  0  0  0
  -33.4850  -20.6730   20.9230 N   0  0  0  0  0  0  0  0  0  0  0  0
  -33.6850  -22.1780   19.2200 N   0  0  0  0  0  4  0  0  0  0  0  0
  -32.9450  -20.0010   21.4450 H   0  0  0  0  0  0  0  0  0  0  0  0
  -34.4160  -20.8660   21.2520 H   0  0  0  0  0  0  0  0  0  0  0  0
  -33.3020  -22.6440   18.4130 H   0  0  0  0  0  0  0  0  0  0  0  0
  -34.6310  -22.4060   19.4830 H   0  0  0  0  0  0  0  0  0  0  0  0
  -30.8100  -19.0480   20.9640 C   0  0  0  0  0  2  0  0  0  0  0  0
  -30.3650  -17.6290   20.5700 C   0  0  0  0  0  2  0  0  0  0  0  0
  -30.6200  -16.6040   21.6920 C   0  0  0  0  0  2  0  0  0  0  0  0
  -30.6920  -14.3940   20.5360 C   0  0  0  0  0  0  0  0  0  0  0  0
  -30.3430  -12.3130   19.2620 C   0  0  0  0  0  2  0  0  0  0  0  0
  -29.3870  -12.5690   18.0800 C   0  0  0  0  0  2  0  0  0  0  0  0
  -27.9170  -12.4310   18.5220 C   0  0  0  0  0  2  0  0  0  0  0  0
  -27.6030  -13.2340   19.8130 C   0  0  0  0  0  3  0  0  0  0  0  0
  -28.6610  -12.9440   20.9000 C   0  0  0  0  0  2  0  0  0  0  0  0
  -29.9890  -13.2500   20.3370 N   0  0  0  0  0  0  0  0  0  0  0  0
  -31.7610  -14.6420   19.9710 O   0  0  0  0  0  0  0  0  0  0  0  0
  -30.1110  -15.2780   21.3540 N   0  0  0  0  0  0  0  0  0  0  0  0
  -29.2290  -15.0010   21.7620 H   0  0  0  0  0  0  0  0  0  0  0  0
  -25.2040  -13.8480   20.5250 C   0  0  0  0  0  0  0  0  0  0  0  0
  -24.1360  -13.0780   20.9000 C   0  0  0  0  0  0  0  0  0  0  0  0
  -24.5940  -11.7250   20.8670 C   0  0  0  0  0  0  0  0  0  0  0  0
  -26.2480  -12.9650   20.2930 N   0  0  0  0  0  0  0  0  0  0  0  0
  -25.8830  -11.6830   20.5540 N   0  0  0  0  0  0  0  0  0  0  0  0
  -23.8680  -10.4630   21.0590 C   0  0  0  0  0  0  0  0  0  0  0  0
  -24.3150   -9.4900   21.9780 C   0  0  0  0  0  3  0  0  0  0  0  0
  -23.5900   -8.2920   22.1600 C   0  0  0  0  0  3  0  0  0  0  0  0
  -22.4050   -8.0600   21.4210 C   0  0  0  0  0  0  0  0  0  0  0  0
  -21.9780   -9.0240   20.4910 C   0  0  0  0  0  3  0  0  0  0  0  0
  -22.7030  -10.2130   20.3070 C   0  0  0  0  0  3  0  0  0  0  0  0
  -21.6500   -6.9150   21.5130 O   0  0  0  0  0  0  0  0  0  0  0  0
  -21.6290   -6.1570   22.6550 C   0  0  0  0  0  0  0  0  0  0  0  0
  -21.2470   -6.6980   23.9020 C   0  0  0  0  0  3  0  0  0  0  0  0
  -21.1720   -5.8660   25.0370 C   0  0  0  0  0  3  0  0  0  0  0  0
  -21.4680   -4.4940   24.9270 C   0  0  0  0  0  0  0  0  0  0  0  0
  -21.8430   -3.9530   23.6850 C   0  0  0  0  0  3  0  0  0  0  0  0
  -21.9210   -4.7810   22.5510 C   0  0  0  0  0  0  0  0  0  0  0  0
  -22.2610   -4.2510   21.3530 F   0  0  0  0  0  0  0  0  0  0  0  0
  -21.3890   -3.6930   26.0150 F   0  0  0  0  0  0  0  0  0  0  0  0
  -22.7400  -13.5560   21.1780 C   0  0  0  0  0  0  0  0  0  0  0  0
  -22.0140  -12.8610   22.0460 N   0  0  0  0  0  0  0  0  0  0  0  0
  -22.3000  -14.5810   20.6580 O   0  0  0  0  0  0  0  0  0  0  0  0
  -22.3820  -12.0330   22.4900 H   0  0  0  0  0  0  0  0  0  0  0  0
  -21.0770  -13.1630   22.2710 H   0  0  0  0  0  0  0  0  0  0  0  0
  -25.3730  -15.2180   20.3460 N   0  0  0  0  0  0  0  0  0  0  0  0
  -24.6150  -15.8820   20.4610 H   0  0  0  0  0  0  0  0  0  0  0  0
  -26.2270  -15.6480   20.0120 H   0  0  0  0  0  0  0  0  0  0  0  0
  -28.5640  -24.7160   18.8220 C   0  0  0  0  0  2  0  0  0  0  0  0
  -28.4740  -25.3900   20.2050 C   0  0  0  0  0  2  0  0  0  0  0  0
  -28.4420  -26.8130   20.1390 O   0  0  0  0  0  0  0  0  0  0  0  0
  -24.5860  -31.8850   23.2570 C   0  0  0  0  0  0  0  0  0  0  0  0
  -27.2290  -27.4630   20.1690 C   0  0  0  0  0  0  0  0  0  0  0  0
  -23.3710  -30.4810   21.6200 C   0  0  0  0  0  3  0  0  0  0  0  0
  -24.8190  -28.9390   20.1980 C   0  0  0  0  0  0  0  0  0  0  0  0
  -25.8910  -30.8490   21.4060 C   0  0  0  0  0  2  0  0  0  0  0  0
  -25.9760  -29.4760   20.7750 C   0  0  0  0  0  0  0  0  0  0  0  0
  -27.1820  -28.7460   20.7520 C   0  0  0  0  0  3  0  0  0  0  0  0
  -26.0500  -26.9250   19.6050 C   0  0  0  0  0  3  0  0  0  0  0  0
  -24.8500  -27.6600   19.6130 C   0  0  0  0  0  3  0  0  0  0  0  0
  -23.5730  -29.7940   20.2430 C   0  0  0  0  0  2  0  0  0  0  0  0
  -24.6350  -31.0860   22.1540 N   0  0  0  0  0  0  0  0  0  0  0  0
  -23.5070  -32.1570   23.8020 O   0  0  0  0  0  0  0  0  0  0  0  0
  -22.7270  -29.4620   22.5870 C   0  0  0  0  0  0  0  0  0  0  0  0
  -21.4020  -29.2760   22.4590 N   0  0  0  0  0  0  0  0  0  0  0  0
  -23.4120  -28.8410   23.4020 O   0  0  0  0  0  0  0  0  0  0  0  0
  -20.9110  -29.8310   21.7710 H   0  0  0  0  0  0  0  0  0  0  0  0
  -18.0320  -28.0740   22.9480 C   0  0  0  0  0  0  0  0  0  0  0  0
  -20.5870  -28.3400   23.2310 C   0  0  0  0  0  3  0  0  0  0  0  0
  -20.6970  -26.9070   22.6620 C   0  0  0  0  0  2  0  0  0  0  0  0
  -19.6000  -26.5760   21.6440 C   0  0  0  0  0  2  0  0  0  0  0  0
  -18.2150  -26.7220   22.2800 C   0  0  0  0  0  2  0  0  0  0  0  0
  -19.1460  -28.8410   23.3800 C   0  0  0  0  0  0  0  0  0  0  0  0
  -18.9220  -30.1080   23.9600 C   0  0  0  0  0  3  0  0  0  0  0  0
  -17.6150  -30.6090   24.1160 C   0  0  0  0  0  3  0  0  0  0  0  0
  -16.5160  -29.8380   23.7030 C   0  0  0  0  0  3  0  0  0  0  0  0
  -16.7240  -28.5730   23.1240 C   0  0  0  0  0  3  0  0  0  0  0  0
  -25.8740  -32.5150   23.8730 C   0  0  0  0  0  3  0  0  0  0  0  0
  -25.5720  -33.9130   24.1990 N   0  0  0  0  0  0  0  0  0  0  0  0
  -25.9080  -34.9630   23.4360 C   0  0  0  0  0  0  0  0  0  0  0  0
  -26.5780  -34.8540   22.4050 O   0  0  0  0  0  0  0  0  0  0  0  0
  -24.9800  -34.0720   25.0010 H   0  0  0  0  0  0  0  0  0  0  0  0
  -24.1830  -36.7560   23.0700 C   0  0  0  0  0  1  0  0  0  0  0  0
  -25.4210  -36.3530   23.8870 C   0  0  0  0  0  3  0  0  0  0  0  0
  -27.5560  -37.2340   24.7190 C   0  0  0  0  0  1  0  0  0  0  0  0
  -26.4560  -37.4040   23.7730 N   0  0  0  0  0  0  0  0  0  0  0  0
  -26.0520  -38.3250   23.9190 H   0  0  0  0  0  0  0  0  0  0  0  0
  -26.3960  -31.7450   25.1480 C   0  0  1  0  0  0  0  0  0  0  0  0
  -25.3090  -31.5110   26.2210 C   0  0  0  0  0  1  0  0  0  0  0  0
  -26.9740  -30.3660   24.7500 C   0  0  0  0  0  1  0  0  0  0  0  0
  -27.5520  -32.5360   25.8020 C   0  0  0  0  0  1  0  0  0  0  0  0
  1  2  2  0
  1  9  1  0
  2 16  1  0
  3  2  1  0
  4  8  1  0
  5  8  1  0
  6  4  1  0
  6  1  1  0
  7  5  1  0
  7  6  1  0
  7  3  1  0
  8 57  1  0
  9 10  1  0
 10 13  1  0
 10 12  1  0
 11 15  1  0
 11  9  2  0
 14 11  1  0
 17 16  1  0
 17 18  1  0
 19 27  1  0
 20 25  1  0
 21 22  1  0
 21 20  1  0
 23 22  1  0
 23 32  1  0
 23 24  1  0
 25 19  1  0
 25 24  1  0
 26 19  2  0
 27 18  1  0
 27 28  1  0
 29 30  2  0
 30 49  1  0
 31 30  1  0
 31 34  1  0
 32 29  1  0
 32 33  1  0
 33 31  2  0
 34 35  1  0
 35 36  2  0
 37 40  1  0
 37 36  1  0
 38 37  2  0
 39 38  1  0
 39 34  2  0
 40 41  1  0
 41 42  1  0
 42 43  2  0
 44 43  1  0
 44 48  1  0
 45 44  2  0
 46 41  2  0
 46 45  1  0
 47 46  1  0
 49 50  1  0
 50 53  1  0
 50 52  1  0
 51 49  2  0
 54 55  1  0
 54 29  1  0
 56 54  1  0
 57 58  1  0
 59 61  1  0
 59 58  1  0
 60 71  2  0
 61 66  1  0
 62 70  1  0
 62 72  1  0
 63 69  1  0
 63 65  1  0
 64 70  1  0
 65 64  1  0
 66 65  2  0
 67 68  1  0
 67 61  2  0
 68 63  2  0
 69 62  1  0
 70 60  1  0
 72 74  2  0
 73 72  1  0
 75 73  1  0
 76 85  2  0
 76 81  1  0
 77 73  1  0
 77 81  1  0
 78 77  1  0
 79 80  1  0
 79 78  1  0
 80 76  1  0
 81 82  2  0
 82 83  1  0
 84 83  2  0
 85 84  1  0
 86 60  1  0
 86 87  1  0
 86 96  1  0
 87 90  1  0
 88 92  1  0
 88 87  1  0
 89 88  2  0
 92 91  1  0
 94 92  1  0
 94 95  1  0
 94 93  1  0
 96 99  1  1
 96 97  1  0
 98 96  1  0
M  ISO  4  19 100  27 100  58 101  59 101
M  END
>  <TORSDO>  (16) 
F 22

>  <SCORE>  (16) 
-13.350

>  <name>  (16) 
15

>  <ligand_id>  (16) 
15

>  <original_smiles>  (16) 
[H]c1c([H])c([H])c2c(c1[H])C([H])([H])C([H])([H])C([H])([H])C2([H])N([H])C(=O)C1([H])N(C(=O)C([H])(N([H])C(=O)C([H])(N([H])C([H])([H])[H])C([H])([H])[H])C(C([H])([H])[H])(C([H])([H])[H])C([H])([H])[H])C([H])([H])c2c([H])c(OC([H])([H])C([H])([H])C3([H])C([H])([H])C4([H])C(C(N([H])[H])=[N+]([H])[H])=C(C([H])([H])C([H])([H])C([H])([H])N([H])C(=O)N5C([H])([H])C([H])([H])C([H])([H])C([H])(n6nc(-c7c([H])c([H])c(Oc8c([H])c([H])c(F)c([H])c8F)c([H])c7[H])c(C(=O)N([H])[H])c6N([H])[H])C5([H])[H])C([H])([H])C4([H])C3([H])[H])c([H])c([H])c2C1([H])[H]

>  <smiles>  (16) 
[H]c1c([H])c([H])c2c(c1[H])C([H])([H])C([H])([H])C([H])([H])C2([H])N([H])C(=O)C1([H])N(C(=O)C([H])(N([H])C(=O)C([H])(N([H])C([H])([H])[H])C([H])([H])[H])C(C([H])([H])[H])(C([H])([H])[H])C([H])([H])[H])C([H])([H])c2c([H])c(OC([H])([H])C([H])([H])C3([H])C([H])([H])C4([H])C(C(N([H])[H])=[N+]([H])[H])=C(C([H])([H])C([H])([H])C([H])([H])N([H])C(=O)N5C([H])([H])C([H])([H])C([H])([H])C([H])(n6nc(-c7c([H])c([H])c(Oc8c([H])c([H])c(F)c([H])c8F)c([H])c7[H])c(C(=O)N([H])[H])c6N([H])[H])C5([H])[H])C([H])([H])C4([H])C3([H])[H])c([H])c([H])c2C1([H])[H]

$$$$
16:0:0
     RDKit          3D

 91100  0  0  1  0  0  0  0  0999 V2000
  -25.6950  -22.4140   19.5830 C   0  0  0  0  0  2  0  0  0  0  0  0
  -26.7050  -23.0310   20.5470 C   0  0  0  0  0  2  0  0  0  0  0  0
  -27.2700  -20.5350   19.5220 C   0  0  0  0  0  2  0  0  0  0  0  0
  -27.7310  -22.6990   18.4080 C   0  0  0  0  0  2  0  0  0  0  0  0
  -26.6330  -21.6530   18.6690 C   0  0  0  0  0  3  0  0  0  0  0  0
  -28.5520  -21.1340   20.1850 C   0  0  0  0  0  3  0  0  0  0  0  0
  -28.1150  -22.8840   19.8680 C   0  0  2  0  0  0  0  0  0  0  0  0
  -29.6520  -19.8150   19.6810 C   0  0  0  0  0  2  0  0  0  0  0  0
  -29.9850  -18.2180   20.4300 C   0  0  0  0  0  0  0  0  0  0  0  0
  -30.7340  -15.3880   19.9140 C   0  0  0  0  0  0  0  0  0  0  0  0
  -30.6800  -12.9440   19.0560 C   0  0  0  0  0  2  0  0  0  0  0  0
  -29.7040  -12.7210   17.8750 C   0  0  0  0  0  2  0  0  0  0  0  0
  -28.2740  -12.4630   18.3880 C   0  0  0  0  0  2  0  0  0  0  0  0
  -27.8720  -13.4490   19.5140 C   0  0  0  0  0  3  0  0  0  0  0  0
  -28.9700  -13.6090   20.5830 C   0  0  0  0  0  2  0  0  0  0  0  0
  -30.1650  -14.0930   19.8770 N   0  0  0  0  0  0  0  0  0  0  0  0
  -31.9610  -15.3960   19.7410 O   0  0  0  0  0  0  0  0  0  0  0  0
  -29.9360  -16.6310   19.9330 N   0  0  0  0  0  4  0  0  0  0  0  0
  -28.9710  -16.3640   19.8090 H   0  0  0  0  0  0  0  0  0  0  0  0
  -25.5550  -14.0340   20.4100 C   0  0  0  0  0  0  0  0  0  0  0  0
  -24.4990  -13.2650   20.8130 C   0  0  0  0  0  0  0  0  0  0  0  0
  -24.9410  -11.9080   20.7270 C   0  0  0  0  0  0  0  0  0  0  0  0
  -26.5690  -13.1470   20.0890 N   0  0  0  0  0  0  0  0  0  0  0  0
  -26.2150  -11.8620   20.3490 N   0  0  0  0  0  0  0  0  0  0  0  0
  -24.2040  -10.6530   20.9220 C   0  0  0  0  0  0  0  0  0  0  0  0
  -24.6200   -9.6920   21.8680 C   0  0  0  0  0  3  0  0  0  0  0  0
  -23.8820   -8.5020   22.0520 C   0  0  0  0  0  3  0  0  0  0  0  0
  -22.7120   -8.2680   21.2910 C   0  0  0  0  0  0  0  0  0  0  0  0
  -22.3130   -9.2210   20.3350 C   0  0  0  0  0  3  0  0  0  0  0  0
  -23.0530  -10.4000   20.1500 C   0  0  0  0  0  3  0  0  0  0  0  0
  -21.9450   -7.1320   21.3840 O   0  0  0  0  0  0  0  0  0  0  0  0
  -21.8220   -6.4400   22.5630 C   0  0  0  0  0  0  0  0  0  0  0  0
  -21.3010   -7.0430   23.7280 C   0  0  0  0  0  3  0  0  0  0  0  0
  -21.1260   -6.2780   24.8980 C   0  0  0  0  0  3  0  0  0  0  0  0
  -21.4620   -4.9110   24.9040 C   0  0  0  0  0  0  0  0  0  0  0  0
  -21.9770   -4.3080   23.7430 C   0  0  0  0  0  3  0  0  0  0  0  0
  -22.1530   -5.0700   22.5750 C   0  0  0  0  0  0  0  0  0  0  0  0
  -22.6290   -4.4800   21.4520 F   0  0  0  0  0  0  0  0  0  0  0  0
  -21.2890   -4.1730   26.0250 F   0  0  0  0  0  0  0  0  0  0  0  0
  -23.1260  -13.7580   21.1600 C   0  0  0  0  0  0  0  0  0  0  0  0
  -22.4340  -13.0640   22.0590 N   0  0  0  0  0  0  0  0  0  0  0  0
  -22.6760  -14.7930   20.6700 O   0  0  0  0  0  0  0  0  0  0  0  0
  -22.8140  -12.2270   22.4750 H   0  0  0  0  0  0  0  0  0  0  0  0
  -21.5140  -13.3770   22.3340 H   0  0  0  0  0  0  0  0  0  0  0  0
  -25.7300  -15.4060   20.2580 N   0  0  0  0  0  0  0  0  0  0  0  0
  -24.9780  -16.0660   20.4290 H   0  0  0  0  0  0  0  0  0  0  0  0
  -26.5600  -15.8440   19.8810 H   0  0  0  0  0  0  0  0  0  0  0  0
  -31.2520  -19.5100   22.2880 C   0  0  0  0  0  1  0  0  0  0  0  0
  -31.2700  -18.3550   21.2760 C   0  0  0  0  0  2  0  0  0  0  0  0
  -28.6640  -24.5200   20.2840 C   0  0  0  0  0  2  0  0  0  0  0  0
  -28.3820  -26.0970   19.9090 O   0  0  0  0  0  0  0  0  0  0  0  0
  -24.6420  -31.8440   23.0940 C   0  0  0  0  0  0  0  0  0  0  0  0
  -27.2720  -27.0670   20.0270 C   0  0  0  0  0  0  0  0  0  0  0  0
  -23.4640  -30.4500   21.4410 C   0  0  0  0  0  3  0  0  0  0  0  0
  -24.9310  -28.8770   20.0090 C   0  0  0  0  0  0  0  0  0  0  0  0
  -26.0230  -30.7120   21.2860 C   0  0  0  0  0  2  0  0  0  0  0  0
  -26.1120  -29.3100   20.6230 C   0  0  0  0  0  0  0  0  0  0  0  0
  -27.2790  -28.4280   20.5970 C   0  0  0  0  0  3  0  0  0  0  0  0
  -26.0520  -26.7660   19.3820 C   0  0  0  0  0  3  0  0  0  0  0  0
  -24.9210  -27.6240   19.3710 C   0  0  0  0  0  3  0  0  0  0  0  0
  -23.6980  -29.7790   20.0590 C   0  0  0  0  0  2  0  0  0  0  0  0
  -24.7310  -31.0290   21.9940 N   0  0  0  0  0  0  0  0  0  0  0  0
  -23.5500  -32.1100   23.6220 O   0  0  0  0  0  0  0  0  0  0  0  0
  -22.7880  -29.4330   22.3970 C   0  0  0  0  0  0  0  0  0  0  0  0
  -21.4580  -29.2630   22.2810 N   0  0  0  0  0  0  0  0  0  0  0  0
  -23.4670  -28.7970   23.2060 O   0  0  0  0  0  0  0  0  0  0  0  0
  -20.9640  -29.8270   21.6030 H   0  0  0  0  0  0  0  0  0  0  0  0
  -18.0870  -28.0340   22.8090 C   0  0  0  0  0  0  0  0  0  0  0  0
  -20.6500  -28.3060   23.0430 C   0  0  0  0  0  3  0  0  0  0  0  0
  -20.7490  -26.8880   22.4360 C   0  0  0  0  0  2  0  0  0  0  0  0
  -19.6350  -26.5820   21.4290 C   0  0  0  0  0  2  0  0  0  0  0  0
  -18.2620  -26.7040   22.0970 C   0  0  0  0  0  2  0  0  0  0  0  0
  -19.2080  -28.7940   23.2380 C   0  0  0  0  0  0  0  0  0  0  0  0
  -18.9890  -30.0390   23.8670 C   0  0  0  0  0  3  0  0  0  0  0  0
  -17.6830  -30.5250   24.0680 C   0  0  0  0  0  3  0  0  0  0  0  0
  -16.5770  -29.7630   23.6510 C   0  0  0  0  0  3  0  0  0  0  0  0
  -16.7810  -28.5180   23.0270 C   0  0  0  0  0  3  0  0  0  0  0  0
  -25.9050  -32.4950   23.7340 C   0  0  0  0  0  3  0  0  0  0  0  0
  -26.4180  -31.7240   25.0130 C   0  0  1  0  0  0  0  0  0  0  0  0
  -25.3200  -31.4750   26.0730 C   0  0  0  0  0  1  0  0  0  0  0  0
  -27.0150  -30.3510   24.6270 C   0  0  0  0  0  1  0  0  0  0  0  0
  -27.5580  -32.5270   25.6840 C   0  0  0  0  0  1  0  0  0  0  0  0
  -25.5700  -33.8870   24.0810 N   0  0  0  0  0  0  0  0  0  0  0  0
  -25.9070  -34.9620   23.3560 C   0  0  0  0  0  0  0  0  0  0  0  0
  -26.5960  -34.8860   22.3350 O   0  0  0  0  0  0  0  0  0  0  0  0
  -24.9570  -34.0180   24.8720 H   0  0  0  0  0  0  0  0  0  0  0  0
  -24.1850  -36.7650   23.0040 C   0  0  0  0  0  1  0  0  0  0  0  0
  -25.4030  -36.3380   23.8370 C   0  0  0  0  0  3  0  0  0  0  0  0
  -27.5060  -37.2140   24.7580 C   0  0  0  0  0  1  0  0  0  0  0  0
  -26.4360  -37.3960   23.7810 N   0  0  0  0  0  0  0  0  0  0  0  0
  -26.0220  -38.3130   23.9330 H   0  0  0  0  0  0  0  0  0  0  0  0
  1  2  1  0
  3  6  1  0
  4  7  1  0
  5  4  1  0
  5  3  1  0
  5  1  1  0
  6  8  1  0
  7  6  1  0
  7 50  1  6
  7  2  1  0
  8  9  1  0
  9 49  1  0
 10 18  1  0
 11 16  1  0
 12 13  1  0
 12 11  1  0
 14 13  1  0
 14 23  1  0
 14 15  1  0
 16 10  1  0
 16 15  1  0
 17 10  2  0
 18  9  2  0
 19 18  1  0
 20 21  2  0
 21 40  1  0
 22 21  1  0
 22 25  1  0
 23 24  1  0
 23 20  1  0
 24 22  2  0
 25 26  1  0
 26 27  2  0
 28 31  1  0
 28 27  1  0
 29 28  2  0
 30 29  1  0
 30 25  2  0
 31 32  1  0
 32 37  2  0
 32 33  1  0
 33 34  2  0
 34 35  1  0
 35 39  1  0
 36 35  2  0
 37 36  1  0
 38 37  1  0
 40 41  1  0
 41 44  1  0
 41 43  1  0
 42 40  2  0
 45 20  1  0
 45 46  1  0
 47 45  1  0
 49 48  1  0
 51 53  1  0
 51 50  1  0
 52 63  2  0
 53 58  1  0
 54 62  1  0
 54 64  1  0
 55 61  1  0
 55 57  1  0
 56 62  1  0
 57 56  1  0
 58 57  2  0
 59 53  2  0
 60 59  1  0
 60 55  2  0
 61 54  1  0
 62 52  1  0
 64 66  2  0
 65 64  1  0
 67 65  1  0
 68 77  2  0
 68 73  1  0
 69 65  1  0
 69 73  1  0
 70 69  1  0
 71 72  1  0
 71 70  1  0
 72 68  1  0
 73 74  2  0
 74 75  1  0
 76 75  2  0
 77 76  1  0
 78 52  1  0
 78 83  1  0
 78 79  1  0
 79 82  1  1
 79 80  1  0
 81 79  1  0
 83 86  1  0
 84 88  1  0
 84 83  1  0
 85 84  2  0
 88 87  1  0
 90 88  1  0
 90 91  1  0
 90 89  1  0
M  ISO  4  10 100  18 100  50 101  51 101
M  END
>  <TORSDO>  (17) 
F 20

>  <SCORE>  (17) 
-14.915

>  <name>  (17) 
16

>  <ligand_id>  (17) 
16

>  <original_smiles>  (17) 
[H]c1c([H])c([H])c2c(c1[H])C([H])([H])C([H])([H])C([H])([H])C2([H])N([H])C(=O)C1([H])N(C(=O)C([H])(N([H])C(=O)C([H])(N([H])C([H])([H])[H])C([H])([H])[H])C(C([H])([H])[H])(C([H])([H])[H])C([H])([H])[H])C([H])([H])c2c([H])c(OC([H])([H])C34C([H])([H])C([H])([H])C([H])(C([H])([H])C3([H])C([H])([H])C([H])(N([H])C(=O)N3C([H])([H])C([H])([H])C([H])([H])C([H])(n5nc(-c6c([H])c([H])c(Oc7c([H])c([H])c(F)c([H])c7F)c([H])c6[H])c(C(=O)N([H])[H])c5N([H])[H])C3([H])[H])C([H])([H])C([H])([H])[H])C4([H])[H])c([H])c([H])c2C1([H])[H]

>  <smiles>  (17) 
[H]c1c([H])c([H])c2c(c1[H])C([H])([H])C([H])([H])C([H])([H])C2([H])N([H])C(=O)C1([H])N(C(=O)C([H])(N([H])C(=O)C([H])(N([H])C([H])([H])[H])C([H])([H])[H])C(C([H])([H])[H])(C([H])([H])[H])C([H])([H])[H])C([H])([H])c2c([H])c(OC([H])([H])C34C([H])([H])C([H])([H])C([H])(C([H])([H])C3([H])C([H])([H])C([H])(N([H])C(=O)N3C([H])([H])C([H])([H])C([H])([H])C([H])(n5nc(-c6c([H])c([H])c(Oc7c([H])c([H])c(F)c([H])c7F)c([H])c6[H])c(C(=O)N([H])[H])c5N([H])[H])C3([H])[H])C([H])([H])C([H])([H])[H])C4([H])[H])c([H])c([H])c2C1([H])[H]

$$$$
17:0:0
     RDKit          3D

 96103  0  0  1  0  0  0  0  0999 V2000
  -29.1510  -20.0940   18.7900 C   0  0  0  0  0  3  0  0  0  0  0  0
  -30.2610  -19.0700   19.1180 C   0  0  0  0  0  2  0  0  0  0  0  0
  -29.8860  -18.0650   20.2280 C   0  0  0  0  0  2  0  0  0  0  0  0
  -31.0990  -17.6640   21.0900 C   0  0  0  0  0  2  0  0  0  0  0  0
  -30.8260  -16.5490   22.1220 C   0  0  0  0  0  2  0  0  0  0  0  0
  -30.8080  -14.5760   20.5600 C   0  0  0  0  0  0  0  0  0  0  0  0
  -30.4670  -12.5760   19.1540 C   0  0  0  0  0  2  0  0  0  0  0  0
  -29.5130  -12.8530   17.9750 C   0  0  0  0  0  2  0  0  0  0  0  0
  -28.0420  -12.6950   18.4040 C   0  0  0  0  0  2  0  0  0  0  0  0
  -27.7140  -13.4600   19.7130 C   0  0  0  0  0  3  0  0  0  0  0  0
  -28.7580  -13.1250   20.7970 C   0  0  0  0  0  2  0  0  0  0  0  0
  -30.0970  -13.4580   20.2700 N   0  0  0  0  0  0  0  0  0  0  0  0
  -31.8470  -14.8930   19.9680 O   0  0  0  0  0  0  0  0  0  0  0  0
  -30.2940  -15.3140   21.5500 N   0  0  0  0  0  0  0  0  0  0  0  0
  -29.4530  -14.9500   21.9760 H   0  0  0  0  0  0  0  0  0  0  0  0
  -25.2900  -14.0410   20.3620 C   0  0  0  0  0  0  0  0  0  0  0  0
  -24.2290  -13.2570   20.7280 C   0  0  0  0  0  0  0  0  0  0  0  0
  -24.7160  -11.9140   20.7330 C   0  0  0  0  0  0  0  0  0  0  0  0
  -26.3550  -13.1760   20.1700 N   0  0  0  0  0  0  0  0  0  0  0  0
  -26.0100  -11.8920   20.4450 N   0  0  0  0  0  0  0  0  0  0  0  0
  -24.0110  -10.6420   20.9390 C   0  0  0  0  0  0  0  0  0  0  0  0
  -24.4090   -9.7320   21.9430 C   0  0  0  0  0  3  0  0  0  0  0  0
  -23.7070   -8.5220   22.1320 C   0  0  0  0  0  3  0  0  0  0  0  0
  -22.5910   -8.2140   21.3180 C   0  0  0  0  0  0  0  0  0  0  0  0
  -22.2140   -9.1130   20.3050 C   0  0  0  0  0  3  0  0  0  0  0  0
  -22.9160  -10.3140   20.1140 C   0  0  0  0  0  3  0  0  0  0  0  0
  -21.8660   -7.0500   21.4110 O   0  0  0  0  0  0  0  0  0  0  0  0
  -21.7290   -6.3830   22.6010 C   0  0  0  0  0  0  0  0  0  0  0  0
  -21.1470   -6.9920   23.7340 C   0  0  0  0  0  3  0  0  0  0  0  0
  -20.9610   -6.2470   24.9160 C   0  0  0  0  0  3  0  0  0  0  0  0
  -21.3470   -4.8940   24.9650 C   0  0  0  0  0  0  0  0  0  0  0  0
  -21.9230   -4.2850   23.8350 C   0  0  0  0  0  3  0  0  0  0  0  0
  -22.1090   -5.0270   22.6560 C   0  0  0  0  0  0  0  0  0  0  0  0
  -22.6450   -4.4300   21.5640 F   0  0  0  0  0  0  0  0  0  0  0  0
  -21.1620   -4.1750   26.0970 F   0  0  0  0  0  0  0  0  0  0  0  0
  -22.8200  -13.7130   20.9680 C   0  0  0  0  0  0  0  0  0  0  0  0
  -22.0930  -13.0220   21.8410 N   0  0  0  0  0  0  0  0  0  0  0  0
  -22.3670  -14.7160   20.4170 O   0  0  0  0  0  0  0  0  0  0  0  0
  -22.4700  -12.2130   22.3100 H   0  0  0  0  0  0  0  0  0  0  0  0
  -21.1450  -13.3100   22.0420 H   0  0  0  0  0  0  0  0  0  0  0  0
  -25.4370  -15.4110   20.1630 N   0  0  0  0  0  0  0  0  0  0  0  0
  -24.6670  -16.0630   20.2740 H   0  0  0  0  0  0  0  0  0  0  0  0
  -26.3080  -15.8620   19.9170 H   0  0  0  0  0  0  0  0  0  0  0  0
  -29.7190  -21.3650   18.0880 C   0  0  0  0  0  2  0  0  0  0  0  0
  -28.9160  -22.6410   18.4190 C   0  0  0  0  0  2  0  0  0  0  0  0
  -29.5780  -23.9650   17.9770 C   0  0  0  0  0  2  0  0  0  0  0  0
  -28.6250  -25.1580   18.1860 C   0  0  0  0  0  2  0  0  0  0  0  0
  -29.2710  -26.5610   18.1230 C   0  0  0  0  0  2  0  0  0  0  0  0
  -29.8200  -27.1020   19.4650 C   0  0  0  0  0  2  0  0  0  0  0  0
  -28.9190  -26.9930   20.5660 O   0  0  0  0  0  0  0  0  0  0  0  0
  -24.7660  -32.0000   23.4700 C   0  0  0  0  0  0  0  0  0  0  0  0
  -27.7370  -27.6940   20.4960 C   0  0  0  0  0  0  0  0  0  0  0  0
  -23.6850  -30.5300   21.8030 C   0  0  0  0  0  3  0  0  0  0  0  0
  -25.2610  -29.0530   20.4480 C   0  0  0  0  0  0  0  0  0  0  0  0
  -26.1980  -31.0050   21.6930 C   0  0  0  0  0  2  0  0  0  0  0  0
  -26.3750  -29.6430   21.0610 C   0  0  0  0  0  0  0  0  0  0  0  0
  -27.6170  -28.9690   21.0880 C   0  0  0  0  0  3  0  0  0  0  0  0
  -26.5990  -27.1010   19.9070 C   0  0  0  0  0  3  0  0  0  0  0  0
  -25.3670  -27.7770   19.8740 C   0  0  0  0  0  3  0  0  0  0  0  0
  -23.9720  -29.8440   20.4420 C   0  0  0  0  0  2  0  0  0  0  0  0
  -24.8970  -31.1960   22.3780 N   0  0  0  0  0  0  0  0  0  0  0  0
  -23.6540  -32.2240   23.9680 O   0  0  0  0  0  0  0  0  0  0  0  0
  -23.0520  -29.4880   22.7510 C   0  0  0  0  0  0  0  0  0  0  0  0
  -21.7630  -29.1830   22.5270 N   0  0  0  0  0  0  0  0  0  0  0  0
  -23.7190  -28.9510   23.6390 O   0  0  0  0  0  0  0  0  0  0  0  0
  -21.2880  -29.6600   21.7720 H   0  0  0  0  0  0  0  0  0  0  0  0
  -18.4870  -27.6780   22.7830 C   0  0  0  0  0  0  0  0  0  0  0  0
  -20.9700  -28.2040   23.2690 C   0  0  0  0  0  3  0  0  0  0  0  0
  -21.2660  -26.7670   22.7790 C   0  0  0  0  0  2  0  0  0  0  0  0
  -20.3020  -26.2890   21.6890 C   0  0  0  0  0  2  0  0  0  0  0  0
  -18.8570  -26.3250   22.1950 C   0  0  0  0  0  2  0  0  0  0  0  0
  -19.4810  -28.5670   23.2700 C   0  0  0  0  0  0  0  0  0  0  0  0
  -19.0860  -29.8270   23.7690 C   0  0  0  0  0  3  0  0  0  0  0  0
  -17.7290  -30.2030   23.7860 C   0  0  0  0  0  3  0  0  0  0  0  0
  -16.7480  -29.3130   23.3160 C   0  0  0  0  0  3  0  0  0  0  0  0
  -17.1270  -28.0510   22.8230 C   0  0  0  0  0  3  0  0  0  0  0  0
  -25.9990  -32.6960   24.1260 C   0  0  0  0  0  3  0  0  0  0  0  0
  -26.4680  -32.0080   25.4700 C   0  0  1  0  0  0  0  0  0  0  0  0
  -25.3180  -31.7600   26.4750 C   0  0  0  0  0  1  0  0  0  0  0  0
  -27.1420  -30.6460   25.1850 C   0  0  0  0  0  1  0  0  0  0  0  0
  -27.5380  -32.8880   26.1620 C   0  0  0  0  0  1  0  0  0  0  0  0
  -25.6390  -34.0990   24.3620 N   0  0  0  0  0  0  0  0  0  0  0  0
  -25.9820  -35.1170   23.5600 C   0  0  0  0  0  0  0  0  0  0  0  0
  -26.7000  -34.9730   22.5680 O   0  0  0  0  0  0  0  0  0  0  0  0
  -25.0060  -34.2850   25.1260 H   0  0  0  0  0  0  0  0  0  0  0  0
  -24.2160  -36.8280   23.0300 C   0  0  0  0  0  1  0  0  0  0  0  0
  -25.4350  -36.5130   23.9120 C   0  0  0  0  0  3  0  0  0  0  0  0
  -27.5050  -37.5130   24.7770 C   0  0  0  0  0  1  0  0  0  0  0  0
  -26.4410  -37.5900   23.7790 N   0  0  0  0  0  0  0  0  0  0  0  0
  -26.0020  -38.5050   23.8480 H   0  0  0  0  0  0  0  0  0  0  0  0
  -27.8690  -19.4750   18.1520 C   0  0  0  0  0  2  0  0  0  0  0  0
  -27.9200  -19.0480   16.6750 C   0  0  0  0  0  0  0  0  0  0  0  0
  -27.6030  -17.7890   16.3890 N   0  0  0  0  0  0  0  0  0  0  0  0
  -28.1790  -19.8470   15.7770 O   0  0  0  0  0  0  0  0  0  0  0  0
  -27.3620  -17.1370   17.1210 H   0  0  0  0  0  0  0  0  0  0  0  0
  -27.5550  -17.4830   15.4250 H   0  0  0  0  0  0  0  0  0  0  0  0
  1 44  1  0
  1  2  1  0
  2  3  1  0
  3  4  1  0
  4  5  1  0
  6 14  1  0
  7 12  1  0
  8  9  1  0
  8  7  1  0
 10  9  1  0
 10 19  1  0
 10 11  1  0
 12  6  1  0
 12 11  1  0
 13  6  2  0
 14 15  1  0
 14  5  1  0
 16 17  2  0
 17 18  1  0
 17 36  1  0
 18 21  1  0
 19 16  1  0
 19 20  1  0
 20 18  2  0
 21 22  1  0
 22 23  2  0
 24 27  1  0
 24 23  1  0
 25 24  2  0
 26 25  1  0
 26 21  2  0
 27 28  1  0
 28 33  2  0
 28 29  1  0
 29 30  2  0
 30 31  1  0
 31 35  1  0
 32 31  2  0
 33 32  1  0
 34 33  1  0
 36 37  1  0
 37 40  1  0
 37 39  1  0
 38 36  2  0
 41 42  1  0
 41 16  1  0
 43 41  1  0
 44 45  1  0
 46 47  1  0
 46 45  1  0
 48 47  1  0
 48 49  1  0
 49 50  1  0
 51 62  2  0
 52 50  1  0
 52 57  1  0
 53 61  1  0
 53 63  1  0
 54 56  1  0
 55 61  1  0
 56 57  2  0
 56 55  1  0
 58 52  2  0
 59 58  1  0
 59 54  2  0
 60 54  1  0
 60 53  1  0
 61 51  1  0
 63 65  2  0
 64 63  1  0
 66 64  1  0
 67 76  2  0
 67 72  1  0
 68 64  1  0
 68 72  1  0
 69 68  1  0
 70 71  1  0
 70 69  1  0
 71 67  1  0
 72 73  2  0
 73 74  1  0
 75 74  2  0
 76 75  1  0
 77 51  1  0
 77 82  1  0
 77 78  1  0
 78 81  1  1
 78 79  1  0
 80 78  1  0
 82 85  1  0
 83 87  1  0
 83 82  1  0
 84 83  2  0
 87 86  1  0
 89 90  1  0
 89 87  1  0
 89 88  1  0
 91  1  1  0
 92 91  1  0
 93 92  1  0
 93 95  1  0
 94 92  2  0
 96 93  1  0
M  ISO  4   6 100  14 100  49 101  50 101
M  END
>  <TORSDO>  (18) 
F 28

>  <SCORE>  (18) 
-10.182

>  <name>  (18) 
17

>  <ligand_id>  (18) 
17

>  <original_smiles>  (18) 
[H]c1c([H])c([H])c2c(c1[H])C([H])([H])C([H])([H])C([H])([H])C2([H])N([H])C(=O)C1([H])N(C(=O)C([H])(N([H])C(=O)C([H])(N([H])C([H])([H])[H])C([H])([H])[H])C(C([H])([H])[H])(C([H])([H])[H])C([H])([H])[H])C([H])([H])c2c([H])c(OC([H])([H])C([H])([H])C([H])([H])C([H])([H])C([H])([H])C([H])([H])C([H])(C([H])([H])C(=O)N([H])[H])C([H])([H])C([H])([H])C([H])([H])C([H])([H])N([H])C(=O)N3C([H])([H])C([H])([H])C([H])([H])C([H])(n4nc(-c5c([H])c([H])c(Oc6c([H])c([H])c(F)c([H])c6F)c([H])c5[H])c(C(=O)N([H])[H])c4N([H])[H])C3([H])[H])c([H])c([H])c2C1([H])[H]

>  <smiles>  (18) 
[H]c1c([H])c([H])c2c(c1[H])C([H])([H])C([H])([H])C([H])([H])C2([H])N([H])C(=O)C1([H])N(C(=O)C([H])(N([H])C(=O)C([H])(N([H])C([H])([H])[H])C([H])([H])[H])C(C([H])([H])[H])(C([H])([H])[H])C([H])([H])[H])C([H])([H])c2c([H])c(OC([H])([H])C([H])([H])C([H])([H])C([H])([H])C([H])([H])C([H])([H])C([H])(C([H])([H])C(=O)N([H])[H])C([H])([H])C([H])([H])C([H])([H])C([H])([H])N([H])C(=O)N3C([H])([H])C([H])([H])C([H])([H])C([H])(n4nc(-c5c([H])c([H])c(Oc6c([H])c([H])c(F)c([H])c6F)c([H])c5[H])c(C(=O)N([H])[H])c4N([H])[H])C3([H])[H])c([H])c([H])c2C1([H])[H]

$$$$
18:0:0
     RDKit          3D

 94102  0  0  1  0  0  0  0  0999 V2000
  -28.4640  -22.8170   22.6960 C   0  0  0  0  0  2  0  0  0  0  0  0
  -28.1190  -23.9690   21.7410 C   0  0  0  0  0  2  0  0  0  0  0  0
  -28.4350  -21.4440   21.9940 C   0  0  0  0  0  2  0  0  0  0  0  0
  -29.1280  -22.5520   19.8660 C   0  0  0  0  0  2  0  0  0  0  0  0
  -29.0570  -24.0270   20.5240 C   0  0  0  0  0  3  0  0  0  0  0  0
  -29.4360  -21.2740   20.8110 C   0  0  2  0  0  0  0  0  0  0  0  0
  -28.6070  -25.2460   19.5870 C   0  0  0  0  0  2  0  0  0  0  0  0
  -28.5770  -26.6480   20.1160 O   0  0  0  0  0  0  0  0  0  0  0  0
  -24.6380  -31.8900   23.1760 C   0  0  0  0  0  0  0  0  0  0  0  0
  -27.4310  -27.4680   20.0460 C   0  0  0  0  0  0  0  0  0  0  0  0
  -23.5070  -30.5000   21.4810 C   0  0  0  0  0  3  0  0  0  0  0  0
  -25.0260  -29.0410   20.0370 C   0  0  0  0  0  0  0  0  0  0  0  0
  -26.0410  -30.8930   21.3500 C   0  0  0  0  0  2  0  0  0  0  0  0
  -26.1700  -29.5330   20.6750 C   0  0  0  0  0  0  0  0  0  0  0  0
  -27.3700  -28.7550   20.6800 C   0  0  0  0  0  3  0  0  0  0  0  0
  -26.2610  -27.0520   19.3680 C   0  0  0  0  0  3  0  0  0  0  0  0
  -25.0750  -27.8080   19.3760 C   0  0  0  0  0  3  0  0  0  0  0  0
  -23.7640  -29.8760   20.0850 C   0  0  0  0  0  2  0  0  0  0  0  0
  -24.7480  -31.1110   22.0600 N   0  0  0  0  0  0  0  0  0  0  0  0
  -23.5350  -32.1190   23.6960 O   0  0  0  0  0  0  0  0  0  0  0  0
  -22.8630  -29.4340   22.4010 C   0  0  0  0  0  0  0  0  0  0  0  0
  -21.5450  -29.2220   22.2540 N   0  0  0  0  0  0  0  0  0  0  0  0
  -23.5500  -28.8030   23.2110 O   0  0  0  0  0  0  0  0  0  0  0  0
  -21.0480  -29.7800   21.5720 H   0  0  0  0  0  0  0  0  0  0  0  0
  -18.1970  -27.9190   22.6720 C   0  0  0  0  0  0  0  0  0  0  0  0
  -20.7450  -28.2400   22.9860 C   0  0  0  0  0  3  0  0  0  0  0  0
  -20.8940  -26.8290   22.3720 C   0  0  0  0  0  2  0  0  0  0  0  0
  -19.8160  -26.5050   21.3340 C   0  0  0  0  0  2  0  0  0  0  0  0
  -18.4220  -26.5960   21.9610 C   0  0  0  0  0  2  0  0  0  0  0  0
  -19.2890  -28.6980   23.1390 C   0  0  0  0  0  0  0  0  0  0  0  0
  -19.0270  -29.9370   23.7630 C   0  0  0  0  0  3  0  0  0  0  0  0
  -17.7090  -30.3970   23.9290 C   0  0  0  0  0  3  0  0  0  0  0  0
  -16.6310  -29.6140   23.4790 C   0  0  0  0  0  3  0  0  0  0  0  0
  -16.8750  -28.3790   22.8540 C   0  0  0  0  0  3  0  0  0  0  0  0
  -25.8880  -32.5490   23.8360 C   0  0  0  0  0  3  0  0  0  0  0  0
  -25.5360  -33.9380   24.1650 N   0  0  0  0  0  0  0  0  0  0  0  0
  -25.8560  -35.0040   23.4200 C   0  0  0  0  0  0  0  0  0  0  0  0
  -26.5540  -34.9250   22.4060 O   0  0  0  0  0  0  0  0  0  0  0  0
  -24.9310  -34.0750   24.9630 H   0  0  0  0  0  0  0  0  0  0  0  0
  -24.0980  -36.7580   23.0340 C   0  0  0  0  0  1  0  0  0  0  0  0
  -25.3240  -36.3760   23.8750 C   0  0  0  0  0  3  0  0  0  0  0  0
  -27.4100  -37.3120   24.7720 C   0  0  0  0  0  1  0  0  0  0  0  0
  -26.3330  -37.4550   23.7960 N   0  0  0  0  0  0  0  0  0  0  0  0
  -25.8980  -38.3640   23.9360 H   0  0  0  0  0  0  0  0  0  0  0  0
  -26.3840  -31.7840   25.1220 C   0  0  1  0  0  0  0  0  0  0  0  0
  -25.2670  -31.5070   26.1540 C   0  0  0  0  0  1  0  0  0  0  0  0
  -27.0160  -30.4250   24.7340 C   0  0  0  0  0  1  0  0  0  0  0  0
  -27.4930  -32.6010   25.8280 C   0  0  0  0  0  1  0  0  0  0  0  0
  -29.1290  -19.8170   20.1510 C   0  0  0  0  0  2  0  0  0  0  0  0
  -30.1620  -18.6100   19.8500 C   0  0  0  0  0  2  0  0  0  0  0  0
  -30.5130  -17.4510   20.9070 C   0  0  0  0  0  2  0  0  0  0  0  0
  -30.9310  -14.9270   20.2380 C   0  0  0  0  0  0  0  0  0  0  0  0
  -30.6980  -12.6650   19.2000 C   0  0  0  0  0  2  0  0  0  0  0  0
  -29.7510  -12.7610   17.9830 C   0  0  0  0  0  2  0  0  0  0  0  0
  -28.2780  -12.6180   18.4190 C   0  0  0  0  0  2  0  0  0  0  0  0
  -27.9310  -13.5110   19.6390 C   0  0  0  0  0  3  0  0  0  0  0  0
  -28.9920  -13.3860   20.7530 C   0  0  0  0  0  2  0  0  0  0  0  0
  -30.2950  -13.7120   20.1610 N   0  0  0  0  0  0  0  0  0  0  0  0
  -32.0980  -15.0570   19.8640 O   0  0  0  0  0  0  0  0  0  0  0  0
  -30.1570  -16.0110   20.5930 N   0  0  0  0  0  0  0  0  0  0  0  0
  -29.2080  -15.7610   20.8300 H   0  0  0  0  0  0  0  0  0  0  0  0
  -25.5610  -14.1490   20.3900 C   0  0  0  0  0  0  0  0  0  0  0  0
  -24.4840  -13.3940   20.7730 C   0  0  0  0  0  0  0  0  0  0  0  0
  -24.9240  -12.0350   20.7340 C   0  0  0  0  0  0  0  0  0  0  0  0
  -26.5850  -13.2500   20.1410 N   0  0  0  0  0  0  0  0  0  0  0  0
  -26.2100  -11.9750   20.4110 N   0  0  0  0  0  0  0  0  0  0  0  0
  -24.1780  -10.7850   20.9290 C   0  0  0  0  0  0  0  0  0  0  0  0
  -24.5710   -9.8330   21.8980 C   0  0  0  0  0  3  0  0  0  0  0  0
  -23.8290   -8.6460   22.0780 C   0  0  0  0  0  3  0  0  0  0  0  0
  -22.6800   -8.4010   21.2890 C   0  0  0  0  0  0  0  0  0  0  0  0
  -22.3060   -9.3390   20.3120 C   0  0  0  0  0  3  0  0  0  0  0  0
  -23.0480  -10.5180   20.1290 C   0  0  0  0  0  3  0  0  0  0  0  0
  -21.9120   -7.2660   21.3760 O   0  0  0  0  0  0  0  0  0  0  0  0
  -21.7770   -6.5760   22.5550 C   0  0  0  0  0  0  0  0  0  0  0  0
  -21.2520   -7.1840   23.7160 C   0  0  0  0  0  3  0  0  0  0  0  0
  -21.0640   -6.4220   24.8860 C   0  0  0  0  0  3  0  0  0  0  0  0
  -21.3920   -5.0530   24.8950 C   0  0  0  0  0  0  0  0  0  0  0  0
  -21.9100   -4.4440   23.7390 C   0  0  0  0  0  3  0  0  0  0  0  0
  -22.0990   -5.2030   22.5710 C   0  0  0  0  0  0  0  0  0  0  0  0
  -22.5770   -4.6060   21.4520 F   0  0  0  0  0  0  0  0  0  0  0  0
  -21.2050   -4.3180   26.0180 F   0  0  0  0  0  0  0  0  0  0  0  0
  -23.0990  -13.8930   21.0620 C   0  0  0  0  0  0  0  0  0  0  0  0
  -22.3720  -13.2120   21.9400 N   0  0  0  0  0  0  0  0  0  0  0  0
  -22.6700  -14.9220   20.5400 O   0  0  0  0  0  0  0  0  0  0  0  0
  -22.7280  -12.3710   22.3700 H   0  0  0  0  0  0  0  0  0  0  0  0
  -21.4430  -13.5290   22.1820 H   0  0  0  0  0  0  0  0  0  0  0  0
  -25.7510  -15.5160   20.2110 N   0  0  0  0  0  0  0  0  0  0  0  0
  -24.9990  -16.1890   20.3190 H   0  0  0  0  0  0  0  0  0  0  0  0
  -26.5990  -15.9270   19.8450 H   0  0  0  0  0  0  0  0  0  0  0  0
  -30.9090  -21.3610   21.3030 C   0  0  0  0  0  2  0  0  0  0  0  0
  -31.1890  -20.4940   22.4630 N   0  0  0  0  0  4  0  0  0  0  0  0
  -30.5900  -20.7400   23.2300 H   0  0  0  0  0  0  0  0  0  0  0  0
  -32.1440  -20.6110   22.7550 H   0  0  0  0  0  0  0  0  0  0  0  0
  -31.0450  -19.5290   22.2350 H   0  0  0  0  0  0  0  0  0  0  0  0
  2  1  1  0
  3  1  1  0
  4  5  1  0
  4  6  1  0
  5  7  1  0
  5  2  1  0
  6 49  1  6
  6 90  1  0
  6  3  1  0
  7  8  1  0
  9 20  2  0
 10  8  1  0
 10 15  1  0
 11 19  1  0
 11 21  1  0
 12 18  1  0
 12 14  1  0
 13 19  1  0
 14 15  2  0
 14 13  1  0
 16 17  1  0
 16 10  2  0
 17 12  2  0
 18 11  1  0
 19  9  1  0
 21 23  2  0
 22 21  1  0
 24 22  1  0
 25 34  2  0
 25 30  1  0
 26 22  1  0
 26 30  1  0
 27 26  1  0
 28 29  1  0
 28 27  1  0
 29 25  1  0
 30 31  2  0
 31 32  1  0
 33 32  2  0
 34 33  1  0
 35  9  1  0
 35 36  1  0
 35 45  1  0
 36 39  1  0
 37 41  1  0
 37 36  1  0
 38 37  2  0
 41 40  1  0
 43 41  1  0
 43 44  1  0
 43 42  1  0
 45 48  1  1
 45 46  1  0
 47 45  1  0
 50 49  1  0
 50 51  1  0
 52 60  1  0
 53 58  1  0
 54 55  1  0
 54 53  1  0
 56 55  1  0
 56 65  1  0
 56 57  1  0
 58 52  1  0
 58 57  1  0
 59 52  2  0
 60 61  1  0
 60 51  1  0
 62 63  2  0
 63 82  1  0
 64 63  1  0
 64 67  1  0
 65 62  1  0
 65 66  1  0
 66 64  2  0
 67 68  1  0
 68 69  2  0
 70 73  1  0
 70 69  1  0
 71 70  2  0
 72 71  1  0
 72 67  2  0
 73 74  1  0
 74 79  2  0
 74 75  1  0
 75 76  2  0
 76 77  1  0
 77 81  1  0
 78 77  2  0
 79 78  1  0
 80 79  1  0
 82 83  1  0
 83 86  1  0
 83 85  1  0
 84 82  2  0
 87 88  1  0
 87 62  1  0
 89 87  1  0
 90 91  1  0
 91 93  1  0
 91 92  1  0
 94 91  1  0
M  ISO  4   7 101   8 101  52 100  60 100
M  END
>  <TORSDO>  (19) 
F 22

>  <SCORE>  (19) 
-12.562

>  <name>  (19) 
18

>  <ligand_id>  (19) 
18

>  <original_smiles>  (19) 
[H]c1c([H])c([H])c2c(c1[H])C([H])([H])C([H])([H])C([H])([H])C2([H])N([H])C(=O)C1([H])N(C(=O)C([H])(N([H])C(=O)C([H])(N([H])C([H])([H])[H])C([H])([H])[H])C(C([H])([H])[H])(C([H])([H])[H])C([H])([H])[H])C([H])([H])c2c([H])c(OC([H])([H])C3([H])C([H])([H])C([H])([H])C([H])([H])C(C([H])([H])C([H])([H])C([H])([H])N([H])C(=O)N4C([H])([H])C([H])([H])C([H])([H])C([H])(n5nc(-c6c([H])c([H])c(Oc7c([H])c([H])c(F)c([H])c7F)c([H])c6[H])c(C(=O)N([H])[H])c5N([H])[H])C4([H])[H])(C([H])([H])[N+]([H])([H])[H])C3([H])[H])c([H])c([H])c2C1([H])[H]

>  <smiles>  (19) 
[H]c1c([H])c([H])c2c(c1[H])C([H])([H])C([H])([H])C([H])([H])C2([H])N([H])C(=O)C1([H])N(C(=O)C([H])(N([H])C(=O)C([H])(N([H])C([H])([H])[H])C([H])([H])[H])C(C([H])([H])[H])(C([H])([H])[H])C([H])([H])[H])C([H])([H])c2c([H])c(OC([H])([H])C3([H])C([H])([H])C([H])([H])C([H])([H])C(C([H])([H])C([H])([H])C([H])([H])N([H])C(=O)N4C([H])([H])C([H])([H])C([H])([H])C([H])(n5nc(-c6c([H])c([H])c(Oc7c([H])c([H])c(F)c([H])c7F)c([H])c6[H])c(C(=O)N([H])[H])c5N([H])[H])C4([H])[H])(C([H])([H])[N+]([H])([H])[H])C3([H])[H])c([H])c([H])c2C1([H])[H]

$$$$
19:0:0
     RDKit          3D

 89 98  0  0  1  0  0  0  0  0999 V2000
  -29.3730  -20.5270   20.6840 C   0  0  0  0  0  3  0  0  0  0  0  0
  -30.7480  -15.2460   20.8610 C   0  0  0  0  0  0  0  0  0  0  0  0
  -30.7110  -12.8680   19.9980 C   0  0  0  0  0  2  0  0  0  0  0  0
  -29.8890  -12.7440   18.6990 C   0  0  0  0  0  2  0  0  0  0  0  0
  -28.3910  -12.5290   19.0030 C   0  0  0  0  0  2  0  0  0  0  0  0
  -27.8720  -13.4750   20.1180 C   0  0  0  0  0  3  0  0  0  0  0  0
  -28.8370  -13.5510   21.3220 C   0  0  0  0  0  2  0  0  0  0  0  0
  -30.1320  -13.9940   20.7880 N   0  0  0  0  0  0  0  0  0  0  0  0
  -31.9820  -15.2420   20.7570 O   0  0  0  0  0  0  0  0  0  0  0  0
  -29.4700  -16.8830   17.9190 C   0  0  0  0  0  2  0  0  0  0  0  0
  -28.1450  -17.4680   18.5040 C   0  0  0  0  0  2  0  0  0  0  0  0
  -30.7790  -17.4500   18.5460 C   0  0  0  0  0  2  0  0  0  0  0  0
  -28.6750  -16.9070   20.9670 C   0  0  0  0  0  2  0  0  0  0  0  0
  -28.2700  -18.0430   19.9540 C   0  0  0  0  0  3  0  0  0  0  0  0
  -29.4420  -19.0370   19.9200 C   0  0  0  0  0  3  0  0  0  0  0  0
  -30.5540  -17.8220   20.0370 C   0  0  0  0  0  3  0  0  0  0  0  0
  -30.0550  -16.4990   20.6720 N   0  0  0  0  0  0  0  0  0  0  0  0
  -25.4330  -14.0340   20.6600 C   0  0  0  0  0  0  0  0  0  0  0  0
  -24.3570  -13.2450   20.9510 C   0  0  0  0  0  0  0  0  0  0  0  0
  -24.8460  -11.9030   20.9900 C   0  0  0  0  0  0  0  0  0  0  0  0
  -26.5080  -13.1690   20.5220 N   0  0  0  0  0  0  0  0  0  0  0  0
  -26.1600  -11.8860   20.7980 N   0  0  0  0  0  0  0  0  0  0  0  0
  -24.1270  -10.6350   21.1420 C   0  0  0  0  0  0  0  0  0  0  0  0
  -24.4870   -9.6940   22.1320 C   0  0  0  0  0  3  0  0  0  0  0  0
  -23.7630   -8.4910   22.2700 C   0  0  0  0  0  3  0  0  0  0  0  0
  -22.6640   -8.2210   21.4200 C   0  0  0  0  0  0  0  0  0  0  0  0
  -22.3240   -9.1520   20.4220 C   0  0  0  0  0  3  0  0  0  0  0  0
  -23.0490  -10.3460   20.2810 C   0  0  0  0  0  3  0  0  0  0  0  0
  -21.9160   -7.0710   21.4660 O   0  0  0  0  0  0  0  0  0  0  0  0
  -21.7660   -6.3560   22.6270 C   0  0  0  0  0  0  0  0  0  0  0  0
  -21.1980   -6.9270   23.7850 C   0  0  0  0  0  3  0  0  0  0  0  0
  -20.9990   -6.1370   24.9340 C   0  0  0  0  0  3  0  0  0  0  0  0
  -21.3600   -4.7760   24.9250 C   0  0  0  0  0  0  0  0  0  0  0  0
  -21.9230   -4.2040   23.7700 C   0  0  0  0  0  3  0  0  0  0  0  0
  -22.1210   -4.9920   22.6230 C   0  0  0  0  0  0  0  0  0  0  0  0
  -22.6430   -4.4330   21.5040 F   0  0  0  0  0  0  0  0  0  0  0  0
  -21.1640   -4.0120   26.0240 F   0  0  0  0  0  0  0  0  0  0  0  0
  -22.9360  -13.7020   21.0800 C   0  0  0  0  0  0  0  0  0  0  0  0
  -22.1420  -13.0210   21.8960 N   0  0  0  0  0  0  0  0  0  0  0  0
  -22.5330  -14.7070   20.4930 O   0  0  0  0  0  0  0  0  0  0  0  0
  -22.4690  -12.2070   22.3970 H   0  0  0  0  0  0  0  0  0  0  0  0
  -21.1860  -13.3230   22.0170 H   0  0  0  0  0  0  0  0  0  0  0  0
  -25.5720  -15.4070   20.4780 N   0  0  0  0  0  0  0  0  0  0  0  0
  -24.7790  -16.0360   20.5320 H   0  0  0  0  0  0  0  0  0  0  0  0
  -26.4340  -15.8950   20.2720 H   0  0  0  0  0  0  0  0  0  0  0  0
  -28.6670  -21.9160   20.0390 C   0  0  0  0  0  3  0  0  0  0  0  0
  -28.9170  -23.5080   20.5380 C   0  0  0  0  0  3  0  0  0  0  0  0
  -28.0350  -24.8460   20.0250 C   0  0  0  0  0  3  0  0  0  0  0  0
  -28.3050  -26.3620   20.2650 O   0  0  0  0  0  0  0  0  0  0  0  0
  -24.6110  -32.0010   23.2560 C   0  0  0  0  0  0  0  0  0  0  0  0
  -27.2500  -27.3410   20.1970 C   0  0  0  0  0  0  0  0  0  0  0  0
  -23.4320  -30.5870   21.6190 C   0  0  0  0  0  3  0  0  0  0  0  0
  -24.9000  -29.0490   20.1790 C   0  0  0  0  0  0  0  0  0  0  0  0
  -25.9810  -30.9000   21.4460 C   0  0  0  0  0  2  0  0  0  0  0  0
  -26.0750  -29.5110   20.7880 C   0  0  0  0  0  0  0  0  0  0  0  0
  -27.2510  -28.6710   20.7810 C   0  0  0  0  0  3  0  0  0  0  0  0
  -26.0480  -26.9860   19.5450 C   0  0  0  0  0  3  0  0  0  0  0  0
  -24.9000  -27.8000   19.5450 C   0  0  0  0  0  3  0  0  0  0  0  0
  -23.6590  -29.9220   20.2370 C   0  0  0  0  0  2  0  0  0  0  0  0
  -24.6950  -31.1850   22.1610 N   0  0  0  0  0  0  0  0  0  0  0  0
  -23.5200  -32.2640   23.7870 O   0  0  0  0  0  0  0  0  0  0  0  0
  -22.7750  -29.5630   22.5800 C   0  0  0  0  0  0  0  0  0  0  0  0
  -21.4520  -29.3600   22.4510 N   0  0  0  0  0  0  0  0  0  0  0  0
  -23.4580  -28.9550   23.4070 O   0  0  0  0  0  0  0  0  0  0  0  0
  -20.9560  -29.9040   21.7600 H   0  0  0  0  0  0  0  0  0  0  0  0
  -18.0980  -28.0810   22.9490 C   0  0  0  0  0  0  0  0  0  0  0  0
  -20.6500  -28.4040   23.2200 C   0  0  0  0  0  3  0  0  0  0  0  0
  -20.7860  -26.9730   22.6490 C   0  0  0  0  0  2  0  0  0  0  0  0
  -19.6950  -26.6220   21.6340 C   0  0  0  0  0  2  0  0  0  0  0  0
  -18.3090  -26.7340   22.2740 C   0  0  0  0  0  2  0  0  0  0  0  0
  -19.1980  -28.8710   23.3780 C   0  0  0  0  0  0  0  0  0  0  0  0
  -18.9450  -30.1280   23.9700 C   0  0  0  0  0  3  0  0  0  0  0  0
  -17.6270  -30.5950   24.1360 C   0  0  0  0  0  3  0  0  0  0  0  0
  -16.5440  -29.8030   23.7200 C   0  0  0  0  0  3  0  0  0  0  0  0
  -16.7790  -28.5460   23.1330 C   0  0  0  0  0  3  0  0  0  0  0  0
  -25.8770  -32.6600   23.8800 C   0  0  0  0  0  3  0  0  0  0  0  0
  -26.3910  -31.9150   25.1730 C   0  0  1  0  0  0  0  0  0  0  0  0
  -25.2900  -31.6760   26.2330 C   0  0  0  0  0  1  0  0  0  0  0  0
  -26.9970  -30.5410   24.8100 C   0  0  0  0  0  1  0  0  0  0  0  0
  -27.5240  -32.7350   25.8330 C   0  0  0  0  0  1  0  0  0  0  0  0
  -25.5460  -34.0590   24.1960 N   0  0  0  0  0  0  0  0  0  0  0  0
  -25.8880  -35.1150   23.4440 C   0  0  0  0  0  0  0  0  0  0  0  0
  -26.5830  -35.0130   22.4300 O   0  0  0  0  0  0  0  0  0  0  0  0
  -24.9300  -34.2110   24.9820 H   0  0  0  0  0  0  0  0  0  0  0  0
  -24.1760  -36.9120   23.0300 C   0  0  0  0  0  1  0  0  0  0  0  0
  -25.3840  -36.5030   23.8890 C   0  0  0  0  0  3  0  0  0  0  0  0
  -27.4800  -37.3860   24.8120 C   0  0  0  0  0  1  0  0  0  0  0  0
  -26.4190  -37.5560   23.8230 N   0  0  0  0  0  0  0  0  0  0  0  0
  -26.0070  -38.4750   23.9560 H   0  0  0  0  0  0  0  0  0  0  0  0
  3  8  1  0
  4  5  1  0
  4  3  1  0
  6  5  1  0
  6 21  1  0
  6  7  1  0
  8  2  1  0
  8  7  1  0
  9  2  2  0
 10 11  1  0
 10 12  1  0
 14 11  1  0
 14 13  1  0
 15 14  1  0
 15 16  1  0
 15  1  1  0
 16 12  1  0
 16 17  1  0
 17  2  1  0
 17 13  1  0
 18 19  2  0
 19 20  1  0
 19 38  1  0
 20 23  1  0
 21 18  1  0
 21 22  1  0
 22 20  2  0
 23 24  1  0
 24 25  2  0
 26 29  1  0
 26 25  1  0
 27 26  2  0
 28 27  1  0
 28 23  2  0
 29 30  1  0
 30 31  1  0
 31 32  2  0
 33 32  1  0
 33 37  1  0
 34 33  2  0
 35 30  2  0
 35 34  1  0
 36 35  1  0
 38 39  1  0
 39 42  1  0
 39 41  1  0
 40 38  2  0
 43 44  1  0
 43 18  1  0
 45 43  1  0
 46 47  1  0
 46  1  2  0
 48 49  1  0
 48 47  2  0
 50 61  2  0
 51 49  1  0
 51 56  1  0
 52 60  1  0
 52 62  1  0
 53 59  1  0
 53 55  1  0
 54 60  1  0
 55 54  1  0
 56 55  2  0
 57 58  1  0
 57 51  2  0
 58 53  2  0
 59 52  1  0
 60 50  1  0
 62 64  2  0
 63 62  1  0
 65 63  1  0
 66 75  2  0
 66 71  1  0
 67 63  1  0
 67 71  1  0
 68 67  1  0
 69 70  1  0
 69 68  1  0
 70 66  1  0
 71 72  2  0
 72 73  1  0
 74 73  2  0
 75 74  1  0
 76 50  1  0
 76 81  1  0
 76 77  1  0
 77 80  1  1
 77 78  1  0
 79 77  1  0
 81 84  1  0
 82 86  1  0
 82 81  1  0
 83 82  2  0
 86 85  1  0
 88 86  1  0
 88 89  1  0
 88 87  1  0
M  ISO  4   2 100  17 100  48 101  49 101
M  END
>  <TORSDO>  (20) 
F 19

>  <SCORE>  (20) 
-13.449

>  <name>  (20) 
19

>  <ligand_id>  (20) 
19

>  <original_smiles>  (20) 
[H]c1c([H])c([H])c2c(c1[H])C([H])([H])C([H])([H])C([H])([H])C2([H])N([H])C(=O)C1([H])N(C(=O)C([H])(N([H])C(=O)C([H])(N([H])C([H])([H])[H])C([H])([H])[H])C(C([H])([H])[H])(C([H])([H])[H])C([H])([H])[H])C([H])([H])c2c([H])c(OC([H])([H])C([H])([H])C([H])([H])C([H])([H])C3([H])C4([H])N(C(=O)N5C([H])([H])C([H])([H])C([H])([H])C([H])(n6nc(-c7c([H])c([H])c(Oc8c([H])c([H])c(F)c([H])c8F)c([H])c7[H])c(C(=O)N([H])[H])c6N([H])[H])C5([H])[H])C([H])([H])C3([H])C([H])([H])C([H])([H])C4([H])[H])c([H])c([H])c2C1([H])[H]

>  <smiles>  (20) 
[H]c1c([H])c([H])c2c(c1[H])C([H])([H])C([H])([H])C([H])([H])C2([H])N([H])C(=O)C1([H])N(C(=O)C([H])(N([H])C(=O)C([H])(N([H])C([H])([H])[H])C([H])([H])[H])C(C([H])([H])[H])(C([H])([H])[H])C([H])([H])[H])C([H])([H])c2c([H])c(OC([H])([H])C([H])([H])C([H])([H])C([H])([H])C3([H])C4([H])N(C(=O)N5C([H])([H])C([H])([H])C([H])([H])C([H])(n6nc(-c7c([H])c([H])c(Oc8c([H])c([H])c(F)c([H])c8F)c([H])c7[H])c(C(=O)N([H])[H])c6N([H])[H])C5([H])[H])C([H])([H])C3([H])C([H])([H])C([H])([H])C4([H])[H])c([H])c([H])c2C1([H])[H]

$$$$
20:0:0
     RDKit          3D

 97105  0  0  1  0  0  0  0  0999 V2000
  -31.8810  -24.4200   19.2340 C   0  0  0  0  0  2  0  0  0  0  0  0
  -30.8660  -25.4480   19.7390 C   0  0  0  0  0  2  0  0  0  0  0  0
  -32.3210  -23.4980   20.3770 C   0  0  0  0  0  2  0  0  0  0  0  0
  -30.0650  -23.7620   21.4690 C   0  0  0  0  0  2  0  0  0  0  0  0
  -29.6340  -24.7740   20.3740 C   0  0  0  0  0  3  0  0  0  0  0  0
  -31.1460  -22.7180   21.0400 C   0  0  2  0  0  0  0  0  0  0  0  0
  -30.7450  -21.2690   23.2050 C   0  0  0  0  0  1  0  0  0  0  0  0
  -31.7350  -22.0360   22.3100 C   0  0  0  0  0  2  0  0  0  0  0  0
  -28.6420  -25.8370   20.9060 C   0  0  0  0  0  2  0  0  0  0  0  0
  -28.1990  -26.5930   19.7880 O   0  0  0  0  0  0  0  0  0  0  0  0
  -24.4950  -31.7240   23.1310 C   0  0  0  0  0  0  0  0  0  0  0  0
  -27.0500  -27.3210   19.9440 C   0  0  0  0  0  0  0  0  0  0  0  0
  -23.2530  -30.3700   21.4750 C   0  0  0  0  0  3  0  0  0  0  0  0
  -24.6730  -28.8340   20.0180 C   0  0  0  0  0  0  0  0  0  0  0  0
  -25.7800  -30.6990   21.2610 C   0  0  0  0  0  2  0  0  0  0  0  0
  -25.8420  -29.3350   20.6080 C   0  0  0  0  0  0  0  0  0  0  0  0
  -27.0350  -28.5800   20.5810 C   0  0  0  0  0  3  0  0  0  0  0  0
  -25.8710  -26.8260   19.3540 C   0  0  0  0  0  3  0  0  0  0  0  0
  -24.6790  -27.5740   19.3940 C   0  0  0  0  0  3  0  0  0  0  0  0
  -23.4420  -29.7100   20.0830 C   0  0  0  0  0  2  0  0  0  0  0  0
  -24.5280  -30.9440   22.0150 N   0  0  0  0  0  0  0  0  0  0  0  0
  -23.4240  -32.0020   23.6860 O   0  0  0  0  0  0  0  0  0  0  0  0
  -22.5970  -29.3400   22.4220 C   0  0  0  0  0  0  0  0  0  0  0  0
  -21.2670  -29.1940   22.3160 N   0  0  0  0  0  0  0  0  0  0  0  0
  -23.2810  -28.6780   23.2070 O   0  0  0  0  0  0  0  0  0  0  0  0
  -20.7780  -29.7800   21.6540 H   0  0  0  0  0  0  0  0  0  0  0  0
  -17.8690  -28.1010   22.8760 C   0  0  0  0  0  0  0  0  0  0  0  0
  -20.4410  -28.2580   23.0790 C   0  0  0  0  0  3  0  0  0  0  0  0
  -20.4750  -26.8460   22.4500 C   0  0  0  0  0  2  0  0  0  0  0  0
  -19.3330  -26.5990   21.4590 C   0  0  0  0  0  2  0  0  0  0  0  0
  -17.9770  -26.7710   22.1490 C   0  0  0  0  0  2  0  0  0  0  0  0
  -19.0270  -28.8060   23.2970 C   0  0  0  0  0  0  0  0  0  0  0  0
  -18.8720  -30.0560   23.9360 C   0  0  0  0  0  3  0  0  0  0  0  0
  -17.5920  -30.5990   24.1570 C   0  0  0  0  0  3  0  0  0  0  0  0
  -16.4490  -29.8880   23.7510 C   0  0  0  0  0  3  0  0  0  0  0  0
  -16.5890  -28.6420   23.1170 C   0  0  0  0  0  3  0  0  0  0  0  0
  -25.7970  -32.3230   23.7500 C   0  0  0  0  0  3  0  0  0  0  0  0
  -26.3040  -31.5310   25.0180 C   0  0  1  0  0  0  0  0  0  0  0  0
  -25.2130  -31.3110   26.0890 C   0  0  0  0  0  1  0  0  0  0  0  0
  -26.8540  -30.1440   24.6100 C   0  0  0  0  0  1  0  0  0  0  0  0
  -27.4760  -32.2970   25.6780 C   0  0  0  0  0  1  0  0  0  0  0  0
  -25.5220  -33.7250   24.0860 N   0  0  0  0  0  0  0  0  0  0  0  0
  -25.8720  -34.7720   23.3250 C   0  0  0  0  0  0  0  0  0  0  0  0
  -26.5320  -34.6560   22.2890 O   0  0  0  0  0  0  0  0  0  0  0  0
  -24.9350  -33.8910   24.8910 H   0  0  0  0  0  0  0  0  0  0  0  0
  -24.1740  -36.5950   22.9890 C   0  0  0  0  0  1  0  0  0  0  0  0
  -25.4150  -36.1680   23.7880 C   0  0  0  0  0  3  0  0  0  0  0  0
  -27.5750  -37.0090   24.5990 C   0  0  0  0  0  1  0  0  0  0  0  0
  -26.4670  -37.2000   23.6660 N   0  0  0  0  0  0  0  0  0  0  0  0
  -26.0810  -38.1280   23.8180 H   0  0  0  0  0  0  0  0  0  0  0  0
  -30.5360  -21.6380   20.0750 C   0  0  0  0  0  2  0  0  0  0  0  0
  -31.9510  -19.6630   19.7800 C   0  0  0  0  0  0  0  0  0  0  0  0
  -31.5720  -20.8360   19.4330 N   0  0  0  0  0  0  0  0  0  0  0  0
  -33.1370  -19.0420   19.0420 C   0  0  0  0  0  2  0  0  0  0  0  0
  -35.4840  -19.3810   18.0680 C   0  0  0  0  0  1  0  0  0  0  0  0
  -34.2480  -20.0500   18.6820 C   0  0  0  0  0  2  0  0  0  0  0  0
  -31.3850  -18.7540   20.8800 C   0  0  0  0  0  2  0  0  0  0  0  0
  -30.7560  -17.4390   20.3460 C   0  0  0  0  0  2  0  0  0  0  0  0
  -30.7440  -16.3070   21.3990 C   0  0  0  0  0  2  0  0  0  0  0  0
  -30.6420  -14.1580   20.1040 C   0  0  0  0  0  0  0  0  0  0  0  0
  -30.2370  -12.0270   18.9220 C   0  0  0  0  0  2  0  0  0  0  0  0
  -29.2220  -12.2220   17.7780 C   0  0  0  0  0  2  0  0  0  0  0  0
  -27.7760  -12.0950   18.2960 C   0  0  0  0  0  2  0  0  0  0  0  0
  -27.5180  -12.9550   19.5610 C   0  0  0  0  0  3  0  0  0  0  0  0
  -28.6280  -12.7250   20.6090 C   0  0  0  0  0  2  0  0  0  0  0  0
  -29.9250  -13.0110   19.9710 N   0  0  0  0  0  0  0  0  0  0  0  0
  -31.6900  -14.3750   19.4920 O   0  0  0  0  0  0  0  0  0  0  0  0
  -30.1110  -15.0680   20.9360 N   0  0  0  0  0  0  0  0  0  0  0  0
  -29.2270  -14.8190   21.3580 H   0  0  0  0  0  0  0  0  0  0  0  0
  -25.1790  -13.6030   20.4220 C   0  0  0  0  0  0  0  0  0  0  0  0
  -24.1230  -12.8470   20.8550 C   0  0  0  0  0  0  0  0  0  0  0  0
  -24.5560  -11.4880   20.7890 C   0  0  0  0  0  0  0  0  0  0  0  0
  -26.1920  -12.7040   20.1220 N   0  0  0  0  0  0  0  0  0  0  0  0
  -25.8230  -11.4280   20.3960 N   0  0  0  0  0  0  0  0  0  0  0  0
  -23.8220  -10.2360   21.0210 C   0  0  0  0  0  0  0  0  0  0  0  0
  -24.2890   -9.2680   21.9360 C   0  0  0  0  0  3  0  0  0  0  0  0
  -23.5580   -8.0790   22.1540 C   0  0  0  0  0  3  0  0  0  0  0  0
  -22.3470   -7.8520   21.4600 C   0  0  0  0  0  0  0  0  0  0  0  0
  -21.8980   -8.8110   20.5340 C   0  0  0  0  0  3  0  0  0  0  0  0
  -22.6280   -9.9900   20.3130 C   0  0  0  0  0  3  0  0  0  0  0  0
  -21.5840   -6.7170   21.5900 O   0  0  0  0  0  0  0  0  0  0  0  0
  -21.5780   -5.9820   22.7470 C   0  0  0  0  0  0  0  0  0  0  0  0
  -21.2130   -6.5480   23.9880 C   0  0  0  0  0  3  0  0  0  0  0  0
  -21.1520   -5.7370   25.1400 C   0  0  0  0  0  3  0  0  0  0  0  0
  -21.4480   -4.3640   25.0530 C   0  0  0  0  0  0  0  0  0  0  0  0
  -21.8050   -3.7980   23.8170 C   0  0  0  0  0  3  0  0  0  0  0  0
  -21.8680   -4.6040   22.6680 C   0  0  0  0  0  0  0  0  0  0  0  0
  -22.1920   -4.0490   21.4750 F   0  0  0  0  0  0  0  0  0  0  0  0
  -21.3820   -3.5840   26.1580 F   0  0  0  0  0  0  0  0  0  0  0  0
  -22.7530  -13.3460   21.2180 C   0  0  0  0  0  0  0  0  0  0  0  0
  -22.0680  -12.6550   22.1220 N   0  0  0  0  0  0  0  0  0  0  0  0
  -22.3010  -14.3810   20.7290 O   0  0  0  0  0  0  0  0  0  0  0  0
  -22.4480  -11.8180   22.5390 H   0  0  0  0  0  0  0  0  0  0  0  0
  -21.1510  -12.9700   22.4050 H   0  0  0  0  0  0  0  0  0  0  0  0
  -25.3610  -14.9710   20.2370 N   0  0  0  0  0  0  0  0  0  0  0  0
  -24.6200  -15.6470   20.3830 H   0  0  0  0  0  0  0  0  0  0  0  0
  -26.2090  -15.3840   19.8680 H   0  0  0  0  0  0  0  0  0  0  0  0
  1  2  1  0
  1  3  1  0
  2  5  1  0
  3  6  1  0
  5  9  1  0
  5  4  1  0
  6 51  1  6
  6  4  1  0
  6  8  1  0
  8  7  1  0
 10 12  1  0
 10  9  1  0
 11 22  2  0
 12 17  1  0
 13 21  1  0
 13 23  1  0
 14 20  1  0
 14 16  1  0
 15 21  1  0
 16 15  1  0
 17 16  2  0
 18 19  1  0
 18 12  2  0
 19 14  2  0
 20 13  1  0
 21 11  1  0
 23 25  2  0
 24 23  1  0
 26 24  1  0
 27 36  2  0
 27 32  1  0
 28 24  1  0
 28 32  1  0
 29 28  1  0
 30 31  1  0
 30 29  1  0
 31 27  1  0
 32 33  2  0
 33 34  1  0
 35 34  2  0
 36 35  1  0
 37 11  1  0
 37 42  1  0
 37 38  1  0
 38 41  1  1
 38 39  1  0
 40 38  1  0
 42 45  1  0
 43 47  1  0
 43 42  1  0
 44 43  2  0
 47 46  1  0
 49 47  1  0
 49 50  1  0
 49 48  1  0
 52 57  1  0
 53 52  2  0
 53 51  1  0
 54 52  1  0
 55 56  1  0
 56 54  1  0
 58 57  1  0
 58 59  1  0
 60 68  1  0
 61 66  1  0
 62 63  1  0
 62 61  1  0
 64 63  1  0
 64 73  1  0
 64 65  1  0
 66 60  1  0
 66 65  1  0
 67 60  2  0
 68 69  1  0
 68 59  1  0
 70 71  2  0
 71 90  1  0
 72 71  1  0
 72 75  1  0
 73 74  1  0
 73 70  1  0
 74 72  2  0
 75 76  1  0
 76 77  2  0
 78 81  1  0
 78 77  1  0
 79 78  2  0
 80 79  1  0
 80 75  2  0
 81 82  1  0
 82 83  1  0
 83 84  2  0
 85 84  1  0
 85 89  1  0
 86 85  2  0
 87 82  2  0
 87 86  1  0
 88 87  1  0
 90 91  1  0
 91 94  1  0
 91 93  1  0
 92 90  2  0
 95 96  1  0
 95 70  1  0
 97 95  1  0
M  ISO  4   9 101  10 101  60 100  68 100
M  END
>  <TORSDO>  (21) 
F 25

>  <SCORE>  (21) 
-11.555

>  <name>  (21) 
20

>  <ligand_id>  (21) 
20

>  <original_smiles>  (21) 
[H]c1c([H])c([H])c2c(c1[H])C([H])([H])C([H])([H])C([H])([H])C2([H])N([H])C(=O)C1([H])N(C(=O)C([H])(N([H])C(=O)C([H])(N([H])C([H])([H])[H])C([H])([H])[H])C(C([H])([H])[H])(C([H])([H])[H])C([H])([H])[H])C([H])([H])c2c([H])c(OC([H])([H])C3([H])C([H])([H])C([H])([H])C([H])([H])C(C([H])([H])N=C(C([H])([H])C([H])([H])C([H])([H])[H])C([H])([H])C([H])([H])C([H])([H])N([H])C(=O)N4C([H])([H])C([H])([H])C([H])([H])C([H])(n5nc(-c6c([H])c([H])c(Oc7c([H])c([H])c(F)c([H])c7F)c([H])c6[H])c(C(=O)N([H])[H])c5N([H])[H])C4([H])[H])(C([H])([H])C([H])([H])[H])C3([H])[H])c([H])c([H])c2C1([H])[H]

>  <smiles>  (21) 
[H]c1c([H])c([H])c2c(c1[H])C([H])([H])C([H])([H])C([H])([H])C2([H])N([H])C(=O)C1([H])N(C(=O)C([H])(N([H])C(=O)C([H])(N([H])C([H])([H])[H])C([H])([H])[H])C(C([H])([H])[H])(C([H])([H])[H])C([H])([H])[H])C([H])([H])c2c([H])c(OC([H])([H])C3([H])C([H])([H])C([H])([H])C([H])([H])C(C([H])([H])N=C(C([H])([H])C([H])([H])C([H])([H])[H])C([H])([H])C([H])([H])C([H])([H])N([H])C(=O)N4C([H])([H])C([H])([H])C([H])([H])C([H])(n5nc(-c6c([H])c([H])c(Oc7c([H])c([H])c(F)c([H])c7F)c([H])c6[H])c(C(=O)N([H])[H])c5N([H])[H])C4([H])[H])(C([H])([H])C([H])([H])[H])C3([H])[H])c([H])c([H])c2C1([H])[H]

$$$$
21:0:0
     RDKit          3D

 93100  0  0  1  0  0  0  0  0999 V2000
  -28.1890  -21.7550   20.9040 C   0  0  0  0  0  3  0  0  0  0  0  0
  -26.9240  -22.2640   20.1860 C   0  0  0  0  0  0  0  0  0  0  0  0
  -25.8740  -22.5760   20.9340 N   0  0  0  0  0  0  0  0  0  0  0  0
  -26.8860  -22.3730   18.9620 O   0  0  0  0  0  0  0  0  0  0  0  0
  -25.9090  -22.4690   21.9390 H   0  0  0  0  0  0  0  0  0  0  0  0
  -25.0230  -22.9100   20.5030 H   0  0  0  0  0  0  0  0  0  0  0  0
  -28.4520  -20.2920   20.4850 C   0  0  0  0  0  2  0  0  0  0  0  0
  -29.7950  -19.7230   20.9790 C   0  0  0  0  0  2  0  0  0  0  0  0
  -29.8450  -18.1990   20.8040 C   0  0  0  0  0  2  0  0  0  0  0  0
  -31.1790  -17.5600   21.2200 C   0  0  0  0  0  2  0  0  0  0  0  0
  -31.5970  -15.1990   20.5020 C   0  0  0  0  0  0  0  0  0  0  0  0
  -31.3070  -12.9880   19.4540 C   0  0  0  0  0  2  0  0  0  0  0  0
  -30.4110  -13.1130   18.2040 C   0  0  0  0  0  2  0  0  0  0  0  0
  -28.9180  -13.0340   18.5790 C   0  0  0  0  0  2  0  0  0  0  0  0
  -28.5480  -13.9770   19.7540 C   0  0  0  0  0  3  0  0  0  0  0  0
  -29.5450  -13.7930   20.9210 C   0  0  0  0  0  2  0  0  0  0  0  0
  -30.9110  -14.0300   20.4070 N   0  0  0  0  0  0  0  0  0  0  0  0
  -32.6540  -15.4300   19.9060 O   0  0  0  0  0  0  0  0  0  0  0  0
  -30.9900  -16.1170   21.2580 N   0  0  0  0  0  0  0  0  0  0  0  0
  -30.1780  -15.7860   21.7580 H   0  0  0  0  0  0  0  0  0  0  0  0
  -26.1640  -14.7060   20.4150 C   0  0  0  0  0  0  0  0  0  0  0  0
  -25.0450  -13.9860   20.7370 C   0  0  0  0  0  0  0  0  0  0  0  0
  -25.4300  -12.6110   20.6790 C   0  0  0  0  0  0  0  0  0  0  0  0
  -27.1660  -13.7730   20.1870 N   0  0  0  0  0  0  0  0  0  0  0  0
  -26.7220  -12.5070   20.3970 N   0  0  0  0  0  0  0  0  0  0  0  0
  -24.6320  -11.3870   20.8180 C   0  0  0  0  0  0  0  0  0  0  0  0
  -24.9580  -10.3980   21.7720 C   0  0  0  0  0  3  0  0  0  0  0  0
  -24.1650   -9.2370   21.8990 C   0  0  0  0  0  3  0  0  0  0  0  0
  -23.0320   -9.0570   21.0710 C   0  0  0  0  0  0  0  0  0  0  0  0
  -22.7240  -10.0340   20.1080 C   0  0  0  0  0  3  0  0  0  0  0  0
  -23.5170  -11.1870   19.9790 C   0  0  0  0  0  3  0  0  0  0  0  0
  -22.2200   -7.9490   21.1050 O   0  0  0  0  0  0  0  0  0  0  0  0
  -22.0020   -7.2520   22.2670 C   0  0  0  0  0  0  0  0  0  0  0  0
  -21.4430   -7.8650   23.4100 C   0  0  0  0  0  3  0  0  0  0  0  0
  -21.1720   -7.0960   24.5590 C   0  0  0  0  0  3  0  0  0  0  0  0
  -21.4480   -5.7160   24.5640 C   0  0  0  0  0  0  0  0  0  0  0  0
  -21.9990   -5.1030   23.4250 C   0  0  0  0  0  3  0  0  0  0  0  0
  -22.2730   -5.8690   22.2790 C   0  0  0  0  0  0  0  0  0  0  0  0
  -22.7840   -5.2700   21.1770 F   0  0  0  0  0  0  0  0  0  0  0  0
  -21.1810   -4.9750   25.6650 F   0  0  0  0  0  0  0  0  0  0  0  0
  -23.6700  -14.5330   20.9940 C   0  0  0  0  0  0  0  0  0  0  0  0
  -22.8930  -13.8670   21.8410 N   0  0  0  0  0  0  0  0  0  0  0  0
  -23.2930  -15.5850   20.4800 O   0  0  0  0  0  0  0  0  0  0  0  0
  -23.2090  -13.0130   22.2770 H   0  0  0  0  0  0  0  0  0  0  0  0
  -21.9690  -14.2150   22.0550 H   0  0  0  0  0  0  0  0  0  0  0  0
  -26.4100  -16.0680   20.2810 N   0  0  0  0  0  0  0  0  0  0  0  0
  -25.6790  -16.7620   20.3940 H   0  0  0  0  0  0  0  0  0  0  0  0
  -27.2940  -16.4660   19.9910 H   0  0  0  0  0  0  0  0  0  0  0  0
  -29.4060  -22.6730   20.6330 C   0  0  0  0  0  2  0  0  0  0  0  0
  -29.3290  -24.0250   21.3680 C   0  0  0  0  0  2  0  0  0  0  0  0
  -29.9540  -25.1840   20.5790 C   0  0  0  0  0  2  0  0  0  0  0  0
  -29.8320  -26.5190   21.3310 C   0  0  0  0  0  2  0  0  0  0  0  0
  -29.6930  -27.6070   20.4210 O   0  0  0  0  0  0  0  0  0  0  0  0
  -24.8470  -31.8600   23.3990 C   0  0  0  0  0  0  0  0  0  0  0  0
  -28.4210  -28.1140   20.3690 C   0  0  0  0  0  0  0  0  0  0  0  0
  -24.0150  -30.3580   21.6160 C   0  0  0  0  0  3  0  0  0  0  0  0
  -25.8070  -29.1590   20.2550 C   0  0  0  0  0  0  0  0  0  0  0  0
  -26.4450  -31.1530   21.6260 C   0  0  0  0  0  2  0  0  0  0  0  0
  -26.8090  -29.8510   20.9470 C   0  0  0  0  0  0  0  0  0  0  0  0
  -28.1200  -29.3360   21.0040 C   0  0  0  0  0  3  0  0  0  0  0  0
  -27.4060  -27.4200   19.6770 C   0  0  0  0  0  3  0  0  0  0  0  0
  -26.0990  -27.9390   19.6190 C   0  0  0  0  0  3  0  0  0  0  0  0
  -24.4330  -29.7890   20.2330 C   0  0  0  0  0  2  0  0  0  0  0  0
  -25.1130  -31.1380   22.2740 N   0  0  0  0  0  0  0  0  0  0  0  0
  -23.7000  -31.9200   23.8640 O   0  0  0  0  0  0  0  0  0  0  0  0
  -23.4840  -29.1970   22.4860 C   0  0  0  0  0  0  0  0  0  0  0  0
  -22.2230  -28.8000   22.2470 N   0  0  0  0  0  0  0  0  0  0  0  0
  -24.2050  -28.6560   23.3290 O   0  0  0  0  0  0  0  0  0  0  0  0
  -21.6960  -29.2990   21.5450 H   0  0  0  0  0  0  0  0  0  0  0  0
  -19.0590  -27.0740   22.4690 C   0  0  0  0  0  0  0  0  0  0  0  0
  -21.5260  -27.7030   22.9160 C   0  0  0  0  0  3  0  0  0  0  0  0
  -21.8820  -26.3430   22.2720 C   0  0  0  0  0  2  0  0  0  0  0  0
  -20.9010  -25.9190   21.1760 C   0  0  0  0  0  2  0  0  0  0  0  0
  -19.4810  -25.8110   21.7370 C   0  0  0  0  0  2  0  0  0  0  0  0
  -20.0190  -27.9710   23.0080 C   0  0  0  0  0  0  0  0  0  0  0  0
  -19.5720  -29.1500   23.6450 C   0  0  0  0  0  3  0  0  0  0  0  0
  -18.1980  -29.4340   23.7520 C   0  0  0  0  0  3  0  0  0  0  0  0
  -17.2520  -28.5340   23.2310 C   0  0  0  0  0  3  0  0  0  0  0  0
  -17.6830  -27.3570   22.5950 C   0  0  0  0  0  3  0  0  0  0  0  0
  -25.9620  -32.6640   24.1390 C   0  0  0  0  0  3  0  0  0  0  0  0
  -26.3750  -32.0270   25.5230 C   0  0  1  0  0  0  0  0  0  0  0  0
  -25.1730  -31.7060   26.4420 C   0  0  0  0  0  1  0  0  0  0  0  0
  -27.1670  -30.7170   25.3050 C   0  0  0  0  0  1  0  0  0  0  0  0
  -27.3140  -32.9920   26.2850 C   0  0  0  0  0  1  0  0  0  0  0  0
  -25.4700  -34.0350   24.3230 N   0  0  0  0  0  0  0  0  0  0  0  0
  -25.7920  -35.0700   23.5370 C   0  0  0  0  0  0  0  0  0  0  0  0
  -26.6030  -34.9800   22.6100 O   0  0  0  0  0  0  0  0  0  0  0  0
  -24.7600  -34.1700   25.0280 H   0  0  0  0  0  0  0  0  0  0  0  0
  -23.9460  -36.6260   22.8320 C   0  0  0  0  0  1  0  0  0  0  0  0
  -25.1040  -36.4190   23.8210 C   0  0  0  0  0  3  0  0  0  0  0  0
  -27.0120  -37.5860   24.8360 C   0  0  0  0  0  1  0  0  0  0  0  0
  -26.0260  -37.5730   23.7580 N   0  0  0  0  0  0  0  0  0  0  0  0
  -25.5090  -38.4480   23.7900 H   0  0  0  0  0  0  0  0  0  0  0  0
  1  7  1  0
  2  1  1  0
  2  3  1  0
  3  5  1  0
  4  2  2  0
  6  3  1  0
  7  8  1  0
  9  8  1  0
  9 10  1  0
 10 19  1  0
 11 19  1  0
 12 17  1  0
 13 14  1  0
 13 12  1  0
 15 14  1  0
 15 24  1  0
 15 16  1  0
 17 11  1  0
 17 16  1  0
 18 11  2  0
 19 20  1  0
 21 22  2  0
 22 41  1  0
 23 22  1  0
 23 26  1  0
 24 25  1  0
 24 21  1  0
 25 23  2  0
 26 27  1  0
 27 28  2  0
 29 32  1  0
 29 28  1  0
 30 29  2  0
 31 30  1  0
 31 26  2  0
 32 33  1  0
 33 38  2  0
 33 34  1  0
 34 35  2  0
 35 36  1  0
 36 40  1  0
 37 36  2  0
 38 37  1  0
 39 38  1  0
 41 42  1  0
 42 45  1  0
 42 44  1  0
 43 41  2  0
 46 47  1  0
 46 21  1  0
 48 46  1  0
 49  1  1  0
 49 50  1  0
 51 52  1  0
 51 50  1  0
 53 52  1  0
 54 65  2  0
 55 53  1  0
 55 60  1  0
 56 64  1  0
 56 66  1  0
 57 59  1  0
 58 64  1  0
 59 60  2  0
 59 58  1  0
 61 55  2  0
 62 61  1  0
 62 57  2  0
 63 57  1  0
 63 56  1  0
 64 54  1  0
 66 68  2  0
 67 66  1  0
 69 67  1  0
 70 79  2  0
 70 75  1  0
 71 67  1  0
 71 75  1  0
 72 71  1  0
 73 74  1  0
 73 72  1  0
 74 70  1  0
 75 76  2  0
 76 77  1  0
 78 77  2  0
 79 78  1  0
 80 54  1  0
 80 85  1  0
 80 81  1  0
 81 84  1  1
 81 82  1  0
 83 81  1  0
 85 88  1  0
 86 90  1  0
 86 85  1  0
 87 86  2  0
 90 89  1  0
 92 93  1  0
 92 90  1  0
 92 91  1  0
M  ISO  4  11 100  19 100  52 101  53 101
M  END
>  <TORSDO>  (22) 
F 25

>  <SCORE>  (22) 
-8.961

>  <name>  (22) 
21

>  <ligand_id>  (22) 
21

>  <original_smiles>  (22) 
[H]c1c([H])c([H])c2c(c1[H])C([H])([H])C([H])([H])C([H])([H])C2([H])N([H])C(=O)C1([H])N(C(=O)C([H])(N([H])C(=O)C([H])(N([H])C([H])([H])[H])C([H])([H])[H])C(C([H])([H])[H])(C([H])([H])[H])C([H])([H])[H])C([H])([H])c2c([H])c(OC([H])([H])C([H])([H])C([H])([H])C([H])([H])C([H])(C(=O)N([H])[H])C([H])([H])C([H])([H])C([H])([H])C([H])([H])N([H])C(=O)N3C([H])([H])C([H])([H])C([H])([H])C([H])(n4nc(-c5c([H])c([H])c(Oc6c([H])c([H])c(F)c([H])c6F)c([H])c5[H])c(C(=O)N([H])[H])c4N([H])[H])C3([H])[H])c([H])c([H])c2C1([H])[H]

>  <smiles>  (22) 
[H]c1c([H])c([H])c2c(c1[H])C([H])([H])C([H])([H])C([H])([H])C2([H])N([H])C(=O)C1([H])N(C(=O)C([H])(N([H])C(=O)C([H])(N([H])C([H])([H])[H])C([H])([H])[H])C(C([H])([H])[H])(C([H])([H])[H])C([H])([H])[H])C([H])([H])c2c([H])c(OC([H])([H])C([H])([H])C([H])([H])C([H])([H])C([H])(C(=O)N([H])[H])C([H])([H])C([H])([H])C([H])([H])C([H])([H])N([H])C(=O)N3C([H])([H])C([H])([H])C([H])([H])C([H])(n4nc(-c5c([H])c([H])c(Oc6c([H])c([H])c(F)c([H])c6F)c([H])c5[H])c(C(=O)N([H])[H])c4N([H])[H])C3([H])[H])c([H])c([H])c2C1([H])[H]

$$$$
22:0:0
     RDKit          3D

 95104  0  0  1  0  0  0  0  0999 V2000
  -28.8190  -21.5870   21.6460 C   0  0  0  0  0  2  0  0  0  0  0  0
  -28.4500  -21.7560   19.6590 C   0  0  0  0  0  2  0  0  0  0  0  0
  -30.8660  -20.9630   20.2060 C   0  0  0  0  0  2  0  0  0  0  0  0
  -28.2200  -20.5880   20.6430 C   0  0  0  0  0  3  0  0  0  0  0  0
  -30.3900  -19.4110   19.8070 C   0  0  0  0  0  3  0  0  0  0  0  0
  -28.9610  -19.2280   20.4180 C   0  0  0  0  0  3  0  0  0  0  0  0
  -29.7020  -22.1080   20.4940 C   0  0  2  0  0  0  0  0  0  0  0  0
  -28.0900  -18.2610   19.5770 C   0  0  0  0  0  2  0  0  0  0  0  0
  -26.8580  -17.7300   20.3220 C   0  0  0  0  0  0  0  0  0  0  0  0
  -25.6850  -17.7850   19.7040 N   0  0  0  0  0  0  0  0  0  0  0  0
  -26.9590  -17.2580   21.4520 O   0  0  0  0  0  0  0  0  0  0  0  0
  -25.6120  -18.1640   18.7710 H   0  0  0  0  0  0  0  0  0  0  0  0
  -24.8530  -17.4380   20.1590 H   0  0  0  0  0  0  0  0  0  0  0  0
  -31.4000  -18.0650   19.9770 C   0  0  0  0  0  2  0  0  0  0  0  0
  -31.6900  -15.3530   20.1610 C   0  0  0  0  0  0  0  0  0  0  0  0
  -31.5170  -12.9550   19.3760 C   0  0  0  0  0  2  0  0  0  0  0  0
  -30.6440  -12.8690   18.1040 C   0  0  0  0  0  2  0  0  0  0  0  0
  -29.1550  -12.7380   18.4760 C   0  0  0  0  0  2  0  0  0  0  0  0
  -28.7280  -13.7530   19.5680 C   0  0  0  0  0  3  0  0  0  0  0  0
  -29.7290  -13.8060   20.7430 C   0  0  0  0  0  2  0  0  0  0  0  0
  -31.0440  -14.1220   20.1720 N   0  0  0  0  0  0  0  0  0  0  0  0
  -32.9010  -15.3600   19.9230 O   0  0  0  0  0  0  0  0  0  0  0  0
  -30.9580  -16.5670   20.2050 N   0  0  0  0  0  0  0  0  0  0  0  0
  -29.9710  -16.4370   20.3600 H   0  0  0  0  0  0  0  0  0  0  0  0
  -26.3490  -14.4570   20.1960 C   0  0  0  0  0  0  0  0  0  0  0  0
  -25.2380  -13.7410   20.5450 C   0  0  0  0  0  0  0  0  0  0  0  0
  -25.6420  -12.3700   20.5690 C   0  0  0  0  0  0  0  0  0  0  0  0
  -27.3600  -13.5280   20.0210 N   0  0  0  0  0  0  0  0  0  0  0  0
  -26.9410  -12.2690   20.3120 N   0  0  0  0  0  0  0  0  0  0  0  0
  -24.8520  -11.1470   20.7600 C   0  0  0  0  0  0  0  0  0  0  0  0
  -25.1620  -10.2180   21.7790 C   0  0  0  0  0  3  0  0  0  0  0  0
  -24.3740   -9.0610   21.9550 C   0  0  0  0  0  3  0  0  0  0  0  0
  -23.2610   -8.8220   21.1140 C   0  0  0  0  0  0  0  0  0  0  0  0
  -22.9710   -9.7380   20.0870 C   0  0  0  0  0  3  0  0  0  0  0  0
  -23.7590  -10.8870   19.9080 C   0  0  0  0  0  3  0  0  0  0  0  0
  -22.4550   -7.7130   21.1950 O   0  0  0  0  0  0  0  0  0  0  0  0
  -22.1780   -7.1120   22.3970 C   0  0  0  0  0  0  0  0  0  0  0  0
  -21.6110   -7.8270   23.4740 C   0  0  0  0  0  3  0  0  0  0  0  0
  -21.2770   -7.1550   24.6680 C   0  0  0  0  0  3  0  0  0  0  0  0
  -21.5000   -5.7700   24.7830 C   0  0  0  0  0  0  0  0  0  0  0  0
  -22.0590   -5.0560   23.7090 C   0  0  0  0  0  3  0  0  0  0  0  0
  -22.3940   -5.7250   22.5180 C   0  0  0  0  0  0  0  0  0  0  0  0
  -22.9130   -5.0270   21.4790 F   0  0  0  0  0  0  0  0  0  0  0  0
  -21.1730   -5.1230   25.9260 F   0  0  0  0  0  0  0  0  0  0  0  0
  -23.8540  -14.2860   20.7440 C   0  0  0  0  0  0  0  0  0  0  0  0
  -23.0680  -13.6620   21.6130 N   0  0  0  0  0  0  0  0  0  0  0  0
  -23.4790  -15.3030   20.1610 O   0  0  0  0  0  0  0  0  0  0  0  0
  -23.3830  -12.8400   22.1060 H   0  0  0  0  0  0  0  0  0  0  0  0
  -22.1370  -14.0120   21.7890 H   0  0  0  0  0  0  0  0  0  0  0  0
  -26.5770  -15.8130   19.9820 N   0  0  0  0  0  0  0  0  0  0  0  0
  -25.8190  -16.4850   20.0120 H   0  0  0  0  0  0  0  0  0  0  0  0
  -27.4250  -16.1900   19.5820 H   0  0  0  0  0  0  0  0  0  0  0  0
  -30.0910  -23.7420   20.6310 C   0  0  0  0  0  3  0  0  0  0  0  0
  -28.9940  -24.9780   20.9470 C   0  0  0  0  0  3  0  0  0  0  0  0
  -29.2250  -26.5150   20.8940 O   0  0  0  0  0  0  0  0  0  0  0  0
  -25.1440  -31.9620   23.7200 C   0  0  0  0  0  0  0  0  0  0  0  0
  -28.1320  -27.4450   20.8000 C   0  0  0  0  0  0  0  0  0  0  0  0
  -24.1350  -30.5790   21.9460 C   0  0  0  0  0  3  0  0  0  0  0  0
  -25.7540  -29.0990   20.6100 C   0  0  0  0  0  0  0  0  0  0  0  0
  -26.6820  -30.9390   22.0050 C   0  0  0  0  0  2  0  0  0  0  0  0
  -26.8600  -29.5710   21.3280 C   0  0  0  0  0  0  0  0  0  0  0  0
  -28.0530  -28.7620   21.4040 C   0  0  0  0  0  3  0  0  0  0  0  0
  -27.0030  -27.0730   20.0380 C   0  0  0  0  0  3  0  0  0  0  0  0
  -25.8370  -27.8640   19.9500 C   0  0  0  0  0  3  0  0  0  0  0  0
  -24.4950  -29.9510   20.5740 C   0  0  0  0  0  2  0  0  0  0  0  0
  -25.3350  -31.1800   22.6150 N   0  0  0  0  0  0  0  0  0  0  0  0
  -24.0070  -32.1950   24.1620 O   0  0  0  0  0  0  0  0  0  0  0  0
  -23.4160  -29.5200   22.8180 C   0  0  0  0  0  0  0  0  0  0  0  0
  -22.1060  -29.3190   22.5820 N   0  0  0  0  0  0  0  0  0  0  0  0
  -24.0390  -28.8830   23.6710 O   0  0  0  0  0  0  0  0  0  0  0  0
  -21.6600  -29.8870   21.8750 H   0  0  0  0  0  0  0  0  0  0  0  0
  -18.7160  -28.0690   22.8290 C   0  0  0  0  0  0  0  0  0  0  0  0
  -21.2530  -28.3370   23.2560 C   0  0  0  0  0  3  0  0  0  0  0  0
  -21.4020  -26.9360   22.6160 C   0  0  0  0  0  2  0  0  0  0  0  0
  -20.3650  -26.6600   21.5240 C   0  0  0  0  0  2  0  0  0  0  0  0
  -18.9460  -26.7620   22.0900 C   0  0  0  0  0  2  0  0  0  0  0  0
  -19.8010  -28.8170   23.3620 C   0  0  0  0  0  0  0  0  0  0  0  0
  -19.5340  -30.0420   24.0110 C   0  0  0  0  0  3  0  0  0  0  0  0
  -18.2150  -30.5210   24.1320 C   0  0  0  0  0  3  0  0  0  0  0  0
  -17.1450  -29.7700   23.6150 C   0  0  0  0  0  3  0  0  0  0  0  0
  -17.3970  -28.5460   22.9700 C   0  0  0  0  0  3  0  0  0  0  0  0
  -26.3420  -32.6190   24.4720 C   0  0  0  0  0  3  0  0  0  0  0  0
  -25.9670  -34.0070   24.7830 N   0  0  0  0  0  0  0  0  0  0  0  0
  -26.3080  -35.0740   24.0480 C   0  0  0  0  0  0  0  0  0  0  0  0
  -27.0380  -34.9950   23.0560 O   0  0  0  0  0  0  0  0  0  0  0  0
  -25.3230  -34.1400   25.5500 H   0  0  0  0  0  0  0  0  0  0  0  0
  -24.5260  -36.8020   23.6310 C   0  0  0  0  0  1  0  0  0  0  0  0
  -25.7560  -36.4470   24.4830 C   0  0  0  0  0  3  0  0  0  0  0  0
  -27.8310  -37.4150   25.3700 C   0  0  0  0  0  1  0  0  0  0  0  0
  -26.7520  -37.5380   24.3940 N   0  0  0  0  0  0  0  0  0  0  0  0
  -26.3080  -38.4430   24.5250 H   0  0  0  0  0  0  0  0  0  0  0  0
  -26.7430  -31.8490   25.7900 C   0  0  1  0  0  0  0  0  0  0  0  0
  -25.5490  -31.5530   26.7270 C   0  0  0  0  0  1  0  0  0  0  0  0
  -27.4210  -30.5010   25.4540 C   0  0  0  0  0  1  0  0  0  0  0  0
  -27.7820  -32.6770   26.5840 C   0  0  0  0  0  1  0  0  0  0  0  0
  2  7  1  0
  3  7  1  0
  4  2  1  0
  4  1  1  0
  5 14  1  0
  5  3  1  0
  5  6  1  0
  6  8  1  0
  6  4  1  0
  7 53  1  1
  7  1  1  0
  8  9  1  0
  9 11  2  0
 10 13  1  0
 10  9  1  0
 12 10  1  0
 14 23  1  0
 15 21  1  0
 15 23  1  0
 16 21  1  0
 17 18  1  0
 17 16  1  0
 19 18  1  0
 19 28  1  0
 19 20  1  0
 21 20  1  0
 22 15  2  0
 23 24  1  0
 25 26  2  0
 26 27  1  0
 26 45  1  0
 27 30  1  0
 28 25  1  0
 28 29  1  0
 29 27  2  0
 30 31  1  0
 31 32  2  0
 33 36  1  0
 33 32  1  0
 34 33  2  0
 35 34  1  0
 35 30  2  0
 36 37  1  0
 37 42  2  0
 37 38  1  0
 38 39  2  0
 39 40  1  0
 40 44  1  0
 41 40  2  0
 42 41  1  0
 43 42  1  0
 45 46  1  0
 46 49  1  0
 46 48  1  0
 47 45  2  0
 50 51  1  0
 50 25  1  0
 52 50  1  0
 53 54  2  0
 55 54  1  0
 56 67  2  0
 57 55  1  0
 57 62  1  0
 58 66  1  0
 58 68  1  0
 59 61  1  0
 60 66  1  0
 61 62  2  0
 61 60  1  0
 63 57  2  0
 64 63  1  0
 64 59  2  0
 65 59  1  0
 65 58  1  0
 66 56  1  0
 68 70  2  0
 69 68  1  0
 71 69  1  0
 72 81  2  0
 72 77  1  0
 73 69  1  0
 73 77  1  0
 74 73  1  0
 75 76  1  0
 75 74  1  0
 76 72  1  0
 77 78  2  0
 78 79  1  0
 80 79  2  0
 81 80  1  0
 82 56  1  0
 82 83  1  0
 82 92  1  0
 83 86  1  0
 84 88  1  0
 84 83  1  0
 85 84  2  0
 88 87  1  0
 90 88  1  0
 90 91  1  0
 90 89  1  0
 92 95  1  1
 92 93  1  0
 94 92  1  0
M  ISO  4  15 100  23 100  54 101  55 101
M  END
>  <TORSDO>  (23) 
F 21

>  <SCORE>  (23) 
-10.242

>  <name>  (23) 
22

>  <ligand_id>  (23) 
22

>  <original_smiles>  (23) 
[H]c1c([H])c([H])c2c(c1[H])C([H])([H])C([H])([H])C([H])([H])C2([H])N([H])C(=O)C1([H])N(C(=O)C([H])(N([H])C(=O)C([H])(N([H])C([H])([H])[H])C([H])([H])[H])C(C([H])([H])[H])(C([H])([H])[H])C([H])([H])[H])C([H])([H])c2c([H])c(OC([H])([H])C([H])([H])C34C([H])([H])C([H])(C([H])([H])N([H])C(=O)N5C([H])([H])C([H])([H])C([H])([H])C([H])(n6nc(-c7c([H])c([H])c(Oc8c([H])c([H])c(F)c([H])c8F)c([H])c7[H])c(C(=O)N([H])[H])c6N([H])[H])C5([H])[H])C([H])(C([H])([H])C(=O)N([H])[H])C([H])(C3([H])[H])C4([H])[H])c([H])c([H])c2C1([H])[H]

>  <smiles>  (23) 
[H]c1c([H])c([H])c2c(c1[H])C([H])([H])C([H])([H])C([H])([H])C2([H])N([H])C(=O)C1([H])N(C(=O)C([H])(N([H])C(=O)C([H])(N([H])C([H])([H])[H])C([H])([H])[H])C(C([H])([H])[H])(C([H])([H])[H])C([H])([H])[H])C([H])([H])c2c([H])c(OC([H])([H])C([H])([H])C34C([H])([H])C([H])(C([H])([H])N([H])C(=O)N5C([H])([H])C([H])([H])C([H])([H])C([H])(n6nc(-c7c([H])c([H])c(Oc8c([H])c([H])c(F)c([H])c8F)c([H])c7[H])c(C(=O)N([H])[H])c6N([H])[H])C5([H])[H])C([H])(C([H])([H])C(=O)N([H])[H])C([H])(C3([H])[H])C4([H])[H])c([H])c([H])c2C1([H])[H]

$$$$
23:0:0
     RDKit          3D

 95103  0  0  1  0  0  0  0  0999 V2000
  -31.1890  -19.7570   19.8570 C   0  0  0  0  0  2  0  0  0  0  0  0
  -31.4980  -21.2420   19.5410 C   0  0  0  0  0  2  0  0  0  0  0  0
  -29.2650  -21.1250   18.4980 C   0  0  0  0  0  2  0  0  0  0  0  0
  -28.6670  -20.2520   19.6300 C   0  0  0  0  0  3  0  0  0  0  0  0
  -29.7650  -19.3960   20.3880 C   0  0  2  0  0  0  0  0  0  0  0  0
  -30.3190  -22.0060   19.0570 N   0  0  2  0  0  4  0  0  0  0  0  0
  -29.8960  -22.3970   19.8820 H   0  0  0  0  0  0  0  0  0  0  0  0
  -29.8670  -21.0470   22.4810 C   0  0  0  0  0  1  0  0  0  0  0  0
  -29.6460  -19.6260   21.9290 C   0  0  0  0  0  2  0  0  0  0  0  0
  -26.3780  -20.3560   18.4080 C   0  0  0  0  0  1  0  0  0  0  0  0
  -27.3880  -19.4940   19.1860 C   0  0  0  0  0  2  0  0  0  0  0  0
  -29.5590  -17.8550   20.1420 C   0  0  0  0  0  2  0  0  0  0  0  0
  -30.7540  -16.9180   20.4460 C   0  0  0  0  0  2  0  0  0  0  0  0
  -30.9610  -14.4980   19.9220 C   0  0  0  0  0  0  0  0  0  0  0  0
  -30.6200  -12.2500   18.9800 C   0  0  0  0  0  2  0  0  0  0  0  0
  -29.6250  -12.3410   17.8070 C   0  0  0  0  0  2  0  0  0  0  0  0
  -28.1720  -12.2400   18.3150 C   0  0  0  0  0  2  0  0  0  0  0  0
  -27.8850  -13.1970   19.5030 C   0  0  0  0  0  3  0  0  0  0  0  0
  -28.9860  -13.0750   20.5800 C   0  0  0  0  0  2  0  0  0  0  0  0
  -30.2870  -13.3200   19.9310 N   0  0  0  0  0  0  0  0  0  0  0  0
  -32.0240  -14.6670   19.3180 O   0  0  0  0  0  0  0  0  0  0  0  0
  -30.3330  -15.5190   20.5230 N   0  0  0  0  0  0  0  0  0  0  0  0
  -29.4660  -15.3080   20.9920 H   0  0  0  0  0  0  0  0  0  0  0  0
  -25.5740  -13.8840   20.4040 C   0  0  0  0  0  0  0  0  0  0  0  0
  -24.5010  -13.1450   20.8230 C   0  0  0  0  0  0  0  0  0  0  0  0
  -24.8950  -11.7770   20.7080 C   0  0  0  0  0  0  0  0  0  0  0  0
  -26.5570  -12.9680   20.0640 N   0  0  0  0  0  0  0  0  0  0  0  0
  -26.1550  -11.6930   20.3020 N   0  0  0  0  0  0  0  0  0  0  0  0
  -24.1270  -10.5400   20.9060 C   0  0  0  0  0  0  0  0  0  0  0  0
  -24.5610   -9.5370   21.8020 C   0  0  0  0  0  3  0  0  0  0  0  0
  -23.7960   -8.3660   21.9880 C   0  0  0  0  0  3  0  0  0  0  0  0
  -22.5860   -8.1870   21.2790 C   0  0  0  0  0  0  0  0  0  0  0  0
  -22.1700   -9.1780   20.3710 C   0  0  0  0  0  3  0  0  0  0  0  0
  -22.9340  -10.3420   20.1830 C   0  0  0  0  0  3  0  0  0  0  0  0
  -21.7910   -7.0710   21.3760 O   0  0  0  0  0  0  0  0  0  0  0  0
  -21.7430   -6.3210   22.5220 C   0  0  0  0  0  0  0  0  0  0  0  0
  -21.3600   -6.8780   23.7620 C   0  0  0  0  0  3  0  0  0  0  0  0
  -21.2570   -6.0560   24.9010 C   0  0  0  0  0  3  0  0  0  0  0  0
  -21.5250   -4.6770   24.8030 C   0  0  0  0  0  0  0  0  0  0  0  0
  -21.9000   -4.1190   23.5680 C   0  0  0  0  0  3  0  0  0  0  0  0
  -22.0060   -4.9380   22.4300 C   0  0  0  0  0  0  0  0  0  0  0  0
  -22.3470   -4.3930   21.2380 F   0  0  0  0  0  0  0  0  0  0  0  0
  -21.4180   -3.8830   25.8950 F   0  0  0  0  0  0  0  0  0  0  0  0
  -23.1490  -13.6700   21.2160 C   0  0  0  0  0  0  0  0  0  0  0  0
  -22.4650  -12.9820   22.1230 N   0  0  0  0  0  0  0  0  0  0  0  0
  -22.7160  -14.7260   20.7580 O   0  0  0  0  0  0  0  0  0  0  0  0
  -22.8300  -12.1270   22.5160 H   0  0  0  0  0  0  0  0  0  0  0  0
  -21.5600  -13.3150   22.4280 H   0  0  0  0  0  0  0  0  0  0  0  0
  -25.7910  -15.2510   20.2660 N   0  0  0  0  0  0  0  0  0  0  0  0
  -25.0670  -15.9350   20.4580 H   0  0  0  0  0  0  0  0  0  0  0  0
  -26.6400  -15.6640   19.9030 H   0  0  0  0  0  0  0  0  0  0  0  0
  -30.6540  -23.1850   18.2040 C   0  0  0  0  0  2  0  0  0  0  0  0
  -30.6570  -24.5280   18.9890 C   0  0  0  0  0  2  0  0  0  0  0  0
  -29.4500  -25.4090   18.6190 C   0  0  0  0  0  2  0  0  0  0  0  0
  -29.3760  -26.6950   19.2670 O   0  0  0  0  0  0  0  0  0  0  0  0
  -24.8940  -30.9360   22.8920 C   0  0  0  0  0  0  0  0  0  0  0  0
  -28.1190  -27.2830   19.3280 C   0  0  0  0  0  0  0  0  0  0  0  0
  -23.8960  -29.6040   21.0690 C   0  0  0  0  0  3  0  0  0  0  0  0
  -25.5450  -28.4710   19.4950 C   0  0  0  0  0  0  0  0  0  0  0  0
  -26.3600  -30.3060   20.9730 C   0  0  0  0  0  2  0  0  0  0  0  0
  -26.6280  -29.0510   20.1670 C   0  0  0  0  0  0  0  0  0  0  0  0
  -27.9170  -28.4630   20.0880 C   0  0  0  0  0  3  0  0  0  0  0  0
  -27.0020  -26.7300   18.6520 C   0  0  0  0  0  3  0  0  0  0  0  0
  -25.7270  -27.3060   18.7390 C   0  0  0  0  0  3  0  0  0  0  0  0
  -24.1990  -29.1450   19.6210 C   0  0  0  0  0  2  0  0  0  0  0  0
  -25.0670  -30.2920   21.7040 N   0  0  0  0  0  0  0  0  0  0  0  0
  -23.7820  -30.9950   23.4350 O   0  0  0  0  0  0  0  0  0  0  0  0
  -23.3850  -28.3890   21.8780 C   0  0  0  0  0  0  0  0  0  0  0  0
  -22.0970  -28.0480   21.6990 N   0  0  0  0  0  0  0  0  0  0  0  0
  -24.1420  -27.7630   22.6240 O   0  0  0  0  0  0  0  0  0  0  0  0
  -21.5410  -28.6210   21.0810 H   0  0  0  0  0  0  0  0  0  0  0  0
  -18.9110  -26.3630   21.9680 C   0  0  0  0  0  0  0  0  0  0  0  0
  -21.4100  -26.9210   22.3280 C   0  0  0  0  0  3  0  0  0  0  0  0
  -21.7070  -25.5990   21.5830 C   0  0  0  0  0  2  0  0  0  0  0  0
  -20.6640  -25.2630   20.5120 C   0  0  0  0  0  2  0  0  0  0  0  0
  -19.2720  -25.1420   21.1370 C   0  0  0  0  0  2  0  0  0  0  0  0
  -19.9160  -27.2060   22.5130 C   0  0  0  0  0  0  0  0  0  0  0  0
  -19.5260  -28.3470   23.2470 C   0  0  0  0  0  3  0  0  0  0  0  0
  -18.1640  -28.6470   23.4420 C   0  0  0  0  0  3  0  0  0  0  0  0
  -17.1750  -27.8020   22.9120 C   0  0  0  0  0  3  0  0  0  0  0  0
  -17.5490  -26.6600   22.1800 C   0  0  0  0  0  3  0  0  0  0  0  0
  -26.0790  -31.6490   23.6150 C   0  0  0  0  0  3  0  0  0  0  0  0
  -25.5930  -32.9610   24.0620 N   0  0  0  0  0  0  0  0  0  0  0  0
  -25.8480  -34.1190   23.4400 C   0  0  0  0  0  0  0  0  0  0  0  0
  -26.5850  -34.2010   22.4530 O   0  0  0  0  0  0  0  0  0  0  0  0
  -24.9350  -32.9630   24.8270 H   0  0  0  0  0  0  0  0  0  0  0  0
  -23.9470  -35.7410   23.1530 C   0  0  0  0  0  1  0  0  0  0  0  0
  -25.1800  -35.3890   24.0000 C   0  0  0  0  0  3  0  0  0  0  0  0
  -27.1500  -36.4080   25.0520 C   0  0  0  0  0  1  0  0  0  0  0  0
  -26.0890  -36.5540   24.0600 N   0  0  0  0  0  0  0  0  0  0  0  0
  -25.5730  -37.4040   24.2690 H   0  0  0  0  0  0  0  0  0  0  0  0
  -26.6530  -30.8210   24.8290 C   0  0  1  0  0  0  0  0  0  0  0  0
  -25.5710  -30.3640   25.8360 C   0  0  0  0  0  1  0  0  0  0  0  0
  -27.3980  -29.5630   24.3270 C   0  0  0  0  0  1  0  0  0  0  0  0
  -27.6880  -31.6760   25.5990 C   0  0  0  0  0  1  0  0  0  0  0  0
  1  5  1  0
  2  1  1  0
  3  6  1  0
  3  4  1  0
  4 11  1  0
  4  5  1  0
  5 12  1  1
  5  9  1  0
  6  2  1  0
  6  7  1  1
  9  8  1  0
 10 11  1  0
 12 13  1  0
 13 22  1  0
 14 20  1  0
 14 22  1  0
 15 20  1  0
 16 17  1  0
 16 15  1  0
 18 17  1  0
 18 27  1  0
 18 19  1  0
 20 19  1  0
 21 14  2  0
 22 23  1  0
 24 25  2  0
 25 44  1  0
 26 25  1  0
 26 29  1  0
 27 28  1  0
 27 24  1  0
 28 26  2  0
 29 30  1  0
 30 31  2  0
 32 35  1  0
 32 31  1  0
 33 32  2  0
 34 33  1  0
 34 29  2  0
 35 36  1  0
 36 37  1  0
 37 38  2  0
 39 38  1  0
 39 43  1  0
 40 39  2  0
 41 36  2  0
 41 40  1  0
 42 41  1  0
 44 45  1  0
 45 48  1  0
 45 47  1  0
 46 44  2  0
 49 24  1  0
 49 50  1  0
 51 49  1  0
 52 53  1  0
 52  6  1  0
 54 53  1  0
 54 55  1  0
 55 57  1  0
 56 67  2  0
 57 62  1  0
 58 66  1  0
 58 68  1  0
 59 65  1  0
 59 61  1  0
 60 66  1  0
 61 60  1  0
 62 61  2  0
 63 64  1  0
 63 57  2  0
 64 59  2  0
 65 58  1  0
 66 56  1  0
 68 70  2  0
 69 68  1  0
 71 69  1  0
 72 81  2  0
 72 77  1  0
 73 69  1  0
 73 77  1  0
 74 73  1  0
 75 76  1  0
 75 74  1  0
 76 72  1  0
 77 78  2  0
 78 79  1  0
 80 79  2  0
 81 80  1  0
 82 56  1  0
 82 83  1  0
 82 92  1  0
 83 86  1  0
 84 88  1  0
 84 83  1  0
 85 84  2  0
 88 87  1  0
 88 90  1  0
 90 91  1  0
 90 89  1  0
 92 95  1  1
 92 93  1  0
 94 92  1  0
M  ISO  4  14 100  22 100  54 101  55 101
M  END
>  <TORSDO>  (24) 
F 23

>  <SCORE>  (24) 
-9.565

>  <name>  (24) 
23

>  <ligand_id>  (24) 
23

>  <original_smiles>  (24) 
[H]c1c([H])c([H])c2c(c1[H])C([H])([H])C([H])([H])C([H])([H])C2([H])N([H])C(=O)C1([H])N(C(=O)C([H])(N([H])C(=O)C([H])(N([H])C([H])([H])[H])C([H])([H])[H])C(C([H])([H])[H])(C([H])([H])[H])C([H])([H])[H])C([H])([H])c2c([H])c(OC([H])([H])C([H])([H])C([H])([H])[N+]3([H])C([H])([H])C([H])([H])C(C([H])([H])C([H])([H])[H])(C([H])([H])C([H])([H])N([H])C(=O)N4C([H])([H])C([H])([H])C([H])([H])C([H])(n5nc(-c6c([H])c([H])c(Oc7c([H])c([H])c(F)c([H])c7F)c([H])c6[H])c(C(=O)N([H])[H])c5N([H])[H])C4([H])[H])C([H])(C([H])([H])C([H])([H])[H])C3([H])[H])c([H])c([H])c2C1([H])[H]

>  <smiles>  (24) 
[H]c1c([H])c([H])c2c(c1[H])C([H])([H])C([H])([H])C([H])([H])C2([H])N([H])C(=O)C1([H])N(C(=O)C([H])(N([H])C(=O)C([H])(N([H])C([H])([H])[H])C([H])([H])[H])C(C([H])([H])[H])(C([H])([H])[H])C([H])([H])[H])C([H])([H])c2c([H])c(OC([H])([H])C([H])([H])C([H])([H])[N+]3([H])C([H])([H])C([H])([H])C(C([H])([H])C([H])([H])[H])(C([H])([H])C([H])([H])N([H])C(=O)N4C([H])([H])C([H])([H])C([H])([H])C([H])(n5nc(-c6c([H])c([H])c(Oc7c([H])c([H])c(F)c([H])c7F)c([H])c6[H])c(C(=O)N([H])[H])c5N([H])[H])C4([H])[H])C([H])(C([H])([H])C([H])([H])[H])C3([H])[H])c([H])c([H])c2C1([H])[H]

$$$$
24:0:0
     RDKit          3D

 90 98  0  0  1  0  0  0  0  0999 V2000
  -28.3110  -21.2280   21.7640 C   0  0  0  0  0  2  0  0  0  0  0  0
  -28.5520  -22.3130   20.7090 C   0  0  0  0  0  2  0  0  0  0  0  0
  -28.5610  -19.8180   21.1990 C   0  0  0  0  0  2  0  0  0  0  0  0
  -30.2590  -20.7920   19.5930 C   0  0  0  0  0  2  0  0  0  0  0  0
  -29.9900  -22.2290   20.1650 C   0  0  0  0  0  3  0  0  0  0  0  0
  -29.9920  -19.6430   20.6300 C   0  0  0  0  0  3  0  0  0  0  0  0
  -30.2350  -23.4030   19.1730 C   0  0  0  0  0  2  0  0  0  0  0  0
  -30.1200  -24.8320   19.8020 C   0  0  0  0  0  2  0  0  0  0  0  0
  -28.8850  -25.6510   19.3460 C   0  0  0  0  0  2  0  0  0  0  0  0
  -28.7600  -26.9240   20.0020 O   0  0  0  0  0  0  0  0  0  0  0  0
  -24.6430  -31.7910   23.1770 C   0  0  0  0  0  0  0  0  0  0  0  0
  -27.5340  -27.5730   19.9830 C   0  0  0  0  0  0  0  0  0  0  0  0
  -23.5190  -30.3950   21.4700 C   0  0  0  0  0  3  0  0  0  0  0  0
  -25.0620  -28.9800   20.0070 C   0  0  0  0  0  0  0  0  0  0  0  0
  -26.0290  -30.8610   21.3320 C   0  0  0  0  0  2  0  0  0  0  0  0
  -26.1840  -29.5190   20.6490 C   0  0  0  0  0  0  0  0  0  0  0  0
  -27.4130  -28.8210   20.6460 C   0  0  0  0  0  3  0  0  0  0  0  0
  -26.3880  -27.0570   19.3240 C   0  0  0  0  0  3  0  0  0  0  0  0
  -25.1630  -27.7500   19.3400 C   0  0  0  0  0  3  0  0  0  0  0  0
  -23.7740  -29.7670   20.0720 C   0  0  0  0  0  2  0  0  0  0  0  0
  -24.7460  -31.0320   22.0490 N   0  0  0  0  0  0  0  0  0  0  0  0
  -23.5450  -32.0010   23.7080 O   0  0  0  0  0  0  0  0  0  0  0  0
  -22.9040  -29.3150   22.3860 C   0  0  0  0  0  0  0  0  0  0  0  0
  -21.5940  -29.0650   22.2170 N   0  0  0  0  0  0  0  0  0  0  0  0
  -23.6000  -28.7050   23.2010 O   0  0  0  0  0  0  0  0  0  0  0  0
  -21.1000  -29.6090   21.5250 H   0  0  0  0  0  0  0  0  0  0  0  0
  -18.2770  -27.6850   22.6000 C   0  0  0  0  0  0  0  0  0  0  0  0
  -20.8110  -28.0650   22.9370 C   0  0  0  0  0  3  0  0  0  0  0  0
  -20.9990  -26.6600   22.3220 C   0  0  0  0  0  2  0  0  0  0  0  0
  -19.9390  -26.3170   21.2720 C   0  0  0  0  0  2  0  0  0  0  0  0
  -18.5370  -26.3700   21.8850 C   0  0  0  0  0  2  0  0  0  0  0  0
  -19.3440  -28.4890   23.0790 C   0  0  0  0  0  0  0  0  0  0  0  0
  -19.0520  -29.7210   23.7040 C   0  0  0  0  0  3  0  0  0  0  0  0
  -17.7200  -30.1530   23.8510 C   0  0  0  0  0  3  0  0  0  0  0  0
  -16.6650  -29.3460   23.3900 C   0  0  0  0  0  3  0  0  0  0  0  0
  -16.9440  -28.1140   22.7700 C   0  0  0  0  0  3  0  0  0  0  0  0
  -25.8970  -32.4490   23.8340 C   0  0  0  0  0  3  0  0  0  0  0  0
  -25.5450  -33.8380   24.1580 N   0  0  0  0  0  0  0  0  0  0  0  0
  -25.8820  -34.9000   23.4130 C   0  0  0  0  0  0  0  0  0  0  0  0
  -26.5970  -34.8160   22.4110 O   0  0  0  0  0  0  0  0  0  0  0  0
  -24.9040  -33.9710   24.9270 H   0  0  0  0  0  0  0  0  0  0  0  0
  -24.1320  -36.6550   22.9970 C   0  0  0  0  0  1  0  0  0  0  0  0
  -25.3470  -36.2740   23.8550 C   0  0  0  0  0  3  0  0  0  0  0  0
  -27.4240  -37.2030   24.7820 C   0  0  0  0  0  1  0  0  0  0  0  0
  -26.3630  -37.3480   23.7880 N   0  0  0  0  0  0  0  0  0  0  0  0
  -25.9320  -38.2610   23.9200 H   0  0  0  0  0  0  0  0  0  0  0  0
  -26.3980  -31.6870   25.1240 C   0  0  1  0  0  0  0  0  0  0  0  0
  -25.2770  -31.3990   26.1520 C   0  0  0  0  0  1  0  0  0  0  0  0
  -27.0410  -30.3320   24.7430 C   0  0  0  0  0  1  0  0  0  0  0  0
  -27.4980  -32.5170   25.8290 C   0  0  0  0  0  1  0  0  0  0  0  0
  -30.1900  -18.1780   20.0860 C   0  0  0  0  0  2  0  0  0  0  0  0
  -30.6190  -17.1070   21.1460 C   0  0  0  0  0  2  0  0  0  0  0  0
  -30.9880  -14.7460   20.1680 C   0  0  0  0  0  0  0  0  0  0  0  0
  -30.6820  -12.6020   18.9550 C   0  0  0  0  0  2  0  0  0  0  0  0
  -29.6960  -12.8110   17.7870 C   0  0  0  0  0  2  0  0  0  0  0  0
  -28.2360  -12.6790   18.2660 C   0  0  0  0  0  2  0  0  0  0  0  0
  -27.9470  -13.5010   19.5480 C   0  0  0  0  0  3  0  0  0  0  0  0
  -29.0280  -13.2280   20.6140 C   0  0  0  0  0  2  0  0  0  0  0  0
  -30.3330  -13.5600   20.0180 N   0  0  0  0  0  0  0  0  0  0  0  0
  -32.0940  -14.9650   19.6620 O   0  0  0  0  0  0  0  0  0  0  0  0
  -30.2800  -15.7060   20.8070 N   0  0  0  0  0  0  0  0  0  0  0  0
  -29.3870  -15.3890   21.1570 H   0  0  0  0  0  0  0  0  0  0  0  0
  -25.5820  -14.1480   20.3310 C   0  0  0  0  0  0  0  0  0  0  0  0
  -24.5130  -13.3950   20.7260 C   0  0  0  0  0  0  0  0  0  0  0  0
  -24.9470  -12.0350   20.6740 C   0  0  0  0  0  0  0  0  0  0  0  0
  -26.6030  -13.2510   20.0630 N   0  0  0  0  0  0  0  0  0  0  0  0
  -26.2260  -11.9730   20.3230 N   0  0  0  0  0  0  0  0  0  0  0  0
  -24.2050  -10.7860   20.8800 C   0  0  0  0  0  0  0  0  0  0  0  0
  -24.6030   -9.8400   21.8490 C   0  0  0  0  0  3  0  0  0  0  0  0
  -23.8640   -8.6550   22.0410 C   0  0  0  0  0  3  0  0  0  0  0  0
  -22.7090   -8.4050   21.2630 C   0  0  0  0  0  0  0  0  0  0  0  0
  -22.3280   -9.3390   20.2810 C   0  0  0  0  0  3  0  0  0  0  0  0
  -23.0710  -10.5170   20.0880 C   0  0  0  0  0  3  0  0  0  0  0  0
  -21.9420   -7.2700   21.3620 O   0  0  0  0  0  0  0  0  0  0  0  0
  -21.7990   -6.6000   22.5500 C   0  0  0  0  0  0  0  0  0  0  0  0
  -21.2530   -7.2200   23.6960 C   0  0  0  0  0  3  0  0  0  0  0  0
  -21.0600   -6.4750   24.8750 C   0  0  0  0  0  3  0  0  0  0  0  0
  -21.4030   -5.1090   24.9110 C   0  0  0  0  0  0  0  0  0  0  0  0
  -21.9410   -4.4890   23.7700 C   0  0  0  0  0  3  0  0  0  0  0  0
  -22.1370   -5.2320   22.5930 C   0  0  0  0  0  0  0  0  0  0  0  0
  -22.6370   -4.6240   21.4890 F   0  0  0  0  0  0  0  0  0  0  0  0
  -21.2090   -4.3890   26.0410 F   0  0  0  0  0  0  0  0  0  0  0  0
  -23.1330  -13.8930   21.0470 C   0  0  0  0  0  0  0  0  0  0  0  0
  -22.4280  -13.2120   21.9390 N   0  0  0  0  0  0  0  0  0  0  0  0
  -22.6940  -14.9270   20.5390 O   0  0  0  0  0  0  0  0  0  0  0  0
  -22.7990  -12.3750   22.3690 H   0  0  0  0  0  0  0  0  0  0  0  0
  -21.5030  -13.5260   22.1980 H   0  0  0  0  0  0  0  0  0  0  0  0
  -25.7680  -15.5180   20.1610 N   0  0  0  0  0  0  0  0  0  0  0  0
  -25.0140  -16.1820   20.3000 H   0  0  0  0  0  0  0  0  0  0  0  0
  -26.6160  -15.9500   19.8160 H   0  0  0  0  0  0  0  0  0  0  0  0
  2  1  1  0
  3  1  1  0
  4  5  1  0
  4  6  1  0
  5  7  1  0
  5  2  1  0
  6 51  1  0
  6  3  1  0
  7  8  1  0
  9  8  1  0
  9 10  1  0
 11 22  2  0
 12 10  1  0
 12 17  1  0
 13 21  1  0
 13 23  1  0
 14 20  1  0
 14 16  1  0
 15 21  1  0
 16 15  1  0
 17 16  2  0
 18 19  1  0
 18 12  2  0
 19 14  2  0
 20 13  1  0
 21 11  1  0
 23 25  2  0
 24 23  1  0
 26 24  1  0
 27 36  2  0
 27 32  1  0
 28 24  1  0
 28 32  1  0
 29 28  1  0
 30 31  1  0
 30 29  1  0
 31 27  1  0
 32 33  2  0
 33 34  1  0
 35 34  2  0
 36 35  1  0
 37 11  1  0
 37 38  1  0
 37 47  1  0
 38 41  1  0
 39 43  1  0
 39 38  1  0
 40 39  2  0
 43 42  1  0
 45 43  1  0
 45 46  1  0
 45 44  1  0
 47 50  1  1
 47 48  1  0
 49 47  1  0
 51 52  1  0
 53 61  1  0
 54 59  1  0
 55 56  1  0
 55 54  1  0
 57 56  1  0
 57 66  1  0
 57 58  1  0
 59 53  1  0
 59 58  1  0
 60 53  2  0
 61 52  1  0
 61 62  1  0
 63 64  2  0
 64 83  1  0
 65 64  1  0
 65 68  1  0
 66 67  1  0
 66 63  1  0
 67 65  2  0
 68 69  1  0
 69 70  2  0
 71 74  1  0
 71 70  1  0
 72 71  2  0
 73 72  1  0
 73 68  2  0
 74 75  1  0
 75 80  2  0
 75 76  1  0
 76 77  2  0
 77 78  1  0
 78 82  1  0
 79 78  2  0
 80 79  1  0
 81 80  1  0
 83 84  1  0
 84 87  1  0
 84 86  1  0
 85 83  2  0
 88 89  1  0
 88 63  1  0
 90 88  1  0
M  ISO  4   9 101  10 101  53 100  61 100
M  END
>  <TORSDO>  (25) 
F 21

>  <SCORE>  (25) 
-12.156

>  <name>  (25) 
24

>  <ligand_id>  (25) 
24

>  <original_smiles>  (25) 
[H]c1c([H])c([H])c2c(c1[H])C([H])([H])C([H])([H])C([H])([H])C2([H])N([H])C(=O)C1([H])N(C(=O)C([H])(N([H])C(=O)C([H])(N([H])C([H])([H])[H])C([H])([H])[H])C(C([H])([H])[H])(C([H])([H])[H])C([H])([H])[H])C([H])([H])c2c([H])c(OC([H])([H])C([H])([H])C([H])([H])C3([H])C([H])([H])C([H])([H])C([H])([H])C([H])(C([H])([H])C([H])([H])N([H])C(=O)N4C([H])([H])C([H])([H])C([H])([H])C([H])(n5nc(-c6c([H])c([H])c(Oc7c([H])c([H])c(F)c([H])c7F)c([H])c6[H])c(C(=O)N([H])[H])c5N([H])[H])C4([H])[H])C3([H])[H])c([H])c([H])c2C1([H])[H]

>  <smiles>  (25) 
[H]c1c([H])c([H])c2c(c1[H])C([H])([H])C([H])([H])C([H])([H])C2([H])N([H])C(=O)C1([H])N(C(=O)C([H])(N([H])C(=O)C([H])(N([H])C([H])([H])[H])C([H])([H])[H])C(C([H])([H])[H])(C([H])([H])[H])C([H])([H])[H])C([H])([H])c2c([H])c(OC([H])([H])C([H])([H])C([H])([H])C3([H])C([H])([H])C([H])([H])C([H])([H])C([H])(C([H])([H])C([H])([H])N([H])C(=O)N4C([H])([H])C([H])([H])C([H])([H])C([H])(n5nc(-c6c([H])c([H])c(Oc7c([H])c([H])c(F)c([H])c7F)c([H])c6[H])c(C(=O)N([H])[H])c5N([H])[H])C4([H])[H])C3([H])[H])c([H])c([H])c2C1([H])[H]

$$$$
25:0:0
     RDKit          3D

 96104  0  0  1  0  0  0  0  0999 V2000
  -29.2520  -22.9210   21.0360 C   0  0  0  0  0  2  0  0  0  0  0  0
  -27.5830  -21.9900   19.3360 C   0  0  0  0  0  2  0  0  0  0  0  0
  -30.1120  -21.8090   20.4150 C   0  0  0  0  0  2  0  0  0  0  0  0
  -27.8950  -20.6300   19.9920 C   0  0  0  0  0  2  0  0  0  0  0  0
  -27.9270  -23.1760   20.2700 C   0  0  0  0  0  3  0  0  0  0  0  0
  -29.4060  -20.4180   20.3350 C   0  0  2  0  0  0  0  0  0  0  0  0
  -29.4720  -19.6700   21.7130 C   0  0  0  0  0  2  0  0  0  0  0  0
  -30.7850  -19.7260   22.5140 C   0  0  0  0  0  0  0  0  0  0  0  0
  -30.7620  -19.2820   23.7680 N   0  0  0  0  0  0  0  0  0  0  0  0
  -31.8320  -20.1350   22.0180 O   0  0  0  0  0  0  0  0  0  0  0  0
  -29.9020  -18.9500   24.1810 H   0  0  0  0  0  0  0  0  0  0  0  0
  -31.6040  -19.2710   24.3270 H   0  0  0  0  0  0  0  0  0  0  0  0
  -27.8600  -24.5350   19.5210 C   0  0  0  0  0  2  0  0  0  0  0  0
  -27.6580  -25.7660   20.4330 C   0  0  0  0  0  2  0  0  0  0  0  0
  -27.7810  -27.0110   19.7340 O   0  0  0  0  0  0  0  0  0  0  0  0
  -24.5960  -32.1210   23.5130 C   0  0  0  0  0  0  0  0  0  0  0  0
  -26.6780  -27.8160   19.8770 C   0  0  0  0  0  0  0  0  0  0  0  0
  -23.1540  -30.8850   21.9280 C   0  0  0  0  0  3  0  0  0  0  0  0
  -24.3730  -29.3980   20.2510 C   0  0  0  0  0  0  0  0  0  0  0  0
  -25.6580  -31.1640   21.4730 C   0  0  0  0  0  2  0  0  0  0  0  0
  -25.6110  -29.8390   20.7380 C   0  0  0  0  0  0  0  0  0  0  0  0
  -26.7720  -29.0580   20.5400 C   0  0  0  0  0  3  0  0  0  0  0  0
  -25.4280  -27.3900   19.3780 C   0  0  0  0  0  3  0  0  0  0  0  0
  -24.2760  -28.1750   19.5640 C   0  0  0  0  0  3  0  0  0  0  0  0
  -23.1800  -30.2970   20.4900 C   0  0  0  0  0  2  0  0  0  0  0  0
  -24.4930  -31.3990   22.3610 N   0  0  0  0  0  0  0  0  0  0  0  0
  -23.5950  -32.4000   24.1850 O   0  0  0  0  0  0  0  0  0  0  0  0
  -22.5610  -29.8270   22.8870 C   0  0  0  0  0  0  0  0  0  0  0  0
  -21.2670  -29.5130   22.7050 N   0  0  0  0  0  0  0  0  0  0  0  0
  -23.2620  -29.2920   23.7480 O   0  0  0  0  0  0  0  0  0  0  0  0
  -20.7650  -29.9950   21.9710 H   0  0  0  0  0  0  0  0  0  0  0  0
  -18.0890  -27.8070   22.8880 C   0  0  0  0  0  0  0  0  0  0  0  0
  -20.5050  -28.5210   23.4650 C   0  0  0  0  0  3  0  0  0  0  0  0
  -20.9140  -27.0820   23.0730 C   0  0  0  0  0  2  0  0  0  0  0  0
  -20.0410  -26.4900   21.9590 C   0  0  0  0  0  2  0  0  0  0  0  0
  -18.5710  -26.4540   22.3860 C   0  0  0  0  0  2  0  0  0  0  0  0
  -18.9980  -28.7820   23.3770 C   0  0  0  0  0  0  0  0  0  0  0  0
  -18.4980  -30.0370   23.7920 C   0  0  0  0  0  3  0  0  0  0  0  0
  -17.1200  -30.3190   23.7310 C   0  0  0  0  0  3  0  0  0  0  0  0
  -16.2230  -29.3430   23.2630 C   0  0  0  0  0  3  0  0  0  0  0  0
  -16.7090  -28.0900   22.8450 C   0  0  0  0  0  3  0  0  0  0  0  0
  -25.9720  -32.6520   24.0270 C   0  0  0  0  0  3  0  0  0  0  0  0
  -25.8050  -34.0740   24.3500 N   0  0  0  0  0  0  0  0  0  0  0  0
  -26.1940  -35.0830   23.5580 C   0  0  0  0  0  0  0  0  0  0  0  0
  -26.8040  -34.9090   22.4990 O   0  0  0  0  0  0  0  0  0  0  0  0
  -25.2620  -34.2900   25.1720 H   0  0  0  0  0  0  0  0  0  0  0  0
  -24.6200  -37.0190   23.2410 C   0  0  0  0  0  1  0  0  0  0  0  0
  -25.8510  -36.5140   24.0120 C   0  0  0  0  0  3  0  0  0  0  0  0
  -28.0720  -37.2280   24.7750 C   0  0  0  0  0  1  0  0  0  0  0  0
  -26.9680  -37.4680   23.8480 N   0  0  0  0  0  0  0  0  0  0  0  0
  -26.6480  -38.4240   23.9770 H   0  0  0  0  0  0  0  0  0  0  0  0
  -26.5200  -31.8570   25.2750 C   0  0  1  0  0  0  0  0  0  0  0  0
  -25.4800  -31.6850   26.4060 C   0  0  0  0  0  1  0  0  0  0  0  0
  -26.9990  -30.4460   24.8550 C   0  0  0  0  0  1  0  0  0  0  0  0
  -27.7510  -32.5860   25.8630 C   0  0  0  0  0  1  0  0  0  0  0  0
  -30.1040  -19.6340   19.1740 C   0  0  0  0  0  2  0  0  0  0  0  0
  -30.0360  -18.0880   19.1970 C   0  0  0  0  0  2  0  0  0  0  0  0
  -31.4270  -17.4400   19.3770 C   0  0  0  0  0  2  0  0  0  0  0  0
  -32.2510  -15.2120   20.1700 C   0  0  0  0  0  0  0  0  0  0  0  0
  -32.4490  -12.7660   20.3500 C   0  0  0  0  0  2  0  0  0  0  0  0
  -31.6960  -12.1280   19.1640 C   0  0  0  0  0  2  0  0  0  0  0  0
  -30.1960  -11.9580   19.4870 C   0  0  0  0  0  2  0  0  0  0  0  0
  -29.5540  -13.2530   20.0530 C   0  0  0  0  0  3  0  0  0  0  0  0
  -30.4280  -13.8170   21.1950 C   0  0  0  0  0  2  0  0  0  0  0  0
  -31.7850  -14.0370   20.6620 N   0  0  0  0  0  0  0  0  0  0  0  0
  -33.3870  -15.3570   19.7040 O   0  0  0  0  0  0  0  0  0  0  0  0
  -31.3240  -16.1730   20.0950 N   0  0  0  0  0  0  0  0  0  0  0  0
  -30.4320  -15.9470   20.5110 H   0  0  0  0  0  0  0  0  0  0  0  0
  -27.1340  -13.9300   20.6250 C   0  0  0  0  0  0  0  0  0  0  0  0
  -26.0430  -13.1910   20.9960 C   0  0  0  0  0  0  0  0  0  0  0  0
  -26.4900  -11.8360   21.0610 C   0  0  0  0  0  0  0  0  0  0  0  0
  -28.1770  -13.0270   20.4890 N   0  0  0  0  0  0  0  0  0  0  0  0
  -27.7900  -11.7660   20.8080 N   0  0  0  0  0  0  0  0  0  0  0  0
  -25.7450  -10.5930   21.2950 C   0  0  0  0  0  0  0  0  0  0  0  0
  -25.7600   -9.9490   22.5520 C   0  0  0  0  0  3  0  0  0  0  0  0
  -25.0190   -8.7650   22.7580 C   0  0  0  0  0  3  0  0  0  0  0  0
  -24.2500   -8.2170   21.7060 C   0  0  0  0  0  0  0  0  0  0  0  0
  -24.2580   -8.8490   20.4500 C   0  0  0  0  0  3  0  0  0  0  0  0
  -24.9990  -10.0240   20.2440 C   0  0  0  0  0  3  0  0  0  0  0  0
  -23.5190   -7.0580   21.8070 O   0  0  0  0  0  0  0  0  0  0  0  0
  -22.5500   -6.8980   22.7650 C   0  0  0  0  0  0  0  0  0  0  0  0
  -21.4140   -7.7350   22.8230 C   0  0  0  0  0  3  0  0  0  0  0  0
  -20.4100   -7.4930   23.7800 C   0  0  0  0  0  3  0  0  0  0  0  0
  -20.5330   -6.4110   24.6720 C   0  0  0  0  0  0  0  0  0  0  0  0
  -21.6600   -5.5720   24.6110 C   0  0  0  0  0  3  0  0  0  0  0  0
  -22.6640   -5.8140   23.6580 C   0  0  0  0  0  0  0  0  0  0  0  0
  -23.7380   -4.9910   23.5900 F   0  0  0  0  0  0  0  0  0  0  0  0
  -19.5630   -6.1720   25.5850 F   0  0  0  0  0  0  0  0  0  0  0  0
  -24.6420  -13.6950   21.1880 C   0  0  0  0  0  0  0  0  0  0  0  0
  -23.8810  -13.0720   22.0830 N   0  0  0  0  0  0  0  0  0  0  0  0
  -24.2290  -14.6770   20.5740 O   0  0  0  0  0  0  0  0  0  0  0  0
  -24.2280  -12.2780   22.6000 H   0  0  0  0  0  0  0  0  0  0  0  0
  -22.9400  -13.3940   22.2520 H   0  0  0  0  0  0  0  0  0  0  0  0
  -27.3210  -15.2850   20.3740 N   0  0  0  0  0  0  0  0  0  0  0  0
  -26.5520  -15.9450   20.3970 H   0  0  0  0  0  0  0  0  0  0  0  0
  -28.1890  -15.6970   20.0530 H   0  0  0  0  0  0  0  0  0  0  0  0
  2  4  1  0
  2  5  1  0
  3  1  1  0
  4  6  1  0
  5 13  1  0
  5  1  1  0
  6 56  1  6
  6  3  1  0
  6  7  1  0
  7  8  1  0
  8  9  1  0
  9 11  1  0
  9 12  1  0
 10  8  2  0
 13 14  1  0
 15 17  1  0
 15 14  1  0
 16 27  2  0
 17 22  1  0
 18 26  1  0
 18 28  1  0
 19 25  1  0
 19 21  1  0
 20 26  1  0
 21 20  1  0
 22 21  2  0
 23 24  1  0
 23 17  2  0
 24 19  2  0
 25 18  1  0
 26 16  1  0
 28 30  2  0
 29 28  1  0
 31 29  1  0
 32 37  1  0
 33 29  1  0
 34 33  1  0
 35 36  1  0
 35 34  1  0
 36 32  1  0
 37 33  1  0
 37 38  2  0
 39 38  1  0
 40 39  2  0
 41 32  2  0
 41 40  1  0
 42 16  1  0
 42 43  1  0
 42 52  1  0
 43 46  1  0
 44 48  1  0
 44 43  1  0
 45 44  2  0
 48 47  1  0
 50 51  1  0
 50 48  1  0
 50 49  1  0
 52 55  1  1
 52 53  1  0
 54 52  1  0
 56 57  1  0
 57 58  1  0
 58 67  1  0
 59 65  1  0
 60 65  1  0
 61 62  1  0
 61 60  1  0
 63 62  1  0
 63 72  1  0
 63 64  1  0
 65 64  1  0
 66 59  2  0
 67 59  1  0
 67 68  1  0
 69 70  2  0
 70 71  1  0
 70 89  1  0
 71 74  1  0
 72 69  1  0
 72 73  1  0
 73 71  2  0
 74 75  1  0
 75 76  2  0
 77 80  1  0
 77 76  1  0
 78 77  2  0
 79 78  1  0
 79 74  2  0
 80 81  1  0
 81 82  2  0
 81 86  1  0
 82 83  1  0
 83 84  2  0
 84 88  1  0
 85 84  1  0
 86 85  2  0
 87 86  1  0
 89 90  1  0
 90 93  1  0
 90 92  1  0
 91 89  2  0
 94 95  1  0
 94 69  1  0
 96 94  1  0
M  ISO  4  14 101  15 101  59 100  67 100
M  END
>  <TORSDO>  (26) 
F 23

>  <SCORE>  (26) 
-8.666

>  <name>  (26) 
25

>  <ligand_id>  (26) 
25

>  <original_smiles>  (26) 
[H]c1c([H])c([H])c2c(c1[H])C([H])([H])C([H])([H])C([H])([H])C2([H])N([H])C(=O)C1([H])N(C(=O)C([H])(N([H])C(=O)C([H])(N([H])C([H])([H])[H])C([H])([H])[H])C(C([H])([H])[H])(C([H])([H])[H])C([H])([H])[H])C([H])([H])c2c([H])c(OC([H])([H])C([H])([H])C3([H])C([H])([H])C([H])([H])C(C([H])([H])C(=O)N([H])[H])(C([H])([H])C([H])([H])C([H])([H])N([H])C(=O)N4C([H])([H])C([H])([H])C([H])([H])C([H])(n5nc(-c6c([H])c([H])c(Oc7c([H])c([H])c(F)c([H])c7F)c([H])c6[H])c(C(=O)N([H])[H])c5N([H])[H])C4([H])[H])C([H])([H])C3([H])[H])c([H])c([H])c2C1([H])[H]

>  <smiles>  (26) 
[H]c1c([H])c([H])c2c(c1[H])C([H])([H])C([H])([H])C([H])([H])C2([H])N([H])C(=O)C1([H])N(C(=O)C([H])(N([H])C(=O)C([H])(N([H])C([H])([H])[H])C([H])([H])[H])C(C([H])([H])[H])(C([H])([H])[H])C([H])([H])[H])C([H])([H])c2c([H])c(OC([H])([H])C([H])([H])C3([H])C([H])([H])C([H])([H])C(C([H])([H])C(=O)N([H])[H])(C([H])([H])C([H])([H])C([H])([H])N([H])C(=O)N4C([H])([H])C([H])([H])C([H])([H])C([H])(n5nc(-c6c([H])c([H])c(Oc7c([H])c([H])c(F)c([H])c7F)c([H])c6[H])c(C(=O)N([H])[H])c5N([H])[H])C4([H])[H])C([H])([H])C3([H])[H])c([H])c([H])c2C1([H])[H]

$$$$
26:0:0
     RDKit          3D

 94101  0  0  1  0  0  0  0  0999 V2000
  -30.0330  -22.8560   22.6270 N   0  0  0  0  0  4  0  0  0  0  0  0
  -29.1020  -22.7760   22.2500 H   0  0  0  0  0  0  0  0  0  0  0  0
  -29.9680  -22.7290   23.6250 H   0  0  0  0  0  0  0  0  0  0  0  0
  -30.8420  -21.7540   22.0530 C   0  0  0  0  0  2  0  0  0  0  0  0
  -30.1280  -20.3830   22.1810 C   0  0  0  0  0  2  0  0  0  0  0  0
  -30.7430  -19.2940   21.2660 C   0  0  0  0  0  2  0  0  0  0  0  0
  -29.7810  -17.3810   22.6290 C   0  0  0  0  0  1  0  0  0  0  0  0
  -30.0240  -17.9060   21.2000 C   0  0  1  0  0  0  0  0  0  0  0  0
  -28.6830  -18.4250   19.0060 C   0  0  0  0  0  1  0  0  0  0  0  0
  -28.6440  -17.9980   20.4830 C   0  0  0  0  0  2  0  0  0  0  0  0
  -30.9800  -16.9230   20.4540 C   0  0  0  0  0  2  0  0  0  0  0  0
  -30.9640  -14.6150   19.4970 C   0  0  0  0  0  0  0  0  0  0  0  0
  -30.6420  -12.3590   18.5430 C   0  0  0  0  0  2  0  0  0  0  0  0
  -29.5750  -12.3710   17.4300 C   0  0  0  0  0  2  0  0  0  0  0  0
  -28.1600  -12.2160   18.0220 C   0  0  0  0  0  2  0  0  0  0  0  0
  -27.9010  -13.1870   19.2040 C   0  0  0  0  0  3  0  0  0  0  0  0
  -29.0600  -13.1270   20.2220 C   0  0  0  0  0  2  0  0  0  0  0  0
  -30.3160  -13.4220   19.5090 N   0  0  0  0  0  0  0  0  0  0  0  0
  -31.9250  -14.8510   18.7570 O   0  0  0  0  0  0  0  0  0  0  0  0
  -30.4860  -15.5420   20.3450 N   0  0  0  0  0  0  0  0  0  0  0  0
  -29.7120  -15.2710   20.9330 H   0  0  0  0  0  0  0  0  0  0  0  0
  -25.6280  -13.8070   20.2390 C   0  0  0  0  0  0  0  0  0  0  0  0
  -24.5970  -13.0400   20.7100 C   0  0  0  0  0  0  0  0  0  0  0  0
  -25.0150  -11.6820   20.5600 C   0  0  0  0  0  0  0  0  0  0  0  0
  -26.6130  -12.9180   19.8380 N   0  0  0  0  0  0  0  0  0  0  0  0
  -26.2510  -11.6330   20.0820 N   0  0  0  0  0  0  0  0  0  0  0  0
  -24.2870  -10.4270   20.7890 C   0  0  0  0  0  0  0  0  0  0  0  0
  -24.7290   -9.4810   21.7420 C   0  0  0  0  0  3  0  0  0  0  0  0
  -24.0030   -8.2890   21.9560 C   0  0  0  0  0  3  0  0  0  0  0  0
  -22.8220   -8.0350   21.2190 C   0  0  0  0  0  0  0  0  0  0  0  0
  -22.4020   -8.9660   20.2530 C   0  0  0  0  0  3  0  0  0  0  0  0
  -23.1280  -10.1500   20.0360 C   0  0  0  0  0  3  0  0  0  0  0  0
  -22.0670   -6.8930   21.3410 O   0  0  0  0  0  0  0  0  0  0  0  0
  -21.8800   -6.2810   22.5550 C   0  0  0  0  0  0  0  0  0  0  0  0
  -21.3130   -6.9620   23.6530 C   0  0  0  0  0  3  0  0  0  0  0  0
  -21.0760   -6.2760   24.8620 C   0  0  0  0  0  3  0  0  0  0  0  0
  -21.3930   -4.9080   24.9690 C   0  0  0  0  0  0  0  0  0  0  0  0
  -21.9520   -4.2270   23.8740 C   0  0  0  0  0  3  0  0  0  0  0  0
  -22.1920   -4.9110   22.6690 C   0  0  0  0  0  0  0  0  0  0  0  0
  -22.7110   -4.2450   21.6100 F   0  0  0  0  0  0  0  0  0  0  0  0
  -21.1580   -4.2460   26.1260 F   0  0  0  0  0  0  0  0  0  0  0  0
  -23.2600  -13.5310   21.1850 C   0  0  0  0  0  0  0  0  0  0  0  0
  -22.6410  -12.8160   22.1220 N   0  0  0  0  0  0  0  0  0  0  0  0
  -22.7770  -14.5790   20.7620 O   0  0  0  0  0  0  0  0  0  0  0  0
  -23.0460  -11.9650   22.4820 H   0  0  0  0  0  0  0  0  0  0  0  0
  -21.7500  -13.1270   22.4820 H   0  0  0  0  0  0  0  0  0  0  0  0
  -25.8010  -15.1810   20.1020 N   0  0  0  0  0  0  0  0  0  0  0  0
  -25.0660  -15.8410   20.3310 H   0  0  0  0  0  0  0  0  0  0  0  0
  -26.6130  -15.6150   19.6820 H   0  0  0  0  0  0  0  0  0  0  0  0
  -30.5100  -24.2360   22.3510 C   0  0  0  0  0  2  0  0  0  0  0  0
  -29.4160  -25.2790   22.6890 C   0  0  0  0  0  2  0  0  0  0  0  0
  -29.7650  -26.7660   22.4290 C   0  0  0  0  0  2  0  0  0  0  0  0
  -29.8740  -27.1880   20.9470 C   0  0  0  0  0  2  0  0  0  0  0  0
  -28.7320  -26.8490   20.1600 O   0  0  0  0  0  0  0  0  0  0  0  0
  -24.6670  -31.8710   23.2560 C   0  0  0  0  0  0  0  0  0  0  0  0
  -27.5760  -27.6010   20.2040 C   0  0  0  0  0  0  0  0  0  0  0  0
  -23.5480  -30.4330   21.5760 C   0  0  0  0  0  3  0  0  0  0  0  0
  -25.1010  -28.9760   20.1700 C   0  0  0  0  0  0  0  0  0  0  0  0
  -26.0540  -30.9110   21.4310 C   0  0  0  0  0  2  0  0  0  0  0  0
  -26.2160  -29.5510   20.7890 C   0  0  0  0  0  0  0  0  0  0  0  0
  -27.4560  -28.8720   20.8130 C   0  0  0  0  0  3  0  0  0  0  0  0
  -26.4410  -27.0400   19.5790 C   0  0  0  0  0  3  0  0  0  0  0  0
  -25.2050  -27.7130   19.5610 C   0  0  0  0  0  3  0  0  0  0  0  0
  -23.8150  -29.7690   20.1970 C   0  0  0  0  0  2  0  0  0  0  0  0
  -24.7700  -31.0860   22.1480 N   0  0  0  0  0  0  0  0  0  0  0  0
  -23.5670  -32.0890   23.7830 O   0  0  0  0  0  0  0  0  0  0  0  0
  -22.9250  -29.3750   22.5160 C   0  0  0  0  0  0  0  0  0  0  0  0
  -21.6210  -29.1060   22.3370 N   0  0  0  0  0  0  0  0  0  0  0  0
  -23.6120  -28.8030   23.3650 O   0  0  0  0  0  0  0  0  0  0  0  0
  -21.1250  -29.6240   21.6240 H   0  0  0  0  0  0  0  0  0  0  0  0
  -18.3240  -27.6590   22.6650 C   0  0  0  0  0  0  0  0  0  0  0  0
  -20.8360  -28.1160   23.0740 C   0  0  0  0  0  3  0  0  0  0  0  0
  -21.0780  -26.6880   22.5310 C   0  0  0  0  0  2  0  0  0  0  0  0
  -20.0640  -26.2680   21.4620 C   0  0  0  0  0  2  0  0  0  0  0  0
  -18.6410  -26.3190   22.0220 C   0  0  0  0  0  2  0  0  0  0  0  0
  -19.3560  -28.5100   23.1430 C   0  0  0  0  0  0  0  0  0  0  0  0
  -19.0100  -29.7640   23.6960 C   0  0  0  0  0  3  0  0  0  0  0  0
  -17.6650  -30.1690   23.7710 C   0  0  0  0  0  3  0  0  0  0  0  0
  -16.6470  -29.3160   23.3130 C   0  0  0  0  0  3  0  0  0  0  0  0
  -16.9760  -28.0600   22.7700 C   0  0  0  0  0  3  0  0  0  0  0  0
  -25.9190  -32.5470   23.9030 C   0  0  0  0  0  3  0  0  0  0  0  0
  -26.4150  -31.8160   25.2130 C   0  0  1  0  0  0  0  0  0  0  0  0
  -25.2940  -31.5650   26.2480 C   0  0  0  0  0  1  0  0  0  0  0  0
  -27.0510  -30.4470   24.8730 C   0  0  0  0  0  1  0  0  0  0  0  0
  -27.5140  -32.6610   25.8990 C   0  0  0  0  0  1  0  0  0  0  0  0
  -25.5710  -33.9470   24.1810 N   0  0  0  0  0  0  0  0  0  0  0  0
  -25.9250  -34.9840   23.4070 C   0  0  0  0  0  0  0  0  0  0  0  0
  -26.6470  -34.8620   22.4150 O   0  0  0  0  0  0  0  0  0  0  0  0
  -24.9350  -34.1160   24.9470 H   0  0  0  0  0  0  0  0  0  0  0  0
  -24.1940  -36.7380   22.8990 C   0  0  0  0  0  1  0  0  0  0  0  0
  -25.3890  -36.3760   23.7960 C   0  0  0  0  0  3  0  0  0  0  0  0
  -27.4510  -37.3110   24.7410 C   0  0  0  0  0  1  0  0  0  0  0  0
  -26.4090  -37.4440   23.7250 N   0  0  0  0  0  0  0  0  0  0  0  0
  -25.9830  -38.3600   23.8300 H   0  0  0  0  0  0  0  0  0  0  0  0
  1  3  1  0
  2  1  1  0
  4  5  1  0
  4  1  1  0
  6  5  1  0
  8  6  1  0
  8  7  1  1
  9 10  1  0
 10  8  1  0
 11  8  1  0
 12 18  1  0
 12 20  1  0
 13 18  1  0
 14 15  1  0
 14 13  1  0
 16 15  1  0
 16 25  1  0
 16 17  1  0
 18 17  1  0
 19 12  2  0
 20 11  1  0
 20 21  1  0
 22 23  2  0
 23 42  1  0
 24 23  1  0
 24 27  1  0
 25 26  1  0
 25 22  1  0
 26 24  2  0
 27 28  1  0
 28 29  2  0
 30 33  1  0
 30 29  1  0
 31 30  2  0
 32 31  1  0
 32 27  2  0
 33 34  1  0
 34 39  2  0
 34 35  1  0
 35 36  2  0
 36 37  1  0
 37 41  1  0
 38 37  2  0
 39 38  1  0
 40 39  1  0
 42 43  1  0
 43 46  1  0
 43 45  1  0
 44 42  2  0
 47 22  1  0
 47 48  1  0
 49 47  1  0
 50  1  1  0
 50 51  1  0
 52 51  1  0
 53 52  1  0
 54 56  1  0
 54 53  1  0
 55 66  2  0
 56 61  1  0
 57 65  1  0
 57 67  1  0
 58 64  1  0
 58 60  1  0
 59 65  1  0
 60 61  2  0
 60 59  1  0
 62 56  2  0
 63 62  1  0
 63 58  2  0
 64 57  1  0
 65 55  1  0
 67 69  2  0
 68 67  1  0
 70 68  1  0
 71 80  2  0
 71 76  1  0
 72 68  1  0
 72 76  1  0
 73 72  1  0
 74 75  1  0
 74 73  1  0
 75 71  1  0
 76 77  2  0
 77 78  1  0
 79 78  2  0
 80 79  1  0
 81 55  1  0
 81 86  1  0
 81 82  1  0
 82 85  1  1
 82 83  1  0
 84 82  1  0
 86 89  1  0
 87 91  1  0
 87 86  1  0
 88 87  2  0
 91 90  1  0
 93 91  1  0
 93 94  1  0
 93 92  1  0
M  ISO  4  12 100  20 100  53 101  54 101
M  END
>  <TORSDO>  (27) 
F 26

>  <SCORE>  (27) 
-9.995

>  <name>  (27) 
26

>  <ligand_id>  (27) 
26

>  <original_smiles>  (27) 
[H]c1c([H])c([H])c2c(c1[H])C([H])([H])C([H])([H])C([H])([H])C2([H])N([H])C(=O)C1([H])N(C(=O)C([H])(N([H])C(=O)C([H])(N([H])C([H])([H])[H])C([H])([H])[H])C(C([H])([H])[H])(C([H])([H])[H])C([H])([H])[H])C([H])([H])c2c([H])c(OC([H])([H])C([H])([H])C([H])([H])C([H])([H])[N+]([H])([H])C([H])([H])C([H])([H])C([H])([H])C(C([H])([H])[H])(C([H])([H])N([H])C(=O)N3C([H])([H])C([H])([H])C([H])([H])C([H])(n4nc(-c5c([H])c([H])c(Oc6c([H])c([H])c(F)c([H])c6F)c([H])c5[H])c(C(=O)N([H])[H])c4N([H])[H])C3([H])[H])C([H])([H])C([H])([H])[H])c([H])c([H])c2C1([H])[H]

>  <smiles>  (27) 
[H]c1c([H])c([H])c2c(c1[H])C([H])([H])C([H])([H])C([H])([H])C2([H])N([H])C(=O)C1([H])N(C(=O)C([H])(N([H])C(=O)C([H])(N([H])C([H])([H])[H])C([H])([H])[H])C(C([H])([H])[H])(C([H])([H])[H])C([H])([H])[H])C([H])([H])c2c([H])c(OC([H])([H])C([H])([H])C([H])([H])C([H])([H])[N+]([H])([H])C([H])([H])C([H])([H])C([H])([H])C(C([H])([H])[H])(C([H])([H])N([H])C(=O)N3C([H])([H])C([H])([H])C([H])([H])C([H])(n4nc(-c5c([H])c([H])c(Oc6c([H])c([H])c(F)c([H])c6F)c([H])c5[H])c(C(=O)N([H])[H])c4N([H])[H])C3([H])[H])C([H])([H])C([H])([H])[H])c([H])c([H])c2C1([H])[H]

$$$$
27:0:0
     RDKit          3D

 96103  0  0  1  0  0  0  0  0999 V2000
  -28.6290  -21.6580   21.3180 C   0  0  0  0  0  2  0  0  0  0  0  0
  -27.7550  -22.6780   21.9320 N   0  0  0  0  0  4  0  0  0  0  0  0
  -27.8880  -22.6390   22.9300 H   0  0  0  0  0  0  0  0  0  0  0  0
  -26.7870  -22.4690   21.7370 H   0  0  0  0  0  0  0  0  0  0  0  0
  -28.0930  -24.0470   21.4900 C   0  0  0  0  0  2  0  0  0  0  0  0
  -27.6540  -25.1440   22.4790 C   0  0  0  0  0  2  0  0  0  0  0  0
  -28.6320  -26.3440   22.5340 C   0  0  0  0  0  2  0  0  0  0  0  0
  -29.2660  -26.7840   21.1920 C   0  0  0  0  0  2  0  0  0  0  0  0
  -28.3720  -26.7120   20.0800 O   0  0  0  0  0  0  0  0  0  0  0  0
  -24.6030  -31.8760   23.2180 C   0  0  0  0  0  0  0  0  0  0  0  0
  -27.2430  -27.4940   20.1130 C   0  0  0  0  0  0  0  0  0  0  0  0
  -23.3890  -30.5000   21.5560 C   0  0  0  0  0  3  0  0  0  0  0  0
  -24.8420  -28.9730   20.1200 C   0  0  0  0  0  0  0  0  0  0  0  0
  -25.9130  -30.8580   21.3680 C   0  0  0  0  0  2  0  0  0  0  0  0
  -25.9930  -29.4960   20.7200 C   0  0  0  0  0  0  0  0  0  0  0  0
  -27.1960  -28.7670   20.7200 C   0  0  0  0  0  3  0  0  0  0  0  0
  -26.0860  -26.9800   19.4960 C   0  0  0  0  0  3  0  0  0  0  0  0
  -24.8810  -27.7070   19.5060 C   0  0  0  0  0  3  0  0  0  0  0  0
  -23.5980  -29.8310   20.1680 C   0  0  0  0  0  2  0  0  0  0  0  0
  -24.6520  -31.0900   22.1060 N   0  0  0  0  0  0  0  0  0  0  0  0
  -23.5210  -32.1450   23.7590 O   0  0  0  0  0  0  0  0  0  0  0  0
  -22.7340  -29.4720   22.5040 C   0  0  0  0  0  0  0  0  0  0  0  0
  -21.4070  -29.3030   22.3760 N   0  0  0  0  0  0  0  0  0  0  0  0
  -23.4130  -28.8300   23.3090 O   0  0  0  0  0  0  0  0  0  0  0  0
  -20.9190  -29.8710   21.6990 H   0  0  0  0  0  0  0  0  0  0  0  0
  -18.0260  -28.1370   22.8530 C   0  0  0  0  0  0  0  0  0  0  0  0
  -20.5840  -28.3640   23.1330 C   0  0  0  0  0  3  0  0  0  0  0  0
  -20.6750  -26.9390   22.5420 C   0  0  0  0  0  2  0  0  0  0  0  0
  -19.5710  -26.6380   21.5220 C   0  0  0  0  0  2  0  0  0  0  0  0
  -18.1900  -26.7930   22.1640 C   0  0  0  0  0  2  0  0  0  0  0  0
  -19.1510  -28.8830   23.2930 C   0  0  0  0  0  0  0  0  0  0  0  0
  -18.9450  -30.1430   23.8960 C   0  0  0  0  0  3  0  0  0  0  0  0
  -17.6450  -30.6590   24.0590 C   0  0  0  0  0  3  0  0  0  0  0  0
  -16.5340  -29.9100   23.6340 C   0  0  0  0  0  3  0  0  0  0  0  0
  -16.7250  -28.6490   23.0410 C   0  0  0  0  0  3  0  0  0  0  0  0
  -25.8910  -32.4900   23.8470 C   0  0  0  0  0  3  0  0  0  0  0  0
  -26.4370  -31.6650   25.0740 C   0  0  1  0  0  0  0  0  0  0  0  0
  -25.3650  -31.3710   26.1490 C   0  0  0  0  0  1  0  0  0  0  0  0
  -27.0130  -30.3120   24.5970 C   0  0  0  0  0  1  0  0  0  0  0  0
  -27.5970  -32.4340   25.7460 C   0  0  0  0  0  1  0  0  0  0  0  0
  -25.5790  -33.8710   24.2370 N   0  0  0  0  0  0  0  0  0  0  0  0
  -25.9010  -34.9530   23.5170 C   0  0  0  0  0  0  0  0  0  0  0  0
  -26.5620  -34.8960   22.4760 O   0  0  0  0  0  0  0  0  0  0  0  0
  -24.9910  -33.9940   25.0480 H   0  0  0  0  0  0  0  0  0  0  0  0
  -24.1480  -36.7330   23.2650 C   0  0  0  0  0  1  0  0  0  0  0  0
  -25.4110  -36.3180   24.0370 C   0  0  0  0  0  3  0  0  0  0  0  0
  -27.5610  -37.1810   24.8460 C   0  0  0  0  0  1  0  0  0  0  0  0
  -26.4320  -37.3840   23.9410 N   0  0  0  0  0  0  0  0  0  0  0  0
  -26.0240  -38.2930   24.1460 H   0  0  0  0  0  0  0  0  0  0  0  0
  -28.7350  -20.3690   22.1520 C   0  0  0  0  0  2  0  0  0  0  0  0
  -30.0040  -19.6220   21.7200 C   0  0  0  0  0  2  0  0  0  0  0  0
  -30.4020  -18.4030   22.5490 C   0  0  0  0  0  2  0  0  0  0  0  0
  -31.8140  -17.9690   22.1290 C   0  0  0  0  0  2  0  0  0  0  0  0
  -32.3040  -16.7480   22.8980 C   0  0  0  0  0  2  0  0  0  0  0  0
  -33.5220  -16.0570   22.2440 C   0  0  0  0  0  2  0  0  0  0  0  0
  -33.7900  -14.6300   22.7560 C   0  0  0  0  0  2  0  0  0  0  0  0
  -33.0330  -13.5270   21.9930 C   0  0  0  0  0  2  0  0  0  0  0  0
  -30.9430  -14.0790   20.8410 C   0  0  0  0  0  0  0  0  0  0  0  0
  -30.3620  -12.2670   19.3240 C   0  0  0  0  0  2  0  0  0  0  0  0
  -29.4230  -12.5640   18.1510 C   0  0  0  0  0  2  0  0  0  0  0  0
  -27.9710  -12.3610   18.5920 C   0  0  0  0  0  2  0  0  0  0  0  0
  -27.6380  -13.2090   19.8410 C   0  0  0  0  0  3  0  0  0  0  0  0
  -28.6730  -13.0370   20.9770 C   0  0  0  0  0  2  0  0  0  0  0  0
  -30.0470  -13.1440   20.4620 N   0  0  0  0  0  0  0  0  0  0  0  0
  -31.5780  -14.7360   20.0080 O   0  0  0  0  0  0  0  0  0  0  0  0
  -31.5680  -13.6840   21.9920 N   0  0  0  0  0  0  0  0  0  0  0  0
  -25.2490  -13.8180   20.5650 C   0  0  0  0  0  0  0  0  0  0  0  0
  -24.1760  -13.0410   20.9190 C   0  0  0  0  0  0  0  0  0  0  0  0
  -24.6340  -11.6890   20.8660 C   0  0  0  0  0  0  0  0  0  0  0  0
  -26.2890  -12.9350   20.3210 N   0  0  0  0  0  0  0  0  0  0  0  0
  -25.9260  -11.6490   20.5670 N   0  0  0  0  0  0  0  0  0  0  0  0
  -23.9040  -10.4240   21.0360 C   0  0  0  0  0  0  0  0  0  0  0  0
  -24.3570   -9.4150   21.9150 C   0  0  0  0  0  3  0  0  0  0  0  0
  -23.6240   -8.2190   22.0750 C   0  0  0  0  0  3  0  0  0  0  0  0
  -22.4220   -8.0240   21.3550 C   0  0  0  0  0  0  0  0  0  0  0  0
  -21.9870   -9.0200   20.4640 C   0  0  0  0  0  3  0  0  0  0  0  0
  -22.7200  -10.2080   20.3040 C   0  0  0  0  0  3  0  0  0  0  0  0
  -21.6620   -6.8810   21.4220 O   0  0  0  0  0  0  0  0  0  0  0  0
  -21.6840   -6.0670   22.5260 C   0  0  0  0  0  0  0  0  0  0  0  0
  -21.4020   -6.5600   23.8190 C   0  0  0  0  0  3  0  0  0  0  0  0
  -21.3670   -5.6770   24.9160 C   0  0  0  0  0  3  0  0  0  0  0  0
  -21.6050   -4.3030   24.7210 C   0  0  0  0  0  0  0  0  0  0  0  0
  -21.8830   -3.8100   23.4330 C   0  0  0  0  0  3  0  0  0  0  0  0
  -21.9180   -4.6910   22.3380 C   0  0  0  0  0  0  0  0  0  0  0  0
  -22.1660   -4.2090   21.0960 F   0  0  0  0  0  0  0  0  0  0  0  0
  -21.5630   -3.4520   25.7720 F   0  0  0  0  0  0  0  0  0  0  0  0
  -22.7800  -13.5210   21.1850 C   0  0  0  0  0  0  0  0  0  0  0  0
  -22.0490  -12.8190   22.0440 N   0  0  0  0  0  0  0  0  0  0  0  0
  -22.3460  -14.5480   20.6700 O   0  0  0  0  0  0  0  0  0  0  0  0
  -22.4210  -11.9900   22.4830 H   0  0  0  0  0  0  0  0  0  0  0  0
  -21.1090  -13.1130   22.2640 H   0  0  0  0  0  0  0  0  0  0  0  0
  -25.4200  -15.1890   20.4080 N   0  0  0  0  0  0  0  0  0  0  0  0
  -24.6570  -15.8450   20.5370 H   0  0  0  0  0  0  0  0  0  0  0  0
  -26.2800  -15.6320   20.1090 H   0  0  0  0  0  0  0  0  0  0  0  0
  -31.2670  -12.1710   23.9970 C   0  0  0  0  0  1  0  0  0  0  0  0
  -30.9410  -13.5210   23.3250 C   0  0  0  0  0  2  0  0  0  0  0  0
  1  2  1  0
  1 50  1  0
  2  3  1  0
  4  2  1  0
  5  2  1  0
  5  6  1  0
  6  7  1  0
  8  7  1  0
  9 11  1  0
  9  8  1  0
 10 21  2  0
 11 16  1  0
 12 20  1  0
 12 22  1  0
 13 19  1  0
 13 15  1  0
 14 20  1  0
 15 16  2  0
 15 14  1  0
 17 18  1  0
 17 11  2  0
 18 13  2  0
 19 12  1  0
 20 10  1  0
 22 24  2  0
 23 22  1  0
 25 23  1  0
 26 35  2  0
 26 31  1  0
 27 23  1  0
 27 31  1  0
 28 27  1  0
 29 30  1  0
 29 28  1  0
 30 26  1  0
 31 32  2  0
 32 33  1  0
 34 33  2  0
 35 34  1  0
 36 10  1  0
 36 41  1  0
 36 37  1  0
 37 40  1  1
 37 38  1  0
 39 37  1  0
 41 44  1  0
 42 46  1  0
 42 41  1  0
 43 42  2  0
 46 45  1  0
 48 46  1  0
 48 49  1  0
 48 47  1  0
 51 50  1  0
 51 52  1  0
 53 52  1  0
 53 54  1  0
 55 56  1  0
 55 54  1  0
 57 56  1  0
 58 66  1  0
 59 64  1  0
 60 61  1  0
 60 59  1  0
 62 61  1  0
 62 70  1  0
 62 63  1  0
 64 58  1  0
 64 63  1  0
 65 58  2  0
 66 57  1  0
 66 96  1  0
 67 68  2  0
 68 87  1  0
 69 68  1  0
 69 72  1  0
 70 67  1  0
 70 71  1  0
 71 69  2  0
 72 73  1  0
 73 74  2  0
 75 78  1  0
 75 74  1  0
 76 75  2  0
 77 76  1  0
 77 72  2  0
 78 79  1  0
 79 80  1  0
 80 81  2  0
 82 81  1  0
 82 86  1  0
 83 82  2  0
 84 79  2  0
 84 83  1  0
 85 84  1  0
 87 88  1  0
 88 91  1  0
 88 90  1  0
 89 87  2  0
 92 93  1  0
 92 67  1  0
 94 92  1  0
 96 95  1  0
M  ISO  4   8 101   9 101  58 100  66 100
M  END
>  <TORSDO>  (28) 
F 30

>  <SCORE>  (28) 
9.791

>  <name>  (28) 
27

>  <ligand_id>  (28) 
27

>  <original_smiles>  (28) 
[H]c1c([H])c([H])c2c(c1[H])C([H])([H])C([H])([H])C([H])([H])C2([H])N([H])C(=O)C1([H])N(C(=O)C([H])(N([H])C(=O)C([H])(N([H])C([H])([H])[H])C([H])([H])[H])C(C([H])([H])[H])(C([H])([H])[H])C([H])([H])[H])C([H])([H])c2c([H])c(OC([H])([H])C([H])([H])C([H])([H])C([H])([H])[N+]([H])([H])C([H])([H])C([H])([H])C([H])([H])C([H])([H])C([H])([H])C([H])([H])C([H])([H])C([H])([H])C([H])([H])N(C(=O)N3C([H])([H])C([H])([H])C([H])([H])C([H])(n4nc(-c5c([H])c([H])c(Oc6c([H])c([H])c(F)c([H])c6F)c([H])c5[H])c(C(=O)N([H])[H])c4N([H])[H])C3([H])[H])C([H])([H])C([H])([H])[H])c([H])c([H])c2C1([H])[H]

>  <smiles>  (28) 
[H]c1c([H])c([H])c2c(c1[H])C([H])([H])C([H])([H])C([H])([H])C2([H])N([H])C(=O)C1([H])N(C(=O)C([H])(N([H])C(=O)C([H])(N([H])C([H])([H])[H])C([H])([H])[H])C(C([H])([H])[H])(C([H])([H])[H])C([H])([H])[H])C([H])([H])c2c([H])c(OC([H])([H])C([H])([H])C([H])([H])C([H])([H])[N+]([H])([H])C([H])([H])C([H])([H])C([H])([H])C([H])([H])C([H])([H])C([H])([H])C([H])([H])C([H])([H])C([H])([H])N(C(=O)N3C([H])([H])C([H])([H])C([H])([H])C([H])(n4nc(-c5c([H])c([H])c(Oc6c([H])c([H])c(F)c([H])c6F)c([H])c5[H])c(C(=O)N([H])[H])c4N([H])[H])C3([H])[H])C([H])([H])C([H])([H])[H])c([H])c([H])c2C1([H])[H]

$$$$
28:0:0
     RDKit          3D

 97106  0  0  1  0  0  0  0  0999 V2000
  -30.5300  -20.2020   19.7700 C   0  0  0  0  0  2  0  0  0  0  0  0
  -29.9890  -20.6490   20.9090 C   0  0  0  0  0  3  0  0  0  0  0  0
  -30.3630  -18.3660   21.9110 C   0  0  0  0  0  2  0  0  0  0  0  0
  -32.0970  -19.9230   21.4990 C   0  0  0  0  0  2  0  0  0  0  0  0
  -30.6680  -19.8950   22.0370 C   0  0  0  0  0  3  0  0  0  0  0  0
  -31.2280  -17.9270   20.6910 C   0  0  0  0  0  3  0  0  0  0  0  0
  -31.7100  -19.3010   20.1410 C   0  0  1  0  0  0  0  0  0  0  0  0
  -29.1970  -21.8780   21.0700 C   0  0  0  0  0  0  0  0  0  0  0  0
  -29.6390  -22.9010   20.3080 N   0  0  0  0  0  0  0  0  0  0  0  0
  -28.3240  -22.0440   21.9230 O   0  0  0  0  0  0  0  0  0  0  0  0
  -30.3090  -22.6440   19.5980 H   0  0  0  0  0  0  0  0  0  0  0  0
  -29.6120  -24.3400   20.6500 C   0  0  0  0  0  2  0  0  0  0  0  0
  -28.3350  -25.1250   20.2700 C   0  0  0  0  0  2  0  0  0  0  0  0
  -28.4760  -26.5420   20.5430 O   0  0  0  0  0  0  0  0  0  0  0  0
  -24.6840  -31.8980   23.3840 C   0  0  0  0  0  0  0  0  0  0  0  0
  -27.3330  -27.3230   20.4680 C   0  0  0  0  0  0  0  0  0  0  0  0
  -23.5070  -30.4790   21.7390 C   0  0  0  0  0  3  0  0  0  0  0  0
  -24.9740  -28.8960   20.3820 C   0  0  0  0  0  0  0  0  0  0  0  0
  -26.0450  -30.7870   21.6110 C   0  0  0  0  0  2  0  0  0  0  0  0
  -26.1240  -29.4000   20.9990 C   0  0  0  0  0  0  0  0  0  0  0  0
  -27.3060  -28.6190   21.0430 C   0  0  0  0  0  3  0  0  0  0  0  0
  -26.1600  -26.8520   19.8290 C   0  0  0  0  0  3  0  0  0  0  0  0
  -24.9860  -27.6230   19.7940 C   0  0  0  0  0  3  0  0  0  0  0  0
  -23.7470  -29.7790   20.3760 C   0  0  0  0  0  2  0  0  0  0  0  0
  -24.7620  -31.0700   22.3030 N   0  0  0  0  0  0  0  0  0  0  0  0
  -23.5920  -32.1950   23.8890 O   0  0  0  0  0  0  0  0  0  0  0  0
  -22.8170  -29.4830   22.7010 C   0  0  0  0  0  0  0  0  0  0  0  0
  -21.5060  -29.2670   22.5070 N   0  0  0  0  0  0  0  0  0  0  0  0
  -23.4610  -28.9040   23.5800 O   0  0  0  0  0  0  0  0  0  0  0  0
  -21.0460  -29.7930   21.7780 H   0  0  0  0  0  0  0  0  0  0  0  0
  -18.1380  -27.9900   22.8250 C   0  0  0  0  0  0  0  0  0  0  0  0
  -20.6610  -28.3470   23.2680 C   0  0  0  0  0  3  0  0  0  0  0  0
  -20.8480  -26.8900   22.7840 C   0  0  0  0  0  2  0  0  0  0  0  0
  -19.8340  -26.4770   21.7120 C   0  0  0  0  0  2  0  0  0  0  0  0
  -18.4040  -26.6130   22.2450 C   0  0  0  0  0  2  0  0  0  0  0  0
  -19.1980  -28.8110   23.2930 C   0  0  0  0  0  0  0  0  0  0  0  0
  -18.9020  -30.0970   23.7920 C   0  0  0  0  0  3  0  0  0  0  0  0
  -17.5740  -30.5650   23.8320 C   0  0  0  0  0  3  0  0  0  0  0  0
  -16.5260  -29.7420   23.3840 C   0  0  0  0  0  3  0  0  0  0  0  0
  -16.8080  -28.4580   22.8850 C   0  0  0  0  0  3  0  0  0  0  0  0
  -25.9600  -32.5290   24.0230 C   0  0  0  0  0  3  0  0  0  0  0  0
  -25.6540  -33.9320   24.3320 N   0  0  0  0  0  0  0  0  0  0  0  0
  -25.9850  -34.9720   23.5540 C   0  0  0  0  0  0  0  0  0  0  0  0
  -26.6560  -34.8540   22.5250 O   0  0  0  0  0  0  0  0  0  0  0  0
  -25.0650  -34.1000   25.1340 H   0  0  0  0  0  0  0  0  0  0  0  0
  -24.2580  -36.7610   23.1710 C   0  0  0  0  0  1  0  0  0  0  0  0
  -25.4980  -36.3680   23.9900 C   0  0  0  0  0  3  0  0  0  0  0  0
  -27.6240  -37.2760   24.8210 C   0  0  0  0  0  1  0  0  0  0  0  0
  -26.5310  -37.4200   23.8610 N   0  0  0  0  0  0  0  0  0  0  0  0
  -26.1210  -38.3430   23.9850 H   0  0  0  0  0  0  0  0  0  0  0  0
  -26.4490  -31.7700   25.3170 C   0  0  1  0  0  0  0  0  0  0  0  0
  -25.3290  -31.5250   26.3550 C   0  0  0  0  0  1  0  0  0  0  0  0
  -27.0590  -30.3990   24.9460 C   0  0  0  0  0  1  0  0  0  0  0  0
  -27.5690  -32.5810   26.0120 C   0  0  0  0  0  1  0  0  0  0  0  0
  -30.5730  -16.9570   19.6820 C   0  0  0  0  0  2  0  0  0  0  0  0
  -31.1460  -14.5280   19.9670 C   0  0  0  0  0  0  0  0  0  0  0  0
  -30.7880  -12.3280   18.9460 C   0  0  0  0  0  2  0  0  0  0  0  0
  -29.7980  -12.5420   17.7790 C   0  0  0  0  0  2  0  0  0  0  0  0
  -28.3390  -12.4610   18.2740 C   0  0  0  0  0  2  0  0  0  0  0  0
  -28.0820  -13.3290   19.5350 C   0  0  0  0  0  3  0  0  0  0  0  0
  -29.1810  -13.0950   20.5990 C   0  0  0  0  0  2  0  0  0  0  0  0
  -30.4850  -13.3430   19.9650 N   0  0  0  0  0  0  0  0  0  0  0  0
  -32.2910  -14.6610   19.5280 O   0  0  0  0  0  0  0  0  0  0  0  0
  -30.3650  -15.6000   20.2210 N   0  0  0  0  0  0  0  0  0  0  0  0
  -29.4420  -15.3960   20.5780 H   0  0  0  0  0  0  0  0  0  0  0  0
  -25.7620  -14.0360   20.3930 C   0  0  0  0  0  0  0  0  0  0  0  0
  -24.6740  -13.3070   20.7980 C   0  0  0  0  0  0  0  0  0  0  0  0
  -25.0650  -11.9350   20.7040 C   0  0  0  0  0  0  0  0  0  0  0  0
  -26.7450  -13.1090   20.0790 N   0  0  0  0  0  0  0  0  0  0  0  0
  -26.3320  -11.8400   20.3250 N   0  0  0  0  0  0  0  0  0  0  0  0
  -24.2860  -10.7060   20.8960 C   0  0  0  0  0  0  0  0  0  0  0  0
  -24.6790   -9.7240   21.8330 C   0  0  0  0  0  3  0  0  0  0  0  0
  -23.9040   -8.5590   22.0140 C   0  0  0  0  0  3  0  0  0  0  0  0
  -22.7230   -8.3660   21.2570 C   0  0  0  0  0  0  0  0  0  0  0  0
  -22.3490   -9.3370   20.3110 C   0  0  0  0  0  3  0  0  0  0  0  0
  -23.1250  -10.4940   20.1280 C   0  0  0  0  0  3  0  0  0  0  0  0
  -21.9210   -7.2530   21.3460 O   0  0  0  0  0  0  0  0  0  0  0  0
  -21.7880   -6.5570   22.5210 C   0  0  0  0  0  0  0  0  0  0  0  0
  -21.2600   -7.1550   23.6870 C   0  0  0  0  0  3  0  0  0  0  0  0
  -21.0750   -6.3850   24.8530 C   0  0  0  0  0  3  0  0  0  0  0  0
  -21.4050   -5.0160   24.8510 C   0  0  0  0  0  0  0  0  0  0  0  0
  -21.9240   -4.4180   23.6890 C   0  0  0  0  0  3  0  0  0  0  0  0
  -22.1120   -5.1860   22.5270 C   0  0  0  0  0  0  0  0  0  0  0  0
  -22.5930   -4.6010   21.4050 F   0  0  0  0  0  0  0  0  0  0  0  0
  -21.2190   -4.2720   25.9660 F   0  0  0  0  0  0  0  0  0  0  0  0
  -23.3220  -13.8450   21.1560 C   0  0  0  0  0  0  0  0  0  0  0  0
  -22.6080  -13.1660   22.0460 N   0  0  0  0  0  0  0  0  0  0  0  0
  -22.9040  -14.9020   20.6840 O   0  0  0  0  0  0  0  0  0  0  0  0
  -22.9540  -12.3090   22.4520 H   0  0  0  0  0  0  0  0  0  0  0  0
  -21.7010  -13.5080   22.3270 H   0  0  0  0  0  0  0  0  0  0  0  0
  -25.9890  -15.4010   20.2420 N   0  0  0  0  0  0  0  0  0  0  0  0
  -25.2690  -16.0930   20.4140 H   0  0  0  0  0  0  0  0  0  0  0  0
  -26.8360  -15.8070   19.8670 H   0  0  0  0  0  0  0  0  0  0  0  0
  -32.8460  -19.2310   19.0940 C   0  0  0  0  0  2  0  0  0  0  0  0
  -33.6350  -20.5320   18.8330 C   0  0  0  0  0  2  0  0  0  0  0  0
  -33.8630  -22.6910   17.5010 C   0  0  0  0  0  1  0  0  0  0  0  0
  -32.9380  -21.5480   17.9140 C   0  0  0  0  0  2  0  0  0  0  0  0
  1  7  1  0
  1  2  1  0
  2  8  1  0
  2  5  1  0
  3  5  1  0
  5  4  1  0
  6 55  1  0
  6  3  1  0
  7 94  1  6
  7  6  1  0
  7  4  1  0
  8 10  2  0
  9 12  1  0
  9  8  1  0
 11  9  1  0
 13 14  1  0
 13 12  1  0
 15 26  2  0
 16 14  1  0
 16 21  1  0
 17 25  1  0
 17 27  1  0
 18 20  1  0
 19 25  1  0
 20 21  2  0
 20 19  1  0
 22 16  2  0
 23 22  1  0
 23 18  2  0
 24 18  1  0
 24 17  1  0
 25 15  1  0
 27 29  2  0
 28 27  1  0
 30 28  1  0
 31 40  2  0
 31 36  1  0
 32 28  1  0
 32 36  1  0
 33 32  1  0
 34 35  1  0
 34 33  1  0
 35 31  1  0
 36 37  2  0
 37 38  1  0
 39 38  2  0
 40 39  1  0
 41 15  1  0
 41 42  1  0
 41 51  1  0
 42 45  1  0
 43 47  1  0
 43 42  1  0
 44 43  2  0
 47 46  1  0
 49 50  1  0
 49 47  1  0
 49 48  1  0
 51 54  1  1
 51 52  1  0
 53 51  1  0
 55 64  1  0
 56 64  1  0
 57 62  1  0
 58 59  1  0
 58 57  1  0
 60 59  1  0
 60 69  1  0
 60 61  1  0
 62 56  1  0
 62 61  1  0
 63 56  2  0
 64 65  1  0
 66 67  2  0
 67 86  1  0
 68 67  1  0
 68 71  1  0
 69 70  1  0
 69 66  1  0
 70 68  2  0
 71 72  1  0
 72 73  2  0
 74 77  1  0
 74 73  1  0
 75 74  2  0
 76 75  1  0
 76 71  2  0
 77 78  1  0
 78 83  2  0
 78 79  1  0
 79 80  2  0
 81 80  1  0
 81 85  1  0
 82 81  2  0
 83 82  1  0
 84 83  1  0
 86 87  1  0
 87 90  1  0
 87 89  1  0
 88 86  2  0
 91 66  1  0
 91 92  1  0
 93 91  1  0
 95 94  1  0
 96 97  1  0
 97 95  1  0
M  ISO  4  13 101  14 101  56 100  64 100
M  END
>  <TORSDO>  (29) 
F 23

>  <SCORE>  (29) 
-12.547

>  <name>  (29) 
28

>  <ligand_id>  (29) 
28

>  <original_smiles>  (29) 
[H]C1=C(C(=O)N([H])C([H])([H])C([H])([H])Oc2c([H])c([H])c3c(c2[H])C([H])([H])N(C(=O)C([H])(N([H])C(=O)C([H])(N([H])C([H])([H])[H])C([H])([H])[H])C(C([H])([H])[H])(C([H])([H])[H])C([H])([H])[H])C([H])(C(=O)N([H])C2([H])c4c([H])c([H])c([H])c([H])c4C([H])([H])C([H])([H])C2([H])[H])C3([H])[H])C2([H])C([H])([H])C([H])(C([H])([H])N([H])C(=O)N3C([H])([H])C([H])([H])C([H])([H])C([H])(n4nc(-c5c([H])c([H])c(Oc6c([H])c([H])c(F)c([H])c6F)c([H])c5[H])c(C(=O)N([H])[H])c4N([H])[H])C3([H])[H])C1(C([H])([H])C([H])([H])C([H])([H])C([H])([H])[H])C2([H])[H]

>  <smiles>  (29) 
[H]C1=C(C(=O)N([H])C([H])([H])C([H])([H])Oc2c([H])c([H])c3c(c2[H])C([H])([H])N(C(=O)C([H])(N([H])C(=O)C([H])(N([H])C([H])([H])[H])C([H])([H])[H])C(C([H])([H])[H])(C([H])([H])[H])C([H])([H])[H])C([H])(C(=O)N([H])C2([H])c4c([H])c([H])c([H])c([H])c4C([H])([H])C([H])([H])C2([H])[H])C3([H])[H])C2([H])C([H])([H])C([H])(C([H])([H])N([H])C(=O)N3C([H])([H])C([H])([H])C([H])([H])C([H])(n4nc(-c5c([H])c([H])c(Oc6c([H])c([H])c(F)c([H])c6F)c([H])c5[H])c(C(=O)N([H])[H])c4N([H])[H])C3([H])[H])C1(C([H])([H])C([H])([H])C([H])([H])C([H])([H])[H])C2([H])[H]

$$$$
29:0:0
     RDKit          3D

 92100  0  0  1  0  0  0  0  0999 V2000
  -29.3830  -20.3580   18.0990 C   0  0  0  0  0  2  0  0  0  0  0  0
  -29.8600  -19.1780   18.9650 C   0  0  0  0  0  2  0  0  0  0  0  0
  -29.7800  -21.7490   18.6180 C   0  0  0  0  0  2  0  0  0  0  0  0
  -28.4300  -20.1170   20.8940 C   0  0  0  0  0  2  0  0  0  0  0  0
  -28.6610  -21.6400   20.9450 C   0  0  0  0  0  2  0  0  0  0  0  0
  -29.7000  -19.3340   20.4930 C   0  0  0  0  0  3  0  0  0  0  0  0
  -28.7440  -22.3660   19.5860 C   0  0  0  0  0  3  0  0  0  0  0  0
  -29.7730  -17.9640   21.2050 C   0  0  0  0  0  2  0  0  0  0  0  0
  -31.1710  -17.3270   21.1320 C   0  0  0  0  0  2  0  0  0  0  0  0
  -31.2960  -16.0090   21.9200 C   0  0  0  0  0  2  0  0  0  0  0  0
  -30.7840  -14.2420   20.2440 C   0  0  0  0  0  0  0  0  0  0  0  0
  -30.2940  -12.2280   18.9100 C   0  0  0  0  0  2  0  0  0  0  0  0
  -29.2790  -12.5060   17.7870 C   0  0  0  0  0  2  0  0  0  0  0  0
  -27.8390  -12.3620   18.3070 C   0  0  0  0  0  2  0  0  0  0  0  0
  -27.5980  -13.1520   19.6200 C   0  0  0  0  0  3  0  0  0  0  0  0
  -28.7110  -12.8590   20.6500 C   0  0  0  0  0  2  0  0  0  0  0  0
  -30.0170  -13.1450   20.0250 N   0  0  0  0  0  0  0  0  0  0  0  0
  -31.7380  -14.5570   19.5270 O   0  0  0  0  0  0  0  0  0  0  0  0
  -30.4930  -14.9260   21.3580 N   0  0  0  0  0  0  0  0  0  0  0  0
  -29.7160  -14.5880   21.9050 H   0  0  0  0  0  0  0  0  0  0  0  0
  -25.2430  -13.7600   20.4670 C   0  0  0  0  0  0  0  0  0  0  0  0
  -24.1930  -12.9870   20.8860 C   0  0  0  0  0  0  0  0  0  0  0  0
  -24.6460  -11.6340   20.8100 C   0  0  0  0  0  0  0  0  0  0  0  0
  -26.2700  -12.8790   20.1680 N   0  0  0  0  0  0  0  0  0  0  0  0
  -25.9170  -11.5940   20.4290 N   0  0  0  0  0  0  0  0  0  0  0  0
  -23.9270  -10.3720   21.0270 C   0  0  0  0  0  0  0  0  0  0  0  0
  -24.3880   -9.4070   21.9500 C   0  0  0  0  0  3  0  0  0  0  0  0
  -23.6700   -8.2090   22.1530 C   0  0  0  0  0  3  0  0  0  0  0  0
  -22.4760   -7.9670   21.4320 C   0  0  0  0  0  0  0  0  0  0  0  0
  -22.0340   -8.9200   20.4980 C   0  0  0  0  0  3  0  0  0  0  0  0
  -22.7520  -10.1090   20.2930 C   0  0  0  0  0  3  0  0  0  0  0  0
  -21.7270   -6.8210   21.5440 O   0  0  0  0  0  0  0  0  0  0  0  0
  -21.6950   -6.0920   22.7050 C   0  0  0  0  0  0  0  0  0  0  0  0
  -21.2660   -6.6550   23.9270 C   0  0  0  0  0  3  0  0  0  0  0  0
  -21.1830   -5.8510   25.0810 C   0  0  0  0  0  3  0  0  0  0  0  0
  -21.5190   -4.4850   25.0150 C   0  0  0  0  0  0  0  0  0  0  0  0
  -21.9420   -3.9230   23.7980 C   0  0  0  0  0  3  0  0  0  0  0  0
  -22.0270   -4.7240   22.6460 C   0  0  0  0  0  0  0  0  0  0  0  0
  -22.4140   -4.1700   21.4720 F   0  0  0  0  0  0  0  0  0  0  0  0
  -21.4330   -3.7120   26.1230 F   0  0  0  0  0  0  0  0  0  0  0  0
  -22.8160  -13.4650   21.2460 C   0  0  0  0  0  0  0  0  0  0  0  0
  -22.1340  -12.7540   22.1380 N   0  0  0  0  0  0  0  0  0  0  0  0
  -22.3540  -14.5020   20.7710 O   0  0  0  0  0  0  0  0  0  0  0  0
  -22.5220  -11.9150   22.5440 H   0  0  0  0  0  0  0  0  0  0  0  0
  -21.2120  -13.0570   22.4210 H   0  0  0  0  0  0  0  0  0  0  0  0
  -25.4020  -15.1330   20.2990 N   0  0  0  0  0  0  0  0  0  0  0  0
  -24.6490  -15.7910   20.4630 H   0  0  0  0  0  0  0  0  0  0  0  0
  -26.2450  -15.5730   19.9510 H   0  0  0  0  0  0  0  0  0  0  0  0
  -29.0370  -23.8640   19.8290 C   0  0  0  0  0  2  0  0  0  0  0  0
  -28.6380  -24.7780   18.6570 C   0  0  0  0  0  2  0  0  0  0  0  0
  -28.9450  -26.2660   18.9080 C   0  0  0  0  0  2  0  0  0  0  0  0
  -28.4520  -26.7530   20.1570 O   0  0  0  0  0  0  0  0  0  0  0  0
  -24.5650  -31.8650   23.1980 C   0  0  0  0  0  0  0  0  0  0  0  0
  -27.2590  -27.4360   20.1490 C   0  0  0  0  0  0  0  0  0  0  0  0
  -23.3750  -30.4440   21.5590 C   0  0  0  0  0  3  0  0  0  0  0  0
  -24.8450  -28.9010   20.1580 C   0  0  0  0  0  0  0  0  0  0  0  0
  -25.8980  -30.8150   21.3750 C   0  0  0  0  0  2  0  0  0  0  0  0
  -25.9920  -29.4380   20.7540 C   0  0  0  0  0  0  0  0  0  0  0  0
  -27.1980  -28.7030   20.7630 C   0  0  0  0  0  3  0  0  0  0  0  0
  -26.0910  -26.9000   19.5640 C   0  0  0  0  0  3  0  0  0  0  0  0
  -24.8860  -27.6260   19.5690 C   0  0  0  0  0  3  0  0  0  0  0  0
  -23.5960  -29.7530   20.1870 C   0  0  0  0  0  2  0  0  0  0  0  0
  -24.6310  -31.0570   22.1020 N   0  0  0  0  0  0  0  0  0  0  0  0
  -23.4790  -32.1380   23.7280 O   0  0  0  0  0  0  0  0  0  0  0  0
  -22.7230  -29.4270   22.5240 C   0  0  0  0  0  0  0  0  0  0  0  0
  -21.3980  -29.2500   22.3960 N   0  0  0  0  0  0  0  0  0  0  0  0
  -23.4050  -28.8030   23.3400 O   0  0  0  0  0  0  0  0  0  0  0  0
  -20.9110  -29.8050   21.7070 H   0  0  0  0  0  0  0  0  0  0  0  0
  -18.0140  -28.0990   22.9220 C   0  0  0  0  0  0  0  0  0  0  0  0
  -20.5770  -28.3170   23.1690 C   0  0  0  0  0  3  0  0  0  0  0  0
  -20.6540  -26.8890   22.5820 C   0  0  0  0  0  2  0  0  0  0  0  0
  -19.5360  -26.5900   21.5780 C   0  0  0  0  0  2  0  0  0  0  0  0
  -18.1630  -26.7510   22.2360 C   0  0  0  0  0  2  0  0  0  0  0  0
  -19.1470  -28.8420   23.3460 C   0  0  0  0  0  0  0  0  0  0  0  0
  -18.9540  -30.1050   23.9470 C   0  0  0  0  0  3  0  0  0  0  0  0
  -17.6580  -30.6260   24.1250 C   0  0  0  0  0  3  0  0  0  0  0  0
  -16.5400  -29.8800   23.7170 C   0  0  0  0  0  3  0  0  0  0  0  0
  -16.7180  -28.6170   23.1230 C   0  0  0  0  0  3  0  0  0  0  0  0
  -25.8450  -32.5060   23.8210 C   0  0  0  0  0  3  0  0  0  0  0  0
  -25.5270  -33.9030   24.1440 N   0  0  0  0  0  0  0  0  0  0  0  0
  -25.8580  -34.9530   23.3810 C   0  0  0  0  0  0  0  0  0  0  0  0
  -26.5360  -34.8490   22.3550 O   0  0  0  0  0  0  0  0  0  0  0  0
  -24.9240  -34.0570   24.9380 H   0  0  0  0  0  0  0  0  0  0  0  0
  -24.1280  -36.7360   22.9950 C   0  0  0  0  0  1  0  0  0  0  0  0
  -25.3590  -36.3410   23.8280 C   0  0  0  0  0  3  0  0  0  0  0  0
  -27.4760  -37.2350   24.6910 C   0  0  0  0  0  1  0  0  0  0  0  0
  -26.3880  -37.3980   23.7280 N   0  0  0  0  0  0  0  0  0  0  0  0
  -25.9760  -38.3150   23.8700 H   0  0  0  0  0  0  0  0  0  0  0  0
  -26.3630  -31.7400   25.1000 C   0  0  1  0  0  0  0  0  0  0  0  0
  -25.2680  -31.4900   26.1620 C   0  0  0  0  0  1  0  0  0  0  0  0
  -26.9600  -30.3690   24.7070 C   0  0  0  0  0  1  0  0  0  0  0  0
  -27.5040  -32.5430   25.7670 C   0  0  0  0  0  1  0  0  0  0  0  0
  1  3  1  0
  1  2  1  0
  2  6  1  0
  3  7  1  0
  4  5  1  0
  6  4  1  0
  6  8  1  0
  7 49  1  0
  7  5  1  0
  9  8  1  0
  9 10  1  0
 11 19  1  0
 12 17  1  0
 13 14  1  0
 13 12  1  0
 15 14  1  0
 15 24  1  0
 15 16  1  0
 17 11  1  0
 17 16  1  0
 18 11  2  0
 19 20  1  0
 19 10  1  0
 21 22  2  0
 22 41  1  0
 23 22  1  0
 23 26  1  0
 24 25  1  0
 24 21  1  0
 25 23  2  0
 26 27  1  0
 27 28  2  0
 29 32  1  0
 29 28  1  0
 30 29  2  0
 31 30  1  0
 31 26  2  0
 32 33  1  0
 33 34  1  0
 34 35  2  0
 36 35  1  0
 36 40  1  0
 37 36  2  0
 38 33  2  0
 38 37  1  0
 39 38  1  0
 41 42  1  0
 42 45  1  0
 42 44  1  0
 43 41  2  0
 46 47  1  0
 46 21  1  0
 48 46  1  0
 50 51  1  0
 50 49  1  0
 51 52  1  0
 53 64  2  0
 54 52  1  0
 54 59  1  0
 55 63  1  0
 55 65  1  0
 56 62  1  0
 56 58  1  0
 57 63  1  0
 58 59  2  0
 58 57  1  0
 60 61  1  0
 60 54  2  0
 61 56  2  0
 62 55  1  0
 63 53  1  0
 65 67  2  0
 66 65  1  0
 68 66  1  0
 69 78  2  0
 69 74  1  0
 70 66  1  0
 70 74  1  0
 71 70  1  0
 72 73  1  0
 72 71  1  0
 73 69  1  0
 74 75  2  0
 75 76  1  0
 77 76  2  0
 78 77  1  0
 79 53  1  0
 79 80  1  0
 79 89  1  0
 80 83  1  0
 81 85  1  0
 81 80  1  0
 82 81  2  0
 85 84  1  0
 87 85  1  0
 87 88  1  0
 87 86  1  0
 89 92  1  1
 89 90  1  0
 91 89  1  0
M  ISO  4  11 100  19 100  51 101  52 101
M  END
>  <TORSDO>  (30) 
F 22

>  <SCORE>  (30) 
-12.873

>  <name>  (30) 
29

>  <ligand_id>  (30) 
29

>  <original_smiles>  (30) 
[H]c1c([H])c([H])c2c(c1[H])C([H])([H])C([H])([H])C([H])([H])C2([H])N([H])C(=O)C1([H])N(C(=O)C([H])(N([H])C(=O)C([H])(N([H])C([H])([H])[H])C([H])([H])[H])C(C([H])([H])[H])(C([H])([H])[H])C([H])([H])[H])C([H])([H])c2c([H])c(OC([H])([H])C([H])([H])C([H])([H])C3([H])C([H])([H])C([H])([H])C([H])([H])C([H])(C([H])([H])C([H])([H])C([H])([H])N([H])C(=O)N4C([H])([H])C([H])([H])C([H])([H])C([H])(n5nc(-c6c([H])c([H])c(Oc7c([H])c([H])c(F)c([H])c7F)c([H])c6[H])c(C(=O)N([H])[H])c5N([H])[H])C4([H])[H])C([H])([H])C3([H])[H])c([H])c([H])c2C1([H])[H]

>  <smiles>  (30) 
[H]c1c([H])c([H])c2c(c1[H])C([H])([H])C([H])([H])C([H])([H])C2([H])N([H])C(=O)C1([H])N(C(=O)C([H])(N([H])C(=O)C([H])(N([H])C([H])([H])[H])C([H])([H])[H])C(C([H])([H])[H])(C([H])([H])[H])C([H])([H])[H])C([H])([H])c2c([H])c(OC([H])([H])C([H])([H])C([H])([H])C3([H])C([H])([H])C([H])([H])C([H])([H])C([H])(C([H])([H])C([H])([H])C([H])([H])N([H])C(=O)N4C([H])([H])C([H])([H])C([H])([H])C([H])(n5nc(-c6c([H])c([H])c(Oc7c([H])c([H])c(F)c([H])c7F)c([H])c6[H])c(C(=O)N([H])[H])c5N([H])[H])C4([H])[H])C([H])([H])C3([H])[H])c([H])c([H])c2C1([H])[H]

$$$$
30:0:0
     RDKit          3D

 92101  0  0  1  0  0  0  0  0999 V2000
  -29.6120  -20.5550   19.8470 C   0  0  0  0  0  3  0  0  0  0  0  0
  -28.0350  -18.2410   21.0770 C   0  0  0  0  0  2  0  0  0  0  0  0
  -28.4190  -17.7440   19.6690 C   0  0  0  0  0  2  0  0  0  0  0  0
  -30.2480  -17.4630   21.9590 C   0  0  0  0  0  2  0  0  0  0  0  0
  -30.6560  -16.9310   20.5600 C   0  0  0  0  0  3  0  0  0  0  0  0
  -29.3960  -18.7180   21.6310 C   0  0  0  0  0  3  0  0  0  0  0  0
  -29.9440  -17.9980   19.6550 C   0  0  0  0  0  3  0  0  0  0  0  0
  -30.0920  -19.2520   20.4490 N   0  0  1  0  0  4  0  0  0  0  0  0
  -31.0670  -19.3720   20.6830 H   0  0  0  0  0  0  0  0  0  0  0  0
  -30.9670  -14.5000   19.7620 C   0  0  0  0  0  0  0  0  0  0  0  0
  -30.5890  -12.3420   18.6060 C   0  0  0  0  0  2  0  0  0  0  0  0
  -29.5480  -12.5390   17.4830 C   0  0  0  0  0  2  0  0  0  0  0  0
  -28.1120  -12.4080   18.0300 C   0  0  0  0  0  2  0  0  0  0  0  0
  -27.8830  -13.2420   19.3180 C   0  0  0  0  0  3  0  0  0  0  0  0
  -29.0200  -13.0020   20.3360 C   0  0  0  0  0  2  0  0  0  0  0  0
  -30.2940  -13.3170   19.6670 N   0  0  0  0  0  0  0  0  0  0  0  0
  -32.0610  -14.6920   19.2240 O   0  0  0  0  0  0  0  0  0  0  0  0
  -30.2820  -15.5030   20.3600 N   0  0  0  0  0  0  0  0  0  0  0  0
  -29.3850  -15.2270   20.7290 H   0  0  0  0  0  0  0  0  0  0  0  0
  -25.5700  -13.8810   20.2470 C   0  0  0  0  0  0  0  0  0  0  0  0
  -24.5180  -13.1230   20.6840 C   0  0  0  0  0  0  0  0  0  0  0  0
  -24.9420  -11.7630   20.5740 C   0  0  0  0  0  0  0  0  0  0  0  0
  -26.5690  -12.9840   19.9010 N   0  0  0  0  0  0  0  0  0  0  0  0
  -26.1990  -11.7030   20.1570 N   0  0  0  0  0  0  0  0  0  0  0  0
  -24.2010  -10.5130   20.7880 C   0  0  0  0  0  0  0  0  0  0  0  0
  -24.6170   -9.5630   21.7480 C   0  0  0  0  0  3  0  0  0  0  0  0
  -23.8790   -8.3770   21.9480 C   0  0  0  0  0  3  0  0  0  0  0  0
  -22.7110   -8.1310   21.1880 C   0  0  0  0  0  0  0  0  0  0  0  0
  -22.3160   -9.0690   20.2170 C   0  0  0  0  0  3  0  0  0  0  0  0
  -23.0540  -10.2460   20.0150 C   0  0  0  0  0  3  0  0  0  0  0  0
  -21.9460   -6.9950   21.2960 O   0  0  0  0  0  0  0  0  0  0  0  0
  -21.7810   -6.3500   22.4950 C   0  0  0  0  0  0  0  0  0  0  0  0
  -21.2260   -6.9990   23.6190 C   0  0  0  0  0  3  0  0  0  0  0  0
  -21.0090   -6.2790   24.8110 C   0  0  0  0  0  3  0  0  0  0  0  0
  -21.3370   -4.9110   24.8780 C   0  0  0  0  0  0  0  0  0  0  0  0
  -21.8840   -4.2620   23.7570 C   0  0  0  0  0  3  0  0  0  0  0  0
  -22.1020   -4.9800   22.5680 C   0  0  0  0  0  0  0  0  0  0  0  0
  -22.6100   -4.3450   21.4830 F   0  0  0  0  0  0  0  0  0  0  0  0
  -21.1220   -4.2160   26.0190 F   0  0  0  0  0  0  0  0  0  0  0  0
  -23.1610  -13.6240   21.0870 C   0  0  0  0  0  0  0  0  0  0  0  0
  -22.4940  -12.9190   21.9940 N   0  0  0  0  0  0  0  0  0  0  0  0
  -22.7060  -14.6720   20.6320 O   0  0  0  0  0  0  0  0  0  0  0  0
  -22.8770  -12.0700   22.3820 H   0  0  0  0  0  0  0  0  0  0  0  0
  -21.5860  -13.2340   22.3060 H   0  0  0  0  0  0  0  0  0  0  0  0
  -25.7500  -15.2520   20.0930 N   0  0  0  0  0  0  0  0  0  0  0  0
  -24.9970  -15.9080   20.2700 H   0  0  0  0  0  0  0  0  0  0  0  0
  -26.5530  -15.6810   19.6550 H   0  0  0  0  0  0  0  0  0  0  0  0
  -29.2660  -21.7080   20.8560 C   0  0  0  0  0  3  0  0  0  0  0  0
  -29.1680  -23.1610   20.2580 C   0  0  0  0  0  2  0  0  0  0  0  0
  -28.4050  -24.2040   21.1450 C   0  0  0  0  0  2  0  0  0  0  0  0
  -28.9210  -25.6840   21.1990 C   0  0  0  0  0  2  0  0  0  0  0  0
  -28.6430  -26.5520   20.0840 O   0  0  0  0  0  0  0  0  0  0  0  0
  -24.6620  -31.6710   23.1900 C   0  0  0  0  0  0  0  0  0  0  0  0
  -27.4800  -27.2960   20.1380 C   0  0  0  0  0  0  0  0  0  0  0  0
  -23.5340  -30.2650   21.4970 C   0  0  0  0  0  3  0  0  0  0  0  0
  -25.0590  -28.7710   20.0970 C   0  0  0  0  0  0  0  0  0  0  0  0
  -26.0570  -30.6710   21.3760 C   0  0  0  0  0  2  0  0  0  0  0  0
  -26.1910  -29.3050   20.7280 C   0  0  0  0  0  0  0  0  0  0  0  0
  -27.4070  -28.5750   20.7490 C   0  0  0  0  0  3  0  0  0  0  0  0
  -26.3340  -26.7860   19.4980 C   0  0  0  0  0  3  0  0  0  0  0  0
  -25.1260  -27.5090   19.4800 C   0  0  0  0  0  3  0  0  0  0  0  0
  -23.7970  -29.6070   20.1170 C   0  0  0  0  0  2  0  0  0  0  0  0
  -24.7680  -30.8850   22.0790 N   0  0  0  0  0  0  0  0  0  0  0  0
  -23.5610  -31.9120   23.7030 O   0  0  0  0  0  0  0  0  0  0  0  0
  -22.8770  -29.2180   22.4270 C   0  0  0  0  0  0  0  0  0  0  0  0
  -21.5580  -29.0180   22.2710 N   0  0  0  0  0  0  0  0  0  0  0  0
  -23.5540  -28.5880   23.2440 O   0  0  0  0  0  0  0  0  0  0  0  0
  -21.0710  -29.5810   21.5880 H   0  0  0  0  0  0  0  0  0  0  0  0
  -18.1910  -27.7800   22.7030 C   0  0  0  0  0  0  0  0  0  0  0  0
  -20.7430  -28.0530   23.0090 C   0  0  0  0  0  3  0  0  0  0  0  0
  -20.8650  -26.6390   22.3960 C   0  0  0  0  0  2  0  0  0  0  0  0
  -19.7770  -26.3330   21.3630 C   0  0  0  0  0  2  0  0  0  0  0  0
  -18.3870  -26.4520   21.9940 C   0  0  0  0  0  2  0  0  0  0  0  0
  -19.2980  -28.5400   23.1660 C   0  0  0  0  0  0  0  0  0  0  0  0
  -19.0620  -29.7860   23.7850 C   0  0  0  0  0  3  0  0  0  0  0  0
  -17.7520  -30.2730   23.9490 C   0  0  0  0  0  3  0  0  0  0  0  0
  -16.6580  -29.5120   23.5020 C   0  0  0  0  0  3  0  0  0  0  0  0
  -16.8790  -28.2670   22.8850 C   0  0  0  0  0  3  0  0  0  0  0  0
  -25.9160  -32.3210   23.8520 C   0  0  0  0  0  3  0  0  0  0  0  0
  -25.5670  -33.7040   24.2030 N   0  0  0  0  0  0  0  0  0  0  0  0
  -25.8890  -34.7780   23.4700 C   0  0  0  0  0  0  0  0  0  0  0  0
  -26.5830  -34.7110   22.4520 O   0  0  0  0  0  0  0  0  0  0  0  0
  -24.9550  -33.8300   24.9950 H   0  0  0  0  0  0  0  0  0  0  0  0
  -24.1240  -36.5320   23.1090 C   0  0  0  0  0  1  0  0  0  0  0  0
  -25.3560  -36.1450   23.9430 C   0  0  0  0  0  3  0  0  0  0  0  0
  -27.4460  -37.0700   24.8410 C   0  0  0  0  0  1  0  0  0  0  0  0
  -26.3630  -37.2260   23.8730 N   0  0  0  0  0  0  0  0  0  0  0  0
  -25.9300  -38.1320   24.0270 H   0  0  0  0  0  0  0  0  0  0  0  0
  -26.4260  -31.5370   25.1230 C   0  0  1  0  0  0  0  0  0  0  0  0
  -25.3140  -31.2490   26.1600 C   0  0  0  0  0  1  0  0  0  0  0  0
  -27.0540  -30.1860   24.7110 C   0  0  0  0  0  1  0  0  0  0  0  0
  -27.5370  -32.3480   25.8300 C   0  0  0  0  0  1  0  0  0  0  0  0
  1  8  1  0
  1 48  2  0
  3  2  1  0
  5 18  1  0
  5  4  1  0
  6  2  1  0
  6  4  1  0
  7  3  1  0
  7  8  1  0
  7  5  1  0
  8  9  1  1
  8  6  1  0
 10 18  1  0
 11 16  1  0
 12 13  1  0
 12 11  1  0
 14 13  1  0
 14 23  1  0
 14 15  1  0
 16 10  1  0
 16 15  1  0
 17 10  2  0
 18 19  1  0
 20 21  2  0
 21 40  1  0
 22 21  1  0
 22 25  1  0
 23 24  1  0
 23 20  1  0
 24 22  2  0
 25 26  1  0
 26 27  2  0
 28 31  1  0
 28 27  1  0
 29 28  2  0
 30 29  1  0
 30 25  2  0
 31 32  1  0
 32 37  2  0
 32 33  1  0
 33 34  2  0
 34 35  1  0
 35 39  1  0
 36 35  2  0
 37 36  1  0
 38 37  1  0
 40 41  1  0
 41 44  1  0
 41 43  1  0
 42 40  2  0
 45 20  1  0
 45 46  1  0
 47 45  1  0
 49 48  1  0
 49 50  1  0
 50 51  1  0
 52 54  1  0
 52 51  1  0
 53 64  2  0
 54 59  1  0
 55 63  1  0
 55 65  1  0
 56 62  1  0
 56 58  1  0
 57 63  1  0
 58 59  2  0
 58 57  1  0
 60 54  2  0
 61 60  1  0
 61 56  2  0
 62 55  1  0
 63 53  1  0
 65 67  2  0
 66 65  1  0
 68 66  1  0
 69 78  2  0
 69 74  1  0
 70 66  1  0
 70 74  1  0
 71 70  1  0
 72 73  1  0
 72 71  1  0
 73 69  1  0
 74 75  2  0
 75 76  1  0
 77 76  2  0
 78 77  1  0
 79 53  1  0
 79 80  1  0
 79 89  1  0
 80 83  1  0
 81 85  1  0
 81 80  1  0
 82 81  2  0
 85 84  1  0
 87 85  1  0
 87 88  1  0
 87 86  1  0
 89 92  1  1
 89 90  1  0
 91 89  1  0
M  ISO  4  10 100  18 100  51 101  52 101
M  END
>  <TORSDO>  (31) 
F 21

>  <SCORE>  (31) 
-11.298

>  <name>  (31) 
30

>  <ligand_id>  (31) 
30

>  <original_smiles>  (31) 
[H]c1c([H])c([H])c2c(c1[H])C([H])([H])C([H])([H])C([H])([H])C2([H])N([H])C(=O)C1([H])N(C(=O)C([H])(N([H])C(=O)C([H])(N([H])C([H])([H])[H])C([H])([H])[H])C(C([H])([H])[H])(C([H])([H])[H])C([H])([H])[H])C([H])([H])c2c([H])c(OC([H])([H])C([H])([H])C([H])([H])C([H])([H])C([H])([H])[N+]3([H])C4([H])C([H])([H])C([H])([H])C3([H])C([H])(N([H])C(=O)N3C([H])([H])C([H])([H])C([H])([H])C([H])(n5nc(-c6c([H])c([H])c(Oc7c([H])c([H])c(F)c([H])c7F)c([H])c6[H])c(C(=O)N([H])[H])c5N([H])[H])C3([H])[H])C4([H])[H])c([H])c([H])c2C1([H])[H]

>  <smiles>  (31) 
[H]c1c([H])c([H])c2c(c1[H])C([H])([H])C([H])([H])C([H])([H])C2([H])N([H])C(=O)C1([H])N(C(=O)C([H])(N([H])C(=O)C([H])(N([H])C([H])([H])[H])C([H])([H])[H])C(C([H])([H])[H])(C([H])([H])[H])C([H])([H])[H])C([H])([H])c2c([H])c(OC([H])([H])C([H])([H])C([H])([H])C([H])([H])C([H])([H])[N+]3([H])C4([H])C([H])([H])C([H])([H])C3([H])C([H])(N([H])C(=O)N3C([H])([H])C([H])([H])C([H])([H])C([H])(n5nc(-c6c([H])c([H])c(Oc7c([H])c([H])c(F)c([H])c7F)c([H])c6[H])c(C(=O)N([H])[H])c5N([H])[H])C3([H])[H])C4([H])[H])c([H])c([H])c2C1([H])[H]

$$$$
31:0:0
     RDKit          3D

 96105  0  0  1  0  0  0  0  0999 V2000
  -26.3410  -19.4190   19.6240 C   0  0  0  0  0  3  0  0  0  0  0  0
  -27.2080  -18.3190   19.4540 C   0  0  0  0  0  3  0  0  0  0  0  0
  -29.0190  -19.5950   20.4550 C   0  0  0  0  0  3  0  0  0  0  0  0
  -28.1700  -20.7050   20.6000 C   0  0  0  0  0  0  0  0  0  0  0  0
  -26.8110  -20.6150   20.2040 C   0  0  0  0  0  0  0  0  0  0  0  0
  -28.5520  -18.3960   19.8860 C   0  0  0  0  0  0  0  0  0  0  0  0
  -28.7280  -21.9630   21.1400 C   0  0  0  0  0  0  0  0  0  0  0  0
  -25.8560  -21.8000   20.3460 C   0  0  0  0  0  2  0  0  0  0  0  0
  -26.4550  -23.0020   21.1080 C   0  0  0  0  0  2  0  0  0  0  0  0
  -27.9360  -23.2060   20.7330 C   0  0  0  0  0  3  0  0  0  0  0  0
  -29.7660  -22.0350   21.8090 O   0  0  0  0  0  0  0  0  0  0  0  0
  -29.5040  -17.2220   19.6990 C   0  0  0  0  0  2  0  0  0  0  0  0
  -31.8060  -17.5520   20.8420 C   0  0  0  0  0  1  0  0  0  0  0  0
  -30.3960  -16.9180   20.9380 C   0  0  0  0  0  3  0  0  0  0  0  0
  -31.0520  -14.5210   20.5540 C   0  0  0  0  0  0  0  0  0  0  0  0
  -30.7780  -12.3040   19.5390 C   0  0  0  0  0  2  0  0  0  0  0  0
  -29.8540  -12.4160   18.3080 C   0  0  0  0  0  2  0  0  0  0  0  0
  -28.3760  -12.3010   18.7290 C   0  0  0  0  0  2  0  0  0  0  0  0
  -28.0100  -13.2420   19.9090 C   0  0  0  0  0  3  0  0  0  0  0  0
  -29.0390  -13.0860   21.0530 C   0  0  0  0  0  2  0  0  0  0  0  0
  -30.3860  -13.3400   20.5030 N   0  0  0  0  0  0  0  0  0  0  0  0
  -32.1070  -14.7320   19.9470 O   0  0  0  0  0  0  0  0  0  0  0  0
  -30.4080  -15.4800   21.2210 N   0  0  0  0  0  0  0  0  0  0  0  0
  -29.6180  -15.1410   21.7530 H   0  0  0  0  0  0  0  0  0  0  0  0
  -25.6230  -13.9120   20.6270 C   0  0  0  0  0  0  0  0  0  0  0  0
  -24.5300  -13.1620   20.9680 C   0  0  0  0  0  0  0  0  0  0  0  0
  -24.9520  -11.7990   20.8980 C   0  0  0  0  0  0  0  0  0  0  0  0
  -26.6430  -13.0070   20.3720 N   0  0  0  0  0  0  0  0  0  0  0  0
  -26.2400  -11.7300   20.5890 N   0  0  0  0  0  0  0  0  0  0  0  0
  -24.1920  -10.5540   21.0550 C   0  0  0  0  0  0  0  0  0  0  0  0
  -24.5940   -9.5590   21.9740 C   0  0  0  0  0  3  0  0  0  0  0  0
  -23.8430   -8.3730   22.1210 C   0  0  0  0  0  3  0  0  0  0  0  0
  -22.6730   -8.1740   21.3470 C   0  0  0  0  0  0  0  0  0  0  0  0
  -22.2930   -9.1560   20.4160 C   0  0  0  0  0  3  0  0  0  0  0  0
  -23.0440  -10.3340   20.2680 C   0  0  0  0  0  3  0  0  0  0  0  0
  -21.8960   -7.0420   21.4010 O   0  0  0  0  0  0  0  0  0  0  0  0
  -21.8080   -6.2820   22.5400 C   0  0  0  0  0  0  0  0  0  0  0  0
  -21.3710   -6.8260   23.7670 C   0  0  0  0  0  3  0  0  0  0  0  0
  -21.2300   -5.9930   24.8950 C   0  0  0  0  0  3  0  0  0  0  0  0
  -21.5150   -4.6190   24.7950 C   0  0  0  0  0  0  0  0  0  0  0  0
  -21.9460   -4.0750   23.5730 C   0  0  0  0  0  3  0  0  0  0  0  0
  -22.0900   -4.9050   22.4460 C   0  0  0  0  0  0  0  0  0  0  0  0
  -22.4840   -4.3730   21.2650 F   0  0  0  0  0  0  0  0  0  0  0  0
  -21.3710   -3.8170   25.8760 F   0  0  0  0  0  0  0  0  0  0  0  0
  -23.1470  -13.6700   21.2590 C   0  0  0  0  0  0  0  0  0  0  0  0
  -22.4080  -12.9720   22.1170 N   0  0  0  0  0  0  0  0  0  0  0  0
  -22.7320  -14.7170   20.7660 O   0  0  0  0  0  0  0  0  0  0  0  0
  -22.7620  -12.1250   22.5350 H   0  0  0  0  0  0  0  0  0  0  0  0
  -21.4800  -13.2870   22.3540 H   0  0  0  0  0  0  0  0  0  0  0  0
  -25.8300  -15.2810   20.5030 N   0  0  0  0  0  0  0  0  0  0  0  0
  -25.1000  -15.9590   20.6850 H   0  0  0  0  0  0  0  0  0  0  0  0
  -26.7230  -15.7090   20.3020 H   0  0  0  0  0  0  0  0  0  0  0  0
  -28.5510  -24.5390   21.2130 C   0  0  0  0  0  2  0  0  0  0  0  0
  -27.9490  -25.7640   20.5100 C   0  0  0  0  0  2  0  0  0  0  0  0
  -28.2690  -25.8510   18.9930 C   0  0  0  0  0  2  0  0  0  0  0  0
  -28.2020  -27.1860   18.4960 O   0  0  0  0  0  0  0  0  0  0  0  0
  -24.8480  -31.4670   23.0010 C   0  0  0  0  0  0  0  0  0  0  0  0
  -27.0330  -27.8580   18.7460 C   0  0  0  0  0  0  0  0  0  0  0  0
  -23.4210  -30.4140   21.2760 C   0  0  0  0  0  3  0  0  0  0  0  0
  -24.6620  -29.2390   19.3830 C   0  0  0  0  0  0  0  0  0  0  0  0
  -25.8960  -30.8720   20.8250 C   0  0  0  0  0  2  0  0  0  0  0  0
  -25.8870  -29.6700   19.9070 C   0  0  0  0  0  0  0  0  0  0  0  0
  -27.0750  -28.9880   19.5840 C   0  0  0  0  0  3  0  0  0  0  0  0
  -25.7950  -27.4320   18.2140 C   0  0  0  0  0  3  0  0  0  0  0  0
  -24.6090  -28.1170   18.5370 C   0  0  0  0  0  3  0  0  0  0  0  0
  -23.4370  -30.0370   19.7710 C   0  0  0  0  0  2  0  0  0  0  0  0
  -24.7470  -30.9200   21.7580 N   0  0  0  0  0  0  0  0  0  0  0  0
  -23.8510  -31.5970   23.7250 O   0  0  0  0  0  0  0  0  0  0  0  0
  -22.9020  -29.2000   22.0780 C   0  0  0  0  0  0  0  0  0  0  0  0
  -21.5790  -28.9760   22.0280 N   0  0  0  0  0  0  0  0  0  0  0  0
  -23.6790  -28.4740   22.7020 O   0  0  0  0  0  0  0  0  0  0  0  0
  -21.0090  -29.6240   21.5000 H   0  0  0  0  0  0  0  0  0  0  0  0
  -18.3360  -27.4470   22.4460 C   0  0  0  0  0  0  0  0  0  0  0  0
  -20.8730  -27.8690   22.6720 C   0  0  0  0  0  3  0  0  0  0  0  0
  -21.0620  -26.5540   21.8800 C   0  0  0  0  0  2  0  0  0  0  0  0
  -19.9410  -26.2990   20.8660 C   0  0  0  0  0  2  0  0  0  0  0  0
  -18.5860  -26.2310   21.5730 C   0  0  0  0  0  2  0  0  0  0  0  0
  -19.4110  -28.2260   22.9500 C   0  0  0  0  0  0  0  0  0  0  0  0
  -19.1230  -29.3680   23.7300 C   0  0  0  0  0  3  0  0  0  0  0  0
  -17.7920  -29.7320   24.0070 C   0  0  0  0  0  3  0  0  0  0  0  0
  -16.7310  -28.9510   23.5160 C   0  0  0  0  0  3  0  0  0  0  0  0
  -17.0040  -27.8100   22.7400 C   0  0  0  0  0  3  0  0  0  0  0  0
  -26.2110  -31.9820   23.5620 C   0  0  0  0  0  3  0  0  0  0  0  0
  -25.9520  -33.2570   24.2420 N   0  0  0  0  0  0  0  0  0  0  0  0
  -26.2320  -34.4630   23.7300 C   0  0  0  0  0  0  0  0  0  0  0  0
  -26.8090  -34.6150   22.6510 O   0  0  0  0  0  0  0  0  0  0  0  0
  -25.4300  -33.2080   25.1050 H   0  0  0  0  0  0  0  0  0  0  0  0
  -24.5130  -36.2860   23.9550 C   0  0  0  0  0  1  0  0  0  0  0  0
  -25.8020  -35.6960   24.5480 C   0  0  0  0  0  3  0  0  0  0  0  0
  -28.0070  -36.3560   25.4040 C   0  0  0  0  0  1  0  0  0  0  0  0
  -26.8400  -36.7460   24.6180 N   0  0  0  0  0  0  0  0  0  0  0  0
  -26.4610  -37.6010   25.0150 H   0  0  0  0  0  0  0  0  0  0  0  0
  -26.9100  -30.9600   24.5400 C   0  0  1  0  0  0  0  0  0  0  0  0
  -25.9880  -30.4530   25.6730 C   0  0  0  0  0  1  0  0  0  0  0  0
  -27.4280  -29.7270   23.7600 C   0  0  0  0  0  1  0  0  0  0  0  0
  -28.1460  -31.6190   25.1960 C   0  0  0  0  0  1  0  0  0  0  0  0
  1  5  1  0
  2  1  2  0
  2  6  1  0
  3  4  1  0
  4  7  1  0
  5  8  1  0
  5  4  2  0
  6  3  2  0
  7 11  2  0
  8  9  1  0
 10  9  1  0
 10  7  1  0
 10 53  1  0
 12  6  1  0
 12 14  1  0
 14 13  1  0
 14 23  1  0
 15 23  1  0
 16 21  1  0
 17 18  1  0
 17 16  1  0
 19 18  1  0
 19 28  1  0
 19 20  1  0
 21 15  1  0
 21 20  1  0
 22 15  2  0
 23 24  1  0
 25 26  2  0
 26 45  1  0
 27 26  1  0
 27 30  1  0
 28 29  1  0
 28 25  1  0
 29 27  2  0
 30 31  1  0
 31 32  2  0
 33 36  1  0
 33 32  1  0
 34 33  2  0
 35 34  1  0
 35 30  2  0
 36 37  1  0
 37 38  1  0
 38 39  2  0
 40 39  1  0
 40 44  1  0
 41 40  2  0
 42 37  2  0
 42 41  1  0
 43 42  1  0
 45 46  1  0
 46 49  1  0
 46 48  1  0
 47 45  2  0
 50 25  1  0
 50 51  1  0
 52 50  1  0
 54 53  1  0
 55 54  1  0
 56 58  1  0
 56 55  1  0
 57 68  2  0
 58 63  1  0
 59 67  1  0
 59 69  1  0
 60 66  1  0
 60 62  1  0
 61 67  1  0
 62 61  1  0
 63 62  2  0
 64 65  1  0
 64 58  2  0
 65 60  2  0
 66 59  1  0
 67 57  1  0
 69 71  2  0
 70 69  1  0
 72 70  1  0
 73 82  2  0
 73 78  1  0
 74 70  1  0
 74 78  1  0
 75 74  1  0
 76 77  1  0
 76 75  1  0
 77 73  1  0
 78 79  2  0
 79 80  1  0
 81 80  2  0
 82 81  1  0
 83 57  1  0
 83 84  1  0
 83 93  1  0
 84 87  1  0
 85 84  1  0
 85 89  1  0
 86 85  2  0
 89 88  1  0
 89 91  1  0
 91 92  1  0
 91 90  1  0
 93 96  1  1
 93 94  1  0
 95 93  1  0
M  ISO  4  15 100  23 100  55 101  56 101
M  END
>  <TORSDO>  (32) 
F 21

>  <SCORE>  (32) 
-8.709

>  <name>  (32) 
31

>  <ligand_id>  (32) 
31

>  <original_smiles>  (32) 
[H]c1c([H])c([H])c2c(c1[H])C([H])([H])C([H])([H])C([H])([H])C2([H])N([H])C(=O)C1([H])N(C(=O)C([H])(N([H])C(=O)C([H])(N([H])C([H])([H])[H])C([H])([H])[H])C(C([H])([H])[H])(C([H])([H])[H])C([H])([H])[H])C([H])([H])c2c([H])c(OC([H])([H])C([H])([H])C([H])([H])C3([H])C(=O)c4c([H])c(C([H])([H])C([H])(N([H])C(=O)N5C([H])([H])C([H])([H])C([H])([H])C([H])(n6nc(-c7c([H])c([H])c(Oc8c([H])c([H])c(F)c([H])c8F)c([H])c7[H])c(C(=O)N([H])[H])c6N([H])[H])C5([H])[H])C([H])([H])[H])c([H])c([H])c4C([H])([H])C3([H])[H])c([H])c([H])c2C1([H])[H]

>  <smiles>  (32) 
[H]c1c([H])c([H])c2c(c1[H])C([H])([H])C([H])([H])C([H])([H])C2([H])N([H])C(=O)C1([H])N(C(=O)C([H])(N([H])C(=O)C([H])(N([H])C([H])([H])[H])C([H])([H])[H])C(C([H])([H])[H])(C([H])([H])[H])C([H])([H])[H])C([H])([H])c2c([H])c(OC([H])([H])C([H])([H])C([H])([H])C3([H])C(=O)c4c([H])c(C([H])([H])C([H])(N([H])C(=O)N5C([H])([H])C([H])([H])C([H])([H])C([H])(n6nc(-c7c([H])c([H])c(Oc8c([H])c([H])c(F)c([H])c8F)c([H])c7[H])c(C(=O)N([H])[H])c6N([H])[H])C5([H])[H])C([H])([H])[H])c([H])c([H])c4C([H])([H])C3([H])[H])c([H])c([H])c2C1([H])[H]

$$$$
32:0:0
     RDKit          3D

 95101  0  0  1  0  0  0  0  0999 V2000
  -29.7620  -18.5580   19.9880 C   0  0  0  0  0  2  0  0  0  0  0  0
  -28.8300  -20.2830   20.2100 C   0  0  0  0  0 15  0  0  0  0  0  0
  -29.7490  -20.4060   17.3910 C   0  0  0  0  0  2  0  0  0  0  0  0
  -29.3200  -21.8750   17.4330 C   0  0  0  0  0  2  0  0  0  0  0  0
  -30.9820  -20.0660   18.2720 C   0  0  0  0  0  2  0  0  0  0  0  0
  -29.7310  -22.6410   18.6980 C   0  0  0  0  0  2  0  0  0  0  0  0
  -30.9560  -18.6850   18.9470 C   0  0  1  0  0  0  0  0  0  0  0  0
  -29.0280  -22.2580   20.0440 C   0  0  0  0  0  3  0  0  0  0  0  0
  -29.5610  -17.1550   20.4580 N   0  0  0  0  0  2  0  0  0  0  0  0
  -30.3320  -15.7050   20.3650 C   0  0  0  0  0  0  0  0  0  0  0  0
  -30.4300  -13.1390   19.6430 C   0  0  0  0  0  2  0  0  0  0  0  0
  -29.5830  -12.7360   18.4040 C   0  0  0  0  0  2  0  0  0  0  0  0
  -28.1490  -12.3820   18.8190 C   0  0  0  0  0  2  0  0  0  0  0  0
  -27.5970  -13.4030   19.8390 C   0  0  0  0  0  3  0  0  0  0  0  0
  -28.5850  -13.7590   20.9710 C   0  0  0  0  0  2  0  0  0  0  0  0
  -29.7990  -14.3430   20.3580 N   0  0  0  0  0  0  0  0  0  0  0  0
  -31.5510  -15.5720   20.1890 O   0  0  0  0  0  0  0  0  0  0  0  0
  -25.2200  -13.9110   20.5700 C   0  0  0  0  0  0  0  0  0  0  0  0
  -24.1600  -13.1220   20.9140 C   0  0  0  0  0  0  0  0  0  0  0  0
  -24.6420  -11.7760   20.8870 C   0  0  0  0  0  0  0  0  0  0  0  0
  -26.2750  -13.0500   20.3370 N   0  0  0  0  0  0  0  0  0  0  0  0
  -25.9410  -11.7570   20.5980 N   0  0  0  0  0  0  0  0  0  0  0  0
  -23.9200  -10.5080   21.0590 C   0  0  0  0  0  0  0  0  0  0  0  0
  -24.3300   -9.5440   22.0080 C   0  0  0  0  0  3  0  0  0  0  0  0
  -23.6030   -8.3430   22.1700 C   0  0  0  0  0  3  0  0  0  0  0  0
  -22.4530   -8.0980   21.3830 C   0  0  0  0  0  0  0  0  0  0  0  0
  -22.0630   -9.0490   20.4240 C   0  0  0  0  0  3  0  0  0  0  0  0
  -22.7900  -10.2410   20.2620 C   0  0  0  0  0  3  0  0  0  0  0  0
  -21.7000   -6.9490   21.4520 O   0  0  0  0  0  0  0  0  0  0  0  0
  -21.6000   -6.2230   22.6120 C   0  0  0  0  0  0  0  0  0  0  0  0
  -21.1000   -6.7890   23.8060 C   0  0  0  0  0  3  0  0  0  0  0  0
  -20.9490   -5.9890   24.9560 C   0  0  0  0  0  3  0  0  0  0  0  0
  -21.2880   -4.6230   24.9130 C   0  0  0  0  0  0  0  0  0  0  0  0
  -21.7790   -4.0560   23.7240 C   0  0  0  0  0  3  0  0  0  0  0  0
  -21.9330   -4.8540   22.5760 C   0  0  0  0  0  0  0  0  0  0  0  0
  -22.3880   -4.2980   21.4270 F   0  0  0  0  0  0  0  0  0  0  0  0
  -21.1350   -3.8510   26.0140 F   0  0  0  0  0  0  0  0  0  0  0  0
  -22.7550  -13.5860   21.1530 C   0  0  0  0  0  0  0  0  0  0  0  0
  -22.0140  -12.8880   22.0060 N   0  0  0  0  0  0  0  0  0  0  0  0
  -22.3220  -14.6080   20.6200 O   0  0  0  0  0  0  0  0  0  0  0  0
  -22.3760  -12.0620   22.4590 H   0  0  0  0  0  0  0  0  0  0  0  0
  -21.0700  -13.1850   22.2090 H   0  0  0  0  0  0  0  0  0  0  0  0
  -25.3760  -15.2850   20.4050 N   0  0  0  0  0  0  0  0  0  0  0  0
  -24.6080  -15.9380   20.5190 H   0  0  0  0  0  0  0  0  0  0  0  0
  -26.2470  -15.7330   20.1460 H   0  0  0  0  0  0  0  0  0  0  0  0
  -32.5300  -19.1240   21.0510 C   0  0  0  0  0  1  0  0  0  0  0  0
  -32.3630  -18.5380   19.6360 C   0  0  0  0  0  2  0  0  0  0  0  0
  -30.7900  -17.6440   17.7770 C   0  0  0  0  0  2  0  0  0  0  0  0
  -31.8760  -17.6380   16.6980 C   0  0  0  0  0  3  0  0  0  0  0  0
  -31.5800  -17.4940   15.5090 O   0  0  0  0  0  0  0  0  0  0  0  0
  -30.0120  -22.4710   21.2340 C   0  0  0  0  0  2  0  0  0  0  0  0
  -31.4680  -24.5670   20.6520 C   0  0  0  0  0  1  0  0  0  0  0  0
  -30.5050  -23.8840   21.6330 C   0  0  0  0  0  2  0  0  0  0  0  0
  -27.9230  -23.8550   20.1120 C   0  0  0  0  0  2  0  0  0  0  0  0
  -28.0860  -25.6060   20.0760 O   0  0  0  0  0  0  0  0  0  0  0  0
  -24.5960  -31.8420   23.1030 C   0  0  0  0  0  0  0  0  0  0  0  0
  -27.0940  -26.7950   20.0620 C   0  0  0  0  0  0  0  0  0  0  0  0
  -23.3850  -30.4410   21.4860 C   0  0  0  0  0  3  0  0  0  0  0  0
  -24.8130  -28.8030   20.0470 C   0  0  0  0  0  0  0  0  0  0  0  0
  -25.9590  -30.6020   21.3140 C   0  0  0  0  0  2  0  0  0  0  0  0
  -26.0180  -29.1710   20.6560 C   0  0  0  0  0  0  0  0  0  0  0  0
  -27.1450  -28.1970   20.6260 C   0  0  0  0  0  3  0  0  0  0  0  0
  -25.8490  -26.6290   19.4040 C   0  0  0  0  0  3  0  0  0  0  0  0
  -24.7650  -27.5570   19.3980 C   0  0  0  0  0  3  0  0  0  0  0  0
  -23.6020  -29.7460   20.1110 C   0  0  0  0  0  2  0  0  0  0  0  0
  -24.6720  -30.9950   22.0190 N   0  0  0  0  0  0  0  0  0  0  0  0
  -23.5120  -32.1360   23.6340 O   0  0  0  0  0  0  0  0  0  0  0  0
  -22.6920  -29.4580   22.4690 C   0  0  0  0  0  0  0  0  0  0  0  0
  -21.3590  -29.2950   22.3650 N   0  0  0  0  0  0  0  0  0  0  0  0
  -23.3650  -28.8400   23.2970 O   0  0  0  0  0  0  0  0  0  0  0  0
  -20.8630  -29.8440   21.6770 H   0  0  0  0  0  0  0  0  0  0  0  0
  -17.9870  -28.0660   22.9350 C   0  0  0  0  0  0  0  0  0  0  0  0
  -20.5500  -28.3540   23.1520 C   0  0  0  0  0  3  0  0  0  0  0  0
  -20.6510  -26.9210   22.5800 C   0  0  0  0  0  2  0  0  0  0  0  0
  -19.5350  -26.5900   21.5830 C   0  0  0  0  0  2  0  0  0  0  0  0
  -18.1640  -26.7210   22.2510 C   0  0  0  0  0  2  0  0  0  0  0  0
  -19.1060  -28.8400   23.3440 C   0  0  0  0  0  0  0  0  0  0  0  0
  -18.8830  -30.0950   23.9500 C   0  0  0  0  0  3  0  0  0  0  0  0
  -17.5750  -30.5780   24.1480 C   0  0  0  0  0  3  0  0  0  0  0  0
  -16.4720  -29.8020   23.7520 C   0  0  0  0  0  3  0  0  0  0  0  0
  -16.6790  -28.5470   23.1510 C   0  0  0  0  0  3  0  0  0  0  0  0
  -25.8690  -32.4960   23.7210 C   0  0  0  0  0  3  0  0  0  0  0  0
  -25.5440  -33.8920   24.0740 N   0  0  0  0  0  0  0  0  0  0  0  0
  -25.8730  -34.9690   23.3460 C   0  0  0  0  0  0  0  0  0  0  0  0
  -26.5390  -34.8920   22.3120 O   0  0  0  0  0  0  0  0  0  0  0  0
  -24.9490  -34.0250   24.8780 H   0  0  0  0  0  0  0  0  0  0  0  0
  -24.1520  -36.7860   23.0410 C   0  0  0  0  0  1  0  0  0  0  0  0
  -25.3900  -36.3490   23.8420 C   0  0  0  0  0  3  0  0  0  0  0  0
  -27.5220  -37.2130   24.7070 C   0  0  0  0  0  1  0  0  0  0  0  0
  -26.4260  -37.4030   23.7610 N   0  0  0  0  0  0  0  0  0  0  0  0
  -26.0200  -38.3200   23.9270 H   0  0  0  0  0  0  0  0  0  0  0  0
  -26.3990  -31.7320   24.9980 C   0  0  1  0  0  0  0  0  0  0  0  0
  -25.3190  -31.5020   26.0810 C   0  0  0  0  0  1  0  0  0  0  0  0
  -26.9770  -30.3490   24.6190 C   0  0  0  0  0  1  0  0  0  0  0  0
  -27.5580  -32.5290   25.6430 C   0  0  0  0  0  1  0  0  0  0  0  0
  1  9  1  0
  3  4  1  0
  3  5  1  0
  4  6  1  0
  7  5  1  6
  7 48  1  0
  7 47  1  0
  7  1  1  0
  8  6  1  0
  8 54  1  0
  8 51  1  0
 10  9  1  0
 11 16  1  0
 12 13  1  0
 12 11  1  0
 14 13  1  0
 14 21  1  0
 14 15  1  0
 16 10  1  0
 16 15  1  0
 17 10  2  0
 18 19  2  0
 19 38  1  0
 20 19  1  0
 20 23  1  0
 21 18  1  0
 21 22  1  0
 22 20  2  0
 23 24  1  0
 24 25  2  0
 26 29  1  0
 26 25  1  0
 27 26  2  0
 28 27  1  0
 28 23  2  0
 29 30  1  0
 30 31  1  0
 31 32  2  0
 33 32  1  0
 33 37  1  0
 34 33  2  0
 35 30  2  0
 35 34  1  0
 36 35  1  0
 38 39  1  0
 39 42  1  0
 39 41  1  0
 40 38  2  0
 43 44  1  0
 43 18  1  0
 45 43  1  0
 47 46  1  0
 49 48  1  0
 50 49  2  0
 51 53  1  0
 52 53  1  0
 55 54  1  0
 56 67  2  0
 57 55  1  0
 57 62  1  0
 58 66  1  0
 58 68  1  0
 59 65  1  0
 59 61  1  0
 60 66  1  0
 61 60  1  0
 62 61  2  0
 63 57  2  0
 64 63  1  0
 64 59  2  0
 65 58  1  0
 66 56  1  0
 68 70  2  0
 69 68  1  0
 71 69  1  0
 72 81  2  0
 72 77  1  0
 73 69  1  0
 73 77  1  0
 74 73  1  0
 75 76  1  0
 75 74  1  0
 76 72  1  0
 77 78  2  0
 78 79  1  0
 80 79  2  0
 81 80  1  0
 82 56  1  0
 82 83  1  0
 82 92  1  0
 83 86  1  0
 84 88  1  0
 84 83  1  0
 85 84  2  0
 88 87  1  0
 90 88  1  0
 90 91  1  0
 90 89  1  0
 92 95  1  1
 92 93  1  0
 94 92  1  0
M  ISO  4   9 100  10 100  54 101  55 101
M  END
>  <TORSDO>  (33) 
F 22

>  <SCORE>  (33) 
-14.244

>  <name>  (33) 
32

>  <ligand_id>  (33) 
32

>  <original_smiles>  (33) 
[H]C(=O)C([H])([H])C1(C([H])([H])C([H])([H])[H])C(=NC(=O)N2C([H])([H])C([H])([H])C([H])([H])C([H])(n3nc(-c4c([H])c([H])c(Oc5c([H])c([H])c(F)c([H])c5F)c([H])c4[H])c(C(=O)N([H])[H])c3N([H])[H])C2([H])[H])C([H])([H])C(C([H])([H])Oc2c([H])c([H])c3c(c2[H])C([H])([H])N(C(=O)C([H])(N([H])C(=O)C([H])(N([H])C([H])([H])[H])C([H])([H])[H])C(C([H])([H])[H])(C([H])([H])[H])C([H])([H])[H])C([H])(C(=O)N([H])C2([H])c4c([H])c([H])c([H])c([H])c4C([H])([H])C([H])([H])C2([H])[H])C3([H])[H])(C([H])([H])C([H])([H])C([H])([H])[H])C([H])([H])C([H])([H])C([H])([H])C1([H])[H]

>  <smiles>  (33) 
[H]C(=O)C([H])([H])C1(C([H])([H])C([H])([H])[H])C(=NC(=O)N2C([H])([H])C([H])([H])C([H])([H])C([H])(n3nc(-c4c([H])c([H])c(Oc5c([H])c([H])c(F)c([H])c5F)c([H])c4[H])c(C(=O)N([H])[H])c3N([H])[H])C2([H])[H])C([H])([H])C(C([H])([H])Oc2c([H])c([H])c3c(c2[H])C([H])([H])N(C(=O)C([H])(N([H])C(=O)C([H])(N([H])C([H])([H])[H])C([H])([H])[H])C(C([H])([H])[H])(C([H])([H])[H])C([H])([H])[H])C([H])(C(=O)N([H])C2([H])c4c([H])c([H])c([H])c([H])c4C([H])([H])C([H])([H])C2([H])[H])C3([H])[H])(C([H])([H])C([H])([H])C([H])([H])[H])C([H])([H])C([H])([H])C([H])([H])C1([H])[H]

$$$$
33:0:0
     RDKit          3D

 93102  0  0  1  0  0  0  0  0999 V2000
  -29.7530  -20.5050   19.7690 C   0  0  0  0  0  0  0  0  0  0  0  0
  -30.3860  -21.9070   19.9580 C   0  0  0  0  0  2  0  0  0  0  0  0
  -27.6340  -18.0280   20.1310 C   0  0  0  0  0  2  0  0  0  0  0  0
  -27.4170  -19.5310   20.2980 C   0  0  0  0  0  2  0  0  0  0  0  0
  -27.5050  -21.7880   19.2540 C   0  0  0  0  0  2  0  0  0  0  0  0
  -28.3700  -23.0100   18.9740 C   0  0  0  0  0  2  0  0  0  0  0  0
  -29.0420  -17.5790   20.5220 C   0  0  0  0  0  2  0  0  0  0  0  0
  -28.2540  -20.4330   19.3580 C   0  0  0  0  0  3  0  0  0  0  0  0
  -29.4200  -23.1150   20.0830 C   0  0  0  0  0  3  0  0  0  0  0  0
  -30.1240  -18.1080   19.5560 C   0  0  0  0  0  3  0  0  0  0  0  0
  -30.5260  -19.4810   19.8910 N   0  0  0  0  0  0  0  0  0  0  0  0
  -30.1190  -24.5100   20.0730 C   0  0  0  0  0  2  0  0  0  0  0  0
  -29.3460  -25.5880   20.8770 C   0  0  0  0  0  2  0  0  0  0  0  0
  -29.4200  -26.9130   20.3130 O   0  0  0  0  0  0  0  0  0  0  0  0
  -24.9290  -31.5540   23.3150 C   0  0  0  0  0  0  0  0  0  0  0  0
  -28.2020  -27.5520   20.2460 C   0  0  0  0  0  0  0  0  0  0  0  0
  -23.9720  -30.0930   21.5640 C   0  0  0  0  0  3  0  0  0  0  0  0
  -25.6600  -28.7840   20.1680 C   0  0  0  0  0  0  0  0  0  0  0  0
  -26.4480  -30.7380   21.5140 C   0  0  0  0  0  2  0  0  0  0  0  0
  -26.7220  -29.4110   20.8340 C   0  0  0  0  0  0  0  0  0  0  0  0
  -27.9990  -28.8050   20.8670 C   0  0  0  0  0  3  0  0  0  0  0  0
  -27.1280  -26.9400   19.5660 C   0  0  0  0  0  3  0  0  0  0  0  0
  -25.8590  -27.5470   19.5290 C   0  0  0  0  0  3  0  0  0  0  0  0
  -24.3260  -29.4950   20.1750 C   0  0  0  0  0  2  0  0  0  0  0  0
  -25.1300  -30.8090   22.1910 N   0  0  0  0  0  0  0  0  0  0  0  0
  -23.7980  -31.6820   23.8050 O   0  0  0  0  0  0  0  0  0  0  0  0
  -23.3920  -28.9690   22.4520 C   0  0  0  0  0  0  0  0  0  0  0  0
  -22.1120  -28.6270   22.2270 N   0  0  0  0  0  0  0  0  0  0  0  0
  -24.0920  -28.4100   23.3010 O   0  0  0  0  0  0  0  0  0  0  0  0
  -21.6030  -29.1380   21.5180 H   0  0  0  0  0  0  0  0  0  0  0  0
  -18.8870  -27.0160   22.4640 C   0  0  0  0  0  0  0  0  0  0  0  0
  -21.3710  -27.5720   22.9150 C   0  0  0  0  0  3  0  0  0  0  0  0
  -21.6860  -26.1850   22.3110 C   0  0  0  0  0  2  0  0  0  0  0  0
  -20.7000  -25.7660   21.2150 C   0  0  0  0  0  2  0  0  0  0  0  0
  -19.2710  -25.7220   21.7670 C   0  0  0  0  0  2  0  0  0  0  0  0
  -19.8740  -27.8920   22.9890 C   0  0  0  0  0  0  0  0  0  0  0  0
  -19.4650  -29.0990   23.5960 C   0  0  0  0  0  3  0  0  0  0  0  0
  -18.1000  -29.4350   23.6840 C   0  0  0  0  0  3  0  0  0  0  0  0
  -17.1270  -28.5580   23.1760 C   0  0  0  0  0  3  0  0  0  0  0  0
  -17.5210  -27.3500   22.5730 C   0  0  0  0  0  3  0  0  0  0  0  0
  -26.1040  -32.2980   24.0250 C   0  0  0  0  0  3  0  0  0  0  0  0
  -26.5480  -31.6150   25.3760 C   0  0  1  0  0  0  0  0  0  0  0  0
  -25.3760  -31.3350   26.3460 C   0  0  0  0  0  1  0  0  0  0  0  0
  -27.2610  -30.2720   25.0970 C   0  0  0  0  0  1  0  0  0  0  0  0
  -27.5680  -32.5160   26.1090 C   0  0  0  0  0  1  0  0  0  0  0  0
  -25.6720  -33.6820   24.2600 N   0  0  0  0  0  0  0  0  0  0  0  0
  -26.0110  -34.7250   23.4890 C   0  0  0  0  0  0  0  0  0  0  0  0
  -26.7860  -34.6290   22.5340 O   0  0  0  0  0  0  0  0  0  0  0  0
  -24.9910  -33.8270   24.9910 H   0  0  0  0  0  0  0  0  0  0  0  0
  -24.2050  -36.3710   22.8930 C   0  0  0  0  0  1  0  0  0  0  0  0
  -25.3890  -36.0930   23.8320 C   0  0  0  0  0  3  0  0  0  0  0  0
  -27.3680  -37.1640   24.8130 C   0  0  0  0  0  1  0  0  0  0  0  0
  -26.3530  -37.2130   23.7640 N   0  0  0  0  0  0  0  0  0  0  0  0
  -25.8720  -38.1060   23.8290 H   0  0  0  0  0  0  0  0  0  0  0  0
  -31.3760  -17.1840   19.5770 C   0  0  0  0  0  2  0  0  0  0  0  0
  -31.8720  -14.7510   19.9290 C   0  0  0  0  0  0  0  0  0  0  0  0
  -31.7200  -12.3310   19.4890 C   0  0  0  0  0  2  0  0  0  0  0  0
  -30.8060  -12.1160   18.2640 C   0  0  0  0  0  2  0  0  0  0  0  0
  -29.3250  -12.0420   18.6910 C   0  0  0  0  0  2  0  0  0  0  0  0
  -28.9140  -13.2020   19.6350 C   0  0  0  0  0  3  0  0  0  0  0  0
  -29.9420  -13.3720   20.7760 C   0  0  0  0  0  2  0  0  0  0  0  0
  -31.2700  -13.5560   20.1670 N   0  0  0  0  0  0  0  0  0  0  0  0
  -33.0060  -14.8510   19.4500 O   0  0  0  0  0  0  0  0  0  0  0  0
  -31.0810  -15.8280   20.0700 N   0  0  0  0  0  0  0  0  0  0  0  0
  -30.1590  -15.6650   20.4430 H   0  0  0  0  0  0  0  0  0  0  0  0
  -26.5820  -13.9720   20.4070 C   0  0  0  0  0  0  0  0  0  0  0  0
  -25.4740  -13.2720   20.8050 C   0  0  0  0  0  0  0  0  0  0  0  0
  -25.8420  -11.8930   20.7630 C   0  0  0  0  0  0  0  0  0  0  0  0
  -27.5580  -13.0210   20.1490 N   0  0  0  0  0  0  0  0  0  0  0  0
  -27.1170  -11.7670   20.4210 N   0  0  0  0  0  0  0  0  0  0  0  0
  -25.0380  -10.6830   20.9760 C   0  0  0  0  0  0  0  0  0  0  0  0
  -25.3630   -9.7470   21.9830 C   0  0  0  0  0  3  0  0  0  0  0  0
  -24.5640   -8.5990   22.1790 C   0  0  0  0  0  3  0  0  0  0  0  0
  -23.4270   -8.3800   21.3670 C   0  0  0  0  0  0  0  0  0  0  0  0
  -23.1210   -9.3030   20.3510 C   0  0  0  0  0  3  0  0  0  0  0  0
  -23.9190  -10.4420   20.1540 C   0  0  0  0  0  3  0  0  0  0  0  0
  -22.6070   -7.2830   21.4680 O   0  0  0  0  0  0  0  0  0  0  0  0
  -22.3290   -6.7010   22.6800 C   0  0  0  0  0  0  0  0  0  0  0  0
  -21.7160   -7.4230   23.7280 C   0  0  0  0  0  3  0  0  0  0  0  0
  -21.3840   -6.7690   24.9320 C   0  0  0  0  0  3  0  0  0  0  0  0
  -21.6540   -5.3970   25.0860 C   0  0  0  0  0  0  0  0  0  0  0  0
  -22.2600   -4.6750   24.0410 C   0  0  0  0  0  3  0  0  0  0  0  0
  -22.5930   -5.3260   22.8400 C   0  0  0  0  0  0  0  0  0  0  0  0
  -23.1560   -4.6230   21.8280 F   0  0  0  0  0  0  0  0  0  0  0  0
  -21.3290   -4.7660   26.2380 F   0  0  0  0  0  0  0  0  0  0  0  0
  -24.1180  -13.8440   21.1120 C   0  0  0  0  0  0  0  0  0  0  0  0
  -23.3830  -13.2180   22.0260 N   0  0  0  0  0  0  0  0  0  0  0  0
  -23.7230  -14.8770   20.5750 O   0  0  0  0  0  0  0  0  0  0  0  0
  -23.7140  -12.3810   22.4810 H   0  0  0  0  0  0  0  0  0  0  0  0
  -22.4740  -13.5840   22.2740 H   0  0  0  0  0  0  0  0  0  0  0  0
  -26.8350  -15.3280   20.2220 N   0  0  0  0  0  0  0  0  0  0  0  0
  -26.1130  -16.0300   20.3500 H   0  0  0  0  0  0  0  0  0  0  0  0
  -27.6950  -15.7060   19.8480 H   0  0  0  0  0  0  0  0  0  0  0  0
  1 11  2  0
  1  2  1  0
  2  9  1  0
  3  4  1  0
  3  7  1  0
  6  5  1  0
  6  9  1  0
  8  5  1  0
  8  1  1  0
  8  4  1  0
  9 12  1  0
 10 55  1  0
 10 11  1  0
 10  7  1  0
 12 13  1  0
 14 13  1  0
 15 26  2  0
 16 14  1  0
 16 21  1  0
 17 25  1  0
 17 27  1  0
 18 24  1  0
 18 20  1  0
 19 25  1  0
 20 21  2  0
 20 19  1  0
 22 16  2  0
 23 22  1  0
 23 18  2  0
 24 17  1  0
 25 15  1  0
 27 29  2  0
 28 27  1  0
 30 28  1  0
 31 40  2  0
 31 36  1  0
 32 28  1  0
 32 36  1  0
 33 32  1  0
 34 35  1  0
 34 33  1  0
 35 31  1  0
 36 37  2  0
 37 38  1  0
 39 38  2  0
 40 39  1  0
 41 15  1  0
 41 46  1  0
 41 42  1  0
 42 45  1  1
 42 43  1  0
 44 42  1  0
 46 49  1  0
 47 51  1  0
 47 46  1  0
 48 47  2  0
 51 50  1  0
 53 54  1  0
 53 51  1  0
 53 52  1  0
 55 64  1  0
 56 64  1  0
 56 62  1  0
 57 62  1  0
 58 59  1  0
 58 57  1  0
 60 59  1  0
 60 69  1  0
 60 61  1  0
 62 61  1  0
 63 56  2  0
 64 65  1  0
 66 67  2  0
 67 86  1  0
 68 67  1  0
 68 71  1  0
 69 66  1  0
 69 70  1  0
 70 68  2  0
 71 72  1  0
 72 73  2  0
 74 77  1  0
 74 73  1  0
 75 74  2  0
 76 75  1  0
 76 71  2  0
 77 78  1  0
 78 83  2  0
 78 79  1  0
 79 80  2  0
 80 81  1  0
 81 85  1  0
 82 81  2  0
 83 82  1  0
 84 83  1  0
 86 87  1  0
 87 90  1  0
 87 89  1  0
 88 86  2  0
 91 92  1  0
 91 66  1  0
 93 91  1  0
M  ISO  4  13 101  14 101  56 100  64 100
M  END
>  <TORSDO>  (34) 
F 19

>  <SCORE>  (34) 
-11.237

>  <name>  (34) 
33

>  <ligand_id>  (34) 
33

>  <original_smiles>  (34) 
[H]c1c([H])c([H])c2c(c1[H])C([H])([H])C([H])([H])C([H])([H])C2([H])N([H])C(=O)C1([H])N(C(=O)C([H])(N([H])C(=O)C([H])(N([H])C([H])([H])[H])C([H])([H])[H])C(C([H])([H])[H])(C([H])([H])[H])C([H])([H])[H])C([H])([H])c2c([H])c(OC([H])([H])C([H])([H])C3([H])C([H])([H])C4=NC([H])(C([H])([H])N([H])C(=O)N5C([H])([H])C([H])([H])C([H])([H])C([H])(n6nc(-c7c([H])c([H])c(Oc8c([H])c([H])c(F)c([H])c8F)c([H])c7[H])c(C(=O)N([H])[H])c6N([H])[H])C5([H])[H])C([H])([H])C([H])([H])C([H])([H])C4([H])C([H])([H])C3([H])[H])c([H])c([H])c2C1([H])[H]

>  <smiles>  (34) 
[H]c1c([H])c([H])c2c(c1[H])C([H])([H])C([H])([H])C([H])([H])C2([H])N([H])C(=O)C1([H])N(C(=O)C([H])(N([H])C(=O)C([H])(N([H])C([H])([H])[H])C([H])([H])[H])C(C([H])([H])[H])(C([H])([H])[H])C([H])([H])[H])C([H])([H])c2c([H])c(OC([H])([H])C([H])([H])C3([H])C([H])([H])C4=NC([H])(C([H])([H])N([H])C(=O)N5C([H])([H])C([H])([H])C([H])([H])C([H])(n6nc(-c7c([H])c([H])c(Oc8c([H])c([H])c(F)c([H])c8F)c([H])c7[H])c(C(=O)N([H])[H])c6N([H])[H])C5([H])[H])C([H])([H])C([H])([H])C([H])([H])C4([H])C([H])([H])C3([H])[H])c([H])c([H])c2C1([H])[H]

$$$$
34:0:0
     RDKit          3D

 93 96  0  0  1  0  0  0  0  0999 V2000
  -25.6600  -11.7930   22.3110 C   0  0  0  0  0 15  0  0  0  0  0  0
  -25.4730  -13.9280   21.7600 C   0  0  0  0  0 15  0  0  0  0  0  0
  -26.6040  -10.2680   20.7800 C   0  0  0  0  0  2  0  0  0  0  0  0
  -26.1690  -14.7230   19.8050 C   0  0  0  0  0  1  0  0  0  0  0  0
  -27.1370  -13.4670   18.4670 C   0  0  0  0  0  1  0  0  0  0  0  0
  -27.5470  -11.3500   18.8980 C   0  0  0  0  0  1  0  0  0  0  0  0
  -26.7960  -16.1700   19.3210 C   0  0  0  0  0  0  0  0  0  0  0  0
  -28.1270  -14.6350   17.7520 C   0  0  0  0  0  3  0  0  0  0  0  0
  -27.8930  -16.3350   18.0280 C   0  0  0  0  0  0  0  0  0  0  0  0
  -26.5110  -17.1950   19.9460 O   0  0  0  0  0  0  0  0  0  0  0  0
  -29.2690  -11.2950   18.5140 C   0  0  0  0  0  2  0  0  0  0  0  0
  -31.5250  -11.6370   20.5340 C   0  0  0  0  0  0  0  0  0  0  0  0
  -31.5940   -9.3530   21.1660 C   0  0  0  0  0  2  0  0  0  0  0  0
  -30.8020   -8.9340   19.9430 C   0  0  0  0  0  2  0  0  0  0  0  0
  -29.3640   -9.2570   20.3100 C   0  0  0  0  0  2  0  0  0  0  0  0
  -29.0140  -10.6560   21.2170 C   0  0  0  0  0  3  0  0  0  0  0  0
  -29.9750  -10.8160   22.2800 C   0  0  0  0  0  2  0  0  0  0  0  0
  -31.1720  -10.7130   21.4650 N   0  0  0  0  0  0  0  0  0  0  0  0
  -32.6550  -12.0990   20.7570 O   0  0  0  0  0  0  0  0  0  0  0  0
  -30.7040  -11.8080   19.2960 N   0  0  0  0  0  0  0  0  0  0  0  0
  -31.1780  -12.4700   18.7000 H   0  0  0  0  0  0  0  0  0  0  0  0
  -27.0710  -12.1920   20.9780 C   0  0  0  0  0  3  0  0  0  0  0  0
  -25.3970  -11.9500   20.1640 C   0  0  0  0  0  0  0  0  0  0  0  0
  -24.9410  -10.7440   19.9800 C   0  0  0  0  0  2  0  0  0  0  0  0
  -27.7320  -11.5200   21.3950 N   0  0  0  0  0  0  0  0  0  0  0  0
  -26.0920  -11.7000   20.4230 N   0  0  0  0  0  0  0  0  0  0  0  0
  -24.1440   -9.4600   20.5720 C   0  0  0  0  0  3  0  0  0  0  0  0
  -24.2440   -8.5120   21.6880 C   0  0  0  0  0  3  0  0  0  0  0  0
  -23.2780   -7.5020   21.9720 C   0  0  0  0  0  3  0  0  0  0  0  0
  -22.2150   -7.2990   21.0730 C   0  0  0  0  0  0  0  0  0  0  0  0
  -22.1740   -8.1010   19.9270 C   0  0  0  0  0  3  0  0  0  0  0  0
  -23.0980   -9.1350   19.7000 C   0  0  0  0  0  3  0  0  0  0  0  0
  -21.2670   -6.3020   21.1450 O   0  0  0  0  0  0  0  0  0  0  0  0
  -20.7970   -5.7820   22.3260 C   0  0  0  0  0  0  0  0  0  0  0  0
  -20.3000   -6.5930   23.3700 C   0  0  0  0  0  3  0  0  0  0  0  0
  -19.7470   -5.9950   24.5220 C   0  0  0  0  0  3  0  0  0  0  0  0
  -19.6830   -4.5920   24.6300 C   0  0  0  0  0  0  0  0  0  0  0  0
  -20.1680   -3.7850   23.5880 C   0  0  0  0  0  3  0  0  0  0  0  0
  -20.7150   -4.3780   22.4380 C   0  0  0  0  0  0  0  0  0  0  0  0
  -21.1510   -3.5930   21.4220 F   0  0  0  0  0  0  0  0  0  0  0  0
  -19.1550   -4.0180   25.7370 F   0  0  0  0  0  0  0  0  0  0  0  0
  -23.9360  -12.6990   19.9340 C   0  0  0  0  0  0  0  0  0  0  0  0
  -22.8900  -12.3280   20.7010 N   0  0  0  0  0  0  0  0  0  0  0  0
  -23.8060  -13.5540   19.0760 O   0  0  0  0  0  0  0  0  0  0  0  0
  -23.0110  -11.6500   21.4400 H   0  0  0  0  0  0  0  0  0  0  0  0
  -21.9890  -12.7660   20.5690 H   0  0  0  0  0  0  0  0  0  0  0  0
  -28.0730  -13.1710   21.4800 N   0  0  0  0  0  0  0  0  0  0  0  0
  -27.4850  -13.9360   21.7740 H   0  0  0  0  0  0  0  0  0  0  0  0
  -28.5340  -13.4930   20.6430 H   0  0  0  0  0  0  0  0  0  0  0  0
  -28.9670  -17.9460   17.7510 C   0  0  0  0  0  2  0  0  0  0  0  0
  -30.1350  -18.9700   16.5930 C   0  0  0  0  0  3  0  0  0  0  0  0
  -30.8090  -20.7740   16.3660 C   0  0  0  0  0  3  0  0  0  0  0  0
  -31.9040  -21.8190   15.4570 O   0  0  0  0  0  0  0  0  0  0  0  0
  -32.1010  -29.3480   16.7370 C   0  0  0  0  0  0  0  0  0  0  0  0
  -31.7140  -23.2740   15.0700 C   0  0  0  0  0  0  0  0  0  0  0  0
  -30.1230  -28.1790   15.8950 C   0  0  0  0  0  3  0  0  0  0  0  0
  -30.4860  -25.9230   14.7050 C   0  0  0  0  0  0  0  0  0  0  0  0
  -32.4590  -27.3290   15.2000 C   0  0  0  0  0  2  0  0  0  0  0  0
  -31.8520  -25.8940   15.0040 C   0  0  0  0  0  0  0  0  0  0  0  0
  -32.4850  -24.5630   15.1590 C   0  0  0  0  0  3  0  0  0  0  0  0
  -30.4450  -23.4750   14.5390 C   0  0  0  0  0  3  0  0  0  0  0  0
  -29.8280  -24.7270   14.4060 C   0  0  0  0  0  3  0  0  0  0  0  0
  -29.7200  -27.2390   14.7320 C   0  0  0  0  0  2  0  0  0  0  0  0
  -31.6100  -28.3190   15.9730 N   0  0  0  0  0  0  0  0  0  0  0  0
  -31.3470  -30.1150   17.3630 O   0  0  0  0  0  0  0  0  0  0  0  0
  -29.4970  -27.6900   17.2290 C   0  0  0  0  0  0  0  0  0  0  0  0
  -28.1620  -27.7910   17.3660 N   0  0  0  0  0  0  0  0  0  0  0  0
  -30.2150  -27.2250   18.1190 O   0  0  0  0  0  0  0  0  0  0  0  0
  -27.6350  -28.1970   16.6060 H   0  0  0  0  0  0  0  0  0  0  0  0
  -24.8060  -27.4570   18.7060 C   0  0  0  0  0  0  0  0  0  0  0  0
  -27.3850  -27.3480   18.5300 C   0  0  0  0  0  3  0  0  0  0  0  0
  -27.2160  -25.8110   18.5360 C   0  0  0  0  0  2  0  0  0  0  0  0
  -25.9210  -25.3450   17.8640 C   0  0  0  0  0  2  0  0  0  0  0  0
  -24.7010  -25.9460   18.5700 C   0  0  0  0  0  2  0  0  0  0  0  0
  -26.0650  -28.1150   18.6730 C   0  0  0  0  0  0  0  0  0  0  0  0
  -26.1020  -29.5230   18.7740 C   0  0  0  0  0  3  0  0  0  0  0  0
  -24.9140  -30.2680   18.9070 C   0  0  0  0  0  3  0  0  0  0  0  0
  -23.6730  -29.6100   18.9520 C   0  0  0  0  0  3  0  0  0  0  0  0
  -23.6200  -28.2080   18.8560 C   0  0  0  0  0  3  0  0  0  0  0  0
  -33.6280  -29.6260   16.8530 C   0  0  0  0  0  3  0  0  0  0  0  0
  -34.2790  -28.9690   18.1330 C   0  0  1  0  0  0  0  0  0  0  0  0
  -33.5470  -29.3090   19.4530 C   0  0  0  0  0  1  0  0  0  0  0  0
  -34.3210  -27.4300   18.0080 C   0  0  0  0  0  1  0  0  0  0  0  0
  -35.7480  -29.4340   18.2730 C   0  0  0  0  0  1  0  0  0  0  0  0
  -33.8190  -31.0900   16.8930 N   0  0  0  0  0  0  0  0  0  0  0  0
  -34.1660  -31.8530   15.8480 C   0  0  0  0  0  0  0  0  0  0  0  0
  -34.4220  -31.3800   14.7390 O   0  0  0  0  0  0  0  0  0  0  0  0
  -33.5740  -31.5510   17.7580 H   0  0  0  0  0  0  0  0  0  0  0  0
  -32.9650  -34.0480   15.5420 C   0  0  0  0  0  1  0  0  0  0  0  0
  -34.2460  -33.3790   16.0680 C   0  0  0  0  0  3  0  0  0  0  0  0
  -36.6920  -33.6190   16.0550 C   0  0  0  0  0  1  0  0  0  0  0  0
  -35.4280  -34.0080   15.4370 N   0  0  0  0  0  0  0  0  0  0  0  0
  -35.3570  -35.0220   15.4730 H   0  0  0  0  0  0  0  0  0  0  0  0
  7  4  1  0
  7 10  2  0
  8  9  2  0
  8  5  1  0
  9  7  1  0
 11  6  1  0
 11 20  1  0
 12 19  2  0
 12 18  1  0
 13 18  1  0
 14 15  1  0
 14 13  1  0
 16 15  1  0
 16 25  1  0
 16 17  1  0
 18 17  1  0
 20 12  1  0
 21 20  1  0
 22 25  1  0
 22 47  1  0
 23 26  1  0
 24 23  2  0
 25  3  1  0
 26  3  1  0
 26 22  1  0
 27 28  1  0
 28 29  2  0
 30 33  1  0
 30 29  1  0
 31 30  2  0
 32 31  1  0
 32 27  2  0
 33 34  1  0
 34 39  2  0
 34 35  1  0
 35 36  2  0
 36 37  1  0
 37 41  1  0
 38 37  2  0
 39 38  1  0
 40 39  1  0
 42 23  1  0
 42 43  1  0
 43 45  1  0
 44 42  2  0
 46 43  1  0
 47 48  1  0
 49 47  1  0
 50  9  1  0
 51 50  1  0
 52 51  2  0
 53 52  1  0
 54 65  2  0
 55 60  1  0
 55 53  1  0
 56 64  1  0
 56 66  1  0
 57 63  1  0
 57 59  1  0
 58 64  1  0
 59 60  2  0
 59 58  1  0
 61 55  2  0
 62 61  1  0
 62 57  2  0
 63 56  1  0
 64 54  1  0
 66 67  1  0
 66 68  2  0
 69 67  1  0
 70 79  1  0
 71 67  1  0
 71 72  1  0
 71 75  1  0
 73 72  1  0
 73 74  1  0
 74 70  1  0
 75 70  2  0
 75 76  1  0
 76 77  2  0
 77 78  1  0
 79 78  2  0
 80 54  1  0
 80 85  1  0
 80 81  1  0
 81 84  1  1
 81 82  1  0
 83 81  1  0
 85 88  1  0
 86 90  1  0
 86 85  1  0
 87 86  2  0
 90 89  1  0
 92 93  1  0
 92 91  1  0
 92 90  1  0
M  ISO  4  12 100  20 100  52 101  53 101
M  END
>  <TORSDO>  (35) 
F 20

>  <SCORE>  (35) 
1.569

>  <name>  (35) 
34

>  <ligand_id>  (35) 
34

>  <original_smiles>  (35) 
[H]c1c([H])c2c(c(C([H])([H])N([H])C(=O)N3C([H])([H])C([H])([H])C([H])([H])C([H])(n4nc(-c5c([H])c([H])c(Oc6c([H])c([H])c(F)c([H])c6F)c([H])c5[H])c(C(=O)N([H])[H])c4N([H])[H])C3([H])[H])c1[H])C([H])([H])C([H])(C([H])([H])C([H])([H])C([H])([H])Oc1c([H])c([H])c3c(c1[H])C([H])([H])N(C(=O)C([H])(N([H])C(=O)C([H])(N([H])C([H])([H])[H])C([H])([H])[H])C(C([H])([H])[H])(C([H])([H])[H])C([H])([H])[H])C([H])(C(=O)N([H])C1([H])c4c([H])c([H])c([H])c([H])c4C([H])([H])C([H])([H])C1([H])[H])C3([H])[H])C2=O

>  <smiles>  (35) 
[H]c1c([H])c2c(c(C([H])([H])N([H])C(=O)N3C([H])([H])C([H])([H])C([H])([H])C([H])(n4nc(-c5c([H])c([H])c(Oc6c([H])c([H])c(F)c([H])c6F)c([H])c5[H])c(C(=O)N([H])[H])c4N([H])[H])C3([H])[H])c1[H])C([H])([H])C([H])(C([H])([H])C([H])([H])C([H])([H])Oc1c([H])c([H])c3c(c1[H])C([H])([H])N(C(=O)C([H])(N([H])C(=O)C([H])(N([H])C([H])([H])[H])C([H])([H])[H])C(C([H])([H])[H])(C([H])([H])[H])C([H])([H])[H])C([H])(C(=O)N([H])C1([H])c4c([H])c([H])c([H])c([H])c4C([H])([H])C([H])([H])C1([H])[H])C3([H])[H])C2=O

$$$$
35:0:0
     RDKit          3D

 95104  0  0  1  0  0  0  0  0999 V2000
  -28.2480  -22.1930   19.0850 C   0  0  0  0  0  3  0  0  0  0  0  0
  -28.3730  -20.8060   19.2380 C   0  0  0  0  0  3  0  0  0  0  0  0
  -29.7080  -21.1450   21.2430 C   0  0  0  0  0  3  0  0  0  0  0  0
  -28.8740  -23.0790   19.9860 C   0  0  0  0  0  0  0  0  0  0  0  0
  -29.1430  -20.2750   20.2910 C   0  0  0  0  0  0  0  0  0  0  0  0
  -29.5970  -22.5470   21.0920 C   0  0  0  0  0  0  0  0  0  0  0  0
  -30.3370  -23.4230   22.0930 C   0  0  0  0  0  1  0  0  0  0  0  0
  -31.0270  -18.5960   20.1970 C   0  0  0  0  0  2  0  0  0  0  0  0
  -28.8760  -17.8660   21.2950 C   0  0  0  0  0  2  0  0  0  0  0  0
  -31.4710  -17.1780   20.6120 C   0  0  0  0  0  2  0  0  0  0  0  0
  -29.1400  -16.3700   20.9260 C   0  0  0  0  0  2  0  0  0  0  0  0
  -29.4980  -18.7970   20.2500 C   0  0  0  0  0  3  0  0  0  0  0  0
  -30.4830  -16.0490   20.1720 C   0  0  2  0  0  0  0  0  0  0  0  0
  -31.0900  -14.6420   20.5390 C   0  0  0  0  0  0  0  0  0  0  0  0
  -30.7670  -12.3870   19.6510 C   0  0  0  0  0  2  0  0  0  0  0  0
  -29.8810  -12.4380   18.3890 C   0  0  0  0  0  2  0  0  0  0  0  0
  -28.3810  -12.4010   18.7530 C   0  0  0  0  0  2  0  0  0  0  0  0
  -27.9870  -13.3250   19.9380 C   0  0  0  0  0  3  0  0  0  0  0  0
  -29.0160  -13.2480   21.0850 C   0  0  0  0  0  2  0  0  0  0  0  0
  -30.3580  -13.4900   20.5350 N   0  0  0  0  0  0  0  0  0  0  0  0
  -32.3160  -14.5850   20.4660 O   0  0  0  0  0  0  0  0  0  0  0  0
  -25.5910  -13.9800   20.5920 C   0  0  0  0  0  0  0  0  0  0  0  0
  -24.4990  -13.2270   20.9260 C   0  0  0  0  0  0  0  0  0  0  0  0
  -24.9390  -11.8680   20.9110 C   0  0  0  0  0  0  0  0  0  0  0  0
  -26.6270  -13.0770   20.3950 N   0  0  0  0  0  0  0  0  0  0  0  0
  -26.2370  -11.8050   20.6500 N   0  0  0  0  0  0  0  0  0  0  0  0
  -24.1870  -10.6200   21.0690 C   0  0  0  0  0  0  0  0  0  0  0  0
  -24.5640   -9.6490   22.0230 C   0  0  0  0  0  3  0  0  0  0  0  0
  -23.8130   -8.4620   22.1700 C   0  0  0  0  0  3  0  0  0  0  0  0
  -22.6730   -8.2400   21.3620 C   0  0  0  0  0  0  0  0  0  0  0  0
  -22.3170   -9.1990   20.3970 C   0  0  0  0  0  3  0  0  0  0  0  0
  -23.0670  -10.3770   20.2490 C   0  0  0  0  0  3  0  0  0  0  0  0
  -21.8990   -7.1070   21.4200 O   0  0  0  0  0  0  0  0  0  0  0  0
  -21.7460   -6.3980   22.5840 C   0  0  0  0  0  0  0  0  0  0  0  0
  -21.2080   -6.9880   23.7490 C   0  0  0  0  0  3  0  0  0  0  0  0
  -21.0040   -6.2050   24.9040 C   0  0  0  0  0  3  0  0  0  0  0  0
  -21.3270   -4.8340   24.8920 C   0  0  0  0  0  0  0  0  0  0  0  0
  -21.8590   -4.2460   23.7310 C   0  0  0  0  0  3  0  0  0  0  0  0
  -22.0640   -5.0250   22.5790 C   0  0  0  0  0  0  0  0  0  0  0  0
  -22.5570   -4.4490   21.4560 F   0  0  0  0  0  0  0  0  0  0  0  0
  -21.1240   -4.0800   25.9980 F   0  0  0  0  0  0  0  0  0  0  0  0
  -23.1030  -13.7290   21.1480 C   0  0  0  0  0  0  0  0  0  0  0  0
  -22.3380  -13.0550   22.0000 N   0  0  0  0  0  0  0  0  0  0  0  0
  -22.6980  -14.7550   20.6020 O   0  0  0  0  0  0  0  0  0  0  0  0
  -22.6770  -12.2240   22.4620 H   0  0  0  0  0  0  0  0  0  0  0  0
  -21.4000  -13.3760   22.1920 H   0  0  0  0  0  0  0  0  0  0  0  0
  -25.7780  -15.3470   20.4170 N   0  0  0  0  0  0  0  0  0  0  0  0
  -25.0180  -16.0120   20.5090 H   0  0  0  0  0  0  0  0  0  0  0  0
  -26.6400  -15.7760   20.1100 H   0  0  0  0  0  0  0  0  0  0  0  0
  -31.6810  -16.0750   17.7880 C   0  0  0  0  0  1  0  0  0  0  0  0
  -30.3680  -16.1090   18.6000 C   0  0  0  0  0  2  0  0  0  0  0  0
  -28.8350  -24.5200   19.6100 C   0  0  0  0  0  0  0  0  0  0  0  0
  -29.1330  -24.9080   18.4740 O   0  0  0  0  0  0  0  0  0  0  0  0
  -28.3180  -25.5170   20.6490 C   0  0  0  0  0  2  0  0  0  0  0  0
  -28.3820  -26.8430   20.1240 O   0  0  0  0  0  0  0  0  0  0  0  0
  -24.5660  -31.9050   23.2510 C   0  0  0  0  0  0  0  0  0  0  0  0
  -27.1950  -27.5260   20.1270 C   0  0  0  0  0  0  0  0  0  0  0  0
  -23.3440  -30.5090   21.6120 C   0  0  0  0  0  3  0  0  0  0  0  0
  -24.7870  -28.9870   20.1630 C   0  0  0  0  0  0  0  0  0  0  0  0
  -25.8600  -30.8930   21.3810 C   0  0  0  0  0  2  0  0  0  0  0  0
  -25.9460  -29.5280   20.7360 C   0  0  0  0  0  0  0  0  0  0  0  0
  -27.1540  -28.8060   20.7100 C   0  0  0  0  0  3  0  0  0  0  0  0
  -26.0260  -26.9860   19.5480 C   0  0  0  0  0  3  0  0  0  0  0  0
  -24.8210  -27.7140   19.5640 C   0  0  0  0  0  3  0  0  0  0  0  0
  -23.5380  -29.8340   20.2270 C   0  0  0  0  0  2  0  0  0  0  0  0
  -24.6090  -31.1150   22.1400 N   0  0  0  0  0  0  0  0  0  0  0  0
  -23.4910  -32.1700   23.8060 O   0  0  0  0  0  0  0  0  0  0  0  0
  -22.7090  -29.4790   22.5740 C   0  0  0  0  0  0  0  0  0  0  0  0
  -21.3870  -29.2850   22.4490 N   0  0  0  0  0  0  0  0  0  0  0  0
  -23.4020  -28.8590   23.3840 O   0  0  0  0  0  0  0  0  0  0  0  0
  -20.8900  -29.8400   21.7650 H   0  0  0  0  0  0  0  0  0  0  0  0
  -18.0270  -28.0540   22.9370 C   0  0  0  0  0  0  0  0  0  0  0  0
  -20.5790  -28.3390   23.2180 C   0  0  0  0  0  3  0  0  0  0  0  0
  -20.6990  -26.9090   22.6430 C   0  0  0  0  0  2  0  0  0  0  0  0
  -19.6050  -26.5730   21.6250 C   0  0  0  0  0  2  0  0  0  0  0  0
  -18.2200  -26.7060   22.2650 C   0  0  0  0  0  2  0  0  0  0  0  0
  -19.1360  -28.8280   23.3690 C   0  0  0  0  0  0  0  0  0  0  0  0
  -18.9020  -30.0920   23.9560 C   0  0  0  0  0  3  0  0  0  0  0  0
  -17.5910  -30.5800   24.1150 C   0  0  0  0  0  3  0  0  0  0  0  0
  -16.4960  -29.8020   23.7000 C   0  0  0  0  0  3  0  0  0  0  0  0
  -16.7150  -28.5410   23.1170 C   0  0  0  0  0  3  0  0  0  0  0  0
  -25.8590  -32.5320   23.8600 C   0  0  0  0  0  3  0  0  0  0  0  0
  -26.3850  -31.7630   25.1340 C   0  0  1  0  0  0  0  0  0  0  0  0
  -25.3000  -31.5300   26.2110 C   0  0  0  0  0  1  0  0  0  0  0  0
  -26.9610  -30.3820   24.7390 C   0  0  0  0  0  1  0  0  0  0  0  0
  -27.5420  -32.5550   25.7860 C   0  0  0  0  0  1  0  0  0  0  0  0
  -25.5610  -33.9330   24.1830 N   0  0  0  0  0  0  0  0  0  0  0  0
  -25.9050  -34.9790   23.4190 C   0  0  0  0  0  0  0  0  0  0  0  0
  -26.5810  -34.8650   22.3920 O   0  0  0  0  0  0  0  0  0  0  0  0
  -24.9610  -34.0970   24.9790 H   0  0  0  0  0  0  0  0  0  0  0  0
  -24.2020  -36.7870   23.0280 C   0  0  0  0  0  1  0  0  0  0  0  0
  -25.4230  -36.3730   23.8650 C   0  0  0  0  0  3  0  0  0  0  0  0
  -27.5510  -37.2350   24.7370 C   0  0  0  0  0  1  0  0  0  0  0  0
  -26.4680  -37.4150   23.7730 N   0  0  0  0  0  0  0  0  0  0  0  0
  -26.0680  -38.3380   23.9150 H   0  0  0  0  0  0  0  0  0  0  0  0
  1  2  2  0
  1  4  1  0
  2  5  1  0
  4  6  2  0
  5  3  2  0
  6  3  1  0
  6  7  1  0
  8 12  1  0
  8 10  1  0
 11  9  1  0
 12  5  1  0
 12  9  1  0
 13 51  1  6
 13 14  1  0
 13 10  1  0
 13 11  1  0
 15 20  1  0
 16 17  1  0
 16 15  1  0
 18 17  1  0
 18 25  1  0
 18 19  1  0
 20 14  1  0
 20 19  1  0
 21 14  2  0
 22 23  2  0
 23 42  1  0
 24 23  1  0
 24 27  1  0
 25 22  1  0
 25 26  1  0
 26 24  2  0
 27 28  1  0
 28 29  2  0
 30 33  1  0
 30 29  1  0
 31 30  2  0
 32 31  1  0
 32 27  2  0
 33 34  1  0
 34 35  1  0
 35 36  2  0
 37 36  1  0
 37 41  1  0
 38 37  2  0
 39 34  2  0
 39 38  1  0
 40 39  1  0
 42 43  1  0
 43 46  1  0
 43 45  1  0
 44 42  2  0
 47 48  1  0
 47 22  1  0
 49 47  1  0
 50 51  1  0
 52  4  1  0
 52 54  1  0
 53 52  2  0
 55 57  1  0
 55 54  1  0
 56 67  2  0
 57 62  1  0
 58 66  1  0
 58 68  1  0
 59 65  1  0
 59 61  1  0
 60 66  1  0
 61 60  1  0
 62 61  2  0
 63 64  1  0
 63 57  2  0
 64 59  2  0
 65 58  1  0
 66 56  1  0
 68 70  2  0
 69 68  1  0
 71 69  1  0
 72 81  2  0
 72 77  1  0
 73 69  1  0
 73 77  1  0
 74 73  1  0
 75 76  1  0
 75 74  1  0
 76 72  1  0
 77 78  2  0
 78 79  1  0
 80 79  2  0
 81 80  1  0
 82 56  1  0
 82 87  1  0
 82 83  1  0
 83 86  1  1
 83 84  1  0
 85 83  1  0
 87 90  1  0
 88 92  1  0
 88 87  1  0
 89 88  2  0
 92 91  1  0
 94 92  1  0
 94 95  1  0
 94 93  1  0
M  ISO  4  13 100  14 100  54 101  55 101
M  END
>  <TORSDO>  (36) 
F 20

>  <SCORE>  (36) 
-13.285

>  <name>  (36) 
35

>  <ligand_id>  (36) 
35

>  <original_smiles>  (36) 
[H]c1c([H])c([H])c2c(c1[H])C([H])([H])C([H])([H])C([H])([H])C2([H])N([H])C(=O)C1([H])N(C(=O)C([H])(N([H])C(=O)C([H])(N([H])C([H])([H])[H])C([H])([H])[H])C(C([H])([H])[H])(C([H])([H])[H])C([H])([H])[H])C([H])([H])c2c([H])c(OC([H])([H])C(=O)c3c([H])c([H])c(C4([H])C([H])([H])C([H])([H])C(C(=O)N5C([H])([H])C([H])([H])C([H])([H])C([H])(n6nc(-c7c([H])c([H])c(Oc8c([H])c([H])c(F)c([H])c8F)c([H])c7[H])c(C(=O)N([H])[H])c6N([H])[H])C5([H])[H])(C([H])([H])C([H])([H])[H])C([H])([H])C4([H])[H])c([H])c3C([H])([H])[H])c([H])c([H])c2C1([H])[H]

>  <smiles>  (36) 
[H]c1c([H])c([H])c2c(c1[H])C([H])([H])C([H])([H])C([H])([H])C2([H])N([H])C(=O)C1([H])N(C(=O)C([H])(N([H])C(=O)C([H])(N([H])C([H])([H])[H])C([H])([H])[H])C(C([H])([H])[H])(C([H])([H])[H])C([H])([H])[H])C([H])([H])c2c([H])c(OC([H])([H])C(=O)c3c([H])c([H])c(C4([H])C([H])([H])C([H])([H])C(C(=O)N5C([H])([H])C([H])([H])C([H])([H])C([H])(n6nc(-c7c([H])c([H])c(Oc8c([H])c([H])c(F)c([H])c8F)c([H])c7[H])c(C(=O)N([H])[H])c6N([H])[H])C5([H])[H])(C([H])([H])C([H])([H])[H])C([H])([H])C4([H])[H])c([H])c3C([H])([H])[H])c([H])c([H])c2C1([H])[H]

$$$$
36:0:0
     RDKit          3D

 92101  0  0  1  0  0  0  0  0999 V2000
  -29.2690  -20.3890   19.0620 C   0  0  0  0  0  2  0  0  0  0  0  0
  -29.8810  -20.9510   20.1150 C   0  0  0  0  0  3  0  0  0  0  0  0
  -30.7560  -17.6740   21.7800 C   0  0  0  0  0  0  0  0  0  0  0  0
  -29.6860  -18.9330   18.7950 C   0  0  0  0  0  2  0  0  0  0  0  0
  -30.8560  -19.8800   20.6870 C   0  0  0  0  0  3  0  0  0  0  0  0
  -30.3520  -19.1520   21.9530 C   0  0  0  0  0  3  0  0  0  0  0  0
  -31.3270  -17.3610   20.3940 C   0  0  0  0  0  3  0  0  0  0  0  0
  -30.9810  -18.7210   19.6230 C   0  0  0  0  0  3  0  0  0  0  0  0
  -30.8740  -19.7580   23.2670 C   0  0  0  0  0  1  0  0  0  0  0  0
  -30.5860  -16.8340   22.6660 O   0  0  0  0  0  0  0  0  0  0  0  0
  -31.5970  -14.7960   19.7970 C   0  0  0  0  0  0  0  0  0  0  0  0
  -31.2380  -12.4630   18.9620 C   0  0  0  0  0  2  0  0  0  0  0  0
  -30.2680  -12.4740   17.7590 C   0  0  0  0  0  2  0  0  0  0  0  0
  -28.8030  -12.4340   18.2360 C   0  0  0  0  0  2  0  0  0  0  0  0
  -28.5100  -13.4510   19.3710 C   0  0  0  0  0  3  0  0  0  0  0  0
  -29.5890  -13.4070   20.4700 C   0  0  0  0  0  2  0  0  0  0  0  0
  -30.8870  -13.6180   19.8170 N   0  0  0  0  0  0  0  0  0  0  0  0
  -32.7930  -14.7970   19.4880 O   0  0  0  0  0  0  0  0  0  0  0  0
  -30.8910  -15.9740   19.9350 N   0  0  0  0  0  0  0  0  0  0  0  0
  -29.9010  -15.8280   20.0450 H   0  0  0  0  0  0  0  0  0  0  0  0
  -26.2270  -14.2700   20.2160 C   0  0  0  0  0  0  0  0  0  0  0  0
  -25.1060  -13.6030   20.6260 C   0  0  0  0  0  0  0  0  0  0  0  0
  -25.4260  -12.2110   20.5570 C   0  0  0  0  0  0  0  0  0  0  0  0
  -27.1660  -13.2930   19.9200 N   0  0  0  0  0  0  0  0  0  0  0  0
  -26.6910  -12.0470   20.1860 N   0  0  0  0  0  0  0  0  0  0  0  0
  -24.5800  -11.0260   20.7590 C   0  0  0  0  0  0  0  0  0  0  0  0
  -24.9350  -10.0100   21.6710 C   0  0  0  0  0  3  0  0  0  0  0  0
  -24.0940   -8.8930   21.8640 C   0  0  0  0  0  3  0  0  0  0  0  0
  -22.8830   -8.7830   21.1400 C   0  0  0  0  0  0  0  0  0  0  0  0
  -22.5460   -9.7870   20.2130 C   0  0  0  0  0  3  0  0  0  0  0  0
  -23.3870  -10.8950   20.0210 C   0  0  0  0  0  3  0  0  0  0  0  0
  -22.0180   -7.7210   21.2410 O   0  0  0  0  0  0  0  0  0  0  0  0
  -21.8960   -7.0000   22.4000 C   0  0  0  0  0  0  0  0  0  0  0  0
  -21.5380   -7.6110   23.6230 C   0  0  0  0  0  3  0  0  0  0  0  0
  -21.3560   -6.8230   24.7770 C   0  0  0  0  0  3  0  0  0  0  0  0
  -21.5230   -5.4260   24.7080 C   0  0  0  0  0  0  0  0  0  0  0  0
  -21.8720   -4.8150   23.4900 C   0  0  0  0  0  3  0  0  0  0  0  0
  -22.0560   -5.6010   22.3390 C   0  0  0  0  0  0  0  0  0  0  0  0
  -22.3720   -5.0060   21.1630 F   0  0  0  0  0  0  0  0  0  0  0  0
  -21.3420   -4.6680   25.8130 F   0  0  0  0  0  0  0  0  0  0  0  0
  -23.7780  -14.2190   20.9640 C   0  0  0  0  0  0  0  0  0  0  0  0
  -23.0290  -13.6030   21.8720 N   0  0  0  0  0  0  0  0  0  0  0  0
  -23.4170  -15.2790   20.4570 O   0  0  0  0  0  0  0  0  0  0  0  0
  -23.3300  -12.7410   22.3020 H   0  0  0  0  0  0  0  0  0  0  0  0
  -22.1420  -14.0060   22.1420 H   0  0  0  0  0  0  0  0  0  0  0  0
  -26.5120  -15.6200   20.0440 N   0  0  0  0  0  0  0  0  0  0  0  0
  -25.7940  -16.3290   20.1600 H   0  0  0  0  0  0  0  0  0  0  0  0
  -27.3550  -15.9860   19.6230 H   0  0  0  0  0  0  0  0  0  0  0  0
  -29.6070  -22.3670   20.7890 C   0  0  0  0  0  3  0  0  0  0  0  0
  -29.4150  -23.7520   19.9690 C   0  0  0  0  0  3  0  0  0  0  0  0
  -28.7460  -25.0120   20.7440 C   0  0  0  0  0  2  0  0  0  0  0  0
  -28.9210  -26.4460   20.3310 O   0  0  0  0  0  0  0  0  0  0  0  0
  -24.7980  -31.6740   23.2370 C   0  0  0  0  0  0  0  0  0  0  0  0
  -27.7790  -27.2700   20.2700 C   0  0  0  0  0  0  0  0  0  0  0  0
  -23.7440  -30.2310   21.5320 C   0  0  0  0  0  3  0  0  0  0  0  0
  -25.3390  -28.7740   20.1580 C   0  0  0  0  0  0  0  0  0  0  0  0
  -26.2690  -30.6810   21.4670 C   0  0  0  0  0  2  0  0  0  0  0  0
  -26.4540  -29.3140   20.8140 C   0  0  0  0  0  0  0  0  0  0  0  0
  -27.6790  -28.5730   20.8590 C   0  0  0  0  0  3  0  0  0  0  0  0
  -26.6450  -26.7980   19.5740 C   0  0  0  0  0  3  0  0  0  0  0  0
  -25.4400  -27.5250   19.5230 C   0  0  0  0  0  3  0  0  0  0  0  0
  -24.0560  -29.5820   20.1580 C   0  0  0  0  0  2  0  0  0  0  0  0
  -24.9520  -30.8820   22.1350 N   0  0  0  0  0  0  0  0  0  0  0  0
  -23.6800  -31.8880   23.7280 O   0  0  0  0  0  0  0  0  0  0  0  0
  -23.0930  -29.1710   22.4540 C   0  0  0  0  0  0  0  0  0  0  0  0
  -21.7820  -28.9310   22.2720 N   0  0  0  0  0  0  0  0  0  0  0  0
  -23.7680  -28.5730   23.2950 O   0  0  0  0  0  0  0  0  0  0  0  0
  -21.2910  -29.4710   21.5710 H   0  0  0  0  0  0  0  0  0  0  0  0
  -18.4630  -27.5330   22.6040 C   0  0  0  0  0  0  0  0  0  0  0  0
  -20.9830  -27.9440   22.9990 C   0  0  0  0  0  3  0  0  0  0  0  0
  -21.1980  -26.5220   22.4260 C   0  0  0  0  0  2  0  0  0  0  0  0
  -20.1700  -26.1430   21.3550 C   0  0  0  0  0  2  0  0  0  0  0  0
  -18.7510  -26.2020   21.9300 C   0  0  0  0  0  2  0  0  0  0  0  0
  -19.5110  -28.3600   23.0930 C   0  0  0  0  0  0  0  0  0  0  0  0
  -19.1880  -29.6020   23.6800 C   0  0  0  0  0  3  0  0  0  0  0  0
  -17.8490  -30.0260   23.7790 C   0  0  0  0  0  3  0  0  0  0  0  0
  -16.8150  -29.1970   23.3090 C   0  0  0  0  0  3  0  0  0  0  0  0
  -17.1220  -27.9520   22.7310 C   0  0  0  0  0  3  0  0  0  0  0  0
  -26.0190  -32.3650   23.9200 C   0  0  0  0  0  3  0  0  0  0  0  0
  -26.4890  -31.6350   25.2380 C   0  0  1  0  0  0  0  0  0  0  0  0
  -25.3460  -31.3780   26.2480 C   0  0  0  0  0  1  0  0  0  0  0  0
  -27.1460  -30.2750   24.9070 C   0  0  0  0  0  1  0  0  0  0  0  0
  -27.5720  -32.4830   25.9490 C   0  0  0  0  0  1  0  0  0  0  0  0
  -25.6360  -33.7540   24.2080 N   0  0  0  0  0  0  0  0  0  0  0  0
  -25.9620  -34.8100   23.4490 C   0  0  0  0  0  0  0  0  0  0  0  0
  -26.6860  -34.7180   22.4560 O   0  0  0  0  0  0  0  0  0  0  0  0
  -24.9990  -33.8970   24.9780 H   0  0  0  0  0  0  0  0  0  0  0  0
  -24.1800  -36.5220   22.9840 C   0  0  0  0  0  1  0  0  0  0  0  0
  -25.3970  -36.1830   23.8580 C   0  0  0  0  0  3  0  0  0  0  0  0
  -27.4560  -37.1740   24.7580 C   0  0  0  0  0  1  0  0  0  0  0  0
  -26.3880  -37.2770   23.7670 N   0  0  0  0  0  0  0  0  0  0  0  0
  -25.9390  -38.1820   23.8790 H   0  0  0  0  0  0  0  0  0  0  0  0
  1  2  1  0
  2  5  1  0
  2 49  1  0
  3  6  1  0
  3 10  2  0
  4  1  1  0
  4  8  1  0
  5  6  1  0
  6  9  1  0
  7  3  1  0
  8  7  1  0
  8  5  1  0
 11 17  1  0
 11 19  1  0
 12 17  1  0
 13 14  1  0
 13 12  1  0
 14 15  1  0
 15 24  1  0
 15 16  1  0
 17 16  1  0
 18 11  2  0
 19 20  1  0
 19  7  1  0
 21 22  2  0
 22 41  1  0
 23 22  1  0
 23 26  1  0
 24 25  1  0
 24 21  1  0
 25 23  2  0
 26 27  1  0
 27 28  2  0
 29 32  1  0
 29 28  1  0
 30 29  2  0
 31 30  1  0
 31 26  2  0
 32 33  1  0
 33 34  1  0
 34 35  2  0
 36 35  1  0
 36 40  1  0
 37 36  2  0
 38 33  2  0
 38 37  1  0
 39 38  1  0
 41 42  1  0
 42 45  1  0
 42 44  1  0
 43 41  2  0
 46 47  1  0
 46 21  1  0
 48 46  1  0
 50 51  1  0
 50 49  2  0
 52 51  1  0
 53 64  2  0
 53 79  1  0
 54 52  1  0
 54 59  1  0
 55 63  1  0
 55 65  1  0
 56 62  1  0
 56 58  1  0
 57 63  1  0
 58 59  2  0
 58 57  1  0
 60 54  2  0
 61 60  1  0
 61 56  2  0
 62 55  1  0
 63 53  1  0
 65 67  2  0
 66 65  1  0
 66 70  1  0
 68 66  1  0
 69 78  2  0
 69 74  1  0
 70 74  1  0
 71 70  1  0
 72 73  1  0
 72 71  1  0
 73 69  1  0
 74 75  2  0
 75 76  1  0
 77 76  2  0
 78 77  1  0
 79 84  1  0
 79 80  1  0
 80 83  1  1
 80 81  1  0
 82 80  1  0
 84 87  1  0
 85 89  1  0
 85 84  1  0
 86 85  2  0
 88 89  1  0
 91 89  1  0
 91 92  1  0
 91 90  1  0
M  ISO  4  11 100  19 100  51 101  52 101
M  END
>  <TORSDO>  (37) 
F 19

>  <SCORE>  (37) 
-12.881

>  <name>  (37) 
36

>  <ligand_id>  (37) 
36

>  <original_smiles>  (37) 
[H]C1=C(C([H])([H])C([H])([H])C([H])([H])Oc2c([H])c([H])c3c(c2[H])C([H])([H])N(C(=O)C([H])(N([H])C(=O)C([H])(N([H])C([H])([H])[H])C([H])([H])[H])C(C([H])([H])[H])(C([H])([H])[H])C([H])([H])[H])C([H])(C(=O)N([H])C2([H])c4c([H])c([H])c([H])c([H])c4C([H])([H])C([H])([H])C2([H])[H])C3([H])[H])C2([H])C([H])(C([H])([H])[H])C(=O)C([H])(N([H])C(=O)N3C([H])([H])C([H])([H])C([H])([H])C([H])(n4nc(-c5c([H])c([H])c(Oc6c([H])c([H])c(F)c([H])c6F)c([H])c5[H])c(C(=O)N([H])[H])c4N([H])[H])C3([H])[H])C2([H])C1([H])[H]

>  <smiles>  (37) 
[H]C1=C(C([H])([H])C([H])([H])C([H])([H])Oc2c([H])c([H])c3c(c2[H])C([H])([H])N(C(=O)C([H])(N([H])C(=O)C([H])(N([H])C([H])([H])[H])C([H])([H])[H])C(C([H])([H])[H])(C([H])([H])[H])C([H])([H])[H])C([H])(C(=O)N([H])C2([H])c4c([H])c([H])c([H])c([H])c4C([H])([H])C([H])([H])C2([H])[H])C3([H])[H])C2([H])C([H])(C([H])([H])[H])C(=O)C([H])(N([H])C(=O)N3C([H])([H])C([H])([H])C([H])([H])C([H])(n4nc(-c5c([H])c([H])c(Oc6c([H])c([H])c(F)c([H])c6F)c([H])c5[H])c(C(=O)N([H])[H])c4N([H])[H])C3([H])[H])C2([H])C1([H])[H]

$$$$
37:0:0
     RDKit          3D

 95104  0  0  1  0  0  0  0  0999 V2000
  -27.4710  -21.0980   20.0390 C   0  0  0  0  0  3  0  0  0  0  0  0
  -27.8860  -19.7930   20.3650 C   0  0  0  0  0  3  0  0  0  0  0  0
  -30.2030  -20.5250   20.3360 C   0  0  0  0  0  3  0  0  0  0  0  0
  -28.4150  -22.1320   19.8510 C   0  0  0  0  0  0  0  0  0  0  0  0
  -29.2580  -19.4840   20.5090 C   0  0  0  0  0  0  0  0  0  0  0  0
  -29.7930  -21.8430   20.0220 C   0  0  0  0  0  0  0  0  0  0  0  0
  -27.9400  -23.5030   19.4890 C   0  0  0  0  0  0  0  0  0  0  0  0
  -30.8570  -22.9250   19.8620 C   0  0  0  0  0  2  0  0  0  0  0  0
  -30.2920  -24.3590   19.8850 C   0  0  0  0  0  2  0  0  0  0  0  0
  -29.0220  -24.4950   19.0250 C   0  0  0  0  0  3  0  0  0  0  0  0
  -26.7480  -23.8160   19.4970 O   0  0  0  0  0  0  0  0  0  0  0  0
  -29.6490  -18.0850   20.8780 C   0  0  0  0  0  0  0  0  0  0  0  0
  -28.8210  -17.2430   21.2400 O   0  0  0  0  0  0  0  0  0  0  0  0
  -31.1330  -17.6910   20.7540 C   0  0  0  0  0  2  0  0  0  0  0  0
  -31.5670  -16.3620   21.4290 C   0  0  0  0  0  2  0  0  0  0  0  0
  -31.2120  -14.3440   19.9730 C   0  0  0  0  0  0  0  0  0  0  0  0
  -30.7480  -12.1970   18.8440 C   0  0  0  0  0  2  0  0  0  0  0  0
  -29.7620  -12.3590   17.6740 C   0  0  0  0  0  2  0  0  0  0  0  0
  -28.3080  -12.2760   18.1700 C   0  0  0  0  0  2  0  0  0  0  0  0
  -28.0420  -13.2060   19.3820 C   0  0  0  0  0  3  0  0  0  0  0  0
  -29.1240  -13.0140   20.4660 C   0  0  0  0  0  2  0  0  0  0  0  0
  -30.4490  -13.2270   19.8500 N   0  0  0  0  0  0  0  0  0  0  0  0
  -32.1950  -14.5810   19.2640 O   0  0  0  0  0  0  0  0  0  0  0  0
  -30.8610  -15.1580   20.9760 N   0  0  0  0  0  0  0  0  0  0  0  0
  -30.0550  -14.8750   21.5150 H   0  0  0  0  0  0  0  0  0  0  0  0
  -25.7110  -13.9410   20.1960 C   0  0  0  0  0  0  0  0  0  0  0  0
  -24.6210  -13.2260   20.6160 C   0  0  0  0  0  0  0  0  0  0  0  0
  -25.0080  -11.8510   20.5640 C   0  0  0  0  0  0  0  0  0  0  0  0
  -26.6970  -13.0060   19.9210 N   0  0  0  0  0  0  0  0  0  0  0  0
  -26.2780  -11.7440   20.1980 N   0  0  0  0  0  0  0  0  0  0  0  0
  -24.2260  -10.6290   20.7920 C   0  0  0  0  0  0  0  0  0  0  0  0
  -24.6210   -9.6680   21.7500 C   0  0  0  0  0  3  0  0  0  0  0  0
  -23.8430   -8.5090   21.9620 C   0  0  0  0  0  3  0  0  0  0  0  0
  -22.6580   -8.3040   21.2180 C   0  0  0  0  0  0  0  0  0  0  0  0
  -22.2820   -9.2520   20.2510 C   0  0  0  0  0  3  0  0  0  0  0  0
  -23.0580  -10.4030   20.0370 C   0  0  0  0  0  3  0  0  0  0  0  0
  -21.8530   -7.1950   21.3380 O   0  0  0  0  0  0  0  0  0  0  0  0
  -21.7350   -6.5180   22.5260 C   0  0  0  0  0  0  0  0  0  0  0  0
  -21.2900   -7.1540   23.7050 C   0  0  0  0  0  3  0  0  0  0  0  0
  -21.1160   -6.4050   24.8850 C   0  0  0  0  0  3  0  0  0  0  0  0
  -21.3760   -5.0220   24.8870 C   0  0  0  0  0  0  0  0  0  0  0  0
  -21.8120   -4.3850   23.7120 C   0  0  0  0  0  3  0  0  0  0  0  0
  -21.9880   -5.1320   22.5340 C   0  0  0  0  0  0  0  0  0  0  0  0
  -22.3890   -4.5110   21.3990 F   0  0  0  0  0  0  0  0  0  0  0  0
  -21.2000   -4.3000   26.0190 F   0  0  0  0  0  0  0  0  0  0  0  0
  -23.2650  -13.7750   20.9560 C   0  0  0  0  0  0  0  0  0  0  0  0
  -22.5520  -13.1270   21.8690 N   0  0  0  0  0  0  0  0  0  0  0  0
  -22.8500  -14.8160   20.4450 O   0  0  0  0  0  0  0  0  0  0  0  0
  -22.9020  -12.2850   22.3020 H   0  0  0  0  0  0  0  0  0  0  0  0
  -21.6440  -13.4770   22.1390 H   0  0  0  0  0  0  0  0  0  0  0  0
  -25.9410  -15.3000   20.0130 N   0  0  0  0  0  0  0  0  0  0  0  0
  -25.2280  -16.0020   20.1800 H   0  0  0  0  0  0  0  0  0  0  0  0
  -26.8290  -15.6980   19.7300 H   0  0  0  0  0  0  0  0  0  0  0  0
  -28.5620  -25.9650   18.7950 C   0  0  0  0  0  2  0  0  0  0  0  0
  -28.2050  -26.6980   19.9800 O   0  0  0  0  0  0  0  0  0  0  0  0
  -24.4900  -31.8370   23.2280 C   0  0  0  0  0  0  0  0  0  0  0  0
  -27.0310  -27.4270   19.9950 C   0  0  0  0  0  0  0  0  0  0  0  0
  -23.2390  -30.4830   21.5780 C   0  0  0  0  0  3  0  0  0  0  0  0
  -24.6500  -28.9620   20.1000 C   0  0  0  0  0  0  0  0  0  0  0  0
  -25.7680  -30.8090   21.3520 C   0  0  0  0  0  2  0  0  0  0  0  0
  -25.8230  -29.4510   20.6850 C   0  0  0  0  0  0  0  0  0  0  0  0
  -27.0120  -28.6850   20.6440 C   0  0  0  0  0  3  0  0  0  0  0  0
  -25.8320  -26.9560   19.4130 C   0  0  0  0  0  3  0  0  0  0  0  0
  -24.6480  -27.7100   19.4660 C   0  0  0  0  0  3  0  0  0  0  0  0
  -23.4170  -29.8300   20.1830 C   0  0  0  0  0  2  0  0  0  0  0  0
  -24.5180  -31.0570   22.1100 N   0  0  0  0  0  0  0  0  0  0  0  0
  -23.4220  -32.1140   23.7890 O   0  0  0  0  0  0  0  0  0  0  0  0
  -22.5930  -29.4490   22.5290 C   0  0  0  0  0  0  0  0  0  0  0  0
  -21.2740  -29.2440   22.3810 N   0  0  0  0  0  0  0  0  0  0  0  0
  -23.2760  -28.8350   23.3530 O   0  0  0  0  0  0  0  0  0  0  0  0
  -20.7830  -29.7950   21.6920 H   0  0  0  0  0  0  0  0  0  0  0  0
  -17.9300  -27.9310   22.7650 C   0  0  0  0  0  0  0  0  0  0  0  0
  -20.4620  -28.2920   23.1380 C   0  0  0  0  0  3  0  0  0  0  0  0
  -20.6410  -26.8540   22.6000 C   0  0  0  0  0  2  0  0  0  0  0  0
  -19.5980  -26.4660   21.5470 C   0  0  0  0  0  2  0  0  0  0  0  0
  -18.1860  -26.5740   22.1290 C   0  0  0  0  0  2  0  0  0  0  0  0
  -19.0000  -28.7450   23.2220 C   0  0  0  0  0  0  0  0  0  0  0  0
  -18.7110  -30.0130   23.7720 C   0  0  0  0  0  3  0  0  0  0  0  0
  -17.3820  -30.4700   23.8660 C   0  0  0  0  0  3  0  0  0  0  0  0
  -16.3260  -29.6530   23.4260 C   0  0  0  0  0  3  0  0  0  0  0  0
  -16.5990  -28.3860   22.8830 C   0  0  0  0  0  3  0  0  0  0  0  0
  -25.7950  -32.4390   23.8360 C   0  0  0  0  0  3  0  0  0  0  0  0
  -26.3050  -31.6620   25.1110 C   0  0  1  0  0  0  0  0  0  0  0  0
  -25.2140  -31.4490   26.1880 C   0  0  0  0  0  1  0  0  0  0  0  0
  -26.8540  -30.2700   24.7190 C   0  0  0  0  0  1  0  0  0  0  0  0
  -27.4780  -32.4350   25.7600 C   0  0  0  0  0  1  0  0  0  0  0  0
  -25.5240  -33.8470   24.1590 N   0  0  0  0  0  0  0  0  0  0  0  0
  -25.8650  -34.8850   23.3830 C   0  0  0  0  0  0  0  0  0  0  0  0
  -26.5150  -34.7580   22.3410 O   0  0  0  0  0  0  0  0  0  0  0  0
  -24.9520  -34.0250   24.9710 H   0  0  0  0  0  0  0  0  0  0  0  0
  -24.1700  -36.7100   23.0380 C   0  0  0  0  0  1  0  0  0  0  0  0
  -25.4140  -36.2870   23.8350 C   0  0  0  0  0  3  0  0  0  0  0  0
  -27.5790  -37.1350   24.6250 C   0  0  0  0  0  1  0  0  0  0  0  0
  -26.4660  -37.3170   23.6960 N   0  0  0  0  0  0  0  0  0  0  0  0
  -26.0800  -38.2460   23.8380 H   0  0  0  0  0  0  0  0  0  0  0  0
  1  2  1  0
  2  5  2  0
  3  5  1  0
  4  6  1  0
  4  1  2  0
  5 12  1  0
  6  3  2  0
  7 11  2  0
  7  4  1  0
  8  9  1  0
  8  6  1  0
 10 54  1  0
 10  7  1  0
 10  9  1  0
 12 13  2  0
 14 12  1  0
 14 15  1  0
 16 24  1  0
 17 22  1  0
 18 19  1  0
 18 17  1  0
 20 19  1  0
 20 29  1  0
 20 21  1  0
 22 16  1  0
 22 21  1  0
 23 16  2  0
 24 15  1  0
 24 25  1  0
 26 27  2  0
 27 46  1  0
 28 27  1  0
 28 31  1  0
 29 26  1  0
 29 30  1  0
 30 28  2  0
 31 32  1  0
 32 33  2  0
 34 37  1  0
 34 33  1  0
 35 34  2  0
 36 35  1  0
 36 31  2  0
 37 38  1  0
 38 43  2  0
 38 39  1  0
 39 40  2  0
 40 41  1  0
 41 45  1  0
 42 41  2  0
 43 42  1  0
 44 43  1  0
 46 47  1  0
 47 50  1  0
 47 49  1  0
 48 46  2  0
 51 52  1  0
 51 26  1  0
 53 51  1  0
 54 55  1  0
 55 57  1  0
 56 67  2  0
 57 62  1  0
 58 66  1  0
 58 68  1  0
 59 65  1  0
 59 61  1  0
 60 66  1  0
 61 60  1  0
 62 61  2  0
 63 64  1  0
 63 57  2  0
 64 59  2  0
 65 58  1  0
 66 56  1  0
 68 70  2  0
 69 68  1  0
 71 69  1  0
 72 81  2  0
 72 77  1  0
 73 69  1  0
 73 77  1  0
 74 73  1  0
 75 76  1  0
 75 74  1  0
 76 72  1  0
 77 78  2  0
 78 79  1  0
 80 79  2  0
 81 80  1  0
 82 56  1  0
 82 87  1  0
 82 83  1  0
 83 86  1  1
 83 84  1  0
 85 83  1  0
 87 90  1  0
 88 92  1  0
 88 87  1  0
 89 88  2  0
 92 91  1  0
 94 92  1  0
 94 95  1  0
 94 93  1  0
M  ISO  4  16 100  24 100  54 101  55 101
M  END
>  <TORSDO>  (38) 
F 20

>  <SCORE>  (38) 
-13.187

>  <name>  (38) 
37

>  <ligand_id>  (38) 
37

>  <original_smiles>  (38) 
[H]c1c([H])c([H])c2c(c1[H])C([H])([H])C([H])([H])C([H])([H])C2([H])N([H])C(=O)C1([H])N(C(=O)C([H])(N([H])C(=O)C([H])(N([H])C([H])([H])[H])C([H])([H])[H])C(C([H])([H])[H])(C([H])([H])[H])C([H])([H])[H])C([H])([H])c2c([H])c(OC([H])([H])C3([H])C(=O)c4c([H])c([H])c(C(=O)C([H])([H])C([H])([H])N([H])C(=O)N5C([H])([H])C([H])([H])C([H])([H])C([H])(n6nc(-c7c([H])c([H])c(Oc8c([H])c([H])c(F)c([H])c8F)c([H])c7[H])c(C(=O)N([H])[H])c6N([H])[H])C5([H])[H])c([H])c4C([H])([H])C3([H])[H])c([H])c([H])c2C1([H])[H]

>  <smiles>  (38) 
[H]c1c([H])c([H])c2c(c1[H])C([H])([H])C([H])([H])C([H])([H])C2([H])N([H])C(=O)C1([H])N(C(=O)C([H])(N([H])C(=O)C([H])(N([H])C([H])([H])[H])C([H])([H])[H])C(C([H])([H])[H])(C([H])([H])[H])C([H])([H])[H])C([H])([H])c2c([H])c(OC([H])([H])C3([H])C(=O)c4c([H])c([H])c(C(=O)C([H])([H])C([H])([H])N([H])C(=O)N5C([H])([H])C([H])([H])C([H])([H])C([H])(n6nc(-c7c([H])c([H])c(Oc8c([H])c([H])c(F)c([H])c8F)c([H])c7[H])c(C(=O)N([H])[H])c6N([H])[H])C5([H])[H])c([H])c4C([H])([H])C3([H])[H])c([H])c([H])c2C1([H])[H]

$$$$
38:0:0
     RDKit          3D

 96104  0  0  1  0  0  0  0  0999 V2000
  -31.7810  -22.0250   20.7780 C   0  0  0  0  0  2  0  0  0  0  0  0
  -30.8320  -23.1660   20.3770 C   0  0  0  0  0  2  0  0  0  0  0  0
  -31.1890  -20.6420   20.4360 C   0  0  0  0  0  2  0  0  0  0  0  0
  -28.8920  -21.5930   20.7390 C   0  0  0  0  0  2  0  0  0  0  0  0
  -29.4450  -23.0180   21.0360 C   0  0  0  0  0  3  0  0  0  0  0  0
  -29.8220  -20.3790   21.1240 C   0  0  2  0  0  0  0  0  0  0  0  0
  -29.9190  -20.3130   22.6930 C   0  0  0  0  0  2  0  0  0  0  0  0
  -31.2260  -19.8350   23.3550 C   0  0  0  0  0  0  0  0  0  0  0  0
  -32.2580  -20.6710   23.4060 N   0  0  0  0  0  0  0  0  0  0  0  0
  -31.2910  -18.7370   23.9000 O   0  0  0  0  0  0  0  0  0  0  0  0
  -32.2020  -21.5850   22.9810 H   0  0  0  0  0  0  0  0  0  0  0  0
  -33.1180  -20.3930   23.8590 H   0  0  0  0  0  0  0  0  0  0  0  0
  -28.4800  -24.1610   20.5900 C   0  0  0  0  0  2  0  0  0  0  0  0
  -28.7060  -25.5030   21.3390 C   0  0  0  0  0  2  0  0  0  0  0  0
  -28.6310  -26.6610   20.4980 O   0  0  0  0  0  0  0  0  0  0  0  0
  -24.6940  -31.8900   23.3390 C   0  0  0  0  0  0  0  0  0  0  0  0
  -27.4450  -27.3590   20.5020 C   0  0  0  0  0  0  0  0  0  0  0  0
  -23.5400  -30.4280   21.7080 C   0  0  0  0  0  3  0  0  0  0  0  0
  -25.0420  -28.8400   20.3900 C   0  0  0  0  0  0  0  0  0  0  0  0
  -26.0670  -30.7930   21.5710 C   0  0  0  0  0  2  0  0  0  0  0  0
  -26.1780  -29.3980   20.9910 C   0  0  0  0  0  0  0  0  0  0  0  0
  -27.3850  -28.6640   21.0400 C   0  0  0  0  0  3  0  0  0  0  0  0
  -26.2940  -26.8060   19.9060 C   0  0  0  0  0  3  0  0  0  0  0  0
  -25.0930  -27.5430   19.8470 C   0  0  0  0  0  3  0  0  0  0  0  0
  -23.7940  -29.6950   20.3630 C   0  0  0  0  0  2  0  0  0  0  0  0
  -24.7840  -31.0550   22.2650 N   0  0  0  0  0  0  0  0  0  0  0  0
  -23.5960  -32.1760   23.8380 O   0  0  0  0  0  0  0  0  0  0  0  0
  -22.8630  -29.4410   22.6860 C   0  0  0  0  0  0  0  0  0  0  0  0
  -21.5510  -29.2180   22.4970 N   0  0  0  0  0  0  0  0  0  0  0  0
  -23.5160  -28.8740   23.5650 O   0  0  0  0  0  0  0  0  0  0  0  0
  -21.0870  -29.7270   21.7580 H   0  0  0  0  0  0  0  0  0  0  0  0
  -18.1960  -27.9230   22.8350 C   0  0  0  0  0  0  0  0  0  0  0  0
  -20.7170  -28.2970   23.2670 C   0  0  0  0  0  3  0  0  0  0  0  0
  -20.9110  -26.8390   22.7930 C   0  0  0  0  0  2  0  0  0  0  0  0
  -19.8970  -26.4120   21.7260 C   0  0  0  0  0  2  0  0  0  0  0  0
  -18.4680  -26.5420   22.2610 C   0  0  0  0  0  2  0  0  0  0  0  0
  -19.2530  -28.7530   23.2920 C   0  0  0  0  0  0  0  0  0  0  0  0
  -18.9490  -30.0410   23.7840 C   0  0  0  0  0  3  0  0  0  0  0  0
  -17.6190  -30.5000   23.8250 C   0  0  0  0  0  3  0  0  0  0  0  0
  -16.5750  -29.6690   23.3850 C   0  0  0  0  0  3  0  0  0  0  0  0
  -16.8640  -28.3820   22.8960 C   0  0  0  0  0  3  0  0  0  0  0  0
  -25.9590  -32.5450   23.9760 C   0  0  0  0  0  3  0  0  0  0  0  0
  -25.6360  -33.9500   24.2580 N   0  0  0  0  0  0  0  0  0  0  0  0
  -25.9800  -34.9810   23.4740 C   0  0  0  0  0  0  0  0  0  0  0  0
  -26.6740  -34.8510   22.4620 O   0  0  0  0  0  0  0  0  0  0  0  0
  -25.0240  -34.1250   25.0420 H   0  0  0  0  0  0  0  0  0  0  0  0
  -24.2450  -36.7470   23.0320 C   0  0  0  0  0  1  0  0  0  0  0  0
  -25.4750  -36.3780   23.8790 C   0  0  0  0  0  3  0  0  0  0  0  0
  -27.5850  -37.3090   24.7190 C   0  0  0  0  0  1  0  0  0  0  0  0
  -26.5000  -37.4360   23.7490 N   0  0  0  0  0  0  0  0  0  0  0  0
  -26.0840  -38.3580   23.8590 H   0  0  0  0  0  0  0  0  0  0  0  0
  -26.4490  -31.8110   25.2850 C   0  0  1  0  0  0  0  0  0  0  0  0
  -25.3280  -31.5800   26.3250 C   0  0  0  0  0  1  0  0  0  0  0  0
  -27.0640  -30.4360   24.9390 C   0  0  0  0  0  1  0  0  0  0  0  0
  -27.5660  -32.6390   25.9640 C   0  0  0  0  0  1  0  0  0  0  0  0
  -29.1470  -19.1100   20.4860 C   0  0  0  0  0  2  0  0  0  0  0  0
  -29.2630  -17.6810   21.0900 C   0  0  0  0  0  2  0  0  0  0  0  0
  -30.5810  -16.8850   20.9060 C   0  0  0  0  0  2  0  0  0  0  0  0
  -31.0550  -14.4310   20.5770 C   0  0  0  0  0  0  0  0  0  0  0  0
  -30.7230  -12.3190   19.3510 C   0  0  0  0  0  2  0  0  0  0  0  0
  -29.7920  -12.5970   18.1530 C   0  0  0  0  0  2  0  0  0  0  0  0
  -28.3100  -12.4910   18.5710 C   0  0  0  0  0  2  0  0  0  0  0  0
  -27.9940  -13.2840   19.8690 C   0  0  0  0  0  3  0  0  0  0  0  0
  -29.0360  -12.9750   20.9690 C   0  0  0  0  0  2  0  0  0  0  0  0
  -30.3720  -13.2640   20.4220 N   0  0  0  0  0  0  0  0  0  0  0  0
  -32.1850  -14.6180   20.1180 O   0  0  0  0  0  0  0  0  0  0  0  0
  -30.3320  -15.4450   21.0880 N   0  0  0  0  0  0  0  0  0  0  0  0
  -29.4340  -15.1890   21.4710 H   0  0  0  0  0  0  0  0  0  0  0  0
  -25.5970  -13.9370   20.5530 C   0  0  0  0  0  0  0  0  0  0  0  0
  -24.5120  -13.1850   20.9110 C   0  0  0  0  0  0  0  0  0  0  0  0
  -24.9470  -11.8240   20.8770 C   0  0  0  0  0  0  0  0  0  0  0  0
  -26.6290  -13.0360   20.3290 N   0  0  0  0  0  0  0  0  0  0  0  0
  -26.2390  -11.7610   20.5800 N   0  0  0  0  0  0  0  0  0  0  0  0
  -24.1930  -10.5760   21.0510 C   0  0  0  0  0  0  0  0  0  0  0  0
  -24.5790   -9.6080   22.0050 C   0  0  0  0  0  3  0  0  0  0  0  0
  -23.8280   -8.4230   22.1660 C   0  0  0  0  0  3  0  0  0  0  0  0
  -22.6780   -8.1980   21.3730 C   0  0  0  0  0  0  0  0  0  0  0  0
  -22.3140   -9.1520   20.4060 C   0  0  0  0  0  3  0  0  0  0  0  0
  -23.0660  -10.3280   20.2420 C   0  0  0  0  0  3  0  0  0  0  0  0
  -21.9030   -7.0660   21.4430 O   0  0  0  0  0  0  0  0  0  0  0  0
  -21.7630   -6.3610   22.6110 C   0  0  0  0  0  0  0  0  0  0  0  0
  -21.2500   -6.9580   23.7840 C   0  0  0  0  0  3  0  0  0  0  0  0
  -21.0570   -6.1800   24.9420 C   0  0  0  0  0  3  0  0  0  0  0  0
  -21.3650   -4.8070   24.9290 C   0  0  0  0  0  0  0  0  0  0  0  0
  -21.8720   -4.2100   23.7600 C   0  0  0  0  0  3  0  0  0  0  0  0
  -22.0670   -4.9850   22.6050 C   0  0  0  0  0  0  0  0  0  0  0  0
  -22.5360   -4.4000   21.4760 F   0  0  0  0  0  0  0  0  0  0  0  0
  -21.1710   -4.0580   26.0390 F   0  0  0  0  0  0  0  0  0  0  0  0
  -23.1220  -13.6860   21.1750 C   0  0  0  0  0  0  0  0  0  0  0  0
  -22.3730  -13.0060   22.0370 N   0  0  0  0  0  0  0  0  0  0  0  0
  -22.7050  -14.7180   20.6490 O   0  0  0  0  0  0  0  0  0  0  0  0
  -22.7190  -12.1730   22.4880 H   0  0  0  0  0  0  0  0  0  0  0  0
  -21.4380  -13.3260   22.2510 H   0  0  0  0  0  0  0  0  0  0  0  0
  -25.7860  -15.3060   20.3780 N   0  0  0  0  0  0  0  0  0  0  0  0
  -25.0230  -15.9670   20.4700 H   0  0  0  0  0  0  0  0  0  0  0  0
  -26.6310  -15.7270   20.0140 H   0  0  0  0  0  0  0  0  0  0  0  0
  2  1  1  0
  2  5  1  0
  3  1  1  0
  3  6  1  0
  4  5  1  0
  4  6  1  0
  5 13  1  0
  6 56  1  6
  6  7  1  0
  7  8  1  0
  8  9  1  0
  8 10  2  0
  9 12  1  0
 11  9  1  0
 13 14  1  0
 15 17  1  0
 15 14  1  0
 16 27  2  0
 17 22  1  0
 18 26  1  0
 18 28  1  0
 19 21  1  0
 20 26  1  0
 21 22  2  0
 21 20  1  0
 23 17  2  0
 24 23  1  0
 24 19  2  0
 25 19  1  0
 25 18  1  0
 26 16  1  0
 28 30  2  0
 29 28  1  0
 31 29  1  0
 32 41  2  0
 32 37  1  0
 33 29  1  0
 33 37  1  0
 34 33  1  0
 35 36  1  0
 35 34  1  0
 36 32  1  0
 37 38  2  0
 38 39  1  0
 40 39  2  0
 41 40  1  0
 42 16  1  0
 42 43  1  0
 42 52  1  0
 43 46  1  0
 44 48  1  0
 44 43  1  0
 45 44  2  0
 48 47  1  0
 50 51  1  0
 50 48  1  0
 50 49  1  0
 52 55  1  1
 52 53  1  0
 54 52  1  0
 56 57  1  0
 58 67  1  0
 58 57  1  0
 59 67  1  0
 60 65  1  0
 61 62  1  0
 61 60  1  0
 63 62  1  0
 63 72  1  0
 63 64  1  0
 65 59  1  0
 65 64  1  0
 66 59  2  0
 67 68  1  0
 69 70  2  0
 70 89  1  0
 71 70  1  0
 71 74  1  0
 72 69  1  0
 72 73  1  0
 73 71  2  0
 74 75  1  0
 75 76  2  0
 77 80  1  0
 77 76  1  0
 78 77  2  0
 79 78  1  0
 79 74  2  0
 80 81  1  0
 81 82  1  0
 82 83  2  0
 84 83  1  0
 84 88  1  0
 85 84  2  0
 86 81  2  0
 86 85  1  0
 87 86  1  0
 89 90  1  0
 90 93  1  0
 90 92  1  0
 91 89  2  0
 94 95  1  0
 94 69  1  0
 96 94  1  0
M  ISO  4  14 101  15 101  59 100  67 100
M  END
>  <TORSDO>  (39) 
F 23

>  <SCORE>  (39) 
-12.305

>  <name>  (39) 
38

>  <ligand_id>  (39) 
38

>  <original_smiles>  (39) 
[H]c1c([H])c([H])c2c(c1[H])C([H])([H])C([H])([H])C([H])([H])C2([H])N([H])C(=O)C1([H])N(C(=O)C([H])(N([H])C(=O)C([H])(N([H])C([H])([H])[H])C([H])([H])[H])C(C([H])([H])[H])(C([H])([H])[H])C([H])([H])[H])C([H])([H])c2c([H])c(OC([H])([H])C([H])([H])C3([H])C([H])([H])C([H])([H])C([H])([H])C(C([H])([H])C(=O)N([H])[H])(C([H])([H])C([H])([H])C([H])([H])N([H])C(=O)N4C([H])([H])C([H])([H])C([H])([H])C([H])(n5nc(-c6c([H])c([H])c(Oc7c([H])c([H])c(F)c([H])c7F)c([H])c6[H])c(C(=O)N([H])[H])c5N([H])[H])C4([H])[H])C3([H])[H])c([H])c([H])c2C1([H])[H]

>  <smiles>  (39) 
[H]c1c([H])c([H])c2c(c1[H])C([H])([H])C([H])([H])C([H])([H])C2([H])N([H])C(=O)C1([H])N(C(=O)C([H])(N([H])C(=O)C([H])(N([H])C([H])([H])[H])C([H])([H])[H])C(C([H])([H])[H])(C([H])([H])[H])C([H])([H])[H])C([H])([H])c2c([H])c(OC([H])([H])C([H])([H])C3([H])C([H])([H])C([H])([H])C([H])([H])C(C([H])([H])C(=O)N([H])[H])(C([H])([H])C([H])([H])C([H])([H])N([H])C(=O)N4C([H])([H])C([H])([H])C([H])([H])C([H])(n5nc(-c6c([H])c([H])c(Oc7c([H])c([H])c(F)c([H])c7F)c([H])c6[H])c(C(=O)N([H])[H])c5N([H])[H])C4([H])[H])C3([H])[H])c([H])c([H])c2C1([H])[H]

$$$$
39:0:0
     RDKit          3D

 92100  0  0  1  0  0  0  0  0999 V2000
  -25.3830  -21.9900   17.9270 C   0  0  0  0  0  2  0  0  0  0  0  0
  -26.6810  -21.4500   17.3470 C   0  0  0  0  0  2  0  0  0  0  0  0
  -25.7370  -22.4650   19.3440 C   0  0  0  0  0  2  0  0  0  0  0  0
  -27.6350  -21.2570   18.5480 C   0  0  0  0  0  3  0  0  0  0  0  0
  -27.2060  -22.3090   19.5260 N   0  0  1  0  0  4  0  0  0  0  0  0
  -27.3750  -21.9320   20.4450 H   0  0  0  0  0  0  0  0  0  0  0  0
  -27.5310  -19.8080   19.1530 C   0  0  0  0  0  2  0  0  0  0  0  0
  -28.8430  -19.1530   19.6720 C   0  0  0  0  0  2  0  0  0  0  0  0
  -28.7020  -17.6620   20.0960 C   0  0  0  0  0  2  0  0  0  0  0  0
  -30.0290  -16.9660   20.5180 C   0  0  0  0  0  2  0  0  0  0  0  0
  -30.6070  -14.5130   20.4770 C   0  0  0  0  0  0  0  0  0  0  0  0
  -30.3130  -12.3750   19.2990 C   0  0  0  0  0  2  0  0  0  0  0  0
  -29.3610  -12.6590   18.1180 C   0  0  0  0  0  2  0  0  0  0  0  0
  -27.8870  -12.5250   18.5520 C   0  0  0  0  0  2  0  0  0  0  0  0
  -27.5710  -13.2880   19.8650 C   0  0  0  0  0  3  0  0  0  0  0  0
  -28.6460  -12.9960   20.9420 C   0  0  0  0  0  2  0  0  0  0  0  0
  -29.9670  -13.3180   20.3730 N   0  0  0  0  0  0  0  0  0  0  0  0
  -31.7390  -14.7070   20.0330 O   0  0  0  0  0  0  0  0  0  0  0  0
  -29.8350  -15.5430   20.8880 N   0  0  0  0  0  0  0  0  0  0  0  0
  -28.9670  -15.2910   21.3370 H   0  0  0  0  0  0  0  0  0  0  0  0
  -25.1680  -13.8500   20.5800 C   0  0  0  0  0  0  0  0  0  0  0  0
  -24.1120  -13.0600   20.9460 C   0  0  0  0  0  0  0  0  0  0  0  0
  -24.6000  -11.7160   20.8980 C   0  0  0  0  0  0  0  0  0  0  0  0
  -26.2230  -12.9900   20.3380 N   0  0  0  0  0  0  0  0  0  0  0  0
  -25.8850  -11.7000   20.5840 N   0  0  0  0  0  0  0  0  0  0  0  0
  -23.9010  -10.4400   21.0960 C   0  0  0  0  0  0  0  0  0  0  0  0
  -24.3500   -9.4700   22.0260 C   0  0  0  0  0  3  0  0  0  0  0  0
  -23.6280   -8.2660   22.1950 C   0  0  0  0  0  3  0  0  0  0  0  0
  -22.4580   -8.0190   21.4420 C   0  0  0  0  0  0  0  0  0  0  0  0
  -22.0380   -8.9810   20.5030 C   0  0  0  0  0  3  0  0  0  0  0  0
  -22.7540  -10.1780   20.3280 C   0  0  0  0  0  3  0  0  0  0  0  0
  -21.7210   -6.8610   21.5250 O   0  0  0  0  0  0  0  0  0  0  0  0
  -21.6820   -6.1090   22.6740 C   0  0  0  0  0  0  0  0  0  0  0  0
  -21.2070   -6.6390   23.8930 C   0  0  0  0  0  3  0  0  0  0  0  0
  -21.1040   -5.8090   25.0310 C   0  0  0  0  0  3  0  0  0  0  0  0
  -21.4780   -4.4530   24.9460 C   0  0  0  0  0  0  0  0  0  0  0  0
  -21.9570   -3.9250   23.7350 C   0  0  0  0  0  3  0  0  0  0  0  0
  -22.0500   -4.7480   22.5980 C   0  0  0  0  0  0  0  0  0  0  0  0
  -22.4730   -4.2230   21.4210 F   0  0  0  0  0  0  0  0  0  0  0  0
  -21.3870   -3.6550   26.0350 F   0  0  0  0  0  0  0  0  0  0  0  0
  -22.7120  -13.5200   21.2340 C   0  0  0  0  0  0  0  0  0  0  0  0
  -21.9870  -12.8000   22.0820 N   0  0  0  0  0  0  0  0  0  0  0  0
  -22.2650  -14.5570   20.7420 O   0  0  0  0  0  0  0  0  0  0  0  0
  -22.3530  -11.9510   22.4930 H   0  0  0  0  0  0  0  0  0  0  0  0
  -21.0410  -13.0880   22.3000 H   0  0  0  0  0  0  0  0  0  0  0  0
  -25.2970  -15.2280   20.4170 N   0  0  0  0  0  0  0  0  0  0  0  0
  -24.5070  -15.8420   20.5530 H   0  0  0  0  0  0  0  0  0  0  0  0
  -26.1130  -15.7030   20.0640 H   0  0  0  0  0  0  0  0  0  0  0  0
  -27.9440  -23.6130   19.4840 C   0  0  0  0  0  2  0  0  0  0  0  0
  -27.7830  -24.4140   20.8130 C   0  0  0  0  0  2  0  0  0  0  0  0
  -28.6130  -25.7080   20.9990 C   0  0  0  0  0  2  0  0  0  0  0  0
  -28.3980  -26.7670   20.0590 O   0  0  0  0  0  0  0  0  0  0  0  0
  -24.5680  -31.9310   23.2310 C   0  0  0  0  0  0  0  0  0  0  0  0
  -27.2260  -27.4740   20.1720 C   0  0  0  0  0  0  0  0  0  0  0  0
  -23.3660  -30.5120   21.5990 C   0  0  0  0  0  3  0  0  0  0  0  0
  -24.8220  -28.9540   20.1990 C   0  0  0  0  0  0  0  0  0  0  0  0
  -25.8910  -30.8730   21.3950 C   0  0  0  0  0  2  0  0  0  0  0  0
  -25.9790  -29.4890   20.7820 C   0  0  0  0  0  0  0  0  0  0  0  0
  -27.1870  -28.7540   20.7700 C   0  0  0  0  0  3  0  0  0  0  0  0
  -26.0610  -26.9580   19.5750 C   0  0  0  0  0  3  0  0  0  0  0  0
  -24.8560  -27.6830   19.5940 C   0  0  0  0  0  3  0  0  0  0  0  0
  -23.5760  -29.8130   20.2300 C   0  0  0  0  0  2  0  0  0  0  0  0
  -24.6280  -31.1200   22.1340 N   0  0  0  0  0  0  0  0  0  0  0  0
  -23.4850  -32.2070   23.7650 O   0  0  0  0  0  0  0  0  0  0  0  0
  -22.7140  -29.5030   22.5710 C   0  0  0  0  0  0  0  0  0  0  0  0
  -21.3880  -29.3210   22.4450 N   0  0  0  0  0  0  0  0  0  0  0  0
  -23.3990  -28.8830   23.3910 O   0  0  0  0  0  0  0  0  0  0  0  0
  -20.8960  -29.8780   21.7570 H   0  0  0  0  0  0  0  0  0  0  0  0
  -18.0160  -28.1450   22.9720 C   0  0  0  0  0  0  0  0  0  0  0  0
  -20.5730  -28.3890   23.2220 C   0  0  0  0  0  3  0  0  0  0  0  0
  -20.6620  -26.9560   22.6450 C   0  0  0  0  0  2  0  0  0  0  0  0
  -19.5500  -26.6380   21.6390 C   0  0  0  0  0  2  0  0  0  0  0  0
  -18.1750  -26.7930   22.2960 C   0  0  0  0  0  2  0  0  0  0  0  0
  -19.1410  -28.9020   23.3910 C   0  0  0  0  0  0  0  0  0  0  0  0
  -18.9340  -30.1670   23.9820 C   0  0  0  0  0  3  0  0  0  0  0  0
  -17.6330  -30.6770   24.1550 C   0  0  0  0  0  3  0  0  0  0  0  0
  -16.5210  -29.9180   23.7470 C   0  0  0  0  0  3  0  0  0  0  0  0
  -16.7140  -28.6540   23.1630 C   0  0  0  0  0  3  0  0  0  0  0  0
  -25.8550  -32.5690   23.8430 C   0  0  0  0  0  3  0  0  0  0  0  0
  -25.5420  -33.9670   24.1670 N   0  0  0  0  0  0  0  0  0  0  0  0
  -25.8800  -35.0170   23.4040 C   0  0  0  0  0  0  0  0  0  0  0  0
  -26.5540  -34.9090   22.3760 O   0  0  0  0  0  0  0  0  0  0  0  0
  -24.9510  -34.1260   24.9680 H   0  0  0  0  0  0  0  0  0  0  0  0
  -24.1680  -36.8190   23.0080 C   0  0  0  0  0  1  0  0  0  0  0  0
  -25.3880  -36.4090   23.8500 C   0  0  0  0  0  3  0  0  0  0  0  0
  -27.5020  -37.2870   24.7400 C   0  0  0  0  0  1  0  0  0  0  0  0
  -26.4280  -37.4560   23.7630 N   0  0  0  0  0  0  0  0  0  0  0  0
  -26.0200  -38.3780   23.8960 H   0  0  0  0  0  0  0  0  0  0  0  0
  -26.3780  -31.8020   25.1180 C   0  0  1  0  0  0  0  0  0  0  0  0
  -25.2860  -31.5540   26.1870 C   0  0  0  0  0  1  0  0  0  0  0  0
  -26.9720  -30.4290   24.7180 C   0  0  0  0  0  1  0  0  0  0  0  0
  -27.5250  -32.6040   25.7770 C   0  0  0  0  0  1  0  0  0  0  0  0
  1  3  1  0
  2  1  1  0
  2  4  1  0
  3  5  1  0
  4  7  1  0
  4  5  1  0
  5  6  1  1
  7  8  1  0
  8  9  1  0
  9 10  1  0
 10 19  1  0
 11 19  1  0
 12 17  1  0
 13 14  1  0
 13 12  1  0
 15 14  1  0
 15 24  1  0
 15 16  1  0
 17 11  1  0
 17 16  1  0
 18 11  2  0
 19 20  1  0
 21 22  2  0
 22 41  1  0
 23 22  1  0
 23 26  1  0
 24 21  1  0
 24 25  1  0
 25 23  2  0
 26 27  1  0
 27 28  2  0
 29 32  1  0
 29 28  1  0
 30 29  2  0
 31 30  1  0
 31 26  2  0
 32 33  1  0
 33 34  1  0
 34 35  2  0
 36 35  1  0
 36 40  1  0
 37 36  2  0
 38 33  2  0
 38 37  1  0
 39 38  1  0
 41 42  1  0
 42 45  1  0
 42 44  1  0
 43 41  2  0
 46 47  1  0
 46 21  1  0
 48 46  1  0
 49  5  1  0
 49 50  1  0
 50 51  1  0
 52 54  1  0
 52 51  1  0
 53 64  2  0
 54 59  1  0
 55 63  1  0
 55 65  1  0
 56 62  1  0
 56 58  1  0
 57 63  1  0
 58 57  1  0
 59 58  2  0
 60 61  1  0
 60 54  2  0
 61 56  2  0
 62 55  1  0
 63 53  1  0
 65 67  2  0
 66 65  1  0
 68 66  1  0
 69 78  2  0
 69 74  1  0
 70 66  1  0
 70 74  1  0
 71 70  1  0
 72 73  1  0
 72 71  1  0
 73 69  1  0
 74 75  2  0
 75 76  1  0
 77 76  2  0
 78 77  1  0
 79 53  1  0
 79 80  1  0
 79 89  1  0
 80 83  1  0
 81 85  1  0
 81 80  1  0
 82 81  2  0
 85 84  1  0
 87 85  1  0
 87 88  1  0
 87 86  1  0
 89 92  1  1
 89 90  1  0
 91 89  1  0
M  ISO  4  11 100  19 100  51 101  52 101
M  END
>  <TORSDO>  (40) 
F 23

>  <SCORE>  (40) 
-12.670

>  <name>  (40) 
39

>  <ligand_id>  (40) 
39

>  <original_smiles>  (40) 
[H]c1c([H])c([H])c2c(c1[H])C([H])([H])C([H])([H])C([H])([H])C2([H])N([H])C(=O)C1([H])N(C(=O)C([H])(N([H])C(=O)C([H])(N([H])C([H])([H])[H])C([H])([H])[H])C(C([H])([H])[H])(C([H])([H])[H])C([H])([H])[H])C([H])([H])c2c([H])c(OC([H])([H])C([H])([H])C([H])([H])[N+]3([H])C([H])([H])C([H])([H])C([H])([H])C3([H])C([H])([H])C([H])([H])C([H])([H])C([H])([H])N([H])C(=O)N3C([H])([H])C([H])([H])C([H])([H])C([H])(n4nc(-c5c([H])c([H])c(Oc6c([H])c([H])c(F)c([H])c6F)c([H])c5[H])c(C(=O)N([H])[H])c4N([H])[H])C3([H])[H])c([H])c([H])c2C1([H])[H]

>  <smiles>  (40) 
[H]c1c([H])c([H])c2c(c1[H])C([H])([H])C([H])([H])C([H])([H])C2([H])N([H])C(=O)C1([H])N(C(=O)C([H])(N([H])C(=O)C([H])(N([H])C([H])([H])[H])C([H])([H])[H])C(C([H])([H])[H])(C([H])([H])[H])C([H])([H])[H])C([H])([H])c2c([H])c(OC([H])([H])C([H])([H])C([H])([H])[N+]3([H])C([H])([H])C([H])([H])C([H])([H])C3([H])C([H])([H])C([H])([H])C([H])([H])C([H])([H])N([H])C(=O)N3C([H])([H])C([H])([H])C([H])([H])C([H])(n4nc(-c5c([H])c([H])c(Oc6c([H])c([H])c(F)c([H])c6F)c([H])c5[H])c(C(=O)N([H])[H])c4N([H])[H])C3([H])[H])c([H])c([H])c2C1([H])[H]

$$$$
40:0:0
     RDKit          3D

 91100  0  0  1  0  0  0  0  0999 V2000
  -30.2600  -19.4890   19.1480 C   0  0  0  0  0  3  0  0  0  0  0  0
  -30.3830  -18.1490   19.5750 C   0  0  0  0  0  2  0  0  0  0  0  0
  -30.9220  -19.6980   17.8010 C   0  0  0  0  0  2  0  0  0  0  0  0
  -29.7580  -20.2020   16.9660 C   0  0  0  0  0  2  0  0  0  0  0  0
  -29.8660  -22.5950   17.6480 C   0  0  0  0  0  2  0  0  0  0  0  0
  -30.7090  -22.8090   18.9020 C   0  0  0  0  0  2  0  0  0  0  0  0
  -29.3040  -20.8090   19.3530 C   0  0  0  0  0  3  0  0  0  0  0  0
  -29.1110  -21.2600   17.8630 C   0  0  0  0  0  3  0  0  0  0  0  0
  -29.7850  -22.2720   19.9790 C   0  0  0  0  0  3  0  0  0  0  0  0
  -29.7160  -17.1630   20.5360 C   0  0  0  0  0  0  0  0  0  0  0  0
  -28.7390  -17.8640   21.4580 C   0  0  0  0  0  1  0  0  0  0  0  0
  -29.7960  -15.8340   20.6820 N   0  0  0  0  0  0  0  0  0  0  0  0
  -30.5880  -14.8150   20.0370 C   0  0  0  0  0  0  0  0  0  0  0  0
  -30.3870  -12.5510   18.9330 C   0  0  0  0  0  2  0  0  0  0  0  0
  -29.3650  -12.6450   17.7770 C   0  0  0  0  0  2  0  0  0  0  0  0
  -27.9240  -12.4510   18.2920 C   0  0  0  0  0  2  0  0  0  0  0  0
  -27.6300  -13.2980   19.5590 C   0  0  0  0  0  3  0  0  0  0  0  0
  -28.7550  -13.1460   20.6030 C   0  0  0  0  0  2  0  0  0  0  0  0
  -30.0130  -13.5570   19.9590 N   0  0  0  0  0  0  0  0  0  0  0  0
  -31.6870  -14.9870   19.5050 O   0  0  0  0  0  0  0  0  0  0  0  0
  -25.2930  -13.8870   20.4420 C   0  0  0  0  0  0  0  0  0  0  0  0
  -24.2460  -13.1110   20.8580 C   0  0  0  0  0  0  0  0  0  0  0  0
  -24.6970  -11.7590   20.7680 C   0  0  0  0  0  0  0  0  0  0  0  0
  -26.3140  -13.0070   20.1210 N   0  0  0  0  0  0  0  0  0  0  0  0
  -25.9650  -11.7190   20.3780 N   0  0  0  0  0  0  0  0  0  0  0  0
  -23.9730  -10.4980   20.9760 C   0  0  0  0  0  0  0  0  0  0  0  0
  -24.4340   -9.5230   21.8880 C   0  0  0  0  0  3  0  0  0  0  0  0
  -23.7110   -8.3270   22.0840 C   0  0  0  0  0  3  0  0  0  0  0  0
  -22.5120   -8.0970   21.3680 C   0  0  0  0  0  0  0  0  0  0  0  0
  -22.0700   -9.0600   20.4430 C   0  0  0  0  0  3  0  0  0  0  0  0
  -22.7940  -10.2480   20.2460 C   0  0  0  0  0  3  0  0  0  0  0  0
  -21.7580   -6.9540   21.4730 O   0  0  0  0  0  0  0  0  0  0  0  0
  -21.7210   -6.2200   22.6330 C   0  0  0  0  0  0  0  0  0  0  0  0
  -21.2700   -6.7730   23.8510 C   0  0  0  0  0  3  0  0  0  0  0  0
  -21.1820   -5.9630   25.0020 C   0  0  0  0  0  3  0  0  0  0  0  0
  -21.5380   -4.6020   24.9350 C   0  0  0  0  0  0  0  0  0  0  0  0
  -21.9810   -4.0500   23.7200 C   0  0  0  0  0  3  0  0  0  0  0  0
  -22.0700   -4.8560   22.5720 C   0  0  0  0  0  0  0  0  0  0  0  0
  -22.4780   -4.3130   21.4000 F   0  0  0  0  0  0  0  0  0  0  0  0
  -21.4460   -3.8220   26.0370 F   0  0  0  0  0  0  0  0  0  0  0  0
  -22.8720  -13.5900   21.2270 C   0  0  0  0  0  0  0  0  0  0  0  0
  -22.1900  -12.8750   22.1150 N   0  0  0  0  0  0  0  0  0  0  0  0
  -22.4130  -14.6340   20.7630 O   0  0  0  0  0  0  0  0  0  0  0  0
  -22.5780  -12.0320   22.5140 H   0  0  0  0  0  0  0  0  0  0  0  0
  -21.2700  -13.1740   22.4010 H   0  0  0  0  0  0  0  0  0  0  0  0
  -25.4580  -15.2610   20.2900 N   0  0  0  0  0  0  0  0  0  0  0  0
  -24.7130  -15.9220   20.4780 H   0  0  0  0  0  0  0  0  0  0  0  0
  -26.3140  -15.7000   19.9750 H   0  0  0  0  0  0  0  0  0  0  0  0
  -28.7840  -23.5330   20.4370 C   0  0  0  0  0  2  0  0  0  0  0  0
  -28.5420  -24.9770   19.6520 C   0  0  0  0  0  2  0  0  0  0  0  0
  -28.3830  -26.3420   20.3100 O   0  0  0  0  0  0  0  0  0  0  0  0
  -24.5880  -31.8490   23.1860 C   0  0  0  0  0  0  0  0  0  0  0  0
  -27.2710  -27.2250   20.1850 C   0  0  0  0  0  0  0  0  0  0  0  0
  -23.4300  -30.4590   21.5090 C   0  0  0  0  0  3  0  0  0  0  0  0
  -24.9160  -28.9020   20.1130 C   0  0  0  0  0  0  0  0  0  0  0  0
  -25.9790  -30.7520   21.4030 C   0  0  0  0  0  2  0  0  0  0  0  0
  -26.0720  -29.3690   20.7480 C   0  0  0  0  0  0  0  0  0  0  0  0
  -27.2460  -28.5430   20.7740 C   0  0  0  0  0  3  0  0  0  0  0  0
  -26.0860  -26.8320   19.5240 C   0  0  0  0  0  3  0  0  0  0  0  0
  -24.9310  -27.6440   19.4900 C   0  0  0  0  0  3  0  0  0  0  0  0
  -23.6820  -29.7870   20.1340 C   0  0  0  0  0  2  0  0  0  0  0  0
  -24.6830  -31.0400   22.0890 N   0  0  0  0  0  0  0  0  0  0  0  0
  -23.4900  -32.1280   23.6920 O   0  0  0  0  0  0  0  0  0  0  0  0
  -22.7340  -29.4450   22.4500 C   0  0  0  0  0  0  0  0  0  0  0  0
  -21.4030  -29.3030   22.3170 N   0  0  0  0  0  0  0  0  0  0  0  0
  -23.3920  -28.7880   23.2610 O   0  0  0  0  0  0  0  0  0  0  0  0
  -20.9310  -29.8840   21.6380 H   0  0  0  0  0  0  0  0  0  0  0  0
  -17.9880  -28.2210   22.8370 C   0  0  0  0  0  0  0  0  0  0  0  0
  -20.5590  -28.3700   23.0670 C   0  0  0  0  0  3  0  0  0  0  0  0
  -20.5940  -26.9580   22.4380 C   0  0  0  0  0  2  0  0  0  0  0  0
  -19.4630  -26.7190   21.4320 C   0  0  0  0  0  2  0  0  0  0  0  0
  -18.0990  -26.8930   22.1070 C   0  0  0  0  0  2  0  0  0  0  0  0
  -19.1430  -28.9210   23.2740 C   0  0  0  0  0  0  0  0  0  0  0  0
  -18.9840  -30.1670   23.9200 C   0  0  0  0  0  3  0  0  0  0  0  0
  -17.7030  -30.7110   24.1300 C   0  0  0  0  0  3  0  0  0  0  0  0
  -16.5630  -30.0060   23.7080 C   0  0  0  0  0  3  0  0  0  0  0  0
  -16.7060  -28.7630   23.0670 C   0  0  0  0  0  3  0  0  0  0  0  0
  -25.8520  -32.4800   23.8470 C   0  0  0  0  0  3  0  0  0  0  0  0
  -26.3270  -31.7090   25.1400 C   0  0  1  0  0  0  0  0  0  0  0  0
  -25.2000  -31.4730   26.1730 C   0  0  0  0  0  1  0  0  0  0  0  0
  -26.9220  -30.3310   24.7700 C   0  0  0  0  0  1  0  0  0  0  0  0
  -27.4570  -32.5030   25.8380 C   0  0  0  0  0  1  0  0  0  0  0  0
  -25.5340  -33.8800   24.1720 N   0  0  0  0  0  0  0  0  0  0  0  0
  -25.8810  -34.9360   23.4230 C   0  0  0  0  0  0  0  0  0  0  0  0
  -26.5680  -34.8330   22.4030 O   0  0  0  0  0  0  0  0  0  0  0  0
  -24.9240  -34.0320   24.9620 H   0  0  0  0  0  0  0  0  0  0  0  0
  -24.1640  -36.7350   23.0380 C   0  0  0  0  0  1  0  0  0  0  0  0
  -25.3860  -36.3230   23.8750 C   0  0  0  0  0  3  0  0  0  0  0  0
  -27.4970  -37.2090   24.7640 C   0  0  0  0  0  1  0  0  0  0  0  0
  -26.4240  -37.3750   23.7880 N   0  0  0  0  0  0  0  0  0  0  0  0
  -26.0150  -38.2960   23.9200 H   0  0  0  0  0  0  0  0  0  0  0  0
  1  7  1  0
  1  2  1  0
  2 10  1  0
  3  1  1  0
  4  3  1  0
  4  8  1  0
  5  8  1  0
  5  6  1  0
  6  9  1  0
  7  9  1  0
  8  7  1  0
  9 49  1  0
 10 12  2  0
 10 11  1  0
 13 12  1  0
 14 19  1  0
 15 16  1  0
 15 14  1  0
 16 17  1  0
 17 24  1  0
 17 18  1  0
 19 13  1  0
 19 18  1  0
 20 13  2  0
 21 22  2  0
 22 41  1  0
 23 22  1  0
 23 26  1  0
 24 25  1  0
 24 21  1  0
 25 23  2  0
 26 27  1  0
 27 28  2  0
 29 32  1  0
 29 28  1  0
 30 29  2  0
 31 30  1  0
 31 26  2  0
 32 33  1  0
 33 34  1  0
 34 35  2  0
 36 35  1  0
 36 40  1  0
 37 36  2  0
 38 33  2  0
 38 37  1  0
 39 38  1  0
 41 42  1  0
 42 45  1  0
 42 44  1  0
 43 41  2  0
 46 21  1  0
 46 47  1  0
 48 46  1  0
 50 51  1  0
 50 49  1  0
 52 63  2  0
 52 78  1  0
 53 51  1  0
 53 58  1  0
 54 62  1  0
 54 64  1  0
 55 61  1  0
 55 57  1  0
 56 62  1  0
 57 58  2  0
 57 56  1  0
 59 53  2  0
 60 59  1  0
 60 55  2  0
 61 54  1  0
 62 52  1  0
 64 66  2  0
 65 64  1  0
 65 69  1  0
 67 65  1  0
 68 77  2  0
 68 73  1  0
 69 73  1  0
 70 69  1  0
 71 72  1  0
 71 70  1  0
 72 68  1  0
 73 74  2  0
 74 75  1  0
 76 75  2  0
 77 76  1  0
 78 83  1  0
 78 79  1  0
 79 82  1  1
 79 80  1  0
 81 79  1  0
 83 86  1  0
 84 88  1  0
 84 83  1  0
 85 84  2  0
 87 88  1  0
 90 88  1  0
 90 91  1  0
 90 89  1  0
M  ISO  4  12 100  13 100  50 101  51 101
M  END
>  <TORSDO>  (41) 
F 19

>  <SCORE>  (41) 
-13.293

>  <name>  (41) 
40

>  <ligand_id>  (41) 
40

>  <original_smiles>  (41) 
[H]C(C(=NC(=O)N1C([H])([H])C([H])([H])C([H])([H])C([H])(n2nc(-c3c([H])c([H])c(Oc4c([H])c([H])c(F)c([H])c4F)c([H])c3[H])c(C(=O)N([H])[H])c2N([H])[H])C1([H])[H])C([H])([H])[H])=C1C([H])([H])C([H])([H])C2([H])C([H])([H])C([H])([H])C([H])(C([H])([H])C([H])([H])Oc3c([H])c([H])c4c(c3[H])C([H])([H])N(C(=O)C([H])(N([H])C(=O)C([H])(N([H])C([H])([H])[H])C([H])([H])[H])C(C([H])([H])[H])(C([H])([H])[H])C([H])([H])[H])C([H])(C(=O)N([H])C3([H])c5c([H])c([H])c([H])c([H])c5C([H])([H])C([H])([H])C3([H])[H])C4([H])[H])C12[H]

>  <smiles>  (41) 
[H]C(C(=NC(=O)N1C([H])([H])C([H])([H])C([H])([H])C([H])(n2nc(-c3c([H])c([H])c(Oc4c([H])c([H])c(F)c([H])c4F)c([H])c3[H])c(C(=O)N([H])[H])c2N([H])[H])C1([H])[H])C([H])([H])[H])=C1C([H])([H])C([H])([H])C2([H])C([H])([H])C([H])([H])C([H])(C([H])([H])C([H])([H])Oc3c([H])c([H])c4c(c3[H])C([H])([H])N(C(=O)C([H])(N([H])C(=O)C([H])(N([H])C([H])([H])[H])C([H])([H])[H])C(C([H])([H])[H])(C([H])([H])[H])C([H])([H])[H])C([H])(C(=O)N([H])C3([H])c5c([H])c([H])c([H])c([H])c5C([H])([H])C([H])([H])C3([H])[H])C4([H])[H])C12[H]

$$$$
41:0:0
     RDKit          3D

 95104  0  0  1  0  0  0  0  0999 V2000
  -25.1550  -16.6970   19.2080 C   0  0  0  0  0  3  0  0  0  0  0  0
  -25.5130  -15.3120   18.9640 C   0  0  0  0  0  3  0  0  0  0  0  0
  -27.7280  -16.0710   19.0050 C   0  0  0  0  0  3  0  0  0  0  0  0
  -26.0620  -17.7960   19.4330 C   0  0  0  0  0  0  0  0  0  0  0  0
  -27.4350  -17.5350   19.3510 C   0  0  0  0  0  0  0  0  0  0  0  0
  -26.8440  -14.7750   18.9370 C   0  0  0  0  0  0  0  0  0  0  0  0
  -25.5910  -19.2140   19.7710 C   0  0  0  0  0  0  0  0  0  0  0  0
  -28.4430  -18.8980   19.6040 C   0  0  0  0  0  2  0  0  0  0  0  0
  -26.5140  -20.4910   19.5910 C   0  0  0  0  0  2  0  0  0  0  0  0
  -27.9630  -20.4860   20.1930 C   0  0  0  0  0  3  0  0  0  0  0  0
  -24.4340  -19.4140   20.1490 O   0  0  0  0  0  0  0  0  0  0  0  0
  -27.0390  -12.9290   18.7220 C   0  0  0  0  0  2  0  0  0  0  0  0
  -27.5560  -11.2270   19.5620 C   0  0  0  0  0  1  0  0  0  0  0  0
  -28.6640  -10.4800   21.0660 C   0  0  0  0  0  1  0  0  0  0  0  0
  -30.9500  -12.2710   21.8430 C   0  0  0  0  0  0  0  0  0  0  0  0
  -31.9720  -12.7030   19.6600 C   0  0  0  0  0  2  0  0  0  0  0  0
  -31.1510  -13.6720   18.7480 C   0  0  0  0  0  2  0  0  0  0  0  0
  -29.6250  -14.0160   19.3910 C   0  0  0  0  0  3  0  0  0  0  0  0
  -28.8290  -13.3720   20.7060 C   0  0  0  0  0  3  0  0  0  0  0  0
  -29.8210  -12.3500   20.0500 C   0  0  0  0  0  3  0  0  0  0  0  0
  -31.0570  -12.2410   20.6010 N   0  0  0  0  0  0  0  0  0  0  0  0
  -31.7710  -13.1020   22.3440 O   0  0  0  0  0  0  0  0  0  0  0  0
  -29.8470  -11.2700   22.1220 N   0  0  0  0  0  0  0  0  0  0  0  0
  -29.6630  -11.1410   23.1070 H   0  0  0  0  0  0  0  0  0  0  0  0
  -26.1650  -13.8500   21.3960 C   0  0  0  0  0  3  0  0  0  0  0  0
  -25.0330  -13.0510   21.4910 C   0  0  0  0  0  0  0  0  0  0  0  0
  -25.4610  -11.7150   21.5160 C   0  0  0  0  0  0  0  0  0  0  0  0
  -27.2830  -13.0650   21.1940 N   0  0  0  0  0  0  0  0  0  0  0  0
  -26.7480  -11.8890   21.7650 N   0  0  0  0  0  2  0  0  0  0  0  0
  -24.7340  -10.3820   21.4990 C   0  0  0  0  0  0  0  0  0  0  0  0
  -25.0560   -9.3100   22.3710 C   0  0  0  0  0  3  0  0  0  0  0  0
  -24.2830   -8.1170   22.4120 C   0  0  0  0  0  3  0  0  0  0  0  0
  -23.1560   -7.9570   21.5710 C   0  0  0  0  0  0  0  0  0  0  0  0
  -22.8630   -8.9890   20.6570 C   0  0  0  0  0  3  0  0  0  0  0  0
  -23.6400  -10.1700   20.6190 C   0  0  0  0  0  3  0  0  0  0  0  0
  -22.3500   -6.8340   21.5460 O   0  0  0  0  0  0  0  0  0  0  0  0
  -22.1480   -6.0460   22.6570 C   0  0  0  0  0  0  0  0  0  0  0  0
  -21.5930   -6.5640   23.8490 C   0  0  0  0  0  3  0  0  0  0  0  0
  -21.3460   -5.7100   24.9450 C   0  0  0  0  0  3  0  0  0  0  0  0
  -21.6450   -4.3370   24.8540 C   0  0  0  0  0  0  0  0  0  0  0  0
  -22.1850   -3.8150   23.6640 C   0  0  0  0  0  3  0  0  0  0  0  0
  -22.4300   -4.6650   22.5700 C   0  0  0  0  0  0  0  0  0  0  0  0
  -22.9280   -4.1460   21.4220 F   0  0  0  0  0  0  0  0  0  0  0  0
  -21.4100   -3.5170   25.9050 F   0  0  0  0  0  0  0  0  0  0  0  0
  -23.6160  -13.4920   21.5990 C   0  0  0  0  0  0  0  0  0  0  0  0
  -22.8250  -12.7880   22.4020 N   0  0  0  0  0  0  0  0  0  0  0  0
  -23.2260  -14.5010   21.0240 O   0  0  0  0  0  0  0  0  0  0  0  0
  -23.1660  -11.9790   22.8980 H   0  0  0  0  0  0  0  0  0  0  0  0
  -21.8650  -13.0730   22.5320 H   0  0  0  0  0  0  0  0  0  0  0  0
  -26.3530  -15.2090   21.4860 N   0  0  0  0  0  0  0  0  0  0  0  0
  -25.5200  -15.7390   21.2630 H   0  0  0  0  0  0  0  0  0  0  0  0
  -27.1220  -15.5280   20.9070 H   0  0  0  0  0  0  0  0  0  0  0  0
  -28.8560  -22.0960   20.2080 C   0  0  0  0  0  3  0  0  0  0  0  0
  -28.6330  -23.7530   20.9530 C   0  0  0  0  0  3  0  0  0  0  0  0
  -29.3940  -25.2630   21.0200 O   0  0  0  0  0  0  0  0  0  0  0  0
  -26.4010  -31.6010   24.1470 C   0  0  0  0  0  0  0  0  0  0  0  0
  -28.6800  -26.5670   21.0670 C   0  0  0  0  0  0  0  0  0  0  0  0
  -25.2500  -30.3210   22.4110 C   0  0  0  0  0  3  0  0  0  0  0  0
  -26.6620  -28.6910   21.0190 C   0  0  0  0  0  0  0  0  0  0  0  0
  -27.8370  -30.3190   22.4650 C   0  0  0  0  0  2  0  0  0  0  0  0
  -27.8350  -28.9310   21.7460 C   0  0  0  0  0  0  0  0  0  0  0  0
  -28.8630  -27.8740   21.7630 C   0  0  0  0  0  3  0  0  0  0  0  0
  -27.5420  -26.5460   20.2650 C   0  0  0  0  0  3  0  0  0  0  0  0
  -26.5460  -27.5250   20.2680 C   0  0  0  0  0  3  0  0  0  0  0  0
  -25.5310  -29.7040   21.0250 C   0  0  0  0  0  2  0  0  0  0  0  0
  -26.5210  -30.7730   23.0600 N   0  0  0  0  0  0  0  0  0  0  0  0
  -25.2920  -31.9470   24.5870 O   0  0  0  0  0  0  0  0  0  0  0  0
  -24.4440  -29.3230   23.2830 C   0  0  0  0  0  0  0  0  0  0  0  0
  -23.1520  -29.1210   22.9620 N   0  0  0  0  0  0  0  0  0  0  0  0
  -24.9870  -28.7400   24.2250 O   0  0  0  0  0  0  0  0  0  0  0  0
  -22.7670  -29.6460   22.1890 H   0  0  0  0  0  0  0  0  0  0  0  0
  -19.7850  -27.7720   22.9270 C   0  0  0  0  0  0  0  0  0  0  0  0
  -22.2360  -28.1940   23.6370 C   0  0  0  0  0  3  0  0  0  0  0  0
  -22.5020  -26.7340   23.2030 C   0  0  0  0  0  2  0  0  0  0  0  0
  -21.6230  -26.2830   22.0310 C   0  0  0  0  0  2  0  0  0  0  0  0
  -20.1410  -26.3940   22.3970 C   0  0  0  0  0  2  0  0  0  0  0  0
  -20.7710  -28.6240   23.4940 C   0  0  0  0  0  0  0  0  0  0  0  0
  -20.3890  -29.9080   23.9430 C   0  0  0  0  0  3  0  0  0  0  0  0
  -19.0550  -30.3430   23.8300 C   0  0  0  0  0  3  0  0  0  0  0  0
  -18.0810  -29.4920   23.2790 C   0  0  0  0  0  3  0  0  0  0  0  0
  -18.4460  -28.2080   22.8350 C   0  0  0  0  0  3  0  0  0  0  0  0
  -27.6510  -32.1660   24.8810 C   0  0  0  0  0  3  0  0  0  0  0  0
  -27.4010  -33.5900   25.1670 N   0  0  0  0  0  0  0  0  0  0  0  0
  -27.8920  -34.6170   24.4600 C   0  0  0  0  0  0  0  0  0  0  0  0
  -28.6690  -34.4600   23.5140 O   0  0  0  0  0  0  0  0  0  0  0  0
  -26.7280  -33.7910   25.8930 H   0  0  0  0  0  0  0  0  0  0  0  0
  -26.3770  -36.5490   23.8970 C   0  0  0  0  0  1  0  0  0  0  0  0
  -27.4580  -36.0420   24.8640 C   0  0  0  0  0  3  0  0  0  0  0  0
  -29.5190  -36.7550   25.9940 C   0  0  0  0  0  1  0  0  0  0  0  0
  -28.5770  -37.0090   24.9070 N   0  0  0  0  0  0  0  0  0  0  0  0
  -28.2280  -37.9590   25.0070 H   0  0  0  0  0  0  0  0  0  0  0  0
  -27.9800  -31.3970   26.2200 C   0  0  1  0  0  0  0  0  0  0  0  0
  -26.7660  -31.2500   27.1700 C   0  0  0  0  0  1  0  0  0  0  0  0
  -28.5150  -29.9780   25.9300 C   0  0  0  0  0  1  0  0  0  0  0  0
  -29.1000  -32.1390   26.9870 C   0  0  0  0  0  1  0  0  0  0  0  0
  1  4  1  0
  2  1  2  0
  3  5  1  0
  4  7  1  0
  5  4  2  0
  5  8  1  0
  6  2  1  0
  6  3  2  0
  7 11  2  0
  8 10  1  0
  9  7  1  0
  9 10  1  0
 10 53  1  0
 12  6  1  0
 12 13  1  0
 14 23  1  0
 15 23  1  0
 15 22  2  0
 16 21  1  0
 17 16  1  0
 18 17  1  0
 18 20  1  0
 18 19  1  0
 19 28  1  0
 20 21  1  0
 20 19  1  0
 21 15  1  0
 23 24  1  0
 25 50  1  0
 25 26  1  0
 26 27  2  0
 26 45  1  0
 27 29  1  0
 28 25  1  0
 28 29  1  0
 30 27  1  0
 30 31  1  0
 31 32  2  0
 33 32  1  0
 34 33  2  0
 35 34  1  0
 35 30  2  0
 36 33  1  0
 36 37  1  0
 37 38  1  0
 38 39  2  0
 40 39  1  0
 40 44  1  0
 41 40  2  0
 42 37  2  0
 42 41  1  0
 43 42  1  0
 45 46  1  0
 46 49  1  0
 46 48  1  0
 47 45  2  0
 51 50  1  0
 52 50  1  0
 53 54  2  0
 54 55  1  0
 55 57  1  0
 56 67  2  0
 57 62  1  0
 58 66  1  0
 58 68  1  0
 59 65  1  0
 59 61  1  0
 60 66  1  0
 61 62  2  0
 61 60  1  0
 63 64  1  0
 63 57  2  0
 64 59  2  0
 65 58  1  0
 66 56  1  0
 68 70  2  0
 69 68  1  0
 71 69  1  0
 72 77  1  0
 73 69  1  0
 74 73  1  0
 75 76  1  0
 75 74  1  0
 76 72  1  0
 77 73  1  0
 77 78  2  0
 79 78  1  0
 80 79  2  0
 81 72  2  0
 81 80  1  0
 82 56  1  0
 82 83  1  0
 82 92  1  0
 83 86  1  0
 84 88  1  0
 84 83  1  0
 85 84  2  0
 88 87  1  0
 88 90  1  0
 90 91  1  0
 90 89  1  0
 92 95  1  1
 92 93  1  0
 94 92  1  0
M  ISO  4  15 100  23 100  54 101  55 101
M  END
>  <TORSDO>  (42) 
F 21

>  <SCORE>  (42) 
-1.397

>  <name>  (42) 
41

>  <ligand_id>  (42) 
41

>  <original_smiles>  (42) 
[H]c1c([H])c([H])c2c(c1[H])C([H])([H])C([H])([H])C([H])([H])C2([H])N([H])C(=O)C1([H])N(C(=O)C([H])(N([H])C(=O)C([H])(N([H])C([H])([H])[H])C([H])([H])[H])C(C([H])([H])[H])(C([H])([H])[H])C([H])([H])[H])C([H])([H])c2c([H])c(OC([H])([H])C([H])([H])C3([H])C([H])([H])C(=O)c4c([H])c([H])c(C([H])([H])C([H])([H])C([H])([H])N([H])C(=O)N5C([H])([H])C([H])([H])C([H])([H])C([H])(n6nc(-c7c([H])c([H])c(Oc8c([H])c([H])c(F)c([H])c8F)c([H])c7[H])c(C(=O)N([H])[H])c6N([H])[H])C5([H])[H])c([H])c4C3([H])[H])c([H])c([H])c2C1([H])[H]

>  <smiles>  (42) 
[H]c1c([H])c([H])c2c(c1[H])C([H])([H])C([H])([H])C([H])([H])C2([H])N([H])C(=O)C1([H])N(C(=O)C([H])(N([H])C(=O)C([H])(N([H])C([H])([H])[H])C([H])([H])[H])C(C([H])([H])[H])(C([H])([H])[H])C([H])([H])[H])C([H])([H])c2c([H])c(OC([H])([H])C([H])([H])C3([H])C([H])([H])C(=O)c4c([H])c([H])c(C([H])([H])C([H])([H])C([H])([H])N([H])C(=O)N5C([H])([H])C([H])([H])C([H])([H])C([H])(n6nc(-c7c([H])c([H])c(Oc8c([H])c([H])c(F)c([H])c8F)c([H])c7[H])c(C(=O)N([H])[H])c6N([H])[H])C5([H])[H])c([H])c4C3([H])[H])c([H])c([H])c2C1([H])[H]

$$$$
42:0:0
     RDKit          3D

 91 99  0  0  1  0  0  0  0  0999 V2000
  -29.5880  -20.6170   21.4620 C   0  0  0  0  0  2  0  0  0  0  0  0
  -29.4690  -18.9790   21.4890 C   0  0  0  0  0  2  0  0  0  0  0  0
  -29.3720  -20.6140   19.1030 C   0  0  0  0  0  2  0  0  0  0  0  0
  -28.8740  -21.5240   20.3380 C   0  0  0  0  0  3  0  0  0  0  0  0
  -29.2550  -18.9570   19.1030 C   0  0  0  0  0  3  0  0  0  0  0  0
  -29.9840  -18.0840   20.2600 C   0  0  0  0  0  3  0  0  0  0  0  0
  -30.5900  -15.2780   20.0870 C   0  0  0  0  0  0  0  0  0  0  0  0
  -30.4890  -12.9220   19.0900 C   0  0  0  0  0  2  0  0  0  0  0  0
  -29.5010  -12.8550   17.9010 C   0  0  0  0  0  2  0  0  0  0  0  0
  -28.0670  -12.5920   18.3970 C   0  0  0  0  0  2  0  0  0  0  0  0
  -27.6950  -13.4830   19.6100 C   0  0  0  0  0  3  0  0  0  0  0  0
  -28.8010  -13.5100   20.6850 C   0  0  0  0  0  2  0  0  0  0  0  0
  -30.0210  -13.9950   20.0250 N   0  0  0  0  0  0  0  0  0  0  0  0
  -31.7810  -15.3460   19.7630 O   0  0  0  0  0  0  0  0  0  0  0  0
  -29.7980  -16.4690   20.3170 N   0  0  0  0  0  0  0  0  0  0  0  0
  -28.8480  -16.2140   20.5410 H   0  0  0  0  0  0  0  0  0  0  0  0
  -25.3520  -14.0010   20.4870 C   0  0  0  0  0  0  0  0  0  0  0  0
  -24.3150  -13.2020   20.8810 C   0  0  0  0  0  0  0  0  0  0  0  0
  -24.7910  -11.8580   20.7820 C   0  0  0  0  0  0  0  0  0  0  0  0
  -26.3890  -13.1440   20.1660 N   0  0  0  0  0  0  0  0  0  0  0  0
  -26.0660  -11.8480   20.4090 N   0  0  0  0  0  0  0  0  0  0  0  0
  -24.0850  -10.5830   20.9610 C   0  0  0  0  0  0  0  0  0  0  0  0
  -24.5120   -9.6280   21.9110 C   0  0  0  0  0  3  0  0  0  0  0  0
  -23.8040   -8.4190   22.0790 C   0  0  0  0  0  3  0  0  0  0  0  0
  -22.6530   -8.1560   21.2970 C   0  0  0  0  0  0  0  0  0  0  0  0
  -22.2460   -9.0990   20.3380 C   0  0  0  0  0  3  0  0  0  0  0  0
  -22.9550  -10.2990   20.1680 C   0  0  0  0  0  3  0  0  0  0  0  0
  -21.9180   -6.9970   21.3740 O   0  0  0  0  0  0  0  0  0  0  0  0
  -21.7680   -6.3160   22.5550 C   0  0  0  0  0  0  0  0  0  0  0  0
  -21.1980   -6.9200   23.6970 C   0  0  0  0  0  3  0  0  0  0  0  0
  -21.0000   -6.1640   24.8700 C   0  0  0  0  0  3  0  0  0  0  0  0
  -21.3590   -4.8030   24.8980 C   0  0  0  0  0  0  0  0  0  0  0  0
  -21.9210   -4.1980   23.7610 C   0  0  0  0  0  3  0  0  0  0  0  0
  -22.1210   -4.9520   22.5910 C   0  0  0  0  0  0  0  0  0  0  0  0
  -22.6430   -4.3580   21.4910 F   0  0  0  0  0  0  0  0  0  0  0  0
  -21.1620   -4.0740   26.0220 F   0  0  0  0  0  0  0  0  0  0  0  0
  -22.9270  -13.6550   21.2290 C   0  0  0  0  0  0  0  0  0  0  0  0
  -22.2480  -12.9260   22.1070 N   0  0  0  0  0  0  0  0  0  0  0  0
  -22.4570  -14.6900   20.7590 O   0  0  0  0  0  0  0  0  0  0  0  0
  -22.6430  -12.0880   22.5080 H   0  0  0  0  0  0  0  0  0  0  0  0
  -21.3190  -13.2110   22.3830 H   0  0  0  0  0  0  0  0  0  0  0  0
  -25.4900  -15.3790   20.3460 N   0  0  0  0  0  0  0  0  0  0  0  0
  -24.7150  -16.0130   20.5050 H   0  0  0  0  0  0  0  0  0  0  0  0
  -26.2970  -15.8370   19.9440 H   0  0  0  0  0  0  0  0  0  0  0  0
  -28.5380  -18.7710   16.6380 C   0  0  0  0  0  1  0  0  0  0  0  0
  -29.5690  -18.3500   17.7050 C   0  0  0  0  0  3  0  0  0  0  0  0
  -31.4470  -17.7750   16.0310 C   0  0  0  0  0  1  0  0  0  0  0  0
  -31.0170  -18.6220   17.2380 C   0  0  0  0  0  2  0  0  0  0  0  0
  -29.1020  -23.2630   20.3890 C   0  0  0  0  0  3  0  0  0  0  0  0
  -28.0530  -24.6260   20.1250 C   0  0  0  0  0  3  0  0  0  0  0  0
  -28.3010  -26.1960   20.3160 O   0  0  0  0  0  0  0  0  0  0  0  0
  -24.6810  -31.9830   23.3110 C   0  0  0  0  0  0  0  0  0  0  0  0
  -27.2580  -27.2240   20.2570 C   0  0  0  0  0  0  0  0  0  0  0  0
  -23.4870  -30.5960   21.6620 C   0  0  0  0  0  3  0  0  0  0  0  0
  -24.9380  -29.0210   20.2280 C   0  0  0  0  0  0  0  0  0  0  0  0
  -26.0460  -30.8460   21.5060 C   0  0  0  0  0  2  0  0  0  0  0  0
  -26.1210  -29.4510   20.8430 C   0  0  0  0  0  0  0  0  0  0  0  0
  -27.2800  -28.5710   20.8350 C   0  0  0  0  0  3  0  0  0  0  0  0
  -26.0460  -26.9170   19.6020 C   0  0  0  0  0  3  0  0  0  0  0  0
  -24.9190  -27.7710   19.5890 C   0  0  0  0  0  3  0  0  0  0  0  0
  -23.7120  -29.9250   20.2800 C   0  0  0  0  0  2  0  0  0  0  0  0
  -24.7580  -31.1650   22.2140 N   0  0  0  0  0  0  0  0  0  0  0  0
  -23.5940  -32.2640   23.8370 O   0  0  0  0  0  0  0  0  0  0  0  0
  -22.8030  -29.5860   22.6190 C   0  0  0  0  0  0  0  0  0  0  0  0
  -21.4760  -29.4060   22.4830 N   0  0  0  0  0  0  0  0  0  0  0  0
  -23.4720  -28.9660   23.4510 O   0  0  0  0  0  0  0  0  0  0  0  0
  -20.9920  -29.9580   21.7890 H   0  0  0  0  0  0  0  0  0  0  0  0
  -18.1020  -28.1680   22.9590 C   0  0  0  0  0  0  0  0  0  0  0  0
  -20.6560  -28.4610   23.2470 C   0  0  0  0  0  3  0  0  0  0  0  0
  -20.7780  -27.0290   22.6740 C   0  0  0  0  0  2  0  0  0  0  0  0
  -19.6900  -26.6940   21.6500 C   0  0  0  0  0  2  0  0  0  0  0  0
  -18.3010  -26.8220   22.2810 C   0  0  0  0  0  2  0  0  0  0  0  0
  -19.2080  -28.9450   23.3970 C   0  0  0  0  0  0  0  0  0  0  0  0
  -18.9680  -30.2020   23.9910 C   0  0  0  0  0  3  0  0  0  0  0  0
  -17.6550  -30.6860   24.1490 C   0  0  0  0  0  3  0  0  0  0  0  0
  -16.5640  -29.9080   23.7250 C   0  0  0  0  0  3  0  0  0  0  0  0
  -16.7890  -28.6510   23.1350 C   0  0  0  0  0  3  0  0  0  0  0  0
  -25.9550  -32.6200   23.9440 C   0  0  0  0  0  3  0  0  0  0  0  0
  -26.4530  -31.8570   25.2330 C   0  0  1  0  0  0  0  0  0  0  0  0
  -25.3450  -31.6270   26.2880 C   0  0  0  0  0  1  0  0  0  0  0  0
  -27.0420  -30.4760   24.8650 C   0  0  0  0  0  1  0  0  0  0  0  0
  -27.5940  -32.6550   25.9070 C   0  0  0  0  0  1  0  0  0  0  0  0
  -25.6420  -34.0220   24.2710 N   0  0  0  0  0  0  0  0  0  0  0  0
  -25.9500  -35.0740   23.5010 C   0  0  0  0  0  0  0  0  0  0  0  0
  -26.5890  -34.9690   22.4520 O   0  0  0  0  0  0  0  0  0  0  0  0
  -25.0700  -34.1760   25.0880 H   0  0  0  0  0  0  0  0  0  0  0  0
  -24.1850  -36.8480   23.2220 C   0  0  0  0  0  1  0  0  0  0  0  0
  -25.4720  -36.4650   23.9690 C   0  0  0  0  0  3  0  0  0  0  0  0
  -27.6340  -37.3910   24.6790 C   0  0  0  0  0  1  0  0  0  0  0  0
  -26.4850  -37.5280   23.7870 N   0  0  0  0  0  0  0  0  0  0  0  0
  -26.0740  -38.4460   23.9380 H   0  0  0  0  0  0  0  0  0  0  0  0
  1  2  1  0
  3  5  1  0
  3  4  1  0
  4 49  1  0
  4  1  1  0
  5 46  1  0
  5  6  1  0
  6 15  1  0
  6  2  1  0
  7 15  1  0
  8 13  1  0
  9 10  1  0
  9  8  1  0
 11 10  1  0
 11 20  1  0
 11 12  1  0
 13  7  1  0
 13 12  1  0
 14  7  2  0
 15 16  1  0
 17 18  2  0
 18 37  1  0
 19 18  1  0
 19 22  1  0
 20 21  1  0
 20 17  1  0
 21 19  2  0
 22 23  1  0
 23 24  2  0
 25 28  1  0
 25 24  1  0
 26 25  2  0
 27 26  1  0
 27 22  2  0
 28 29  1  0
 29 34  2  0
 29 30  1  0
 30 31  2  0
 31 32  1  0
 32 36  1  0
 33 32  2  0
 34 33  1  0
 35 34  1  0
 37 38  1  0
 38 41  1  0
 38 40  1  0
 39 37  2  0
 42 17  1  0
 42 43  1  0
 44 42  1  0
 46 45  1  0
 47 48  1  0
 48 46  1  0
 50 51  1  0
 50 49  2  0
 52 63  2  0
 53 51  1  0
 53 58  1  0
 54 62  1  0
 54 64  1  0
 55 61  1  0
 55 57  1  0
 56 62  1  0
 57 56  1  0
 58 57  2  0
 59 53  2  0
 60 59  1  0
 60 55  2  0
 61 54  1  0
 62 52  1  0
 64 66  2  0
 65 64  1  0
 67 65  1  0
 68 77  2  0
 68 73  1  0
 69 65  1  0
 69 73  1  0
 70 69  1  0
 71 72  1  0
 71 70  1  0
 72 68  1  0
 73 74  2  0
 74 75  1  0
 76 75  2  0
 77 76  1  0
 78 52  1  0
 78 83  1  0
 78 79  1  0
 79 82  1  1
 79 80  1  0
 81 79  1  0
 83 86  1  0
 84 88  1  0
 84 83  1  0
 85 84  2  0
 88 87  1  0
 90 91  1  0
 90 88  1  0
 90 89  1  0
M  ISO  4   7 100  15 100  50 101  51 101
M  END
>  <TORSDO>  (43) 
F 20

>  <SCORE>  (43) 
-14.267

>  <name>  (43) 
42

>  <ligand_id>  (43) 
42

>  <original_smiles>  (43) 
[H]c1c([H])c([H])c2c(c1[H])C([H])([H])C([H])([H])C([H])([H])C2([H])N([H])C(=O)C1([H])N(C(=O)C([H])(N([H])C(=O)C([H])(N([H])C([H])([H])[H])C([H])([H])[H])C(C([H])([H])[H])(C([H])([H])[H])C([H])([H])[H])C([H])([H])c2c([H])c(OC([H])([H])C([H])([H])C3([H])C([H])([H])C([H])([H])C([H])(N([H])C(=O)N4C([H])([H])C([H])([H])C([H])([H])C([H])(n5nc(-c6c([H])c([H])c(Oc7c([H])c([H])c(F)c([H])c7F)c([H])c6[H])c(C(=O)N([H])[H])c5N([H])[H])C4([H])[H])C([H])(C([H])(C([H])([H])[H])C([H])([H])C([H])([H])[H])C3([H])[H])c([H])c([H])c2C1([H])[H]

>  <smiles>  (43) 
[H]c1c([H])c([H])c2c(c1[H])C([H])([H])C([H])([H])C([H])([H])C2([H])N([H])C(=O)C1([H])N(C(=O)C([H])(N([H])C(=O)C([H])(N([H])C([H])([H])[H])C([H])([H])[H])C(C([H])([H])[H])(C([H])([H])[H])C([H])([H])[H])C([H])([H])c2c([H])c(OC([H])([H])C([H])([H])C3([H])C([H])([H])C([H])([H])C([H])(N([H])C(=O)N4C([H])([H])C([H])([H])C([H])([H])C([H])(n5nc(-c6c([H])c([H])c(Oc7c([H])c([H])c(F)c([H])c7F)c([H])c6[H])c(C(=O)N([H])[H])c5N([H])[H])C4([H])[H])C([H])(C([H])(C([H])([H])[H])C([H])([H])C([H])([H])[H])C3([H])[H])c([H])c([H])c2C1([H])[H]

$$$$
43:0:0
     RDKit          3D

 93100  0  0  1  0  0  0  0  0999 V2000
  -29.3470  -21.2120   22.2720 C   0  0  0  0  0  2  0  0  0  0  0  0
  -29.8020  -22.5720   21.7100 C   0  0  0  0  0  2  0  0  0  0  0  0
  -28.8130  -23.1130   20.6540 C   0  0  0  0  0  2  0  0  0  0  0  0
  -29.0750  -24.5460   20.1270 C   0  0  0  0  0  2  0  0  0  0  0  0
  -28.8990  -25.9930   22.2610 C   0  0  0  0  0  1  0  0  0  0  0  0
  -28.3270  -25.6770   20.8730 C   0  0  0  0  0  3  0  0  0  0  0  0
  -28.4040  -26.8810   20.0970 O   0  0  0  0  0  0  0  0  0  0  0  0
  -24.6410  -31.9270   23.4140 C   0  0  0  0  0  0  0  0  0  0  0  0
  -27.2570  -27.6370   20.1240 C   0  0  0  0  0  0  0  0  0  0  0  0
  -23.4220  -30.5990   21.7190 C   0  0  0  0  0  3  0  0  0  0  0  0
  -24.8670  -29.1300   20.2110 C   0  0  0  0  0  0  0  0  0  0  0  0
  -25.9470  -30.9660   21.5250 C   0  0  0  0  0  2  0  0  0  0  0  0
  -26.0270  -29.6320   20.8130 C   0  0  0  0  0  0  0  0  0  0  0  0
  -27.2300  -28.8930   20.7640 C   0  0  0  0  0  3  0  0  0  0  0  0
  -26.0860  -27.1470   19.5100 C   0  0  0  0  0  3  0  0  0  0  0  0
  -24.8900  -27.8870   19.5530 C   0  0  0  0  0  3  0  0  0  0  0  0
  -23.6210  -29.9800   20.3090 C   0  0  0  0  0  2  0  0  0  0  0  0
  -24.6890  -31.1740   22.2790 N   0  0  0  0  0  0  0  0  0  0  0  0
  -23.5660  -32.1830   23.9740 O   0  0  0  0  0  0  0  0  0  0  0  0
  -22.7740  -29.5390   22.6370 C   0  0  0  0  0  0  0  0  0  0  0  0
  -21.4550  -29.3410   22.4790 N   0  0  0  0  0  0  0  0  0  0  0  0
  -23.4520  -28.8980   23.4440 O   0  0  0  0  0  0  0  0  0  0  0  0
  -20.9710  -29.9160   21.8040 H   0  0  0  0  0  0  0  0  0  0  0  0
  -18.0950  -28.0670   22.8520 C   0  0  0  0  0  0  0  0  0  0  0  0
  -20.6380  -28.3660   23.2010 C   0  0  0  0  0  3  0  0  0  0  0  0
  -20.7860  -26.9530   22.5910 C   0  0  0  0  0  2  0  0  0  0  0  0
  -19.7180  -26.6360   21.5400 C   0  0  0  0  0  2  0  0  0  0  0  0
  -18.3170  -26.7370   22.1500 C   0  0  0  0  0  2  0  0  0  0  0  0
  -19.1860  -28.8380   23.3290 C   0  0  0  0  0  0  0  0  0  0  0  0
  -18.9310  -30.0810   23.9470 C   0  0  0  0  0  3  0  0  0  0  0  0
  -17.6150  -30.5550   24.0910 C   0  0  0  0  0  3  0  0  0  0  0  0
  -16.5350  -29.7790   23.6350 C   0  0  0  0  0  3  0  0  0  0  0  0
  -16.7760  -28.5360   23.0210 C   0  0  0  0  0  3  0  0  0  0  0  0
  -25.9380  -32.5220   24.0500 C   0  0  0  0  0  3  0  0  0  0  0  0
  -26.4370  -31.7170   25.3120 C   0  0  1  0  0  0  0  0  0  0  0  0
  -25.3320  -31.4690   26.3650 C   0  0  0  0  0  1  0  0  0  0  0  0
  -27.0070  -30.3420   24.8920 C   0  0  0  0  0  1  0  0  0  0  0  0
  -27.5920  -32.4840   25.9990 C   0  0  0  0  0  1  0  0  0  0  0  0
  -25.6550  -33.9190   24.4030 N   0  0  0  0  0  0  0  0  0  0  0  0
  -26.0320  -34.9800   23.6760 C   0  0  0  0  0  0  0  0  0  0  0  0
  -26.7280  -34.8840   22.6610 O   0  0  0  0  0  0  0  0  0  0  0  0
  -25.0440  -34.0690   25.1930 H   0  0  0  0  0  0  0  0  0  0  0  0
  -24.3710  -36.8250   23.2940 C   0  0  0  0  0  1  0  0  0  0  0  0
  -25.5630  -36.3680   24.1500 C   0  0  0  0  0  3  0  0  0  0  0  0
  -27.6800  -37.1690   25.0970 C   0  0  0  0  0  1  0  0  0  0  0  0
  -26.6270  -37.3940   24.1100 N   0  0  0  0  0  0  0  0  0  0  0  0
  -26.2410  -38.3190   24.2700 H   0  0  0  0  0  0  0  0  0  0  0  0
  -30.4870  -20.3430   22.8270 C   0  0  0  0  0  2  0  0  0  0  0  0
  -29.9440  -19.2070   23.7220 C   0  0  0  0  0  2  0  0  0  0  0  0
  -30.8350  -17.9550   23.8190 C   0  0  0  0  0  2  0  0  0  0  0  0
  -30.8160  -17.2050   22.5490 N   0  0  0  0  0  4  0  0  0  0  0  0
  -31.2880  -17.7590   21.8540 H   0  0  0  0  0  0  0  0  0  0  0  0
  -29.8620  -17.0780   22.2530 H   0  0  0  0  0  0  0  0  0  0  0  0
  -31.4500  -15.8740   22.5700 C   0  0  0  0  0  2  0  0  0  0  0  0
  -31.5980  -15.3430   21.1380 C   0  0  0  0  0  2  0  0  0  0  0  0
  -30.2440  -14.2120   19.4080 C   0  0  0  0  0  0  0  0  0  0  0  0
  -29.6600  -12.1550   18.1930 C   0  0  0  0  0  2  0  0  0  0  0  0
  -28.4980  -12.3010   17.2000 C   0  0  0  0  0  2  0  0  0  0  0  0
  -27.1520  -12.0880   17.9090 C   0  0  0  0  0  2  0  0  0  0  0  0
  -27.0150  -12.9480   19.1920 C   0  0  0  0  0  3  0  0  0  0  0  0
  -28.2650  -12.8150   20.0950 C   0  0  0  0  0  2  0  0  0  0  0  0
  -29.4700  -13.1070   19.2960 N   0  0  0  0  0  0  0  0  0  0  0  0
  -30.9570  -14.6420   18.4950 O   0  0  0  0  0  0  0  0  0  0  0  0
  -30.3970  -14.6420   20.6660 N   0  0  0  0  0  0  0  0  0  0  0  0
  -29.8170  -14.1820   21.3540 H   0  0  0  0  0  0  0  0  0  0  0  0
  -24.7800  -13.4650   20.3650 C   0  0  0  0  0  0  0  0  0  0  0  0
  -23.8170  -12.6520   20.9020 C   0  0  0  0  0  0  0  0  0  0  0  0
  -24.2910  -11.3140   20.7280 C   0  0  0  0  0  0  0  0  0  0  0  0
  -25.7830  -12.6220   19.9100 N   0  0  0  0  0  0  0  0  0  0  0  0
  -25.4990  -11.3210   20.1790 N   0  0  0  0  0  0  0  0  0  0  0  0
  -23.6400  -10.0270   21.0050 C   0  0  0  0  0  0  0  0  0  0  0  0
  -24.1950   -9.1000   21.9130 C   0  0  0  0  0  3  0  0  0  0  0  0
  -23.5410   -7.8760   22.1770 C   0  0  0  0  0  3  0  0  0  0  0  0
  -22.3170   -7.5730   21.5340 C   0  0  0  0  0  0  0  0  0  0  0  0
  -21.7820   -8.4890   20.6130 C   0  0  0  0  0  3  0  0  0  0  0  0
  -22.4360   -9.7040   20.3470 C   0  0  0  0  0  3  0  0  0  0  0  0
  -21.6250   -6.3980   21.7100 O   0  0  0  0  0  0  0  0  0  0  0  0
  -21.6460   -5.7210   22.9020 C   0  0  0  0  0  0  0  0  0  0  0  0
  -21.2270   -6.3230   24.1090 C   0  0  0  0  0  3  0  0  0  0  0  0
  -21.2000   -5.5690   25.3000 C   0  0  0  0  0  3  0  0  0  0  0  0
  -21.5780   -4.2140   25.2850 C   0  0  0  0  0  0  0  0  0  0  0  0
  -21.9900   -3.6110   24.0830 C   0  0  0  0  0  3  0  0  0  0  0  0
  -22.0200   -4.3630   22.8950 C   0  0  0  0  0  0  0  0  0  0  0  0
  -22.3960   -3.7700   21.7360 F   0  0  0  0  0  0  0  0  0  0  0  0
  -21.5440   -3.4870   26.4270 F   0  0  0  0  0  0  0  0  0  0  0  0
  -22.4900  -13.0810   21.4560 C   0  0  0  0  0  0  0  0  0  0  0  0
  -21.9730  -12.3520   22.4390 N   0  0  0  0  0  0  0  0  0  0  0  0
  -21.9260  -14.0970   21.0540 O   0  0  0  0  0  0  0  0  0  0  0  0
  -22.4490  -11.5310   22.7810 H   0  0  0  0  0  0  0  0  0  0  0  0
  -21.0950  -12.6240   22.8550 H   0  0  0  0  0  0  0  0  0  0  0  0
  -24.8780  -14.8450   20.2110 N   0  0  0  0  0  0  0  0  0  0  0  0
  -24.1390  -15.4760   20.4990 H   0  0  0  0  0  0  0  0  0  0  0  0
  -25.6400  -15.3200   19.7440 H   0  0  0  0  0  0  0  0  0  0  0  0
  1 48  1  0
  2  1  1  0
  3  2  1  0
  4  3  1  0
  4  6  1  0
  6  5  1  0
  7  9  1  0
  7  6  1  0
  8 19  2  0
  9 14  1  0
 10 18  1  0
 10 20  1  0
 11 17  1  0
 11 13  1  0
 12 18  1  0
 13 12  1  0
 14 13  2  0
 15 16  1  0
 15  9  2  0
 16 11  2  0
 17 10  1  0
 18  8  1  0
 20 22  2  0
 21 20  1  0
 23 21  1  0
 24 33  2  0
 24 29  1  0
 25 21  1  0
 25 29  1  0
 26 25  1  0
 27 28  1  0
 27 26  1  0
 28 24  1  0
 29 30  2  0
 30 31  1  0
 32 31  2  0
 33 32  1  0
 34  8  1  0
 34 39  1  0
 34 35  1  0
 35 38  1  1
 35 36  1  0
 37 35  1  0
 39 42  1  0
 40 44  1  0
 40 39  1  0
 41 40  2  0
 44 43  1  0
 46 44  1  0
 46 47  1  0
 46 45  1  0
 48 49  1  0
 49 50  1  0
 51 54  1  0
 51 50  1  0
 52 51  1  0
 53 51  1  0
 55 54  1  0
 56 64  1  0
 57 62  1  0
 58 59  1  0
 58 57  1  0
 60 59  1  0
 60 69  1  0
 60 61  1  0
 62 56  1  0
 62 61  1  0
 63 56  2  0
 64 55  1  0
 64 65  1  0
 66 67  2  0
 67 86  1  0
 68 67  1  0
 68 71  1  0
 69 70  1  0
 69 66  1  0
 70 68  2  0
 71 72  1  0
 72 73  2  0
 74 77  1  0
 74 73  1  0
 75 74  2  0
 76 75  1  0
 76 71  2  0
 77 78  1  0
 78 79  1  0
 79 80  2  0
 81 80  1  0
 81 85  1  0
 82 81  2  0
 83 78  2  0
 83 82  1  0
 84 83  1  0
 86 87  1  0
 87 89  1  0
 87 90  1  0
 88 86  2  0
 91 66  1  0
 91 92  1  0
 93 91  1  0
M  ISO  4   6 101   7 101  56 100  64 100
M  END
>  <TORSDO>  (44) 
F 26

>  <SCORE>  (44) 
-7.126

>  <name>  (44) 
43

>  <ligand_id>  (44) 
43

>  <original_smiles>  (44) 
[H]c1c([H])c([H])c2c(c1[H])C([H])([H])C([H])([H])C([H])([H])C2([H])N([H])C(=O)C1([H])N(C(=O)C([H])(N([H])C(=O)C([H])(N([H])C([H])([H])[H])C([H])([H])[H])C(C([H])([H])[H])(C([H])([H])[H])C([H])([H])[H])C([H])([H])c2c([H])c(OC([H])(C([H])([H])[H])C([H])([H])C([H])([H])C([H])([H])C([H])([H])C([H])([H])C([H])([H])C([H])([H])[N+]([H])([H])C([H])([H])C([H])([H])N([H])C(=O)N3C([H])([H])C([H])([H])C([H])([H])C([H])(n4nc(-c5c([H])c([H])c(Oc6c([H])c([H])c(F)c([H])c6F)c([H])c5[H])c(C(=O)N([H])[H])c4N([H])[H])C3([H])[H])c([H])c([H])c2C1([H])[H]

>  <smiles>  (44) 
[H]c1c([H])c([H])c2c(c1[H])C([H])([H])C([H])([H])C([H])([H])C2([H])N([H])C(=O)C1([H])N(C(=O)C([H])(N([H])C(=O)C([H])(N([H])C([H])([H])[H])C([H])([H])[H])C(C([H])([H])[H])(C([H])([H])[H])C([H])([H])[H])C([H])([H])c2c([H])c(OC([H])(C([H])([H])[H])C([H])([H])C([H])([H])C([H])([H])C([H])([H])C([H])([H])C([H])([H])C([H])([H])[N+]([H])([H])C([H])([H])C([H])([H])N([H])C(=O)N3C([H])([H])C([H])([H])C([H])([H])C([H])(n4nc(-c5c([H])c([H])c(Oc6c([H])c([H])c(F)c([H])c6F)c([H])c5[H])c(C(=O)N([H])[H])c4N([H])[H])C3([H])[H])c([H])c([H])c2C1([H])[H]

$$$$
44:0:0
     RDKit          3D

 91 99  0  0  1  0  0  0  0  0999 V2000
  -30.1110  -20.6240   22.6680 C   0  0  0  0  0  2  0  0  0  0  0  0
  -30.1140  -21.9600   21.8750 C   0  0  0  0  0  2  0  0  0  0  0  0
  -30.6260  -19.3840   21.8870 C   0  0  0  0  0  2  0  0  0  0  0  0
  -29.8410  -20.5300   19.8030 C   0  0  0  0  0  2  0  0  0  0  0  0
  -29.3220  -21.9320   20.5500 C   0  0  0  0  0  3  0  0  0  0  0  0
  -29.8420  -19.0510   20.5910 C   0  0  2  0  0  0  0  0  0  0  0  0
  -29.3340  -23.4720   19.8580 C   0  0  0  0  0  3  0  0  0  0  0  0
  -28.4190  -24.7870   20.3650 C   0  0  0  0  0  3  0  0  0  0  0  0
  -28.5470  -26.2740   19.9440 O   0  0  0  0  0  0  0  0  0  0  0  0
  -24.6400  -31.7150   23.0240 C   0  0  0  0  0  0  0  0  0  0  0  0
  -27.4280  -27.1790   19.9450 C   0  0  0  0  0  0  0  0  0  0  0  0
  -23.5080  -30.3160   21.3380 C   0  0  0  0  0  3  0  0  0  0  0  0
  -25.0290  -28.8150   19.9090 C   0  0  0  0  0  0  0  0  0  0  0  0
  -26.0510  -30.6730   21.2160 C   0  0  0  0  0  2  0  0  0  0  0  0
  -26.1810  -29.2990   20.5410 C   0  0  0  0  0  0  0  0  0  0  0  0
  -27.3830  -28.5010   20.5390 C   0  0  0  0  0  3  0  0  0  0  0  0
  -26.2490  -26.7830   19.2770 C   0  0  0  0  0  3  0  0  0  0  0  0
  -25.0740  -27.5700   19.2600 C   0  0  0  0  0  3  0  0  0  0  0  0
  -23.7700  -29.6670   19.9510 C   0  0  0  0  0  2  0  0  0  0  0  0
  -24.7500  -30.9230   21.9150 N   0  0  0  0  0  0  0  0  0  0  0  0
  -23.5380  -31.9570   23.5430 O   0  0  0  0  0  0  0  0  0  0  0  0
  -22.8460  -29.2700   22.2700 C   0  0  0  0  0  0  0  0  0  0  0  0
  -21.5150  -29.1050   22.1580 N   0  0  0  0  0  0  0  0  0  0  0  0
  -23.5300  -28.6100   23.0560 O   0  0  0  0  0  0  0  0  0  0  0  0
  -21.0200  -29.6920   21.5030 H   0  0  0  0  0  0  0  0  0  0  0  0
  -18.1340  -27.9420   22.7280 C   0  0  0  0  0  0  0  0  0  0  0  0
  -20.7070  -28.1360   22.9010 C   0  0  0  0  0  3  0  0  0  0  0  0
  -20.7520  -26.7410   22.2340 C   0  0  0  0  0  2  0  0  0  0  0  0
  -19.6020  -26.5060   21.2490 C   0  0  0  0  0  2  0  0  0  0  0  0
  -18.2510  -26.6360   21.9590 C   0  0  0  0  0  2  0  0  0  0  0  0
  -19.2850  -28.6540   23.1560 C   0  0  0  0  0  0  0  0  0  0  0  0
  -19.1180  -29.8790   23.8380 C   0  0  0  0  0  3  0  0  0  0  0  0
  -17.8320  -30.3910   24.0950 C   0  0  0  0  0  3  0  0  0  0  0  0
  -16.6960  -29.6750   23.6810 C   0  0  0  0  0  3  0  0  0  0  0  0
  -16.8470  -28.4520   23.0050 C   0  0  0  0  0  3  0  0  0  0  0  0
  -25.8910  -32.3720   23.6860 C   0  0  0  0  0  3  0  0  0  0  0  0
  -25.5300  -33.7500   24.0540 N   0  0  0  0  0  0  0  0  0  0  0  0
  -25.8370  -34.8390   23.3360 C   0  0  0  0  0  0  0  0  0  0  0  0
  -26.5200  -34.7920   22.3100 O   0  0  0  0  0  0  0  0  0  0  0  0
  -24.9230  -33.8560   24.8530 H   0  0  0  0  0  0  0  0  0  0  0  0
  -24.0590  -36.5950   23.0220 C   0  0  0  0  0  1  0  0  0  0  0  0
  -25.3010  -36.1970   23.8350 C   0  0  0  0  0  3  0  0  0  0  0  0
  -27.3930  -37.1200   24.7290 C   0  0  0  0  0  1  0  0  0  0  0  0
  -26.3000  -37.2850   23.7730 N   0  0  0  0  0  0  0  0  0  0  0  0
  -25.8640  -38.1860   23.9470 H   0  0  0  0  0  0  0  0  0  0  0  0
  -26.4140  -31.5860   24.9520 C   0  0  1  0  0  0  0  0  0  0  0  0
  -25.3140  -31.2880   25.9980 C   0  0  0  0  0  1  0  0  0  0  0  0
  -27.0440  -30.2360   24.5380 C   0  0  0  0  0  1  0  0  0  0  0  0
  -27.5320  -32.3960   25.6510 C   0  0  0  0  0  1  0  0  0  0  0  0
  -28.3680  -18.7040   20.9290 C   0  0  0  0  0  2  0  0  0  0  0  0
  -26.0550  -18.1840   19.9550 C   0  0  0  0  0  1  0  0  0  0  0  0
  -27.5750  -18.1090   19.7540 C   0  0  0  0  0  2  0  0  0  0  0  0
  -30.5540  -17.6680   19.9290 C   0  0  0  0  0  2  0  0  0  0  0  0
  -30.9910  -14.9800   20.0560 C   0  0  0  0  0  0  0  0  0  0  0  0
  -30.7070  -12.6900   19.0310 C   0  0  0  0  0  2  0  0  0  0  0  0
  -29.7150  -12.7690   17.8480 C   0  0  0  0  0  2  0  0  0  0  0  0
  -28.2690  -12.5790   18.3360 C   0  0  0  0  0  2  0  0  0  0  0  0
  -27.9540  -13.4320   19.5940 C   0  0  0  0  0  3  0  0  0  0  0  0
  -29.0740  -13.3650   20.6610 C   0  0  0  0  0  2  0  0  0  0  0  0
  -30.3320  -13.7520   20.0090 N   0  0  0  0  0  0  0  0  0  0  0  0
  -32.1440  -15.0300   19.6240 O   0  0  0  0  0  0  0  0  0  0  0  0
  -30.3060  -16.1780   20.3750 N   0  0  0  0  0  0  0  0  0  0  0  0
  -29.3980  -16.0200   20.7830 H   0  0  0  0  0  0  0  0  0  0  0  0
  -25.6160  -13.9940   20.4670 C   0  0  0  0  0  0  0  0  0  0  0  0
  -24.5630  -13.2290   20.8750 C   0  0  0  0  0  0  0  0  0  0  0  0
  -25.0060  -11.8790   20.7700 C   0  0  0  0  0  0  0  0  0  0  0  0
  -26.6380  -13.1210   20.1480 N   0  0  0  0  0  0  0  0  0  0  0  0
  -26.2810  -11.8340   20.3920 N   0  0  0  0  0  0  0  0  0  0  0  0
  -24.2670  -10.6260   20.9540 C   0  0  0  0  0  0  0  0  0  0  0  0
  -24.6830   -9.6560   21.8910 C   0  0  0  0  0  3  0  0  0  0  0  0
  -23.9420   -8.4650   22.0650 C   0  0  0  0  0  3  0  0  0  0  0  0
  -22.7740   -8.2360   21.2970 C   0  0  0  0  0  0  0  0  0  0  0  0
  -22.3760   -9.2000   20.3520 C   0  0  0  0  0  3  0  0  0  0  0  0
  -23.1160  -10.3820   20.1760 C   0  0  0  0  0  3  0  0  0  0  0  0
  -22.0040   -7.1010   21.3800 O   0  0  0  0  0  0  0  0  0  0  0  0
  -21.8600   -6.4160   22.5590 C   0  0  0  0  0  0  0  0  0  0  0  0
  -21.3510   -7.0370   23.7210 C   0  0  0  0  0  3  0  0  0  0  0  0
  -21.1530   -6.2790   24.8930 C   0  0  0  0  0  3  0  0  0  0  0  0
  -21.4500   -4.9020   24.8990 C   0  0  0  0  0  0  0  0  0  0  0  0
  -21.9500   -4.2830   23.7420 C   0  0  0  0  0  3  0  0  0  0  0  0
  -22.1530   -5.0390   22.5750 C   0  0  0  0  0  0  0  0  0  0  0  0
  -22.6140   -4.4320   21.4530 F   0  0  0  0  0  0  0  0  0  0  0  0
  -21.2510   -4.1720   26.0230 F   0  0  0  0  0  0  0  0  0  0  0  0
  -23.1910  -13.7260   21.2300 C   0  0  0  0  0  0  0  0  0  0  0  0
  -22.5040  -13.0340   22.1310 N   0  0  0  0  0  0  0  0  0  0  0  0
  -22.7420  -14.7670   20.7490 O   0  0  0  0  0  0  0  0  0  0  0  0
  -22.8800  -12.1930   22.5450 H   0  0  0  0  0  0  0  0  0  0  0  0
  -21.5870  -13.3500   22.4090 H   0  0  0  0  0  0  0  0  0  0  0  0
  -25.7810  -15.3540   20.3090 N   0  0  0  0  0  0  0  0  0  0  0  0
  -25.0130  -15.9990   20.4530 H   0  0  0  0  0  0  0  0  0  0  0  0
  -26.5910  -15.7940   19.9000 H   0  0  0  0  0  0  0  0  0  0  0  0
  2  1  1  0
  3  1  1  0
  4  5  1  0
  4  6  1  0
  5  7  1  0
  5  2  1  0
  6 53  1  6
  6 50  1  0
  6  3  1  0
  7  8  2  0
  9 11  1  0
  9  8  1  0
 10 21  2  0
 11 16  1  0
 12 20  1  0
 12 22  1  0
 13 19  1  0
 13 15  1  0
 14 20  1  0
 15 14  1  0
 16 15  2  0
 17 11  2  0
 18 17  1  0
 18 13  2  0
 19 12  1  0
 20 10  1  0
 22 24  2  0
 23 22  1  0
 25 23  1  0
 26 35  2  0
 26 31  1  0
 27 23  1  0
 27 31  1  0
 28 27  1  0
 29 30  1  0
 29 28  1  0
 30 26  1  0
 31 32  2  0
 32 33  1  0
 34 33  2  0
 35 34  1  0
 36 10  1  0
 36 37  1  0
 36 46  1  0
 37 40  1  0
 38 42  1  0
 38 37  1  0
 39 38  2  0
 42 41  1  0
 44 42  1  0
 44 45  1  0
 44 43  1  0
 46 49  1  1
 46 47  1  0
 48 46  1  0
 52 51  1  0
 52 50  1  0
 53 62  1  0
 54 62  1  0
 55 60  1  0
 56 57  1  0
 56 55  1  0
 58 57  1  0
 58 67  1  0
 58 59  1  0
 60 54  1  0
 60 59  1  0
 61 54  2  0
 62 63  1  0
 64 65  2  0
 65 84  1  0
 66 65  1  0
 66 69  1  0
 67 68  1  0
 67 64  1  0
 68 66  2  0
 69 70  1  0
 70 71  2  0
 72 75  1  0
 72 71  1  0
 73 72  2  0
 74 73  1  0
 74 69  2  0
 75 76  1  0
 76 81  2  0
 76 77  1  0
 77 78  2  0
 78 79  1  0
 79 83  1  0
 80 79  2  0
 81 80  1  0
 82 81  1  0
 84 85  1  0
 85 88  1  0
 85 87  1  0
 86 84  2  0
 89 90  1  0
 89 64  1  0
 91 89  1  0
M  ISO  4   8 101   9 101  54 100  62 100
M  END
>  <TORSDO>  (45) 
F 21

>  <SCORE>  (45) 
-12.320

>  <name>  (45) 
44

>  <ligand_id>  (45) 
44

>  <original_smiles>  (45) 
[H]c1c([H])c([H])c2c(c1[H])C([H])([H])C([H])([H])C([H])([H])C2([H])N([H])C(=O)C1([H])N(C(=O)C([H])(N([H])C(=O)C([H])(N([H])C([H])([H])[H])C([H])([H])[H])C(C([H])([H])[H])(C([H])([H])[H])C([H])([H])[H])C([H])([H])c2c([H])c(OC([H])([H])C([H])([H])C3([H])C([H])([H])C([H])([H])C([H])([H])C(C([H])([H])N([H])C(=O)N4C([H])([H])C([H])([H])C([H])([H])C([H])(n5nc(-c6c([H])c([H])c(Oc7c([H])c([H])c(F)c([H])c7F)c([H])c6[H])c(C(=O)N([H])[H])c5N([H])[H])C4([H])[H])(C([H])([H])C([H])([H])C([H])([H])[H])C3([H])[H])c([H])c([H])c2C1([H])[H]

>  <smiles>  (45) 
[H]c1c([H])c([H])c2c(c1[H])C([H])([H])C([H])([H])C([H])([H])C2([H])N([H])C(=O)C1([H])N(C(=O)C([H])(N([H])C(=O)C([H])(N([H])C([H])([H])[H])C([H])([H])[H])C(C([H])([H])[H])(C([H])([H])[H])C([H])([H])[H])C([H])([H])c2c([H])c(OC([H])([H])C([H])([H])C3([H])C([H])([H])C([H])([H])C([H])([H])C(C([H])([H])N([H])C(=O)N4C([H])([H])C([H])([H])C([H])([H])C([H])(n5nc(-c6c([H])c([H])c(Oc7c([H])c([H])c(F)c([H])c7F)c([H])c6[H])c(C(=O)N([H])[H])c5N([H])[H])C4([H])[H])(C([H])([H])C([H])([H])C([H])([H])[H])C3([H])[H])c([H])c([H])c2C1([H])[H]

$$$$
45:0:0
     RDKit          3D

 95104  0  0  1  0  0  0  0  0999 V2000
  -30.7800  -17.2300   21.0070 C   0  0  0  0  0  0  0  0  0  0  0  0
  -28.5990  -18.6830   20.7550 C   0  0  0  0  0  2  0  0  0  0  0  0
  -28.9490  -21.0750   19.5830 C   0  0  0  0  0  2  0  0  0  0  0  0
  -30.6380  -20.2930   18.1340 C   0  0  0  0  0  2  0  0  0  0  0  0
  -31.0430  -17.4580   19.4850 C   0  0  0  0  0  3  0  0  0  0  0  0
  -29.4380  -17.7290   21.6450 C   0  0  0  0  0  3  0  0  0  0  0  0
  -29.5330  -19.7570   20.2170 C   0  0  0  0  0  3  0  0  0  0  0  0
  -30.5450  -19.0990   19.2480 C   0  0  0  0  0  3  0  0  0  0  0  0
  -30.1230  -21.7180   18.7990 C   0  0  0  0  0  3  0  0  0  0  0  0
  -31.5840  -16.5890   21.6870 O   0  0  0  0  0  0  0  0  0  0  0  0
  -31.2360  -14.8440   18.7710 C   0  0  0  0  0  0  0  0  0  0  0  0
  -30.8660  -12.4690   17.9510 C   0  0  0  0  0  2  0  0  0  0  0  0
  -29.6940  -12.3850   16.9490 C   0  0  0  0  0  2  0  0  0  0  0  0
  -28.3470  -12.2460   17.6870 C   0  0  0  0  0  2  0  0  0  0  0  0
  -28.2130  -13.2430   18.8670 C   0  0  0  0  0  3  0  0  0  0  0  0
  -29.4780  -13.2630   19.7470 C   0  0  0  0  0  2  0  0  0  0  0  0
  -30.5880  -13.6160   18.8580 N   0  0  0  0  0  0  0  0  0  0  0  0
  -32.4060  -14.8340   18.3720 O   0  0  0  0  0  0  0  0  0  0  0  0
  -30.5280  -16.0770   18.9250 N   0  0  0  0  0  0  0  0  0  0  0  0
  -29.5260  -15.9710   18.9350 H   0  0  0  0  0  0  0  0  0  0  0  0
  -26.1340  -13.9640   20.1660 C   0  0  0  0  0  0  0  0  0  0  0  0
  -25.1050  -13.2570   20.7240 C   0  0  0  0  0  0  0  0  0  0  0  0
  -25.4180  -11.8770   20.5190 C   0  0  0  0  0  0  0  0  0  0  0  0
  -27.0000  -13.0210   19.6430 N   0  0  0  0  0  0  0  0  0  0  0  0
  -26.5980  -11.7560   19.9240 N   0  0  0  0  0  0  0  0  0  0  0  0
  -24.6350  -10.6680   20.8040 C   0  0  0  0  0  0  0  0  0  0  0  0
  -25.1020   -9.6800   21.6990 C   0  0  0  0  0  3  0  0  0  0  0  0
  -24.3220   -8.5350   21.9720 C   0  0  0  0  0  3  0  0  0  0  0  0
  -23.0600   -8.3720   21.3500 C   0  0  0  0  0  0  0  0  0  0  0  0
  -22.6120   -9.3470   20.4420 C   0  0  0  0  0  3  0  0  0  0  0  0
  -23.3910  -10.4840   20.1690 C   0  0  0  0  0  3  0  0  0  0  0  0
  -22.2460   -7.2800   21.5350 O   0  0  0  0  0  0  0  0  0  0  0  0
  -22.0680   -6.7170   22.7730 C   0  0  0  0  0  0  0  0  0  0  0  0
  -21.5910   -7.4640   23.8720 C   0  0  0  0  0  3  0  0  0  0  0  0
  -21.3560   -6.8290   25.1080 C   0  0  0  0  0  3  0  0  0  0  0  0
  -21.5870   -5.4480   25.2450 C   0  0  0  0  0  0  0  0  0  0  0  0
  -22.0580   -4.7000   24.1500 C   0  0  0  0  0  3  0  0  0  0  0  0
  -22.2940   -5.3330   22.9180 C   0  0  0  0  0  0  0  0  0  0  0  0
  -22.7250   -4.6040   21.8620 F   0  0  0  0  0  0  0  0  0  0  0  0
  -21.3540   -4.8350   26.4300 F   0  0  0  0  0  0  0  0  0  0  0  0
  -23.8500  -13.8280   21.3150 C   0  0  0  0  0  0  0  0  0  0  0  0
  -23.2820  -13.1610   22.3140 N   0  0  0  0  0  0  0  0  0  0  0  0
  -23.3920  -14.9010   20.9220 O   0  0  0  0  0  0  0  0  0  0  0  0
  -23.6650  -12.2890   22.6480 H   0  0  0  0  0  0  0  0  0  0  0  0
  -22.4530  -13.5340   22.7540 H   0  0  0  0  0  0  0  0  0  0  0  0
  -26.4010  -15.3260   20.0350 N   0  0  0  0  0  0  0  0  0  0  0  0
  -25.6310  -15.9540   20.2370 H   0  0  0  0  0  0  0  0  0  0  0  0
  -26.9150  -15.6250   19.2150 H   0  0  0  0  0  0  0  0  0  0  0  0
  -28.6670  -16.5600   22.1050 N   0  0  0  0  0  4  0  0  0  0  0  0
  -29.2800  -15.9520   22.6200 H   0  0  0  0  0  0  0  0  0  0  0  0
  -28.2520  -16.0560   21.3420 H   0  0  0  0  0  0  0  0  0  0  0  0
  -27.9300  -16.8510   22.7220 H   0  0  0  0  0  0  0  0  0  0  0  0
  -29.9080  -23.2080   18.0150 C   0  0  0  0  0  3  0  0  0  0  0  0
  -28.9260  -24.4960   18.4940 C   0  0  0  0  0  3  0  0  0  0  0  0
  -28.5500  -25.7990   17.7200 O   0  0  0  0  0  0  0  0  0  0  0  0
  -24.7480  -30.2710   22.2170 C   0  0  0  0  0  0  0  0  0  0  0  0
  -27.3930  -26.5930   18.0370 C   0  0  0  0  0  0  0  0  0  0  0  0
  -23.4990  -29.0520   20.4770 C   0  0  0  0  0  3  0  0  0  0  0  0
  -24.9040  -27.9760   18.6150 C   0  0  0  0  0  0  0  0  0  0  0  0
  -25.9600  -29.6900   20.0810 C   0  0  0  0  0  2  0  0  0  0  0  0
  -26.0980  -28.4640   19.1610 C   0  0  0  0  0  0  0  0  0  0  0  0
  -27.3420  -27.7950   18.8540 C   0  0  0  0  0  3  0  0  0  0  0  0
  -26.1580  -26.2010   17.4810 C   0  0  0  0  0  3  0  0  0  0  0  0
  -24.9420  -26.8610   17.7610 C   0  0  0  0  0  3  0  0  0  0  0  0
  -23.6030  -28.6750   18.9750 C   0  0  0  0  0  2  0  0  0  0  0  0
  -24.7610  -29.6850   20.9810 N   0  0  0  0  0  0  0  0  0  0  0  0
  -23.7190  -30.3030   22.9100 O   0  0  0  0  0  0  0  0  0  0  0  0
  -23.0740  -27.8020   21.2880 C   0  0  0  0  0  0  0  0  0  0  0  0
  -21.7760  -27.4540   21.2450 N   0  0  0  0  0  0  0  0  0  0  0  0
  -23.9130  -27.1530   21.9190 O   0  0  0  0  0  0  0  0  0  0  0  0
  -21.1460  -28.0420   20.7180 H   0  0  0  0  0  0  0  0  0  0  0  0
  -18.6550  -25.7230   21.8630 C   0  0  0  0  0  0  0  0  0  0  0  0
  -21.1790  -26.2850   21.8940 C   0  0  0  0  0  3  0  0  0  0  0  0
  -21.3660  -25.0140   21.0320 C   0  0  0  0  0  2  0  0  0  0  0  0
  -20.1810  -24.7380   20.1000 C   0  0  0  0  0  2  0  0  0  0  0  0
  -18.8910  -24.5640   20.9090 C   0  0  0  0  0  2  0  0  0  0  0  0
  -19.7260  -26.5400   22.3130 C   0  0  0  0  0  0  0  0  0  0  0  0
  -19.4450  -27.6240   23.1730 C   0  0  0  0  0  3  0  0  0  0  0  0
  -18.1250  -27.8950   23.5820 C   0  0  0  0  0  3  0  0  0  0  0  0
  -17.0700  -27.0750   23.1430 C   0  0  0  0  0  3  0  0  0  0  0  0
  -17.3370  -25.9900   22.2900 C   0  0  0  0  0  3  0  0  0  0  0  0
  -26.0200  -30.9480   22.8120 C   0  0  0  0  0  3  0  0  0  0  0  0
  -26.8290  -30.0010   23.7830 C   0  0  1  0  0  0  0  0  0  0  0  0
  -25.9630  -29.3610   24.8930 C   0  0  0  0  0  1  0  0  0  0  0  0
  -27.5050  -28.8550   22.9960 C   0  0  0  0  0  1  0  0  0  0  0  0
  -27.9670  -30.7990   24.4630 C   0  0  0  0  0  1  0  0  0  0  0  0
  -25.5910  -32.1630   23.5210 N   0  0  0  0  0  0  0  0  0  0  0  0
  -25.7010  -33.4090   23.0410 C   0  0  0  0  0  0  0  0  0  0  0  0
  -26.2410  -33.6610   21.9600 O   0  0  0  0  0  0  0  0  0  0  0  0
  -25.0870  -32.0270   24.3860 H   0  0  0  0  0  0  0  0  0  0  0  0
  -23.7550  -34.9800   23.3280 C   0  0  0  0  0  1  0  0  0  0  0  0
  -25.1210  -34.5560   23.8920 C   0  0  0  0  0  3  0  0  0  0  0  0
  -27.2210  -35.4950   24.7530 C   0  0  0  0  0  1  0  0  0  0  0  0
  -26.0110  -35.7360   23.9740 N   0  0  0  0  0  0  0  0  0  0  0  0
  -25.5230  -36.5280   24.3830 H   0  0  0  0  0  0  0  0  0  0  0  0
  1  6  1  0
  1 10  2  0
  2  6  1  0
  4  9  1  0
  5 19  1  0
  5  1  1  0
  6 49  1  0
  7  3  1  0
  7  2  1  0
  8  4  1  0
  8  5  1  0
  8  7  1  0
  9 53  1  0
  9  3  1  0
 11 17  1  0
 11 19  1  0
 12 17  1  0
 13 14  1  0
 13 12  1  0
 15 14  1  0
 15 24  1  0
 15 16  1  0
 17 16  1  0
 18 11  2  0
 19 20  1  0
 21 22  2  0
 22 41  1  0
 23 22  1  0
 23 26  1  0
 24 25  1  0
 24 21  1  0
 25 23  2  0
 26 27  1  0
 27 28  2  0
 29 32  1  0
 29 28  1  0
 30 29  2  0
 31 30  1  0
 31 26  2  0
 32 33  1  0
 33 38  2  0
 33 34  1  0
 34 35  2  0
 35 36  1  0
 36 40  1  0
 37 36  2  0
 38 37  1  0
 39 38  1  0
 41 42  1  0
 42 44  1  0
 42 45  1  0
 43 41  2  0
 46 21  1  0
 46 47  1  0
 48 46  1  0
 49 50  1  0
 49 52  1  0
 51 49  1  0
 53 54  2  0
 55 57  1  0
 55 54  1  0
 56 67  2  0
 57 62  1  0
 58 66  1  0
 58 68  1  0
 59 65  1  0
 59 61  1  0
 60 66  1  0
 61 60  1  0
 62 61  2  0
 63 64  1  0
 63 57  2  0
 64 59  2  0
 65 58  1  0
 66 56  1  0
 68 70  2  0
 69 68  1  0
 71 69  1  0
 72 81  2  0
 72 77  1  0
 73 69  1  0
 73 77  1  0
 74 73  1  0
 75 76  1  0
 75 74  1  0
 76 72  1  0
 77 78  2  0
 78 79  1  0
 80 79  2  0
 81 80  1  0
 82 56  1  0
 82 87  1  0
 82 83  1  0
 83 86  1  1
 83 84  1  0
 85 83  1  0
 87 90  1  0
 88 87  1  0
 88 92  1  0
 89 88  2  0
 92 91  1  0
 92 94  1  0
 94 95  1  0
 94 93  1  0
M  ISO  4  11 100  19 100  54 101  55 101
M  END
>  <TORSDO>  (46) 
F 19

>  <SCORE>  (46) 
-5.798

>  <name>  (46) 
45

>  <ligand_id>  (46) 
45

>  <original_smiles>  (46) 
[H]c1c([H])c([H])c2c(c1[H])C([H])([H])C([H])([H])C([H])([H])C2([H])N([H])C(=O)C1([H])N(C(=O)C([H])(N([H])C(=O)C([H])(N([H])C([H])([H])[H])C([H])([H])[H])C(C([H])([H])[H])(C([H])([H])[H])C([H])([H])[H])C([H])([H])c2c([H])c(OC([H])([H])C([H])([H])C3([H])C([H])([H])C4([H])C([H])(N([H])C(=O)N5C([H])([H])C([H])([H])C([H])([H])C([H])(n6nc(-c7c([H])c([H])c(Oc8c([H])c([H])c(F)c([H])c8F)c([H])c7[H])c(C(=O)N([H])[H])c6N([H])[H])C5([H])[H])C(=O)C([H])([N+]([H])([H])[H])C([H])([H])C4([H])C3([H])[H])c([H])c([H])c2C1([H])[H]

>  <smiles>  (46) 
[H]c1c([H])c([H])c2c(c1[H])C([H])([H])C([H])([H])C([H])([H])C2([H])N([H])C(=O)C1([H])N(C(=O)C([H])(N([H])C(=O)C([H])(N([H])C([H])([H])[H])C([H])([H])[H])C(C([H])([H])[H])(C([H])([H])[H])C([H])([H])[H])C([H])([H])c2c([H])c(OC([H])([H])C([H])([H])C3([H])C([H])([H])C4([H])C([H])(N([H])C(=O)N5C([H])([H])C([H])([H])C([H])([H])C([H])(n6nc(-c7c([H])c([H])c(Oc8c([H])c([H])c(F)c([H])c8F)c([H])c7[H])c(C(=O)N([H])[H])c6N([H])[H])C5([H])[H])C(=O)C([H])([N+]([H])([H])[H])C([H])([H])C4([H])C3([H])[H])c([H])c([H])c2C1([H])[H]

$$$$
46:0:0
     RDKit          3D

 92101  0  0  1  0  0  0  0  0999 V2000
  -29.6460  -19.7340   20.6920 N   0  0  0  0  0  4  0  0  0  0  0  0
  -30.3610  -19.7810   21.3990 H   0  0  0  0  0  0  0  0  0  0  0  0
  -28.7590  -19.6720   21.1670 H   0  0  0  0  0  0  0  0  0  0  0  0
  -29.8170  -18.4000   19.9630 C   0  0  0  0  0  2  0  0  0  0  0  0
  -30.6640  -18.2290   23.2910 C   0  0  0  0  0  2  0  0  0  0  0  0
  -32.0190  -17.3900   21.1730 C   0  0  0  0  0  2  0  0  0  0  0  0
  -31.6590  -17.3060   22.6370 C   0  0  0  0  0  3  0  0  0  0  0  0
  -30.1930  -17.2180   22.2650 C   0  0  0  0  0  3  0  0  0  0  0  0
  -30.5410  -17.2110   20.7740 C   0  0  1  0  0  0  0  0  0  0  0  0
  -30.9940  -14.6820   19.9820 C   0  0  0  0  0  0  0  0  0  0  0  0
  -30.6850  -12.4170   18.9820 C   0  0  0  0  0  2  0  0  0  0  0  0
  -29.7120  -12.5140   17.7870 C   0  0  0  0  0  2  0  0  0  0  0  0
  -28.2500  -12.3920   18.2640 C   0  0  0  0  0  2  0  0  0  0  0  0
  -27.9390  -13.3120   19.4750 C   0  0  0  0  0  3  0  0  0  0  0  0
  -29.0280  -13.1960   20.5660 C   0  0  0  0  0  2  0  0  0  0  0  0
  -30.3230  -13.4860   19.9320 N   0  0  0  0  0  0  0  0  0  0  0  0
  -32.1640  -14.7710   19.5990 O   0  0  0  0  0  0  0  0  0  0  0  0
  -30.2490  -15.7870   20.3190 N   0  0  0  0  0  0  0  0  0  0  0  0
  -29.2850  -15.5290   20.4630 H   0  0  0  0  0  0  0  0  0  0  0  0
  -25.5920  -13.9960   20.2720 C   0  0  0  0  0  0  0  0  0  0  0  0
  -24.5110  -13.2600   20.6790 C   0  0  0  0  0  0  0  0  0  0  0  0
  -24.9250  -11.8930   20.6340 C   0  0  0  0  0  0  0  0  0  0  0  0
  -26.5980  -13.0780   20.0050 N   0  0  0  0  0  0  0  0  0  0  0  0
  -26.2030  -11.8090   20.2850 N   0  0  0  0  0  0  0  0  0  0  0  0
  -24.1580  -10.6580   20.8470 C   0  0  0  0  0  0  0  0  0  0  0  0
  -24.5560   -9.6950   21.8010 C   0  0  0  0  0  3  0  0  0  0  0  0
  -23.7920   -8.5250   22.0000 C   0  0  0  0  0  3  0  0  0  0  0  0
  -22.6150   -8.3080   21.2450 C   0  0  0  0  0  0  0  0  0  0  0  0
  -22.2360   -9.2570   20.2790 C   0  0  0  0  0  3  0  0  0  0  0  0
  -23.0020  -10.4180   20.0790 C   0  0  0  0  0  3  0  0  0  0  0  0
  -21.8260   -7.1880   21.3520 O   0  0  0  0  0  0  0  0  0  0  0  0
  -21.7120   -6.4980   22.5320 C   0  0  0  0  0  0  0  0  0  0  0  0
  -21.2530   -7.1160   23.7160 C   0  0  0  0  0  3  0  0  0  0  0  0
  -21.0850   -6.3530   24.8890 C   0  0  0  0  0  3  0  0  0  0  0  0
  -21.3670   -4.9750   24.8810 C   0  0  0  0  0  0  0  0  0  0  0  0
  -21.8180   -4.3560   23.7020 C   0  0  0  0  0  3  0  0  0  0  0  0
  -21.9880   -5.1150   22.5310 C   0  0  0  0  0  0  0  0  0  0  0  0
  -22.4040   -4.5110   21.3920 F   0  0  0  0  0  0  0  0  0  0  0  0
  -21.1980   -4.2400   26.0040 F   0  0  0  0  0  0  0  0  0  0  0  0
  -23.1400  -13.7870   20.9920 C   0  0  0  0  0  0  0  0  0  0  0  0
  -22.4210  -13.1290   21.8950 N   0  0  0  0  0  0  0  0  0  0  0  0
  -22.7150  -14.8160   20.4680 O   0  0  0  0  0  0  0  0  0  0  0  0
  -22.7740  -12.2940   22.3400 H   0  0  0  0  0  0  0  0  0  0  0  0
  -21.5020  -13.4650   22.1480 H   0  0  0  0  0  0  0  0  0  0  0  0
  -25.7980  -15.3590   20.0810 N   0  0  0  0  0  0  0  0  0  0  0  0
  -25.0490  -16.0340   20.1910 H   0  0  0  0  0  0  0  0  0  0  0  0
  -26.6300  -15.7610   19.6680 H   0  0  0  0  0  0  0  0  0  0  0  0
  -29.6870  -21.0710   19.9560 C   0  0  0  0  0  2  0  0  0  0  0  0
  -28.9500  -22.3180   20.6620 C   0  0  0  0  0  2  0  0  0  0  0  0
  -29.3440  -23.8460   20.3360 C   0  0  0  0  0  3  0  0  0  0  0  0
  -28.2090  -24.9620   20.5290 C   0  0  0  0  0  3  0  0  0  0  0  0
  -28.4650  -26.4280   20.3680 O   0  0  0  0  0  0  0  0  0  0  0  0
  -24.6830  -31.9380   23.2020 C   0  0  0  0  0  0  0  0  0  0  0  0
  -27.3490  -27.2910   20.3040 C   0  0  0  0  0  0  0  0  0  0  0  0
  -23.5050  -30.4810   21.5980 C   0  0  0  0  0  3  0  0  0  0  0  0
  -24.9770  -28.9060   20.2300 C   0  0  0  0  0  0  0  0  0  0  0  0
  -26.0480  -30.8100   21.4280 C   0  0  0  0  0  2  0  0  0  0  0  0
  -26.1430  -29.4120   20.8210 C   0  0  0  0  0  0  0  0  0  0  0  0
  -27.3330  -28.6190   20.8430 C   0  0  0  0  0  3  0  0  0  0  0  0
  -26.1560  -26.8500   19.6850 C   0  0  0  0  0  3  0  0  0  0  0  0
  -24.9880  -27.6310   19.6510 C   0  0  0  0  0  3  0  0  0  0  0  0
  -23.7350  -29.7720   20.2400 C   0  0  0  0  0  2  0  0  0  0  0  0
  -24.7640  -31.0960   22.1320 N   0  0  0  0  0  0  0  0  0  0  0  0
  -23.5930  -32.2230   23.7180 O   0  0  0  0  0  0  0  0  0  0  0  0
  -22.8420  -29.4880   22.5820 C   0  0  0  0  0  0  0  0  0  0  0  0
  -21.5210  -29.2780   22.4360 N   0  0  0  0  0  0  0  0  0  0  0  0
  -23.5150  -28.9050   23.4370 O   0  0  0  0  0  0  0  0  0  0  0  0
  -21.0380  -29.8030   21.7190 H   0  0  0  0  0  0  0  0  0  0  0  0
  -18.1680  -28.0050   22.8910 C   0  0  0  0  0  0  0  0  0  0  0  0
  -20.7080  -28.3520   23.2240 C   0  0  0  0  0  3  0  0  0  0  0  0
  -20.8660  -26.8980   22.7220 C   0  0  0  0  0  2  0  0  0  0  0  0
  -19.8070  -26.4950   21.6910 C   0  0  0  0  0  2  0  0  0  0  0  0
  -18.4030  -26.6320   22.2840 C   0  0  0  0  0  2  0  0  0  0  0  0
  -19.2510  -28.8180   23.3180 C   0  0  0  0  0  0  0  0  0  0  0  0
  -18.9780  -30.1000   23.8410 C   0  0  0  0  0  3  0  0  0  0  0  0
  -17.6550  -30.5700   23.9460 C   0  0  0  0  0  3  0  0  0  0  0  0
  -16.5860  -29.7540   23.5350 C   0  0  0  0  0  3  0  0  0  0  0  0
  -16.8430  -28.4740   23.0130 C   0  0  0  0  0  3  0  0  0  0  0  0
  -25.9560  -32.6000   23.8160 C   0  0  0  0  0  3  0  0  0  0  0  0
  -25.6110  -33.9880   24.1560 N   0  0  0  0  0  0  0  0  0  0  0  0
  -25.9160  -35.0550   23.4060 C   0  0  0  0  0  0  0  0  0  0  0  0
  -26.5870  -34.9760   22.3730 O   0  0  0  0  0  0  0  0  0  0  0  0
  -25.0120  -34.1230   24.9580 H   0  0  0  0  0  0  0  0  0  0  0  0
  -24.1460  -36.8110   23.0670 C   0  0  0  0  0  1  0  0  0  0  0  0
  -25.3960  -36.4280   23.8750 C   0  0  0  0  0  3  0  0  0  0  0  0
  -27.5110  -37.3540   24.7120 C   0  0  0  0  0  1  0  0  0  0  0  0
  -26.4040  -37.5050   23.7710 N   0  0  0  0  0  0  0  0  0  0  0  0
  -25.9780  -38.4150   23.9270 H   0  0  0  0  0  0  0  0  0  0  0  0
  -26.5020  -31.8380   25.0840 C   0  0  1  0  0  0  0  0  0  0  0  0
  -25.4170  -31.5470   26.1490 C   0  0  0  0  0  1  0  0  0  0  0  0
  -27.1400  -30.4880   24.6830 C   0  0  0  0  0  1  0  0  0  0  0  0
  -27.6200  -32.6710   25.7560 C   0  0  0  0  0  1  0  0  0  0  0  0
  1  3  1  0
  1  2  1  0
  4  1  1  0
  7  6  1  0
  7  5  1  0
  8  7  1  0
  8  5  1  0
  9  4  1  6
  9  6  1  0
  9  8  1  0
 10 18  1  0
 11 16  1  0
 12 13  1  0
 12 11  1  0
 14 13  1  0
 14 23  1  0
 14 15  1  0
 16 10  1  0
 16 15  1  0
 17 10  2  0
 18 19  1  0
 18  9  1  0
 20 21  2  0
 21 40  1  0
 22 21  1  0
 22 25  1  0
 23 20  1  0
 23 24  1  0
 24 22  2  0
 25 26  1  0
 26 27  2  0
 28 31  1  0
 28 27  1  0
 29 28  2  0
 30 29  1  0
 30 25  2  0
 31 32  1  0
 32 33  1  0
 33 34  2  0
 35 34  1  0
 35 39  1  0
 36 35  2  0
 37 32  2  0
 37 36  1  0
 38 37  1  0
 40 41  1  0
 41 44  1  0
 41 43  1  0
 42 40  2  0
 45 46  1  0
 45 20  1  0
 47 45  1  0
 48 49  1  0
 48  1  1  0
 50 51  2  0
 50 49  1  0
 52 51  1  0
 53 64  2  0
 54 52  1  0
 54 59  1  0
 55 63  1  0
 55 65  1  0
 56 62  1  0
 56 58  1  0
 57 63  1  0
 58 59  2  0
 58 57  1  0
 60 54  2  0
 61 60  1  0
 61 56  2  0
 62 55  1  0
 63 53  1  0
 65 67  2  0
 66 65  1  0
 68 66  1  0
 69 78  2  0
 69 74  1  0
 70 66  1  0
 70 74  1  0
 71 70  1  0
 72 73  1  0
 72 71  1  0
 73 69  1  0
 74 75  2  0
 75 76  1  0
 77 76  2  0
 78 77  1  0
 79 53  1  0
 79 80  1  0
 79 89  1  0
 80 83  1  0
 81 85  1  0
 81 80  1  0
 82 81  2  0
 85 84  1  0
 87 85  1  0
 87 88  1  0
 87 86  1  0
 89 92  1  1
 89 90  1  0
 91 89  1  0
M  ISO  4  10 100  18 100  51 101  52 101
M  END
>  <TORSDO>  (47) 
F 22

>  <SCORE>  (47) 
-11.483

>  <name>  (47) 
46

>  <ligand_id>  (47) 
46

>  <original_smiles>  (47) 
[H]c1c([H])c([H])c2c(c1[H])C([H])([H])C([H])([H])C([H])([H])C2([H])N([H])C(=O)C1([H])N(C(=O)C([H])(N([H])C(=O)C([H])(N([H])C([H])([H])[H])C([H])([H])[H])C(C([H])([H])[H])(C([H])([H])[H])C([H])([H])[H])C([H])([H])c2c([H])c(OC([H])([H])C([H])([H])C([H])([H])C([H])([H])[N+]([H])([H])C([H])([H])C3(N([H])C(=O)N4C([H])([H])C([H])([H])C([H])([H])C([H])(n5nc(-c6c([H])c([H])c(Oc7c([H])c([H])c(F)c([H])c7F)c([H])c6[H])c(C(=O)N([H])[H])c5N([H])[H])C4([H])[H])C([H])([H])C4([H])C([H])([H])C43[H])c([H])c([H])c2C1([H])[H]

>  <smiles>  (47) 
[H]c1c([H])c([H])c2c(c1[H])C([H])([H])C([H])([H])C([H])([H])C2([H])N([H])C(=O)C1([H])N(C(=O)C([H])(N([H])C(=O)C([H])(N([H])C([H])([H])[H])C([H])([H])[H])C(C([H])([H])[H])(C([H])([H])[H])C([H])([H])[H])C([H])([H])c2c([H])c(OC([H])([H])C([H])([H])C([H])([H])C([H])([H])[N+]([H])([H])C([H])([H])C3(N([H])C(=O)N4C([H])([H])C([H])([H])C([H])([H])C([H])(n5nc(-c6c([H])c([H])c(Oc7c([H])c([H])c(F)c([H])c7F)c([H])c6[H])c(C(=O)N([H])[H])c5N([H])[H])C4([H])[H])C([H])([H])C4([H])C([H])([H])C43[H])c([H])c([H])c2C1([H])[H]

$$$$
47:0:0
     RDKit          3D

 91 98  0  0  1  0  0  0  0  0999 V2000
  -29.2930  -23.2190   18.8990 N   0  0  0  0  0  4  0  0  0  0  0  0
  -28.3720  -23.5490   18.6550 H   0  0  0  0  0  0  0  0  0  0  0  0
  -29.8120  -23.1070   18.0430 H   0  0  0  0  0  0  0  0  0  0  0  0
  -29.9950  -24.2140   19.7460 C   0  0  0  0  0  2  0  0  0  0  0  0
  -30.2190  -25.5760   19.0540 C   0  0  0  0  0  2  0  0  0  0  0  0
  -28.9430  -26.4040   18.8410 C   0  0  0  0  0  2  0  0  0  0  0  0
  -28.4360  -26.7870   20.1110 O   0  0  0  0  0  0  0  0  0  0  0  0
  -24.6250  -31.8930   23.2160 C   0  0  0  0  0  0  0  0  0  0  0  0
  -27.2570  -27.4880   20.1040 C   0  0  0  0  0  0  0  0  0  0  0  0
  -23.4020  -30.4880   21.5870 C   0  0  0  0  0  3  0  0  0  0  0  0
  -24.8450  -28.9510   20.1500 C   0  0  0  0  0  0  0  0  0  0  0  0
  -25.9190  -30.8570   21.3600 C   0  0  0  0  0  2  0  0  0  0  0  0
  -26.0030  -29.4850   20.7280 C   0  0  0  0  0  0  0  0  0  0  0  0
  -27.2070  -28.7550   20.7180 C   0  0  0  0  0  3  0  0  0  0  0  0
  -26.0850  -26.9510   19.5260 C   0  0  0  0  0  3  0  0  0  0  0  0
  -24.8800  -27.6780   19.5480 C   0  0  0  0  0  3  0  0  0  0  0  0
  -23.5970  -29.8030   20.2060 C   0  0  0  0  0  2  0  0  0  0  0  0
  -24.6680  -31.0920   22.1140 N   0  0  0  0  0  0  0  0  0  0  0  0
  -23.5500  -32.1640   23.7690 O   0  0  0  0  0  0  0  0  0  0  0  0
  -22.7650  -29.4650   22.5560 C   0  0  0  0  0  0  0  0  0  0  0  0
  -21.4400  -29.2820   22.4420 N   0  0  0  0  0  0  0  0  0  0  0  0
  -23.4580  -28.8430   23.3630 O   0  0  0  0  0  0  0  0  0  0  0  0
  -20.9410  -29.8400   21.7620 H   0  0  0  0  0  0  0  0  0  0  0  0
  -18.0730  -28.0870   22.9630 C   0  0  0  0  0  0  0  0  0  0  0  0
  -20.6310  -28.3470   23.2220 C   0  0  0  0  0  3  0  0  0  0  0  0
  -20.7320  -26.9150   22.6520 C   0  0  0  0  0  2  0  0  0  0  0  0
  -19.6270  -26.5850   21.6440 C   0  0  0  0  0  2  0  0  0  0  0  0
  -18.2470  -26.7350   22.2950 C   0  0  0  0  0  2  0  0  0  0  0  0
  -19.1920  -28.8520   23.3850 C   0  0  0  0  0  0  0  0  0  0  0  0
  -18.9770  -30.1190   23.9680 C   0  0  0  0  0  3  0  0  0  0  0  0
  -17.6720  -30.6210   24.1370 C   0  0  0  0  0  3  0  0  0  0  0  0
  -16.5660  -29.8540   23.7330 C   0  0  0  0  0  3  0  0  0  0  0  0
  -16.7680  -28.5890   23.1510 C   0  0  0  0  0  3  0  0  0  0  0  0
  -25.9210  -32.5250   23.8190 C   0  0  0  0  0  3  0  0  0  0  0  0
  -26.4640  -31.7450   25.0770 C   0  0  1  0  0  0  0  0  0  0  0  0
  -25.3930  -31.4930   26.1630 C   0  0  0  0  0  1  0  0  0  0  0  0
  -27.0460  -30.3770   24.6560 C   0  0  0  0  0  1  0  0  0  0  0  0
  -27.6230  -32.5380   25.7270 C   0  0  0  0  0  1  0  0  0  0  0  0
  -25.6130  -33.9190   24.1650 N   0  0  0  0  0  0  0  0  0  0  0  0
  -25.9310  -34.9780   23.4090 C   0  0  0  0  0  0  0  0  0  0  0  0
  -26.5870  -34.8850   22.3680 O   0  0  0  0  0  0  0  0  0  0  0  0
  -25.0340  -34.0640   24.9790 H   0  0  0  0  0  0  0  0  0  0  0  0
  -24.1920  -36.7620   23.0880 C   0  0  0  0  0  1  0  0  0  0  0  0
  -25.4440  -36.3600   23.8840 C   0  0  0  0  0  3  0  0  0  0  0  0
  -27.5850  -37.2430   24.6940 C   0  0  0  0  0  1  0  0  0  0  0  0
  -26.4700  -37.4170   23.7690 N   0  0  0  0  0  0  0  0  0  0  0  0
  -26.0610  -38.3320   23.9340 H   0  0  0  0  0  0  0  0  0  0  0  0
  -29.1370  -21.8940   19.5400 C   0  0  0  0  0  2  0  0  0  0  0  0
  -29.0290  -20.7510   18.5110 C   0  0  0  0  0  2  0  0  0  0  0  0
  -28.5430  -19.4130   19.1030 C   0  0  0  0  0  2  0  0  0  0  0  0
  -29.3500  -18.8880   20.3110 C   0  0  0  0  0  2  0  0  0  0  0  0
  -29.4840  -17.3610   20.2740 C   0  0  0  0  0  2  0  0  0  0  0  0
  -30.1560  -16.7300   21.5090 C   0  0  0  0  0  2  0  0  0  0  0  0
  -30.6550  -14.4230   20.6340 C   0  0  0  0  0  0  0  0  0  0  0  0
  -30.3780  -12.3350   19.3480 C   0  0  0  0  0  2  0  0  0  0  0  0
  -29.4290  -12.5730   18.1540 C   0  0  0  0  0  2  0  0  0  0  0  0
  -27.9490  -12.4260   18.5630 C   0  0  0  0  0  2  0  0  0  0  0  0
  -27.6170  -13.2160   19.8560 C   0  0  0  0  0  3  0  0  0  0  0  0
  -28.6580  -12.9210   20.9600 C   0  0  0  0  0  2  0  0  0  0  0  0
  -29.9940  -13.2510   20.4290 N   0  0  0  0  0  0  0  0  0  0  0  0
  -31.7070  -14.7200   20.0570 O   0  0  0  0  0  0  0  0  0  0  0  0
  -30.0150  -15.2750   21.4500 N   0  0  0  0  0  0  0  0  0  0  0  0
  -29.2150  -14.8960   21.9370 H   0  0  0  0  0  0  0  0  0  0  0  0
  -25.2090  -13.8410   20.5150 C   0  0  0  0  0  0  0  0  0  0  0  0
  -24.1350  -13.0770   20.8790 C   0  0  0  0  0  0  0  0  0  0  0  0
  -24.5900  -11.7230   20.8690 C   0  0  0  0  0  0  0  0  0  0  0  0
  -26.2530  -12.9530   20.3120 N   0  0  0  0  0  0  0  0  0  0  0  0
  -25.8820  -11.6740   20.5760 N   0  0  0  0  0  0  0  0  0  0  0  0
  -23.8590  -10.4640   21.0630 C   0  0  0  0  0  0  0  0  0  0  0  0
  -24.3030   -9.4900   21.9840 C   0  0  0  0  0  3  0  0  0  0  0  0
  -23.5740   -8.2960   22.1680 C   0  0  0  0  0  3  0  0  0  0  0  0
  -22.3880   -8.0710   21.4250 C   0  0  0  0  0  0  0  0  0  0  0  0
  -21.9650   -9.0320   20.4910 C   0  0  0  0  0  3  0  0  0  0  0  0
  -22.6950  -10.2190   20.3080 C   0  0  0  0  0  3  0  0  0  0  0  0
  -21.6240   -6.9320   21.5170 O   0  0  0  0  0  0  0  0  0  0  0  0
  -21.6030   -6.1680   22.6570 C   0  0  0  0  0  0  0  0  0  0  0  0
  -21.2350   -6.7050   23.9100 C   0  0  0  0  0  3  0  0  0  0  0  0
  -21.1680   -5.8680   25.0400 C   0  0  0  0  0  3  0  0  0  0  0  0
  -21.4510   -4.4930   24.9170 C   0  0  0  0  0  0  0  0  0  0  0  0
  -21.8150   -3.9550   23.6710 C   0  0  0  0  0  3  0  0  0  0  0  0
  -21.8870   -4.7900   22.5430 C   0  0  0  0  0  0  0  0  0  0  0  0
  -22.2130   -4.2640   21.3380 F   0  0  0  0  0  0  0  0  0  0  0  0
  -21.3750   -3.6890   26.0020 F   0  0  0  0  0  0  0  0  0  0  0  0
  -22.7400  -13.5590   21.1400 C   0  0  0  0  0  0  0  0  0  0  0  0
  -22.0050  -12.8720   22.0100 N   0  0  0  0  0  0  0  0  0  0  0  0
  -22.3090  -14.5810   20.6080 O   0  0  0  0  0  0  0  0  0  0  0  0
  -22.3640  -12.0460   22.4630 H   0  0  0  0  0  0  0  0  0  0  0  0
  -21.0680  -13.1790   22.2220 H   0  0  0  0  0  0  0  0  0  0  0  0
  -25.3790  -15.2110   20.3290 N   0  0  0  0  0  0  0  0  0  0  0  0
  -24.6080  -15.8650   20.4190 H   0  0  0  0  0  0  0  0  0  0  0  0
  -26.2420  -15.6570   20.0480 H   0  0  0  0  0  0  0  0  0  0  0  0
  1 48  1  0
  1  4  1  0
  2  1  1  0
  3  1  1  0
  5  4  1  0
  6  5  1  0
  6  7  1  0
  8 19  2  0
  9  7  1  0
  9 14  1  0
 10 18  1  0
 10 20  1  0
 11 17  1  0
 11 13  1  0
 12 18  1  0
 13 12  1  0
 14 13  2  0
 15 16  1  0
 15  9  2  0
 16 11  2  0
 17 10  1  0
 18  8  1  0
 20 22  2  0
 21 20  1  0
 23 21  1  0
 24 33  2  0
 24 29  1  0
 25 21  1  0
 25 29  1  0
 26 25  1  0
 27 28  1  0
 27 26  1  0
 28 24  1  0
 29 30  2  0
 30 31  1  0
 32 31  2  0
 33 32  1  0
 34  8  1  0
 34 39  1  0
 34 35  1  0
 35 38  1  1
 35 36  1  0
 37 35  1  0
 39 42  1  0
 40 44  1  0
 40 39  1  0
 41 40  2  0
 44 43  1  0
 46 44  1  0
 46 47  1  0
 46 45  1  0
 49 50  1  0
 49 48  1  0
 50 51  1  0
 52 51  1  0
 52 53  1  0
 54 62  1  0
 55 60  1  0
 56 57  1  0
 56 55  1  0
 58 57  1  0
 58 67  1  0
 58 59  1  0
 60 54  1  0
 60 59  1  0
 61 54  2  0
 62 53  1  0
 62 63  1  0
 64 65  2  0
 65 84  1  0
 66 65  1  0
 66 69  1  0
 67 64  1  0
 67 68  1  0
 68 66  2  0
 69 70  1  0
 70 71  2  0
 72 75  1  0
 72 71  1  0
 73 72  2  0
 74 73  1  0
 74 69  2  0
 75 76  1  0
 76 77  1  0
 77 78  2  0
 79 78  1  0
 79 83  1  0
 80 79  2  0
 81 76  2  0
 81 80  1  0
 82 81  1  0
 84 85  1  0
 85 88  1  0
 85 87  1  0
 86 84  2  0
 89 90  1  0
 89 64  1  0
 91 89  1  0
M  ISO  4   6 101   7 101  54 100  62 100
M  END
>  <TORSDO>  (48) 
F 25

>  <SCORE>  (48) 
-12.077

>  <name>  (48) 
47

>  <ligand_id>  (48) 
47

>  <original_smiles>  (48) 
[H]c1c([H])c([H])c2c(c1[H])C([H])([H])C([H])([H])C([H])([H])C2([H])N([H])C(=O)C1([H])N(C(=O)C([H])(N([H])C(=O)C([H])(N([H])C([H])([H])[H])C([H])([H])[H])C(C([H])([H])[H])(C([H])([H])[H])C([H])([H])[H])C([H])([H])c2c([H])c(OC([H])([H])C([H])([H])C([H])([H])[N+]([H])([H])C([H])([H])C([H])([H])C([H])([H])C([H])([H])C([H])([H])C([H])([H])N([H])C(=O)N3C([H])([H])C([H])([H])C([H])([H])C([H])(n4nc(-c5c([H])c([H])c(Oc6c([H])c([H])c(F)c([H])c6F)c([H])c5[H])c(C(=O)N([H])[H])c4N([H])[H])C3([H])[H])c([H])c([H])c2C1([H])[H]

>  <smiles>  (48) 
[H]c1c([H])c([H])c2c(c1[H])C([H])([H])C([H])([H])C([H])([H])C2([H])N([H])C(=O)C1([H])N(C(=O)C([H])(N([H])C(=O)C([H])(N([H])C([H])([H])[H])C([H])([H])[H])C(C([H])([H])[H])(C([H])([H])[H])C([H])([H])[H])C([H])([H])c2c([H])c(OC([H])([H])C([H])([H])C([H])([H])[N+]([H])([H])C([H])([H])C([H])([H])C([H])([H])C([H])([H])C([H])([H])C([H])([H])N([H])C(=O)N3C([H])([H])C([H])([H])C([H])([H])C([H])(n4nc(-c5c([H])c([H])c(Oc6c([H])c([H])c(F)c([H])c6F)c([H])c5[H])c(C(=O)N([H])[H])c4N([H])[H])C3([H])[H])c([H])c([H])c2C1([H])[H]

$$$$
48:0:0
     RDKit          3D

 96104  0  0  1  0  0  0  0  0999 V2000
  -29.6070  -23.9630   20.1970 C   0  0  0  0  0  2  0  0  0  0  0  0
  -29.0220  -25.2500   21.0050 C   0  0  1  0  0  0  0  0  0  0  0  0
  -26.7730  -24.6220   19.8550 C   0  0  0  0  0  1  0  0  0  0  0  0
  -27.4770  -25.1890   21.1090 C   0  0  0  0  0  2  0  0  0  0  0  0
  -29.2450  -24.4880   23.6240 C   0  0  0  0  0  1  0  0  0  0  0  0
  -29.6820  -25.3630   22.4340 C   0  0  0  0  0  2  0  0  0  0  0  0
  -29.4230  -26.6940   20.3690 C   0  0  0  0  0  2  0  0  0  0  0  0
  -28.7210  -27.3900   19.2960 O   0  0  0  0  0  0  0  0  0  0  0  0
  -24.5760  -31.8450   23.2560 C   0  0  0  0  0  0  0  0  0  0  0  0
  -27.5510  -28.1080   19.5300 C   0  0  0  0  0  0  0  0  0  0  0  0
  -23.4680  -30.5270   21.4890 C   0  0  0  0  0  3  0  0  0  0  0  0
  -25.0200  -29.3770   19.8220 C   0  0  0  0  0  0  0  0  0  0  0  0
  -25.9370  -31.1800   21.2720 C   0  0  0  0  0  2  0  0  0  0  0  0
  -26.1480  -29.9140   20.4610 C   0  0  0  0  0  0  0  0  0  0  0  0
  -27.4180  -29.2760   20.3350 C   0  0  0  0  0  3  0  0  0  0  0  0
  -26.4130  -27.6680   18.8270 C   0  0  0  0  0  3  0  0  0  0  0  0
  -25.1500  -28.2510   19.0030 C   0  0  0  0  0  3  0  0  0  0  0  0
  -23.6910  -30.0730   20.0240 C   0  0  0  0  0  2  0  0  0  0  0  0
  -24.6790  -31.1970   22.0620 N   0  0  0  0  0  0  0  0  0  0  0  0
  -23.4960  -31.9160   23.8600 O   0  0  0  0  0  0  0  0  0  0  0  0
  -22.9840  -29.3170   22.3220 C   0  0  0  0  0  0  0  0  0  0  0  0
  -21.7090  -28.9320   22.1460 N   0  0  0  0  0  0  0  0  0  0  0  0
  -23.7540  -28.7320   23.0890 O   0  0  0  0  0  0  0  0  0  0  0  0
  -21.1380  -29.4670   21.5060 H   0  0  0  0  0  0  0  0  0  0  0  0
  -18.6080  -27.0850   22.3670 C   0  0  0  0  0  0  0  0  0  0  0  0
  -21.0550  -27.7990   22.8000 C   0  0  0  0  0  3  0  0  0  0  0  0
  -21.4550  -26.4630   22.1330 C   0  0  0  0  0  2  0  0  0  0  0  0
  -20.4800  -26.0190   21.0370 C   0  0  0  0  0  2  0  0  0  0  0  0
  -19.0700  -25.8500   21.6100 C   0  0  0  0  0  2  0  0  0  0  0  0
  -19.5400  -28.0080   22.9120 C   0  0  0  0  0  0  0  0  0  0  0  0
  -19.0580  -29.1560   23.5760 C   0  0  0  0  0  3  0  0  0  0  0  0
  -17.6750  -29.3890   23.7010 C   0  0  0  0  0  3  0  0  0  0  0  0
  -16.7570  -28.4650   23.1730 C   0  0  0  0  0  3  0  0  0  0  0  0
  -17.2240  -27.3140   22.5120 C   0  0  0  0  0  3  0  0  0  0  0  0
  -25.8060  -32.5480   23.9090 C   0  0  0  0  0  3  0  0  0  0  0  0
  -26.3450  -31.7940   25.1860 C   0  0  1  0  0  0  0  0  0  0  0  0
  -25.2480  -31.4770   26.2280 C   0  0  0  0  0  1  0  0  0  0  0  0
  -27.0220  -30.4610   24.7940 C   0  0  0  0  0  1  0  0  0  0  0  0
  -27.4320  -32.6520   25.8790 C   0  0  0  0  0  1  0  0  0  0  0  0
  -25.4050  -33.9200   24.2450 N   0  0  0  0  0  0  0  0  0  0  0  0
  -25.6980  -35.0010   23.5090 C   0  0  0  0  0  0  0  0  0  0  0  0
  -26.4080  -34.9500   22.5000 O   0  0  0  0  0  0  0  0  0  0  0  0
  -24.7760  -34.0290   25.0270 H   0  0  0  0  0  0  0  0  0  0  0  0
  -23.8820  -36.6940   23.1130 C   0  0  0  0  0  1  0  0  0  0  0  0
  -25.1150  -36.3510   23.9640 C   0  0  0  0  0  3  0  0  0  0  0  0
  -27.1630  -37.3440   24.8840 C   0  0  0  0  0  1  0  0  0  0  0  0
  -26.0870  -37.4640   23.9040 N   0  0  0  0  0  0  0  0  0  0  0  0
  -25.6230  -38.3570   24.0500 H   0  0  0  0  0  0  0  0  0  0  0  0
  -29.1370  -22.4270   20.3830 C   0  0  0  0  0  3  0  0  0  0  0  0
  -26.5510  -19.8790   18.9720 C   0  0  0  0  0  2  0  0  0  0  0  0
  -26.0960  -21.1160   18.2030 C   0  0  0  0  0  2  0  0  0  0  0  0
  -27.6290  -20.3760   19.9340 C   0  0  0  0  0  2  0  0  0  0  0  0
  -26.8950  -22.2870   18.7840 C   0  0  0  0  0  2  0  0  0  0  0  0
  -28.1990  -21.6890   19.3410 C   0  0  0  0  0  3  0  0  0  0  0  0
  -30.3250  -21.4150   20.7530 C   0  0  0  0  0  3  0  0  0  0  0  0
  -30.7510  -20.2580   19.7560 C   0  0  0  0  0  3  0  0  0  0  0  0
  -31.7920  -19.1650   20.2160 C   0  0  0  0  0  2  0  0  0  0  0  0
  -31.4360  -18.2150   21.4180 C   0  0  0  0  0  2  0  0  0  0  0  0
  -31.8370  -15.7490   20.7500 C   0  0  0  0  0  0  0  0  0  0  0  0
  -31.6920  -13.4730   19.7670 C   0  0  0  0  0  2  0  0  0  0  0  0
  -30.8340  -13.5170   18.4860 C   0  0  0  0  0  2  0  0  0  0  0  0
  -29.3350  -13.3700   18.8200 C   0  0  0  0  0  2  0  0  0  0  0  0
  -28.8840  -14.3100   19.9700 C   0  0  0  0  0  3  0  0  0  0  0  0
  -29.8600  -14.2290   21.1660 C   0  0  0  0  0  2  0  0  0  0  0  0
  -31.2080  -14.5390   20.6620 N   0  0  0  0  0  0  0  0  0  0  0  0
  -33.0120  -15.9060   20.4070 O   0  0  0  0  0  0  0  0  0  0  0  0
  -31.0570  -16.8050   21.1050 N   0  0  0  0  0  0  0  0  0  0  0  0
  -30.0950  -16.5630   21.2930 H   0  0  0  0  0  0  0  0  0  0  0  0
  -26.4720  -14.9450   20.5900 C   0  0  0  0  0  0  0  0  0  0  0  0
  -25.3690  -14.1850   20.8730 C   0  0  0  0  0  0  0  0  0  0  0  0
  -25.7990  -12.8250   20.8070 C   0  0  0  0  0  0  0  0  0  0  0  0
  -27.5060  -14.0470   20.3730 N   0  0  0  0  0  0  0  0  0  0  0  0
  -27.1020  -12.7650   20.5620 N   0  0  0  0  0  0  0  0  0  0  0  0
  -25.0330  -11.5740   20.9060 C   0  0  0  0  0  0  0  0  0  0  0  0
  -25.3620  -10.5810   21.8550 C   0  0  0  0  0  3  0  0  0  0  0  0
  -24.6010   -9.3970   21.9430 C   0  0  0  0  0  3  0  0  0  0  0  0
  -23.4970   -9.1960   21.0810 C   0  0  0  0  0  0  0  0  0  0  0  0
  -23.1880  -10.1780   20.1230 C   0  0  0  0  0  3  0  0  0  0  0  0
  -23.9500  -11.3540   20.0330 C   0  0  0  0  0  3  0  0  0  0  0  0
  -22.7160   -8.0650   21.0780 O   0  0  0  0  0  0  0  0  0  0  0  0
  -22.4620   -7.3620   22.2280 C   0  0  0  0  0  0  0  0  0  0  0  0
  -21.8400   -7.9610   23.3450 C   0  0  0  0  0  3  0  0  0  0  0  0
  -21.5350   -7.1850   24.4820 C   0  0  0  0  0  3  0  0  0  0  0  0
  -21.8410   -5.8100   24.4990 C   0  0  0  0  0  0  0  0  0  0  0  0
  -22.4560   -5.2110   23.3850 C   0  0  0  0  0  3  0  0  0  0  0  0
  -22.7620   -5.9850   22.2520 C   0  0  0  0  0  0  0  0  0  0  0  0
  -23.3350   -5.3980   21.1730 F   0  0  0  0  0  0  0  0  0  0  0  0
  -21.5410   -5.0630   25.5860 F   0  0  0  0  0  0  0  0  0  0  0  0
  -23.9710  -14.6870   21.0960 C   0  0  0  0  0  0  0  0  0  0  0  0
  -23.1860  -13.9770   21.9000 N   0  0  0  0  0  0  0  0  0  0  0  0
  -23.5820  -15.7400   20.5940 O   0  0  0  0  0  0  0  0  0  0  0  0
  -23.5120  -13.1230   22.3260 H   0  0  0  0  0  0  0  0  0  0  0  0
  -22.2450  -14.2930   22.0890 H   0  0  0  0  0  0  0  0  0  0  0  0
  -26.6780  -16.3160   20.4780 N   0  0  0  0  0  0  0  0  0  0  0  0
  -25.9200  -16.9840   20.5710 H   0  0  0  0  0  0  0  0  0  0  0  0
  -27.5490  -16.7450   20.1950 H   0  0  0  0  0  0  0  0  0  0  0  0
  2  1  1  6
  2  4  1  0
  2  6  1  0
  3  4  1  0
  6  5  1  0
  7  2  1  0
  8 10  1  0
  8  7  1  0
  9 20  2  0
 10 15  1  0
 11 19  1  0
 11 21  1  0
 12 18  1  0
 12 14  1  0
 13 19  1  0
 14 13  1  0
 15 14  2  0
 16 17  1  0
 16 10  2  0
 17 12  2  0
 18 11  1  0
 19  9  1  0
 21 23  2  0
 22 21  1  0
 24 22  1  0
 25 34  2  0
 25 30  1  0
 26 22  1  0
 26 30  1  0
 27 26  1  0
 28 29  1  0
 28 27  1  0
 29 25  1  0
 30 31  2  0
 31 32  1  0
 33 32  2  0
 34 33  1  0
 35  9  1  0
 35 40  1  0
 35 36  1  0
 36 39  1  1
 36 37  1  0
 38 36  1  0
 40 43  1  0
 41 45  1  0
 41 40  1  0
 42 41  2  0
 45 44  1  0
 47 45  1  0
 47 48  1  0
 47 46  1  0
 49  1  1  0
 49 55  1  0
 50 52  1  0
 51 53  1  0
 51 50  1  0
 53 54  1  0
 54 52  1  0
 54 49  1  0
 56 57  1  0
 56 55  2  0
 57 58  1  0
 59 67  1  0
 60 65  1  0
 61 62  1  0
 61 60  1  0
 63 62  1  0
 63 72  1  0
 63 64  1  0
 65 59  1  0
 65 64  1  0
 66 59  2  0
 67 68  1  0
 67 58  1  0
 69 70  2  0
 70 89  1  0
 71 70  1  0
 71 74  1  0
 72 73  1  0
 72 69  1  0
 73 71  2  0
 74 75  1  0
 75 76  2  0
 77 76  1  0
 78 77  2  0
 79 78  1  0
 79 74  2  0
 80 77  1  0
 80 81  1  0
 81 86  2  0
 81 82  1  0
 82 83  2  0
 83 84  1  0
 84 88  1  0
 85 84  2  0
 86 85  1  0
 87 86  1  0
 89 90  1  0
 90 93  1  0
 90 92  1  0
 91 89  2  0
 94 95  1  0
 94 69  1  0
 96 94  1  0
M  ISO  4   7 101   8 101  59 100  67 100
M  END
>  <TORSDO>  (49) 
F 26

>  <SCORE>  (49) 
-7.948

>  <name>  (49) 
48

>  <ligand_id>  (49) 
48

>  <original_smiles>  (49) 
[H]c1c([H])c([H])c2c(c1[H])C([H])([H])C([H])([H])C([H])([H])C2([H])N([H])C(=O)C1([H])N(C(=O)C([H])(N([H])C(=O)C([H])(N([H])C([H])([H])[H])C([H])([H])[H])C(C([H])([H])[H])(C([H])([H])[H])C([H])([H])[H])C([H])([H])c2c([H])c(OC([H])([H])C(C([H])([H])C([H])([H])[H])(C([H])([H])C([H])([H])[H])C([H])([H])C([H])(C([H])([H])C([H])([H])C([H])([H])C([H])([H])N([H])C(=O)N3C([H])([H])C([H])([H])C([H])([H])C([H])(n4nc(-c5c([H])c([H])c(Oc6c([H])c([H])c(F)c([H])c6F)c([H])c5[H])c(C(=O)N([H])[H])c4N([H])[H])C3([H])[H])C3([H])C([H])([H])C([H])([H])C([H])([H])C3([H])[H])c([H])c([H])c2C1([H])[H]

>  <smiles>  (49) 
[H]c1c([H])c([H])c2c(c1[H])C([H])([H])C([H])([H])C([H])([H])C2([H])N([H])C(=O)C1([H])N(C(=O)C([H])(N([H])C(=O)C([H])(N([H])C([H])([H])[H])C([H])([H])[H])C(C([H])([H])[H])(C([H])([H])[H])C([H])([H])[H])C([H])([H])c2c([H])c(OC([H])([H])C(C([H])([H])C([H])([H])[H])(C([H])([H])C([H])([H])[H])C([H])([H])C([H])(C([H])([H])C([H])([H])C([H])([H])C([H])([H])N([H])C(=O)N3C([H])([H])C([H])([H])C([H])([H])C([H])(n4nc(-c5c([H])c([H])c(Oc6c([H])c([H])c(F)c([H])c6F)c([H])c5[H])c(C(=O)N([H])[H])c4N([H])[H])C3([H])[H])C3([H])C([H])([H])C([H])([H])C([H])([H])C3([H])[H])c([H])c([H])c2C1([H])[H]

$$$$
49:0:0
     RDKit          3D

 92101  0  0  1  0  0  0  0  0999 V2000
  -29.3870  -19.4230   19.5080 C   0  0  0  0  0  0  0  0  0  0  0  0
  -29.4260  -17.8620   19.5770 C   0  0  0  0  0  2  0  0  0  0  0  0
  -31.2590  -19.9300   22.3570 C   0  0  0  0  0  2  0  0  0  0  0  0
  -29.8070  -20.1790   21.9500 C   0  0  0  0  0  2  0  0  0  0  0  0
  -31.6880  -17.9160   20.7120 C   0  0  0  0  0  2  0  0  0  0  0  0
  -31.5450  -19.4490   20.9270 C   0  0  0  0  0  3  0  0  0  0  0  0
  -30.3210  -17.2140   20.6700 C   0  0  0  0  0  3  0  0  0  0  0  0
  -30.2620  -20.2430   20.4730 C   0  0  1  0  0  0  0  0  0  0  0  0
  -28.6540  -19.9110   18.6460 O   0  0  0  0  0  0  0  0  0  0  0  0
  -31.0810  -14.7160   20.2430 C   0  0  0  0  0  0  0  0  0  0  0  0
  -30.8290  -12.4730   19.2100 C   0  0  0  0  0  2  0  0  0  0  0  0
  -29.8630  -12.5970   18.0100 C   0  0  0  0  0  2  0  0  0  0  0  0
  -28.3930  -12.4770   18.4620 C   0  0  0  0  0  2  0  0  0  0  0  0
  -28.0720  -13.3790   19.6830 C   0  0  0  0  0  3  0  0  0  0  0  0
  -29.1390  -13.1980   20.7880 C   0  0  0  0  0  2  0  0  0  0  0  0
  -30.4560  -13.5010   20.1960 N   0  0  0  0  0  0  0  0  0  0  0  0
  -32.2030  -14.9080   19.7650 O   0  0  0  0  0  0  0  0  0  0  0  0
  -30.2930  -15.7200   20.7000 N   0  0  0  0  0  0  0  0  0  0  0  0
  -29.4300  -15.3540   21.0780 H   0  0  0  0  0  0  0  0  0  0  0  0
  -25.7130  -14.0600   20.4530 C   0  0  0  0  0  0  0  0  0  0  0  0
  -24.6240  -13.3210   20.8310 C   0  0  0  0  0  0  0  0  0  0  0  0
  -25.0340  -11.9550   20.7650 C   0  0  0  0  0  0  0  0  0  0  0  0
  -26.7200  -13.1450   20.1850 N   0  0  0  0  0  0  0  0  0  0  0  0
  -26.3150  -11.8730   20.4300 N   0  0  0  0  0  0  0  0  0  0  0  0
  -24.2660  -10.7160   20.9450 C   0  0  0  0  0  0  0  0  0  0  0  0
  -24.6500   -9.7420   21.8930 C   0  0  0  0  0  3  0  0  0  0  0  0
  -23.8870   -8.5670   22.0610 C   0  0  0  0  0  3  0  0  0  0  0  0
  -22.7230   -8.3590   21.2820 C   0  0  0  0  0  0  0  0  0  0  0  0
  -22.3580   -9.3220   20.3250 C   0  0  0  0  0  3  0  0  0  0  0  0
  -23.1220  -10.4880   20.1550 C   0  0  0  0  0  3  0  0  0  0  0  0
  -21.9340   -7.2370   21.3600 O   0  0  0  0  0  0  0  0  0  0  0  0
  -21.7860   -6.5400   22.5320 C   0  0  0  0  0  0  0  0  0  0  0  0
  -21.2600   -7.1420   23.6960 C   0  0  0  0  0  3  0  0  0  0  0  0
  -21.0610   -6.3710   24.8590 C   0  0  0  0  0  3  0  0  0  0  0  0
  -21.3790   -4.9990   24.8580 C   0  0  0  0  0  0  0  0  0  0  0  0
  -21.8980   -4.3970   23.6980 C   0  0  0  0  0  3  0  0  0  0  0  0
  -22.0980   -5.1660   22.5380 C   0  0  0  0  0  0  0  0  0  0  0  0
  -22.5800   -4.5760   21.4170 F   0  0  0  0  0  0  0  0  0  0  0  0
  -21.1800   -4.2560   25.9710 F   0  0  0  0  0  0  0  0  0  0  0  0
  -23.2510  -13.8440   21.1430 C   0  0  0  0  0  0  0  0  0  0  0  0
  -22.5200  -13.1600   22.0160 N   0  0  0  0  0  0  0  0  0  0  0  0
  -22.8380  -14.8900   20.6470 O   0  0  0  0  0  0  0  0  0  0  0  0
  -22.8680  -12.3100   22.4360 H   0  0  0  0  0  0  0  0  0  0  0  0
  -21.6000  -13.4890   22.2690 H   0  0  0  0  0  0  0  0  0  0  0  0
  -25.9250  -15.4270   20.2950 N   0  0  0  0  0  0  0  0  0  0  0  0
  -25.1840  -16.1060   20.4210 H   0  0  0  0  0  0  0  0  0  0  0  0
  -26.7780  -15.8340   19.9340 H   0  0  0  0  0  0  0  0  0  0  0  0
  -30.5020  -21.7190   19.9370 C   0  0  0  0  0  2  0  0  0  0  0  0
  -29.2880  -22.7290   19.8740 C   0  0  0  0  0  2  0  0  0  0  0  0
  -29.6310  -24.2700   19.8660 C   0  0  0  0  0  2  0  0  0  0  0  0
  -28.4000  -25.2120   19.6190 C   0  0  0  0  0  2  0  0  0  0  0  0
  -28.5470  -26.6450   19.8800 O   0  0  0  0  0  0  0  0  0  0  0  0
  -24.6000  -31.6890   23.1430 C   0  0  0  0  0  0  0  0  0  0  0  0
  -27.3790  -27.4140   19.8720 C   0  0  0  0  0  0  0  0  0  0  0  0
  -23.4460  -30.3330   21.4310 C   0  0  0  0  0  3  0  0  0  0  0  0
  -24.9510  -28.9090   19.9410 C   0  0  0  0  0  0  0  0  0  0  0  0
  -25.9700  -30.7560   21.2720 C   0  0  0  0  0  2  0  0  0  0  0  0
  -26.0990  -29.4170   20.5620 C   0  0  0  0  0  0  0  0  0  0  0  0
  -27.3160  -28.6810   20.5190 C   0  0  0  0  0  3  0  0  0  0  0  0
  -26.2030  -26.9480   19.2370 C   0  0  0  0  0  3  0  0  0  0  0  0
  -25.0020  -27.6770   19.2730 C   0  0  0  0  0  3  0  0  0  0  0  0
  -23.6840  -29.7330   20.0210 C   0  0  0  0  0  2  0  0  0  0  0  0
  -24.6900  -30.9390   22.0070 N   0  0  0  0  0  0  0  0  0  0  0  0
  -23.5080  -31.9050   23.6850 O   0  0  0  0  0  0  0  0  0  0  0  0
  -22.8160  -29.2490   22.3370 C   0  0  0  0  0  0  0  0  0  0  0  0
  -21.4960  -29.0400   22.1980 N   0  0  0  0  0  0  0  0  0  0  0  0
  -23.5140  -28.6010   23.1230 O   0  0  0  0  0  0  0  0  0  0  0  0
  -20.9930  -29.6180   21.5400 H   0  0  0  0  0  0  0  0  0  0  0  0
  -18.1490  -27.7480   22.6460 C   0  0  0  0  0  0  0  0  0  0  0  0
  -20.7030  -28.0440   22.9180 C   0  0  0  0  0  3  0  0  0  0  0  0
  -20.8310  -26.6490   22.2630 C   0  0  0  0  0  2  0  0  0  0  0  0
  -19.7300  -26.3610   21.2370 C   0  0  0  0  0  2  0  0  0  0  0  0
  -18.3500  -26.4410   21.8950 C   0  0  0  0  0  2  0  0  0  0  0  0
  -19.2540  -28.5080   23.1120 C   0  0  0  0  0  0  0  0  0  0  0  0
  -19.0140  -29.7320   23.7730 C   0  0  0  0  0  3  0  0  0  0  0  0
  -17.7000  -30.1970   23.9720 C   0  0  0  0  0  3  0  0  0  0  0  0
  -16.6090  -29.4320   23.5210 C   0  0  0  0  0  3  0  0  0  0  0  0
  -16.8350  -28.2100   22.8650 C   0  0  0  0  0  3  0  0  0  0  0  0
  -25.8620  -32.3290   23.8000 C   0  0  0  0  0  3  0  0  0  0  0  0
  -26.3690  -31.5410   25.0690 C   0  0  1  0  0  0  0  0  0  0  0  0
  -25.2620  -31.2630   26.1130 C   0  0  0  0  0  1  0  0  0  0  0  0
  -26.9810  -30.1810   24.6600 C   0  0  0  0  0  1  0  0  0  0  0  0
  -27.4950  -32.3390   25.7680 C   0  0  0  0  0  1  0  0  0  0  0  0
  -25.5230  -33.7150   24.1520 N   0  0  0  0  0  0  0  0  0  0  0  0
  -25.8220  -34.7850   23.4040 C   0  0  0  0  0  0  0  0  0  0  0  0
  -26.4850  -34.7110   22.3650 O   0  0  0  0  0  0  0  0  0  0  0  0
  -24.9310  -33.8450   24.9600 H   0  0  0  0  0  0  0  0  0  0  0  0
  -24.0370  -36.5320   23.1040 C   0  0  0  0  0  1  0  0  0  0  0  0
  -25.3070  -36.1550   23.8830 C   0  0  0  0  0  3  0  0  0  0  0  0
  -27.4290  -37.1000   24.6800 C   0  0  0  0  0  1  0  0  0  0  0  0
  -26.3060  -37.2380   23.7570 N   0  0  0  0  0  0  0  0  0  0  0  0
  -25.8770  -38.1460   23.9140 H   0  0  0  0  0  0  0  0  0  0  0  0
  1  2  1  0
  1  8  1  0
  2  7  1  0
  4  3  1  0
  6  5  1  0
  6  3  1  0
  7 18  1  0
  7  5  1  0
  8 48  1  6
  8  6  1  0
  8  4  1  0
  9  1  2  0
 10 18  1  0
 11 16  1  0
 12 13  1  0
 12 11  1  0
 14 13  1  0
 14 23  1  0
 14 15  1  0
 16 10  1  0
 16 15  1  0
 17 10  2  0
 18 19  1  0
 20 21  2  0
 21 40  1  0
 22 21  1  0
 22 25  1  0
 23 24  1  0
 23 20  1  0
 24 22  2  0
 25 26  1  0
 26 27  2  0
 28 31  1  0
 28 27  1  0
 29 28  2  0
 30 29  1  0
 30 25  2  0
 31 32  1  0
 32 37  2  0
 32 33  1  0
 33 34  2  0
 35 34  1  0
 35 39  1  0
 36 35  2  0
 37 36  1  0
 38 37  1  0
 40 41  1  0
 41 44  1  0
 41 43  1  0
 42 40  2  0
 45 46  1  0
 45 20  1  0
 47 45  1  0
 49 48  1  0
 50 49  1  0
 51 50  1  0
 51 52  1  0
 53 64  2  0
 54 52  1  0
 54 59  1  0
 55 63  1  0
 55 65  1  0
 56 62  1  0
 56 58  1  0
 57 63  1  0
 58 57  1  0
 59 58  2  0
 60 61  1  0
 60 54  2  0
 61 56  2  0
 62 55  1  0
 63 53  1  0
 65 67  2  0
 66 65  1  0
 68 66  1  0
 69 78  2  0
 69 74  1  0
 70 66  1  0
 70 74  1  0
 71 70  1  0
 72 73  1  0
 72 71  1  0
 73 69  1  0
 74 75  2  0
 75 76  1  0
 77 76  2  0
 78 77  1  0
 79 53  1  0
 79 84  1  0
 79 80  1  0
 80 83  1  1
 80 81  1  0
 82 80  1  0
 84 87  1  0
 85 89  1  0
 85 84  1  0
 86 85  2  0
 89 88  1  0
 91 89  1  0
 91 92  1  0
 91 90  1  0
M  ISO  4  10 100  18 100  51 101  52 101
M  END
>  <TORSDO>  (50) 
F 20

>  <SCORE>  (50) 
-13.276

>  <name>  (50) 
49

>  <ligand_id>  (50) 
49

>  <original_smiles>  (50) 
[H]c1c([H])c([H])c2c(c1[H])C([H])([H])C([H])([H])C([H])([H])C2([H])N([H])C(=O)C1([H])N(C(=O)C([H])(N([H])C(=O)C([H])(N([H])C([H])([H])[H])C([H])([H])[H])C(C([H])([H])[H])(C([H])([H])[H])C([H])([H])[H])C([H])([H])c2c([H])c(OC([H])([H])C([H])([H])C([H])([H])C([H])([H])C34C(=O)C([H])([H])C([H])(N([H])C(=O)N5C([H])([H])C([H])([H])C([H])([H])C([H])(n6nc(-c7c([H])c([H])c(Oc8c([H])c([H])c(F)c([H])c8F)c([H])c7[H])c(C(=O)N([H])[H])c6N([H])[H])C5([H])[H])C([H])([H])C3([H])C([H])([H])C4([H])[H])c([H])c([H])c2C1([H])[H]

>  <smiles>  (50) 
[H]c1c([H])c([H])c2c(c1[H])C([H])([H])C([H])([H])C([H])([H])C2([H])N([H])C(=O)C1([H])N(C(=O)C([H])(N([H])C(=O)C([H])(N([H])C([H])([H])[H])C([H])([H])[H])C(C([H])([H])[H])(C([H])([H])[H])C([H])([H])[H])C([H])([H])c2c([H])c(OC([H])([H])C([H])([H])C([H])([H])C([H])([H])C34C(=O)C([H])([H])C([H])(N([H])C(=O)N5C([H])([H])C([H])([H])C([H])([H])C([H])(n6nc(-c7c([H])c([H])c(Oc8c([H])c([H])c(F)c([H])c8F)c([H])c7[H])c(C(=O)N([H])[H])c6N([H])[H])C5([H])[H])C([H])([H])C3([H])C([H])([H])C4([H])[H])c([H])c([H])c2C1([H])[H]

$$$$
50:0:0
     RDKit          3D

 90 99  0  0  1  0  0  0  0  0999 V2000
  -31.2570  -22.5070   20.4790 C   0  0  0  0  0  2  0  0  0  0  0  0
  -31.0990  -20.0360   21.4370 C   0  0  0  0  0  2  0  0  0  0  0  0
  -28.8890  -21.9100   20.0980 C   0  0  0  0  0  2  0  0  0  0  0  0
  -31.1720  -21.0020   20.2490 C   0  0  0  0  0  3  0  0  0  0  0  0
  -29.7420  -20.6400   19.8890 C   0  0  0  0  0  3  0  0  0  0  0  0
  -29.8100  -23.0300   20.6740 C   0  0  0  0  0  3  0  0  0  0  0  0
  -29.8000  -19.4380   20.8820 C   0  0  0  0  0  3  0  0  0  0  0  0
  -29.6330  -24.4910   20.1270 C   0  0  0  0  0  2  0  0  0  0  0  0
  -28.3000  -25.2310   20.4350 C   0  0  0  0  0  2  0  0  0  0  0  0
  -28.3890  -26.6550   20.1550 O   0  0  0  0  0  0  0  0  0  0  0  0
  -24.5920  -31.8910   23.2280 C   0  0  0  0  0  0  0  0  0  0  0  0
  -27.2160  -27.3960   20.1670 C   0  0  0  0  0  0  0  0  0  0  0  0
  -23.3770  -30.4800   21.6040 C   0  0  0  0  0  3  0  0  0  0  0  0
  -24.8220  -28.9300   20.1810 C   0  0  0  0  0  0  0  0  0  0  0  0
  -25.9060  -30.8280   21.3900 C   0  0  0  0  0  2  0  0  0  0  0  0
  -25.9880  -29.4510   20.7570 C   0  0  0  0  0  0  0  0  0  0  0  0
  -27.1870  -28.6950   20.7410 C   0  0  0  0  0  3  0  0  0  0  0  0
  -26.0290  -26.9030   19.5790 C   0  0  0  0  0  3  0  0  0  0  0  0
  -24.8400  -27.6560   19.5900 C   0  0  0  0  0  3  0  0  0  0  0  0
  -23.5800  -29.7930   20.2280 C   0  0  0  0  0  2  0  0  0  0  0  0
  -24.6440  -31.0820   22.1310 N   0  0  0  0  0  0  0  0  0  0  0  0
  -23.5140  -32.1680   23.7720 O   0  0  0  0  0  0  0  0  0  0  0  0
  -22.7300  -29.4650   22.5740 C   0  0  0  0  0  0  0  0  0  0  0  0
  -21.4040  -29.2820   22.4560 N   0  0  0  0  0  0  0  0  0  0  0  0
  -23.4180  -28.8440   23.3880 O   0  0  0  0  0  0  0  0  0  0  0  0
  -20.9110  -29.8360   21.7700 H   0  0  0  0  0  0  0  0  0  0  0  0
  -18.0330  -28.0900   22.9770 C   0  0  0  0  0  0  0  0  0  0  0  0
  -20.5920  -28.3500   23.2360 C   0  0  0  0  0  3  0  0  0  0  0  0
  -20.6920  -26.9150   22.6690 C   0  0  0  0  0  2  0  0  0  0  0  0
  -19.5850  -26.5860   21.6620 C   0  0  0  0  0  2  0  0  0  0  0  0
  -18.2060  -26.7350   22.3110 C   0  0  0  0  0  2  0  0  0  0  0  0
  -19.1530  -28.8540   23.3980 C   0  0  0  0  0  0  0  0  0  0  0  0
  -18.9370  -30.1220   23.9810 C   0  0  0  0  0  3  0  0  0  0  0  0
  -17.6340  -30.6250   24.1480 C   0  0  0  0  0  3  0  0  0  0  0  0
  -16.5270  -29.8570   23.7440 C   0  0  0  0  0  3  0  0  0  0  0  0
  -16.7280  -28.5920   23.1640 C   0  0  0  0  0  3  0  0  0  0  0  0
  -25.8810  -32.5260   23.8370 C   0  0  0  0  0  3  0  0  0  0  0  0
  -26.4170  -31.7520   25.1030 C   0  0  1  0  0  0  0  0  0  0  0  0
  -25.3390  -31.5050   26.1840 C   0  0  0  0  0  1  0  0  0  0  0  0
  -27.0010  -30.3780   24.6970 C   0  0  0  0  0  1  0  0  0  0  0  0
  -27.5740  -32.5470   25.7530 C   0  0  0  0  0  1  0  0  0  0  0  0
  -25.5690  -33.9210   24.1760 N   0  0  0  0  0  0  0  0  0  0  0  0
  -25.8870  -34.9770   23.4160 C   0  0  0  0  0  0  0  0  0  0  0  0
  -26.5450  -34.8810   22.3770 O   0  0  0  0  0  0  0  0  0  0  0  0
  -24.9820  -34.0700   24.9830 H   0  0  0  0  0  0  0  0  0  0  0  0
  -24.1410  -36.7580   23.0910 C   0  0  0  0  0  1  0  0  0  0  0  0
  -25.3970  -36.3610   23.8830 C   0  0  0  0  0  3  0  0  0  0  0  0
  -27.5410  -37.2550   24.6790 C   0  0  0  0  0  1  0  0  0  0  0  0
  -26.4220  -37.4210   23.7560 N   0  0  0  0  0  0  0  0  0  0  0  0
  -26.0130  -38.3380   23.9160 H   0  0  0  0  0  0  0  0  0  0  0  0
  -29.7840  -17.9700   20.3620 C   0  0  0  0  0  2  0  0  0  0  0  0
  -30.3400  -16.9020   21.3530 C   0  0  0  0  0  2  0  0  0  0  0  0
  -30.6410  -14.5100   20.5110 C   0  0  0  0  0  0  0  0  0  0  0  0
  -30.3610  -12.3450   19.3430 C   0  0  0  0  0  2  0  0  0  0  0  0
  -29.4260  -12.5470   18.1330 C   0  0  0  0  0  2  0  0  0  0  0  0
  -27.9480  -12.4080   18.5530 C   0  0  0  0  0  2  0  0  0  0  0  0
  -27.6030  -13.2490   19.8120 C   0  0  0  0  0  3  0  0  0  0  0  0
  -28.6480  -13.0180   20.9260 C   0  0  0  0  0  2  0  0  0  0  0  0
  -29.9760  -13.3290   20.3670 N   0  0  0  0  0  0  0  0  0  0  0  0
  -31.7730  -14.6980   20.0580 O   0  0  0  0  0  0  0  0  0  0  0  0
  -29.9250  -15.5110   21.0650 N   0  0  0  0  0  0  0  0  0  0  0  0
  -28.9970  -15.2540   21.3670 H   0  0  0  0  0  0  0  0  0  0  0  0
  -25.2010  -13.8740   20.4910 C   0  0  0  0  0  0  0  0  0  0  0  0
  -24.1270  -13.1100   20.8570 C   0  0  0  0  0  0  0  0  0  0  0  0
  -24.5820  -11.7560   20.8440 C   0  0  0  0  0  0  0  0  0  0  0  0
  -26.2440  -12.9860   20.2800 N   0  0  0  0  0  0  0  0  0  0  0  0
  -25.8740  -11.7080   20.5490 N   0  0  0  0  0  0  0  0  0  0  0  0
  -23.8490  -10.4990   21.0400 C   0  0  0  0  0  0  0  0  0  0  0  0
  -24.2820   -9.5290   21.9700 C   0  0  0  0  0  3  0  0  0  0  0  0
  -23.5490   -8.3350   22.1530 C   0  0  0  0  0  3  0  0  0  0  0  0
  -22.3700   -8.1040   21.4060 C   0  0  0  0  0  0  0  0  0  0  0  0
  -21.9560   -9.0630   20.4640 C   0  0  0  0  0  3  0  0  0  0  0  0
  -22.6890  -10.2480   20.2790 C   0  0  0  0  0  3  0  0  0  0  0  0
  -21.6090   -6.9640   21.4970 O   0  0  0  0  0  0  0  0  0  0  0  0
  -21.5760   -6.2120   22.6450 C   0  0  0  0  0  0  0  0  0  0  0  0
  -21.1940   -6.7620   23.8870 C   0  0  0  0  0  3  0  0  0  0  0  0
  -21.1090   -5.9370   25.0260 C   0  0  0  0  0  3  0  0  0  0  0  0
  -21.3930   -4.5620   24.9230 C   0  0  0  0  0  0  0  0  0  0  0  0
  -21.7690   -4.0110   23.6860 C   0  0  0  0  0  3  0  0  0  0  0  0
  -21.8570   -4.8340   22.5490 C   0  0  0  0  0  0  0  0  0  0  0  0
  -22.1990   -4.2940   21.3550 F   0  0  0  0  0  0  0  0  0  0  0  0
  -21.3040   -3.7670   26.0160 F   0  0  0  0  0  0  0  0  0  0  0  0
  -22.7280  -13.5960   21.1110 C   0  0  0  0  0  0  0  0  0  0  0  0
  -21.9900  -12.9120   21.9790 N   0  0  0  0  0  0  0  0  0  0  0  0
  -22.2980  -14.6150   20.5740 O   0  0  0  0  0  0  0  0  0  0  0  0
  -22.3490  -12.0870   22.4360 H   0  0  0  0  0  0  0  0  0  0  0  0
  -21.0510  -13.2200   22.1910 H   0  0  0  0  0  0  0  0  0  0  0  0
  -25.3760  -15.2420   20.3010 N   0  0  0  0  0  0  0  0  0  0  0  0
  -24.6140  -15.9040   20.3960 H   0  0  0  0  0  0  0  0  0  0  0  0
  -26.2330  -15.6720   19.9770 H   0  0  0  0  0  0  0  0  0  0  0  0
  1  6  1  0
  3  6  1  0
  4  1  1  0
  4  2  1  0
  5  3  1  0
  5  4  1  0
  5  7  1  0
  6  8  1  0
  7 51  1  0
  7  2  1  0
  8  9  1  0
 10 12  1  0
 10  9  1  0
 11 22  2  0
 12 17  1  0
 13 21  1  0
 13 23  1  0
 14 20  1  0
 14 16  1  0
 15 21  1  0
 16 15  1  0
 17 16  2  0
 18 19  1  0
 18 12  2  0
 19 14  2  0
 20 13  1  0
 21 11  1  0
 23 25  2  0
 24 23  1  0
 26 24  1  0
 27 36  2  0
 27 32  1  0
 28 24  1  0
 28 32  1  0
 29 28  1  0
 30 31  1  0
 30 29  1  0
 31 27  1  0
 32 33  2  0
 33 34  1  0
 35 34  2  0
 36 35  1  0
 37 11  1  0
 37 42  1  0
 37 38  1  0
 38 41  1  1
 38 39  1  0
 40 38  1  0
 42 45  1  0
 43 47  1  0
 43 42  1  0
 44 43  2  0
 47 46  1  0
 49 47  1  0
 49 50  1  0
 49 48  1  0
 51 52  1  0
 53 61  1  0
 54 59  1  0
 55 56  1  0
 55 54  1  0
 57 56  1  0
 57 66  1  0
 57 58  1  0
 59 53  1  0
 59 58  1  0
 60 53  2  0
 61 52  1  0
 61 62  1  0
 63 64  2  0
 64 83  1  0
 65 64  1  0
 65 68  1  0
 66 63  1  0
 66 67  1  0
 67 65  2  0
 68 69  1  0
 69 70  2  0
 71 74  1  0
 71 70  1  0
 72 71  2  0
 73 72  1  0
 73 68  2  0
 74 75  1  0
 75 76  1  0
 76 77  2  0
 78 77  1  0
 78 82  1  0
 79 78  2  0
 80 75  2  0
 80 79  1  0
 81 80  1  0
 83 84  1  0
 84 87  1  0
 84 86  1  0
 85 83  2  0
 88 89  1  0
 88 63  1  0
 90 88  1  0
M  ISO  4   9 101  10 101  53 100  61 100
M  END
>  <TORSDO>  (51) 
F 20

>  <SCORE>  (51) 
-13.880

>  <name>  (51) 
50

>  <ligand_id>  (51) 
50

>  <original_smiles>  (51) 
[H]c1c([H])c([H])c2c(c1[H])C([H])([H])C([H])([H])C([H])([H])C2([H])N([H])C(=O)C1([H])N(C(=O)C([H])(N([H])C(=O)C([H])(N([H])C([H])([H])[H])C([H])([H])[H])C(C([H])([H])[H])(C([H])([H])[H])C([H])([H])[H])C([H])([H])c2c([H])c(OC([H])([H])C([H])([H])C3([H])C([H])([H])C4([H])C([H])([H])C([H])(C([H])([H])C([H])([H])N([H])C(=O)N5C([H])([H])C([H])([H])C([H])([H])C([H])(n6nc(-c7c([H])c([H])c(Oc8c([H])c([H])c(F)c([H])c8F)c([H])c7[H])c(C(=O)N([H])[H])c6N([H])[H])C5([H])[H])C4([H])C3([H])[H])c([H])c([H])c2C1([H])[H]

>  <smiles>  (51) 
[H]c1c([H])c([H])c2c(c1[H])C([H])([H])C([H])([H])C([H])([H])C2([H])N([H])C(=O)C1([H])N(C(=O)C([H])(N([H])C(=O)C([H])(N([H])C([H])([H])[H])C([H])([H])[H])C(C([H])([H])[H])(C([H])([H])[H])C([H])([H])[H])C([H])([H])c2c([H])c(OC([H])([H])C([H])([H])C3([H])C([H])([H])C4([H])C([H])([H])C([H])(C([H])([H])C([H])([H])N([H])C(=O)N5C([H])([H])C([H])([H])C([H])([H])C([H])(n6nc(-c7c([H])c([H])c(Oc8c([H])c([H])c(F)c([H])c8F)c([H])c7[H])c(C(=O)N([H])[H])c6N([H])[H])C5([H])[H])C4([H])C3([H])[H])c([H])c([H])c2C1([H])[H]

$$$$
51:0:0
     RDKit          3D

 94103  0  0  1  0  0  0  0  0999 V2000
  -29.3400  -19.1930   16.5610 C   0  0  0  0  0  2  0  0  0  0  0  0
  -30.4700  -19.9980   17.1980 C   0  0  0  0  0  2  0  0  0  0  0  0
  -28.5810  -18.0910   18.8630 C   0  0  0  0  0  2  0  0  0  0  0  0
  -28.5620  -19.2620   17.8820 C   0  0  0  0  0  3  0  0  0  0  0  0
  -29.5410  -20.3320   18.3820 C   0  0  0  0  0  3  0  0  0  0  0  0
  -29.7890  -18.3620   19.7720 C   0  0  0  0  0  3  0  0  0  0  0  0
  -29.9130  -20.0020   19.8370 C   0  0  1  0  0  0  0  0  0  0  0  0
  -30.0350  -17.3000   20.9520 C   0  0  0  0  0  2  0  0  0  0  0  0
  -30.5680  -14.7250   20.4650 C   0  0  0  0  0  0  0  0  0  0  0  0
  -30.3890  -12.4560   19.4280 C   0  0  0  0  0  2  0  0  0  0  0  0
  -29.4420  -12.5250   18.2090 C   0  0  0  0  0  2  0  0  0  0  0  0
  -27.9740  -12.3470   18.6450 C   0  0  0  0  0  2  0  0  0  0  0  0
  -27.5980  -13.2370   19.8600 C   0  0  0  0  0  3  0  0  0  0  0  0
  -28.6580  -13.1390   20.9790 C   0  0  0  0  0  2  0  0  0  0  0  0
  -29.9540  -13.4970   20.3850 N   0  0  0  0  0  0  0  0  0  0  0  0
  -31.7550  -14.8580   20.1560 O   0  0  0  0  0  0  0  0  0  0  0  0
  -29.7580  -15.8160   20.7120 N   0  0  0  0  0  0  0  0  0  0  0  0
  -28.7950  -15.5550   20.8570 H   0  0  0  0  0  0  0  0  0  0  0  0
  -25.2070  -13.8260   20.5820 C   0  0  0  0  0  0  0  0  0  0  0  0
  -24.1430  -13.0500   20.9520 C   0  0  0  0  0  0  0  0  0  0  0  0
  -24.6110  -11.7000   20.9260 C   0  0  0  0  0  0  0  0  0  0  0  0
  -26.2540  -12.9480   20.3500 N   0  0  0  0  0  0  0  0  0  0  0  0
  -25.9030  -11.6660   20.6200 N   0  0  0  0  0  0  0  0  0  0  0  0
  -23.8880  -10.4360   21.1180 C   0  0  0  0  0  0  0  0  0  0  0  0
  -24.3320   -9.4650   22.0430 C   0  0  0  0  0  3  0  0  0  0  0  0
  -23.6100   -8.2650   22.2220 C   0  0  0  0  0  3  0  0  0  0  0  0
  -22.4290   -8.0280   21.4770 C   0  0  0  0  0  0  0  0  0  0  0  0
  -22.0060   -8.9880   20.5410 C   0  0  0  0  0  3  0  0  0  0  0  0
  -22.7290  -10.1780   20.3590 C   0  0  0  0  0  3  0  0  0  0  0  0
  -21.6780   -6.8820   21.5670 O   0  0  0  0  0  0  0  0  0  0  0  0
  -21.6540   -6.1250   22.7110 C   0  0  0  0  0  0  0  0  0  0  0  0
  -21.2610   -6.6650   23.9540 C   0  0  0  0  0  3  0  0  0  0  0  0
  -21.1840   -5.8340   25.0900 C   0  0  0  0  0  3  0  0  0  0  0  0
  -21.4910   -4.4650   24.9830 C   0  0  0  0  0  0  0  0  0  0  0  0
  -21.8790   -3.9240   23.7450 C   0  0  0  0  0  3  0  0  0  0  0  0
  -21.9580   -4.7520   22.6120 C   0  0  0  0  0  0  0  0  0  0  0  0
  -22.3100   -4.2210   21.4160 F   0  0  0  0  0  0  0  0  0  0  0  0
  -21.4100   -3.6650   26.0720 F   0  0  0  0  0  0  0  0  0  0  0  0
  -22.7430  -13.5220   21.2190 C   0  0  0  0  0  0  0  0  0  0  0  0
  -22.0160  -12.8250   22.0840 N   0  0  0  0  0  0  0  0  0  0  0  0
  -22.3030  -14.5450   20.6930 O   0  0  0  0  0  0  0  0  0  0  0  0
  -22.3860  -11.9980   22.5290 H   0  0  0  0  0  0  0  0  0  0  0  0
  -21.0760  -13.1220   22.3060 H   0  0  0  0  0  0  0  0  0  0  0  0
  -25.3650  -15.1970   20.3990 N   0  0  0  0  0  0  0  0  0  0  0  0
  -24.5890  -15.8410   20.5000 H   0  0  0  0  0  0  0  0  0  0  0  0
  -26.1990  -15.6370   20.0340 H   0  0  0  0  0  0  0  0  0  0  0  0
  -31.3780  -20.3890   20.2000 C   0  0  0  0  0  2  0  0  0  0  0  0
  -33.4250  -21.8160   19.6140 C   0  0  0  0  0  1  0  0  0  0  0  0
  -31.8940  -21.7710   19.7290 C   0  0  0  0  0  2  0  0  0  0  0  0
  -28.8470  -20.8320   20.7130 C   0  0  0  0  0  2  0  0  0  0  0  0
  -28.8990  -22.4180   21.0750 C   0  0  0  0  0  2  0  0  0  0  0  0
  -28.6460  -23.6860   20.1060 C   0  0  0  0  0  2  0  0  0  0  0  0
  -28.1750  -25.0660   20.8150 C   0  0  0  0  0  2  0  0  0  0  0  0
  -28.3220  -26.4250   20.2070 O   0  0  0  0  0  0  0  0  0  0  0  0
  -24.5990  -31.8840   23.2270 C   0  0  0  0  0  0  0  0  0  0  0  0
  -27.2120  -27.2900   20.2070 C   0  0  0  0  0  0  0  0  0  0  0  0
  -23.4010  -30.4780   21.5880 C   0  0  0  0  0  3  0  0  0  0  0  0
  -24.8550  -28.9160   20.1740 C   0  0  0  0  0  0  0  0  0  0  0  0
  -25.9420  -30.7910   21.4110 C   0  0  0  0  0  2  0  0  0  0  0  0
  -26.0230  -29.4050   20.7730 C   0  0  0  0  0  0  0  0  0  0  0  0
  -27.2080  -28.6060   20.7740 C   0  0  0  0  0  3  0  0  0  0  0  0
  -26.0230  -26.8530   19.5910 C   0  0  0  0  0  3  0  0  0  0  0  0
  -24.8560  -27.6450   19.5740 C   0  0  0  0  0  3  0  0  0  0  0  0
  -23.6200  -29.7960   20.2110 C   0  0  0  0  0  2  0  0  0  0  0  0
  -24.6660  -31.0690   22.1330 N   0  0  0  0  0  0  0  0  0  0  0  0
  -23.5140  -32.1650   23.7550 O   0  0  0  0  0  0  0  0  0  0  0  0
  -22.7320  -29.4670   22.5510 C   0  0  0  0  0  0  0  0  0  0  0  0
  -21.4040  -29.2990   22.4270 N   0  0  0  0  0  0  0  0  0  0  0  0
  -23.4070  -28.8360   23.3690 O   0  0  0  0  0  0  0  0  0  0  0  0
  -20.9190  -29.8600   21.7400 H   0  0  0  0  0  0  0  0  0  0  0  0
  -18.0170  -28.1360   22.9370 C   0  0  0  0  0  0  0  0  0  0  0  0
  -20.5790  -28.3680   23.1970 C   0  0  0  0  0  3  0  0  0  0  0  0
  -20.6640  -26.9380   22.6160 C   0  0  0  0  0  2  0  0  0  0  0  0
  -19.5560  -26.6310   21.6050 C   0  0  0  0  0  2  0  0  0  0  0  0
  -18.1780  -26.7870   22.2560 C   0  0  0  0  0  2  0  0  0  0  0  0
  -19.1450  -28.8860   23.3630 C   0  0  0  0  0  0  0  0  0  0  0  0
  -18.9410  -30.1480   23.9600 C   0  0  0  0  0  3  0  0  0  0  0  0
  -17.6420  -30.6610   24.1360 C   0  0  0  0  0  3  0  0  0  0  0  0
  -16.5270  -29.9080   23.7250 C   0  0  0  0  0  3  0  0  0  0  0  0
  -16.7160  -28.6480   23.1310 C   0  0  0  0  0  3  0  0  0  0  0  0
  -25.8810  -32.5160   23.8520 C   0  0  0  0  0  3  0  0  0  0  0  0
  -25.5710  -33.9140   24.1830 N   0  0  0  0  0  0  0  0  0  0  0  0
  -25.9010  -34.9690   23.4260 C   0  0  0  0  0  0  0  0  0  0  0  0
  -26.5700  -34.8680   22.3930 O   0  0  0  0  0  0  0  0  0  0  0  0
  -24.9750  -34.0670   24.9840 H   0  0  0  0  0  0  0  0  0  0  0  0
  -24.1720  -36.7630   23.0770 C   0  0  0  0  0  1  0  0  0  0  0  0
  -25.4140  -36.3560   23.8870 C   0  0  0  0  0  3  0  0  0  0  0  0
  -27.5500  -37.2400   24.7160 C   0  0  0  0  0  1  0  0  0  0  0  0
  -26.4460  -37.4100   23.7750 N   0  0  0  0  0  0  0  0  0  0  0  0
  -26.0400  -38.3290   23.9250 H   0  0  0  0  0  0  0  0  0  0  0  0
  -26.3940  -31.7460   25.1300 C   0  0  1  0  0  0  0  0  0  0  0  0
  -25.2980  -31.5100   26.1950 C   0  0  0  0  0  1  0  0  0  0  0  0
  -26.9780  -30.3670   24.7390 C   0  0  0  0  0  1  0  0  0  0  0  0
  -27.5450  -32.5390   25.7940 C   0  0  0  0  0  1  0  0  0  0  0  0
  1  2  1  0
  3  6  1  0
  4  1  1  0
  4  5  1  0
  4  3  1  0
  5  2  1  0
  5  7  1  0
  6  7  1  0
  6  8  1  0
  7 47  1  1
  7 50  1  0
  9 17  1  0
 10 15  1  0
 11 12  1  0
 11 10  1  0
 13 12  1  0
 13 22  1  0
 13 14  1  0
 15  9  1  0
 15 14  1  0
 16  9  2  0
 17 18  1  0
 17  8  1  0
 19 20  2  0
 20 39  1  0
 21 20  1  0
 21 24  1  0
 22 19  1  0
 22 23  1  0
 23 21  2  0
 24 25  1  0
 25 26  2  0
 27 30  1  0
 27 26  1  0
 28 27  2  0
 29 28  1  0
 29 24  2  0
 30 31  1  0
 31 32  1  0
 32 33  2  0
 34 33  1  0
 34 38  1  0
 35 34  2  0
 36 31  2  0
 36 35  1  0
 37 36  1  0
 39 40  1  0
 40 43  1  0
 40 42  1  0
 41 39  2  0
 44 45  1  0
 44 19  1  0
 46 44  1  0
 48 49  1  0
 49 47  1  0
 50 51  1  0
 52 53  1  0
 52 51  1  0
 54 53  1  0
 55 66  2  0
 56 54  1  0
 56 61  1  0
 57 65  1  0
 57 67  1  0
 58 64  1  0
 58 60  1  0
 59 65  1  0
 60 61  2  0
 60 59  1  0
 62 56  2  0
 63 62  1  0
 63 58  2  0
 64 57  1  0
 65 55  1  0
 67 69  2  0
 68 67  1  0
 70 68  1  0
 71 80  2  0
 71 76  1  0
 72 68  1  0
 72 76  1  0
 73 72  1  0
 74 75  1  0
 74 73  1  0
 75 71  1  0
 76 77  2  0
 77 78  1  0
 79 78  2  0
 80 79  1  0
 81 55  1  0
 81 82  1  0
 81 91  1  0
 82 85  1  0
 83 87  1  0
 83 82  1  0
 84 83  2  0
 87 86  1  0
 89 87  1  0
 89 90  1  0
 89 88  1  0
 91 94  1  1
 91 92  1  0
 93 91  1  0
M  ISO  4   9 100  17 100  53 101  54 101
M  END
>  <TORSDO>  (52) 
F 23

>  <SCORE>  (52) 
-13.158

>  <name>  (52) 
51

>  <ligand_id>  (52) 
51

>  <original_smiles>  (52) 
[H]c1c([H])c([H])c2c(c1[H])C([H])([H])C([H])([H])C([H])([H])C2([H])N([H])C(=O)C1([H])N(C(=O)C([H])(N([H])C(=O)C([H])(N([H])C([H])([H])[H])C([H])([H])[H])C(C([H])([H])[H])(C([H])([H])[H])C([H])([H])[H])C([H])([H])c2c([H])c(OC([H])([H])C([H])([H])C([H])([H])C([H])([H])C3(C([H])([H])C([H])([H])C([H])([H])[H])C([H])(C([H])([H])N([H])C(=O)N4C([H])([H])C([H])([H])C([H])([H])C([H])(n5nc(-c6c([H])c([H])c(Oc7c([H])c([H])c(F)c([H])c7F)c([H])c6[H])c(C(=O)N([H])[H])c5N([H])[H])C4([H])[H])C([H])([H])C4([H])C([H])([H])C([H])([H])C43[H])c([H])c([H])c2C1([H])[H]

>  <smiles>  (52) 
[H]c1c([H])c([H])c2c(c1[H])C([H])([H])C([H])([H])C([H])([H])C2([H])N([H])C(=O)C1([H])N(C(=O)C([H])(N([H])C(=O)C([H])(N([H])C([H])([H])[H])C([H])([H])[H])C(C([H])([H])[H])(C([H])([H])[H])C([H])([H])[H])C([H])([H])c2c([H])c(OC([H])([H])C([H])([H])C([H])([H])C([H])([H])C3(C([H])([H])C([H])([H])C([H])([H])[H])C([H])(C([H])([H])N([H])C(=O)N4C([H])([H])C([H])([H])C([H])([H])C([H])(n5nc(-c6c([H])c([H])c(Oc7c([H])c([H])c(F)c([H])c7F)c([H])c6[H])c(C(=O)N([H])[H])c5N([H])[H])C4([H])[H])C([H])([H])C4([H])C([H])([H])C([H])([H])C43[H])c([H])c([H])c2C1([H])[H]

$$$$
52:0:0
     RDKit          3D

 93100  0  0  1  0  0  0  0  0999 V2000
  -28.6020  -21.7090   20.0920 C   0  0  0  0  0  3  0  0  0  0  0  0
  -27.1720  -21.4110   19.9130 N   0  0  0  0  0  4  0  0  0  0  0  0
  -26.7030  -21.4760   20.7990 H   0  0  0  0  0  0  0  0  0  0  0  0
  -27.0700  -20.4690   19.5810 H   0  0  0  0  0  0  0  0  0  0  0  0
  -26.7410  -22.0320   19.2540 H   0  0  0  0  0  0  0  0  0  0  0  0
  -29.2040  -20.5580   20.9410 C   0  0  0  0  0  0  0  0  0  0  0  0
  -29.4800  -19.3830   20.3380 N   0  0  0  0  0  0  0  0  0  0  0  0
  -29.3420  -20.7030   22.1590 O   0  0  0  0  0  0  0  0  0  0  0  0
  -29.3690  -19.3350   19.3340 H   0  0  0  0  0  0  0  0  0  0  0  0
  -29.8510  -18.1350   21.0330 C   0  0  0  0  0  2  0  0  0  0  0  0
  -30.5960  -17.1240   20.1170 C   0  0  0  0  0  2  0  0  0  0  0  0
  -31.0180  -14.6700   19.9580 C   0  0  0  0  0  0  0  0  0  0  0  0
  -30.6950  -12.4500   18.9390 C   0  0  0  0  0  2  0  0  0  0  0  0
  -29.6870  -12.5880   17.7800 C   0  0  0  0  0  2  0  0  0  0  0  0
  -28.2410  -12.4620   18.2980 C   0  0  0  0  0  2  0  0  0  0  0  0
  -27.9640  -13.3580   19.5350 C   0  0  0  0  0  3  0  0  0  0  0  0
  -29.0790  -13.1890   20.5930 C   0  0  0  0  0  2  0  0  0  0  0  0
  -30.3670  -13.4760   19.9410 N   0  0  0  0  0  0  0  0  0  0  0  0
  -32.1120  -14.8450   19.4140 O   0  0  0  0  0  0  0  0  0  0  0  0
  -30.3060  -15.7130   20.4240 N   0  0  0  0  0  0  0  0  0  0  0  0
  -29.4110  -15.4950   20.8390 H   0  0  0  0  0  0  0  0  0  0  0  0
  -25.6420  -13.9970   20.4430 C   0  0  0  0  0  0  0  0  0  0  0  0
  -24.5790  -13.2380   20.8550 C   0  0  0  0  0  0  0  0  0  0  0  0
  -24.9960  -11.8780   20.7320 C   0  0  0  0  0  0  0  0  0  0  0  0
  -26.6400  -13.1010   20.0970 N   0  0  0  0  0  0  0  0  0  0  0  0
  -26.2590  -11.8170   20.3280 N   0  0  0  0  0  0  0  0  0  0  0  0
  -24.2470  -10.6290   20.9160 C   0  0  0  0  0  0  0  0  0  0  0  0
  -24.6370   -9.6700   21.8780 C   0  0  0  0  0  3  0  0  0  0  0  0
  -23.8900   -8.4850   22.0520 C   0  0  0  0  0  3  0  0  0  0  0  0
  -22.7410   -8.2480   21.2590 C   0  0  0  0  0  0  0  0  0  0  0  0
  -22.3710   -9.1940   20.2880 C   0  0  0  0  0  3  0  0  0  0  0  0
  -23.1170  -10.3710   20.1140 C   0  0  0  0  0  3  0  0  0  0  0  0
  -21.9700   -7.1120   21.3390 O   0  0  0  0  0  0  0  0  0  0  0  0
  -21.7750   -6.4570   22.5300 C   0  0  0  0  0  0  0  0  0  0  0  0
  -21.1670   -7.0910   23.6360 C   0  0  0  0  0  3  0  0  0  0  0  0
  -20.9210   -6.3620   24.8160 C   0  0  0  0  0  3  0  0  0  0  0  0
  -21.2720   -5.0010   24.8900 C   0  0  0  0  0  0  0  0  0  0  0  0
  -21.8710   -4.3660   23.7880 C   0  0  0  0  0  3  0  0  0  0  0  0
  -22.1210   -5.0930   22.6110 C   0  0  0  0  0  0  0  0  0  0  0  0
  -22.6790   -4.4730   21.5440 F   0  0  0  0  0  0  0  0  0  0  0  0
  -21.0290   -4.2980   26.0220 F   0  0  0  0  0  0  0  0  0  0  0  0
  -23.2200  -13.7400   21.2500 C   0  0  0  0  0  0  0  0  0  0  0  0
  -22.5400  -13.0320   22.1440 N   0  0  0  0  0  0  0  0  0  0  0  0
  -22.7740  -14.7960   20.8040 O   0  0  0  0  0  0  0  0  0  0  0  0
  -22.9130  -12.1750   22.5250 H   0  0  0  0  0  0  0  0  0  0  0  0
  -21.6310  -13.3510   22.4490 H   0  0  0  0  0  0  0  0  0  0  0  0
  -25.8390  -15.3700   20.3150 N   0  0  0  0  0  0  0  0  0  0  0  0
  -25.1170  -16.0470   20.5350 H   0  0  0  0  0  0  0  0  0  0  0  0
  -26.6640  -15.7910   19.9100 H   0  0  0  0  0  0  0  0  0  0  0  0
  -28.8040  -23.1280   20.7280 C   0  0  0  0  0  2  0  0  0  0  0  0
  -28.3380  -24.3540   19.8820 C   0  0  0  0  0  2  0  0  0  0  0  0
  -28.5090  -25.7110   20.6190 C   0  0  0  0  0  2  0  0  0  0  0  0
  -28.4250  -26.8730   19.7740 O   0  0  0  0  0  0  0  0  0  0  0  0
  -24.6190  -31.8910   23.1320 C   0  0  0  0  0  0  0  0  0  0  0  0
  -27.2500  -27.5880   19.8510 C   0  0  0  0  0  0  0  0  0  0  0  0
  -23.3930  -30.5220   21.4760 C   0  0  0  0  0  3  0  0  0  0  0  0
  -24.8340  -29.0520   19.9700 C   0  0  0  0  0  0  0  0  0  0  0  0
  -25.9070  -30.9310   21.2250 C   0  0  0  0  0  2  0  0  0  0  0  0
  -25.9990  -29.5820   20.5380 C   0  0  0  0  0  0  0  0  0  0  0  0
  -27.2120  -28.8600   20.4700 C   0  0  0  0  0  3  0  0  0  0  0  0
  -26.0700  -27.0710   19.2770 C   0  0  0  0  0  3  0  0  0  0  0  0
  -24.8650  -27.7970   19.3350 C   0  0  0  0  0  3  0  0  0  0  0  0
  -23.5780  -29.8870   20.0700 C   0  0  0  0  0  2  0  0  0  0  0  0
  -24.6600  -31.1280   22.0020 N   0  0  0  0  0  0  0  0  0  0  0  0
  -23.5470  -32.1260   23.7080 O   0  0  0  0  0  0  0  0  0  0  0  0
  -22.7830  -29.4610   22.4200 C   0  0  0  0  0  0  0  0  0  0  0  0
  -21.4590  -29.2560   22.3140 N   0  0  0  0  0  0  0  0  0  0  0  0
  -23.4950  -28.8250   23.2020 O   0  0  0  0  0  0  0  0  0  0  0  0
  -20.9440  -29.8260   21.6570 H   0  0  0  0  0  0  0  0  0  0  0  0
  -18.1220  -27.9730   22.8400 C   0  0  0  0  0  0  0  0  0  0  0  0
  -20.6780  -28.2790   23.0700 C   0  0  0  0  0  3  0  0  0  0  0  0
  -20.8000  -26.8680   22.4490 C   0  0  0  0  0  2  0  0  0  0  0  0
  -19.6850  -26.5520   21.4470 C   0  0  0  0  0  2  0  0  0  0  0  0
  -18.3150  -26.6480   22.1210 C   0  0  0  0  0  2  0  0  0  0  0  0
  -19.2320  -28.7460   23.2720 C   0  0  0  0  0  0  0  0  0  0  0  0
  -18.9990  -29.9860   23.9040 C   0  0  0  0  0  3  0  0  0  0  0  0
  -17.6880  -30.4550   24.1080 C   0  0  0  0  0  3  0  0  0  0  0  0
  -16.5920  -29.6790   23.6920 C   0  0  0  0  0  3  0  0  0  0  0  0
  -16.8110  -28.4390   23.0630 C   0  0  0  0  0  3  0  0  0  0  0  0
  -25.9090  -32.5220   23.7400 C   0  0  0  0  0  3  0  0  0  0  0  0
  -26.4610  -31.7320   24.9890 C   0  0  1  0  0  0  0  0  0  0  0  0
  -25.3930  -31.4550   26.0720 C   0  0  0  0  0  1  0  0  0  0  0  0
  -27.0540  -30.3710   24.5530 C   0  0  0  0  0  1  0  0  0  0  0  0
  -27.6130  -32.5260   25.6450 C   0  0  0  0  0  1  0  0  0  0  0  0
  -25.5930  -33.9100   24.1020 N   0  0  0  0  0  0  0  0  0  0  0  0
  -25.9120  -34.9790   23.3610 C   0  0  0  0  0  0  0  0  0  0  0  0
  -26.5760  -34.9030   22.3230 O   0  0  0  0  0  0  0  0  0  0  0  0
  -25.0070  -34.0440   24.9130 H   0  0  0  0  0  0  0  0  0  0  0  0
  -24.1850  -36.7790   23.0370 C   0  0  0  0  0  1  0  0  0  0  0  0
  -25.4170  -36.3540   23.8520 C   0  0  0  0  0  3  0  0  0  0  0  0
  -27.5360  -37.2250   24.7390 C   0  0  0  0  0  1  0  0  0  0  0  0
  -26.4500  -37.4110   23.7790 N   0  0  0  0  0  0  0  0  0  0  0  0
  -26.0390  -38.3280   23.9390 H   0  0  0  0  0  0  0  0  0  0  0  0
  1 50  1  0
  1  6  1  0
  2  1  1  0
  2  3  1  0
  4  2  1  0
  5  2  1  0
  6  8  2  0
  7  6  1  0
  7 10  1  0
  9  7  1  0
 11 20  1  0
 11 10  1  0
 12 20  1  0
 13 18  1  0
 14 15  1  0
 14 13  1  0
 16 15  1  0
 16 25  1  0
 16 17  1  0
 18 12  1  0
 18 17  1  0
 19 12  2  0
 20 21  1  0
 22 23  2  0
 23 42  1  0
 24 23  1  0
 24 27  1  0
 25 26  1  0
 25 22  1  0
 26 24  2  0
 27 28  1  0
 28 29  2  0
 30 33  1  0
 30 29  1  0
 31 30  2  0
 32 31  1  0
 32 27  2  0
 33 34  1  0
 34 39  2  0
 34 35  1  0
 35 36  2  0
 36 37  1  0
 37 41  1  0
 38 37  2  0
 39 38  1  0
 40 39  1  0
 42 43  1  0
 43 46  1  0
 43 45  1  0
 44 42  2  0
 47 22  1  0
 47 48  1  0
 49 47  1  0
 51 52  1  0
 51 50  1  0
 53 55  1  0
 53 52  1  0
 54 65  2  0
 55 60  1  0
 56 64  1  0
 56 66  1  0
 57 63  1  0
 57 59  1  0
 58 64  1  0
 59 58  1  0
 60 59  2  0
 61 62  1  0
 61 55  2  0
 62 57  2  0
 63 56  1  0
 64 54  1  0
 66 68  2  0
 67 66  1  0
 69 67  1  0
 70 79  2  0
 70 75  1  0
 71 67  1  0
 71 75  1  0
 72 71  1  0
 73 74  1  0
 73 72  1  0
 74 70  1  0
 75 76  2  0
 76 77  1  0
 78 77  2  0
 79 78  1  0
 80 54  1  0
 80 85  1  0
 80 81  1  0
 81 84  1  1
 81 82  1  0
 83 81  1  0
 85 88  1  0
 86 90  1  0
 86 85  1  0
 87 86  2  0
 90 89  1  0
 92 90  1  0
 92 93  1  0
 92 91  1  0
M  ISO  4  12 100  20 100  52 101  53 101
M  END
>  <TORSDO>  (53) 
F 23

>  <SCORE>  (53) 
-12.243

>  <name>  (53) 
52

>  <ligand_id>  (53) 
52

>  <original_smiles>  (53) 
[H]c1c([H])c([H])c2c(c1[H])C([H])([H])C([H])([H])C([H])([H])C2([H])N([H])C(=O)C1([H])N(C(=O)C([H])(N([H])C(=O)C([H])(N([H])C([H])([H])[H])C([H])([H])[H])C(C([H])([H])[H])(C([H])([H])[H])C([H])([H])[H])C([H])([H])c2c([H])c(OC([H])([H])C([H])([H])C([H])([H])C([H])(C(=O)N([H])C([H])([H])C([H])([H])N([H])C(=O)N3C([H])([H])C([H])([H])C([H])([H])C([H])(n4nc(-c5c([H])c([H])c(Oc6c([H])c([H])c(F)c([H])c6F)c([H])c5[H])c(C(=O)N([H])[H])c4N([H])[H])C3([H])[H])[N+]([H])([H])[H])c([H])c([H])c2C1([H])[H]

>  <smiles>  (53) 
[H]c1c([H])c([H])c2c(c1[H])C([H])([H])C([H])([H])C([H])([H])C2([H])N([H])C(=O)C1([H])N(C(=O)C([H])(N([H])C(=O)C([H])(N([H])C([H])([H])[H])C([H])([H])[H])C(C([H])([H])[H])(C([H])([H])[H])C([H])([H])[H])C([H])([H])c2c([H])c(OC([H])([H])C([H])([H])C([H])([H])C([H])(C(=O)N([H])C([H])([H])C([H])([H])N([H])C(=O)N3C([H])([H])C([H])([H])C([H])([H])C([H])(n4nc(-c5c([H])c([H])c(Oc6c([H])c([H])c(F)c([H])c6F)c([H])c5[H])c(C(=O)N([H])[H])c4N([H])[H])C3([H])[H])[N+]([H])([H])[H])c([H])c([H])c2C1([H])[H]

$$$$
53:0:0
     RDKit          3D

 92101  0  0  1  0  0  0  0  0999 V2000
  -28.6210  -19.5900   20.5520 N   0  0  0  0  0  4  0  0  0  0  0  0
  -28.2370  -19.1030   21.3470 H   0  0  0  0  0  0  0  0  0  0  0  0
  -27.9250  -19.5140   19.8300 H   0  0  0  0  0  0  0  0  0  0  0  0
  -30.6450  -14.8670   20.3730 C   0  0  0  0  0  0  0  0  0  0  0  0
  -30.4000  -12.5790   19.3900 C   0  0  0  0  0  2  0  0  0  0  0  0
  -29.4770  -12.5950   18.1560 C   0  0  0  0  0  2  0  0  0  0  0  0
  -28.0090  -12.4130   18.5870 C   0  0  0  0  0  2  0  0  0  0  0  0
  -27.6130  -13.3270   19.7750 C   0  0  0  0  0  3  0  0  0  0  0  0
  -28.6680  -13.3270   20.8990 C   0  0  0  0  0  2  0  0  0  0  0  0
  -29.9490  -13.6780   20.2790 N   0  0  0  0  0  0  0  0  0  0  0  0
  -31.8690  -14.7950   20.2660 O   0  0  0  0  0  0  0  0  0  0  0  0
  -32.2650  -17.6110   19.0760 C   0  0  0  0  0  2  0  0  0  0  0  0
  -31.1130  -18.0790   18.1390 C   0  0  0  0  0  2  0  0  0  0  0  0
  -31.9590  -17.6870   20.6080 C   0  0  0  0  0  2  0  0  0  0  0  0
  -29.2820  -16.5570   19.1340 C   0  0  0  0  0  2  0  0  0  0  0  0
  -29.7020  -18.0240   18.7850 C   0  0  0  0  0  3  0  0  0  0  0  0
  -30.4420  -17.4920   20.9060 C   0  0  0  0  0  3  0  0  0  0  0  0
  -29.8370  -18.7670   20.1130 C   0  0  0  0  0  3  0  0  0  0  0  0
  -29.9850  -16.1230   20.3550 N   0  0  0  0  0  0  0  0  0  0  0  0
  -25.2280  -13.9040   20.5060 C   0  0  0  0  0  0  0  0  0  0  0  0
  -24.1630  -13.1250   20.8660 C   0  0  0  0  0  0  0  0  0  0  0  0
  -24.6340  -11.7770   20.8410 C   0  0  0  0  0  0  0  0  0  0  0  0
  -26.2760  -13.0290   20.2730 N   0  0  0  0  0  0  0  0  0  0  0  0
  -25.9280  -11.7450   20.5440 N   0  0  0  0  0  0  0  0  0  0  0  0
  -23.9120  -10.5110   21.0230 C   0  0  0  0  0  0  0  0  0  0  0  0
  -24.3280   -9.5530   21.9740 C   0  0  0  0  0  3  0  0  0  0  0  0
  -23.6050   -8.3530   22.1450 C   0  0  0  0  0  3  0  0  0  0  0  0
  -22.4510   -8.1030   21.3640 C   0  0  0  0  0  0  0  0  0  0  0  0
  -22.0550   -9.0490   20.4040 C   0  0  0  0  0  3  0  0  0  0  0  0
  -22.7780  -10.2400   20.2310 C   0  0  0  0  0  3  0  0  0  0  0  0
  -21.7010   -6.9530   21.4440 O   0  0  0  0  0  0  0  0  0  0  0  0
  -21.6150   -6.2290   22.6060 C   0  0  0  0  0  0  0  0  0  0  0  0
  -21.1240   -6.7960   23.8030 C   0  0  0  0  0  3  0  0  0  0  0  0
  -20.9870   -5.9960   24.9550 C   0  0  0  0  0  3  0  0  0  0  0  0
  -21.3310   -4.6310   24.9110 C   0  0  0  0  0  0  0  0  0  0  0  0
  -21.8160   -4.0660   23.7200 C   0  0  0  0  0  3  0  0  0  0  0  0
  -21.9540   -4.8620   22.5690 C   0  0  0  0  0  0  0  0  0  0  0  0
  -22.4010   -4.3060   21.4170 F   0  0  0  0  0  0  0  0  0  0  0  0
  -21.1930   -3.8620   26.0160 F   0  0  0  0  0  0  0  0  0  0  0  0
  -22.7620  -13.5960   21.1200 C   0  0  0  0  0  0  0  0  0  0  0  0
  -22.0230  -12.8910   21.9690 N   0  0  0  0  0  0  0  0  0  0  0  0
  -22.3300  -14.6250   20.6010 O   0  0  0  0  0  0  0  0  0  0  0  0
  -22.3850  -12.0590   22.4110 H   0  0  0  0  0  0  0  0  0  0  0  0
  -21.0820  -13.1880   22.1820 H   0  0  0  0  0  0  0  0  0  0  0  0
  -25.3890  -15.2750   20.3300 N   0  0  0  0  0  0  0  0  0  0  0  0
  -24.6200  -15.9280   20.4370 H   0  0  0  0  0  0  0  0  0  0  0  0
  -26.2460  -15.7160   20.0210 H   0  0  0  0  0  0  0  0  0  0  0  0
  -28.6850  -21.0880   20.9660 C   0  0  0  0  0  2  0  0  0  0  0  0
  -28.8340  -22.2990   19.8940 C   0  0  0  0  0  2  0  0  0  0  0  0
  -28.0200  -23.7310   19.9070 C   0  0  0  0  0  2  0  0  0  0  0  0
  -28.3880  -25.0670   20.7500 C   0  0  0  0  0  2  0  0  0  0  0  0
  -28.3770  -26.4790   20.2130 O   0  0  0  0  0  0  0  0  0  0  0  0
  -24.6120  -31.9350   23.2390 C   0  0  0  0  0  0  0  0  0  0  0  0
  -27.2450  -27.3190   20.2460 C   0  0  0  0  0  0  0  0  0  0  0  0
  -23.4250  -30.5260   21.5960 C   0  0  0  0  0  3  0  0  0  0  0  0
  -24.8880  -28.9560   20.1970 C   0  0  0  0  0  0  0  0  0  0  0  0
  -25.9670  -30.8380   21.4310 C   0  0  0  0  0  2  0  0  0  0  0  0
  -26.0540  -29.4480   20.7970 C   0  0  0  0  0  0  0  0  0  0  0  0
  -27.2390  -28.6450   20.8000 C   0  0  0  0  0  3  0  0  0  0  0  0
  -26.0570  -26.8810   19.6340 C   0  0  0  0  0  3  0  0  0  0  0  0
  -24.8940  -27.6820   19.6040 C   0  0  0  0  0  3  0  0  0  0  0  0
  -23.6530  -29.8370   20.2240 C   0  0  0  0  0  2  0  0  0  0  0  0
  -24.6880  -31.1190   22.1460 N   0  0  0  0  0  0  0  0  0  0  0  0
  -23.5230  -32.2140   23.7630 O   0  0  0  0  0  0  0  0  0  0  0  0
  -22.7540  -29.5160   22.5590 C   0  0  0  0  0  0  0  0  0  0  0  0
  -21.4270  -29.3430   22.4290 N   0  0  0  0  0  0  0  0  0  0  0  0
  -23.4270  -28.8890   23.3810 O   0  0  0  0  0  0  0  0  0  0  0  0
  -20.9440  -29.9000   21.7380 H   0  0  0  0  0  0  0  0  0  0  0  0
  -18.0410  -28.1740   22.9390 C   0  0  0  0  0  0  0  0  0  0  0  0
  -20.6030  -28.4090   23.1990 C   0  0  0  0  0  3  0  0  0  0  0  0
  -20.6900  -26.9800   22.6140 C   0  0  0  0  0  2  0  0  0  0  0  0
  -19.5800  -26.6740   21.6030 C   0  0  0  0  0  2  0  0  0  0  0  0
  -18.2020  -26.8270   22.2540 C   0  0  0  0  0  2  0  0  0  0  0  0
  -19.1680  -28.9230   23.3680 C   0  0  0  0  0  0  0  0  0  0  0  0
  -18.9630  -30.1830   23.9690 C   0  0  0  0  0  3  0  0  0  0  0  0
  -17.6630  -30.6940   24.1460 C   0  0  0  0  0  3  0  0  0  0  0  0
  -16.5500  -29.9420   23.7330 C   0  0  0  0  0  3  0  0  0  0  0  0
  -16.7400  -28.6830   23.1350 C   0  0  0  0  0  3  0  0  0  0  0  0
  -25.8860  -32.5750   23.8700 C   0  0  0  0  0  3  0  0  0  0  0  0
  -26.3900  -31.8150   25.1590 C   0  0  1  0  0  0  0  0  0  0  0  0
  -25.2860  -31.5850   26.2170 C   0  0  0  0  0  1  0  0  0  0  0  0
  -26.9790  -30.4360   24.7850 C   0  0  0  0  0  1  0  0  0  0  0  0
  -27.5320  -32.6160   25.8270 C   0  0  0  0  0  1  0  0  0  0  0  0
  -25.5720  -33.9760   24.1890 N   0  0  0  0  0  0  0  0  0  0  0  0
  -25.9050  -35.0260   23.4270 C   0  0  0  0  0  0  0  0  0  0  0  0
  -26.5780  -34.9180   22.3990 O   0  0  0  0  0  0  0  0  0  0  0  0
  -24.9720  -34.1350   24.9860 H   0  0  0  0  0  0  0  0  0  0  0  0
  -24.1840  -36.8220   23.0470 C   0  0  0  0  0  1  0  0  0  0  0  0
  -25.4140  -36.4160   23.8750 C   0  0  0  0  0  3  0  0  0  0  0  0
  -27.5370  -37.3030   24.7340 C   0  0  0  0  0  1  0  0  0  0  0  0
  -26.4500  -37.4680   23.7730 N   0  0  0  0  0  0  0  0  0  0  0  0
  -26.0430  -38.3890   23.9090 H   0  0  0  0  0  0  0  0  0  0  0  0
  1 48  1  0
  1  2  1  0
  3  1  1  0
  5 10  1  0
  6  7  1  0
  6  5  1  0
  8  7  1  0
  8 23  1  0
  8  9  1  0
 10  4  1  0
 10  9  1  0
 11  4  2  0
 12 14  1  0
 13 12  1  0
 15 19  1  0
 16 13  1  0
 16 15  1  0
 16 18  1  0
 17 14  1  0
 18  1  1  0
 18 17  1  0
 19  4  1  0
 19 17  1  0
 20 21  2  0
 21 40  1  0
 22 21  1  0
 22 25  1  0
 23 20  1  0
 23 24  1  0
 24 22  2  0
 25 26  1  0
 26 27  2  0
 28 31  1  0
 28 27  1  0
 29 28  2  0
 30 29  1  0
 30 25  2  0
 31 32  1  0
 32 33  1  0
 33 34  2  0
 35 34  1  0
 35 39  1  0
 36 35  2  0
 37 32  2  0
 37 36  1  0
 38 37  1  0
 40 41  1  0
 41 44  1  0
 41 43  1  0
 42 40  2  0
 45 46  1  0
 45 20  1  0
 47 45  1  0
 49 50  1  0
 49 48  1  0
 50 51  1  0
 52 54  1  0
 52 51  1  0
 53 64  2  0
 54 59  1  0
 55 63  1  0
 55 65  1  0
 56 62  1  0
 56 58  1  0
 57 63  1  0
 58 59  2  0
 58 57  1  0
 60 54  2  0
 61 60  1  0
 61 56  2  0
 62 55  1  0
 63 53  1  0
 65 67  2  0
 66 65  1  0
 68 66  1  0
 69 78  2  0
 69 74  1  0
 70 66  1  0
 70 74  1  0
 71 70  1  0
 72 73  1  0
 72 71  1  0
 73 69  1  0
 74 75  2  0
 75 76  1  0
 77 76  2  0
 78 77  1  0
 79 53  1  0
 79 84  1  0
 79 80  1  0
 80 83  1  1
 80 81  1  0
 82 80  1  0
 84 87  1  0
 85 89  1  0
 85 84  1  0
 86 85  2  0
 89 88  1  0
 91 89  1  0
 91 92  1  0
 91 90  1  0
M  ISO  4   4 100  19 100  51 101  52 101
M  END
>  <TORSDO>  (54) 
F 20

>  <SCORE>  (54) 
-14.154

>  <name>  (54) 
53

>  <ligand_id>  (54) 
53

>  <original_smiles>  (54) 
[H]c1c([H])c([H])c2c(c1[H])C([H])([H])C([H])([H])C([H])([H])C2([H])N([H])C(=O)C1([H])N(C(=O)C([H])(N([H])C(=O)C([H])(N([H])C([H])([H])[H])C([H])([H])[H])C(C([H])([H])[H])(C([H])([H])[H])C([H])([H])[H])C([H])([H])c2c([H])c(OC([H])([H])C([H])([H])C([H])([H])C([H])([H])[N+]([H])([H])C3([H])C4([H])N(C(=O)N5C([H])([H])C([H])([H])C([H])([H])C([H])(n6nc(-c7c([H])c([H])c(Oc8c([H])c([H])c(F)c([H])c8F)c([H])c7[H])c(C(=O)N([H])[H])c6N([H])[H])C5([H])[H])C([H])([H])C3([H])C([H])([H])C([H])([H])C4([H])[H])c([H])c([H])c2C1([H])[H]

>  <smiles>  (54) 
[H]c1c([H])c([H])c2c(c1[H])C([H])([H])C([H])([H])C([H])([H])C2([H])N([H])C(=O)C1([H])N(C(=O)C([H])(N([H])C(=O)C([H])(N([H])C([H])([H])[H])C([H])([H])[H])C(C([H])([H])[H])(C([H])([H])[H])C([H])([H])[H])C([H])([H])c2c([H])c(OC([H])([H])C([H])([H])C([H])([H])C([H])([H])[N+]([H])([H])C3([H])C4([H])N(C(=O)N5C([H])([H])C([H])([H])C([H])([H])C([H])(n6nc(-c7c([H])c([H])c(Oc8c([H])c([H])c(F)c([H])c8F)c([H])c7[H])c(C(=O)N([H])[H])c6N([H])[H])C5([H])[H])C([H])([H])C3([H])C([H])([H])C([H])([H])C4([H])[H])c([H])c([H])c2C1([H])[H]

$$$$
54:0:0
     RDKit          3D

 99106  0  0  1  0  0  0  0  0999 V2000
  -29.9750  -19.5070   23.7010 C   0  0  0  0  0  2  0  0  0  0  0  0
  -31.0010  -18.8280   22.7530 C   0  0  0  0  0  3  0  0  0  0  0  0
  -31.1910  -19.5620   21.4170 C   0  0  0  0  0  0  0  0  0  0  0  0
  -30.2550  -19.6940   20.6180 O   0  0  0  0  0  0  0  0  0  0  0  0
  -32.5930  -20.0970   21.1110 C   0  0  0  0  0  2  0  0  0  0  0  0
  -32.5890  -20.7130   19.7730 N   0  0  0  0  0  4  0  0  0  0  0  0
  -32.3540  -20.0220   19.0850 H   0  0  0  0  0  0  0  0  0  0  0  0
  -33.4880  -21.1050   19.5580 H   0  0  0  0  0  0  0  0  0  0  0  0
  -31.8920  -21.4320   19.7350 H   0  0  0  0  0  0  0  0  0  0  0  0
  -30.6260  -17.3460   22.5140 C   0  0  0  0  0  2  0  0  0  0  0  0
  -31.5900  -16.5940   21.5730 C   0  0  0  0  0  2  0  0  0  0  0  0
  -31.5820  -15.0730   21.7720 C   0  0  0  0  0  2  0  0  0  0  0  0
  -30.2510  -14.1940   19.8600 C   0  0  0  0  0  0  0  0  0  0  0  0
  -29.6670  -12.2560   18.4650 C   0  0  0  0  0  2  0  0  0  0  0  0
  -28.5370  -12.4760   17.4510 C   0  0  0  0  0  2  0  0  0  0  0  0
  -27.1710  -12.2220   18.1100 C   0  0  0  0  0  2  0  0  0  0  0  0
  -27.0010  -13.0110   19.4330 C   0  0  0  0  0  3  0  0  0  0  0  0
  -28.2170  -12.8120   20.3640 C   0  0  0  0  0  2  0  0  0  0  0  0
  -29.4530  -13.1300   19.6240 N   0  0  0  0  0  0  0  0  0  0  0  0
  -30.9750  -14.7190   19.0080 O   0  0  0  0  0  0  0  0  0  0  0  0
  -30.4230  -14.4230   21.1670 N   0  0  0  0  0  0  0  0  0  0  0  0
  -29.8310  -13.8860   21.7840 H   0  0  0  0  0  0  0  0  0  0  0  0
  -24.7100  -13.4780   20.5160 C   0  0  0  0  0  0  0  0  0  0  0  0
  -23.7450  -12.6420   21.0100 C   0  0  0  0  0  0  0  0  0  0  0  0
  -24.2560  -11.3170   20.8600 C   0  0  0  0  0  0  0  0  0  0  0  0
  -25.7480  -12.6580   20.0990 N   0  0  0  0  0  0  0  0  0  0  0  0
  -25.4860  -11.3520   20.3600 N   0  0  0  0  0  0  0  0  0  0  0  0
  -23.6260  -10.0140   21.1070 C   0  0  0  0  0  0  0  0  0  0  0  0
  -24.1750   -9.0890   22.0230 C   0  0  0  0  0  3  0  0  0  0  0  0
  -23.5400   -7.8510   22.2580 C   0  0  0  0  0  3  0  0  0  0  0  0
  -22.3420   -7.5270   21.5770 C   0  0  0  0  0  0  0  0  0  0  0  0
  -21.8120   -8.4410   20.6490 C   0  0  0  0  0  3  0  0  0  0  0  0
  -22.4480   -9.6710   20.4130 C   0  0  0  0  0  3  0  0  0  0  0  0
  -21.6690   -6.3380   21.7220 O   0  0  0  0  0  0  0  0  0  0  0  0
  -21.6750   -5.6480   22.9080 C   0  0  0  0  0  0  0  0  0  0  0  0
  -21.2080   -6.2270   24.1090 C   0  0  0  0  0  3  0  0  0  0  0  0
  -21.1660   -5.4600   25.2910 C   0  0  0  0  0  3  0  0  0  0  0  0
  -21.5810   -4.1140   25.2730 C   0  0  0  0  0  0  0  0  0  0  0  0
  -22.0400   -3.5360   24.0770 C   0  0  0  0  0  3  0  0  0  0  0  0
  -22.0840   -4.2990   22.8970 C   0  0  0  0  0  0  0  0  0  0  0  0
  -22.5080   -3.7300   21.7440 F   0  0  0  0  0  0  0  0  0  0  0  0
  -21.5330   -3.3750   26.4050 F   0  0  0  0  0  0  0  0  0  0  0  0
  -22.3840  -13.0390   21.5050 C   0  0  0  0  0  0  0  0  0  0  0  0
  -21.8400  -12.2960   22.4620 N   0  0  0  0  0  0  0  0  0  0  0  0
  -21.8160  -14.0430   21.0780 O   0  0  0  0  0  0  0  0  0  0  0  0
  -22.3140  -11.4840   22.8290 H   0  0  0  0  0  0  0  0  0  0  0  0
  -20.9330  -12.5410   22.8330 H   0  0  0  0  0  0  0  0  0  0  0  0
  -24.7860  -14.8600   20.3690 N   0  0  0  0  0  0  0  0  0  0  0  0
  -24.0210  -15.4780   20.6210 H   0  0  0  0  0  0  0  0  0  0  0  0
  -25.5700  -15.3490   19.9540 H   0  0  0  0  0  0  0  0  0  0  0  0
  -30.1460  -21.0280   23.9270 C   0  0  0  0  0  2  0  0  0  0  0  0
  -29.4840  -21.8800   22.8280 C   0  0  0  0  0  2  0  0  0  0  0  0
  -29.7900  -23.3850   22.9240 C   0  0  0  0  0  2  0  0  0  0  0  0
  -29.2510  -24.0880   21.7420 N   0  0  0  0  0  4  0  0  0  0  0  0
  -28.2560  -23.9260   21.6840 H   0  0  0  0  0  0  0  0  0  0  0  0
  -29.6680  -23.6690   20.9270 H   0  0  0  0  0  0  0  0  0  0  0  0
  -29.5160  -25.5430   21.6900 C   0  0  0  0  0  2  0  0  0  0  0  0
  -29.7380  -26.0120   20.2390 C   0  0  0  0  0  2  0  0  0  0  0  0
  -29.5860  -27.4250   20.1460 O   0  0  0  0  0  0  0  0  0  0  0  0
  -24.8990  -31.6650   23.3610 C   0  0  0  0  0  0  0  0  0  0  0  0
  -28.3070  -27.9290   20.1230 C   0  0  0  0  0  0  0  0  0  0  0  0
  -23.9960  -30.2750   21.5240 C   0  0  0  0  0  3  0  0  0  0  0  0
  -25.7280  -29.0760   20.0910 C   0  0  0  0  0  0  0  0  0  0  0  0
  -26.4530  -30.9810   21.5400 C   0  0  0  0  0  2  0  0  0  0  0  0
  -26.7620  -29.6980   20.8000 C   0  0  0  0  0  0  0  0  0  0  0  0
  -28.0530  -29.1320   20.8130 C   0  0  0  0  0  3  0  0  0  0  0  0
  -27.2520  -27.3090   19.4120 C   0  0  0  0  0  3  0  0  0  0  0  0
  -25.9650  -27.8780   19.3960 C   0  0  0  0  0  3  0  0  0  0  0  0
  -24.3800  -29.7560   20.1120 C   0  0  0  0  0  2  0  0  0  0  0  0
  -25.1280  -30.9840   22.2020 N   0  0  0  0  0  0  0  0  0  0  0  0
  -23.7600  -31.7470   23.8400 O   0  0  0  0  0  0  0  0  0  0  0  0
  -23.4350  -29.0920   22.3470 C   0  0  0  0  0  0  0  0  0  0  0  0
  -22.1590  -28.7510   22.1030 N   0  0  0  0  0  0  0  0  0  0  0  0
  -24.1450  -28.4890   23.1550 O   0  0  0  0  0  0  0  0  0  0  0  0
  -21.6450  -29.3000   21.4280 H   0  0  0  0  0  0  0  0  0  0  0  0
  -18.9500  -27.1020   22.2440 C   0  0  0  0  0  0  0  0  0  0  0  0
  -21.4280  -27.6510   22.7270 C   0  0  0  0  0  3  0  0  0  0  0  0
  -21.7540  -26.3060   22.0360 C   0  0  0  0  0  2  0  0  0  0  0  0
  -20.7690  -25.9450   20.9200 C   0  0  0  0  0  2  0  0  0  0  0  0
  -19.3430  -25.8540   21.4720 C   0  0  0  0  0  2  0  0  0  0  0  0
  -19.9290  -27.9540   22.8190 C   0  0  0  0  0  0  0  0  0  0  0  0
  -19.5120  -29.1200   23.4970 C   0  0  0  0  0  3  0  0  0  0  0  0
  -18.1460  -29.4390   23.6080 C   0  0  0  0  0  3  0  0  0  0  0  0
  -17.1790  -28.5840   23.0510 C   0  0  0  0  0  3  0  0  0  0  0  0
  -17.5810  -27.4170   22.3770 C   0  0  0  0  0  3  0  0  0  0  0  0
  -26.0500  -32.3950   24.1220 C   0  0  0  0  0  3  0  0  0  0  0  0
  -25.5780  -33.7470   24.4430 N   0  0  0  0  0  0  0  0  0  0  0  0
  -25.8840  -34.8460   23.7380 C   0  0  0  0  0  0  0  0  0  0  0  0
  -26.6650  -34.8320   22.7830 O   0  0  0  0  0  0  0  0  0  0  0  0
  -24.8920  -33.8250   25.1810 H   0  0  0  0  0  0  0  0  0  0  0  0
  -24.0360  -36.4720   23.2330 C   0  0  0  0  0  1  0  0  0  0  0  0
  -25.2200  -36.1680   24.1620 C   0  0  0  0  0  3  0  0  0  0  0  0
  -27.1630  -37.2310   25.2260 C   0  0  0  0  0  1  0  0  0  0  0  0
  -26.1530  -37.3160   24.1740 N   0  0  0  0  0  0  0  0  0  0  0  0
  -25.6480  -38.1900   24.2920 H   0  0  0  0  0  0  0  0  0  0  0  0
  -26.5100  -31.6370   25.4290 C   0  0  1  0  0  0  0  0  0  0  0  0
  -25.3440  -31.2530   26.3690 C   0  0  0  0  0  1  0  0  0  0  0  0
  -27.2710  -30.3390   25.0650 C   0  0  0  0  0  1  0  0  0  0  0  0
  -27.4970  -32.5200   26.2280 C   0  0  0  0  0  1  0  0  0  0  0  0
  1 51  1  0
  2 10  1  0
  2  1  1  0
  3  2  1  0
  4  3  2  0
  5  3  1  0
  6  5  1  0
  7  6  1  0
  8  6  1  0
  9  6  1  0
 11 12  1  0
 11 10  1  0
 13 21  1  0
 14 19  1  0
 15 16  1  0
 15 14  1  0
 17 16  1  0
 17 26  1  0
 17 18  1  0
 19 13  1  0
 19 18  1  0
 20 13  2  0
 21 12  1  0
 21 22  1  0
 23 24  2  0
 24 43  1  0
 25 24  1  0
 25 28  1  0
 26 27  1  0
 26 23  1  0
 27 25  2  0
 28 29  1  0
 29 30  2  0
 31 34  1  0
 31 30  1  0
 32 31  2  0
 33 32  1  0
 33 28  2  0
 34 35  1  0
 35 36  1  0
 36 37  2  0
 38 37  1  0
 38 42  1  0
 39 38  2  0
 40 35  2  0
 40 39  1  0
 41 40  1  0
 43 44  1  0
 44 46  1  0
 44 47  1  0
 45 43  2  0
 48 23  1  0
 48 49  1  0
 50 48  1  0
 52 53  1  0
 52 51  1  0
 54 53  1  0
 55 54  1  0
 56 54  1  0
 57 54  1  0
 58 57  1  0
 59 58  1  0
 60 71  2  0
 61 59  1  0
 61 66  1  0
 62 70  1  0
 62 72  1  0
 63 69  1  0
 63 65  1  0
 64 70  1  0
 65 66  2  0
 65 64  1  0
 67 61  2  0
 68 67  1  0
 68 63  2  0
 69 62  1  0
 70 60  1  0
 72 74  2  0
 73 72  1  0
 75 73  1  0
 76 85  2  0
 76 81  1  0
 77 73  1  0
 77 81  1  0
 78 77  1  0
 79 80  1  0
 79 78  1  0
 80 76  1  0
 81 82  2  0
 82 83  1  0
 84 83  2  0
 85 84  1  0
 86 60  1  0
 86 87  1  0
 86 96  1  0
 87 90  1  0
 88 92  1  0
 88 87  1  0
 89 88  2  0
 92 91  1  0
 92 94  1  0
 94 95  1  0
 94 93  1  0
 96 99  1  1
 96 97  1  0
 98 96  1  0
M  ISO  4  13 100  21 100  58 101  59 101
M  END
>  <TORSDO>  (55) 
F 29

>  <SCORE>  (55) 
-7.225

>  <name>  (55) 
54

>  <ligand_id>  (55) 
54

>  <original_smiles>  (55) 
[H]c1c([H])c([H])c2c(c1[H])C([H])([H])C([H])([H])C([H])([H])C2([H])N([H])C(=O)C1([H])N(C(=O)C([H])(N([H])C(=O)C([H])(N([H])C([H])([H])[H])C([H])([H])[H])C(C([H])([H])[H])(C([H])([H])[H])C([H])([H])[H])C([H])([H])c2c([H])c(OC([H])([H])C([H])([H])[N+]([H])([H])C([H])([H])C([H])([H])C([H])([H])C([H])([H])C([H])(C(=O)C([H])([H])[N+]([H])([H])[H])C([H])([H])C([H])([H])C([H])([H])N([H])C(=O)N3C([H])([H])C([H])([H])C([H])([H])C([H])(n4nc(-c5c([H])c([H])c(Oc6c([H])c([H])c(F)c([H])c6F)c([H])c5[H])c(C(=O)N([H])[H])c4N([H])[H])C3([H])[H])c([H])c([H])c2C1([H])[H]

>  <smiles>  (55) 
[H]c1c([H])c([H])c2c(c1[H])C([H])([H])C([H])([H])C([H])([H])C2([H])N([H])C(=O)C1([H])N(C(=O)C([H])(N([H])C(=O)C([H])(N([H])C([H])([H])[H])C([H])([H])[H])C(C([H])([H])[H])(C([H])([H])[H])C([H])([H])[H])C([H])([H])c2c([H])c(OC([H])([H])C([H])([H])[N+]([H])([H])C([H])([H])C([H])([H])C([H])([H])C([H])([H])C([H])(C(=O)C([H])([H])[N+]([H])([H])[H])C([H])([H])C([H])([H])C([H])([H])N([H])C(=O)N3C([H])([H])C([H])([H])C([H])([H])C([H])(n4nc(-c5c([H])c([H])c(Oc6c([H])c([H])c(F)c([H])c6F)c([H])c5[H])c(C(=O)N([H])[H])c4N([H])[H])C3([H])[H])c([H])c([H])c2C1([H])[H]

$$$$
55:0:0
     RDKit          3D

 96105  0  0  1  0  0  0  0  0999 V2000
  -31.0220  -19.7810   19.3880 C   0  0  0  0  0  2  0  0  0  0  0  0
  -31.4670  -17.2500   19.4490 C   0  0  0  0  0  2  0  0  0  0  0  0
  -28.8910  -17.4660   19.3680 C   0  0  0  0  0  2  0  0  0  0  0  0
  -29.5290  -19.9950   19.0400 C   0  0  0  0  0  3  0  0  0  0  0  0
  -30.1220  -16.9590   20.1940 C   0  0  0  0  0  3  0  0  0  0  0  0
  -31.4350  -18.5230   18.5870 C   0  0  0  0  0  3  0  0  0  0  0  0
  -29.1610  -18.6430   18.3740 C   0  0  0  0  0  3  0  0  0  0  0  0
  -30.3620  -18.3240   17.6060 N   0  0  0  0  0  4  0  0  0  0  0  0
  -30.3500  -17.3920   17.2220 H   0  0  0  0  0  0  0  0  0  0  0  0
  -30.4630  -18.9850   16.8510 H   0  0  0  0  0  0  0  0  0  0  0  0
  -30.6730  -14.4450   20.4270 C   0  0  0  0  0  0  0  0  0  0  0  0
  -30.3400  -12.2890   19.3210 C   0  0  0  0  0  2  0  0  0  0  0  0
  -29.4130  -12.5260   18.1110 C   0  0  0  0  0  2  0  0  0  0  0  0
  -27.9340  -12.4140   18.5280 C   0  0  0  0  0  2  0  0  0  0  0  0
  -27.5980  -13.2460   19.7950 C   0  0  0  0  0  3  0  0  0  0  0  0
  -28.6480  -13.0250   20.9090 C   0  0  0  0  0  2  0  0  0  0  0  0
  -29.9790  -13.2820   20.3410 N   0  0  0  0  0  0  0  0  0  0  0  0
  -31.8610  -14.5290   20.1210 O   0  0  0  0  0  0  0  0  0  0  0  0
  -29.8970  -15.5380   20.5760 N   0  0  0  0  0  0  0  0  0  0  0  0
  -28.9550  -15.3180   20.8580 H   0  0  0  0  0  0  0  0  0  0  0  0
  -25.2000  -13.8740   20.4830 C   0  0  0  0  0  0  0  0  0  0  0  0
  -24.1250  -13.1110   20.8510 C   0  0  0  0  0  0  0  0  0  0  0  0
  -24.5790  -11.7570   20.8350 C   0  0  0  0  0  0  0  0  0  0  0  0
  -26.2420  -12.9850   20.2680 N   0  0  0  0  0  0  0  0  0  0  0  0
  -25.8710  -11.7070   20.5390 N   0  0  0  0  0  0  0  0  0  0  0  0
  -23.8440  -10.5000   21.0290 C   0  0  0  0  0  0  0  0  0  0  0  0
  -24.2710   -9.5320   21.9660 C   0  0  0  0  0  3  0  0  0  0  0  0
  -23.5380   -8.3390   22.1470 C   0  0  0  0  0  3  0  0  0  0  0  0
  -22.3640   -8.1070   21.3910 C   0  0  0  0  0  0  0  0  0  0  0  0
  -21.9570   -9.0630   20.4430 C   0  0  0  0  0  3  0  0  0  0  0  0
  -22.6910  -10.2460   20.2610 C   0  0  0  0  0  3  0  0  0  0  0  0
  -21.6030   -6.9660   21.4820 O   0  0  0  0  0  0  0  0  0  0  0  0
  -21.5580   -6.2200   22.6320 C   0  0  0  0  0  0  0  0  0  0  0  0
  -21.1580   -6.7760   23.8660 C   0  0  0  0  0  3  0  0  0  0  0  0
  -21.0600   -5.9570   25.0090 C   0  0  0  0  0  3  0  0  0  0  0  0
  -21.3500   -4.5830   24.9180 C   0  0  0  0  0  0  0  0  0  0  0  0
  -21.7420   -4.0250   23.6870 C   0  0  0  0  0  3  0  0  0  0  0  0
  -21.8420   -4.8420   22.5470 C   0  0  0  0  0  0  0  0  0  0  0  0
  -22.2000   -4.2970   21.3600 F   0  0  0  0  0  0  0  0  0  0  0  0
  -21.2480   -3.7930   26.0120 F   0  0  0  0  0  0  0  0  0  0  0  0
  -22.7280  -13.5980   21.1070 C   0  0  0  0  0  0  0  0  0  0  0  0
  -21.9870  -12.9120   21.9710 N   0  0  0  0  0  0  0  0  0  0  0  0
  -22.3010  -14.6220   20.5750 O   0  0  0  0  0  0  0  0  0  0  0  0
  -22.3440  -12.0840   22.4250 H   0  0  0  0  0  0  0  0  0  0  0  0
  -21.0490  -13.2210   22.1820 H   0  0  0  0  0  0  0  0  0  0  0  0
  -25.3750  -15.2420   20.2920 N   0  0  0  0  0  0  0  0  0  0  0  0
  -24.6090  -15.9010   20.3840 H   0  0  0  0  0  0  0  0  0  0  0  0
  -26.2230  -15.6730   19.9490 H   0  0  0  0  0  0  0  0  0  0  0  0
  -29.2290  -21.2280   18.1080 C   0  0  0  0  0  3  0  0  0  0  0  0
  -29.8010  -22.4110   15.8620 C   0  0  0  0  0  1  0  0  0  0  0  0
  -30.3040  -21.5480   17.0290 C   0  0  0  0  0  2  0  0  0  0  0  0
  -28.7720  -22.5070   18.8540 C   0  0  0  0  0  2  0  0  0  0  0  0
  -29.7740  -23.1580   19.8370 C   0  0  0  0  0  2  0  0  0  0  0  0
  -29.7540  -24.7070   19.8660 C   0  0  0  0  0  2  0  0  0  0  0  0
  -28.3500  -25.3370   19.9020 C   0  0  0  0  0  2  0  0  0  0  0  0
  -28.4080  -26.7400   20.1680 O   0  0  0  0  0  0  0  0  0  0  0  0
  -24.5880  -31.9060   23.2390 C   0  0  0  0  0  0  0  0  0  0  0  0
  -27.2140  -27.4390   20.1740 C   0  0  0  0  0  0  0  0  0  0  0  0
  -23.3750  -30.5010   21.6050 C   0  0  0  0  0  3  0  0  0  0  0  0
  -24.8190  -28.9510   20.1920 C   0  0  0  0  0  0  0  0  0  0  0  0
  -25.9050  -30.8460   21.4080 C   0  0  0  0  0  2  0  0  0  0  0  0
  -25.9830  -29.4740   20.7720 C   0  0  0  0  0  0  0  0  0  0  0  0
  -27.1810  -28.7270   20.7560 C   0  0  0  0  0  3  0  0  0  0  0  0
  -26.0210  -26.9230   19.6090 C   0  0  0  0  0  3  0  0  0  0  0  0
  -24.8320  -27.6730   19.6120 C   0  0  0  0  0  3  0  0  0  0  0  0
  -23.5810  -29.8160   20.2290 C   0  0  0  0  0  2  0  0  0  0  0  0
  -24.6400  -31.1000   22.1400 N   0  0  0  0  0  0  0  0  0  0  0  0
  -23.5070  -32.1840   23.7780 O   0  0  0  0  0  0  0  0  0  0  0  0
  -22.7210  -29.4850   22.5690 C   0  0  0  0  0  0  0  0  0  0  0  0
  -21.3940  -29.3100   22.4430 N   0  0  0  0  0  0  0  0  0  0  0  0
  -23.4000  -28.8580   23.3850 O   0  0  0  0  0  0  0  0  0  0  0  0
  -20.9070  -29.8680   21.7560 H   0  0  0  0  0  0  0  0  0  0  0  0
  -18.0130  -28.1420   22.9500 C   0  0  0  0  0  0  0  0  0  0  0  0
  -20.5730  -28.3810   23.2190 C   0  0  0  0  0  3  0  0  0  0  0  0
  -20.6640  -26.9480   22.6470 C   0  0  0  0  0  2  0  0  0  0  0  0
  -19.5590  -26.6300   21.6360 C   0  0  0  0  0  2  0  0  0  0  0  0
  -18.1790  -26.7880   22.2800 C   0  0  0  0  0  2  0  0  0  0  0  0
  -19.1380  -28.8970   23.3750 C   0  0  0  0  0  0  0  0  0  0  0  0
  -18.9300  -30.1660   23.9590 C   0  0  0  0  0  3  0  0  0  0  0  0
  -17.6290  -30.6780   24.1230 C   0  0  0  0  0  3  0  0  0  0  0  0
  -16.5180  -29.9200   23.7150 C   0  0  0  0  0  3  0  0  0  0  0  0
  -16.7110  -28.6540   23.1340 C   0  0  0  0  0  3  0  0  0  0  0  0
  -25.8760  -32.5350   23.8540 C   0  0  0  0  0  3  0  0  0  0  0  0
  -25.5720  -33.9340   24.1800 N   0  0  0  0  0  0  0  0  0  0  0  0
  -25.9090  -34.9830   23.4180 C   0  0  0  0  0  0  0  0  0  0  0  0
  -26.5800  -34.8740   22.3870 O   0  0  0  0  0  0  0  0  0  0  0  0
  -24.9810  -34.0930   24.9830 H   0  0  0  0  0  0  0  0  0  0  0  0
  -24.1890  -36.7790   23.0480 C   0  0  0  0  0  1  0  0  0  0  0  0
  -25.4240  -36.3740   23.8700 C   0  0  0  0  0  3  0  0  0  0  0  0
  -27.5560  -37.2470   24.7150 C   0  0  0  0  0  1  0  0  0  0  0  0
  -26.4620  -37.4220   23.7650 N   0  0  0  0  0  0  0  0  0  0  0  0
  -26.0590  -38.3440   23.9100 H   0  0  0  0  0  0  0  0  0  0  0  0
  -26.3990  -31.7650   25.1270 C   0  0  1  0  0  0  0  0  0  0  0  0
  -25.3110  -31.5300   26.2010 C   0  0  0  0  0  1  0  0  0  0  0  0
  -26.9780  -30.3870   24.7340 C   0  0  0  0  0  1  0  0  0  0  0  0
  -27.5520  -32.5600   25.7830 C   0  0  0  0  0  1  0  0  0  0  0  0
  2  5  1  0
  3  5  1  0
  4 49  1  0
  4  1  1  0
  5 19  1  0
  6  1  1  0
  6  2  1  0
  7  4  1  0
  7  3  1  0
  8  7  1  0
  8  6  1  0
  9  8  1  0
 10  8  1  0
 11 19  1  0
 12 17  1  0
 13 14  1  0
 13 12  1  0
 15 14  1  0
 15 24  1  0
 15 16  1  0
 17 11  1  0
 17 16  1  0
 18 11  2  0
 19 20  1  0
 21 22  2  0
 22 41  1  0
 23 22  1  0
 23 26  1  0
 24 21  1  0
 24 25  1  0
 25 23  2  0
 26 27  1  0
 27 28  2  0
 29 32  1  0
 29 28  1  0
 30 29  2  0
 31 30  1  0
 31 26  2  0
 32 33  1  0
 33 34  1  0
 34 35  2  0
 36 35  1  0
 36 40  1  0
 37 36  2  0
 38 33  2  0
 38 37  1  0
 39 38  1  0
 41 42  1  0
 42 45  1  0
 42 44  1  0
 43 41  2  0
 46 47  1  0
 46 21  1  0
 48 46  1  0
 49 51  1  0
 49 52  1  0
 50 51  1  0
 52 53  1  0
 53 54  1  0
 54 55  1  0
 55 56  1  0
 56 58  1  0
 57 68  2  0
 58 63  1  0
 59 67  1  0
 59 69  1  0
 60 66  1  0
 60 62  1  0
 61 67  1  0
 62 61  1  0
 63 62  2  0
 64 65  1  0
 64 58  2  0
 65 60  2  0
 66 59  1  0
 67 57  1  0
 69 71  2  0
 70 69  1  0
 72 70  1  0
 73 82  2  0
 73 78  1  0
 74 70  1  0
 74 78  1  0
 75 74  1  0
 76 77  1  0
 76 75  1  0
 77 73  1  0
 78 79  2  0
 79 80  1  0
 81 80  2  0
 82 81  1  0
 83 57  1  0
 83 84  1  0
 83 93  1  0
 84 87  1  0
 85 89  1  0
 85 84  1  0
 86 85  2  0
 89 88  1  0
 91 89  1  0
 91 92  1  0
 91 90  1  0
 93 96  1  1
 93 94  1  0
 95 93  1  0
M  ISO  4  11 100  19 100  55 101  56 101
M  END
>  <TORSDO>  (56) 
F 22

>  <SCORE>  (56) 
-13.185

>  <name>  (56) 
55

>  <ligand_id>  (56) 
55

>  <original_smiles>  (56) 
[H]c1c([H])c([H])c2c(c1[H])C([H])([H])C([H])([H])C([H])([H])C2([H])N([H])C(=O)C1([H])N(C(=O)C([H])(N([H])C(=O)C([H])(N([H])C([H])([H])[H])C([H])([H])[H])C(C([H])([H])[H])(C([H])([H])[H])C([H])([H])[H])C([H])([H])c2c([H])c(OC([H])([H])C([H])([H])C([H])([H])C([H])([H])C([H])(C([H])([H])C([H])([H])[H])C3([H])C([H])([H])C4([H])C([H])([H])C([H])(N([H])C(=O)N5C([H])([H])C([H])([H])C([H])([H])C([H])(n6nc(-c7c([H])c([H])c(Oc8c([H])c([H])c(F)c([H])c8F)c([H])c7[H])c(C(=O)N([H])[H])c6N([H])[H])C5([H])[H])C([H])([H])C3([H])[N+]4([H])[H])c([H])c([H])c2C1([H])[H]

>  <smiles>  (56) 
[H]c1c([H])c([H])c2c(c1[H])C([H])([H])C([H])([H])C([H])([H])C2([H])N([H])C(=O)C1([H])N(C(=O)C([H])(N([H])C(=O)C([H])(N([H])C([H])([H])[H])C([H])([H])[H])C(C([H])([H])[H])(C([H])([H])[H])C([H])([H])[H])C([H])([H])c2c([H])c(OC([H])([H])C([H])([H])C([H])([H])C([H])([H])C([H])(C([H])([H])C([H])([H])[H])C3([H])C([H])([H])C4([H])C([H])([H])C([H])(N([H])C(=O)N5C([H])([H])C([H])([H])C([H])([H])C([H])(n6nc(-c7c([H])c([H])c(Oc8c([H])c([H])c(F)c([H])c8F)c([H])c7[H])c(C(=O)N([H])[H])c6N([H])[H])C5([H])[H])C([H])([H])C3([H])[N+]4([H])[H])c([H])c([H])c2C1([H])[H]

$$$$
56:0:0
     RDKit          3D

 95104  0  0  1  0  0  0  0  0999 V2000
  -25.2500  -23.7090   21.4890 C   0  0  0  0  0  0  0  0  0  0  0  0
  -25.1420  -23.4110   20.2250 C   0  0  0  0  0  0  0  0  0  0  0  0
  -23.9550  -24.1130   22.0150 C   0  0  0  0  0  0  0  0  0  0  0  0
  -26.6480  -24.0350   21.9120 C   0  0  0  0  0  2  0  0  0  0  0  0
  -23.7490  -23.4840   19.6610 C   0  0  0  0  0  3  0  0  0  0  0  0
  -26.4680  -23.3970   19.5280 C   0  0  0  0  0  2  0  0  0  0  0  0
  -22.9140  -23.9270   20.8990 C   0  0  0  0  0  3  0  0  0  0  0  0
  -27.5230  -23.5010   20.7040 C   0  0  2  0  0  0  0  0  0  0  0  0
  -23.6950  -24.5490   23.1370 O   0  0  0  0  0  0  0  0  0  0  0  0
  -28.0130  -22.0320   21.0800 C   0  0  0  0  0  2  0  0  0  0  0  0
  -28.5910  -21.0570   19.9810 C   0  0  0  0  0  2  0  0  0  0  0  0
  -28.1070  -19.5560   19.9950 C   0  0  0  0  0  2  0  0  0  0  0  0
  -28.9570  -18.4540   20.7340 C   0  0  0  0  0  2  0  0  0  0  0  0
  -29.7360  -17.3960   19.8620 C   0  0  0  0  0  2  0  0  0  0  0  0
  -30.5770  -14.9840   20.0930 C   0  0  0  0  0  0  0  0  0  0  0  0
  -30.4560  -12.6860   19.1830 C   0  0  0  0  0  2  0  0  0  0  0  0
  -29.4790  -12.7120   17.9840 C   0  0  0  0  0  2  0  0  0  0  0  0
  -28.0220  -12.5320   18.4560 C   0  0  0  0  0  2  0  0  0  0  0  0
  -27.6590  -13.4540   19.6510 C   0  0  0  0  0  3  0  0  0  0  0  0
  -28.7440  -13.3920   20.7510 C   0  0  0  0  0  2  0  0  0  0  0  0
  -30.0290  -13.7340   20.1280 N   0  0  0  0  0  0  0  0  0  0  0  0
  -31.6980  -15.1980   19.6220 O   0  0  0  0  0  0  0  0  0  0  0  0
  -29.7190  -15.9990   20.3860 N   0  0  0  0  0  0  0  0  0  0  0  0
  -28.8490  -15.6990   20.7950 H   0  0  0  0  0  0  0  0  0  0  0  0
  -25.2880  -14.0250   20.4660 C   0  0  0  0  0  0  0  0  0  0  0  0
  -24.2430  -13.2370   20.8600 C   0  0  0  0  0  0  0  0  0  0  0  0
  -24.7150  -11.8890   20.7860 C   0  0  0  0  0  0  0  0  0  0  0  0
  -26.3310  -13.1590   20.1780 N   0  0  0  0  0  0  0  0  0  0  0  0
  -25.9930  -11.8690   20.4290 N   0  0  0  0  0  0  0  0  0  0  0  0
  -24.0080  -10.6170   20.9800 C   0  0  0  0  0  0  0  0  0  0  0  0
  -24.4360   -9.6710   21.9390 C   0  0  0  0  0  3  0  0  0  0  0  0
  -23.7290   -8.4630   22.1170 C   0  0  0  0  0  3  0  0  0  0  0  0
  -22.5790   -8.1910   21.3380 C   0  0  0  0  0  0  0  0  0  0  0  0
  -22.1700   -9.1260   20.3700 C   0  0  0  0  0  3  0  0  0  0  0  0
  -22.8780  -10.3260   20.1890 C   0  0  0  0  0  3  0  0  0  0  0  0
  -21.8440   -7.0320   21.4250 O   0  0  0  0  0  0  0  0  0  0  0  0
  -21.7270   -6.3420   22.6050 C   0  0  0  0  0  0  0  0  0  0  0  0
  -21.1860   -6.9390   23.7650 C   0  0  0  0  0  3  0  0  0  0  0  0
  -21.0180   -6.1730   24.9370 C   0  0  0  0  0  3  0  0  0  0  0  0
  -21.3800   -4.8130   24.9480 C   0  0  0  0  0  0  0  0  0  0  0  0
  -21.9140   -4.2160   23.7910 C   0  0  0  0  0  3  0  0  0  0  0  0
  -22.0850   -4.9790   22.6230 C   0  0  0  0  0  0  0  0  0  0  0  0
  -22.5780   -4.3940   21.5050 F   0  0  0  0  0  0  0  0  0  0  0  0
  -21.2120   -4.0750   26.0710 F   0  0  0  0  0  0  0  0  0  0  0  0
  -22.8520  -13.6930   21.1920 C   0  0  0  0  0  0  0  0  0  0  0  0
  -22.1660  -12.9820   22.0790 N   0  0  0  0  0  0  0  0  0  0  0  0
  -22.3830  -14.7220   20.7020 O   0  0  0  0  0  0  0  0  0  0  0  0
  -22.5560  -12.1510   22.4980 H   0  0  0  0  0  0  0  0  0  0  0  0
  -21.2360  -13.2740   22.3430 H   0  0  0  0  0  0  0  0  0  0  0  0
  -25.4360  -15.4010   20.3030 N   0  0  0  0  0  0  0  0  0  0  0  0
  -24.6680  -16.0460   20.4430 H   0  0  0  0  0  0  0  0  0  0  0  0
  -26.2610  -15.8480   19.9260 H   0  0  0  0  0  0  0  0  0  0  0  0
  -28.7010  -24.5130   20.3240 C   0  0  0  0  0  2  0  0  0  0  0  0
  -29.1020  -25.7200   21.2670 C   0  0  0  0  0  2  0  0  0  0  0  0
  -29.1690  -27.0480   20.6650 O   0  0  0  0  0  0  0  0  0  0  0  0
  -24.9290  -32.0880   23.4850 C   0  0  0  0  0  0  0  0  0  0  0  0
  -27.9830  -27.7630   20.5950 C   0  0  0  0  0  0  0  0  0  0  0  0
  -23.8990  -30.6180   21.7870 C   0  0  0  0  0  3  0  0  0  0  0  0
  -25.5190  -29.1700   20.4440 C   0  0  0  0  0  0  0  0  0  0  0  0
  -26.4100  -31.1170   21.7240 C   0  0  0  0  0  2  0  0  0  0  0  0
  -26.6140  -29.7510   21.0950 C   0  0  0  0  0  0  0  0  0  0  0  0
  -27.8550  -29.0610   21.1550 C   0  0  0  0  0  3  0  0  0  0  0  0
  -26.8650  -27.2100   19.9350 C   0  0  0  0  0  3  0  0  0  0  0  0
  -25.6420  -27.9010   19.8570 C   0  0  0  0  0  3  0  0  0  0  0  0
  -24.2250  -29.9540   20.4220 C   0  0  0  0  0  2  0  0  0  0  0  0
  -25.0950  -31.2880   22.3920 N   0  0  0  0  0  0  0  0  0  0  0  0
  -23.8050  -32.2990   23.9660 O   0  0  0  0  0  0  0  0  0  0  0  0
  -23.2550  -29.5560   22.7110 C   0  0  0  0  0  0  0  0  0  0  0  0
  -21.9470  -29.3040   22.5300 N   0  0  0  0  0  0  0  0  0  0  0  0
  -23.9370  -28.9640   23.5530 O   0  0  0  0  0  0  0  0  0  0  0  0
  -21.4410  -29.8730   21.8650 H   0  0  0  0  0  0  0  0  0  0  0  0
  -18.6250  -27.9160   22.8750 C   0  0  0  0  0  0  0  0  0  0  0  0
  -21.1540  -28.2990   23.2420 C   0  0  0  0  0  3  0  0  0  0  0  0
  -21.3560  -26.8910   22.6320 C   0  0  0  0  0  2  0  0  0  0  0  0
  -20.2960  -26.5460   21.5790 C   0  0  0  0  0  2  0  0  0  0  0  0
  -18.8960  -26.5900   22.1870 C   0  0  0  0  0  2  0  0  0  0  0  0
  -19.6860  -28.7260   23.3600 C   0  0  0  0  0  0  0  0  0  0  0  0
  -19.3800  -29.9660   23.9610 C   0  0  0  0  0  3  0  0  0  0  0  0
  -18.0470  -30.4000   24.0810 C   0  0  0  0  0  3  0  0  0  0  0  0
  -17.0010  -29.5870   23.6130 C   0  0  0  0  0  3  0  0  0  0  0  0
  -17.2900  -28.3490   23.0150 C   0  0  0  0  0  3  0  0  0  0  0  0
  -26.1370  -32.7940   24.1680 C   0  0  0  0  0  3  0  0  0  0  0  0
  -25.7660  -34.1980   24.3840 N   0  0  0  0  0  0  0  0  0  0  0  0
  -26.1130  -35.2110   23.5750 C   0  0  0  0  0  0  0  0  0  0  0  0
  -26.8490  -35.0640   22.5960 O   0  0  0  0  0  0  0  0  0  0  0  0
  -25.1150  -34.3850   25.1330 H   0  0  0  0  0  0  0  0  0  0  0  0
  -24.3440  -36.9020   23.0020 C   0  0  0  0  0  1  0  0  0  0  0  0
  -25.5510  -36.6040   23.9050 C   0  0  0  0  0  3  0  0  0  0  0  0
  -27.6030  -37.6310   24.7840 C   0  0  0  0  0  1  0  0  0  0  0  0
  -26.5490  -37.6860   23.7720 N   0  0  0  0  0  0  0  0  0  0  0  0
  -26.1030  -38.5970   23.8300 H   0  0  0  0  0  0  0  0  0  0  0  0
  -26.5640  -32.1180   25.5280 C   0  0  1  0  0  0  0  0  0  0  0  0
  -25.3800  -31.8880   26.4960 C   0  0  0  0  0  1  0  0  0  0  0  0
  -27.2470  -30.7540   25.2710 C   0  0  0  0  0  1  0  0  0  0  0  0
  -27.6100  -33.0030   26.2450 C   0  0  0  0  0  1  0  0  0  0  0  0
  1  4  1  0
  1  3  1  0
  2  1  2  0
  3  9  2  0
  5  2  1  0
  5  7  2  0
  6  2  1  0
  6  8  1  0
  7  3  1  0
  8 53  1  6
  8 10  1  0
  8  4  1  0
 11 12  1  0
 11 10  1  0
 12 13  1  0
 14 23  1  0
 14 13  1  0
 15 21  1  0
 15 23  1  0
 16 21  1  0
 17 18  1  0
 17 16  1  0
 19 18  1  0
 19 28  1  0
 19 20  1  0
 21 20  1  0
 22 15  2  0
 23 24  1  0
 25 26  2  0
 26 45  1  0
 27 26  1  0
 27 30  1  0
 28 29  1  0
 28 25  1  0
 29 27  2  0
 30 31  1  0
 31 32  2  0
 33 36  1  0
 33 32  1  0
 34 33  2  0
 35 34  1  0
 35 30  2  0
 36 37  1  0
 37 42  2  0
 37 38  1  0
 38 39  2  0
 39 40  1  0
 40 44  1  0
 41 40  2  0
 42 41  1  0
 43 42  1  0
 45 46  1  0
 46 49  1  0
 46 48  1  0
 47 45  2  0
 50 51  1  0
 50 25  1  0
 52 50  1  0
 53 54  1  0
 55 54  1  0
 56 67  2  0
 57 55  1  0
 57 62  1  0
 58 66  1  0
 58 68  1  0
 59 61  1  0
 60 66  1  0
 61 62  2  0
 61 60  1  0
 63 57  2  0
 64 63  1  0
 64 59  2  0
 65 59  1  0
 65 58  1  0
 66 56  1  0
 68 70  2  0
 69 68  1  0
 71 69  1  0
 72 81  2  0
 72 77  1  0
 73 69  1  0
 73 77  1  0
 74 73  1  0
 75 76  1  0
 75 74  1  0
 76 72  1  0
 77 78  2  0
 78 79  1  0
 80 79  2  0
 81 80  1  0
 82 56  1  0
 82 83  1  0
 82 92  1  0
 83 86  1  0
 84 88  1  0
 84 83  1  0
 85 84  2  0
 88 87  1  0
 90 91  1  0
 90 88  1  0
 90 89  1  0
 92 95  1  1
 92 93  1  0
 94 92  1  0
M  ISO  4  15 100  23 100  54 101  55 101
M  END
>  <TORSDO>  (57) 
F 23

>  <SCORE>  (57) 
-12.533

>  <name>  (57) 
56

>  <ligand_id>  (57) 
56

>  <original_smiles>  (57) 
[H]c1c([H])c([H])c2c(c1[H])C([H])([H])C([H])([H])C([H])([H])C2([H])N([H])C(=O)C1([H])N(C(=O)C([H])(N([H])C(=O)C([H])(N([H])C([H])([H])[H])C([H])([H])[H])C(C([H])([H])[H])(C([H])([H])[H])C([H])([H])[H])C([H])([H])c2c([H])c(OC([H])([H])C([H])([H])C3(C([H])([H])C([H])([H])C([H])([H])C([H])([H])C([H])([H])N([H])C(=O)N4C([H])([H])C([H])([H])C([H])([H])C([H])(n5nc(-c6c([H])c([H])c(Oc7c([H])c([H])c(F)c([H])c7F)c([H])c6[H])c(C(=O)N([H])[H])c5N([H])[H])C4([H])[H])C([H])([H])C4=C(C([H])([H])C([H])([H])C4=O)C3([H])[H])c([H])c([H])c2C1([H])[H]

>  <smiles>  (57) 
[H]c1c([H])c([H])c2c(c1[H])C([H])([H])C([H])([H])C([H])([H])C2([H])N([H])C(=O)C1([H])N(C(=O)C([H])(N([H])C(=O)C([H])(N([H])C([H])([H])[H])C([H])([H])[H])C(C([H])([H])[H])(C([H])([H])[H])C([H])([H])[H])C([H])([H])c2c([H])c(OC([H])([H])C([H])([H])C3(C([H])([H])C([H])([H])C([H])([H])C([H])([H])C([H])([H])N([H])C(=O)N4C([H])([H])C([H])([H])C([H])([H])C([H])(n5nc(-c6c([H])c([H])c(Oc7c([H])c([H])c(F)c([H])c7F)c([H])c6[H])c(C(=O)N([H])[H])c5N([H])[H])C4([H])[H])C([H])([H])C4=C(C([H])([H])C([H])([H])C4=O)C3([H])[H])c([H])c([H])c2C1([H])[H]

$$$$
57:0:0
     RDKit          3D

 96103  0  0  1  0  0  0  0  0999 V2000
  -30.8660  -21.4550   20.9510 C   0  0  0  0  0  2  0  0  0  0  0  0
  -31.6620  -20.1390   21.2770 C   0  0  0  0  0  3  0  0  0  0  0  0
  -32.6580  -19.7500   20.1520 C   0  0  0  0  0  2  0  0  0  0  0  0
  -33.7540  -20.7200   19.9790 N   0  0  0  0  0  4  0  0  0  0  0  0
  -34.3100  -20.7930   20.8130 H   0  0  0  0  0  0  0  0  0  0  0  0
  -33.4030  -21.6290   19.7400 H   0  0  0  0  0  0  0  0  0  0  0  0
  -34.3560  -20.4190   19.2330 H   0  0  0  0  0  0  0  0  0  0  0  0
  -30.8150  -18.9310   21.8100 C   0  0  0  0  0  2  0  0  0  0  0  0
  -30.5030  -17.6880   20.9150 C   0  0  0  0  0  2  0  0  0  0  0  0
  -30.8240  -16.3570   21.6490 C   0  0  0  0  0  2  0  0  0  0  0  0
  -30.6940  -14.2820   20.2140 C   0  0  0  0  0  0  0  0  0  0  0  0
  -30.2550  -12.2220   18.9160 C   0  0  0  0  0  2  0  0  0  0  0  0
  -29.2480  -12.5020   17.7840 C   0  0  0  0  0  2  0  0  0  0  0  0
  -27.7980  -12.3730   18.2920 C   0  0  0  0  0  2  0  0  0  0  0  0
  -27.5540  -13.1610   19.6060 C   0  0  0  0  0  3  0  0  0  0  0  0
  -28.6580  -12.8490   20.6380 C   0  0  0  0  0  2  0  0  0  0  0  0
  -29.9620  -13.1520   20.0190 N   0  0  0  0  0  0  0  0  0  0  0  0
  -31.7450  -14.5170   19.6110 O   0  0  0  0  0  0  0  0  0  0  0  0
  -30.1800  -15.1540   21.0980 N   0  0  0  0  0  0  0  0  0  0  0  0
  -29.3060  -14.8760   21.5230 H   0  0  0  0  0  0  0  0  0  0  0  0
  -25.2070  -13.7920   20.4600 C   0  0  0  0  0  0  0  0  0  0  0  0
  -24.1460  -13.0290   20.8700 C   0  0  0  0  0  0  0  0  0  0  0  0
  -24.5800  -11.6710   20.7840 C   0  0  0  0  0  0  0  0  0  0  0  0
  -26.2200  -12.9000   20.1510 N   0  0  0  0  0  0  0  0  0  0  0  0
  -25.8500  -11.6170   20.4030 N   0  0  0  0  0  0  0  0  0  0  0  0
  -23.8430  -10.4180   20.9870 C   0  0  0  0  0  0  0  0  0  0  0  0
  -24.3010   -9.4270   21.8840 C   0  0  0  0  0  3  0  0  0  0  0  0
  -23.5650   -8.2370   22.0750 C   0  0  0  0  0  3  0  0  0  0  0  0
  -22.3570   -8.0300   21.3680 C   0  0  0  0  0  0  0  0  0  0  0  0
  -21.9190   -9.0070   20.4570 C   0  0  0  0  0  3  0  0  0  0  0  0
  -22.6560  -10.1880   20.2650 C   0  0  0  0  0  3  0  0  0  0  0  0
  -21.5890   -6.8950   21.4710 O   0  0  0  0  0  0  0  0  0  0  0  0
  -21.5670   -6.1410   22.6180 C   0  0  0  0  0  0  0  0  0  0  0  0
  -21.1930   -6.6870   23.8640 C   0  0  0  0  0  3  0  0  0  0  0  0
  -21.1180   -5.8590   25.0020 C   0  0  0  0  0  3  0  0  0  0  0  0
  -21.4100   -4.4860   24.8960 C   0  0  0  0  0  0  0  0  0  0  0  0
  -21.7770   -3.9400   23.6540 C   0  0  0  0  0  3  0  0  0  0  0  0
  -21.8550   -4.7640   22.5180 C   0  0  0  0  0  0  0  0  0  0  0  0
  -22.1900   -4.2270   21.3210 F   0  0  0  0  0  0  0  0  0  0  0  0
  -21.3310   -3.6900   25.9870 F   0  0  0  0  0  0  0  0  0  0  0  0
  -22.7740  -13.5220   21.2310 C   0  0  0  0  0  0  0  0  0  0  0  0
  -22.0820  -12.8200   22.1210 N   0  0  0  0  0  0  0  0  0  0  0  0
  -22.3260  -14.5640   20.7540 O   0  0  0  0  0  0  0  0  0  0  0  0
  -22.4550  -11.9780   22.5330 H   0  0  0  0  0  0  0  0  0  0  0  0
  -21.1620  -13.1310   22.3990 H   0  0  0  0  0  0  0  0  0  0  0  0
  -25.3870  -15.1640   20.3040 N   0  0  0  0  0  0  0  0  0  0  0  0
  -24.6400  -15.8330   20.4610 H   0  0  0  0  0  0  0  0  0  0  0  0
  -26.2310  -15.5890   19.9430 H   0  0  0  0  0  0  0  0  0  0  0  0
  -29.8470  -22.0240   22.0000 C   0  0  0  0  0  3  0  0  0  0  0  0
  -31.3280  -21.7760   24.1300 C   0  0  0  0  0  1  0  0  0  0  0  0
  -29.9990  -21.4460   23.4290 C   0  0  0  0  0  2  0  0  0  0  0  0
  -29.8390  -23.5860   22.1130 C   0  0  0  0  0  2  0  0  0  0  0  0
  -29.1260  -24.4270   21.0410 C   0  0  0  0  0  0  0  0  0  0  0  0
  -28.9340  -23.9970   19.8990 O   0  0  0  0  0  0  0  0  0  0  0  0
  -28.6690  -25.8390   21.4720 C   0  0  0  0  0  2  0  0  0  0  0  0
  -28.4780  -26.6990   20.3440 O   0  0  0  0  0  0  0  0  0  0  0  0
  -24.5570  -31.8780   23.3540 C   0  0  0  0  0  0  0  0  0  0  0  0
  -27.3220  -27.4430   20.3750 C   0  0  0  0  0  0  0  0  0  0  0  0
  -23.4120  -30.4690   21.6750 C   0  0  0  0  0  3  0  0  0  0  0  0
  -24.9190  -28.9290   20.3090 C   0  0  0  0  0  0  0  0  0  0  0  0
  -25.9410  -30.8350   21.5630 C   0  0  0  0  0  2  0  0  0  0  0  0
  -26.0530  -29.4600   20.9380 C   0  0  0  0  0  0  0  0  0  0  0  0
  -27.2600  -28.7220   20.9760 C   0  0  0  0  0  3  0  0  0  0  0  0
  -26.1770  -26.9230   19.7410 C   0  0  0  0  0  3  0  0  0  0  0  0
  -24.9750  -27.6570   19.7110 C   0  0  0  0  0  3  0  0  0  0  0  0
  -23.6710  -29.7830   20.3060 C   0  0  0  0  0  2  0  0  0  0  0  0
  -24.6530  -31.0750   22.2560 N   0  0  0  0  0  0  0  0  0  0  0  0
  -23.4580  -32.1490   23.8580 O   0  0  0  0  0  0  0  0  0  0  0  0
  -22.7300  -29.4490   22.6150 C   0  0  0  0  0  0  0  0  0  0  0  0
  -21.4070  -29.2780   22.4560 N   0  0  0  0  0  0  0  0  0  0  0  0
  -23.3890  -28.8140   23.4430 O   0  0  0  0  0  0  0  0  0  0  0  0
  -20.9380  -29.8410   21.7610 H   0  0  0  0  0  0  0  0  0  0  0  0
  -18.0050  -28.1460   22.9050 C   0  0  0  0  0  0  0  0  0  0  0  0
  -20.5650  -28.3430   23.2020 C   0  0  0  0  0  3  0  0  0  0  0  0
  -20.6420  -26.9210   22.6000 C   0  0  0  0  0  2  0  0  0  0  0  0
  -19.5430  -26.6430   21.5700 C   0  0  0  0  0  2  0  0  0  0  0  0
  -18.1590  -26.8050   22.2060 C   0  0  0  0  0  2  0  0  0  0  0  0
  -19.1360  -28.8750   23.3580 C   0  0  0  0  0  0  0  0  0  0  0  0
  -18.9400  -30.1320   23.9710 C   0  0  0  0  0  3  0  0  0  0  0  0
  -17.6450  -30.6600   24.1350 C   0  0  0  0  0  3  0  0  0  0  0  0
  -16.5280  -29.9260   23.6970 C   0  0  0  0  0  3  0  0  0  0  0  0
  -16.7090  -28.6720   23.0880 C   0  0  0  0  0  3  0  0  0  0  0  0
  -25.8210  -32.5120   24.0160 C   0  0  0  0  0  3  0  0  0  0  0  0
  -26.2700  -31.7730   25.3360 C   0  0  1  0  0  0  0  0  0  0  0  0
  -25.1250  -31.5700   26.3550 C   0  0  0  0  0  1  0  0  0  0  0  0
  -26.8630  -30.3820   25.0080 C   0  0  0  0  0  1  0  0  0  0  0  0
  -27.3910  -32.5800   26.0320 C   0  0  0  0  0  1  0  0  0  0  0  0
  -25.5160  -33.9230   24.2860 N   0  0  0  0  0  0  0  0  0  0  0  0
  -25.8850  -34.9450   23.5020 C   0  0  0  0  0  0  0  0  0  0  0  0
  -26.5880  -34.7990   22.4980 O   0  0  0  0  0  0  0  0  0  0  0  0
  -24.8950  -34.1110   25.0600 H   0  0  0  0  0  0  0  0  0  0  0  0
  -24.1770  -36.7310   23.0380 C   0  0  0  0  0  1  0  0  0  0  0  0
  -25.3960  -36.3530   23.8930 C   0  0  0  0  0  3  0  0  0  0  0  0
  -27.5160  -37.2580   24.7390 C   0  0  0  0  0  1  0  0  0  0  0  0
  -26.4390  -37.3940   23.7630 N   0  0  0  0  0  0  0  0  0  0  0  0
  -26.0350  -38.3220   23.8630 H   0  0  0  0  0  0  0  0  0  0  0  0
  1  2  1  0
  2  3  1  0
  2  8  1  0
  4  3  1  0
  4  5  1  0
  6  4  1  0
  7  4  1  0
  9 10  1  0
  9  8  1  0
 11 19  1  0
 12 17  1  0
 13 14  1  0
 13 12  1  0
 15 14  1  0
 15 24  1  0
 15 16  1  0
 17 11  1  0
 17 16  1  0
 18 11  2  0
 19 20  1  0
 19 10  1  0
 21 22  2  0
 22 41  1  0
 23 22  1  0
 23 26  1  0
 24 25  1  0
 24 21  1  0
 25 23  2  0
 26 27  1  0
 27 28  2  0
 29 32  1  0
 29 28  1  0
 30 29  2  0
 31 30  1  0
 31 26  2  0
 32 33  1  0
 33 34  1  0
 34 35  2  0
 36 35  1  0
 36 40  1  0
 37 36  2  0
 38 33  2  0
 38 37  1  0
 39 38  1  0
 41 42  1  0
 42 45  1  0
 42 44  1  0
 43 41  2  0
 46 21  1  0
 46 47  1  0
 48 46  1  0
 49  1  1  0
 49 52  1  0
 49 51  1  0
 51 50  1  0
 53 55  1  0
 53 52  1  0
 54 53  2  0
 56 58  1  0
 56 55  1  0
 57 68  2  0
 58 63  1  0
 59 67  1  0
 59 69  1  0
 60 62  1  0
 61 67  1  0
 62 63  2  0
 62 61  1  0
 64 58  2  0
 65 64  1  0
 65 60  2  0
 66 60  1  0
 66 59  1  0
 67 57  1  0
 69 71  2  0
 70 69  1  0
 72 70  1  0
 73 82  2  0
 73 78  1  0
 74 70  1  0
 74 78  1  0
 75 74  1  0
 76 77  1  0
 76 75  1  0
 77 73  1  0
 78 79  2  0
 79 80  1  0
 81 80  2  0
 82 81  1  0
 83 57  1  0
 83 88  1  0
 83 84  1  0
 84 87  1  1
 84 85  1  0
 86 84  1  0
 88 91  1  0
 89 93  1  0
 89 88  1  0
 90 89  2  0
 93 92  1  0
 95 96  1  0
 95 93  1  0
 95 94  1  0
M  ISO  4  11 100  19 100  55 101  56 101
M  END
>  <TORSDO>  (58) 
F 27

>  <SCORE>  (58) 
-12.006

>  <name>  (58) 
57

>  <ligand_id>  (58) 
57

>  <original_smiles>  (58) 
[H]c1c([H])c([H])c2c(c1[H])C([H])([H])C([H])([H])C([H])([H])C2([H])N([H])C(=O)C1([H])N(C(=O)C([H])(N([H])C(=O)C([H])(N([H])C([H])([H])[H])C([H])([H])[H])C(C([H])([H])[H])(C([H])([H])[H])C([H])([H])[H])C([H])([H])c2c([H])c(OC([H])([H])C(=O)C([H])([H])C([H])(C([H])([H])C([H])([H])[H])C([H])([H])C([H])(C([H])([H])C([H])([H])C([H])([H])N([H])C(=O)N3C([H])([H])C([H])([H])C([H])([H])C([H])(n4nc(-c5c([H])c([H])c(Oc6c([H])c([H])c(F)c([H])c6F)c([H])c5[H])c(C(=O)N([H])[H])c4N([H])[H])C3([H])[H])C([H])([H])[N+]([H])([H])[H])c([H])c([H])c2C1([H])[H]

>  <smiles>  (58) 
[H]c1c([H])c([H])c2c(c1[H])C([H])([H])C([H])([H])C([H])([H])C2([H])N([H])C(=O)C1([H])N(C(=O)C([H])(N([H])C(=O)C([H])(N([H])C([H])([H])[H])C([H])([H])[H])C(C([H])([H])[H])(C([H])([H])[H])C([H])([H])[H])C([H])([H])c2c([H])c(OC([H])([H])C(=O)C([H])([H])C([H])(C([H])([H])C([H])([H])[H])C([H])([H])C([H])(C([H])([H])C([H])([H])C([H])([H])N([H])C(=O)N3C([H])([H])C([H])([H])C([H])([H])C([H])(n4nc(-c5c([H])c([H])c(Oc6c([H])c([H])c(F)c([H])c6F)c([H])c5[H])c(C(=O)N([H])[H])c4N([H])[H])C3([H])[H])C([H])([H])[N+]([H])([H])[H])c([H])c([H])c2C1([H])[H]

$$$$
58:0:0
     RDKit          3D

 96103  0  0  1  0  0  0  0  0999 V2000
  -27.6930  -23.3310   16.9430 C   0  0  0  0  0  3  0  0  0  0  0  0
  -27.7470  -24.7700   17.3320 N   0  0  0  0  0  4  0  0  0  0  0  0
  -28.2260  -25.2530   16.5860 H   0  0  0  0  0  0  0  0  0  0  0  0
  -26.8020  -25.1260   17.3230 H   0  0  0  0  0  0  0  0  0  0  0  0
  -28.4050  -25.1560   18.6110 C   0  0  0  0  0  2  0  0  0  0  0  0
  -28.6170  -26.6830   18.7140 C   0  0  0  0  0  2  0  0  0  0  0  0
  -28.3300  -27.1910   20.0230 O   0  0  0  0  0  0  0  0  0  0  0  0
  -24.6500  -32.1810   23.5170 C   0  0  0  0  0  0  0  0  0  0  0  0
  -27.1500  -27.8850   20.1380 C   0  0  0  0  0  0  0  0  0  0  0  0
  -23.3720  -30.8580   21.8590 C   0  0  0  0  0  3  0  0  0  0  0  0
  -24.7610  -29.3790   20.3210 C   0  0  0  0  0  0  0  0  0  0  0  0
  -25.8880  -31.2130   21.5910 C   0  0  0  0  0  2  0  0  0  0  0  0
  -25.9400  -29.8690   20.8970 C   0  0  0  0  0  0  0  0  0  0  0  0
  -27.1320  -29.1170   20.8270 C   0  0  0  0  0  3  0  0  0  0  0  0
  -25.9430  -27.3920   19.5880 C   0  0  0  0  0  3  0  0  0  0  0  0
  -24.7540  -28.1340   19.6700 C   0  0  0  0  0  3  0  0  0  0  0  0
  -23.5230  -30.2360   20.4460 C   0  0  0  0  0  2  0  0  0  0  0  0
  -24.6560  -31.4300   22.3820 N   0  0  0  0  0  0  0  0  0  0  0  0
  -23.5920  -32.4360   24.1100 O   0  0  0  0  0  0  0  0  0  0  0  0
  -22.7520  -29.8030   22.7980 C   0  0  0  0  0  0  0  0  0  0  0  0
  -21.4480  -29.5380   22.6220 N   0  0  0  0  0  0  0  0  0  0  0  0
  -23.4460  -29.2170   23.6350 O   0  0  0  0  0  0  0  0  0  0  0  0
  -20.9500  -30.0610   21.9150 H   0  0  0  0  0  0  0  0  0  0  0  0
  -18.1720  -28.0440   22.9050 C   0  0  0  0  0  0  0  0  0  0  0  0
  -20.6630  -28.5530   23.3640 C   0  0  0  0  0  3  0  0  0  0  0  0
  -20.9470  -27.1200   22.8600 C   0  0  0  0  0  2  0  0  0  0  0  0
  -19.9660  -26.6600   21.7750 C   0  0  0  0  0  2  0  0  0  0  0  0
  -18.5290  -26.6960   22.3020 C   0  0  0  0  0  2  0  0  0  0  0  0
  -19.1770  -28.9220   23.3900 C   0  0  0  0  0  0  0  0  0  0  0  0
  -18.8000  -30.1790   23.9060 C   0  0  0  0  0  3  0  0  0  0  0  0
  -17.4460  -30.5640   23.9490 C   0  0  0  0  0  3  0  0  0  0  0  0
  -16.4540  -29.6840   23.4840 C   0  0  0  0  0  3  0  0  0  0  0  0
  -16.8160  -28.4290   22.9680 C   0  0  0  0  0  3  0  0  0  0  0  0
  -25.9660  -32.7740   24.1100 C   0  0  0  0  0  3  0  0  0  0  0  0
  -26.5010  -31.9750   25.3610 C   0  0  1  0  0  0  0  0  0  0  0  0
  -25.4260  -31.7270   26.4430 C   0  0  0  0  0  1  0  0  0  0  0  0
  -27.0720  -30.5990   24.9420 C   0  0  0  0  0  1  0  0  0  0  0  0
  -27.6700  -32.7470   26.0200 C   0  0  0  0  0  1  0  0  0  0  0  0
  -25.6970  -34.1740   24.4640 N   0  0  0  0  0  0  0  0  0  0  0  0
  -26.0790  -35.2290   23.7320 C   0  0  0  0  0  0  0  0  0  0  0  0
  -26.7700  -35.1250   22.7140 O   0  0  0  0  0  0  0  0  0  0  0  0
  -25.0900  -34.3350   25.2540 H   0  0  0  0  0  0  0  0  0  0  0  0
  -24.4310  -37.0900   23.3560 C   0  0  0  0  0  1  0  0  0  0  0  0
  -25.6260  -36.6240   24.2030 C   0  0  0  0  0  3  0  0  0  0  0  0
  -27.7620  -37.4070   25.1290 C   0  0  0  0  0  1  0  0  0  0  0  0
  -26.7000  -37.6410   24.1540 N   0  0  0  0  0  0  0  0  0  0  0  0
  -26.3210  -38.5710   24.3140 H   0  0  0  0  0  0  0  0  0  0  0  0
  -26.5760  -22.5020   17.6530 C   0  0  0  0  0  2  0  0  0  0  0  0
  -26.9510  -21.6740   18.9080 C   0  0  0  0  0  2  0  0  0  0  0  0
  -27.3470  -20.2170   18.6240 C   0  0  0  0  0  2  0  0  0  0  0  0
  -28.1060  -19.5780   19.7990 C   0  0  0  0  0  2  0  0  0  0  0  0
  -29.0140  -18.4220   19.3550 C   0  0  0  0  0  2  0  0  0  0  0  0
  -29.5400  -17.5210   20.4960 C   0  0  0  0  0  2  0  0  0  0  0  0
  -30.5130  -16.4470   19.9820 C   0  0  0  0  0  2  0  0  0  0  0  0
  -31.1860  -14.1390   20.2760 C   0  0  0  0  0  0  0  0  0  0  0  0
  -30.6690  -12.0960   19.0160 C   0  0  0  0  0  2  0  0  0  0  0  0
  -29.7060  -12.4650   17.8640 C   0  0  0  0  0  2  0  0  0  0  0  0
  -28.2400  -12.4510   18.3370 C   0  0  0  0  0  2  0  0  0  0  0  0
  -28.0310  -13.1970   19.6830 C   0  0  0  0  0  3  0  0  0  0  0  0
  -29.0940  -12.7880   20.7320 C   0  0  0  0  0  2  0  0  0  0  0  0
  -30.4220  -13.0220   20.1460 N   0  0  0  0  0  0  0  0  0  0  0  0
  -32.2690  -14.2780   19.7260 O   0  0  0  0  0  0  0  0  0  0  0  0
  -30.5900  -15.2240   20.7980 N   0  0  0  0  0  0  0  0  0  0  0  0
  -29.9630  -15.0960   21.6190 H   0  0  0  0  0  0  0  0  0  0  0  0
  -25.6950  -13.9510   20.4530 C   0  0  0  0  0  0  0  0  0  0  0  0
  -24.5850  -13.2530   20.8190 C   0  0  0  0  0  0  0  0  0  0  0  0
  -24.9440  -11.8710   20.7390 C   0  0  0  0  0  0  0  0  0  0  0  0
  -26.6710  -13.0080   20.1790 N   0  0  0  0  0  0  0  0  0  0  0  0
  -26.2210  -11.7460   20.4080 N   0  0  0  0  0  0  0  0  0  0  0  0
  -24.1360  -10.6600   20.9150 C   0  0  0  0  0  0  0  0  0  0  0  0
  -24.5180   -9.6460   21.8170 C   0  0  0  0  0  3  0  0  0  0  0  0
  -23.7230   -8.4880   21.9750 C   0  0  0  0  0  3  0  0  0  0  0  0
  -22.5260   -8.3450   21.2330 C   0  0  0  0  0  0  0  0  0  0  0  0
  -22.1580   -9.3510   20.3250 C   0  0  0  0  0  3  0  0  0  0  0  0
  -22.9510  -10.5000   20.1650 C   0  0  0  0  0  3  0  0  0  0  0  0
  -21.6980   -7.2470   21.3120 O   0  0  0  0  0  0  0  0  0  0  0  0
  -21.6030   -6.4960   22.4530 C   0  0  0  0  0  0  0  0  0  0  0  0
  -21.2020   -7.0560   23.6870 C   0  0  0  0  0  3  0  0  0  0  0  0
  -21.0490   -6.2340   24.8180 C   0  0  0  0  0  3  0  0  0  0  0  0
  -21.2790   -4.8470   24.7220 C   0  0  0  0  0  0  0  0  0  0  0  0
  -21.6790   -4.2860   23.4960 C   0  0  0  0  0  3  0  0  0  0  0  0
  -21.8320   -5.1040   22.3650 C   0  0  0  0  0  0  0  0  0  0  0  0
  -22.1870   -4.5560   21.1770 F   0  0  0  0  0  0  0  0  0  0  0  0
  -21.1310   -4.0520   25.8070 F   0  0  0  0  0  0  0  0  0  0  0  0
  -23.2300  -13.8160   21.1380 C   0  0  0  0  0  0  0  0  0  0  0  0
  -22.4750  -13.1560   22.0060 N   0  0  0  0  0  0  0  0  0  0  0  0
  -22.8530  -14.8860   20.6550 O   0  0  0  0  0  0  0  0  0  0  0  0
  -22.7910  -12.2910   22.4200 H   0  0  0  0  0  0  0  0  0  0  0  0
  -21.5680  -13.5250   22.2590 H   0  0  0  0  0  0  0  0  0  0  0  0
  -25.9570  -15.3150   20.2990 N   0  0  0  0  0  0  0  0  0  0  0  0
  -25.2520  -16.0260   20.4490 H   0  0  0  0  0  0  0  0  0  0  0  0
  -26.8440  -15.6890   19.9890 H   0  0  0  0  0  0  0  0  0  0  0  0
  -29.1010  -22.6850   16.8770 C   0  0  0  0  0  2  0  0  0  0  0  0
  -29.0840  -21.2240   16.3880 C   0  0  0  0  0  2  0  0  0  0  0  0
  -30.3730  -19.0490   16.0780 C   0  0  0  0  0  1  0  0  0  0  0  0
  -30.4300  -20.5020   16.5620 C   0  0  0  0  0  2  0  0  0  0  0  0
  1 93  1  0
  1  2  1  0
  1 48  1  0
  2  5  1  0
  3  2  1  0
  4  2  1  0
  5  6  1  0
  6  7  1  0
  7  9  1  0
  8 19  2  0
  9 14  1  0
 10 18  1  0
 10 20  1  0
 11 17  1  0
 11 13  1  0
 12 18  1  0
 13 12  1  0
 14 13  2  0
 15 16  1  0
 15  9  2  0
 16 11  2  0
 17 10  1  0
 18  8  1  0
 20 22  2  0
 21 20  1  0
 23 21  1  0
 24 33  2  0
 24 29  1  0
 25 21  1  0
 25 29  1  0
 26 25  1  0
 27 28  1  0
 27 26  1  0
 28 24  1  0
 29 30  2  0
 30 31  1  0
 32 31  2  0
 33 32  1  0
 34  8  1  0
 34 39  1  0
 34 35  1  0
 35 38  1  1
 35 36  1  0
 37 35  1  0
 39 42  1  0
 40 44  1  0
 40 39  1  0
 41 40  2  0
 44 43  1  0
 46 44  1  0
 46 47  1  0
 46 45  1  0
 48 49  1  0
 50 49  1  0
 50 51  1  0
 52 51  1  0
 52 53  1  0
 54 53  1  0
 54 63  1  0
 55 63  1  0
 56 61  1  0
 57 58  1  0
 57 56  1  0
 59 58  1  0
 59 68  1  0
 59 60  1  0
 61 55  1  0
 61 60  1  0
 62 55  2  0
 63 64  1  0
 65 66  2  0
 66 85  1  0
 67 66  1  0
 67 70  1  0
 68 69  1  0
 68 65  1  0
 69 67  2  0
 70 71  1  0
 71 72  2  0
 73 76  1  0
 73 72  1  0
 74 73  2  0
 75 74  1  0
 75 70  2  0
 76 77  1  0
 77 78  1  0
 78 79  2  0
 80 79  1  0
 80 84  1  0
 81 80  2  0
 82 77  2  0
 82 81  1  0
 83 82  1  0
 85 86  1  0
 86 89  1  0
 86 88  1  0
 87 85  2  0
 90 91  1  0
 90 65  1  0
 92 90  1  0
 94 96  1  0
 94 93  1  0
 95 96  1  0
M  ISO  4   6 101   7 101  55 100  63 100
M  END
>  <TORSDO>  (59) 
F 29

>  <SCORE>  (59) 
-9.956

>  <name>  (59) 
58

>  <ligand_id>  (59) 
58

>  <original_smiles>  (59) 
[H]c1c([H])c([H])c2c(c1[H])C([H])([H])C([H])([H])C([H])([H])C2([H])N([H])C(=O)C1([H])N(C(=O)C([H])(N([H])C(=O)C([H])(N([H])C([H])([H])[H])C([H])([H])[H])C(C([H])([H])[H])(C([H])([H])[H])C([H])([H])[H])C([H])([H])c2c([H])c(OC([H])([H])C([H])([H])[N+]([H])([H])C([H])(C([H])([H])C([H])([H])C([H])([H])C([H])([H])[H])C([H])([H])C([H])([H])C([H])([H])C([H])([H])C([H])([H])C([H])([H])C([H])([H])N([H])C(=O)N3C([H])([H])C([H])([H])C([H])([H])C([H])(n4nc(-c5c([H])c([H])c(Oc6c([H])c([H])c(F)c([H])c6F)c([H])c5[H])c(C(=O)N([H])[H])c4N([H])[H])C3([H])[H])c([H])c([H])c2C1([H])[H]

>  <smiles>  (59) 
[H]c1c([H])c([H])c2c(c1[H])C([H])([H])C([H])([H])C([H])([H])C2([H])N([H])C(=O)C1([H])N(C(=O)C([H])(N([H])C(=O)C([H])(N([H])C([H])([H])[H])C([H])([H])[H])C(C([H])([H])[H])(C([H])([H])[H])C([H])([H])[H])C([H])([H])c2c([H])c(OC([H])([H])C([H])([H])[N+]([H])([H])C([H])(C([H])([H])C([H])([H])C([H])([H])C([H])([H])[H])C([H])([H])C([H])([H])C([H])([H])C([H])([H])C([H])([H])C([H])([H])C([H])([H])N([H])C(=O)N3C([H])([H])C([H])([H])C([H])([H])C([H])(n4nc(-c5c([H])c([H])c(Oc6c([H])c([H])c(F)c([H])c6F)c([H])c5[H])c(C(=O)N([H])[H])c4N([H])[H])C3([H])[H])c([H])c([H])c2C1([H])[H]

$$$$
59:0:0
     RDKit          3D

 93102  0  0  1  0  0  0  0  0999 V2000
  -31.7220  -19.7010   19.0040 C   0  0  0  0  0  3  0  0  0  0  0  0
  -31.1030  -20.2640   17.9560 C   0  0  0  0  0  3  0  0  0  0  0  0
  -29.4840  -18.8280   19.7400 C   0  0  0  0  0  0  0  0  0  0  0  0
  -28.9220  -17.7230   20.6090 C   0  0  0  0  0  2  0  0  0  0  0  0
  -31.3650  -17.5240   20.3620 C   0  0  0  0  0  2  0  0  0  0  0  0
  -30.9460  -18.9690   20.0800 C   0  0  0  0  0  0  0  0  0  0  0  0
  -29.5960  -20.1400   17.7400 C   0  0  0  0  0  0  0  0  0  0  0  0
  -30.1500  -16.9200   21.1220 C   0  0  0  0  0  3  0  0  0  0  0  0
  -28.8600  -19.4120   18.7870 N   0  0  0  0  0  0  0  0  0  0  0  0
  -30.6600  -14.4560   20.5220 C   0  0  0  0  0  0  0  0  0  0  0  0
  -30.3530  -12.3130   19.3500 C   0  0  0  0  0  2  0  0  0  0  0  0
  -29.4150  -12.5450   18.1480 C   0  0  0  0  0  2  0  0  0  0  0  0
  -27.9360  -12.4200   18.5710 C   0  0  0  0  0  2  0  0  0  0  0  0
  -27.6050  -13.2440   19.8440 C   0  0  0  0  0  3  0  0  0  0  0  0
  -28.6550  -12.9870   20.9480 C   0  0  0  0  0  2  0  0  0  0  0  0
  -29.9860  -13.2830   20.3900 N   0  0  0  0  0  0  0  0  0  0  0  0
  -31.7950  -14.6300   20.0770 O   0  0  0  0  0  0  0  0  0  0  0  0
  -29.9180  -15.4610   21.0270 N   0  0  0  0  0  0  0  0  0  0  0  0
  -29.0150  -15.1570   21.3560 H   0  0  0  0  0  0  0  0  0  0  0  0
  -25.2070  -13.8740   20.5390 C   0  0  0  0  0  0  0  0  0  0  0  0
  -24.1320  -13.1110   20.9080 C   0  0  0  0  0  0  0  0  0  0  0  0
  -24.5840  -11.7550   20.8820 C   0  0  0  0  0  0  0  0  0  0  0  0
  -26.2470  -12.9850   20.3150 N   0  0  0  0  0  0  0  0  0  0  0  0
  -25.8740  -11.7060   20.5790 N   0  0  0  0  0  0  0  0  0  0  0  0
  -23.8480  -10.4980   21.0720 C   0  0  0  0  0  0  0  0  0  0  0  0
  -24.2810   -9.5220   21.9960 C   0  0  0  0  0  3  0  0  0  0  0  0
  -23.5480   -8.3300   22.1730 C   0  0  0  0  0  3  0  0  0  0  0  0
  -22.3680   -8.1050   21.4250 C   0  0  0  0  0  0  0  0  0  0  0  0
  -21.9540   -9.0690   20.4890 C   0  0  0  0  0  3  0  0  0  0  0  0
  -22.6880  -10.2530   20.3100 C   0  0  0  0  0  3  0  0  0  0  0  0
  -21.6050   -6.9650   21.5130 O   0  0  0  0  0  0  0  0  0  0  0  0
  -21.5690   -6.2090   22.6570 C   0  0  0  0  0  0  0  0  0  0  0  0
  -21.1830   -6.7560   23.9010 C   0  0  0  0  0  3  0  0  0  0  0  0
  -21.0950   -5.9270   25.0370 C   0  0  0  0  0  3  0  0  0  0  0  0
  -21.3800   -4.5520   24.9320 C   0  0  0  0  0  0  0  0  0  0  0  0
  -21.7580   -4.0070   23.6930 C   0  0  0  0  0  3  0  0  0  0  0  0
  -21.8490   -4.8320   22.5580 C   0  0  0  0  0  0  0  0  0  0  0  0
  -22.1940   -4.2950   21.3620 F   0  0  0  0  0  0  0  0  0  0  0  0
  -21.2870   -3.7540   26.0210 F   0  0  0  0  0  0  0  0  0  0  0  0
  -22.7360  -13.5960   21.1730 C   0  0  0  0  0  0  0  0  0  0  0  0
  -22.0000  -12.9070   22.0380 N   0  0  0  0  0  0  0  0  0  0  0  0
  -22.3070  -14.6230   20.6480 O   0  0  0  0  0  0  0  0  0  0  0  0
  -22.3600  -12.0760   22.4840 H   0  0  0  0  0  0  0  0  0  0  0  0
  -21.0630  -13.2140   22.2560 H   0  0  0  0  0  0  0  0  0  0  0  0
  -25.3830  -15.2430   20.3570 N   0  0  0  0  0  0  0  0  0  0  0  0
  -24.6170  -15.9020   20.4550 H   0  0  0  0  0  0  0  0  0  0  0  0
  -26.2280  -15.6710   20.0050 H   0  0  0  0  0  0  0  0  0  0  0  0
  -28.8950  -21.4620   17.3560 C   0  0  0  0  0  2  0  0  0  0  0  0
  -29.1420  -22.6980   18.2440 C   0  0  0  0  0  2  0  0  0  0  0  0
  -28.3360  -23.9030   17.7130 C   0  0  0  0  0  2  0  0  0  0  0  0
  -28.6920  -25.2740   18.3130 C   0  0  0  0  0  2  0  0  0  0  0  0
  -28.4470  -25.4000   19.8250 C   0  0  0  0  0  2  0  0  0  0  0  0
  -28.4270  -26.7750   20.2280 O   0  0  0  0  0  0  0  0  0  0  0  0
  -24.5890  -31.9210   23.2750 C   0  0  0  0  0  0  0  0  0  0  0  0
  -27.2310  -27.4660   20.2100 C   0  0  0  0  0  0  0  0  0  0  0  0
  -23.3800  -30.5140   21.6420 C   0  0  0  0  0  3  0  0  0  0  0  0
  -24.8290  -28.9670   20.2290 C   0  0  0  0  0  0  0  0  0  0  0  0
  -25.9060  -30.8680   21.4410 C   0  0  0  0  0  2  0  0  0  0  0  0
  -25.9880  -29.4960   20.8060 C   0  0  0  0  0  0  0  0  0  0  0  0
  -27.1890  -28.7530   20.7940 C   0  0  0  0  0  3  0  0  0  0  0  0
  -26.0450  -26.9490   19.6320 C   0  0  0  0  0  3  0  0  0  0  0  0
  -24.8510  -27.6910   19.6430 C   0  0  0  0  0  3  0  0  0  0  0  0
  -23.5870  -29.8280   20.2660 C   0  0  0  0  0  2  0  0  0  0  0  0
  -24.6430  -31.1140   22.1780 N   0  0  0  0  0  0  0  0  0  0  0  0
  -23.5080  -32.1980   23.8140 O   0  0  0  0  0  0  0  0  0  0  0  0
  -22.7270  -29.4950   22.6050 C   0  0  0  0  0  0  0  0  0  0  0  0
  -21.4030  -29.3160   22.4750 N   0  0  0  0  0  0  0  0  0  0  0  0
  -23.4090  -28.8720   23.4230 O   0  0  0  0  0  0  0  0  0  0  0  0
  -20.9160  -29.8680   21.7830 H   0  0  0  0  0  0  0  0  0  0  0  0
  -18.0250  -28.1370   22.9680 C   0  0  0  0  0  0  0  0  0  0  0  0
  -20.5820  -28.3860   23.2490 C   0  0  0  0  0  3  0  0  0  0  0  0
  -20.6830  -26.9510   22.6810 C   0  0  0  0  0  2  0  0  0  0  0  0
  -19.5840  -26.6260   21.6650 C   0  0  0  0  0  2  0  0  0  0  0  0
  -18.2000  -26.7810   22.3020 C   0  0  0  0  0  2  0  0  0  0  0  0
  -19.1450  -28.8960   23.3970 C   0  0  0  0  0  0  0  0  0  0  0  0
  -18.9300  -30.1660   23.9770 C   0  0  0  0  0  3  0  0  0  0  0  0
  -17.6270  -30.6750   24.1320 C   0  0  0  0  0  3  0  0  0  0  0  0
  -16.5210  -29.9110   23.7220 C   0  0  0  0  0  3  0  0  0  0  0  0
  -16.7210  -28.6430   23.1440 C   0  0  0  0  0  3  0  0  0  0  0  0
  -25.8760  -32.5530   23.8900 C   0  0  0  0  0  3  0  0  0  0  0  0
  -25.5710  -33.9530   24.2120 N   0  0  0  0  0  0  0  0  0  0  0  0
  -25.9060  -35.0000   23.4450 C   0  0  0  0  0  0  0  0  0  0  0  0
  -26.5770  -34.8890   22.4160 O   0  0  0  0  0  0  0  0  0  0  0  0
  -24.9770  -34.1140   25.0120 H   0  0  0  0  0  0  0  0  0  0  0  0
  -24.1780  -36.7870   23.0810 C   0  0  0  0  0  1  0  0  0  0  0  0
  -25.4190  -36.3900   23.8950 C   0  0  0  0  0  3  0  0  0  0  0  0
  -27.5540  -37.2760   24.7190 C   0  0  0  0  0  1  0  0  0  0  0  0
  -26.4520  -37.4430   23.7750 N   0  0  0  0  0  0  0  0  0  0  0  0
  -26.0470  -38.3630   23.9230 H   0  0  0  0  0  0  0  0  0  0  0  0
  -26.3930  -31.7870   25.1680 C   0  0  1  0  0  0  0  0  0  0  0  0
  -25.3010  -31.5530   26.2380 C   0  0  0  0  0  1  0  0  0  0  0  0
  -26.9740  -30.4080   24.7780 C   0  0  0  0  0  1  0  0  0  0  0  0
  -27.5470  -32.5800   25.8250 C   0  0  0  0  0  1  0  0  0  0  0  0
  1  6  1  0
  2  1  2  0
  3  6  2  0
  3  4  1  0
  4  8  1  0
  5  8  1  0
  6  5  1  0
  7  2  1  0
  7  9  2  0
  8 18  1  0
  9  3  1  0
 10 18  1  0
 11 16  1  0
 12 13  1  0
 12 11  1  0
 14 13  1  0
 14 23  1  0
 14 15  1  0
 16 10  1  0
 16 15  1  0
 17 10  2  0
 18 19  1  0
 20 21  2  0
 21 40  1  0
 22 21  1  0
 22 25  1  0
 23 20  1  0
 23 24  1  0
 24 22  2  0
 25 26  1  0
 26 27  2  0
 28 31  1  0
 28 27  1  0
 29 28  2  0
 30 29  1  0
 30 25  2  0
 31 32  1  0
 32 33  1  0
 33 34  2  0
 35 34  1  0
 35 39  1  0
 36 35  2  0
 37 32  2  0
 37 36  1  0
 38 37  1  0
 40 41  1  0
 41 44  1  0
 41 43  1  0
 42 40  2  0
 45 46  1  0
 45 20  1  0
 47 45  1  0
 48  7  1  0
 48 49  1  0
 50 49  1  0
 50 51  1  0
 51 52  1  0
 52 53  1  0
 54 65  2  0
 55 53  1  0
 55 60  1  0
 56 64  1  0
 56 66  1  0
 57 63  1  0
 57 59  1  0
 58 64  1  0
 59 58  1  0
 60 59  2  0
 61 62  1  0
 61 55  2  0
 62 57  2  0
 63 56  1  0
 64 54  1  0
 66 68  2  0
 67 66  1  0
 69 67  1  0
 70 79  2  0
 70 75  1  0
 71 67  1  0
 71 75  1  0
 72 71  1  0
 73 74  1  0
 73 72  1  0
 74 70  1  0
 75 76  2  0
 76 77  1  0
 78 77  2  0
 79 78  1  0
 80 54  1  0
 80 81  1  0
 80 90  1  0
 81 84  1  0
 82 86  1  0
 82 81  1  0
 83 82  2  0
 86 85  1  0
 88 86  1  0
 88 89  1  0
 88 87  1  0
 90 93  1  1
 90 91  1  0
 92 90  1  0
M  ISO  4  10 100  18 100  52 101  53 101
M  END
>  <TORSDO>  (60) 
F 21

>  <SCORE>  (60) 
-13.671

>  <name>  (60) 
59

>  <ligand_id>  (60) 
59

>  <original_smiles>  (60) 
[H]C1=C([H])C2([H])C(=NC1([H])C([H])([H])C([H])([H])C([H])([H])C([H])([H])C([H])([H])Oc1c([H])c([H])c3c(c1[H])C([H])([H])N(C(=O)C([H])(N([H])C(=O)C([H])(N([H])C([H])([H])[H])C([H])([H])[H])C(C([H])([H])[H])(C([H])([H])[H])C([H])([H])[H])C([H])(C(=O)N([H])C1([H])c4c([H])c([H])c([H])c([H])c4C([H])([H])C([H])([H])C1([H])[H])C3([H])[H])C([H])([H])C([H])(N([H])C(=O)N1C([H])([H])C([H])([H])C([H])([H])C([H])(n3nc(-c4c([H])c([H])c(Oc5c([H])c([H])c(F)c([H])c5F)c([H])c4[H])c(C(=O)N([H])[H])c3N([H])[H])C1([H])[H])C2([H])[H]

>  <smiles>  (60) 
[H]C1=C([H])C2([H])C(=NC1([H])C([H])([H])C([H])([H])C([H])([H])C([H])([H])C([H])([H])Oc1c([H])c([H])c3c(c1[H])C([H])([H])N(C(=O)C([H])(N([H])C(=O)C([H])(N([H])C([H])([H])[H])C([H])([H])[H])C(C([H])([H])[H])(C([H])([H])[H])C([H])([H])[H])C([H])(C(=O)N([H])C1([H])c4c([H])c([H])c([H])c([H])c4C([H])([H])C([H])([H])C1([H])[H])C3([H])[H])C([H])([H])C([H])(N([H])C(=O)N1C([H])([H])C([H])([H])C([H])([H])C([H])(n3nc(-c4c([H])c([H])c(Oc5c([H])c([H])c(F)c([H])c5F)c([H])c4[H])c(C(=O)N([H])[H])c3N([H])[H])C1([H])[H])C2([H])[H]

$$$$
60:0:0
     RDKit          3D

 92 95  0  0  1  0  0  0  0  0999 V2000
  -22.5220  -24.3240   22.7910 N   0  0  0  0  0  4  0  0  0  0  0  0
  -22.9330  -24.8320   23.5580 H   0  0  0  0  0  0  0  0  0  0  0  0
  -22.4210  -23.3810   23.1310 H   0  0  0  0  0  0  0  0  0  0  0  0
  -21.0040  -24.8060   22.6520 C   0  0  0  0  0  2  0  0  0  0  0  0
  -20.3580  -26.3920   22.2310 C   0  0  0  0  0  1  0  0  0  0  0  0
  -22.0840  -27.9970   20.0900 C   0  0  0  0  0 15  0  0  0  0  0  0
  -24.1000  -27.9280   20.0240 O   0  0  0  0  0  1  0  0  0  0  0  0
  -24.7880  -32.0870   23.2450 C   0  0  0  0  0  0  0  0  0  0  0  0
  -25.4560  -28.2490   19.3830 C   0  0  0  0  0  3  0  0  0  0  0  0
  -23.4410  -31.2880   21.3990 C   0  0  0  0  0  3  0  0  0  0  0  0
  -24.5750  -30.5390   19.2120 C   0  0  0  0  0  3  0  0  0  0  0  0
  -25.9330  -31.5360   21.0760 C   0  0  0  0  0  2  0  0  0  0  0  0
  -25.7250  -30.4720   20.0130 C   0  0  0  0  0  3  0  0  0  0  0  0
  -26.3530  -29.2180   19.9900 C   0  0  0  0  0  2  0  0  0  0  0  0
  -25.2970  -28.5320   18.0510 C   0  0  0  0  0  2  0  0  0  0  0  0
  -24.4460  -29.6420   18.1090 C   0  0  0  0  0  2  0  0  0  0  0  0
  -23.4220  -31.2720   19.8210 C   0  0  0  0  0  2  0  0  0  0  0  0
  -24.7440  -31.7070   21.9390 N   0  0  0  0  0  0  0  0  0  0  0  0
  -23.7590  -32.1670   23.9360 O   0  0  0  0  0  0  0  0  0  0  0  0
  -23.1300  -29.9710   22.1330 C   0  0  0  0  0  0  0  0  0  0  0  0
  -21.8840  -29.7240   22.3920 N   0  0  0  0  0  0  0  0  0  0  0  0
  -23.9780  -29.1560   22.4930 O   0  0  0  0  0  0  0  0  0  0  0  0
  -21.1630  -30.3890   22.1490 H   0  0  0  0  0  0  0  0  0  0  0  0
  -18.7450  -28.5140   21.9440 C   0  0  0  0  0  0  0  0  0  0  0  0
  -21.4920  -28.3800   22.7200 C   0  0  0  0  0  2  0  0  0  0  0  0
  -22.2980  -26.7240   21.7620 C   0  0  0  0  0 15  0  0  0  0  0  0
  -20.5690  -26.4580   20.0560 C   0  0  0  0  0  1  0  0  0  0  0  0
  -19.0690  -27.6340   20.4670 C   0  0  0  0  0  2  0  0  0  0  0  0
  -19.8540  -28.8850   22.8560 C   0  0  0  0  0  0  0  0  0  0  0  0
  -19.5210  -29.7590   23.9630 C   0  0  0  0  0  3  0  0  0  0  0  0
  -18.2170  -30.1740   24.3280 C   0  0  0  0  0  3  0  0  0  0  0  0
  -17.1330  -29.6410   23.6170 C   0  0  0  0  0  3  0  0  0  0  0  0
  -17.4020  -28.8260   22.4700 C   0  0  0  0  0  3  0  0  0  0  0  0
  -26.1270  -32.4620   23.9070 C   0  0  0  0  0  3  0  0  0  0  0  0
  -26.6010  -31.4200   24.9880 C   0  0  1  0  0  0  0  0  0  0  0  0
  -25.5190  -31.0480   26.0280 C   0  0  0  0  0  1  0  0  0  0  0  0
  -27.0830  -30.1080   24.3270 C   0  0  0  0  0  1  0  0  0  0  0  0
  -27.8180  -32.0030   25.7410 C   0  0  0  0  0  1  0  0  0  0  0  0
  -25.9060  -33.7790   24.5080 N   0  0  0  0  0  0  0  0  0  0  0  0
  -26.2550  -34.9310   23.9290 C   0  0  0  0  0  0  0  0  0  0  0  0
  -26.8950  -34.9820   22.8760 O   0  0  0  0  0  0  0  0  0  0  0  0
  -25.3210  -33.8070   25.3290 H   0  0  0  0  0  0  0  0  0  0  0  0
  -24.6370  -36.8570   23.9150 C   0  0  0  0  0  1  0  0  0  0  0  0
  -25.8380  -36.2290   24.6400 C   0  0  0  0  0  3  0  0  0  0  0  0
  -28.0140  -36.7820   25.6270 C   0  0  0  0  0  1  0  0  0  0  0  0
  -26.9350  -37.2140   24.7410 N   0  0  0  0  0  0  0  0  0  0  0  0
  -26.5890  -38.1090   25.0760 H   0  0  0  0  0  0  0  0  0  0  0  0
  -23.6310  -24.1780   21.6910 C   0  0  0  0  0  3  0  0  0  0  0  0
  -25.1060  -23.4780   22.0550 C   0  0  0  0  0  3  0  0  0  0  0  0
  -26.1670  -22.8500   20.9390 C   0  0  0  0  0  2  0  0  0  0  0  0
  -26.8030  -21.3490   20.9810 C   0  0  0  0  0  3  0  0  0  0  0  0
  -27.8540  -20.7380   20.2590 C   0  0  0  0  0  3  0  0  0  0  0  0
  -28.3700  -19.1910   20.2480 C   0  0  0  0  0  3  0  0  0  0  0  0
  -29.7720  -18.5820   19.5620 C   0  0  0  0  0  3  0  0  0  0  0  0
  -31.3130  -16.2340   19.6740 C   0  0  0  0  0  0  0  0  0  0  0  0
  -31.6720  -13.7410   19.2340 C   0  0  0  0  0  2  0  0  0  0  0  0
  -30.7630  -13.3010   18.0540 C   0  0  0  0  0  2  0  0  0  0  0  0
  -29.3060  -13.0800   18.5200 C   0  0  0  0  0  2  0  0  0  0  0  0
  -28.8070  -14.2130   19.4580 C   0  0  0  0  0  3  0  0  0  0  0  0
  -29.8220  -14.4750   20.5860 C   0  0  0  0  0  2  0  0  0  0  0  0
  -31.0430  -14.9070   19.9180 N   0  0  0  0  0  0  0  0  0  0  0  0
  -32.4260  -16.5310   19.2020 O   0  0  0  0  0  0  0  0  0  0  0  0
  -30.2090  -17.1120   19.8550 N   0  0  0  0  0  0  0  0  0  0  0  0
  -29.4280  -16.5870   20.2160 H   0  0  0  0  0  0  0  0  0  0  0  0
  -26.5130  -14.8650   20.3780 C   0  0  0  0  0  0  0  0  0  0  0  0
  -25.4370  -14.1210   20.7650 C   0  0  0  0  0  0  0  0  0  0  0  0
  -25.8270  -12.7570   20.5960 C   0  0  0  0  0  0  0  0  0  0  0  0
  -27.4860  -13.9580   19.9970 N   0  0  0  0  0  0  0  0  0  0  0  0
  -27.0860  -12.6780   20.1870 N   0  0  0  0  0  0  0  0  0  0  0  0
  -25.0540  -11.5210   20.7250 C   0  0  0  0  0  0  0  0  0  0  0  0
  -25.3880  -10.5370   21.6820 C   0  0  0  0  0  3  0  0  0  0  0  0
  -24.6140   -9.3640   21.7970 C   0  0  0  0  0  3  0  0  0  0  0  0
  -23.4960   -9.1670   20.9520 C   0  0  0  0  0  0  0  0  0  0  0  0
  -23.1820  -10.1400   19.9860 C   0  0  0  0  0  3  0  0  0  0  0  0
  -23.9560  -11.3050   19.8690 C   0  0  0  0  0  3  0  0  0  0  0  0
  -22.7000   -8.0480   20.9790 O   0  0  0  0  0  0  0  0  0  0  0  0
  -22.3600   -7.4370   22.1590 C   0  0  0  0  0  0  0  0  0  0  0  0
  -21.7450   -8.1460   23.2140 C   0  0  0  0  0  3  0  0  0  0  0  0
  -21.3490   -7.4660   24.3820 C   0  0  0  0  0  3  0  0  0  0  0  0
  -21.5550   -6.0780   24.4950 C   0  0  0  0  0  0  0  0  0  0  0  0
  -22.1620   -5.3690   23.4420 C   0  0  0  0  0  3  0  0  0  0  0  0
  -22.5600   -6.0470   22.2770 C   0  0  0  0  0  0  0  0  0  0  0  0
  -23.1260   -5.3560   21.2580 F   0  0  0  0  0  0  0  0  0  0  0  0
  -21.1670   -5.4230   25.6130 F   0  0  0  0  0  0  0  0  0  0  0  0
  -24.0900  -14.6410   21.1690 C   0  0  0  0  0  0  0  0  0  0  0  0
  -23.4030  -13.9350   22.0590 N   0  0  0  0  0  0  0  0  0  0  0  0
  -23.6570  -15.7060   20.7280 O   0  0  0  0  0  0  0  0  0  0  0  0
  -23.7700  -13.0750   22.4370 H   0  0  0  0  0  0  0  0  0  0  0  0
  -22.4990  -14.2620   22.3710 H   0  0  0  0  0  0  0  0  0  0  0  0
  -26.7320  -16.2330   20.2900 N   0  0  0  0  0  0  0  0  0  0  0  0
  -26.0000  -16.8960   20.5180 H   0  0  0  0  0  0  0  0  0  0  0  0
  -27.5340  -16.6610   19.8480 H   0  0  0  0  0  0  0  0  0  0  0  0
  1  3  1  0
  1  2  1  0
  4  1  1  0
  5  4  1  0
  8 19  2  0
  9 14  1  0
  9  7  1  0
 10 18  1  0
 10 20  1  0
 11 16  1  0
 11 17  1  0
 11 13  1  0
 12 18  1  0
 13 14  1  0
 13 12  1  0
 15 16  1  0
 15  9  1  0
 17 10  1  0
 18  8  1  0
 20 21  1  0
 20 22  2  0
 21 25  1  0
 23 21  1  0
 24 33  2  0
 24 29  1  0
 25 29  1  0
 27 28  1  0
 28 24  1  0
 29 30  2  0
 30 31  1  0
 32 31  2  0
 33 32  1  0
 34  8  1  0
 34 39  1  0
 34 35  1  0
 35 38  1  1
 35 36  1  0
 37 35  1  0
 39 42  1  0
 40 39  1  0
 40 44  1  0
 41 40  2  0
 44 43  1  0
 44 46  1  0
 46 47  1  0
 46 45  1  0
 48 49  2  0
 48  1  1  0
 50 51  1  0
 50 49  1  0
 52 51  2  0
 53 52  1  0
 54 63  1  0
 54 53  2  0
 55 63  1  0
 55 61  1  0
 56 61  1  0
 57 58  1  0
 57 56  1  0
 59 58  1  0
 59 68  1  0
 59 60  1  0
 61 60  1  0
 62 55  2  0
 63 64  1  0
 65 66  2  0
 66 85  1  0
 67 70  1  0
 67 66  1  0
 68 69  1  0
 68 65  1  0
 69 67  2  0
 70 71  1  0
 71 72  2  0
 73 76  1  0
 73 72  1  0
 74 73  2  0
 75 74  1  0
 75 70  2  0
 76 77  1  0
 77 82  2  0
 77 78  1  0
 78 79  2  0
 79 80  1  0
 80 84  1  0
 81 80  2  0
 82 81  1  0
 83 82  1  0
 85 86  1  0
 86 89  1  0
 86 88  1  0
 87 85  2  0
 90 65  1  0
 90 91  1  0
 92 90  1  0
M  ISO  4   6 101   7 101  55 100  63 100
M  END
>  <TORSDO>  (61) 
F 25

>  <SCORE>  (61) 
-5.671

>  <name>  (61) 
60

>  <ligand_id>  (61) 
60

>  <original_smiles>  (61) 
[H]C(=C([H])C([H])([H])C([H])([H])C([H])([H])[N+]([H])([H])C([H])([H])C([H])([H])C([H])([H])Oc1c([H])c([H])c2c(c1[H])C([H])([H])N(C(=O)C([H])(N([H])C(=O)C([H])(N([H])C([H])([H])[H])C([H])([H])[H])C(C([H])([H])[H])(C([H])([H])[H])C([H])([H])[H])C([H])(C(=O)N([H])C1([H])c3c([H])c([H])c([H])c([H])c3C([H])([H])C([H])([H])C1([H])[H])C2([H])[H])C([H])([H])C([H])([H])N([H])C(=O)N1C([H])([H])C([H])([H])C([H])([H])C([H])(n2nc(-c3c([H])c([H])c(Oc4c([H])c([H])c(F)c([H])c4F)c([H])c3[H])c(C(=O)N([H])[H])c2N([H])[H])C1([H])[H]

>  <smiles>  (61) 
[H]C(=C([H])C([H])([H])C([H])([H])C([H])([H])[N+]([H])([H])C([H])([H])C([H])([H])C([H])([H])Oc1c([H])c([H])c2c(c1[H])C([H])([H])N(C(=O)C([H])(N([H])C(=O)C([H])(N([H])C([H])([H])[H])C([H])([H])[H])C(C([H])([H])[H])(C([H])([H])[H])C([H])([H])[H])C([H])(C(=O)N([H])C1([H])c3c([H])c([H])c([H])c([H])c3C([H])([H])C([H])([H])C1([H])[H])C2([H])[H])C([H])([H])C([H])([H])N([H])C(=O)N1C([H])([H])C([H])([H])C([H])([H])C([H])(n2nc(-c3c([H])c([H])c(Oc4c([H])c([H])c(F)c([H])c4F)c([H])c3[H])c(C(=O)N([H])[H])c2N([H])[H])C1([H])[H]

$$$$
61:0:0
     RDKit          3D

 98107  0  0  1  0  0  0  0  0999 V2000
  -30.5690  -15.0210   20.1560 C   0  0  0  0  0  0  0  0  0  0  0  0
  -30.4460  -12.6030   19.3260 C   0  0  0  0  0  2  0  0  0  0  0  0
  -29.4790  -12.4330   18.1280 C   0  0  0  0  0  2  0  0  0  0  0  0
  -28.0270  -12.2350   18.6010 C   0  0  0  0  0  2  0  0  0  0  0  0
  -27.6410  -13.2380   19.7160 C   0  0  0  0  0  3  0  0  0  0  0  0
  -28.7170  -13.2940   20.8120 C   0  0  0  0  0  2  0  0  0  0  0  0
  -29.9720  -13.7450   20.1740 N   0  0  0  0  0  0  0  0  0  0  0  0
  -31.6930  -15.0830   19.6440 O   0  0  0  0  0  0  0  0  0  0  0  0
  -31.6810  -17.3360   22.6830 C   0  0  0  0  0  2  0  0  0  0  0  0
  -29.5570  -16.0550   22.0260 C   0  0  0  0  0  2  0  0  0  0  0  0
  -30.2760  -17.7920   20.4230 C   0  0  0  0  0  3  0  0  0  0  0  0
  -30.1790  -17.2020   22.7780 C   0  0  0  0  0  3  0  0  0  0  0  0
  -30.7500  -18.2110   21.8670 C   0  0  1  0  0  0  0  0  0  0  0  0
  -29.9010  -16.2200   20.5910 N   0  0  0  0  0  0  0  0  0  0  0  0
  -25.3160  -13.8860   20.5630 C   0  0  0  0  0  0  0  0  0  0  0  0
  -24.2450  -13.1420   20.9780 C   0  0  0  0  0  0  0  0  0  0  0  0
  -24.6700  -11.7770   20.9230 C   0  0  0  0  0  0  0  0  0  0  0  0
  -26.3180  -12.9760   20.2680 N   0  0  0  0  0  0  0  0  0  0  0  0
  -25.9420  -11.7030   20.5510 N   0  0  0  0  0  0  0  0  0  0  0  0
  -23.9160  -10.5360   21.1420 C   0  0  0  0  0  0  0  0  0  0  0  0
  -24.3710   -9.5420   22.0360 C   0  0  0  0  0  3  0  0  0  0  0  0
  -23.6190   -8.3650   22.2430 C   0  0  0  0  0  3  0  0  0  0  0  0
  -22.3970   -8.1760   21.5550 C   0  0  0  0  0  0  0  0  0  0  0  0
  -21.9600   -9.1580   20.6490 C   0  0  0  0  0  3  0  0  0  0  0  0
  -22.7120  -10.3250   20.4410 C   0  0  0  0  0  3  0  0  0  0  0  0
  -21.6110   -7.0550   21.6740 O   0  0  0  0  0  0  0  0  0  0  0  0
  -21.6340   -6.2740   22.8010 C   0  0  0  0  0  0  0  0  0  0  0  0
  -21.3450   -6.8030   24.0790 C   0  0  0  0  0  3  0  0  0  0  0  0
  -21.3130   -5.9530   25.2020 C   0  0  0  0  0  3  0  0  0  0  0  0
  -21.5590   -4.5750   25.0500 C   0  0  0  0  0  0  0  0  0  0  0  0
  -21.8430   -4.0460   23.7780 C   0  0  0  0  0  3  0  0  0  0  0  0
  -21.8780   -4.8940   22.6580 C   0  0  0  0  0  0  0  0  0  0  0  0
  -22.1300   -4.3750   21.4320 F   0  0  0  0  0  0  0  0  0  0  0  0
  -21.5210   -3.7560   26.1270 F   0  0  0  0  0  0  0  0  0  0  0  0
  -22.8760  -13.6580   21.3130 C   0  0  0  0  0  0  0  0  0  0  0  0
  -22.1770  -12.9940   22.2270 N   0  0  0  0  0  0  0  0  0  0  0  0
  -22.4370  -14.6850   20.7970 O   0  0  0  0  0  0  0  0  0  0  0  0
  -22.5450  -12.1620   22.6620 H   0  0  0  0  0  0  0  0  0  0  0  0
  -21.2610  -13.3240   22.4950 H   0  0  0  0  0  0  0  0  0  0  0  0
  -25.5160  -15.2510   20.3870 N   0  0  0  0  0  0  0  0  0  0  0  0
  -24.7870  -15.9370   20.5450 H   0  0  0  0  0  0  0  0  0  0  0  0
  -26.3780  -15.6650   20.0510 H   0  0  0  0  0  0  0  0  0  0  0  0
  -29.2470  -18.9440   19.7700 C   0  0  0  0  0  0  0  0  0  0  0  0
  -29.4760  -20.3560   19.6880 N   0  0  0  0  0  0  0  0  0  0  0  0
  -28.1750  -18.5180   19.3400 O   0  0  0  0  0  0  0  0  0  0  0  0
  -30.3830  -20.6170   20.0490 H   0  0  0  0  0  0  0  0  0  0  0  0
  -28.5880  -21.6000   19.2510 C   0  0  0  0  0  2  0  0  0  0  0  0
  -28.9930  -23.2500   19.3830 C   0  0  0  0  0  3  0  0  0  0  0  0
  -27.9490  -24.5680   19.1160 C   0  0  0  0  0  3  0  0  0  0  0  0
  -28.2230  -26.1100   19.2030 O   0  0  0  0  0  0  0  0  0  0  0  0
  -24.7470  -31.5410   22.8120 C   0  0  0  0  0  0  0  0  0  0  0  0
  -27.1570  -27.0870   19.2760 C   0  0  0  0  0  0  0  0  0  0  0  0
  -23.4500  -30.2480   21.1630 C   0  0  0  0  0  3  0  0  0  0  0  0
  -24.8110  -28.8010   19.5300 C   0  0  0  0  0  0  0  0  0  0  0  0
  -25.9840  -30.5620   20.8410 C   0  0  0  0  0  2  0  0  0  0  0  0
  -26.0270  -29.2190   20.0880 C   0  0  0  0  0  0  0  0  0  0  0  0
  -27.1970  -28.3800   19.9450 C   0  0  0  0  0  3  0  0  0  0  0  0
  -25.9110  -26.7790   18.6850 C   0  0  0  0  0  3  0  0  0  0  0  0
  -24.7670  -27.5970   18.8130 C   0  0  0  0  0  3  0  0  0  0  0  0
  -23.5800  -29.6720   19.7280 C   0  0  0  0  0  2  0  0  0  0  0  0
  -24.7510  -30.8020   21.6600 N   0  0  0  0  0  0  0  0  0  0  0  0
  -23.6980  -31.7700   23.4330 O   0  0  0  0  0  0  0  0  0  0  0  0
  -22.8490  -29.1670   22.0960 C   0  0  0  0  0  0  0  0  0  0  0  0
  -21.5160  -28.9890   22.0540 N   0  0  0  0  0  0  0  0  0  0  0  0
  -23.5830  -28.4890   22.8210 O   0  0  0  0  0  0  0  0  0  0  0  0
  -20.9750  -29.5890   21.4460 H   0  0  0  0  0  0  0  0  0  0  0  0
  -18.1980  -27.6650   22.6570 C   0  0  0  0  0  0  0  0  0  0  0  0
  -20.7590  -27.9890   22.8130 C   0  0  0  0  0  3  0  0  0  0  0  0
  -20.8710  -26.5930   22.1570 C   0  0  0  0  0  2  0  0  0  0  0  0
  -19.7290  -26.2920   21.1810 C   0  0  0  0  0  2  0  0  0  0  0  0
  -18.3780  -26.3590   21.8980 C   0  0  0  0  0  2  0  0  0  0  0  0
  -19.3160  -28.4360   23.0730 C   0  0  0  0  0  0  0  0  0  0  0  0
  -19.0910  -29.6560   23.7470 C   0  0  0  0  0  3  0  0  0  0  0  0
  -17.7830  -30.1060   24.0060 C   0  0  0  0  0  3  0  0  0  0  0  0
  -16.6810  -29.3310   23.6050 C   0  0  0  0  0  3  0  0  0  0  0  0
  -16.8900  -28.1100   22.9360 C   0  0  0  0  0  3  0  0  0  0  0  0
  -26.0580  -32.1510   23.3950 C   0  0  0  0  0  3  0  0  0  0  0  0
  -26.7170  -31.2500   24.5110 C   0  0  1  0  0  0  0  0  0  0  0  0
  -25.7400  -30.8440   25.6400 C   0  0  0  0  0  1  0  0  0  0  0  0
  -27.2950  -29.9530   23.9020 C   0  0  0  0  0  1  0  0  0  0  0  0
  -27.9060  -32.0030   25.1550 C   0  0  0  0  0  1  0  0  0  0  0  0
  -25.7330  -33.4810   23.9370 N   0  0  0  0  0  0  0  0  0  0  0  0
  -26.0400  -34.6440   23.3450 C   0  0  0  0  0  0  0  0  0  0  0  0
  -26.6930  -34.7090   22.3010 O   0  0  0  0  0  0  0  0  0  0  0  0
  -25.1540  -33.5040   24.7630 H   0  0  0  0  0  0  0  0  0  0  0  0
  -24.2940  -36.4570   23.2920 C   0  0  0  0  0  1  0  0  0  0  0  0
  -25.5470  -35.9410   24.0190 C   0  0  0  0  0  3  0  0  0  0  0  0
  -27.6820  -36.7070   24.9590 C   0  0  0  0  0  1  0  0  0  0  0  0
  -26.5700  -37.0090   24.0640 N   0  0  0  0  0  0  0  0  0  0  0  0
  -26.1570  -37.8910   24.3540 H   0  0  0  0  0  0  0  0  0  0  0  0
  -30.7220  -19.6750   22.3180 C   0  0  0  0  0  2  0  0  0  0  0  0
  -31.6410  -20.6160   21.5180 C   0  0  0  0  0  2  0  0  0  0  0  0
  -31.2400  -22.0870   21.7290 C   0  0  0  0  0  2  0  0  0  0  0  0
  -31.9530  -23.0640   20.7760 C   0  0  0  0  0  2  0  0  0  0  0  0
  -31.4950  -24.4490   20.9700 N   0  0  0  0  0  4  0  0  0  0  0  0
  -30.5070  -24.5300   20.8120 H   0  0  0  0  0  0  0  0  0  0  0  0
  -31.9650  -25.0630   20.3290 H   0  0  0  0  0  0  0  0  0  0  0  0
  -31.6990  -24.7610   21.9030 H   0  0  0  0  0  0  0  0  0  0  0  0
  1  7  1  0
  1 14  1  0
  2  7  1  0
  3  4  1  0
  3  2  1  0
  5  4  1  0
  5 18  1  0
  5  6  1  0
  7  6  1  0
  8  1  2  0
  9 12  1  0
 11 43  1  0
 11 14  1  0
 11 13  1  0
 12 10  1  0
 13 91  1  1
 13  9  1  0
 13 12  1  0
 14 10  1  0
 15 16  2  0
 16 35  1  0
 17 16  1  0
 17 20  1  0
 18 19  1  0
 18 15  1  0
 19 17  2  0
 20 21  1  0
 21 22  2  0
 23 26  1  0
 23 22  1  0
 24 23  2  0
 25 24  1  0
 25 20  2  0
 26 27  1  0
 27 28  1  0
 28 29  2  0
 30 29  1  0
 30 34  1  0
 31 30  2  0
 32 27  2  0
 32 31  1  0
 33 32  1  0
 35 36  1  0
 36 39  1  0
 36 38  1  0
 37 35  2  0
 40 41  1  0
 40 15  1  0
 42 40  1  0
 44 43  1  0
 44 46  1  0
 45 43  2  0
 47 48  1  0
 47 44  1  0
 49 50  1  0
 49 48  2  0
 50 52  1  0
 51 62  2  0
 52 57  1  0
 53 61  1  0
 53 63  1  0
 54 60  1  0
 54 56  1  0
 55 61  1  0
 56 55  1  0
 57 56  2  0
 58 59  1  0
 58 52  2  0
 59 54  2  0
 60 53  1  0
 61 51  1  0
 63 65  2  0
 64 63  1  0
 66 64  1  0
 67 76  2  0
 67 72  1  0
 68 64  1  0
 68 72  1  0
 69 68  1  0
 70 71  1  0
 70 69  1  0
 71 67  1  0
 72 73  2  0
 73 74  1  0
 75 74  2  0
 76 75  1  0
 77 51  1  0
 77 82  1  0
 77 78  1  0
 78 81  1  1
 78 79  1  0
 80 78  1  0
 82 85  1  0
 83 82  1  0
 83 87  1  0
 84 83  2  0
 87 86  1  0
 87 89  1  0
 89 90  1  0
 89 88  1  0
 92 93  1  0
 92 91  1  0
 94 95  1  0
 94 93  1  0
 95 98  1  0
 96 95  1  0
 97 95  1  0
M  ISO  4   1 100  14 100  49 101  50 101
M  END
>  <TORSDO>  (62) 
F 24

>  <SCORE>  (62) 
-10.617

>  <name>  (62) 
61

>  <ligand_id>  (62) 
61

>  <original_smiles>  (62) 
[H]c1c([H])c([H])c2c(c1[H])C([H])([H])C([H])([H])C([H])([H])C2([H])N([H])C(=O)C1([H])N(C(=O)C([H])(N([H])C(=O)C([H])(N([H])C([H])([H])[H])C([H])([H])[H])C(C([H])([H])[H])(C([H])([H])[H])C([H])([H])[H])C([H])([H])c2c([H])c(OC([H])([H])C([H])([H])C([H])([H])N([H])C(=O)C3([H])N(C(=O)N4C([H])([H])C([H])([H])C([H])([H])C([H])(n5nc(-c6c([H])c([H])c(Oc7c([H])c([H])c(F)c([H])c7F)c([H])c6[H])c(C(=O)N([H])[H])c5N([H])[H])C4([H])[H])C([H])([H])C4([H])C([H])([H])C34C([H])([H])C([H])([H])C([H])([H])C([H])([H])[N+]([H])([H])[H])c([H])c([H])c2C1([H])[H]

>  <smiles>  (62) 
[H]c1c([H])c([H])c2c(c1[H])C([H])([H])C([H])([H])C([H])([H])C2([H])N([H])C(=O)C1([H])N(C(=O)C([H])(N([H])C(=O)C([H])(N([H])C([H])([H])[H])C([H])([H])[H])C(C([H])([H])[H])(C([H])([H])[H])C([H])([H])[H])C([H])([H])c2c([H])c(OC([H])([H])C([H])([H])C([H])([H])N([H])C(=O)C3([H])N(C(=O)N4C([H])([H])C([H])([H])C([H])([H])C([H])(n5nc(-c6c([H])c([H])c(Oc7c([H])c([H])c(F)c([H])c7F)c([H])c6[H])c(C(=O)N([H])[H])c5N([H])[H])C4([H])[H])C([H])([H])C4([H])C([H])([H])C34C([H])([H])C([H])([H])C([H])([H])C([H])([H])[N+]([H])([H])[H])c([H])c([H])c2C1([H])[H]

$$$$
62:0:0
     RDKit          3D

 94101  0  0  1  0  0  0  0  0999 V2000
  -27.0700  -20.6290   20.3260 C   0  0  0  0  0  2  0  0  0  0  0  0
  -26.8220  -22.0930   20.1820 N   0  0  0  0  0  4  0  0  0  0  0  0
  -25.8930  -22.2770   20.5500 H   0  0  0  0  0  0  0  0  0  0  0  0
  -26.7900  -22.3100   19.2010 H   0  0  0  0  0  0  0  0  0  0  0  0
  -27.7710  -23.0190   20.8670 C   0  0  0  0  0  2  0  0  0  0  0  0
  -27.5370  -24.4990   20.4430 C   0  0  0  0  0  3  0  0  0  0  0  0
  -28.5420  -25.5630   20.9700 C   0  0  0  0  0  3  0  0  0  0  0  0
  -28.6110  -26.8530   20.3040 O   0  0  0  0  0  0  0  0  0  0  0  0
  -24.6060  -31.9500   23.3000 C   0  0  0  0  0  0  0  0  0  0  0  0
  -27.4670  -27.6200   20.2710 C   0  0  0  0  0  0  0  0  0  0  0  0
  -23.5150  -30.5730   21.5550 C   0  0  0  0  0  3  0  0  0  0  0  0
  -25.0760  -29.1130   20.1780 C   0  0  0  0  0  0  0  0  0  0  0  0
  -26.0440  -30.9800   21.5200 C   0  0  0  0  0  2  0  0  0  0  0  0
  -26.1910  -29.6290   20.8490 C   0  0  0  0  0  0  0  0  0  0  0  0
  -27.3960  -28.8930   20.8910 C   0  0  0  0  0  3  0  0  0  0  0  0
  -26.3460  -27.1400   19.5680 C   0  0  0  0  0  3  0  0  0  0  0  0
  -25.1440  -27.8640   19.5380 C   0  0  0  0  0  3  0  0  0  0  0  0
  -23.8320  -29.9560   20.1720 C   0  0  0  0  0  2  0  0  0  0  0  0
  -24.7340  -31.1820   22.1830 N   0  0  0  0  0  0  0  0  0  0  0  0
  -23.4950  -32.1870   23.7860 O   0  0  0  0  0  0  0  0  0  0  0  0
  -22.8420  -29.5050   22.4490 C   0  0  0  0  0  0  0  0  0  0  0  0
  -21.5250  -29.3200   22.2700 N   0  0  0  0  0  0  0  0  0  0  0  0
  -23.5010  -28.8520   23.2590 O   0  0  0  0  0  0  0  0  0  0  0  0
  -21.0460  -29.9510   21.6390 H   0  0  0  0  0  0  0  0  0  0  0  0
  -18.1300  -28.1100   22.6240 C   0  0  0  0  0  0  0  0  0  0  0  0
  -20.6800  -28.3400   22.9600 C   0  0  0  0  0  3  0  0  0  0  0  0
  -20.7870  -26.9380   22.3210 C   0  0  0  0  0  2  0  0  0  0  0  0
  -19.7090  -26.6720   21.2610 C   0  0  0  0  0  2  0  0  0  0  0  0
  -18.3100  -26.7950   21.8770 C   0  0  0  0  0  2  0  0  0  0  0  0
  -19.2400  -28.8420   23.1200 C   0  0  0  0  0  0  0  0  0  0  0  0
  -19.0110  -30.0710   23.7770 C   0  0  0  0  0  3  0  0  0  0  0  0
  -17.7050  -30.5740   23.9270 C   0  0  0  0  0  3  0  0  0  0  0  0
  -16.6090  -29.8430   23.4450 C   0  0  0  0  0  3  0  0  0  0  0  0
  -16.8240  -28.6080   22.8080 C   0  0  0  0  0  3  0  0  0  0  0  0
  -25.8460  -32.5900   24.0020 C   0  0  0  0  0  3  0  0  0  0  0  0
  -26.2710  -31.8380   25.3210 C   0  0  1  0  0  0  0  0  0  0  0  0
  -25.0980  -31.6070   26.3040 C   0  0  0  0  0  1  0  0  0  0  0  0
  -26.8900  -30.4560   25.0060 C   0  0  0  0  0  1  0  0  0  0  0  0
  -27.3610  -32.6570   26.0580 C   0  0  0  0  0  1  0  0  0  0  0  0
  -25.5130  -33.9900   24.2890 N   0  0  0  0  0  0  0  0  0  0  0  0
  -25.8780  -35.0320   23.5250 C   0  0  0  0  0  0  0  0  0  0  0  0
  -26.6010  -34.9050   22.5290 O   0  0  0  0  0  0  0  0  0  0  0  0
  -24.8790  -34.1680   25.0580 H   0  0  0  0  0  0  0  0  0  0  0  0
  -24.1730  -36.8050   23.0350 C   0  0  0  0  0  1  0  0  0  0  0  0
  -25.3660  -36.4190   23.9260 C   0  0  0  0  0  3  0  0  0  0  0  0
  -27.4420  -37.3390   24.8730 C   0  0  0  0  0  1  0  0  0  0  0  0
  -26.4000  -37.4790   23.8540 N   0  0  0  0  0  0  0  0  0  0  0  0
  -25.9820  -38.4000   23.9480 H   0  0  0  0  0  0  0  0  0  0  0  0
  -27.9870  -20.0280   19.2180 C   0  0  0  0  0  2  0  0  0  0  0  0
  -27.9270  -18.5000   19.0300 C   0  0  0  0  0  2  0  0  0  0  0  0
  -28.5620  -17.5910   20.1320 C   0  0  0  0  0  2  0  0  0  0  0  0
  -30.7190  -17.3940   18.6870 C   0  0  0  0  0  1  0  0  0  0  0  0
  -30.0960  -17.1900   20.1060 C   0  0  2  0  0  0  0  0  0  0  0  0
  -30.9750  -14.7230   20.2460 C   0  0  0  0  0  0  0  0  0  0  0  0
  -30.7130  -12.5330   19.1560 C   0  0  0  0  0  2  0  0  0  0  0  0
  -29.7400  -12.7240   17.9620 C   0  0  0  0  0  2  0  0  0  0  0  0
  -28.2710  -12.5770   18.4130 C   0  0  0  0  0  2  0  0  0  0  0  0
  -27.9510  -13.4380   19.6620 C   0  0  0  0  0  3  0  0  0  0  0  0
  -29.0270  -13.2150   20.7600 C   0  0  0  0  0  2  0  0  0  0  0  0
  -30.3480  -13.5200   20.1830 N   0  0  0  0  0  0  0  0  0  0  0  0
  -32.1290  -14.8890   19.8530 O   0  0  0  0  0  0  0  0  0  0  0  0
  -30.1350  -15.7480   20.5180 N   0  0  0  0  0  0  0  0  0  0  0  0
  -29.3120  -15.4500   21.0120 H   0  0  0  0  0  0  0  0  0  0  0  0
  -25.5510  -14.0720   20.3540 C   0  0  0  0  0  0  0  0  0  0  0  0
  -24.4720  -13.3090   20.7230 C   0  0  0  0  0  0  0  0  0  0  0  0
  -24.9270  -11.9540   20.7150 C   0  0  0  0  0  0  0  0  0  0  0  0
  -26.5910  -13.1800   20.1490 N   0  0  0  0  0  0  0  0  0  0  0  0
  -26.2200  -11.9050   20.4190 N   0  0  0  0  0  0  0  0  0  0  0  0
  -24.1900  -10.6970   20.9080 C   0  0  0  0  0  0  0  0  0  0  0  0
  -24.5640   -9.7650   21.9030 C   0  0  0  0  0  3  0  0  0  0  0  0
  -23.8250   -8.5760   22.0820 C   0  0  0  0  0  3  0  0  0  0  0  0
  -22.7020   -8.3100   21.2680 C   0  0  0  0  0  0  0  0  0  0  0  0
  -22.3520   -9.2240   20.2590 C   0  0  0  0  0  3  0  0  0  0  0  0
  -23.0910  -10.4050   20.0760 C   0  0  0  0  0  3  0  0  0  0  0  0
  -21.9380   -7.1730   21.3560 O   0  0  0  0  0  0  0  0  0  0  0  0
  -21.7740   -6.5060   22.5440 C   0  0  0  0  0  0  0  0  0  0  0  0
  -21.1670   -7.1210   23.6610 C   0  0  0  0  0  3  0  0  0  0  0  0
  -20.9510   -6.3820   24.8420 C   0  0  0  0  0  3  0  0  0  0  0  0
  -21.3350   -5.0290   24.9060 C   0  0  0  0  0  0  0  0  0  0  0  0
  -21.9400   -4.4150   23.7960 C   0  0  0  0  0  3  0  0  0  0  0  0
  -22.1560   -5.1510   22.6170 C   0  0  0  0  0  0  0  0  0  0  0  0
  -22.7180   -4.5530   21.5390 F   0  0  0  0  0  0  0  0  0  0  0  0
  -21.1250   -4.3110   26.0350 F   0  0  0  0  0  0  0  0  0  0  0  0
  -23.0790  -13.7990   20.9920 C   0  0  0  0  0  0  0  0  0  0  0  0
  -22.3460  -13.1090   21.8590 N   0  0  0  0  0  0  0  0  0  0  0  0
  -22.6480  -14.8300   20.4740 O   0  0  0  0  0  0  0  0  0  0  0  0
  -22.7120  -12.2800   22.3020 H   0  0  0  0  0  0  0  0  0  0  0  0
  -21.4080  -13.4140   22.0820 H   0  0  0  0  0  0  0  0  0  0  0  0
  -25.7050  -15.4350   20.1500 N   0  0  0  0  0  0  0  0  0  0  0  0
  -24.9290  -16.0860   20.2230 H   0  0  0  0  0  0  0  0  0  0  0  0
  -26.5220  -15.8470   19.7210 H   0  0  0  0  0  0  0  0  0  0  0  0
  -30.8990  -18.0050   21.1680 C   0  0  0  0  0  0  0  0  0  0  0  0
  -31.0130  -19.5300   21.0260 C   0  0  0  0  0  1  0  0  0  0  0  0
  -31.4360  -17.4540   22.1350 O   0  0  0  0  0  0  0  0  0  0  0  0
  2  1  1  0
  2  3  1  0
  2  5  1  0
  4  2  1  0
  6  5  1  0
  6  7  2  0
  8  7  1  0
  9 20  2  0
 10  8  1  0
 10 15  1  0
 11 19  1  0
 11 21  1  0
 12 14  1  0
 13 19  1  0
 14 15  2  0
 14 13  1  0
 16 10  2  0
 17 16  1  0
 17 12  2  0
 18 12  1  0
 18 11  1  0
 19  9  1  0
 21 23  2  0
 22 21  1  0
 24 22  1  0
 25 34  2  0
 25 30  1  0
 26 22  1  0
 26 30  1  0
 27 26  1  0
 28 29  1  0
 28 27  1  0
 29 25  1  0
 30 31  2  0
 31 32  1  0
 33 32  2  0
 34 33  1  0
 35  9  1  0
 35 40  1  0
 35 36  1  0
 36 39  1  1
 36 37  1  0
 38 36  1  0
 40 43  1  0
 41 45  1  0
 41 40  1  0
 42 41  2  0
 45 44  1  0
 47 45  1  0
 47 48  1  0
 47 46  1  0
 49  1  1  0
 50 49  1  0
 50 51  1  0
 53 52  1  6
 53 51  1  0
 53 62  1  0
 53 92  1  0
 54 62  1  0
 55 60  1  0
 56 57  1  0
 56 55  1  0
 58 57  1  0
 58 67  1  0
 58 59  1  0
 60 54  1  0
 60 59  1  0
 61 54  2  0
 62 63  1  0
 64 65  2  0
 65 84  1  0
 66 65  1  0
 66 69  1  0
 67 64  1  0
 67 68  1  0
 68 66  2  0
 69 70  1  0
 70 71  2  0
 72 75  1  0
 72 71  1  0
 73 72  2  0
 74 73  1  0
 74 69  2  0
 75 76  1  0
 76 81  2  0
 76 77  1  0
 77 78  2  0
 78 79  1  0
 79 83  1  0
 80 79  2  0
 81 80  1  0
 82 81  1  0
 84 85  1  0
 85 88  1  0
 85 87  1  0
 86 84  2  0
 89 90  1  0
 89 64  1  0
 91 89  1  0
 92 94  2  0
 93 92  1  0
M  ISO  4   7 101   8 101  54 100  62 100
M  END
>  <TORSDO>  (63) 
F 25

>  <SCORE>  (63) 
-11.519

>  <name>  (63) 
62

>  <ligand_id>  (63) 
62

>  <original_smiles>  (63) 
[H]c1c([H])c([H])c2c(c1[H])C([H])([H])C([H])([H])C([H])([H])C2([H])N([H])C(=O)C1([H])N(C(=O)C([H])(N([H])C(=O)C([H])(N([H])C([H])([H])[H])C([H])([H])[H])C(C([H])([H])[H])(C([H])([H])[H])C([H])([H])[H])C([H])([H])c2c([H])c(OC([H])([H])C([H])([H])C([H])([H])[N+]([H])([H])C([H])([H])C([H])([H])C([H])([H])C([H])([H])C(C(=O)C([H])([H])[H])(N([H])C(=O)N3C([H])([H])C([H])([H])C([H])([H])C([H])(n4nc(-c5c([H])c([H])c(Oc6c([H])c([H])c(F)c([H])c6F)c([H])c5[H])c(C(=O)N([H])[H])c4N([H])[H])C3([H])[H])C([H])([H])[H])c([H])c([H])c2C1([H])[H]

>  <smiles>  (63) 
[H]c1c([H])c([H])c2c(c1[H])C([H])([H])C([H])([H])C([H])([H])C2([H])N([H])C(=O)C1([H])N(C(=O)C([H])(N([H])C(=O)C([H])(N([H])C([H])([H])[H])C([H])([H])[H])C(C([H])([H])[H])(C([H])([H])[H])C([H])([H])[H])C([H])([H])c2c([H])c(OC([H])([H])C([H])([H])C([H])([H])[N+]([H])([H])C([H])([H])C([H])([H])C([H])([H])C([H])([H])C(C(=O)C([H])([H])[H])(N([H])C(=O)N3C([H])([H])C([H])([H])C([H])([H])C([H])(n4nc(-c5c([H])c([H])c(Oc6c([H])c([H])c(F)c([H])c6F)c([H])c5[H])c(C(=O)N([H])[H])c4N([H])[H])C3([H])[H])C([H])([H])[H])c([H])c([H])c2C1([H])[H]

$$$$
63:0:0
     RDKit          3D

 95103  0  0  1  0  0  0  0  0999 V2000
  -27.5350  -22.5980   19.9030 C   0  0  0  0  0  2  0  0  0  0  0  0
  -29.8450  -22.5960   20.9030 C   0  0  0  0  0  2  0  0  0  0  0  0
  -27.7350  -21.1380   19.4510 C   0  0  0  0  0  2  0  0  0  0  0  0
  -30.0400  -21.1310   20.4670 C   0  0  0  0  0  2  0  0  0  0  0  0
  -28.8730  -23.3580   19.9820 C   0  0  0  0  0  3  0  0  0  0  0  0
  -28.7230  -20.3270   20.3340 C   0  0  1  0  0  0  0  0  0  0  0  0
  -28.1300  -20.0930   21.6690 N   0  0  0  0  0  4  0  0  0  0  0  0
  -27.9410  -20.9600   22.1360 H   0  0  0  0  0  0  0  0  0  0  0  0
  -28.7540  -19.5610   22.2500 H   0  0  0  0  0  0  0  0  0  0  0  0
  -27.2660  -19.5850   21.5970 H   0  0  0  0  0  0  0  0  0  0  0  0
  -28.6690  -24.8140   20.4550 C   0  0  0  0  0  2  0  0  0  0  0  0
  -28.5580  -25.8340   19.3100 C   0  0  0  0  0  2  0  0  0  0  0  0
  -28.4210  -27.1400   19.8620 O   0  0  0  0  0  0  0  0  0  0  0  0
  -24.5880  -32.0320   23.2910 C   0  0  0  0  0  0  0  0  0  0  0  0
  -27.1870  -27.7530   19.9580 C   0  0  0  0  0  0  0  0  0  0  0  0
  -23.3430  -30.6820   21.6330 C   0  0  0  0  0  3  0  0  0  0  0  0
  -24.7660  -29.2100   20.1160 C   0  0  0  0  0  0  0  0  0  0  0  0
  -25.8560  -31.0770   21.3720 C   0  0  0  0  0  2  0  0  0  0  0  0
  -25.9330  -29.7290   20.6860 C   0  0  0  0  0  0  0  0  0  0  0  0
  -27.1420  -29.0050   20.6090 C   0  0  0  0  0  3  0  0  0  0  0  0
  -25.9910  -27.2310   19.4050 C   0  0  0  0  0  3  0  0  0  0  0  0
  -24.7880  -27.9590   19.4800 C   0  0  0  0  0  3  0  0  0  0  0  0
  -23.5140  -30.0490   20.2270 C   0  0  0  0  0  2  0  0  0  0  0  0
  -24.6150  -31.2780   22.1580 N   0  0  0  0  0  0  0  0  0  0  0  0
  -23.5220  -32.2750   23.8740 O   0  0  0  0  0  0  0  0  0  0  0  0
  -22.7310  -29.6230   22.5750 C   0  0  0  0  0  0  0  0  0  0  0  0
  -21.4100  -29.4100   22.4570 N   0  0  0  0  0  0  0  0  0  0  0  0
  -23.4400  -28.9950   23.3670 O   0  0  0  0  0  0  0  0  0  0  0  0
  -20.9000  -29.9690   21.7870 H   0  0  0  0  0  0  0  0  0  0  0  0
  -18.0800  -28.0890   22.9220 C   0  0  0  0  0  0  0  0  0  0  0  0
  -20.6250  -28.4320   23.2100 C   0  0  0  0  0  3  0  0  0  0  0  0
  -20.7810  -27.0140   22.6120 C   0  0  0  0  0  2  0  0  0  0  0  0
  -19.6960  -26.6680   21.5880 C   0  0  0  0  0  2  0  0  0  0  0  0
  -18.3070  -26.7560   22.2280 C   0  0  0  0  0  2  0  0  0  0  0  0
  -19.1690  -28.8820   23.3690 C   0  0  0  0  0  0  0  0  0  0  0  0
  -18.9040  -30.1300   23.9760 C   0  0  0  0  0  3  0  0  0  0  0  0
  -17.5830  -30.5850   24.1380 C   0  0  0  0  0  3  0  0  0  0  0  0
  -16.5080  -29.7870   23.7090 C   0  0  0  0  0  3  0  0  0  0  0  0
  -16.7570  -28.5410   23.1080 C   0  0  0  0  0  3  0  0  0  0  0  0
  -25.8870  -32.6500   23.8950 C   0  0  0  0  0  3  0  0  0  0  0  0
  -26.4310  -31.8540   25.1440 C   0  0  1  0  0  0  0  0  0  0  0  0
  -25.3560  -31.5870   26.2250 C   0  0  0  0  0  1  0  0  0  0  0  0
  -27.0170  -30.4900   24.7080 C   0  0  0  0  0  1  0  0  0  0  0  0
  -27.5830  -32.6460   25.8060 C   0  0  0  0  0  1  0  0  0  0  0  0
  -25.5850  -34.0410   24.2530 N   0  0  0  0  0  0  0  0  0  0  0  0
  -25.9110  -35.1060   23.5090 C   0  0  0  0  0  0  0  0  0  0  0  0
  -26.5670  -35.0190   22.4660 O   0  0  0  0  0  0  0  0  0  0  0  0
  -24.9980  -34.1800   25.0620 H   0  0  0  0  0  0  0  0  0  0  0  0
  -24.1890  -36.9140   23.2060 C   0  0  0  0  0  1  0  0  0  0  0  0
  -25.4350  -36.4870   23.9970 C   0  0  0  0  0  3  0  0  0  0  0  0
  -27.5870  -37.3460   24.8160 C   0  0  0  0  0  1  0  0  0  0  0  0
  -26.4720  -37.5370   23.8910 N   0  0  0  0  0  0  0  0  0  0  0  0
  -26.0730  -38.4560   24.0620 H   0  0  0  0  0  0  0  0  0  0  0  0
  -28.9630  -18.9570   19.6330 C   0  0  0  0  0  2  0  0  0  0  0  0
  -29.7510  -17.8730   20.4050 C   0  0  0  0  0  2  0  0  0  0  0  0
  -31.2460  -17.7730   20.0230 C   0  0  0  0  0  2  0  0  0  0  0  0
  -32.0180  -16.6910   20.8020 C   0  0  0  0  0  2  0  0  0  0  0  0
  -31.8070  -14.4170   19.7740 C   0  0  0  0  0  0  0  0  0  0  0  0
  -31.3520  -12.1310   18.9550 C   0  0  0  0  0  2  0  0  0  0  0  0
  -30.3630  -12.1390   17.7750 C   0  0  0  0  0  2  0  0  0  0  0  0
  -28.9080  -12.1310   18.2810 C   0  0  0  0  0  2  0  0  0  0  0  0
  -28.6500  -13.2190   19.3560 C   0  0  0  0  0  3  0  0  0  0  0  0
  -29.7330  -13.1580   20.4540 C   0  0  0  0  0  2  0  0  0  0  0  0
  -31.0580  -13.2860   19.8140 N   0  0  0  0  0  0  0  0  0  0  0  0
  -32.7880  -14.5610   19.0370 O   0  0  0  0  0  0  0  0  0  0  0  0
  -31.4230  -15.3670   20.6360 N   0  0  0  0  0  0  0  0  0  0  0  0
  -30.6390  -15.1380   21.2270 H   0  0  0  0  0  0  0  0  0  0  0  0
  -26.4020  -14.0980   20.2580 C   0  0  0  0  0  0  0  0  0  0  0  0
  -25.2720  -13.4510   20.6800 C   0  0  0  0  0  0  0  0  0  0  0  0
  -25.5520  -12.0550   20.5690 C   0  0  0  0  0  0  0  0  0  0  0  0
  -27.3070  -13.1020   19.9210 N   0  0  0  0  0  0  0  0  0  0  0  0
  -26.7990  -11.8660   20.1620 N   0  0  0  0  0  0  0  0  0  0  0  0
  -24.6850  -10.8870   20.7710 C   0  0  0  0  0  0  0  0  0  0  0  0
  -25.0080   -9.8810   21.7080 C   0  0  0  0  0  3  0  0  0  0  0  0
  -24.1520   -8.7750   21.8970 C   0  0  0  0  0  3  0  0  0  0  0  0
  -22.9550   -8.6700   21.1490 C   0  0  0  0  0  0  0  0  0  0  0  0
  -22.6490   -9.6620   20.2010 C   0  0  0  0  0  3  0  0  0  0  0  0
  -23.5060  -10.7580   20.0100 C   0  0  0  0  0  3  0  0  0  0  0  0
  -22.0740   -7.6200   21.2460 O   0  0  0  0  0  0  0  0  0  0  0  0
  -21.8840   -6.9490   22.4270 C   0  0  0  0  0  0  0  0  0  0  0  0
  -21.4510   -7.6080   23.5980 C   0  0  0  0  0  3  0  0  0  0  0  0
  -21.2000   -6.8690   24.7720 C   0  0  0  0  0  3  0  0  0  0  0  0
  -21.3710   -5.4720   24.7740 C   0  0  0  0  0  0  0  0  0  0  0  0
  -21.7970   -4.8120   23.6080 C   0  0  0  0  0  3  0  0  0  0  0  0
  -22.0500   -5.5490   22.4380 C   0  0  0  0  0  0  0  0  0  0  0  0
  -22.4390   -4.9050   21.3100 F   0  0  0  0  0  0  0  0  0  0  0  0
  -21.1230   -4.7600   25.8980 F   0  0  0  0  0  0  0  0  0  0  0  0
  -23.9700  -14.0880   21.0740 C   0  0  0  0  0  0  0  0  0  0  0  0
  -23.2340  -13.4640   21.9880 N   0  0  0  0  0  0  0  0  0  0  0  0
  -23.6190  -15.1710   20.6060 O   0  0  0  0  0  0  0  0  0  0  0  0
  -23.5310  -12.5850   22.3870 H   0  0  0  0  0  0  0  0  0  0  0  0
  -22.3620  -13.8710   22.2950 H   0  0  0  0  0  0  0  0  0  0  0  0
  -26.7310  -15.4430   20.1150 N   0  0  0  0  0  0  0  0  0  0  0  0
  -26.0640  -16.1850   20.2950 H   0  0  0  0  0  0  0  0  0  0  0  0
  -27.6080  -15.7780   19.7370 H   0  0  0  0  0  0  0  0  0  0  0  0
  1  5  1  0
  3  1  1  0
  3  6  1  0
  4  2  1  0
  5 11  1  0
  5  2  1  0
  6 54  1  6
  6  4  1  0
  6  7  1  0
  7  8  1  0
  7  9  1  0
 10  7  1  0
 12 13  1  0
 12 11  1  0
 13 15  1  0
 14 25  2  0
 15 20  1  0
 16 24  1  0
 16 26  1  0
 17 23  1  0
 17 19  1  0
 18 24  1  0
 19 18  1  0
 20 19  2  0
 21 22  1  0
 21 15  2  0
 22 17  2  0
 23 16  1  0
 24 14  1  0
 26 28  2  0
 27 26  1  0
 29 27  1  0
 30 39  2  0
 30 35  1  0
 31 27  1  0
 31 35  1  0
 32 31  1  0
 33 34  1  0
 33 32  1  0
 34 30  1  0
 35 36  2  0
 36 37  1  0
 38 37  2  0
 39 38  1  0
 40 14  1  0
 40 45  1  0
 40 41  1  0
 41 44  1  1
 41 42  1  0
 43 41  1  0
 45 48  1  0
 46 50  1  0
 46 45  1  0
 47 46  2  0
 50 49  1  0
 52 50  1  0
 52 53  1  0
 52 51  1  0
 54 55  1  0
 56 55  1  0
 56 57  1  0
 58 64  1  0
 58 66  1  0
 59 64  1  0
 60 61  1  0
 60 59  1  0
 62 61  1  0
 62 71  1  0
 62 63  1  0
 64 63  1  0
 65 58  2  0
 66 57  1  0
 66 67  1  0
 68 69  2  0
 69 88  1  0
 70 69  1  0
 70 73  1  0
 71 72  1  0
 71 68  1  0
 72 70  2  0
 73 74  1  0
 74 75  2  0
 76 79  1  0
 76 75  1  0
 77 76  2  0
 78 77  1  0
 78 73  2  0
 79 80  1  0
 80 85  2  0
 80 81  1  0
 81 82  2  0
 82 83  1  0
 83 87  1  0
 84 83  2  0
 85 84  1  0
 86 85  1  0
 88 89  1  0
 89 92  1  0
 89 91  1  0
 90 88  2  0
 93 68  1  0
 93 94  1  0
 95 93  1  0
M  ISO  4  12 101  13 101  58 100  66 100
M  END
>  <TORSDO>  (64) 
F 23

>  <SCORE>  (64) 
-11.245

>  <name>  (64) 
63

>  <ligand_id>  (64) 
63

>  <original_smiles>  (64) 
[H]c1c([H])c([H])c2c(c1[H])C([H])([H])C([H])([H])C([H])([H])C2([H])N([H])C(=O)C1([H])N(C(=O)C([H])(N([H])C(=O)C([H])(N([H])C([H])([H])[H])C([H])([H])[H])C(C([H])([H])[H])(C([H])([H])[H])C([H])([H])[H])C([H])([H])c2c([H])c(OC([H])([H])C([H])([H])C3([H])C([H])([H])C([H])([H])C(C([H])([H])C([H])([H])C([H])([H])C([H])([H])N([H])C(=O)N4C([H])([H])C([H])([H])C([H])([H])C([H])(n5nc(-c6c([H])c([H])c(Oc7c([H])c([H])c(F)c([H])c7F)c([H])c6[H])c(C(=O)N([H])[H])c5N([H])[H])C4([H])[H])([N+]([H])([H])[H])C([H])([H])C3([H])[H])c([H])c([H])c2C1([H])[H]

>  <smiles>  (64) 
[H]c1c([H])c([H])c2c(c1[H])C([H])([H])C([H])([H])C([H])([H])C2([H])N([H])C(=O)C1([H])N(C(=O)C([H])(N([H])C(=O)C([H])(N([H])C([H])([H])[H])C([H])([H])[H])C(C([H])([H])[H])(C([H])([H])[H])C([H])([H])[H])C([H])([H])c2c([H])c(OC([H])([H])C([H])([H])C3([H])C([H])([H])C([H])([H])C(C([H])([H])C([H])([H])C([H])([H])C([H])([H])N([H])C(=O)N4C([H])([H])C([H])([H])C([H])([H])C([H])(n5nc(-c6c([H])c([H])c(Oc7c([H])c([H])c(F)c([H])c7F)c([H])c6[H])c(C(=O)N([H])[H])c5N([H])[H])C4([H])[H])([N+]([H])([H])[H])C([H])([H])C3([H])[H])c([H])c([H])c2C1([H])[H]

$$$$
64:0:0
     RDKit          3D

 91100  0  0  1  0  0  0  0  0999 V2000
  -27.5960  -20.9480   20.4470 C   0  0  0  0  0  2  0  0  0  0  0  0
  -28.9310  -18.7200   21.2430 C   0  0  0  0  0  2  0  0  0  0  0  0
  -28.0710  -19.5000   20.2280 C   0  0  0  0  0  3  0  0  0  0  0  0
  -29.3580  -19.9460   19.5310 C   0  0  0  0  0  3  0  0  0  0  0  0
  -28.9850  -21.5320   20.1730 C   0  0  0  0  0  3  0  0  0  0  0  0
  -29.9780  -18.4240   20.1420 C   0  0  1  0  0  0  0  0  0  0  0  0
  -31.4110  -18.6720   20.6420 C   0  0  0  0  0  0  0  0  0  0  0  0
  -32.2850  -19.1450   19.7640 N   0  0  0  0  0  0  0  0  0  0  0  0
  -31.7370  -18.4350   21.8030 O   0  0  0  0  0  0  0  0  0  0  0  0
  -31.9940  -19.3420   18.8150 H   0  0  0  0  0  0  0  0  0  0  0  0
  -33.2400  -19.3280   20.0360 H   0  0  0  0  0  0  0  0  0  0  0  0
  -29.8980  -16.7420   19.6390 C   0  0  0  0  0  2  0  0  0  0  0  0
  -30.7560  -15.2500   19.6530 C   0  0  0  0  0  0  0  0  0  0  0  0
  -30.6490  -12.8210   18.8460 C   0  0  0  0  0  2  0  0  0  0  0  0
  -29.6480  -12.6850   17.6710 C   0  0  0  0  0  2  0  0  0  0  0  0
  -28.2160  -12.4650   18.1940 C   0  0  0  0  0  2  0  0  0  0  0  0
  -27.8580  -13.4350   19.3490 C   0  0  0  0  0  3  0  0  0  0  0  0
  -28.9760  -13.5360   20.4030 C   0  0  0  0  0  2  0  0  0  0  0  0
  -30.2010  -13.9570   19.7110 N   0  0  0  0  0  0  0  0  0  0  0  0
  -31.9670  -15.2500   19.3830 O   0  0  0  0  0  0  0  0  0  0  0  0
  -25.5580  -14.0240   20.2910 C   0  0  0  0  0  0  0  0  0  0  0  0
  -24.5090  -13.2580   20.7180 C   0  0  0  0  0  0  0  0  0  0  0  0
  -24.9460  -11.9010   20.6210 C   0  0  0  0  0  0  0  0  0  0  0  0
  -26.5620  -13.1370   19.9460 N   0  0  0  0  0  0  0  0  0  0  0  0
  -26.2100  -11.8510   20.2130 N   0  0  0  0  0  0  0  0  0  0  0  0
  -24.2110  -10.6470   20.8350 C   0  0  0  0  0  0  0  0  0  0  0  0
  -24.6340   -9.6930   21.7870 C   0  0  0  0  0  3  0  0  0  0  0  0
  -23.8980   -8.5060   21.9880 C   0  0  0  0  0  3  0  0  0  0  0  0
  -22.7240   -8.2620   21.2360 C   0  0  0  0  0  0  0  0  0  0  0  0
  -22.3200   -9.2040   20.2730 C   0  0  0  0  0  3  0  0  0  0  0  0
  -23.0570  -10.3820   20.0710 C   0  0  0  0  0  3  0  0  0  0  0  0
  -21.9600   -7.1250   21.3440 O   0  0  0  0  0  0  0  0  0  0  0  0
  -21.8360   -6.4520   22.5330 C   0  0  0  0  0  0  0  0  0  0  0  0
  -21.3040   -7.0690   23.6860 C   0  0  0  0  0  3  0  0  0  0  0  0
  -21.1280   -6.3210   24.8670 C   0  0  0  0  0  3  0  0  0  0  0  0
  -21.4740   -4.9560   24.8960 C   0  0  0  0  0  0  0  0  0  0  0  0
  -21.9990   -4.3390   23.7470 C   0  0  0  0  0  3  0  0  0  0  0  0
  -22.1760   -5.0850   22.5680 C   0  0  0  0  0  0  0  0  0  0  0  0
  -22.6610   -4.4790   21.4580 F   0  0  0  0  0  0  0  0  0  0  0  0
  -21.2990   -4.2360   26.0280 F   0  0  0  0  0  0  0  0  0  0  0  0
  -23.1440  -13.7520   21.0980 C   0  0  0  0  0  0  0  0  0  0  0  0
  -22.4650  -13.0490   21.9960 N   0  0  0  0  0  0  0  0  0  0  0  0
  -22.6920  -14.7980   20.6330 O   0  0  0  0  0  0  0  0  0  0  0  0
  -22.8450  -12.2010   22.3920 H   0  0  0  0  0  0  0  0  0  0  0  0
  -21.5520  -13.3630   22.2920 H   0  0  0  0  0  0  0  0  0  0  0  0
  -25.7370  -15.3960   20.1380 N   0  0  0  0  0  0  0  0  0  0  0  0
  -24.9980  -16.0650   20.3340 H   0  0  0  0  0  0  0  0  0  0  0  0
  -26.5750  -15.8280   19.7710 H   0  0  0  0  0  0  0  0  0  0  0  0
  -29.0080  -23.1690   19.5780 C   0  0  0  0  0  3  0  0  0  0  0  0
  -28.1400  -24.5600   20.1650 C   0  0  0  0  0  3  0  0  0  0  0  0
  -28.3580  -26.1380   19.9750 O   0  0  0  0  0  0  0  0  0  0  0  0
  -24.6970  -31.8400   23.1270 C   0  0  0  0  0  0  0  0  0  0  0  0
  -27.2960  -27.1460   19.9920 C   0  0  0  0  0  0  0  0  0  0  0  0
  -23.5000  -30.4570   21.4770 C   0  0  0  0  0  3  0  0  0  0  0  0
  -24.9540  -28.9150   20.0110 C   0  0  0  0  0  0  0  0  0  0  0  0
  -26.0540  -30.7380   21.2950 C   0  0  0  0  0  2  0  0  0  0  0  0
  -26.1400  -29.3510   20.6170 C   0  0  0  0  0  0  0  0  0  0  0  0
  -27.3100  -28.4870   20.5840 C   0  0  0  0  0  3  0  0  0  0  0  0
  -26.0830  -26.8350   19.3450 C   0  0  0  0  0  3  0  0  0  0  0  0
  -24.9440  -27.6740   19.3560 C   0  0  0  0  0  3  0  0  0  0  0  0
  -23.7190  -29.8040   20.0850 C   0  0  0  0  0  2  0  0  0  0  0  0
  -24.7720  -31.0350   22.0190 N   0  0  0  0  0  0  0  0  0  0  0  0
  -23.6110  -32.1000   23.6690 O   0  0  0  0  0  0  0  0  0  0  0  0
  -22.8410  -29.4280   22.4290 C   0  0  0  0  0  0  0  0  0  0  0  0
  -21.5120  -29.2470   22.3200 N   0  0  0  0  0  0  0  0  0  0  0  0
  -23.5290  -28.7940   23.2330 O   0  0  0  0  0  0  0  0  0  0  0  0
  -21.0100  -29.8110   21.6480 H   0  0  0  0  0  0  0  0  0  0  0  0
  -18.1540  -27.9850   22.8390 C   0  0  0  0  0  0  0  0  0  0  0  0
  -20.7110  -28.2850   23.0830 C   0  0  0  0  0  3  0  0  0  0  0  0
  -20.8300  -26.8640   22.4850 C   0  0  0  0  0  2  0  0  0  0  0  0
  -19.7220  -26.5390   21.4770 C   0  0  0  0  0  2  0  0  0  0  0  0
  -18.3460  -26.6510   22.1370 C   0  0  0  0  0  2  0  0  0  0  0  0
  -19.2640  -28.7590   23.2700 C   0  0  0  0  0  0  0  0  0  0  0  0
  -19.0290  -30.0060   23.8890 C   0  0  0  0  0  3  0  0  0  0  0  0
  -17.7180  -30.4800   24.0810 C   0  0  0  0  0  3  0  0  0  0  0  0
  -16.6220  -29.7040   23.6650 C   0  0  0  0  0  3  0  0  0  0  0  0
  -16.8420  -28.4580   23.0500 C   0  0  0  0  0  3  0  0  0  0  0  0
  -25.9690  -32.4850   23.7530 C   0  0  0  0  0  3  0  0  0  0  0  0
  -26.4910  -31.7140   25.0280 C   0  0  1  0  0  0  0  0  0  0  0  0
  -25.4000  -31.4630   26.0950 C   0  0  0  0  0  1  0  0  0  0  0  0
  -27.0880  -30.3420   24.6390 C   0  0  0  0  0  1  0  0  0  0  0  0
  -27.6350  -32.5160   25.6930 C   0  0  0  0  0  1  0  0  0  0  0  0
  -25.6440  -33.8790   24.0980 N   0  0  0  0  0  0  0  0  0  0  0  0
  -25.9670  -34.9480   23.3590 C   0  0  0  0  0  0  0  0  0  0  0  0
  -26.6350  -34.8650   22.3240 O   0  0  0  0  0  0  0  0  0  0  0  0
  -25.0480  -34.0170   24.9030 H   0  0  0  0  0  0  0  0  0  0  0  0
  -24.2250  -36.7380   23.0390 C   0  0  0  0  0  1  0  0  0  0  0  0
  -25.4720  -36.3280   23.8390 C   0  0  0  0  0  3  0  0  0  0  0  0
  -27.6010  -37.2210   24.6770 C   0  0  0  0  0  1  0  0  0  0  0  0
  -26.4970  -37.3900   23.7360 N   0  0  0  0  0  0  0  0  0  0  0  0
  -26.0840  -38.3060   23.8920 H   0  0  0  0  0  0  0  0  0  0  0  0
  3  1  1  0
  3  2  1  0
  4  6  1  0
  4  5  1  0
  4  3  1  0
  5  1  1  0
  6  7  1  0
  6  2  1  0
  7  9  2  0
  8 11  1  0
  8  7  1  0
 10  8  1  0
 12 13  1  0
  6 12  1  6
 13 19  1  0
 14 19  1  0
 15 16  1  0
 15 14  1  0
 16 17  1  0
 17 24  1  0
 17 18  1  0
 19 18  1  0
 20 13  2  0
 21 22  2  0
 22 41  1  0
 23 22  1  0
 23 26  1  0
 24 25  1  0
 24 21  1  0
 25 23  2  0
 26 27  1  0
 27 28  2  0
 29 32  1  0
 29 28  1  0
 30 29  2  0
 31 30  1  0
 31 26  2  0
 32 33  1  0
 33 38  2  0
 33 34  1  0
 34 35  2  0
 35 36  1  0
 36 40  1  0
 37 36  2  0
 38 37  1  0
 39 38  1  0
 41 42  1  0
 42 45  1  0
 42 44  1  0
 43 41  2  0
 46 21  1  0
 46 47  1  0
 48 46  1  0
 49 50  2  0
 49  5  1  0
 51 53  1  0
 51 50  1  0
 52 63  2  0
 52 78  1  0
 53 58  1  0
 54 62  1  0
 54 64  1  0
 55 61  1  0
 55 57  1  0
 56 62  1  0
 57 56  1  0
 58 57  2  0
 59 60  1  0
 59 53  2  0
 60 55  2  0
 61 54  1  0
 62 52  1  0
 64 66  2  0
 65 64  1  0
 65 69  1  0
 67 65  1  0
 68 77  2  0
 68 73  1  0
 69 73  1  0
 70 69  1  0
 71 72  1  0
 71 70  1  0
 72 68  1  0
 73 74  2  0
 74 75  1  0
 76 75  2  0
 77 76  1  0
 78 83  1  0
 78 79  1  0
 79 82  1  1
 79 80  1  0
 81 79  1  0
 83 86  1  0
 84 88  1  0
 84 83  1  0
 85 84  2  0
 87 88  1  0
 90 88  1  0
 90 91  1  0
 90 89  1  0
M  ISO  4  12 100  13 100  50 101  51 101
M  END
>  <TORSDO>  (65) 
F 20

>  <SCORE>  (65) 
-14.536

>  <name>  (65) 
64

>  <ligand_id>  (65) 
64

>  <original_smiles>  (65) 
[H]c1c([H])c([H])c2c(c1[H])C([H])([H])C([H])([H])C([H])([H])C2([H])N([H])C(=O)C1([H])N(C(=O)C([H])(N([H])C(=O)C([H])(N([H])C([H])([H])[H])C([H])([H])[H])C(C([H])([H])[H])(C([H])([H])[H])C([H])([H])[H])C([H])([H])c2c([H])c(OC([H])([H])C([H])([H])C3([H])C([H])([H])C4([H])C([H])([H])C(C(=O)N([H])[H])(C([H])([H])C(=O)N5C([H])([H])C([H])([H])C([H])([H])C([H])(n6nc(-c7c([H])c([H])c(Oc8c([H])c([H])c(F)c([H])c8F)c([H])c7[H])c(C(=O)N([H])[H])c6N([H])[H])C5([H])[H])C34[H])c([H])c([H])c2C1([H])[H]

>  <smiles>  (65) 
[H]c1c([H])c([H])c2c(c1[H])C([H])([H])C([H])([H])C([H])([H])C2([H])N([H])C(=O)C1([H])N(C(=O)C([H])(N([H])C(=O)C([H])(N([H])C([H])([H])[H])C([H])([H])[H])C(C([H])([H])[H])(C([H])([H])[H])C([H])([H])[H])C([H])([H])c2c([H])c(OC([H])([H])C([H])([H])C3([H])C([H])([H])C4([H])C([H])([H])C(C(=O)N([H])[H])(C([H])([H])C(=O)N5C([H])([H])C([H])([H])C([H])([H])C([H])(n6nc(-c7c([H])c([H])c(Oc8c([H])c([H])c(F)c([H])c8F)c([H])c7[H])c(C(=O)N([H])[H])c6N([H])[H])C5([H])[H])C34[H])c([H])c([H])c2C1([H])[H]

$$$$
65:0:0
     RDKit          3D

 90 97  0  0  1  0  0  0  0  0999 V2000
  -27.9220  -22.6720   21.1710 C   0  0  0  0  0  0  0  0  0  0  0  0
  -27.2700  -22.3990   22.1800 O   0  0  0  0  0  0  0  0  0  0  0  0
  -28.6430  -21.6020   20.3320 C   0  0  0  0  0  2  0  0  0  0  0  0
  -28.4040  -20.1260   20.7560 C   0  0  0  0  0  2  0  0  0  0  0  0
  -29.5950  -19.1850   20.4340 C   0  0  0  0  0  2  0  0  0  0  0  0
  -29.3080  -17.7050   20.7940 C   0  0  0  0  0  2  0  0  0  0  0  0
  -31.2980  -17.0970   22.3010 C   0  0  0  0  0  1  0  0  0  0  0  0
  -30.5510  -16.7990   20.9830 C   0  0  0  0  0  3  0  0  0  0  0  0
  -30.6760  -14.4290   20.1510 C   0  0  0  0  0  0  0  0  0  0  0  0
  -30.2950  -12.2750   19.0010 C   0  0  0  0  0  2  0  0  0  0  0  0
  -29.3240  -12.5010   17.8290 C   0  0  0  0  0  2  0  0  0  0  0  0
  -27.8610  -12.3970   18.2980 C   0  0  0  0  0  2  0  0  0  0  0  0
  -27.5730  -13.2160   19.5810 C   0  0  0  0  0  3  0  0  0  0  0  0
  -28.6640  -12.9760   20.6530 C   0  0  0  0  0  2  0  0  0  0  0  0
  -29.9780  -13.2640   20.0470 N   0  0  0  0  0  0  0  0  0  0  0  0
  -31.7100  -14.6490   19.5120 O   0  0  0  0  0  0  0  0  0  0  0  0
  -30.1460  -15.3790   20.9410 N   0  0  0  0  0  0  0  0  0  0  0  0
  -29.3350  -15.1050   21.4740 H   0  0  0  0  0  0  0  0  0  0  0  0
  -25.1810  -13.8410   20.3140 C   0  0  0  0  0  0  0  0  0  0  0  0
  -24.1170  -13.0770   20.7270 C   0  0  0  0  0  0  0  0  0  0  0  0
  -24.5710  -11.7250   20.7010 C   0  0  0  0  0  0  0  0  0  0  0  0
  -26.2230  -12.9530   20.0860 N   0  0  0  0  0  0  0  0  0  0  0  0
  -25.8540  -11.6750   20.3630 N   0  0  0  0  0  0  0  0  0  0  0  0
  -23.8390  -10.4680   20.9210 C   0  0  0  0  0  0  0  0  0  0  0  0
  -24.2750   -9.5200   21.8730 C   0  0  0  0  0  3  0  0  0  0  0  0
  -23.5490   -8.3280   22.0840 C   0  0  0  0  0  3  0  0  0  0  0  0
  -22.3730   -8.0730   21.3370 C   0  0  0  0  0  0  0  0  0  0  0  0
  -21.9540   -9.0100   20.3750 C   0  0  0  0  0  3  0  0  0  0  0  0
  -22.6810  -10.1940   20.1660 C   0  0  0  0  0  3  0  0  0  0  0  0
  -21.6200   -6.9280   21.4530 O   0  0  0  0  0  0  0  0  0  0  0  0
  -21.5680   -6.2150   22.6260 C   0  0  0  0  0  0  0  0  0  0  0  0
  -21.1370   -6.8030   23.8350 C   0  0  0  0  0  3  0  0  0  0  0  0
  -21.0350   -6.0200   25.0020 C   0  0  0  0  0  3  0  0  0  0  0  0
  -21.3510   -4.6490   24.9610 C   0  0  0  0  0  0  0  0  0  0  0  0
  -21.7710   -4.0590   23.7560 C   0  0  0  0  0  3  0  0  0  0  0  0
  -21.8770   -4.8400   22.5910 C   0  0  0  0  0  0  0  0  0  0  0  0
  -22.2630   -4.2610   21.4280 F   0  0  0  0  0  0  0  0  0  0  0  0
  -21.2460   -3.8960   26.0790 F   0  0  0  0  0  0  0  0  0  0  0  0
  -22.7280  -13.5660   21.0240 C   0  0  0  0  0  0  0  0  0  0  0  0
  -22.0120  -12.8860   21.9150 N   0  0  0  0  0  0  0  0  0  0  0  0
  -22.2840  -14.5900   20.5100 O   0  0  0  0  0  0  0  0  0  0  0  0
  -22.3660  -12.0520   22.3570 H   0  0  0  0  0  0  0  0  0  0  0  0
  -21.0840  -13.2060   22.1510 H   0  0  0  0  0  0  0  0  0  0  0  0
  -25.3440  -15.2030   20.0820 N   0  0  0  0  0  0  0  0  0  0  0  0
  -24.5670  -15.8530   20.1260 H   0  0  0  0  0  0  0  0  0  0  0  0
  -26.1440  -15.5720   19.5790 H   0  0  0  0  0  0  0  0  0  0  0  0
  -28.0460  -24.1260   20.7180 C   0  0  0  0  0  2  0  0  0  0  0  0
  -29.1450  -24.9020   21.4700 C   0  0  0  0  0  2  0  0  0  0  0  0
  -28.8880  -26.4190   21.5010 C   0  0  0  0  0  2  0  0  0  0  0  0
  -28.4690  -26.8510   20.2020 O   0  0  0  0  0  0  0  0  0  0  0  0
  -24.5850  -31.8910   23.3230 C   0  0  0  0  0  0  0  0  0  0  0  0
  -27.2990  -27.5670   20.2050 C   0  0  0  0  0  0  0  0  0  0  0  0
  -23.3900  -30.4930   21.6580 C   0  0  0  0  0  3  0  0  0  0  0  0
  -24.8680  -28.9930   20.2230 C   0  0  0  0  0  0  0  0  0  0  0  0
  -25.9030  -30.9090   21.4550 C   0  0  0  0  0  2  0  0  0  0  0  0
  -26.0130  -29.5480   20.8080 C   0  0  0  0  0  0  0  0  0  0  0  0
  -27.2330  -28.8430   20.7980 C   0  0  0  0  0  3  0  0  0  0  0  0
  -26.1440  -27.0120   19.6180 C   0  0  0  0  0  3  0  0  0  0  0  0
  -24.9240  -27.7190   19.6250 C   0  0  0  0  0  3  0  0  0  0  0  0
  -23.6120  -29.8290   20.2700 C   0  0  0  0  0  2  0  0  0  0  0  0
  -24.6430  -31.1130   22.2030 N   0  0  0  0  0  0  0  0  0  0  0  0
  -23.5040  -32.1400   23.8740 O   0  0  0  0  0  0  0  0  0  0  0  0
  -22.7560  -29.4530   22.6080 C   0  0  0  0  0  0  0  0  0  0  0  0
  -21.4370  -29.2390   22.4670 N   0  0  0  0  0  0  0  0  0  0  0  0
  -23.4430  -28.8410   23.4280 O   0  0  0  0  0  0  0  0  0  0  0  0
  -20.9400  -29.7850   21.7790 H   0  0  0  0  0  0  0  0  0  0  0  0
  -18.0850  -27.9640   22.9140 C   0  0  0  0  0  0  0  0  0  0  0  0
  -20.6320  -28.2820   23.2230 C   0  0  0  0  0  3  0  0  0  0  0  0
  -20.7790  -26.8550   22.6460 C   0  0  0  0  0  2  0  0  0  0  0  0
  -19.6990  -26.5090   21.6150 C   0  0  0  0  0  2  0  0  0  0  0  0
  -18.3040  -26.6190   22.2380 C   0  0  0  0  0  2  0  0  0  0  0  0
  -19.1790  -28.7530   23.3580 C   0  0  0  0  0  0  0  0  0  0  0  0
  -18.9210  -30.0130   23.9400 C   0  0  0  0  0  3  0  0  0  0  0  0
  -17.6020  -30.4830   24.0880 C   0  0  0  0  0  3  0  0  0  0  0  0
  -16.5220  -29.6900   23.6640 C   0  0  0  0  0  3  0  0  0  0  0  0
  -16.7660  -28.4340   23.0840 C   0  0  0  0  0  3  0  0  0  0  0  0
  -25.8680  -32.5280   23.9500 C   0  0  0  0  0  3  0  0  0  0  0  0
  -25.5610  -33.9300   24.2660 N   0  0  0  0  0  0  0  0  0  0  0  0
  -25.8830  -34.9740   23.4920 C   0  0  0  0  0  0  0  0  0  0  0  0
  -26.5480  -34.8620   22.4570 O   0  0  0  0  0  0  0  0  0  0  0  0
  -24.9970  -34.0950   25.0870 H   0  0  0  0  0  0  0  0  0  0  0  0
  -24.1420  -36.7480   23.1100 C   0  0  0  0  0  1  0  0  0  0  0  0
  -25.3840  -36.3660   23.9310 C   0  0  0  0  0  3  0  0  0  0  0  0
  -27.5130  -37.2680   24.7540 C   0  0  0  0  0  1  0  0  0  0  0  0
  -26.4110  -37.4240   23.8080 N   0  0  0  0  0  0  0  0  0  0  0  0
  -26.0000  -38.3410   23.9570 H   0  0  0  0  0  0  0  0  0  0  0  0
  -26.3820  -31.7690   25.2330 C   0  0  1  0  0  0  0  0  0  0  0  0
  -25.2870  -31.5320   26.3000 C   0  0  0  0  0  1  0  0  0  0  0  0
  -26.9720  -30.3910   24.8470 C   0  0  0  0  0  1  0  0  0  0  0  0
  -27.5220  -32.5750   25.8990 C   0  0  0  0  0  1  0  0  0  0  0  0
  1  2  2  0
  3  4  1  0
  3  1  1  0
  5  4  1  0
  5  6  1  0
  6  8  1  0
  8  7  1  0
  9 17  1  0
 10 15  1  0
 11 12  1  0
 11 10  1  0
 13 12  1  0
 13 22  1  0
 13 14  1  0
 15  9  1  0
 15 14  1  0
 16  9  2  0
 17  8  1  0
 17 18  1  0
 19 20  2  0
 20 39  1  0
 21 20  1  0
 21 24  1  0
 22 19  1  0
 22 23  1  0
 23 21  2  0
 24 25  1  0
 25 26  2  0
 27 30  1  0
 27 26  1  0
 28 27  2  0
 29 28  1  0
 29 24  2  0
 30 31  1  0
 31 32  1  0
 32 33  2  0
 34 33  1  0
 34 38  1  0
 35 34  2  0
 36 31  2  0
 36 35  1  0
 37 36  1  0
 39 40  1  0
 40 43  1  0
 40 42  1  0
 41 39  2  0
 44 45  1  0
 44 19  1  0
 46 44  1  0
 47  1  1  0
 47 48  1  0
 48 49  1  0
 50 52  1  0
 50 49  1  0
 51 62  2  0
 52 57  1  0
 53 61  1  0
 53 63  1  0
 54 60  1  0
 54 56  1  0
 55 61  1  0
 56 55  1  0
 57 56  2  0
 58 59  1  0
 58 52  2  0
 59 54  2  0
 60 53  1  0
 61 51  1  0
 63 65  2  0
 64 63  1  0
 66 64  1  0
 67 76  2  0
 67 72  1  0
 68 64  1  0
 68 72  1  0
 69 68  1  0
 70 71  1  0
 70 69  1  0
 71 67  1  0
 72 73  2  0
 73 74  1  0
 75 74  2  0
 76 75  1  0
 77 51  1  0
 77 78  1  0
 77 87  1  0
 78 81  1  0
 79 83  1  0
 79 78  1  0
 80 79  2  0
 83 82  1  0
 85 83  1  0
 85 86  1  0
 85 84  1  0
 87 90  1  1
 87 88  1  0
 89 87  1  0
M  ISO  4   9 100  17 100  49 101  50 101
M  END
>  <TORSDO>  (66) 
F 24

>  <SCORE>  (66) 
-11.781

>  <name>  (66) 
65

>  <ligand_id>  (66) 
65

>  <original_smiles>  (66) 
[H]c1c([H])c([H])c2c(c1[H])C([H])([H])C([H])([H])C([H])([H])C2([H])N([H])C(=O)C1([H])N(C(=O)C([H])(N([H])C(=O)C([H])(N([H])C([H])([H])[H])C([H])([H])[H])C(C([H])([H])[H])(C([H])([H])[H])C([H])([H])[H])C([H])([H])c2c([H])c(OC([H])([H])C([H])([H])C([H])([H])C(=O)C([H])([H])C([H])([H])C([H])([H])C([H])([H])C([H])(N([H])C(=O)N3C([H])([H])C([H])([H])C([H])([H])C([H])(n4nc(-c5c([H])c([H])c(Oc6c([H])c([H])c(F)c([H])c6F)c([H])c5[H])c(C(=O)N([H])[H])c4N([H])[H])C3([H])[H])C([H])([H])[H])c([H])c([H])c2C1([H])[H]

>  <smiles>  (66) 
[H]c1c([H])c([H])c2c(c1[H])C([H])([H])C([H])([H])C([H])([H])C2([H])N([H])C(=O)C1([H])N(C(=O)C([H])(N([H])C(=O)C([H])(N([H])C([H])([H])[H])C([H])([H])[H])C(C([H])([H])[H])(C([H])([H])[H])C([H])([H])[H])C([H])([H])c2c([H])c(OC([H])([H])C([H])([H])C([H])([H])C(=O)C([H])([H])C([H])([H])C([H])([H])C([H])([H])C([H])(N([H])C(=O)N3C([H])([H])C([H])([H])C([H])([H])C([H])(n4nc(-c5c([H])c([H])c(Oc6c([H])c([H])c(F)c([H])c6F)c([H])c5[H])c(C(=O)N([H])[H])c4N([H])[H])C3([H])[H])C([H])([H])[H])c([H])c([H])c2C1([H])[H]

$$$$
66:0:0
     RDKit          3D

 95102  0  0  1  0  0  0  0  0999 V2000
  -29.7500  -22.9590   23.0540 C   0  0  0  0  0  3  0  0  0  0  0  0
  -29.3440  -23.2450   24.5150 C   0  0  0  0  0  0  0  0  0  0  0  0
  -28.3450  -24.0950   24.7210 N   0  0  0  0  0  0  0  0  0  0  0  0
  -29.9080  -22.6860   25.4560 O   0  0  0  0  0  0  0  0  0  0  0  0
  -27.9130  -24.5670   23.9380 H   0  0  0  0  0  0  0  0  0  0  0  0
  -28.0140  -24.2850   25.6590 H   0  0  0  0  0  0  0  0  0  0  0  0
  -30.8490  -23.9480   22.5700 C   0  0  0  0  0  2  0  0  0  0  0  0
  -30.3390  -25.3820   22.2930 C   0  0  0  0  0  2  0  0  0  0  0  0
  -29.4430  -25.4890   21.0460 C   0  0  0  0  0  2  0  0  0  0  0  0
  -28.9330  -26.9120   20.8010 C   0  0  0  0  0  2  0  0  0  0  0  0
  -27.9380  -26.8290   19.7860 O   0  0  0  0  0  0  0  0  0  0  0  0
  -24.5280  -31.9560   23.3750 C   0  0  0  0  0  0  0  0  0  0  0  0
  -26.8380  -27.6380   19.9270 C   0  0  0  0  0  0  0  0  0  0  0  0
  -23.1840  -30.7170   21.7060 C   0  0  0  0  0  3  0  0  0  0  0  0
  -24.5030  -29.2050   20.1300 C   0  0  0  0  0  0  0  0  0  0  0  0
  -25.7020  -30.9920   21.4020 C   0  0  0  0  0  2  0  0  0  0  0  0
  -25.7000  -29.6570   20.6940 C   0  0  0  0  0  0  0  0  0  0  0  0
  -26.8710  -28.8860   20.5940 C   0  0  0  0  0  3  0  0  0  0  0  0
  -25.6290  -27.1940   19.3580 C   0  0  0  0  0  3  0  0  0  0  0  0
  -24.4550  -27.9700   19.4610 C   0  0  0  0  0  3  0  0  0  0  0  0
  -23.2990  -30.1080   20.2810 C   0  0  0  0  0  2  0  0  0  0  0  0
  -24.4940  -31.2300   22.2220 N   0  0  0  0  0  0  0  0  0  0  0  0
  -23.4850  -32.2420   23.9810 O   0  0  0  0  0  0  0  0  0  0  0  0
  -22.5270  -29.6710   22.6310 C   0  0  0  0  0  0  0  0  0  0  0  0
  -21.2000  -29.5120   22.5010 N   0  0  0  0  0  0  0  0  0  0  0  0
  -23.2060  -29.0070   23.4190 O   0  0  0  0  0  0  0  0  0  0  0  0
  -20.7160  -30.0980   21.8360 H   0  0  0  0  0  0  0  0  0  0  0  0
  -17.8200  -28.3180   22.9210 C   0  0  0  0  0  0  0  0  0  0  0  0
  -20.3740  -28.5600   23.2390 C   0  0  0  0  0  3  0  0  0  0  0  0
  -20.4820  -27.1420   22.6320 C   0  0  0  0  0  2  0  0  0  0  0  0
  -19.3960  -26.8440   21.5940 C   0  0  0  0  0  2  0  0  0  0  0  0
  -18.0040  -26.9810   22.2190 C   0  0  0  0  0  2  0  0  0  0  0  0
  -18.9340  -29.0650   23.3850 C   0  0  0  0  0  0  0  0  0  0  0  0
  -18.7110  -30.3180   23.9980 C   0  0  0  0  0  3  0  0  0  0  0  0
  -17.4050  -30.8200   24.1520 C   0  0  0  0  0  3  0  0  0  0  0  0
  -16.3050  -30.0700   23.7040 C   0  0  0  0  0  3  0  0  0  0  0  0
  -16.5130  -28.8190   23.0950 C   0  0  0  0  0  3  0  0  0  0  0  0
  -25.8690  -32.4870   23.9710 C   0  0  0  0  0  3  0  0  0  0  0  0
  -26.3980  -31.6230   25.1810 C   0  0  1  0  0  0  0  0  0  0  0  0
  -25.3310  -31.3660   26.2710 C   0  0  0  0  0  1  0  0  0  0  0  0
  -26.9090  -30.2490   24.6870 C   0  0  0  0  0  1  0  0  0  0  0  0
  -27.6020  -32.3320   25.8450 C   0  0  0  0  0  1  0  0  0  0  0  0
  -25.6480  -33.8780   24.3820 N   0  0  0  0  0  0  0  0  0  0  0  0
  -26.0610  -34.9480   23.6890 C   0  0  0  0  0  0  0  0  0  0  0  0
  -26.7390  -34.8610   22.6610 O   0  0  0  0  0  0  0  0  0  0  0  0
  -25.0530  -34.0230   25.1850 H   0  0  0  0  0  0  0  0  0  0  0  0
  -24.4760  -36.8810   23.4000 C   0  0  0  0  0  1  0  0  0  0  0  0
  -25.6570  -36.3360   24.2200 C   0  0  0  0  0  3  0  0  0  0  0  0
  -27.8220  -37.0070   25.1660 C   0  0  0  0  0  1  0  0  0  0  0  0
  -26.7660  -37.3150   24.2060 N   0  0  0  0  0  0  0  0  0  0  0  0
  -26.4220  -38.2500   24.4050 H   0  0  0  0  0  0  0  0  0  0  0  0
  -30.1510  -21.4680   22.8910 C   0  0  0  0  0  2  0  0  0  0  0  0
  -30.5030  -21.0630   21.4360 C   0  0  0  0  0  2  0  0  0  0  0  0
  -30.1520  -19.5950   21.1070 C   0  0  0  0  0  2  0  0  0  0  0  0
  -31.2360  -18.6170   21.5210 C   0  0  0  0  0  3  0  0  0  0  0  0
  -31.3560  -17.3890   20.9580 C   0  0  0  0  0  3  0  0  0  0  0  0
  -32.0350  -16.0170   20.8940 C   0  0  0  0  0  2  0  0  0  0  0  0
  -31.3330  -14.0430   19.5220 C   0  0  0  0  0  0  0  0  0  0  0  0
  -30.7810  -11.7830   18.6810 C   0  0  0  0  0  2  0  0  0  0  0  0
  -29.7200  -11.8100   17.5660 C   0  0  0  0  0  2  0  0  0  0  0  0
  -28.3060  -11.7800   18.1700 C   0  0  0  0  0  2  0  0  0  0  0  0
  -28.1160  -12.8450   19.2780 C   0  0  0  0  0  3  0  0  0  0  0  0
  -29.2750  -12.8000   20.2980 C   0  0  0  0  0  2  0  0  0  0  0  0
  -30.5540  -12.9310   19.5740 N   0  0  0  0  0  0  0  0  0  0  0  0
  -32.2560  -14.1790   18.7100 O   0  0  0  0  0  0  0  0  0  0  0  0
  -31.1070  -14.9540   20.4800 N   0  0  0  0  0  0  0  0  0  0  0  0
  -30.3220  -14.7670   21.0860 H   0  0  0  0  0  0  0  0  0  0  0  0
  -25.9320  -13.6830   20.3640 C   0  0  0  0  0  0  0  0  0  0  0  0
  -24.8330  -13.0210   20.8370 C   0  0  0  0  0  0  0  0  0  0  0  0
  -25.1060  -11.6290   20.6580 C   0  0  0  0  0  0  0  0  0  0  0  0
  -26.8150  -12.7020   19.9320 N   0  0  0  0  0  0  0  0  0  0  0  0
  -26.3260  -11.4580   20.1630 N   0  0  0  0  0  0  0  0  0  0  0  0
  -24.2550  -10.4530   20.8750 C   0  0  0  0  0  0  0  0  0  0  0  0
  -24.6270   -9.4240   21.7680 C   0  0  0  0  0  3  0  0  0  0  0  0
  -23.7830   -8.3120   21.9740 C   0  0  0  0  0  3  0  0  0  0  0  0
  -22.5500   -8.2210   21.2870 C   0  0  0  0  0  0  0  0  0  0  0  0
  -22.1930   -9.2370   20.3840 C   0  0  0  0  0  3  0  0  0  0  0  0
  -23.0360  -10.3420   20.1760 C   0  0  0  0  0  3  0  0  0  0  0  0
  -21.6780   -7.1650   21.4010 O   0  0  0  0  0  0  0  0  0  0  0  0
  -21.5440   -6.4670   22.5760 C   0  0  0  0  0  0  0  0  0  0  0  0
  -21.1560   -7.0980   23.7770 C   0  0  0  0  0  3  0  0  0  0  0  0
  -20.9680   -6.3330   24.9450 C   0  0  0  0  0  3  0  0  0  0  0  0
  -21.1570   -4.9390   24.9120 C   0  0  0  0  0  0  0  0  0  0  0  0
  -21.5390   -4.3080   23.7170 C   0  0  0  0  0  3  0  0  0  0  0  0
  -21.7310   -5.0710   22.5490 C   0  0  0  0  0  0  0  0  0  0  0  0
  -22.0780   -4.4560   21.3940 F   0  0  0  0  0  0  0  0  0  0  0  0
  -20.9680   -4.2020   26.0330 F   0  0  0  0  0  0  0  0  0  0  0  0
  -23.5610  -13.6410   21.3420 C   0  0  0  0  0  0  0  0  0  0  0  0
  -22.8910  -12.9790   22.2780 N   0  0  0  0  0  0  0  0  0  0  0  0
  -23.1830  -14.7410   20.9410 O   0  0  0  0  0  0  0  0  0  0  0  0
  -23.2150  -12.0850   22.6150 H   0  0  0  0  0  0  0  0  0  0  0  0
  -22.0470  -13.3730   22.6660 H   0  0  0  0  0  0  0  0  0  0  0  0
  -26.2500  -15.0330   20.2470 N   0  0  0  0  0  0  0  0  0  0  0  0
  -25.6040  -15.7700   20.5110 H   0  0  0  0  0  0  0  0  0  0  0  0
  -27.1090  -15.3830   19.8410 H   0  0  0  0  0  0  0  0  0  0  0  0
  1  7  1  0
  1  2  1  0
  2  3  1  0
  2  4  2  0
  3  6  1  0
  5  3  1  0
  8  7  1  0
  9  8  1  0
 10  9  1  0
 11 13  1  0
 11 10  1  0
 12 23  2  0
 13 18  1  0
 14 22  1  0
 14 24  1  0
 15 21  1  0
 15 17  1  0
 16 22  1  0
 17 16  1  0
 18 17  2  0
 19 20  1  0
 19 13  2  0
 20 15  2  0
 21 14  1  0
 22 12  1  0
 24 26  2  0
 25 24  1  0
 27 25  1  0
 28 37  2  0
 28 33  1  0
 29 25  1  0
 29 33  1  0
 30 29  1  0
 31 32  1  0
 31 30  1  0
 32 28  1  0
 33 34  2  0
 34 35  1  0
 36 35  2  0
 37 36  1  0
 38 12  1  0
 38 43  1  0
 38 39  1  0
 39 42  1  1
 39 40  1  0
 41 39  1  0
 43 46  1  0
 44 48  1  0
 44 43  1  0
 45 44  2  0
 48 47  1  0
 50 48  1  0
 50 51  1  0
 50 49  1  0
 52  1  1  0
 53 52  1  0
 54 53  1  0
 54 55  1  0
 56 55  2  0
 57 56  1  0
 58 64  1  0
 58 66  1  0
 59 64  1  0
 60 61  1  0
 60 59  1  0
 62 61  1  0
 62 71  1  0
 62 63  1  0
 64 63  1  0
 65 58  2  0
 66 57  1  0
 66 67  1  0
 68 69  2  0
 69 88  1  0
 70 69  1  0
 70 73  1  0
 71 72  1  0
 71 68  1  0
 72 70  2  0
 73 74  1  0
 74 75  2  0
 76 79  1  0
 76 75  1  0
 77 76  2  0
 78 77  1  0
 78 73  2  0
 79 80  1  0
 80 81  1  0
 81 82  2  0
 83 82  1  0
 83 87  1  0
 84 83  2  0
 85 80  2  0
 85 84  1  0
 86 85  1  0
 88 89  1  0
 89 91  1  0
 89 92  1  0
 90 88  2  0
 93 68  1  0
 93 94  1  0
 95 93  1  0
M  ISO  4  10 101  11 101  58 100  66 100
M  END
>  <TORSDO>  (67) 
F 26

>  <SCORE>  (67) 
-7.819

>  <name>  (67) 
66

>  <ligand_id>  (67) 
66

>  <original_smiles>  (67) 
[H]C(=C([H])C([H])([H])C([H])([H])C([H])([H])C([H])(C(=O)N([H])[H])C([H])([H])C([H])([H])C([H])([H])C([H])([H])Oc1c([H])c([H])c2c(c1[H])C([H])([H])N(C(=O)C([H])(N([H])C(=O)C([H])(N([H])C([H])([H])[H])C([H])([H])[H])C(C([H])([H])[H])(C([H])([H])[H])C([H])([H])[H])C([H])(C(=O)N([H])C1([H])c3c([H])c([H])c([H])c([H])c3C([H])([H])C([H])([H])C1([H])[H])C2([H])[H])C([H])([H])N([H])C(=O)N1C([H])([H])C([H])([H])C([H])([H])C([H])(n2nc(-c3c([H])c([H])c(Oc4c([H])c([H])c(F)c([H])c4F)c([H])c3[H])c(C(=O)N([H])[H])c2N([H])[H])C1([H])[H]

>  <smiles>  (67) 
[H]C(=C([H])C([H])([H])C([H])([H])C([H])([H])C([H])(C(=O)N([H])[H])C([H])([H])C([H])([H])C([H])([H])C([H])([H])Oc1c([H])c([H])c2c(c1[H])C([H])([H])N(C(=O)C([H])(N([H])C(=O)C([H])(N([H])C([H])([H])[H])C([H])([H])[H])C(C([H])([H])[H])(C([H])([H])[H])C([H])([H])[H])C([H])(C(=O)N([H])C1([H])c3c([H])c([H])c([H])c([H])c3C([H])([H])C([H])([H])C1([H])[H])C2([H])[H])C([H])([H])N([H])C(=O)N1C([H])([H])C([H])([H])C([H])([H])C([H])(n2nc(-c3c([H])c([H])c(Oc4c([H])c([H])c(F)c([H])c4F)c([H])c3[H])c(C(=O)N([H])[H])c2N([H])[H])C1([H])[H]

$$$$
67:0:0
     RDKit          3D

 94103  0  0  1  0  0  0  0  0999 V2000
  -28.3450  -21.8870   20.7270 C   0  0  0  0  0  0  0  0  0  0  0  0
  -28.4490  -22.6880   21.7980 N   0  0  0  0  0  0  0  0  0  0  0  0
  -28.1450  -22.3210   19.5890 O   0  0  0  0  0  0  0  0  0  0  0  0
  -28.7010  -22.2130   22.6570 H   0  0  0  0  0  0  0  0  0  0  0  0
  -29.5110  -19.7180   21.6810 C   0  0  0  0  0  2  0  0  0  0  0  0
  -28.2000  -18.0080   20.3810 C   0  0  0  0  0  2  0  0  0  0  0  0
  -29.5480  -19.0400   19.3020 C   0  0  0  0  0  2  0  0  0  0  0  0
  -28.2730  -20.3800   21.0500 C   0  0  0  0  0  3  0  0  0  0  0  0
  -28.1610  -19.4420   19.8510 C   0  0  0  0  0  3  0  0  0  0  0  0
  -29.6230  -18.5070   20.7460 C   0  0  1  0  0  0  0  0  0  0  0  0
  -30.6240  -17.4350   21.1950 C   0  0  0  0  0  2  0  0  0  0  0  0
  -31.5190  -16.7760   20.1170 C   0  0  0  0  0  2  0  0  0  0  0  0
  -32.1770  -14.3320   19.7970 C   0  0  0  0  0  0  0  0  0  0  0  0
  -31.7930  -12.0040   19.0570 C   0  0  0  0  0  2  0  0  0  0  0  0
  -30.8050  -11.9990   17.8700 C   0  0  0  0  0  2  0  0  0  0  0  0
  -29.3380  -12.0530   18.3450 C   0  0  0  0  0  2  0  0  0  0  0  0
  -29.0930  -13.1480   19.4130 C   0  0  0  0  0  3  0  0  0  0  0  0
  -30.1530  -13.0300   20.5290 C   0  0  0  0  0  2  0  0  0  0  0  0
  -31.4880  -13.1640   19.9060 N   0  0  0  0  0  0  0  0  0  0  0  0
  -33.2120  -14.4670   19.1360 O   0  0  0  0  0  0  0  0  0  0  0  0
  -31.5490  -15.3450   20.4080 N   0  0  0  0  0  0  0  0  0  0  0  0
  -30.7720  -15.0320   20.9710 H   0  0  0  0  0  0  0  0  0  0  0  0
  -26.8460  -14.1120   20.2360 C   0  0  0  0  0  0  0  0  0  0  0  0
  -25.6920  -13.5080   20.6510 C   0  0  0  0  0  0  0  0  0  0  0  0
  -25.9350  -12.1030   20.5760 C   0  0  0  0  0  0  0  0  0  0  0  0
  -27.7330  -13.0850   19.9480 N   0  0  0  0  0  0  0  0  0  0  0  0
  -27.1860  -11.8700   20.2020 N   0  0  0  0  0  0  0  0  0  0  0  0
  -25.0360  -10.9630   20.7870 C   0  0  0  0  0  0  0  0  0  0  0  0
  -25.3060   -9.9780   21.7620 C   0  0  0  0  0  3  0  0  0  0  0  0
  -24.4160   -8.8990   21.9560 C   0  0  0  0  0  3  0  0  0  0  0  0
  -23.2390   -8.8010   21.1760 C   0  0  0  0  0  0  0  0  0  0  0  0
  -22.9860   -9.7740   20.1930 C   0  0  0  0  0  3  0  0  0  0  0  0
  -23.8750  -10.8430   19.9980 C   0  0  0  0  0  3  0  0  0  0  0  0
  -22.3290   -7.7770   21.2770 O   0  0  0  0  0  0  0  0  0  0  0  0
  -22.0290   -7.1980   22.4840 C   0  0  0  0  0  0  0  0  0  0  0  0
  -21.5630   -7.9580   23.5800 C   0  0  0  0  0  3  0  0  0  0  0  0
  -21.2010   -7.3130   24.7800 C   0  0  0  0  0  3  0  0  0  0  0  0
  -21.2940   -5.9130   24.8820 C   0  0  0  0  0  0  0  0  0  0  0  0
  -21.7530   -5.1550   23.7910 C   0  0  0  0  0  3  0  0  0  0  0  0
  -22.1180   -5.7960   22.5940 C   0  0  0  0  0  0  0  0  0  0  0  0
  -22.5380   -5.0590   21.5390 F   0  0  0  0  0  0  0  0  0  0  0  0
  -20.9380   -5.2930   26.0320 F   0  0  0  0  0  0  0  0  0  0  0  0
  -24.4000  -14.1880   21.0080 C   0  0  0  0  0  0  0  0  0  0  0  0
  -23.6510  -13.6280   21.9500 N   0  0  0  0  0  0  0  0  0  0  0  0
  -24.0710  -15.2490   20.4790 O   0  0  0  0  0  0  0  0  0  0  0  0
  -23.9320  -12.7680   22.3990 H   0  0  0  0  0  0  0  0  0  0  0  0
  -22.7880  -14.0700   22.2310 H   0  0  0  0  0  0  0  0  0  0  0  0
  -27.2120  -15.4440   20.0660 N   0  0  0  0  0  0  0  0  0  0  0  0
  -26.5620  -16.2050   20.2250 H   0  0  0  0  0  0  0  0  0  0  0  0
  -28.1060  -15.7520   19.7090 H   0  0  0  0  0  0  0  0  0  0  0  0
  -27.7520  -23.9650   21.9530 C   0  0  0  0  0  2  0  0  0  0  0  0
  -28.6270  -25.2180   21.7500 C   0  0  0  0  0  2  0  0  0  0  0  0
  -28.8890  -25.5770   20.2720 C   0  0  0  0  0  2  0  0  0  0  0  0
  -28.9160  -26.9990   20.0720 O   0  0  0  0  0  0  0  0  0  0  0  0
  -24.5550  -31.6380   23.2280 C   0  0  0  0  0  0  0  0  0  0  0  0
  -27.6890  -27.6260   20.0380 C   0  0  0  0  0  0  0  0  0  0  0  0
  -23.5410  -30.2440   21.4510 C   0  0  0  0  0  3  0  0  0  0  0  0
  -25.1770  -28.9200   20.0140 C   0  0  0  0  0  0  0  0  0  0  0  0
  -26.0310  -30.8230   21.3940 C   0  0  0  0  0  2  0  0  0  0  0  0
  -26.2580  -29.5030   20.6850 C   0  0  0  0  0  0  0  0  0  0  0  0
  -27.5180  -28.8650   20.6910 C   0  0  0  0  0  3  0  0  0  0  0  0
  -26.5930  -27.0650   19.3410 C   0  0  0  0  0  3  0  0  0  0  0  0
  -25.3390  -27.7040   19.3320 C   0  0  0  0  0  3  0  0  0  0  0  0
  -23.8680  -29.6730   20.0450 C   0  0  0  0  0  2  0  0  0  0  0  0
  -24.7240  -30.9130   22.0850 N   0  0  0  0  0  0  0  0  0  0  0  0
  -23.4340  -31.7870   23.7310 O   0  0  0  0  0  0  0  0  0  0  0  0
  -22.9420  -29.1150   22.3190 C   0  0  0  0  0  0  0  0  0  0  0  0
  -21.6490  -28.8200   22.1130 N   0  0  0  0  0  0  0  0  0  0  0  0
  -23.6410  -28.5130   23.1380 O   0  0  0  0  0  0  0  0  0  0  0  0
  -21.1440  -29.3620   21.4260 H   0  0  0  0  0  0  0  0  0  0  0  0
  -18.3750  -27.3130   22.3980 C   0  0  0  0  0  0  0  0  0  0  0  0
  -20.8880  -27.7740   22.7960 C   0  0  0  0  0  3  0  0  0  0  0  0
  -21.1420  -26.3900   22.1580 C   0  0  0  0  0  2  0  0  0  0  0  0
  -20.1110  -26.0170   21.0870 C   0  0  0  0  0  2  0  0  0  0  0  0
  -18.7000  -26.0090   21.6860 C   0  0  0  0  0  2  0  0  0  0  0  0
  -19.4050  -28.1450   22.9110 C   0  0  0  0  0  0  0  0  0  0  0  0
  -19.0580  -29.3550   23.5530 C   0  0  0  0  0  3  0  0  0  0  0  0
  -17.7090  -29.7350   23.6880 C   0  0  0  0  0  3  0  0  0  0  0  0
  -16.6920  -28.9040   23.1860 C   0  0  0  0  0  3  0  0  0  0  0  0
  -17.0220  -27.6970   22.5440 C   0  0  0  0  0  3  0  0  0  0  0  0
  -25.7570  -32.3340   23.9380 C   0  0  0  0  0  3  0  0  0  0  0  0
  -25.3590  -33.7150   24.2370 N   0  0  0  0  0  0  0  0  0  0  0  0
  -25.6850  -34.7760   23.4880 C   0  0  0  0  0  0  0  0  0  0  0  0
  -26.4300  -34.7020   22.5050 O   0  0  0  0  0  0  0  0  0  0  0  0
  -24.7150  -33.8440   25.0030 H   0  0  0  0  0  0  0  0  0  0  0  0
  -23.8870  -36.4650   23.0010 C   0  0  0  0  0  1  0  0  0  0  0  0
  -25.0950  -36.1420   23.8960 C   0  0  0  0  0  3  0  0  0  0  0  0
  -27.1260  -37.1530   24.8360 C   0  0  0  0  0  1  0  0  0  0  0  0
  -26.0760  -37.2490   23.8260 N   0  0  0  0  0  0  0  0  0  0  0  0
  -25.6130  -38.1480   23.9340 H   0  0  0  0  0  0  0  0  0  0  0  0
  -26.2160  -31.5890   25.2520 C   0  0  1  0  0  0  0  0  0  0  0  0
  -25.0560  -31.2730   26.2250 C   0  0  0  0  0  1  0  0  0  0  0  0
  -26.9150  -30.2530   24.9070 C   0  0  0  0  0  1  0  0  0  0  0  0
  -27.2560  -32.4480   26.0080 C   0  0  0  0  0  1  0  0  0  0  0  0
  1  2  1  0
  2 51  1  0
  2  4  1  0
  3  1  2  0
  6 10  1  0
  7 10  1  0
  8  1  1  0
  8  5  1  0
  9  7  1  0
  9  6  1  0
  9  8  1  0
 10 11  1  6
 10  5  1  0
 12 21  1  0
 12 11  1  0
 13 19  1  0
 13 21  1  0
 14 19  1  0
 15 16  1  0
 15 14  1  0
 17 16  1  0
 17 26  1  0
 17 18  1  0
 19 18  1  0
 20 13  2  0
 21 22  1  0
 23 24  2  0
 24 43  1  0
 25 24  1  0
 25 28  1  0
 26 27  1  0
 26 23  1  0
 27 25  2  0
 28 29  1  0
 29 30  2  0
 31 34  1  0
 31 30  1  0
 32 31  2  0
 33 32  1  0
 33 28  2  0
 34 35  1  0
 35 40  2  0
 35 36  1  0
 36 37  2  0
 37 38  1  0
 38 42  1  0
 39 38  2  0
 40 39  1  0
 41 40  1  0
 43 44  1  0
 44 47  1  0
 44 46  1  0
 45 43  2  0
 48 49  1  0
 48 23  1  0
 50 48  1  0
 52 51  1  0
 53 52  1  0
 54 53  1  0
 55 66  2  0
 56 54  1  0
 56 61  1  0
 57 65  1  0
 57 67  1  0
 58 64  1  0
 58 60  1  0
 59 65  1  0
 60 61  2  0
 60 59  1  0
 62 56  2  0
 63 62  1  0
 63 58  2  0
 64 57  1  0
 65 55  1  0
 67 69  2  0
 68 67  1  0
 70 68  1  0
 71 80  2  0
 71 76  1  0
 72 68  1  0
 72 76  1  0
 73 72  1  0
 74 75  1  0
 74 73  1  0
 75 71  1  0
 76 77  2  0
 77 78  1  0
 79 78  2  0
 80 79  1  0
 81 55  1  0
 81 82  1  0
 81 91  1  0
 82 85  1  0
 83 87  1  0
 83 82  1  0
 84 83  2  0
 87 86  1  0
 89 87  1  0
 89 90  1  0
 89 88  1  0
 91 94  1  1
 91 92  1  0
 93 91  1  0
M  ISO  4  13 100  21 100  53 101  54 101
M  END
>  <TORSDO>  (68) 
F 22

>  <SCORE>  (68) 
-10.686

>  <name>  (68) 
67

>  <ligand_id>  (68) 
67

>  <original_smiles>  (68) 
[H]c1c([H])c([H])c2c(c1[H])C([H])([H])C([H])([H])C([H])([H])C2([H])N([H])C(=O)C1([H])N(C(=O)C([H])(N([H])C(=O)C([H])(N([H])C([H])([H])[H])C([H])([H])[H])C(C([H])([H])[H])(C([H])([H])[H])C([H])([H])[H])C([H])([H])c2c([H])c(OC([H])([H])C([H])([H])C([H])([H])N([H])C(=O)C3([H])C([H])([H])C4(C([H])([H])C([H])([H])N([H])C(=O)N5C([H])([H])C([H])([H])C([H])([H])C([H])(n6nc(-c7c([H])c([H])c(Oc8c([H])c([H])c(F)c([H])c8F)c([H])c7[H])c(C(=O)N([H])[H])c6N([H])[H])C5([H])[H])C([H])([H])C3([H])C4([H])[H])c([H])c([H])c2C1([H])[H]

>  <smiles>  (68) 
[H]c1c([H])c([H])c2c(c1[H])C([H])([H])C([H])([H])C([H])([H])C2([H])N([H])C(=O)C1([H])N(C(=O)C([H])(N([H])C(=O)C([H])(N([H])C([H])([H])[H])C([H])([H])[H])C(C([H])([H])[H])(C([H])([H])[H])C([H])([H])[H])C([H])([H])c2c([H])c(OC([H])([H])C([H])([H])C([H])([H])N([H])C(=O)C3([H])C([H])([H])C4(C([H])([H])C([H])([H])N([H])C(=O)N5C([H])([H])C([H])([H])C([H])([H])C([H])(n6nc(-c7c([H])c([H])c(Oc8c([H])c([H])c(F)c([H])c8F)c([H])c7[H])c(C(=O)N([H])[H])c6N([H])[H])C5([H])[H])C([H])([H])C3([H])C4([H])[H])c([H])c([H])c2C1([H])[H]

$$$$
68:0:0
     RDKit          3D

 91 98  0  0  1  0  0  0  0  0999 V2000
  -29.3080  -22.7890   20.0460 N   0  0  0  0  0  4  0  0  0  0  0  0
  -28.9850  -22.6620   19.1000 H   0  0  0  0  0  0  0  0  0  0  0  0
  -28.5890  -22.4200   20.6500 H   0  0  0  0  0  0  0  0  0  0  0  0
  -29.4470  -24.2740   20.3180 C   0  0  0  0  0  3  0  0  0  0  0  0
  -28.1870  -25.1370   19.9850 C   0  0  0  0  0  3  0  0  0  0  0  0
  -28.3420  -26.5720   20.2000 O   0  0  0  0  0  0  0  0  0  0  0  0
  -24.5730  -31.8530   23.2390 C   0  0  0  0  0  0  0  0  0  0  0  0
  -27.1930  -27.3590   20.1550 C   0  0  0  0  0  0  0  0  0  0  0  0
  -23.3680  -30.4700   21.5830 C   0  0  0  0  0  3  0  0  0  0  0  0
  -24.8180  -28.9310   20.1550 C   0  0  0  0  0  0  0  0  0  0  0  0
  -25.9040  -30.7960   21.4080 C   0  0  0  0  0  2  0  0  0  0  0  0
  -25.9820  -29.4260   20.7550 C   0  0  0  0  0  0  0  0  0  0  0  0
  -27.1730  -28.6510   20.7480 C   0  0  0  0  0  3  0  0  0  0  0  0
  -26.0050  -26.9000   19.5370 C   0  0  0  0  0  3  0  0  0  0  0  0
  -24.8290  -27.6700   19.5390 C   0  0  0  0  0  3  0  0  0  0  0  0
  -23.5830  -29.8040   20.2000 C   0  0  0  0  0  2  0  0  0  0  0  0
  -24.6330  -31.0550   22.1340 N   0  0  0  0  0  0  0  0  0  0  0  0
  -23.4890  -32.1290   23.7730 O   0  0  0  0  0  0  0  0  0  0  0  0
  -22.7020  -29.4470   22.5320 C   0  0  0  0  0  0  0  0  0  0  0  0
  -21.3780  -29.2680   22.3920 N   0  0  0  0  0  0  0  0  0  0  0  0
  -23.3750  -28.8160   23.3530 O   0  0  0  0  0  0  0  0  0  0  0  0
  -20.8960  -29.8280   21.7020 H   0  0  0  0  0  0  0  0  0  0  0  0
  -17.9960  -28.0780   22.8480 C   0  0  0  0  0  0  0  0  0  0  0  0
  -20.5520  -28.3310   23.1510 C   0  0  0  0  0  3  0  0  0  0  0  0
  -20.6590  -26.9010   22.5750 C   0  0  0  0  0  2  0  0  0  0  0  0
  -19.5690  -26.5810   21.5470 C   0  0  0  0  0  2  0  0  0  0  0  0
  -18.1800  -26.7290   22.1740 C   0  0  0  0  0  2  0  0  0  0  0  0
  -19.1110  -28.8370   23.2930 C   0  0  0  0  0  0  0  0  0  0  0  0
  -18.8870  -30.1000   23.8830 C   0  0  0  0  0  3  0  0  0  0  0  0
  -17.5820  -30.6040   24.0340 C   0  0  0  0  0  3  0  0  0  0  0  0
  -16.4810  -29.8410   23.6070 C   0  0  0  0  0  3  0  0  0  0  0  0
  -16.6890  -28.5810   23.0180 C   0  0  0  0  0  3  0  0  0  0  0  0
  -25.8580  -32.4740   23.8680 C   0  0  0  0  0  3  0  0  0  0  0  0
  -26.3570  -31.7020   25.1500 C   0  0  1  0  0  0  0  0  0  0  0  0
  -25.2530  -31.4760   26.2090 C   0  0  0  0  0  1  0  0  0  0  0  0
  -26.9290  -30.3180   24.7650 C   0  0  0  0  0  1  0  0  0  0  0  0
  -27.5100  -32.4860   25.8190 C   0  0  0  0  0  1  0  0  0  0  0  0
  -25.5590  -33.8750   24.1910 N   0  0  0  0  0  0  0  0  0  0  0  0
  -25.9040  -34.9220   23.4290 C   0  0  0  0  0  0  0  0  0  0  0  0
  -26.5770  -34.8100   22.4010 O   0  0  0  0  0  0  0  0  0  0  0  0
  -24.9610  -34.0390   24.9880 H   0  0  0  0  0  0  0  0  0  0  0  0
  -24.1890  -36.7250   23.0660 C   0  0  0  0  0  1  0  0  0  0  0  0
  -25.4260  -36.3160   23.8800 C   0  0  0  0  0  3  0  0  0  0  0  0
  -27.5650  -37.1900   24.7110 C   0  0  0  0  0  1  0  0  0  0  0  0
  -26.4670  -37.3620   23.7640 N   0  0  0  0  0  0  0  0  0  0  0  0
  -26.0680  -38.2850   23.9080 H   0  0  0  0  0  0  0  0  0  0  0  0
  -30.5420  -21.9470   20.2370 C   0  0  0  0  0  3  0  0  0  0  0  0
  -32.7590  -23.2860   20.1420 C   0  0  0  0  0  1  0  0  0  0  0  0
  -31.7120  -22.4810   19.3570 C   0  0  0  0  0  2  0  0  0  0  0  0
  -30.3770  -20.3950   19.9650 C   0  0  0  0  0  2  0  0  0  0  0  0
  -29.5290  -19.5280   20.9420 C   0  0  0  0  0  2  0  0  0  0  0  0
  -30.0160  -18.0610   21.2490 C   0  0  0  0  0  2  0  0  0  0  0  0
  -30.0600  -17.0180   20.0880 C   0  0  0  0  0  2  0  0  0  0  0  0
  -30.6910  -14.5420   20.1250 C   0  0  0  0  0  0  0  0  0  0  0  0
  -30.3690  -12.3610   19.0110 C   0  0  0  0  0  2  0  0  0  0  0  0
  -29.3880  -12.5800   17.8400 C   0  0  0  0  0  2  0  0  0  0  0  0
  -27.9270  -12.4520   18.3170 C   0  0  0  0  0  2  0  0  0  0  0  0
  -27.6410  -13.2740   19.6020 C   0  0  0  0  0  3  0  0  0  0  0  0
  -28.7360  -13.0400   20.6710 C   0  0  0  0  0  2  0  0  0  0  0  0
  -30.0380  -13.3450   20.0560 N   0  0  0  0  0  0  0  0  0  0  0  0
  -31.8200  -14.7070   19.6570 O   0  0  0  0  0  0  0  0  0  0  0  0
  -29.9310  -15.5960   20.5140 N   0  0  0  0  0  0  0  0  0  0  0  0
  -29.0350  -15.3360   20.8950 H   0  0  0  0  0  0  0  0  0  0  0  0
  -25.2720  -13.8970   20.3870 C   0  0  0  0  0  0  0  0  0  0  0  0
  -24.2110  -13.1320   20.7910 C   0  0  0  0  0  0  0  0  0  0  0  0
  -24.6630  -11.7770   20.7480 C   0  0  0  0  0  0  0  0  0  0  0  0
  -26.3030  -13.0080   20.1250 N   0  0  0  0  0  0  0  0  0  0  0  0
  -25.9420  -11.7280   20.3990 N   0  0  0  0  0  0  0  0  0  0  0  0
  -23.9340  -10.5190   20.9610 C   0  0  0  0  0  0  0  0  0  0  0  0
  -24.3840   -9.5520   21.8870 C   0  0  0  0  0  3  0  0  0  0  0  0
  -23.6560   -8.3590   22.0900 C   0  0  0  0  0  3  0  0  0  0  0  0
  -22.4630   -8.1250   21.3650 C   0  0  0  0  0  0  0  0  0  0  0  0
  -22.0310   -9.0810   20.4280 C   0  0  0  0  0  3  0  0  0  0  0  0
  -22.7600  -10.2650   20.2240 C   0  0  0  0  0  3  0  0  0  0  0  0
  -21.7050   -6.9840   21.4760 O   0  0  0  0  0  0  0  0  0  0  0  0
  -21.6750   -6.2480   22.6340 C   0  0  0  0  0  0  0  0  0  0  0  0
  -21.2780   -6.8140   23.8650 C   0  0  0  0  0  3  0  0  0  0  0  0
  -21.1950   -6.0050   25.0160 C   0  0  0  0  0  3  0  0  0  0  0  0
  -21.5000   -4.6330   24.9380 C   0  0  0  0  0  0  0  0  0  0  0  0
  -21.8910   -4.0670   23.7120 C   0  0  0  0  0  3  0  0  0  0  0  0
  -21.9760   -4.8730   22.5630 C   0  0  0  0  0  0  0  0  0  0  0  0
  -22.3310   -4.3180   21.3780 F   0  0  0  0  0  0  0  0  0  0  0  0
  -21.4120   -3.8550   26.0420 F   0  0  0  0  0  0  0  0  0  0  0  0
  -22.8270  -13.6170   21.1090 C   0  0  0  0  0  0  0  0  0  0  0  0
  -22.1240  -12.9250   21.9990 N   0  0  0  0  0  0  0  0  0  0  0  0
  -22.3780  -14.6450   20.6020 O   0  0  0  0  0  0  0  0  0  0  0  0
  -22.5010  -12.0930   22.4280 H   0  0  0  0  0  0  0  0  0  0  0  0
  -21.1950  -13.2320   22.2540 H   0  0  0  0  0  0  0  0  0  0  0  0
  -25.4390  -15.2660   20.2000 N   0  0  0  0  0  0  0  0  0  0  0  0
  -24.6760  -15.9240   20.3220 H   0  0  0  0  0  0  0  0  0  0  0  0
  -26.2730  -15.6980   19.8220 H   0  0  0  0  0  0  0  0  0  0  0  0
  1 47  1  0
  1  4  1  0
  1  3  1  0
  2  1  1  0
  5  6  1  0
  5  4  2  0
  7 18  2  0
  8  6  1  0
  8 13  1  0
  9 17  1  0
  9 19  1  0
 10 16  1  0
 10 12  1  0
 11 17  1  0
 12 11  1  0
 13 12  2  0
 14 15  1  0
 14  8  2  0
 15 10  2  0
 16  9  1  0
 17  7  1  0
 19 21  2  0
 20 19  1  0
 22 20  1  0
 23 32  2  0
 23 28  1  0
 24 20  1  0
 24 28  1  0
 25 24  1  0
 26 27  1  0
 26 25  1  0
 27 23  1  0
 28 29  2  0
 29 30  1  0
 31 30  2  0
 32 31  1  0
 33  7  1  0
 33 38  1  0
 33 34  1  0
 34 37  1  1
 34 35  1  0
 36 34  1  0
 38 41  1  0
 39 43  1  0
 39 38  1  0
 40 39  2  0
 43 42  1  0
 45 43  1  0
 45 46  1  0
 45 44  1  0
 47 49  1  0
 49 48  1  0
 50 47  1  0
 50 51  1  0
 51 52  1  0
 53 62  1  0
 53 52  1  0
 54 62  1  0
 55 60  1  0
 56 57  1  0
 56 55  1  0
 58 57  1  0
 58 67  1  0
 58 59  1  0
 60 54  1  0
 60 59  1  0
 61 54  2  0
 62 63  1  0
 64 65  2  0
 65 84  1  0
 66 65  1  0
 66 69  1  0
 67 64  1  0
 67 68  1  0
 68 66  2  0
 69 70  1  0
 70 71  2  0
 72 75  1  0
 72 71  1  0
 73 72  2  0
 74 73  1  0
 74 69  2  0
 75 76  1  0
 76 77  1  0
 77 78  2  0
 79 78  1  0
 79 83  1  0
 80 79  2  0
 81 76  2  0
 81 80  1  0
 82 81  1  0
 84 85  1  0
 85 88  1  0
 85 87  1  0
 86 84  2  0
 89 90  1  0
 89 64  1  0
 91 89  1  0
M  ISO  4   5 101   6 101  54 100  62 100
M  END
>  <TORSDO>  (69) 
F 24

>  <SCORE>  (69) 
-12.050

>  <name>  (69) 
68

>  <ligand_id>  (69) 
68

>  <original_smiles>  (69) 
[H]c1c([H])c([H])c2c(c1[H])C([H])([H])C([H])([H])C([H])([H])C2([H])N([H])C(=O)C1([H])N(C(=O)C([H])(N([H])C(=O)C([H])(N([H])C([H])([H])[H])C([H])([H])[H])C(C([H])([H])[H])(C([H])([H])[H])C([H])([H])[H])C([H])([H])c2c([H])c(OC([H])([H])C([H])([H])[N+]([H])([H])C([H])(C([H])([H])C([H])([H])[H])C([H])([H])C([H])([H])C([H])([H])C([H])([H])N([H])C(=O)N3C([H])([H])C([H])([H])C([H])([H])C([H])(n4nc(-c5c([H])c([H])c(Oc6c([H])c([H])c(F)c([H])c6F)c([H])c5[H])c(C(=O)N([H])[H])c4N([H])[H])C3([H])[H])c([H])c([H])c2C1([H])[H]

>  <smiles>  (69) 
[H]c1c([H])c([H])c2c(c1[H])C([H])([H])C([H])([H])C([H])([H])C2([H])N([H])C(=O)C1([H])N(C(=O)C([H])(N([H])C(=O)C([H])(N([H])C([H])([H])[H])C([H])([H])[H])C(C([H])([H])[H])(C([H])([H])[H])C([H])([H])[H])C([H])([H])c2c([H])c(OC([H])([H])C([H])([H])[N+]([H])([H])C([H])(C([H])([H])C([H])([H])[H])C([H])([H])C([H])([H])C([H])([H])C([H])([H])N([H])C(=O)N3C([H])([H])C([H])([H])C([H])([H])C([H])(n4nc(-c5c([H])c([H])c(Oc6c([H])c([H])c(F)c([H])c6F)c([H])c5[H])c(C(=O)N([H])[H])c4N([H])[H])C3([H])[H])c([H])c([H])c2C1([H])[H]

$$$$
69:0:0
     RDKit          3D

 97105  0  0  1  0  0  0  0  0999 V2000
  -33.3490  -21.2610   20.8130 C   0  0  0  0  0  3  0  0  0  0  0  0
  -32.3170  -22.1860   20.5840 C   0  0  0  0  0  3  0  0  0  0  0  0
  -33.0750  -19.9640   21.2920 C   0  0  0  0  0  0  0  0  0  0  0  0
  -30.9660  -21.8150   20.7580 C   0  0  0  0  0  0  0  0  0  0  0  0
  -31.7170  -19.5340   21.4100 C   0  0  0  0  0  0  0  0  0  0  0  0
  -30.6680  -20.4540   21.0820 C   0  0  0  0  0  0  0  0  0  0  0  0
  -35.4840  -19.8570   22.1950 C   0  0  0  0  0  1  0  0  0  0  0  0
  -34.2820  -19.0830   21.6350 C   0  0  0  0  0  2  0  0  0  0  0  0
  -28.3570  -20.5960   22.1820 C   0  0  0  0  0  1  0  0  0  0  0  0
  -29.2120  -19.9840   21.0600 C   0  0  0  0  0  2  0  0  0  0  0  0
  -29.8690  -22.9060   20.6960 C   0  0  0  0  0  3  0  0  0  0  0  0
  -29.9690  -23.9500   19.5490 C   0  0  0  0  0  3  0  0  0  0  0  0
  -28.7490  -24.9100   19.4220 C   0  0  0  0  0  3  0  0  0  0  0  0
  -27.4980  -23.3340   17.7520 C   0  0  0  0  0  1  0  0  0  0  0  0
  -27.4360  -24.1750   19.0380 C   0  0  0  0  0  2  0  0  0  0  0  0
  -29.0880  -26.1080   18.4770 C   0  0  0  0  0  2  0  0  0  0  0  0
  -28.8880  -27.3930   19.0720 O   0  0  0  0  0  0  0  0  0  0  0  0
  -24.5550  -31.4500   22.9850 C   0  0  0  0  0  0  0  0  0  0  0  0
  -27.6200  -27.9160   19.1960 C   0  0  0  0  0  0  0  0  0  0  0  0
  -23.4900  -30.2020   21.1430 C   0  0  0  0  0  3  0  0  0  0  0  0
  -25.0670  -29.0980   19.4950 C   0  0  0  0  0  0  0  0  0  0  0  0
  -25.9690  -30.8680   21.0160 C   0  0  0  0  0  2  0  0  0  0  0  0
  -26.1800  -29.6550   20.1400 C   0  0  0  0  0  0  0  0  0  0  0  0
  -27.4600  -29.0830   19.9750 C   0  0  0  0  0  3  0  0  0  0  0  0
  -26.4790  -27.3600   18.5740 C   0  0  0  0  0  3  0  0  0  0  0  0
  -25.2120  -27.9360   18.7250 C   0  0  0  0  0  3  0  0  0  0  0  0
  -23.7360  -29.7840   19.6750 C   0  0  0  0  0  2  0  0  0  0  0  0
  -24.6880  -30.8550   21.7650 N   0  0  0  0  0  0  0  0  0  0  0  0
  -23.4570  -31.5080   23.5570 O   0  0  0  0  0  0  0  0  0  0  0  0
  -22.9840  -28.9670   21.9210 C   0  0  0  0  0  0  0  0  0  0  0  0
  -21.6950  -28.6460   21.7370 N   0  0  0  0  0  0  0  0  0  0  0  0
  -23.7420  -28.3050   22.6360 O   0  0  0  0  0  0  0  0  0  0  0  0
  -21.1580  -29.2460   21.1280 H   0  0  0  0  0  0  0  0  0  0  0  0
  -18.4820  -26.9910   21.9880 C   0  0  0  0  0  0  0  0  0  0  0  0
  -20.9910  -27.5070   22.3260 C   0  0  0  0  0  3  0  0  0  0  0  0
  -21.2600  -26.2130   21.5250 C   0  0  0  0  0  2  0  0  0  0  0  0
  -20.1970  -25.9260   20.4600 C   0  0  0  0  0  2  0  0  0  0  0  0
  -18.8140  -25.8000   21.1030 C   0  0  0  0  0  2  0  0  0  0  0  0
  -19.5040  -27.8040   22.5460 C   0  0  0  0  0  0  0  0  0  0  0  0
  -19.1420  -28.9170   23.3320 C   0  0  0  0  0  3  0  0  0  0  0  0
  -17.7880  -29.2250   23.5660 C   0  0  0  0  0  3  0  0  0  0  0  0
  -16.7790  -28.4090   23.0240 C   0  0  0  0  0  3  0  0  0  0  0  0
  -17.1280  -27.2910   22.2440 C   0  0  0  0  0  3  0  0  0  0  0  0
  -25.7720  -32.1080   23.7040 C   0  0  0  0  0  3  0  0  0  0  0  0
  -26.2830  -31.2870   24.9510 C   0  0  1  0  0  0  0  0  0  0  0  0
  -25.1530  -30.8850   25.9310 C   0  0  0  0  0  1  0  0  0  0  0  0
  -26.9890  -29.9870   24.5030 C   0  0  0  0  0  1  0  0  0  0  0  0
  -27.3460  -32.1130   25.7150 C   0  0  0  0  0  1  0  0  0  0  0  0
  -25.3600  -33.4610   24.1100 N   0  0  0  0  0  0  0  0  0  0  0  0
  -25.6640  -34.5840   23.4470 C   0  0  0  0  0  0  0  0  0  0  0  0
  -26.3990  -34.5940   22.4540 O   0  0  0  0  0  0  0  0  0  0  0  0
  -24.7140  -33.5180   24.8830 H   0  0  0  0  0  0  0  0  0  0  0  0
  -23.8410  -36.2880   23.1170 C   0  0  0  0  0  1  0  0  0  0  0  0
  -25.0660  -35.9090   23.9660 C   0  0  0  0  0  3  0  0  0  0  0  0
  -27.0970  -36.8530   24.9740 C   0  0  0  0  0  1  0  0  0  0  0  0
  -26.0400  -37.0250   23.9790 N   0  0  0  0  0  0  0  0  0  0  0  0
  -25.5760  -37.9110   24.1600 H   0  0  0  0  0  0  0  0  0  0  0  0
  -31.3910  -18.1020   21.8970 C   0  0  0  0  0  2  0  0  0  0  0  0
  -31.7790  -17.0090   20.8760 C   0  0  0  0  0  2  0  0  0  0  0  0
  -31.1630  -14.9320   19.7760 C   0  0  0  0  0  0  0  0  0  0  0  0
  -30.7710  -12.7090   18.8040 C   0  0  0  0  0  2  0  0  0  0  0  0
  -29.7840  -12.7920   17.6270 C   0  0  0  0  0  2  0  0  0  0  0  0
  -28.3420  -12.6310   18.1370 C   0  0  0  0  0  2  0  0  0  0  0  0
  -28.0280  -13.5830   19.3230 C   0  0  0  0  0  3  0  0  0  0  0  0
  -29.1390  -13.5380   20.4020 C   0  0  0  0  0  2  0  0  0  0  0  0
  -30.4390  -13.7810   19.7590 N   0  0  0  0  0  0  0  0  0  0  0  0
  -32.1160  -15.1140   19.0110 O   0  0  0  0  0  0  0  0  0  0  0  0
  -30.8760  -15.8570   20.7070 N   0  0  0  0  0  0  0  0  0  0  0  0
  -30.1130  -15.7010   21.3540 H   0  0  0  0  0  0  0  0  0  0  0  0
  -25.6940  -14.1830   20.2320 C   0  0  0  0  0  0  0  0  0  0  0  0
  -24.6490  -13.4110   20.6540 C   0  0  0  0  0  0  0  0  0  0  0  0
  -25.0880  -12.0540   20.5430 C   0  0  0  0  0  0  0  0  0  0  0  0
  -26.7110  -13.3030   19.8920 N   0  0  0  0  0  0  0  0  0  0  0  0
  -26.3510  -12.0150   20.1350 N   0  0  0  0  0  0  0  0  0  0  0  0
  -24.3630  -10.7950   20.7450 C   0  0  0  0  0  0  0  0  0  0  0  0
  -24.7480   -9.8730   21.7450 C   0  0  0  0  0  3  0  0  0  0  0  0
  -24.0220   -8.6780   21.9350 C   0  0  0  0  0  3  0  0  0  0  0  0
  -22.8980   -8.3920   21.1250 C   0  0  0  0  0  0  0  0  0  0  0  0
  -22.5330   -9.3010   20.1160 C   0  0  0  0  0  3  0  0  0  0  0  0
  -23.2590  -10.4880   19.9240 C   0  0  0  0  0  3  0  0  0  0  0  0
  -22.1490   -7.2450   21.2190 O   0  0  0  0  0  0  0  0  0  0  0  0
  -21.9110   -6.6380   22.4250 C   0  0  0  0  0  0  0  0  0  0  0  0
  -21.2670   -7.3130   23.4850 C   0  0  0  0  0  3  0  0  0  0  0  0
  -20.9800   -6.6300   24.6850 C   0  0  0  0  0  3  0  0  0  0  0  0
  -21.3250   -5.2720   24.8230 C   0  0  0  0  0  0  0  0  0  0  0  0
  -21.9630   -4.5980   23.7680 C   0  0  0  0  0  3  0  0  0  0  0  0
  -22.2510   -5.2780   22.5720 C   0  0  0  0  0  0  0  0  0  0  0  0
  -22.8460   -4.6160   21.5490 F   0  0  0  0  0  0  0  0  0  0  0  0
  -21.0430   -4.6130   25.9720 F   0  0  0  0  0  0  0  0  0  0  0  0
  -23.2810  -13.8890   21.0520 C   0  0  0  0  0  0  0  0  0  0  0  0
  -22.6170  -13.1730   21.9500 N   0  0  0  0  0  0  0  0  0  0  0  0
  -22.8150  -14.9340   20.5990 O   0  0  0  0  0  0  0  0  0  0  0  0
  -23.0070  -12.3270   22.3400 H   0  0  0  0  0  0  0  0  0  0  0  0
  -21.7020  -13.4760   22.2570 H   0  0  0  0  0  0  0  0  0  0  0  0
  -25.8580  -15.5590   20.0880 N   0  0  0  0  0  0  0  0  0  0  0  0
  -25.1070  -16.2120   20.2810 H   0  0  0  0  0  0  0  0  0  0  0  0
  -26.6950  -16.0080   19.7370 H   0  0  0  0  0  0  0  0  0  0  0  0
  1  3  1  0
  2  4  1  0
  2  1  2  0
  3  5  2  0
  3  8  1  0
  4  6  2  0
  5 58  1  0
  6  5  1  0
  8  7  1  0
 10  6  1  0
 10  9  1  0
 11  4  1  0
 12 11  2  0
 13 16  1  0
 13 12  1  0
 14 15  1  0
 15 13  1  0
 16 17  1  0
 17 19  1  0
 18 29  2  0
 19 24  1  0
 20 28  1  0
 20 30  1  0
 21 27  1  0
 21 23  1  0
 22 28  1  0
 23 22  1  0
 24 23  2  0
 25 26  1  0
 25 19  2  0
 26 21  2  0
 27 20  1  0
 28 18  1  0
 30 32  2  0
 31 30  1  0
 33 31  1  0
 34 43  2  0
 34 39  1  0
 35 31  1  0
 35 39  1  0
 36 35  1  0
 37 38  1  0
 37 36  1  0
 38 34  1  0
 39 40  2  0
 40 41  1  0
 42 41  2  0
 43 42  1  0
 44 18  1  0
 44 49  1  0
 44 45  1  0
 45 48  1  1
 45 46  1  0
 47 45  1  0
 49 52  1  0
 50 54  1  0
 50 49  1  0
 51 50  2  0
 54 53  1  0
 54 56  1  0
 56 57  1  0
 56 55  1  0
 59 58  1  0
 60 68  1  0
 61 66  1  0
 62 63  1  0
 62 61  1  0
 64 63  1  0
 64 73  1  0
 64 65  1  0
 66 60  1  0
 66 65  1  0
 67 60  2  0
 68 59  1  0
 68 69  1  0
 70 71  2  0
 71 90  1  0
 72 71  1  0
 72 75  1  0
 73 74  1  0
 73 70  1  0
 74 72  2  0
 75 76  1  0
 76 77  2  0
 78 81  1  0
 78 77  1  0
 79 78  2  0
 80 79  1  0
 80 75  2  0
 81 82  1  0
 82 87  2  0
 82 83  1  0
 83 84  2  0
 84 85  1  0
 85 89  1  0
 86 85  2  0
 87 86  1  0
 88 87  1  0
 90 91  1  0
 91 94  1  0
 91 93  1  0
 92 90  2  0
 95 70  1  0
 95 96  1  0
 97 95  1  0
M  ISO  4  16 101  17 101  60 100  68 100
M  END
>  <TORSDO>  (70) 
F 25

>  <SCORE>  (70) 
-8.158

>  <name>  (70) 
69

>  <ligand_id>  (70) 
69

>  <original_smiles>  (70) 
[H]c1c([H])c([H])c2c(c1[H])C([H])([H])C([H])([H])C([H])([H])C2([H])N([H])C(=O)C1([H])N(C(=O)C([H])(N([H])C(=O)C([H])(N([H])C([H])([H])[H])C([H])([H])[H])C(C([H])([H])[H])(C([H])([H])[H])C([H])([H])[H])C([H])([H])c2c([H])c(OC([H])([H])C([H])(C([H])([H])C([H])([H])[H])C([H])([H])C([H])([H])c3c([H])c([H])c(C([H])([H])C([H])([H])[H])c(C([H])([H])C([H])([H])N([H])C(=O)N4C([H])([H])C([H])([H])C([H])([H])C([H])(n5nc(-c6c([H])c([H])c(Oc7c([H])c([H])c(F)c([H])c7F)c([H])c6[H])c(C(=O)N([H])[H])c5N([H])[H])C4([H])[H])c3C([H])([H])C([H])([H])[H])c([H])c([H])c2C1([H])[H]

>  <smiles>  (70) 
[H]c1c([H])c([H])c2c(c1[H])C([H])([H])C([H])([H])C([H])([H])C2([H])N([H])C(=O)C1([H])N(C(=O)C([H])(N([H])C(=O)C([H])(N([H])C([H])([H])[H])C([H])([H])[H])C(C([H])([H])[H])(C([H])([H])[H])C([H])([H])[H])C([H])([H])c2c([H])c(OC([H])([H])C([H])(C([H])([H])C([H])([H])[H])C([H])([H])C([H])([H])c3c([H])c([H])c(C([H])([H])C([H])([H])[H])c(C([H])([H])C([H])([H])N([H])C(=O)N4C([H])([H])C([H])([H])C([H])([H])C([H])(n5nc(-c6c([H])c([H])c(Oc7c([H])c([H])c(F)c([H])c7F)c([H])c6[H])c(C(=O)N([H])[H])c5N([H])[H])C4([H])[H])c3C([H])([H])C([H])([H])[H])c([H])c([H])c2C1([H])[H]

$$$$
70:0:0
     RDKit          3D

 93102  0  0  1  0  0  0  0  0999 V2000
  -31.3480  -20.2930   18.6020 C   0  0  0  0  0  3  0  0  0  0  0  0
  -30.5980  -21.4440   18.9160 C   0  0  0  0  0  3  0  0  0  0  0  0
  -30.3370  -21.8540   16.5510 C   0  0  0  0  0  3  0  0  0  0  0  0
  -31.6250  -19.8950   17.2700 C   0  0  0  0  0  0  0  0  0  0  0  0
  -30.0930  -22.2870   17.9090 C   0  0  0  0  0  0  0  0  0  0  0  0
  -31.0790  -20.6580   16.1970 C   0  0  0  0  0  0  0  0  0  0  0  0
  -31.9550  -17.3940   16.5020 C   0  0  0  0  0  2  0  0  0  0  0  0
  -32.5440  -17.4460   17.8900 C   0  0  0  0  0  2  0  0  0  0  0  0
  -32.5190  -18.6960   17.0260 C   0  0  0  0  0  3  0  0  0  0  0  0
  -29.1600  -23.5070   18.3130 C   0  0  0  0  0  2  0  0  0  0  0  0
  -29.8310  -25.5310   16.7320 C   0  0  0  0  0  1  0  0  0  0  0  0
  -29.5490  -25.0770   18.1730 C   0  0  0  0  0  3  0  0  0  0  0  0
  -30.7280  -25.5900   19.1330 C   0  0  0  0  0  2  0  0  0  0  0  0
  -30.9970  -27.0380   19.3960 O   0  0  0  0  0  0  0  0  0  0  0  0
  -34.1850  -32.9010   16.6110 C   0  0  0  0  0  0  0  0  0  0  0  0
  -32.1580  -27.6130   18.8380 C   0  0  0  0  0  0  0  0  0  0  0  0
  -35.1800  -30.7160   16.0410 C   0  0  0  0  0  3  0  0  0  0  0  0
  -34.4090  -28.7330   17.4590 C   0  0  0  0  0  0  0  0  0  0  0  0
  -33.9570  -31.0420   18.2740 C   0  0  0  0  0  2  0  0  0  0  0  0
  -33.5940  -29.5610   18.2410 C   0  0  0  0  0  0  0  0  0  0  0  0
  -32.4760  -29.0060   18.9380 C   0  0  0  0  0  3  0  0  0  0  0  0
  -33.0580  -26.8130   18.0940 C   0  0  0  0  0  3  0  0  0  0  0  0
  -34.1480  -27.3580   17.3960 C   0  0  0  0  0  3  0  0  0  0  0  0
  -35.5600  -29.3690   16.7080 C   0  0  0  0  0  2  0  0  0  0  0  0
  -34.4040  -31.6020   16.9680 N   0  0  0  0  0  0  0  0  0  0  0  0
  -34.6390  -33.3630   15.5530 O   0  0  0  0  0  0  0  0  0  0  0  0
  -34.4470  -30.4310   14.7090 C   0  0  0  0  0  0  0  0  0  0  0  0
  -35.2140  -30.2490   13.6210 N   0  0  0  0  0  0  0  0  0  0  0  0
  -33.2160  -30.3550   14.6730 O   0  0  0  0  0  0  0  0  0  0  0  0
  -36.2150  -30.3400   13.7280 H   0  0  0  0  0  0  0  0  0  0  0  0
  -36.2440  -29.8700   10.1750 C   0  0  0  0  0  0  0  0  0  0  0  0
  -34.7350  -29.9330   12.2740 C   0  0  0  0  0  3  0  0  0  0  0  0
  -34.5820  -28.4050   12.0820 C   0  0  0  0  0  2  0  0  0  0  0  0
  -35.8290  -27.7450   11.4830 C   0  0  0  0  0  2  0  0  0  0  0  0
  -36.1550  -28.3540   10.1170 C   0  0  0  0  0  2  0  0  0  0  0  0
  -35.5900  -30.6090   11.1970 C   0  0  0  0  0  0  0  0  0  0  0  0
  -35.7350  -32.0140   11.2220 C   0  0  0  0  0  3  0  0  0  0  0  0
  -36.5100  -32.6770   10.2530 C   0  0  0  0  0  3  0  0  0  0  0  0
  -37.1410  -31.9410    9.2350 C   0  0  0  0  0  3  0  0  0  0  0  0
  -37.0050  -30.5430    9.1960 C   0  0  0  0  0  3  0  0  0  0  0  0
  -33.3760  -33.8730   17.5220 C   0  0  0  0  0  3  0  0  0  0  0  0
  -34.1690  -35.1000   17.6780 N   0  0  0  0  0  0  0  0  0  0  0  0
  -35.0380  -35.3260   18.6710 C   0  0  0  0  0  0  0  0  0  0  0  0
  -35.2080  -34.5350   19.6050 O   0  0  0  0  0  0  0  0  0  0  0  0
  -34.1200  -35.7680   16.9230 H   0  0  0  0  0  0  0  0  0  0  0  0
  -37.2940  -36.3330   18.1980 C   0  0  0  0  0  1  0  0  0  0  0  0
  -35.8490  -36.6350   18.6250 C   0  0  0  0  0  3  0  0  0  0  0  0
  -34.5830  -38.0300   20.2000 C   0  0  0  0  0  1  0  0  0  0  0  0
  -35.8530  -37.3710   19.9070 N   0  0  0  0  0  0  0  0  0  0  0  0
  -36.5850  -38.0770   19.9150 H   0  0  0  0  0  0  0  0  0  0  0  0
  -31.9410  -34.2060   16.9560 C   0  0  1  0  0  0  0  0  0  0  0  0
  -31.9580  -35.1900   15.7630 C   0  0  0  0  0  1  0  0  0  0  0  0
  -31.2210  -32.9190   16.4920 C   0  0  0  0  0  1  0  0  0  0  0  0
  -31.0660  -34.8230   18.0720 C   0  0  0  0  0  1  0  0  0  0  0  0
  -31.3380  -20.2830   14.6740 C   0  0  0  0  0  2  0  0  0  0  0  0
  -30.0280  -20.0840   12.4540 C   0  0  0  0  0  0  0  0  0  0  0  0
  -29.7900  -20.2710    9.9830 C   0  0  0  0  0  2  0  0  0  0  0  0
  -31.0340  -20.9980    9.4280 C   0  0  0  0  0  2  0  0  0  0  0  0
  -30.8420  -22.5280    9.4740 C   0  0  0  0  0  2  0  0  0  0  0  0
  -30.3050  -23.0230   10.8450 C   0  0  0  0  0  3  0  0  0  0  0  0
  -29.1160  -22.1640   11.3280 C   0  0  0  0  0  2  0  0  0  0  0  0
  -29.5680  -20.7690   11.3580 N   0  0  0  0  0  0  0  0  0  0  0  0
  -30.2030  -18.8640   12.4020 O   0  0  0  0  0  0  0  0  0  0  0  0
  -30.4990  -20.8100   13.5260 N   0  0  0  0  0  0  0  0  0  0  0  0
  -30.3650  -21.8080   13.4870 H   0  0  0  0  0  0  0  0  0  0  0  0
  -30.2370  -25.4180   11.7670 C   0  0  0  0  0  0  0  0  0  0  0  0
  -29.7990  -26.5970   11.2280 C   0  0  0  0  0  0  0  0  0  0  0  0
  -29.2890  -26.2740    9.9330 C   0  0  0  0  0  0  0  0  0  0  0  0
  -29.9780  -24.4450   10.8140 N   0  0  0  0  0  0  0  0  0  0  0  0
  -29.3500  -24.9640    9.7270 N   0  0  0  0  0  0  0  0  0  0  0  0
  -28.8010  -27.1440    8.8540 C   0  0  0  0  0  0  0  0  0  0  0  0
  -27.4870  -27.6610    8.8590 C   0  0  0  0  0  3  0  0  0  0  0  0
  -27.0490  -28.5130    7.8220 C   0  0  0  0  0  3  0  0  0  0  0  0
  -27.9280  -28.8590    6.7680 C   0  0  0  0  0  0  0  0  0  0  0  0
  -29.2280  -28.3220    6.7570 C   0  0  0  0  0  3  0  0  0  0  0  0
  -29.6620  -27.4710    7.7870 C   0  0  0  0  0  3  0  0  0  0  0  0
  -27.5820  -29.6570    5.7050 O   0  0  0  0  0  0  0  0  0  0  0  0
  -27.6490  -31.0250    5.7810 C   0  0  0  0  0  0  0  0  0  0  0  0
  -28.8720  -31.7000    5.9960 C   0  0  0  0  0  3  0  0  0  0  0  0
  -28.9070  -33.1090    5.9980 C   0  0  0  0  0  3  0  0  0  0  0  0
  -27.7270  -33.8430    5.7780 C   0  0  0  0  0  0  0  0  0  0  0  0
  -26.5100  -33.1740    5.5570 C   0  0  0  0  0  3  0  0  0  0  0  0
  -26.4730  -31.7690    5.5580 C   0  0  0  0  0  0  0  0  0  0  0  0
  -25.3020  -31.1270    5.3250 F   0  0  0  0  0  0  0  0  0  0  0  0
  -27.7610  -35.1960    5.7720 F   0  0  0  0  0  0  0  0  0  0  0  0
  -29.9390  -27.9610   11.8370 C   0  0  0  0  0  0  0  0  0  0  0  0
  -28.8560  -28.7290   11.8770 N   0  0  0  0  0  0  0  0  0  0  0  0
  -31.0040  -28.3370   12.3250 O   0  0  0  0  0  0  0  0  0  0  0  0
  -27.9760  -28.4130   11.4960 H   0  0  0  0  0  0  0  0  0  0  0  0
  -28.9060  -29.6460   12.2970 H   0  0  0  0  0  0  0  0  0  0  0  0
  -30.8550  -25.0970   12.9710 N   0  0  0  0  0  0  0  0  0  0  0  0
  -31.1030  -25.8070   13.6510 H   0  0  0  0  0  0  0  0  0  0  0  0
  -31.1930  -24.1770   13.2220 H   0  0  0  0  0  0  0  0  0  0  0  0
  1  2  1  0
  3  5  1  0
  4  1  2  0
  5 10  1  0
  5  2  2  0
  6  3  2  0
  6  4  1  0
  7  9  1  0
  7  8  1  0
  9  4  1  0
  9  8  1  0
 12 11  1  0
 12 10  1  0
 12 13  1  0
 13 14  1  0
 15 25  1  0
 16 21  1  0
 16 14  1  0
 17 27  1  0
 17 24  1  0
 17 25  1  0
 18 20  1  0
 20 19  1  0
 20 21  2  0
 22 16  2  0
 23 18  2  0
 23 22  1  0
 24 18  1  0
 25 19  1  0
 26 15  2  0
 28 30  1  0
 28 27  1  0
 29 27  2  0
 31 36  1  0
 32 28  1  0
 33 32  1  0
 34 33  1  0
 35 31  1  0
 35 34  1  0
 36 37  2  0
 36 32  1  0
 38 37  1  0
 39 38  2  0
 40 39  1  0
 40 31  2  0
 41 15  1  0
 41 42  1  0
 42 43  1  0
 43 44  2  0
 45 42  1  0
 47 46  1  0
 47 43  1  0
 47 49  1  0
 49 50  1  0
 49 48  1  0
 51 41  1  0
 51 54  1  1
 52 51  1  0
 53 51  1  0
 55  6  1  0
 56 64  1  0
 57 62  1  0
 58 59  1  0
 58 57  1  0
 60 59  1  0
 60 61  1  0
 61 62  1  0
 62 56  1  0
 63 56  2  0
 64 55  1  0
 65 64  1  0
 66 91  1  0
 67 66  2  0
 67 86  1  0
 68 67  1  0
 69 60  1  0
 69 66  1  0
 70 68  2  0
 70 69  1  0
 71 72  1  0
 71 68  1  0
 73 72  2  0
 74 73  1  0
 75 74  2  0
 75 76  1  0
 76 71  2  0
 77 78  1  0
 77 74  1  0
 78 79  1  0
 79 80  2  0
 81 80  1  0
 82 83  1  0
 82 81  2  0
 83 78  2  0
 84 83  1  0
 85 81  1  0
 86 87  1  0
 86 88  2  0
 87 90  1  0
 89 87  1  0
 91 93  1  0
 91 92  1  0
M  ISO  4  13 101  14 101  56 100  64 100
M  END
>  <TORSDO>  (71) 
F 21

>  <SCORE>  (71) 
-4.716

>  <name>  (71) 
70

>  <ligand_id>  (71) 
70

>  <original_smiles>  (71) 
[H]c1c([H])c([H])c2c(c1[H])C([H])([H])C([H])([H])C([H])([H])C2([H])N([H])C(=O)C1([H])N(C(=O)C([H])(N([H])C(=O)C([H])(N([H])C([H])([H])[H])C([H])([H])[H])C(C([H])([H])[H])(C([H])([H])[H])C([H])([H])[H])C([H])([H])c2c([H])c(OC([H])([H])C([H])(C([H])([H])[H])C([H])([H])c3c([H])c([H])c(C4([H])C([H])([H])C4([H])[H])c(C([H])([H])N([H])C(=O)N4C([H])([H])C([H])([H])C([H])([H])C([H])(n5nc(-c6c([H])c([H])c(Oc7c([H])c([H])c(F)c([H])c7F)c([H])c6[H])c(C(=O)N([H])[H])c5N([H])[H])C4([H])[H])c3[H])c([H])c([H])c2C1([H])[H]

>  <smiles>  (71) 
[H]c1c([H])c([H])c2c(c1[H])C([H])([H])C([H])([H])C([H])([H])C2([H])N([H])C(=O)C1([H])N(C(=O)C([H])(N([H])C(=O)C([H])(N([H])C([H])([H])[H])C([H])([H])[H])C(C([H])([H])[H])(C([H])([H])[H])C([H])([H])[H])C([H])([H])c2c([H])c(OC([H])([H])C([H])(C([H])([H])[H])C([H])([H])c3c([H])c([H])c(C4([H])C([H])([H])C4([H])[H])c(C([H])([H])N([H])C(=O)N4C([H])([H])C([H])([H])C([H])([H])C([H])(n5nc(-c6c([H])c([H])c(Oc7c([H])c([H])c(F)c([H])c7F)c([H])c6[H])c(C(=O)N([H])[H])c5N([H])[H])C4([H])[H])c3[H])c([H])c([H])c2C1([H])[H]

$$$$
71:0:0
     RDKit          3D

 93100  0  0  1  0  0  0  0  0999 V2000
  -26.3690  -22.9850   21.5170 C   0  0  0  0  0  2  0  0  0  0  0  0
  -27.6310  -23.7650   21.4100 N   0  0  0  0  0  4  0  0  0  0  0  0
  -28.3070  -23.2180   20.8990 H   0  0  0  0  0  0  0  0  0  0  0  0
  -27.9930  -23.9230   22.3410 H   0  0  0  0  0  0  0  0  0  0  0  0
  -27.4280  -25.0530   20.7100 C   0  0  0  0  0  2  0  0  0  0  0  0
  -28.5580  -26.0990   20.8940 C   0  0  0  0  0  2  0  0  0  0  0  0
  -28.4520  -27.2400   20.0230 O   0  0  0  0  0  0  0  0  0  0  0  0
  -24.5850  -32.1650   23.4420 C   0  0  0  0  0  0  0  0  0  0  0  0
  -27.2830  -27.9570   20.1040 C   0  0  0  0  0  0  0  0  0  0  0  0
  -23.3830  -30.8000   21.7660 C   0  0  0  0  0  3  0  0  0  0  0  0
  -24.8490  -29.3770   20.2440 C   0  0  0  0  0  0  0  0  0  0  0  0
  -25.8930  -31.2400   21.5380 C   0  0  0  0  0  2  0  0  0  0  0  0
  -26.0030  -29.9030   20.8400 C   0  0  0  0  0  0  0  0  0  0  0  0
  -27.2230  -29.1940   20.7790 C   0  0  0  0  0  3  0  0  0  0  0  0
  -26.1240  -27.4770   19.4560 C   0  0  0  0  0  3  0  0  0  0  0  0
  -24.9000  -28.1570   19.5540 C   0  0  0  0  0  3  0  0  0  0  0  0
  -23.5810  -30.1880   20.3550 C   0  0  0  0  0  2  0  0  0  0  0  0
  -24.6390  -31.4140   22.3060 N   0  0  0  0  0  0  0  0  0  0  0  0
  -23.5080  -32.3840   24.0160 O   0  0  0  0  0  0  0  0  0  0  0  0
  -22.7860  -29.7140   22.6910 C   0  0  0  0  0  0  0  0  0  0  0  0
  -21.4760  -29.4630   22.5490 N   0  0  0  0  0  0  0  0  0  0  0  0
  -23.4990  -29.1010   23.4890 O   0  0  0  0  0  0  0  0  0  0  0  0
  -20.9580  -30.0290   21.8890 H   0  0  0  0  0  0  0  0  0  0  0  0
  -18.1840  -28.0210   22.9160 C   0  0  0  0  0  0  0  0  0  0  0  0
  -20.7080  -28.4490   23.2740 C   0  0  0  0  0  3  0  0  0  0  0  0
  -20.9300  -27.0440   22.6670 C   0  0  0  0  0  2  0  0  0  0  0  0
  -19.8840  -26.6710   21.6150 C   0  0  0  0  0  2  0  0  0  0  0  0
  -18.4770  -26.7020   22.2210 C   0  0  0  0  0  2  0  0  0  0  0  0
  -19.2320  -28.8510   23.3950 C   0  0  0  0  0  0  0  0  0  0  0  0
  -18.9060  -30.0810   24.0010 C   0  0  0  0  0  3  0  0  0  0  0  0
  -17.5650  -30.4930   24.1240 C   0  0  0  0  0  3  0  0  0  0  0  0
  -16.5300  -29.6630   23.6580 C   0  0  0  0  0  3  0  0  0  0  0  0
  -16.8430  -28.4290   23.0620 C   0  0  0  0  0  3  0  0  0  0  0  0
  -25.8660  -32.8040   24.0600 C   0  0  0  0  0  3  0  0  0  0  0  0
  -26.3970  -32.0320   25.3310 C   0  0  1  0  0  0  0  0  0  0  0  0
  -25.3050  -31.7570   26.3910 C   0  0  0  0  0  1  0  0  0  0  0  0
  -27.0120  -30.6720   24.9260 C   0  0  0  0  0  1  0  0  0  0  0  0
  -27.5280  -32.8470   26.0030 C   0  0  0  0  0  1  0  0  0  0  0  0
  -25.5480  -34.1980   24.3920 N   0  0  0  0  0  0  0  0  0  0  0  0
  -25.8780  -35.2530   23.6350 C   0  0  0  0  0  0  0  0  0  0  0  0
  -26.5530  -35.1540   22.6070 O   0  0  0  0  0  0  0  0  0  0  0  0
  -24.9510  -34.3470   25.1910 H   0  0  0  0  0  0  0  0  0  0  0  0
  -24.1350  -37.0290   23.2690 C   0  0  0  0  0  1  0  0  0  0  0  0
  -25.3750  -36.6360   24.0890 C   0  0  0  0  0  3  0  0  0  0  0  0
  -27.4980  -37.5360   24.9310 C   0  0  0  0  0  1  0  0  0  0  0  0
  -26.3990  -37.6980   23.9840 N   0  0  0  0  0  0  0  0  0  0  0  0
  -25.9850  -38.6140   24.1350 H   0  0  0  0  0  0  0  0  0  0  0  0
  -26.5910  -21.4700   21.6660 C   0  0  0  0  0  2  0  0  0  0  0  0
  -27.1210  -20.7890   20.3860 C   0  0  0  0  0  2  0  0  0  0  0  0
  -28.5030  -21.0800   20.2080 O   0  0  0  0  0  0  0  0  0  0  0  0
  -29.0980  -20.4690   19.0550 C   0  0  0  0  0  2  0  0  0  0  0  0
  -29.1180  -18.9210   19.0980 C   0  0  0  0  0  2  0  0  0  0  0  0
  -29.4090  -18.3710   20.3890 O   0  0  0  0  0  0  0  0  0  0  0  0
  -30.7270  -18.5800   20.8960 C   0  0  0  0  0  2  0  0  0  0  0  0
  -31.6790  -17.4150   20.5850 C   0  0  0  0  0  2  0  0  0  0  0  0
  -31.8220  -14.9810   20.7740 C   0  0  0  0  0  0  0  0  0  0  0  0
  -31.4660  -12.7670   19.7920 C   0  0  0  0  0  2  0  0  0  0  0  0
  -30.6570  -12.9020   18.4850 C   0  0  0  0  0  2  0  0  0  0  0  0
  -29.1510  -12.8490   18.7930 C   0  0  0  0  0  2  0  0  0  0  0  0
  -28.7340  -13.8430   19.9070 C   0  0  0  0  0  3  0  0  0  0  0  0
  -29.6680  -13.7090   21.1350 C   0  0  0  0  0  2  0  0  0  0  0  0
  -31.0620  -13.8610   20.6850 N   0  0  0  0  0  0  0  0  0  0  0  0
  -33.0010  -15.0290   20.4220 O   0  0  0  0  0  0  0  0  0  0  0  0
  -31.1730  -16.1190   21.0490 N   0  0  0  0  0  0  0  0  0  0  0  0
  -30.2160  -16.0780   21.3740 H   0  0  0  0  0  0  0  0  0  0  0  0
  -26.3300  -14.6270   20.4100 C   0  0  0  0  0  0  0  0  0  0  0  0
  -25.1880  -13.9330   20.6980 C   0  0  0  0  0  0  0  0  0  0  0  0
  -25.5560  -12.5520   20.7150 C   0  0  0  0  0  0  0  0  0  0  0  0
  -27.3300  -13.6740   20.2760 N   0  0  0  0  0  0  0  0  0  0  0  0
  -26.8600  -12.4250   20.5230 N   0  0  0  0  0  0  0  0  0  0  0  0
  -24.7350  -11.3440   20.8460 C   0  0  0  0  0  0  0  0  0  0  0  0
  -25.0140  -10.3640   21.8210 C   0  0  0  0  0  3  0  0  0  0  0  0
  -24.2000   -9.2170   21.9420 C   0  0  0  0  0  3  0  0  0  0  0  0
  -23.0870   -9.0450   21.0830 C   0  0  0  0  0  0  0  0  0  0  0  0
  -22.8260  -10.0150   20.0970 C   0  0  0  0  0  3  0  0  0  0  0  0
  -23.6420  -11.1520   19.9770 C   0  0  0  0  0  3  0  0  0  0  0  0
  -22.2510   -7.9560   21.1120 O   0  0  0  0  0  0  0  0  0  0  0  0
  -22.0210   -7.2580   22.2710 C   0  0  0  0  0  0  0  0  0  0  0  0
  -21.5060   -7.8840   23.4270 C   0  0  0  0  0  3  0  0  0  0  0  0
  -21.2170   -7.1180   24.5730 C   0  0  0  0  0  3  0  0  0  0  0  0
  -21.4310   -5.7260   24.5610 C   0  0  0  0  0  0  0  0  0  0  0  0
  -21.9430   -5.1020   23.4110 C   0  0  0  0  0  3  0  0  0  0  0  0
  -22.2320   -5.8650   22.2680 C   0  0  0  0  0  0  0  0  0  0  0  0
  -22.7040   -5.2570   21.1520 F   0  0  0  0  0  0  0  0  0  0  0  0
  -21.1480   -4.9870   25.6590 F   0  0  0  0  0  0  0  0  0  0  0  0
  -23.8100  -14.5040   20.8460 C   0  0  0  0  0  0  0  0  0  0  0  0
  -22.9720  -13.8810   21.6670 N   0  0  0  0  0  0  0  0  0  0  0  0
  -23.4830  -15.5420   20.2690 O   0  0  0  0  0  0  0  0  0  0  0  0
  -23.2450  -13.0410   22.1550 H   0  0  0  0  0  0  0  0  0  0  0  0
  -22.0440  -14.2510   21.8040 H   0  0  0  0  0  0  0  0  0  0  0  0
  -26.6020  -15.9780   20.2270 N   0  0  0  0  0  0  0  0  0  0  0  0
  -25.8640  -16.6740   20.2070 H   0  0  0  0  0  0  0  0  0  0  0  0
  -27.5050  -16.3450   19.9540 H   0  0  0  0  0  0  0  0  0  0  0  0
  1 48  1  0
  2  1  1  0
  2  4  1  0
  3  2  1  0
  5  6  1  0
  5  2  1  0
  7  9  1  0
  7  6  1  0
  8 19  2  0
  9 14  1  0
 10 18  1  0
 10 20  1  0
 11 17  1  0
 11 13  1  0
 12 18  1  0
 13 12  1  0
 14 13  2  0
 15 16  1  0
 15  9  2  0
 16 11  2  0
 17 10  1  0
 18  8  1  0
 20 22  2  0
 21 20  1  0
 23 21  1  0
 24 33  2  0
 24 29  1  0
 25 21  1  0
 25 29  1  0
 26 25  1  0
 27 28  1  0
 27 26  1  0
 28 24  1  0
 29 30  2  0
 30 31  1  0
 32 31  2  0
 33 32  1  0
 34  8  1  0
 34 39  1  0
 34 35  1  0
 35 38  1  1
 35 36  1  0
 37 35  1  0
 39 42  1  0
 40 44  1  0
 40 39  1  0
 41 40  2  0
 44 43  1  0
 46 44  1  0
 46 47  1  0
 46 45  1  0
 49 48  1  0
 50 49  1  0
 51 52  1  0
 51 50  1  0
 52 53  1  0
 53 54  1  0
 55 54  1  0
 55 64  1  0
 56 64  1  0
 57 62  1  0
 58 59  1  0
 58 57  1  0
 60 59  1  0
 60 69  1  0
 60 61  1  0
 62 56  1  0
 62 61  1  0
 63 56  2  0
 64 65  1  0
 66 67  2  0
 67 68  1  0
 67 86  1  0
 68 71  1  0
 69 66  1  0
 69 70  1  0
 70 68  2  0
 71 72  1  0
 72 73  2  0
 74 77  1  0
 74 73  1  0
 75 74  2  0
 76 75  1  0
 76 71  2  0
 77 78  1  0
 78 79  1  0
 79 80  2  0
 81 80  1  0
 81 85  1  0
 82 81  2  0
 83 78  2  0
 83 82  1  0
 84 83  1  0
 86 87  1  0
 87 90  1  0
 87 89  1  0
 88 86  2  0
 91 66  1  0
 92 91  1  0
 93 91  1  0
M  ISO  4   6 101   7 101  56 100  64 100
M  END
>  <TORSDO>  (72) 
F 27

>  <SCORE>  (72) 
-7.293

>  <name>  (72) 
71

>  <ligand_id>  (72) 
71

>  <original_smiles>  (72) 
[H]c1c([H])c([H])c2c(c1[H])C([H])([H])C([H])([H])C([H])([H])C2([H])N([H])C(=O)C1([H])N(C(=O)C([H])(N([H])C(=O)C([H])(N([H])C([H])([H])[H])C([H])([H])[H])C(C([H])([H])[H])(C([H])([H])[H])C([H])([H])[H])C([H])([H])c2c([H])c(OC([H])([H])C([H])([H])[N+]([H])([H])C([H])([H])C([H])([H])C([H])([H])OC([H])([H])C([H])([H])OC([H])([H])C([H])([H])N([H])C(=O)N3C([H])([H])C([H])([H])C([H])([H])C([H])(n4nc(-c5c([H])c([H])c(Oc6c([H])c([H])c(F)c([H])c6F)c([H])c5[H])c(C(=O)N([H])[H])c4N([H])[H])C3([H])[H])c([H])c([H])c2C1([H])[H]

>  <smiles>  (72) 
[H]c1c([H])c([H])c2c(c1[H])C([H])([H])C([H])([H])C([H])([H])C2([H])N([H])C(=O)C1([H])N(C(=O)C([H])(N([H])C(=O)C([H])(N([H])C([H])([H])[H])C([H])([H])[H])C(C([H])([H])[H])(C([H])([H])[H])C([H])([H])[H])C([H])([H])c2c([H])c(OC([H])([H])C([H])([H])[N+]([H])([H])C([H])([H])C([H])([H])C([H])([H])OC([H])([H])C([H])([H])OC([H])([H])C([H])([H])N([H])C(=O)N3C([H])([H])C([H])([H])C([H])([H])C([H])(n4nc(-c5c([H])c([H])c(Oc6c([H])c([H])c(F)c([H])c6F)c([H])c5[H])c(C(=O)N([H])[H])c4N([H])[H])C3([H])[H])c([H])c([H])c2C1([H])[H]

$$$$
72:0:0
     RDKit          3D

 90 97  0  0  1  0  0  0  0  0999 V2000
  -28.3870  -22.2950   22.1170 C   0  0  0  0  0  2  0  0  0  0  0  0
  -28.8130  -20.8340   21.8630 C   0  0  0  0  0  2  0  0  0  0  0  0
  -30.2630  -20.6700   21.3690 C   0  0  0  0  0  2  0  0  0  0  0  0
  -30.9460  -19.3370   21.7600 C   0  0  0  0  0  2  0  0  0  0  0  0
  -30.4500  -18.0670   21.0510 C   0  0  0  0  0  0  0  0  0  0  0  0
  -29.2920  -17.9550   20.6400 O   0  0  0  0  0  0  0  0  0  0  0  0
  -31.4630  -16.9260   20.9120 C   0  0  0  0  0  2  0  0  0  0  0  0
  -31.3190  -14.6300   19.9780 C   0  0  0  0  0  0  0  0  0  0  0  0
  -30.9090  -12.4070   18.9880 C   0  0  0  0  0  2  0  0  0  0  0  0
  -29.9430  -12.5250   17.7940 C   0  0  0  0  0  2  0  0  0  0  0  0
  -28.4800  -12.4560   18.2690 C   0  0  0  0  0  2  0  0  0  0  0  0
  -28.1900  -13.4160   19.4530 C   0  0  0  0  0  3  0  0  0  0  0  0
  -29.2650  -13.2760   20.5530 C   0  0  0  0  0  2  0  0  0  0  0  0
  -30.5860  -13.4850   19.9350 N   0  0  0  0  0  0  0  0  0  0  0  0
  -32.3740  -14.7760   19.3580 O   0  0  0  0  0  0  0  0  0  0  0  0
  -30.8140  -15.6240   20.7180 N   0  0  0  0  0  0  0  0  0  0  0  0
  -29.9200  -15.4800   21.1620 H   0  0  0  0  0  0  0  0  0  0  0  0
  -25.8690  -14.1570   20.2810 C   0  0  0  0  0  0  0  0  0  0  0  0
  -24.7700  -13.4440   20.6780 C   0  0  0  0  0  0  0  0  0  0  0  0
  -25.1410  -12.0670   20.5960 C   0  0  0  0  0  0  0  0  0  0  0  0
  -26.8450  -13.2170   19.9840 N   0  0  0  0  0  0  0  0  0  0  0  0
  -26.4110  -11.9540   20.2280 N   0  0  0  0  0  0  0  0  0  0  0  0
  -24.3440  -10.8490   20.7920 C   0  0  0  0  0  0  0  0  0  0  0  0
  -24.7180   -9.8640   21.7320 C   0  0  0  0  0  3  0  0  0  0  0  0
  -23.9260   -8.7100   21.9140 C   0  0  0  0  0  3  0  0  0  0  0  0
  -22.7440   -8.5340   21.1560 C   0  0  0  0  0  0  0  0  0  0  0  0
  -22.3870   -9.5080   20.2050 C   0  0  0  0  0  3  0  0  0  0  0  0
  -23.1800  -10.6520   20.0210 C   0  0  0  0  0  3  0  0  0  0  0  0
  -21.9260   -7.4340   21.2470 O   0  0  0  0  0  0  0  0  0  0  0  0
  -21.7770   -6.7440   22.4220 C   0  0  0  0  0  0  0  0  0  0  0  0
  -21.3100   -7.3680   23.6000 C   0  0  0  0  0  3  0  0  0  0  0  0
  -21.1060   -6.6060   24.7670 C   0  0  0  0  0  3  0  0  0  0  0  0
  -21.3590   -5.2210   24.7580 C   0  0  0  0  0  0  0  0  0  0  0  0
  -21.8180   -4.5970   23.5850 C   0  0  0  0  0  3  0  0  0  0  0  0
  -22.0240   -5.3560   22.4210 C   0  0  0  0  0  0  0  0  0  0  0  0
  -22.4460   -4.7460   21.2870 F   0  0  0  0  0  0  0  0  0  0  0  0
  -21.1540   -4.4870   25.8770 F   0  0  0  0  0  0  0  0  0  0  0  0
  -23.4200  -14.0020   21.0270 C   0  0  0  0  0  0  0  0  0  0  0  0
  -22.6950  -13.3380   21.9220 N   0  0  0  0  0  0  0  0  0  0  0  0
  -23.0190  -15.0590   20.5430 O   0  0  0  0  0  0  0  0  0  0  0  0
  -23.0330  -12.4810   22.3360 H   0  0  0  0  0  0  0  0  0  0  0  0
  -21.7910  -13.6930   22.1980 H   0  0  0  0  0  0  0  0  0  0  0  0
  -26.1160  -15.5190   20.1310 N   0  0  0  0  0  0  0  0  0  0  0  0
  -25.4080  -16.2230   20.3100 H   0  0  0  0  0  0  0  0  0  0  0  0
  -27.0000  -15.9170   19.8380 H   0  0  0  0  0  0  0  0  0  0  0  0
  -28.4460  -23.2310   20.8880 C   0  0  0  0  0  2  0  0  0  0  0  0
  -26.8820  -24.9850   21.9010 C   0  0  0  0  0  1  0  0  0  0  0  0
  -28.2350  -24.7370   21.2040 C   0  0  0  0  0  3  0  0  0  0  0  0
  -28.4270  -25.5890   19.9160 C   0  0  0  0  0  2  0  0  0  0  0  0
  -28.4180  -27.0100   20.1270 O   0  0  0  0  0  0  0  0  0  0  0  0
  -24.5920  -31.9920   23.4170 C   0  0  0  0  0  0  0  0  0  0  0  0
  -27.2240  -27.7030   20.1220 C   0  0  0  0  0  0  0  0  0  0  0  0
  -23.3720  -30.6490   21.7360 C   0  0  0  0  0  3  0  0  0  0  0  0
  -24.8170  -29.1860   20.2280 C   0  0  0  0  0  0  0  0  0  0  0  0
  -25.8920  -31.0370   21.5180 C   0  0  0  0  0  2  0  0  0  0  0  0
  -25.9780  -29.6960   20.8190 C   0  0  0  0  0  0  0  0  0  0  0  0
  -27.1830  -28.9640   20.7590 C   0  0  0  0  0  3  0  0  0  0  0  0
  -26.0410  -27.2120   19.5180 C   0  0  0  0  0  3  0  0  0  0  0  0
  -24.8430  -27.9450   19.5730 C   0  0  0  0  0  3  0  0  0  0  0  0
  -23.5670  -30.0290   20.3270 C   0  0  0  0  0  2  0  0  0  0  0  0
  -24.6380  -31.2370   22.2830 N   0  0  0  0  0  0  0  0  0  0  0  0
  -23.5160  -32.2350   23.9820 O   0  0  0  0  0  0  0  0  0  0  0  0
  -22.7430  -29.5820   22.6610 C   0  0  0  0  0  0  0  0  0  0  0  0
  -21.4300  -29.3540   22.4990 N   0  0  0  0  0  0  0  0  0  0  0  0
  -23.4320  -28.9660   23.4770 O   0  0  0  0  0  0  0  0  0  0  0  0
  -20.9360  -29.9070   21.8150 H   0  0  0  0  0  0  0  0  0  0  0  0
  -18.1000  -27.9900   22.8510 C   0  0  0  0  0  0  0  0  0  0  0  0
  -20.6300  -28.3710   23.2290 C   0  0  0  0  0  3  0  0  0  0  0  0
  -20.8270  -26.9510   22.6510 C   0  0  0  0  0  2  0  0  0  0  0  0
  -19.7830  -26.5810   21.5910 C   0  0  0  0  0  2  0  0  0  0  0  0
  -18.3700  -26.6540   22.1780 C   0  0  0  0  0  2  0  0  0  0  0  0
  -19.1620  -28.8030   23.3300 C   0  0  0  0  0  0  0  0  0  0  0  0
  -18.8580  -30.0500   23.9150 C   0  0  0  0  0  3  0  0  0  0  0  0
  -17.5250  -30.4870   24.0290 C   0  0  0  0  0  3  0  0  0  0  0  0
  -16.4760  -29.6720   23.5690 C   0  0  0  0  0  3  0  0  0  0  0  0
  -16.7650  -28.4250   22.9860 C   0  0  0  0  0  3  0  0  0  0  0  0
  -25.8820  -32.6050   24.0450 C   0  0  0  0  0  3  0  0  0  0  0  0
  -25.6010  -34.0120   24.3530 N   0  0  0  0  0  0  0  0  0  0  0  0
  -25.9670  -35.0450   23.5830 C   0  0  0  0  0  0  0  0  0  0  0  0
  -26.6490  -34.9110   22.5620 O   0  0  0  0  0  0  0  0  0  0  0  0
  -25.0060  -34.1930   25.1490 H   0  0  0  0  0  0  0  0  0  0  0  0
  -24.2760  -36.8610   23.1800 C   0  0  0  0  0  1  0  0  0  0  0  0
  -25.5010  -36.4490   24.0130 C   0  0  0  0  0  3  0  0  0  0  0  0
  -27.6410  -37.3040   24.8570 C   0  0  0  0  0  1  0  0  0  0  0  0
  -26.5550  -37.4810   23.8960 N   0  0  0  0  0  0  0  0  0  0  0  0
  -26.1650  -38.4100   24.0280 H   0  0  0  0  0  0  0  0  0  0  0  0
  -26.3700  -31.8390   25.3350 C   0  0  1  0  0  0  0  0  0  0  0  0
  -25.2570  -31.6200   26.3880 C   0  0  0  0  0  1  0  0  0  0  0  0
  -26.9450  -30.4530   24.9610 C   0  0  0  0  0  1  0  0  0  0  0  0
  -27.5190  -32.6260   26.0100 C   0  0  0  0  0  1  0  0  0  0  0  0
  2  1  1  0
  3  4  1  0
  3  2  1  0
  5  4  1  0
  6  5  2  0
  7  5  1  0
  8 16  1  0
  9 14  1  0
 10 11  1  0
 10  9  1  0
 12 11  1  0
 12 21  1  0
 12 13  1  0
 14  8  1  0
 14 13  1  0
 15  8  2  0
 16  7  1  0
 16 17  1  0
 18 19  2  0
 19 38  1  0
 20 19  1  0
 20 23  1  0
 21 22  1  0
 21 18  1  0
 22 20  2  0
 23 24  1  0
 24 25  2  0
 26 29  1  0
 26 25  1  0
 27 26  2  0
 28 27  1  0
 28 23  2  0
 29 30  1  0
 30 31  1  0
 31 32  2  0
 33 32  1  0
 33 37  1  0
 34 33  2  0
 35 30  2  0
 35 34  1  0
 36 35  1  0
 38 39  1  0
 39 42  1  0
 39 41  1  0
 40 38  2  0
 43 18  1  0
 43 44  1  0
 45 43  1  0
 46 48  1  0
 46  1  1  0
 48 47  1  0
 49 50  1  0
 49 48  1  0
 51 62  2  0
 52 50  1  0
 52 57  1  0
 53 61  1  0
 53 63  1  0
 54 60  1  0
 54 56  1  0
 55 61  1  0
 56 55  1  0
 57 56  2  0
 58 59  1  0
 58 52  2  0
 59 54  2  0
 60 53  1  0
 61 51  1  0
 63 65  2  0
 64 63  1  0
 66 64  1  0
 67 76  2  0
 67 72  1  0
 68 64  1  0
 68 72  1  0
 69 68  1  0
 70 71  1  0
 70 69  1  0
 71 67  1  0
 72 73  2  0
 73 74  1  0
 75 74  2  0
 76 75  1  0
 77 51  1  0
 77 78  1  0
 77 87  1  0
 78 81  1  0
 79 83  1  0
 79 78  1  0
 80 79  2  0
 83 82  1  0
 85 83  1  0
 85 86  1  0
 85 84  1  0
 87 90  1  1
 87 88  1  0
 89 87  1  0
M  ISO  4   8 100  16 100  49 101  50 101
M  END
>  <TORSDO>  (73) 
F 24

>  <SCORE>  (73) 
-11.632

>  <name>  (73) 
72

>  <ligand_id>  (73) 
72

>  <original_smiles>  (73) 
[H]c1c([H])c([H])c2c(c1[H])C([H])([H])C([H])([H])C([H])([H])C2([H])N([H])C(=O)C1([H])N(C(=O)C([H])(N([H])C(=O)C([H])(N([H])C([H])([H])[H])C([H])([H])[H])C(C([H])([H])[H])(C([H])([H])[H])C([H])([H])[H])C([H])([H])c2c([H])c(OC([H])([H])C([H])(C([H])([H])[H])C([H])([H])C([H])([H])C([H])([H])C([H])([H])C([H])([H])C(=O)C([H])([H])N([H])C(=O)N3C([H])([H])C([H])([H])C([H])([H])C([H])(n4nc(-c5c([H])c([H])c(Oc6c([H])c([H])c(F)c([H])c6F)c([H])c5[H])c(C(=O)N([H])[H])c4N([H])[H])C3([H])[H])c([H])c([H])c2C1([H])[H]

>  <smiles>  (73) 
[H]c1c([H])c([H])c2c(c1[H])C([H])([H])C([H])([H])C([H])([H])C2([H])N([H])C(=O)C1([H])N(C(=O)C([H])(N([H])C(=O)C([H])(N([H])C([H])([H])[H])C([H])([H])[H])C(C([H])([H])[H])(C([H])([H])[H])C([H])([H])[H])C([H])([H])c2c([H])c(OC([H])([H])C([H])(C([H])([H])[H])C([H])([H])C([H])([H])C([H])([H])C([H])([H])C([H])([H])C(=O)C([H])([H])N([H])C(=O)N3C([H])([H])C([H])([H])C([H])([H])C([H])(n4nc(-c5c([H])c([H])c(Oc6c([H])c([H])c(F)c([H])c6F)c([H])c5[H])c(C(=O)N([H])[H])c4N([H])[H])C3([H])[H])c([H])c([H])c2C1([H])[H]

$$$$
73:0:0
     RDKit          3D

 94102  0  0  1  0  0  0  0  0999 V2000
  -29.3690  -21.2570   18.6520 C   0  0  0  0  0  0  0  0  0  0  0  0
  -28.9270  -22.4820   20.8090 C   0  0  0  0  0  2  0  0  0  0  0  0
  -28.8930  -23.7230   18.5730 C   0  0  0  0  0  2  0  0  0  0  0  0
  -29.6440  -21.2070   20.1620 C   0  0  0  0  0  3  0  0  0  0  0  0
  -29.7360  -22.5780   17.9450 C   0  0  0  0  0  3  0  0  0  0  0  0
  -29.0980  -23.9070   20.0950 C   0  0  0  0  0  3  0  0  0  0  0  0
  -28.8490  -20.3250   18.0340 O   0  0  0  0  0  0  0  0  0  0  0  0
  -32.0870  -21.6730   17.3250 C   0  0  0  0  0  1  0  0  0  0  0  0
  -31.2770  -22.8460   17.9220 C   0  0  0  0  0  3  0  0  0  0  0  0
  -31.3010  -24.2650   15.7400 C   0  0  0  0  0  1  0  0  0  0  0  0
  -31.6770  -24.1710   17.2270 C   0  0  0  0  0  2  0  0  0  0  0  0
  -29.4170  -19.7790   20.8740 C   0  0  0  0  0  2  0  0  0  0  0  0
  -29.8170  -18.3800   20.1930 C   0  0  0  0  0  2  0  0  0  0  0  0
  -30.1850  -17.1500   21.1460 C   0  0  0  0  0  2  0  0  0  0  0  0
  -30.6150  -14.6560   20.4270 C   0  0  0  0  0  0  0  0  0  0  0  0
  -30.4020  -12.4210   19.3440 C   0  0  0  0  0  2  0  0  0  0  0  0
  -29.4620  -12.5300   18.1230 C   0  0  0  0  0  2  0  0  0  0  0  0
  -27.9890  -12.3680   18.5480 C   0  0  0  0  0  2  0  0  0  0  0  0
  -27.6210  -13.2480   19.7720 C   0  0  0  0  0  3  0  0  0  0  0  0
  -28.6710  -13.1080   20.8950 C   0  0  0  0  0  2  0  0  0  0  0  0
  -29.9800  -13.4470   20.3170 N   0  0  0  0  0  0  0  0  0  0  0  0
  -31.7970  -14.7920   20.1010 O   0  0  0  0  0  0  0  0  0  0  0  0
  -29.8320  -15.7370   20.7460 N   0  0  0  0  0  0  0  0  0  0  0  0
  -28.8650  -15.4910   20.8920 H   0  0  0  0  0  0  0  0  0  0  0  0
  -25.2240  -13.8630   20.4630 C   0  0  0  0  0  0  0  0  0  0  0  0
  -24.1510  -13.0960   20.8310 C   0  0  0  0  0  0  0  0  0  0  0  0
  -24.6110  -11.7440   20.8200 C   0  0  0  0  0  0  0  0  0  0  0  0
  -26.2680  -12.9780   20.2500 N   0  0  0  0  0  0  0  0  0  0  0  0
  -25.9040  -11.6980   20.5250 N   0  0  0  0  0  0  0  0  0  0  0  0
  -23.8790  -10.4840   21.0140 C   0  0  0  0  0  0  0  0  0  0  0  0
  -24.3050   -9.5230   21.9570 C   0  0  0  0  0  3  0  0  0  0  0  0
  -23.5750   -8.3270   22.1380 C   0  0  0  0  0  3  0  0  0  0  0  0
  -22.4070   -8.0870   21.3780 C   0  0  0  0  0  0  0  0  0  0  0  0
  -22.0010   -9.0380   20.4250 C   0  0  0  0  0  3  0  0  0  0  0  0
  -22.7300  -10.2240   20.2410 C   0  0  0  0  0  3  0  0  0  0  0  0
  -21.6490   -6.9450   21.4680 O   0  0  0  0  0  0  0  0  0  0  0  0
  -21.5980   -6.2060   22.6240 C   0  0  0  0  0  0  0  0  0  0  0  0
  -21.1770   -6.7660   23.8490 C   0  0  0  0  0  3  0  0  0  0  0  0
  -21.0730   -5.9540   24.9960 C   0  0  0  0  0  3  0  0  0  0  0  0
  -21.3780   -4.5820   24.9180 C   0  0  0  0  0  0  0  0  0  0  0  0
  -21.7920   -4.0210   23.6960 C   0  0  0  0  0  3  0  0  0  0  0  0
  -21.8980   -4.8310   22.5520 C   0  0  0  0  0  0  0  0  0  0  0  0
  -22.2760   -4.2800   21.3730 F   0  0  0  0  0  0  0  0  0  0  0  0
  -21.2710   -3.7990   26.0170 F   0  0  0  0  0  0  0  0  0  0  0  0
  -22.7530  -13.5790   21.0840 C   0  0  0  0  0  0  0  0  0  0  0  0
  -22.0140  -12.8900   21.9480 N   0  0  0  0  0  0  0  0  0  0  0  0
  -22.3220  -14.6020   20.5520 O   0  0  0  0  0  0  0  0  0  0  0  0
  -22.3770  -12.0620   22.3990 H   0  0  0  0  0  0  0  0  0  0  0  0
  -21.0750  -13.1930   22.1620 H   0  0  0  0  0  0  0  0  0  0  0  0
  -25.3950  -15.2300   20.2730 N   0  0  0  0  0  0  0  0  0  0  0  0
  -24.6280  -15.8870   20.3540 H   0  0  0  0  0  0  0  0  0  0  0  0
  -26.2430  -15.6590   19.9210 H   0  0  0  0  0  0  0  0  0  0  0  0
  -28.1730  -25.0850   20.6570 C   0  0  0  0  0  2  0  0  0  0  0  0
  -28.3660  -26.4810   20.1970 O   0  0  0  0  0  0  0  0  0  0  0  0
  -24.6010  -31.8580   23.2260 C   0  0  0  0  0  0  0  0  0  0  0  0
  -27.2400  -27.3190   20.1780 C   0  0  0  0  0  0  0  0  0  0  0  0
  -23.4050  -30.4560   21.5820 C   0  0  0  0  0  3  0  0  0  0  0  0
  -24.8650  -28.9100   20.1610 C   0  0  0  0  0  0  0  0  0  0  0  0
  -25.9440  -30.7870   21.4040 C   0  0  0  0  0  2  0  0  0  0  0  0
  -26.0290  -29.4090   20.7590 C   0  0  0  0  0  0  0  0  0  0  0  0
  -27.2210  -28.6250   20.7570 C   0  0  0  0  0  3  0  0  0  0  0  0
  -26.0580  -26.8750   19.5490 C   0  0  0  0  0  3  0  0  0  0  0  0
  -24.8800  -27.6480   19.5480 C   0  0  0  0  0  3  0  0  0  0  0  0
  -23.6240  -29.7780   20.2040 C   0  0  0  0  0  2  0  0  0  0  0  0
  -24.6690  -31.0510   22.1290 N   0  0  0  0  0  0  0  0  0  0  0  0
  -23.5160  -32.1300   23.7590 O   0  0  0  0  0  0  0  0  0  0  0  0
  -22.7440  -29.4390   22.5420 C   0  0  0  0  0  0  0  0  0  0  0  0
  -21.4180  -29.2630   22.4170 N   0  0  0  0  0  0  0  0  0  0  0  0
  -23.4240  -28.8110   23.3570 O   0  0  0  0  0  0  0  0  0  0  0  0
  -20.9300  -29.8220   21.7310 H   0  0  0  0  0  0  0  0  0  0  0  0
  -18.0380  -28.0750   22.9240 C   0  0  0  0  0  0  0  0  0  0  0  0
  -20.5980  -28.3240   23.1860 C   0  0  0  0  0  3  0  0  0  0  0  0
  -20.6930  -26.8940   22.6060 C   0  0  0  0  0  2  0  0  0  0  0  0
  -19.5880  -26.5790   21.5950 C   0  0  0  0  0  2  0  0  0  0  0  0
  -18.2070  -26.7280   22.2420 C   0  0  0  0  0  2  0  0  0  0  0  0
  -19.1610  -28.8320   23.3530 C   0  0  0  0  0  0  0  0  0  0  0  0
  -18.9480  -30.0930   23.9480 C   0  0  0  0  0  3  0  0  0  0  0  0
  -17.6460  -30.5990   24.1180 C   0  0  0  0  0  3  0  0  0  0  0  0
  -16.5370  -29.8380   23.7070 C   0  0  0  0  0  3  0  0  0  0  0  0
  -16.7340  -28.5780   23.1140 C   0  0  0  0  0  3  0  0  0  0  0  0
  -25.8810  -32.4960   23.8510 C   0  0  0  0  0  3  0  0  0  0  0  0
  -25.5650  -33.8910   24.1850 N   0  0  0  0  0  0  0  0  0  0  0  0
  -25.8910  -34.9480   23.4290 C   0  0  0  0  0  0  0  0  0  0  0  0
  -26.5610  -34.8510   22.3970 O   0  0  0  0  0  0  0  0  0  0  0  0
  -24.9750  -34.0430   24.9910 H   0  0  0  0  0  0  0  0  0  0  0  0
  -24.1570  -36.7330   23.0830 C   0  0  0  0  0  1  0  0  0  0  0  0
  -25.4000  -36.3330   23.8920 C   0  0  0  0  0  3  0  0  0  0  0  0
  -27.5330  -37.2220   24.7220 C   0  0  0  0  0  1  0  0  0  0  0  0
  -26.4290  -37.3910   23.7810 N   0  0  0  0  0  0  0  0  0  0  0  0
  -26.0200  -38.3090   23.9330 H   0  0  0  0  0  0  0  0  0  0  0  0
  -26.3980  -31.7250   25.1260 C   0  0  1  0  0  0  0  0  0  0  0  0
  -25.3050  -31.4790   26.1930 C   0  0  0  0  0  1  0  0  0  0  0  0
  -26.9880  -30.3510   24.7300 C   0  0  0  0  0  1  0  0  0  0  0  0
  -27.5490  -32.5200   25.7880 C   0  0  0  0  0  1  0  0  0  0  0  0
  1  4  1  0
  3  6  1  0
  4  2  1  0
  4 12  1  0
  5  9  1  0
  5  3  1  0
  5  1  1  0
  6 53  1  0
  6  2  1  0
  7  1  2  0
  9  8  1  0
 10 11  1  0
 11  9  1  0
 13 12  1  0
 13 14  1  0
 15 23  1  0
 16 21  1  0
 17 18  1  0
 17 16  1  0
 19 18  1  0
 19 28  1  0
 19 20  1  0
 21 15  1  0
 21 20  1  0
 22 15  2  0
 23 24  1  0
 23 14  1  0
 25 26  2  0
 26 45  1  0
 27 26  1  0
 27 30  1  0
 28 25  1  0
 28 29  1  0
 29 27  2  0
 30 31  1  0
 31 32  2  0
 33 36  1  0
 33 32  1  0
 34 33  2  0
 35 34  1  0
 35 30  2  0
 36 37  1  0
 37 38  1  0
 38 39  2  0
 40 39  1  0
 40 44  1  0
 41 40  2  0
 42 37  2  0
 42 41  1  0
 43 42  1  0
 45 46  1  0
 46 49  1  0
 46 48  1  0
 47 45  2  0
 50 51  1  0
 50 25  1  0
 52 50  1  0
 54 53  1  0
 55 66  2  0
 56 54  1  0
 56 61  1  0
 57 65  1  0
 57 67  1  0
 58 64  1  0
 58 60  1  0
 59 65  1  0
 60 59  1  0
 61 60  2  0
 62 56  2  0
 63 62  1  0
 63 58  2  0
 64 57  1  0
 65 55  1  0
 67 69  2  0
 68 67  1  0
 70 68  1  0
 71 80  2  0
 71 76  1  0
 72 68  1  0
 72 76  1  0
 73 72  1  0
 74 75  1  0
 74 73  1  0
 75 71  1  0
 76 77  2  0
 77 78  1  0
 79 78  2  0
 80 79  1  0
 81 55  1  0
 81 82  1  0
 81 91  1  0
 82 85  1  0
 83 87  1  0
 83 82  1  0
 84 83  2  0
 87 86  1  0
 89 87  1  0
 89 90  1  0
 89 88  1  0
 91 94  1  1
 91 92  1  0
 93 91  1  0
M  ISO  4  15 100  23 100  53 101  54 101
M  END
>  <TORSDO>  (74) 
F 22

>  <SCORE>  (74) 
-13.083

>  <name>  (74) 
73

>  <ligand_id>  (74) 
73

>  <original_smiles>  (74) 
[H]c1c([H])c([H])c2c(c1[H])C([H])([H])C([H])([H])C([H])([H])C2([H])N([H])C(=O)C1([H])N(C(=O)C([H])(N([H])C(=O)C([H])(N([H])C([H])([H])[H])C([H])([H])[H])C(C([H])([H])[H])(C([H])([H])[H])C([H])([H])[H])C([H])([H])c2c([H])c(OC([H])([H])C3([H])C([H])([H])C([H])(C([H])([H])C([H])([H])C([H])([H])N([H])C(=O)N4C([H])([H])C([H])([H])C([H])([H])C([H])(n5nc(-c6c([H])c([H])c(Oc7c([H])c([H])c(F)c([H])c7F)c([H])c6[H])c(C(=O)N([H])[H])c5N([H])[H])C4([H])[H])C(=O)C([H])(C([H])(C([H])([H])[H])C([H])([H])C([H])([H])[H])C3([H])[H])c([H])c([H])c2C1([H])[H]

>  <smiles>  (74) 
[H]c1c([H])c([H])c2c(c1[H])C([H])([H])C([H])([H])C([H])([H])C2([H])N([H])C(=O)C1([H])N(C(=O)C([H])(N([H])C(=O)C([H])(N([H])C([H])([H])[H])C([H])([H])[H])C(C([H])([H])[H])(C([H])([H])[H])C([H])([H])[H])C([H])([H])c2c([H])c(OC([H])([H])C3([H])C([H])([H])C([H])(C([H])([H])C([H])([H])C([H])([H])N([H])C(=O)N4C([H])([H])C([H])([H])C([H])([H])C([H])(n5nc(-c6c([H])c([H])c(Oc7c([H])c([H])c(F)c([H])c7F)c([H])c6[H])c(C(=O)N([H])[H])c5N([H])[H])C4([H])[H])C(=O)C([H])(C([H])(C([H])([H])[H])C([H])([H])C([H])([H])[H])C3([H])[H])c([H])c([H])c2C1([H])[H]

$$$$
74:0:0
     RDKit          3D

 93100  0  0  1  0  0  0  0  0999 V2000
  -28.9630  -22.5160   20.5460 C   0  0  0  0  0  3  0  0  0  0  0  0
  -29.0560  -21.2540   19.9630 C   0  0  0  0  0  0  0  0  0  0  0  0
  -28.4490  -23.8520   19.9590 C   0  0  0  0  0  0  0  0  0  0  0  0
  -28.1530  -23.9710   18.7660 O   0  0  0  0  0  0  0  0  0  0  0  0
  -28.2410  -25.1420   20.8650 C   0  0  0  0  0  2  0  0  0  0  0  0
  -28.3580  -26.4810   20.2180 O   0  0  0  0  0  0  0  0  0  0  0  0
  -24.6140  -31.8840   23.2600 C   0  0  0  0  0  0  0  0  0  0  0  0
  -27.2380  -27.3230   20.2240 C   0  0  0  0  0  0  0  0  0  0  0  0
  -23.4140  -30.4830   21.6180 C   0  0  0  0  0  3  0  0  0  0  0  0
  -24.8700  -28.9270   20.2000 C   0  0  0  0  0  0  0  0  0  0  0  0
  -25.9520  -30.8070   21.4360 C   0  0  0  0  0  2  0  0  0  0  0  0
  -26.0380  -29.4260   20.7950 C   0  0  0  0  0  0  0  0  0  0  0  0
  -27.2290  -28.6370   20.7900 C   0  0  0  0  0  3  0  0  0  0  0  0
  -26.0500  -26.8710   19.6150 C   0  0  0  0  0  3  0  0  0  0  0  0
  -24.8790  -27.6570   19.6000 C   0  0  0  0  0  3  0  0  0  0  0  0
  -23.6330  -29.8010   20.2410 C   0  0  0  0  0  2  0  0  0  0  0  0
  -24.6790  -31.0760   22.1620 N   0  0  0  0  0  0  0  0  0  0  0  0
  -23.5300  -32.1610   23.7930 O   0  0  0  0  0  0  0  0  0  0  0  0
  -22.7510  -29.4690   22.5800 C   0  0  0  0  0  0  0  0  0  0  0  0
  -21.4260  -29.2880   22.4470 N   0  0  0  0  0  0  0  0  0  0  0  0
  -23.4280  -28.8450   23.4020 O   0  0  0  0  0  0  0  0  0  0  0  0
  -20.9400  -29.8420   21.7570 H   0  0  0  0  0  0  0  0  0  0  0  0
  -18.0500  -28.0860   22.9370 C   0  0  0  0  0  0  0  0  0  0  0  0
  -20.6060  -28.3500   23.2160 C   0  0  0  0  0  3  0  0  0  0  0  0
  -20.7130  -26.9180   22.6430 C   0  0  0  0  0  2  0  0  0  0  0  0
  -19.6150  -26.5920   21.6250 C   0  0  0  0  0  2  0  0  0  0  0  0
  -18.2310  -26.7360   22.2630 C   0  0  0  0  0  2  0  0  0  0  0  0
  -19.1650  -28.8510   23.3700 C   0  0  0  0  0  0  0  0  0  0  0  0
  -18.9410  -30.1140   23.9600 C   0  0  0  0  0  3  0  0  0  0  0  0
  -17.6350  -30.6120   24.1200 C   0  0  0  0  0  3  0  0  0  0  0  0
  -16.5330  -29.8450   23.7040 C   0  0  0  0  0  3  0  0  0  0  0  0
  -16.7410  -28.5840   23.1180 C   0  0  0  0  0  3  0  0  0  0  0  0
  -25.8940  -32.5190   23.8860 C   0  0  0  0  0  3  0  0  0  0  0  0
  -26.4010  -31.7570   25.1710 C   0  0  1  0  0  0  0  0  0  0  0  0
  -25.3010  -31.5290   26.2350 C   0  0  0  0  0  1  0  0  0  0  0  0
  -26.9840  -30.3740   24.7940 C   0  0  0  0  0  1  0  0  0  0  0  0
  -27.5500  -32.5530   25.8350 C   0  0  0  0  0  1  0  0  0  0  0  0
  -25.5860  -33.9210   24.2050 N   0  0  0  0  0  0  0  0  0  0  0  0
  -25.9230  -34.9680   23.4400 C   0  0  0  0  0  0  0  0  0  0  0  0
  -26.5950  -34.8560   22.4120 O   0  0  0  0  0  0  0  0  0  0  0  0
  -24.9910  -34.0810   25.0040 H   0  0  0  0  0  0  0  0  0  0  0  0
  -24.2030  -36.7650   23.0680 C   0  0  0  0  0  1  0  0  0  0  0  0
  -25.4380  -36.3600   23.8890 C   0  0  0  0  0  3  0  0  0  0  0  0
  -27.5690  -37.2440   24.7280 C   0  0  0  0  0  1  0  0  0  0  0  0
  -26.4740  -37.4090   23.7760 N   0  0  0  0  0  0  0  0  0  0  0  0
  -26.0700  -38.3310   23.9150 H   0  0  0  0  0  0  0  0  0  0  0  0
  -29.7280  -19.9880   20.6540 C   0  0  0  0  0  2  0  0  0  0  0  0
  -29.2230  -18.4700   20.4190 C   0  0  0  0  0  3  0  0  0  0  0  0
  -30.2440  -17.2790   20.7880 C   0  0  0  0  0  3  0  0  0  0  0  0
  -30.5800  -14.7150   20.4070 C   0  0  0  0  0  0  0  0  0  0  0  0
  -30.3730  -12.4740   19.3370 C   0  0  0  0  0  2  0  0  0  0  0  0
  -29.4220  -12.5770   18.1260 C   0  0  0  0  0  2  0  0  0  0  0  0
  -27.9560  -12.3960   18.5680 C   0  0  0  0  0  2  0  0  0  0  0  0
  -27.5930  -13.2560   19.8060 C   0  0  0  0  0  3  0  0  0  0  0  0
  -28.6610  -13.1370   20.9150 C   0  0  0  0  0  2  0  0  0  0  0  0
  -29.9520  -13.4970   20.3170 N   0  0  0  0  0  0  0  0  0  0  0  0
  -31.7610  -14.8360   20.0720 O   0  0  0  0  0  0  0  0  0  0  0  0
  -29.8080  -15.8260   20.6820 N   0  0  0  0  0  0  0  0  0  0  0  0
  -28.8390  -15.6360   20.8870 H   0  0  0  0  0  0  0  0  0  0  0  0
  -25.2010  -13.8210   20.5450 C   0  0  0  0  0  0  0  0  0  0  0  0
  -24.1460  -13.0330   20.9190 C   0  0  0  0  0  0  0  0  0  0  0  0
  -24.6260  -11.6870   20.8840 C   0  0  0  0  0  0  0  0  0  0  0  0
  -26.2530  -12.9540   20.3030 N   0  0  0  0  0  0  0  0  0  0  0  0
  -25.9140  -11.6670   20.5700 N   0  0  0  0  0  0  0  0  0  0  0  0
  -23.9150  -10.4170   21.0750 C   0  0  0  0  0  0  0  0  0  0  0  0
  -24.3620   -9.4540   22.0070 C   0  0  0  0  0  3  0  0  0  0  0  0
  -23.6510   -8.2470   22.1850 C   0  0  0  0  0  3  0  0  0  0  0  0
  -22.4800   -7.9950   21.4320 C   0  0  0  0  0  0  0  0  0  0  0  0
  -22.0540   -8.9460   20.4890 C   0  0  0  0  0  3  0  0  0  0  0  0
  -22.7650  -10.1440   20.3090 C   0  0  0  0  0  3  0  0  0  0  0  0
  -21.7410   -6.8410   21.5210 O   0  0  0  0  0  0  0  0  0  0  0  0
  -21.6980   -6.1000   22.6740 C   0  0  0  0  0  0  0  0  0  0  0  0
  -21.2460   -6.6470   23.8950 C   0  0  0  0  0  3  0  0  0  0  0  0
  -21.1530   -5.8310   25.0410 C   0  0  0  0  0  3  0  0  0  0  0  0
  -21.5000   -4.4690   24.9660 C   0  0  0  0  0  0  0  0  0  0  0  0
  -21.9450   -3.9210   23.7500 C   0  0  0  0  0  3  0  0  0  0  0  0
  -22.0400   -4.7340   22.6060 C   0  0  0  0  0  0  0  0  0  0  0  0
  -22.4490   -4.1960   21.4320 F   0  0  0  0  0  0  0  0  0  0  0  0
  -21.4040   -3.6830   26.0640 F   0  0  0  0  0  0  0  0  0  0  0  0
  -22.7430  -13.4930   21.1950 C   0  0  0  0  0  0  0  0  0  0  0  0
  -22.0260  -12.7860   22.0610 N   0  0  0  0  0  0  0  0  0  0  0  0
  -22.2920  -14.5130   20.6780 O   0  0  0  0  0  0  0  0  0  0  0  0
  -22.4040  -11.9590   22.5010 H   0  0  0  0  0  0  0  0  0  0  0  0
  -21.0860  -13.0750   22.2900 H   0  0  0  0  0  0  0  0  0  0  0  0
  -25.3450  -15.1940   20.3670 N   0  0  0  0  0  0  0  0  0  0  0  0
  -24.5670  -15.8330   20.4790 H   0  0  0  0  0  0  0  0  0  0  0  0
  -26.1790  -15.6430   20.0120 H   0  0  0  0  0  0  0  0  0  0  0  0
  -28.5950  -20.9700   18.5350 C   0  0  0  0  0  2  0  0  0  0  0  0
  -27.1050  -20.5860   18.4610 C   0  0  0  0  0  2  0  0  0  0  0  0
  -26.6750  -20.2840   17.0850 N   0  0  0  0  0  4  0  0  0  0  0  0
  -26.8130  -21.0780   16.4860 H   0  0  0  0  0  0  0  0  0  0  0  0
  -25.6960  -20.0550   17.0750 H   0  0  0  0  0  0  0  0  0  0  0  0
  -27.1820  -19.5030   16.7090 H   0  0  0  0  0  0  0  0  0  0  0  0
  2  1  2  0
  2 47  1  0
  3  1  1  0
  3  5  1  0
  4  3  2  0
  6  8  1  0
  6  5  1  0
  7 18  2  0
  8 13  1  0
  9 17  1  0
  9 19  1  0
 10 16  1  0
 10 12  1  0
 11 17  1  0
 12 11  1  0
 13 12  2  0
 14  8  2  0
 15 14  1  0
 15 10  2  0
 16  9  1  0
 17  7  1  0
 19 21  2  0
 20 19  1  0
 22 20  1  0
 23 32  2  0
 23 28  1  0
 24 20  1  0
 24 28  1  0
 25 24  1  0
 26 27  1  0
 26 25  1  0
 27 23  1  0
 28 29  2  0
 29 30  1  0
 31 30  2  0
 32 31  1  0
 33  7  1  0
 33 38  1  0
 33 34  1  0
 34 37  1  1
 34 35  1  0
 36 34  1  0
 38 41  1  0
 39 43  1  0
 39 38  1  0
 40 39  2  0
 43 42  1  0
 45 43  1  0
 45 46  1  0
 45 44  1  0
 48 47  1  0
 48 49  2  0
 50 58  1  0
 51 56  1  0
 52 53  1  0
 52 51  1  0
 54 53  1  0
 54 63  1  0
 54 55  1  0
 56 50  1  0
 56 55  1  0
 57 50  2  0
 58 49  1  0
 58 59  1  0
 60 61  2  0
 61 80  1  0
 62 61  1  0
 62 65  1  0
 63 60  1  0
 63 64  1  0
 64 62  2  0
 65 66  1  0
 66 67  2  0
 68 71  1  0
 68 67  1  0
 69 68  2  0
 70 69  1  0
 70 65  2  0
 71 72  1  0
 72 73  1  0
 73 74  2  0
 75 74  1  0
 75 79  1  0
 76 75  2  0
 77 72  2  0
 77 76  1  0
 78 77  1  0
 80 81  1  0
 81 84  1  0
 81 83  1  0
 82 80  2  0
 85 86  1  0
 85 60  1  0
 87 85  1  0
 88  2  1  0
 89 88  1  0
 90 89  1  0
 91 90  1  0
 92 90  1  0
 93 90  1  0
M  ISO  4   5 101   6 101  50 100  58 100
M  END
>  <TORSDO>  (75) 
F 24

>  <SCORE>  (75) 
-12.607

>  <name>  (75) 
74

>  <ligand_id>  (75) 
74

>  <original_smiles>  (75) 
[H]C(C(=O)C([H])([H])Oc1c([H])c([H])c2c(c1[H])C([H])([H])N(C(=O)C([H])(N([H])C(=O)C([H])(N([H])C([H])([H])[H])C([H])([H])[H])C(C([H])([H])[H])(C([H])([H])[H])C([H])([H])[H])C([H])(C(=O)N([H])C1([H])c3c([H])c([H])c([H])c([H])c3C([H])([H])C([H])([H])C1([H])[H])C2([H])[H])=C(C([H])([H])C([H])([H])C([H])([H])N([H])C(=O)N1C([H])([H])C([H])([H])C([H])([H])C([H])(n2nc(-c3c([H])c([H])c(Oc4c([H])c([H])c(F)c([H])c4F)c([H])c3[H])c(C(=O)N([H])[H])c2N([H])[H])C1([H])[H])C([H])([H])C([H])([H])[N+]([H])([H])[H]

>  <smiles>  (75) 
[H]C(C(=O)C([H])([H])Oc1c([H])c([H])c2c(c1[H])C([H])([H])N(C(=O)C([H])(N([H])C(=O)C([H])(N([H])C([H])([H])[H])C([H])([H])[H])C(C([H])([H])[H])(C([H])([H])[H])C([H])([H])[H])C([H])(C(=O)N([H])C1([H])c3c([H])c([H])c([H])c([H])c3C([H])([H])C([H])([H])C1([H])[H])C2([H])[H])=C(C([H])([H])C([H])([H])C([H])([H])N([H])C(=O)N1C([H])([H])C([H])([H])C([H])([H])C([H])(n2nc(-c3c([H])c([H])c(Oc4c([H])c([H])c(F)c([H])c4F)c([H])c3[H])c(C(=O)N([H])[H])c2N([H])[H])C1([H])[H])C([H])([H])C([H])([H])[N+]([H])([H])[H]

$$$$
75:0:0
     RDKit          3D

 93102  0  0  1  0  0  0  0  0999 V2000
  -27.1980  -19.9100   20.2090 C   0  0  0  0  0  2  0  0  0  0  0  0
  -27.1800  -21.2410   20.1030 C   0  0  0  0  0  3  0  0  0  0  0  0
  -30.3190  -20.9600   19.2850 C   0  0  0  0  0  2  0  0  0  0  0  0
  -28.6660  -19.9000   20.6670 C   0  0  0  0  0  3  0  0  0  0  0  0
  -28.4980  -21.4780   20.7970 C   0  0  0  0  0  3  0  0  0  0  0  0
  -29.5940  -22.2350   20.0340 C   0  0  0  0  0  3  0  0  0  0  0  0
  -29.7060  -19.4460   19.5770 C   0  0  1  0  0  0  0  0  0  0  0  0
  -25.8820  -23.2870   20.8410 C   0  0  0  0  0  1  0  0  0  0  0  0
  -26.0990  -22.2380   19.7440 C   0  0  0  0  0  2  0  0  0  0  0  0
  -29.9400  -18.7300   17.0620 C   0  0  0  0  0  1  0  0  0  0  0  0
  -29.0090  -18.9780   18.2630 C   0  0  0  0  0  2  0  0  0  0  0  0
  -29.3350  -23.7780   19.3620 C   0  0  0  0  0  3  0  0  0  0  0  0
  -28.5390  -25.1170   20.0150 C   0  0  0  0  0  3  0  0  0  0  0  0
  -28.5980  -26.6080   19.5610 O   0  0  0  0  0  0  0  0  0  0  0  0
  -24.6330  -31.7420   23.0930 C   0  0  0  0  0  0  0  0  0  0  0  0
  -27.4730  -27.5020   19.6460 C   0  0  0  0  0  0  0  0  0  0  0  0
  -23.5140  -30.4440   21.3220 C   0  0  0  0  0  3  0  0  0  0  0  0
  -25.0470  -29.0960   19.7610 C   0  0  0  0  0  0  0  0  0  0  0  0
  -26.0460  -30.8740   21.1920 C   0  0  0  0  0  2  0  0  0  0  0  0
  -26.1990  -29.5560   20.4130 C   0  0  0  0  0  0  0  0  0  0  0  0
  -27.4150  -28.7800   20.3330 C   0  0  0  0  0  3  0  0  0  0  0  0
  -26.2900  -27.1350   18.9720 C   0  0  0  0  0  3  0  0  0  0  0  0
  -25.1040  -27.9010   19.0260 C   0  0  0  0  0  3  0  0  0  0  0  0
  -23.7710  -29.9130   19.8860 C   0  0  0  0  0  2  0  0  0  0  0  0
  -24.7500  -31.0380   21.9260 N   0  0  0  0  0  0  0  0  0  0  0  0
  -23.5330  -31.9100   23.6420 O   0  0  0  0  0  0  0  0  0  0  0  0
  -22.8950  -29.3120   22.1800 C   0  0  0  0  0  0  0  0  0  0  0  0
  -21.5720  -29.1010   22.0570 N   0  0  0  0  0  0  0  0  0  0  0  0
  -23.6080  -28.6310   22.9210 O   0  0  0  0  0  0  0  0  0  0  0  0
  -21.0510  -29.7080   21.4400 H   0  0  0  0  0  0  0  0  0  0  0  0
  -18.2450  -27.7450   22.5180 C   0  0  0  0  0  0  0  0  0  0  0  0
  -20.8040  -28.0530   22.7340 C   0  0  0  0  0  3  0  0  0  0  0  0
  -20.9240  -26.7030   21.9890 C   0  0  0  0  0  2  0  0  0  0  0  0
  -19.7960  -26.4700   20.9770 C   0  0  0  0  0  2  0  0  0  0  0  0
  -18.4350  -26.4940   21.6770 C   0  0  0  0  0  2  0  0  0  0  0  0
  -19.3570  -28.4860   23.0010 C   0  0  0  0  0  0  0  0  0  0  0  0
  -19.1230  -29.6580   23.7500 C   0  0  0  0  0  3  0  0  0  0  0  0
  -17.8110  -30.0930   24.0190 C   0  0  0  0  0  3  0  0  0  0  0  0
  -16.7150  -29.3490   23.5500 C   0  0  0  0  0  3  0  0  0  0  0  0
  -16.9330  -28.1760   22.8040 C   0  0  0  0  0  3  0  0  0  0  0  0
  -25.8730  -32.3860   23.7850 C   0  0  0  0  0  3  0  0  0  0  0  0
  -25.5010  -33.7500   24.1940 N   0  0  0  0  0  0  0  0  0  0  0  0
  -25.8090  -34.8630   23.5140 C   0  0  0  0  0  0  0  0  0  0  0  0
  -26.5030  -34.8520   22.4950 O   0  0  0  0  0  0  0  0  0  0  0  0
  -24.8860  -33.8300   24.9900 H   0  0  0  0  0  0  0  0  0  0  0  0
  -24.0080  -36.6020   23.2590 C   0  0  0  0  0  1  0  0  0  0  0  0
  -25.2630  -36.2020   24.0500 C   0  0  0  0  0  3  0  0  0  0  0  0
  -27.3520  -37.1320   24.9490 C   0  0  0  0  0  1  0  0  0  0  0  0
  -26.2510  -37.3020   24.0040 N   0  0  0  0  0  0  0  0  0  0  0  0
  -25.8040  -38.1950   24.1930 H   0  0  0  0  0  0  0  0  0  0  0  0
  -26.3860  -31.5620   25.0300 C   0  0  1  0  0  0  0  0  0  0  0  0
  -25.2810  -31.2380   26.0620 C   0  0  0  0  0  1  0  0  0  0  0  0
  -27.0150  -30.2230   24.5810 C   0  0  0  0  0  1  0  0  0  0  0  0
  -27.5020  -32.3500   25.7550 C   0  0  0  0  0  1  0  0  0  0  0  0
  -30.6960  -18.1380   20.0160 C   0  0  0  0  0  2  0  0  0  0  0  0
  -31.0410  -15.4070   19.9420 C   0  0  0  0  0  0  0  0  0  0  0  0
  -30.8670  -13.0230   19.0930 C   0  0  0  0  0  2  0  0  0  0  0  0
  -29.9130  -12.9460   17.8790 C   0  0  0  0  0  2  0  0  0  0  0  0
  -28.4540  -12.7810   18.3440 C   0  0  0  0  0  2  0  0  0  0  0  0
  -28.0830  -13.7620   19.4870 C   0  0  0  0  0  3  0  0  0  0  0  0
  -29.1550  -13.7960   20.5960 C   0  0  0  0  0  2  0  0  0  0  0  0
  -30.4200  -14.1600   19.9500 N   0  0  0  0  0  0  0  0  0  0  0  0
  -32.2410  -15.4380   19.6490 O   0  0  0  0  0  0  0  0  0  0  0  0
  -30.2880  -16.6080   20.0660 N   0  0  0  0  0  0  0  0  0  0  0  0
  -29.3090  -16.4520   20.2500 H   0  0  0  0  0  0  0  0  0  0  0  0
  -25.7580  -14.4240   20.3220 C   0  0  0  0  0  0  0  0  0  0  0  0
  -24.6700  -13.6860   20.7010 C   0  0  0  0  0  0  0  0  0  0  0  0
  -25.0700  -12.3170   20.6100 C   0  0  0  0  0  0  0  0  0  0  0  0
  -26.7500  -13.5080   20.0180 N   0  0  0  0  0  0  0  0  0  0  0  0
  -26.3480  -12.2330   20.2590 N   0  0  0  0  0  0  0  0  0  0  0  0
  -24.2910  -11.0830   20.7800 C   0  0  0  0  0  0  0  0  0  0  0  0
  -24.6660  -10.0960   21.7170 C   0  0  0  0  0  3  0  0  0  0  0  0
  -23.8890   -8.9280   21.8750 C   0  0  0  0  0  3  0  0  0  0  0  0
  -22.7220   -8.7410   21.0980 C   0  0  0  0  0  0  0  0  0  0  0  0
  -22.3660   -9.7160   20.1500 C   0  0  0  0  0  3  0  0  0  0  0  0
  -23.1430  -10.8750   19.9890 C   0  0  0  0  0  3  0  0  0  0  0  0
  -21.9200   -7.6270   21.1650 O   0  0  0  0  0  0  0  0  0  0  0  0
  -21.7770   -6.9130   22.3270 C   0  0  0  0  0  0  0  0  0  0  0  0
  -21.2790   -7.5030   23.5090 C   0  0  0  0  0  3  0  0  0  0  0  0
  -21.0840   -6.7150   24.6610 C   0  0  0  0  0  3  0  0  0  0  0  0
  -21.3770   -5.3390   24.6310 C   0  0  0  0  0  0  0  0  0  0  0  0
  -21.8680   -4.7480   23.4550 C   0  0  0  0  0  3  0  0  0  0  0  0
  -22.0650   -5.5320   22.3050 C   0  0  0  0  0  0  0  0  0  0  0  0
  -22.5180   -4.9540   21.1660 F   0  0  0  0  0  0  0  0  0  0  0  0
  -21.1820   -4.5800   25.7350 F   0  0  0  0  0  0  0  0  0  0  0  0
  -23.3060  -14.2170   21.0290 C   0  0  0  0  0  0  0  0  0  0  0  0
  -22.5730  -13.5280   21.8960 N   0  0  0  0  0  0  0  0  0  0  0  0
  -22.9020  -15.2760   20.5510 O   0  0  0  0  0  0  0  0  0  0  0  0
  -22.9150  -12.6710   22.3030 H   0  0  0  0  0  0  0  0  0  0  0  0
  -21.6580  -13.8650   22.1590 H   0  0  0  0  0  0  0  0  0  0  0  0
  -25.9780  -15.7910   20.1830 N   0  0  0  0  0  0  0  0  0  0  0  0
  -25.2380  -16.4680   20.3320 H   0  0  0  0  0  0  0  0  0  0  0  0
  -26.8190  -16.2010   19.8010 H   0  0  0  0  0  0  0  0  0  0  0  0
  2  9  1  0
  2  1  1  0
  2  5  1  0
  3  7  1  0
  3  6  1  0
  4  1  1  0
  4  5  1  0
  6  5  1  0
  7 55  1  1
  7  4  1  0
  9  8  1  0
 10 11  1  0
 11  7  1  0
 12 13  2  0
 12  6  1  0
 14 16  1  0
 14 13  1  0
 15 26  2  0
 15 41  1  0
 16 21  1  0
 17 25  1  0
 17 27  1  0
 18 24  1  0
 18 20  1  0
 19 25  1  0
 20 19  1  0
 21 20  2  0
 22 23  1  0
 22 16  2  0
 23 18  2  0
 24 17  1  0
 25 15  1  0
 27 29  2  0
 28 27  1  0
 28 32  1  0
 30 28  1  0
 31 40  2  0
 31 36  1  0
 32 36  1  0
 33 32  1  0
 34 35  1  0
 34 33  1  0
 35 31  1  0
 36 37  2  0
 37 38  1  0
 39 38  2  0
 40 39  1  0
 41 42  1  0
 41 51  1  0
 42 45  1  0
 43 47  1  0
 43 42  1  0
 44 43  2  0
 46 47  1  0
 49 47  1  0
 49 50  1  0
 49 48  1  0
 51 54  1  1
 51 52  1  0
 53 51  1  0
 55 64  1  0
 56 62  1  0
 56 64  1  0
 57 62  1  0
 58 59  1  0
 58 57  1  0
 59 60  1  0
 60 69  1  0
 60 61  1  0
 62 61  1  0
 63 56  2  0
 64 65  1  0
 66 67  2  0
 67 86  1  0
 68 67  1  0
 68 71  1  0
 69 70  1  0
 69 66  1  0
 70 68  2  0
 71 72  1  0
 72 73  2  0
 74 77  1  0
 74 73  1  0
 75 74  2  0
 76 75  1  0
 76 71  2  0
 77 78  1  0
 78 79  1  0
 79 80  2  0
 81 80  1  0
 81 85  1  0
 82 81  2  0
 83 78  2  0
 83 82  1  0
 84 83  1  0
 86 87  1  0
 87 90  1  0
 87 89  1  0
 88 86  2  0
 91 66  1  0
 91 92  1  0
 93 91  1  0
M  ISO  4  13 101  14 101  56 100  64 100
M  END
>  <TORSDO>  (76) 
F 21

>  <SCORE>  (76) 
-12.278

>  <name>  (76) 
75

>  <ligand_id>  (76) 
75

>  <original_smiles>  (76) 
[H]C1=C(C([H])([H])C([H])([H])[H])C2([H])C1([H])C(C([H])([H])N([H])C(=O)N1C([H])([H])C([H])([H])C([H])([H])C([H])(n3nc(-c4c([H])c([H])c(Oc5c([H])c([H])c(F)c([H])c5F)c([H])c4[H])c(C(=O)N([H])[H])c3N([H])[H])C1([H])[H])(C([H])([H])C([H])([H])[H])C([H])([H])C2([H])C([H])([H])C([H])([H])Oc1c([H])c([H])c2c(c1[H])C([H])([H])N(C(=O)C([H])(N([H])C(=O)C([H])(N([H])C([H])([H])[H])C([H])([H])[H])C(C([H])([H])[H])(C([H])([H])[H])C([H])([H])[H])C([H])(C(=O)N([H])C1([H])c3c([H])c([H])c([H])c([H])c3C([H])([H])C([H])([H])C1([H])[H])C2([H])[H]

>  <smiles>  (76) 
[H]C1=C(C([H])([H])C([H])([H])[H])C2([H])C1([H])C(C([H])([H])N([H])C(=O)N1C([H])([H])C([H])([H])C([H])([H])C([H])(n3nc(-c4c([H])c([H])c(Oc5c([H])c([H])c(F)c([H])c5F)c([H])c4[H])c(C(=O)N([H])[H])c3N([H])[H])C1([H])[H])(C([H])([H])C([H])([H])[H])C([H])([H])C2([H])C([H])([H])C([H])([H])Oc1c([H])c([H])c2c(c1[H])C([H])([H])N(C(=O)C([H])(N([H])C(=O)C([H])(N([H])C([H])([H])[H])C([H])([H])[H])C(C([H])([H])[H])(C([H])([H])[H])C([H])([H])[H])C([H])(C(=O)N([H])C1([H])c3c([H])c([H])c([H])c([H])c3C([H])([H])C([H])([H])C1([H])[H])C2([H])[H]

$$$$
76:0:0
     RDKit          3D

 96105  0  0  1  0  0  0  0  0999 V2000
  -30.8570  -20.5820   23.8460 C   0  0  0  0  0  3  0  0  0  0  0  0
  -30.9850  -19.1790   23.8400 C   0  0  0  0  0  3  0  0  0  0  0  0
  -30.0540  -19.1110   21.5890 C   0  0  0  0  0  3  0  0  0  0  0  0
  -30.3440  -21.2620   22.7160 C   0  0  0  0  0  0  0  0  0  0  0  0
  -29.9290  -20.5120   21.5840 C   0  0  0  0  0  0  0  0  0  0  0  0
  -30.5890  -18.4460   22.7070 C   0  0  0  0  0  0  0  0  0  0  0  0
  -30.2370  -22.7480   22.7420 C   0  0  0  0  0  0  0  0  0  0  0  0
  -29.3650  -21.1810   20.3430 C   0  0  0  0  0  2  0  0  0  0  0  0
  -28.8580  -22.5990   20.6190 C   0  0  0  0  0  2  0  0  0  0  0  0
  -29.8870  -23.4330   21.4060 C   0  0  0  0  0  3  0  0  0  0  0  0
  -30.4380  -23.4180   23.7600 O   0  0  0  0  0  0  0  0  0  0  0  0
  -30.7770  -16.9480   22.6480 C   0  0  0  0  0  2  0  0  0  0  0  0
  -31.7840  -16.5720   21.5510 C   0  0  0  0  0  2  0  0  0  0  0  0
  -31.9480  -15.0600   21.3710 C   0  0  0  0  0  2  0  0  0  0  0  0
  -30.4330  -14.2170   19.5850 C   0  0  0  0  0  0  0  0  0  0  0  0
  -29.8150  -12.2000   18.3370 C   0  0  0  0  0  2  0  0  0  0  0  0
  -28.6830  -12.3490   17.3140 C   0  0  0  0  0  2  0  0  0  0  0  0
  -27.3190  -12.1530   17.9940 C   0  0  0  0  0  2  0  0  0  0  0  0
  -27.1560  -13.0410   19.2530 C   0  0  0  0  0  3  0  0  0  0  0  0
  -28.3760  -12.9200   20.1950 C   0  0  0  0  0  2  0  0  0  0  0  0
  -29.6110  -13.1590   19.4270 N   0  0  0  0  0  0  0  0  0  0  0  0
  -31.1060  -14.7180   18.6770 O   0  0  0  0  0  0  0  0  0  0  0  0
  -30.7270  -14.4260   20.8740 N   0  0  0  0  0  0  0  0  0  0  0  0
  -30.1850  -13.8910   21.5370 H   0  0  0  0  0  0  0  0  0  0  0  0
  -24.9030  -13.6040   20.3730 C   0  0  0  0  0  0  0  0  0  0  0  0
  -23.9150  -12.8090   20.8910 C   0  0  0  0  0  0  0  0  0  0  0  0
  -24.3720  -11.4640   20.7400 C   0  0  0  0  0  0  0  0  0  0  0  0
  -25.9020  -12.7420   19.9460 N   0  0  0  0  0  0  0  0  0  0  0  0
  -25.5920  -11.4470   20.2190 N   0  0  0  0  0  0  0  0  0  0  0  0
  -23.6940  -10.1880   21.0090 C   0  0  0  0  0  0  0  0  0  0  0  0
  -24.2300   -9.2430   21.9120 C   0  0  0  0  0  3  0  0  0  0  0  0
  -23.5500   -8.0320   22.1690 C   0  0  0  0  0  3  0  0  0  0  0  0
  -22.3210   -7.7580   21.5230 C   0  0  0  0  0  0  0  0  0  0  0  0
  -21.8040   -8.6920   20.6080 C   0  0  0  0  0  3  0  0  0  0  0  0
  -22.4830   -9.8940   20.3500 C   0  0  0  0  0  3  0  0  0  0  0  0
  -21.6040   -6.5970   21.6900 O   0  0  0  0  0  0  0  0  0  0  0  0
  -21.6120   -5.9110   22.8780 C   0  0  0  0  0  0  0  0  0  0  0  0
  -21.2060   -6.5130   24.0890 C   0  0  0  0  0  3  0  0  0  0  0  0
  -21.1630   -5.7520   25.2740 C   0  0  0  0  0  3  0  0  0  0  0  0
  -21.5170   -4.3900   25.2500 C   0  0  0  0  0  0  0  0  0  0  0  0
  -21.9160   -3.7870   24.0440 C   0  0  0  0  0  3  0  0  0  0  0  0
  -21.9610   -4.5460   22.8610 C   0  0  0  0  0  0  0  0  0  0  0  0
  -22.3260   -3.9560   21.6980 F   0  0  0  0  0  0  0  0  0  0  0  0
  -21.4690   -3.6560   26.3870 F   0  0  0  0  0  0  0  0  0  0  0  0
  -22.5810  -13.2620   21.4100 C   0  0  0  0  0  0  0  0  0  0  0  0
  -22.0280  -12.5490   22.3850 N   0  0  0  0  0  0  0  0  0  0  0  0
  -22.0430  -14.2830   20.9840 O   0  0  0  0  0  0  0  0  0  0  0  0
  -22.4800  -11.7230   22.7500 H   0  0  0  0  0  0  0  0  0  0  0  0
  -21.1400  -12.8340   22.7740 H   0  0  0  0  0  0  0  0  0  0  0  0
  -25.0280  -14.9810   20.2130 N   0  0  0  0  0  0  0  0  0  0  0  0
  -24.2890  -15.6260   20.4730 H   0  0  0  0  0  0  0  0  0  0  0  0
  -25.8210  -15.4380   19.7820 H   0  0  0  0  0  0  0  0  0  0  0  0
  -29.4010  -24.8910   21.5630 C   0  0  0  0  0  2  0  0  0  0  0  0
  -30.5240  -25.9450   21.4850 C   0  0  0  0  0  2  0  0  0  0  0  0
  -29.9600  -27.3520   21.2570 C   0  0  0  0  0  2  0  0  0  0  0  0
  -29.1780  -27.2980   20.0700 O   0  0  0  0  0  0  0  0  0  0  0  0
  -24.6170  -31.7630   23.2570 C   0  0  0  0  0  0  0  0  0  0  0  0
  -27.9440  -27.8930   20.1120 C   0  0  0  0  0  0  0  0  0  0  0  0
  -23.6690  -30.3070   21.4920 C   0  0  0  0  0  3  0  0  0  0  0  0
  -25.3680  -29.0400   20.0760 C   0  0  0  0  0  0  0  0  0  0  0  0
  -26.1270  -31.0010   21.4320 C   0  0  0  0  0  2  0  0  0  0  0  0
  -26.4140  -29.6860   20.7450 C   0  0  0  0  0  0  0  0  0  0  0  0
  -27.7040  -29.1190   20.7700 C   0  0  0  0  0  3  0  0  0  0  0  0
  -26.8850  -27.2510   19.4380 C   0  0  0  0  0  3  0  0  0  0  0  0
  -25.5950  -27.8140   19.4240 C   0  0  0  0  0  3  0  0  0  0  0  0
  -24.0230  -29.7280   20.0950 C   0  0  0  0  0  2  0  0  0  0  0  0
  -24.8180  -31.0360   22.1210 N   0  0  0  0  0  0  0  0  0  0  0  0
  -23.4890  -31.8700   23.7560 O   0  0  0  0  0  0  0  0  0  0  0  0
  -23.1140  -29.1650   22.3720 C   0  0  0  0  0  0  0  0  0  0  0  0
  -21.8450  -28.7960   22.1380 N   0  0  0  0  0  0  0  0  0  0  0  0
  -23.8230  -28.6140   23.2170 O   0  0  0  0  0  0  0  0  0  0  0  0
  -21.3280  -29.3030   21.4330 H   0  0  0  0  0  0  0  0  0  0  0  0
  -18.6670  -27.0910   22.3150 C   0  0  0  0  0  0  0  0  0  0  0  0
  -21.1220  -27.7220   22.8170 C   0  0  0  0  0  3  0  0  0  0  0  0
  -21.4910  -26.3420   22.2250 C   0  0  0  0  0  2  0  0  0  0  0  0
  -20.5420  -25.8900   21.1100 C   0  0  0  0  0  2  0  0  0  0  0  0
  -19.1040  -25.8060   21.6300 C   0  0  0  0  0  2  0  0  0  0  0  0
  -19.6150  -27.9980   22.8570 C   0  0  0  0  0  0  0  0  0  0  0  0
  -19.1580  -29.1940   23.4500 C   0  0  0  0  0  3  0  0  0  0  0  0
  -17.7830  -29.4900   23.5080 C   0  0  0  0  0  3  0  0  0  0  0  0
  -16.8480  -28.5810   22.9830 C   0  0  0  0  0  3  0  0  0  0  0  0
  -17.2890  -27.3830   22.3940 C   0  0  0  0  0  3  0  0  0  0  0  0
  -25.7900  -32.5130   23.9660 C   0  0  0  0  0  3  0  0  0  0  0  0
  -25.3360  -33.8830   24.2400 N   0  0  0  0  0  0  0  0  0  0  0  0
  -25.6480  -34.9480   23.4910 C   0  0  0  0  0  0  0  0  0  0  0  0
  -26.4180  -34.8900   22.5290 O   0  0  0  0  0  0  0  0  0  0  0  0
  -24.6610  -33.9960   24.9810 H   0  0  0  0  0  0  0  0  0  0  0  0
  -23.8240  -36.5830   22.9280 C   0  0  0  0  0  1  0  0  0  0  0  0
  -25.0030  -36.2950   23.8710 C   0  0  0  0  0  3  0  0  0  0  0  0
  -26.9630  -37.3590   24.8970 C   0  0  0  0  0  1  0  0  0  0  0  0
  -25.9530  -37.4290   23.8450 N   0  0  0  0  0  0  0  0  0  0  0  0
  -25.4610  -38.3130   23.9350 H   0  0  0  0  0  0  0  0  0  0  0  0
  -26.2680  -31.8060   25.2930 C   0  0  1  0  0  0  0  0  0  0  0  0
  -25.1130  -31.4480   26.2570 C   0  0  0  0  0  1  0  0  0  0  0  0
  -27.0350  -30.5020   24.9690 C   0  0  0  0  0  1  0  0  0  0  0  0
  -27.2540  -32.7250   26.0510 C   0  0  0  0  0  1  0  0  0  0  0  0
  2  1  1  0
  3  6  1  0
  4  7  1  0
  4  1  2  0
  5  3  2  0
  5  4  1  0
  6  2  2  0
  7 11  2  0
  8  9  1  0
  8  5  1  0
  9 10  1  0
 10 53  1  0
 10  7  1  0
 12  6  1  0
 13 12  1  0
 14 13  1  0
 15 23  1  0
 16 21  1  0
 17 18  1  0
 17 16  1  0
 19 18  1  0
 19 28  1  0
 19 20  1  0
 21 15  1  0
 21 20  1  0
 22 15  2  0
 23 14  1  0
 23 24  1  0
 25 26  2  0
 26 45  1  0
 27 26  1  0
 27 30  1  0
 28 29  1  0
 28 25  1  0
 29 27  2  0
 30 31  1  0
 31 32  2  0
 33 36  1  0
 33 32  1  0
 34 33  2  0
 35 34  1  0
 35 30  2  0
 36 37  1  0
 37 38  1  0
 38 39  2  0
 40 39  1  0
 40 44  1  0
 41 40  2  0
 42 37  2  0
 42 41  1  0
 43 42  1  0
 45 46  1  0
 46 48  1  0
 46 49  1  0
 47 45  2  0
 50 25  1  0
 50 51  1  0
 52 50  1  0
 54 53  1  0
 55 54  1  0
 56 58  1  0
 56 55  1  0
 57 68  2  0
 58 63  1  0
 59 67  1  0
 59 69  1  0
 60 66  1  0
 60 62  1  0
 61 67  1  0
 62 63  2  0
 62 61  1  0
 64 58  2  0
 65 64  1  0
 65 60  2  0
 66 59  1  0
 67 57  1  0
 69 71  2  0
 70 69  1  0
 72 70  1  0
 73 82  2  0
 73 78  1  0
 74 70  1  0
 74 78  1  0
 75 74  1  0
 76 77  1  0
 76 75  1  0
 77 73  1  0
 78 79  2  0
 79 80  1  0
 81 80  2  0
 82 81  1  0
 83 57  1  0
 83 84  1  0
 83 93  1  0
 84 87  1  0
 85 89  1  0
 85 84  1  0
 86 85  2  0
 89 88  1  0
 91 89  1  0
 91 92  1  0
 91 90  1  0
 93 96  1  1
 93 94  1  0
 95 93  1  0
M  ISO  4  15 100  23 100  55 101  56 101
M  END
>  <TORSDO>  (77) 
F 22

>  <SCORE>  (77) 
-9.603

>  <name>  (77) 
76

>  <ligand_id>  (77) 
76

>  <original_smiles>  (77) 
[H]c1c([H])c([H])c2c(c1[H])C([H])([H])C([H])([H])C([H])([H])C2([H])N([H])C(=O)C1([H])N(C(=O)C([H])(N([H])C(=O)C([H])(N([H])C([H])([H])[H])C([H])([H])[H])C(C([H])([H])[H])(C([H])([H])[H])C([H])([H])[H])C([H])([H])c2c([H])c(OC([H])([H])C([H])([H])C([H])([H])C3([H])C(=O)c4c([H])c([H])c(C([H])([H])C([H])([H])C([H])([H])N([H])C(=O)N5C([H])([H])C([H])([H])C([H])([H])C([H])(n6nc(-c7c([H])c([H])c(Oc8c([H])c([H])c(F)c([H])c8F)c([H])c7[H])c(C(=O)N([H])[H])c6N([H])[H])C5([H])[H])c([H])c4C([H])([H])C3([H])[H])c([H])c([H])c2C1([H])[H]

>  <smiles>  (77) 
[H]c1c([H])c([H])c2c(c1[H])C([H])([H])C([H])([H])C([H])([H])C2([H])N([H])C(=O)C1([H])N(C(=O)C([H])(N([H])C(=O)C([H])(N([H])C([H])([H])[H])C([H])([H])[H])C(C([H])([H])[H])(C([H])([H])[H])C([H])([H])[H])C([H])([H])c2c([H])c(OC([H])([H])C([H])([H])C([H])([H])C3([H])C(=O)c4c([H])c([H])c(C([H])([H])C([H])([H])C([H])([H])N([H])C(=O)N5C([H])([H])C([H])([H])C([H])([H])C([H])(n6nc(-c7c([H])c([H])c(Oc8c([H])c([H])c(F)c([H])c8F)c([H])c7[H])c(C(=O)N([H])[H])c6N([H])[H])C5([H])[H])c([H])c4C([H])([H])C3([H])[H])c([H])c([H])c2C1([H])[H]

$$$$
77:0:0
     RDKit          3D

 94102  0  0  1  0  0  0  0  0999 V2000
  -28.5890  -22.8860   21.5300 C   0  0  0  0  0  2  0  0  0  0  0  0
  -28.3280  -21.6870   20.5780 C   0  0  0  0  0  2  0  0  0  0  0  0
  -30.7360  -22.1350   20.0380 C   0  0  0  0  0  2  0  0  0  0  0  0
  -29.2580  -24.1260   20.8490 C   0  0  0  0  0  3  0  0  0  0  0  0
  -30.3070  -23.6260   19.8010 C   0  0  0  0  0  3  0  0  0  0  0  0
  -29.6000  -21.0570   19.9090 C   0  0  2  0  0  0  0  0  0  0  0  0
  -32.4370  -24.4120   18.5460 C   0  0  0  0  0  1  0  0  0  0  0  0
  -31.5310  -24.5710   19.7790 C   0  0  0  0  0  2  0  0  0  0  0  0
  -28.2110  -25.1620   20.2810 C   0  0  0  0  0  2  0  0  0  0  0  0
  -28.4660  -26.6050   20.3640 O   0  0  0  0  0  0  0  0  0  0  0  0
  -24.6010  -31.9060   23.2950 C   0  0  0  0  0  0  0  0  0  0  0  0
  -27.3310  -27.4180   20.2870 C   0  0  0  0  0  0  0  0  0  0  0  0
  -23.4420  -30.4880   21.6440 C   0  0  0  0  0  3  0  0  0  0  0  0
  -24.9380  -28.9680   20.2410 C   0  0  0  0  0  0  0  0  0  0  0  0
  -25.9770  -30.8540   21.4900 C   0  0  0  0  0  2  0  0  0  0  0  0
  -26.0890  -29.4820   20.8520 C   0  0  0  0  0  0  0  0  0  0  0  0
  -27.2910  -28.7180   20.8640 C   0  0  0  0  0  3  0  0  0  0  0  0
  -26.1520  -26.9490   19.6560 C   0  0  0  0  0  3  0  0  0  0  0  0
  -24.9680  -27.7040   19.6380 C   0  0  0  0  0  3  0  0  0  0  0  0
  -23.6800  -29.8110   20.2720 C   0  0  0  0  0  2  0  0  0  0  0  0
  -24.6930  -31.0980   22.2020 N   0  0  0  0  0  0  0  0  0  0  0  0
  -23.5060  -32.1720   23.8110 O   0  0  0  0  0  0  0  0  0  0  0  0
  -22.7810  -29.4610   22.5930 C   0  0  0  0  0  0  0  0  0  0  0  0
  -21.4590  -29.2650   22.4430 N   0  0  0  0  0  0  0  0  0  0  0  0
  -23.4550  -28.8410   23.4200 O   0  0  0  0  0  0  0  0  0  0  0  0
  -20.9750  -29.8130   21.7450 H   0  0  0  0  0  0  0  0  0  0  0  0
  -18.0800  -28.0800   22.9320 C   0  0  0  0  0  0  0  0  0  0  0  0
  -20.6380  -28.3240   23.2030 C   0  0  0  0  0  3  0  0  0  0  0  0
  -20.7350  -26.8990   22.6100 C   0  0  0  0  0  2  0  0  0  0  0  0
  -19.6300  -26.5940   21.5930 C   0  0  0  0  0  2  0  0  0  0  0  0
  -18.2480  -26.7400   22.2380 C   0  0  0  0  0  2  0  0  0  0  0  0
  -19.2010  -28.8330   23.3690 C   0  0  0  0  0  0  0  0  0  0  0  0
  -18.9880  -30.0920   23.9720 C   0  0  0  0  0  3  0  0  0  0  0  0
  -17.6860  -30.5960   24.1460 C   0  0  0  0  0  3  0  0  0  0  0  0
  -16.5780  -29.8390   23.7270 C   0  0  0  0  0  3  0  0  0  0  0  0
  -16.7750  -28.5840   23.1260 C   0  0  0  0  0  3  0  0  0  0  0  0
  -25.8640  -32.5580   23.9370 C   0  0  0  0  0  3  0  0  0  0  0  0
  -25.5360  -33.9600   24.2320 N   0  0  0  0  0  0  0  0  0  0  0  0
  -25.8830  -35.0020   23.4640 C   0  0  0  0  0  0  0  0  0  0  0  0
  -26.5820  -34.8830   22.4540 O   0  0  0  0  0  0  0  0  0  0  0  0
  -24.9160  -34.1220   25.0120 H   0  0  0  0  0  0  0  0  0  0  0  0
  -24.1700  -36.7890   23.0100 C   0  0  0  0  0  1  0  0  0  0  0  0
  -25.3730  -36.3940   23.8830 C   0  0  0  0  0  3  0  0  0  0  0  0
  -27.4640  -37.2930   24.8050 C   0  0  0  0  0  1  0  0  0  0  0  0
  -26.4070  -37.4500   23.8100 N   0  0  0  0  0  0  0  0  0  0  0  0
  -25.9910  -38.3680   23.9350 H   0  0  0  0  0  0  0  0  0  0  0  0
  -26.3530  -31.8170   25.2400 C   0  0  1  0  0  0  0  0  0  0  0  0
  -25.2310  -31.5800   26.2780 C   0  0  0  0  0  1  0  0  0  0  0  0
  -26.9680  -30.4420   24.8900 C   0  0  0  0  0  1  0  0  0  0  0  0
  -27.4730  -32.6410   25.9220 C   0  0  0  0  0  1  0  0  0  0  0  0
  -29.3700  -20.7690   18.3880 C   0  0  0  0  0  2  0  0  0  0  0  0
  -27.8930  -19.5800   16.6360 C   0  0  0  0  0  1  0  0  0  0  0  0
  -27.9540  -20.2880   17.9930 C   0  0  0  0  0  2  0  0  0  0  0  0
  -30.1300  -19.7310   20.6270 C   0  0  0  0  0  2  0  0  0  0  0  0
  -29.4950  -18.2980   20.4150 C   0  0  0  0  0  2  0  0  0  0  0  0
  -30.3910  -17.1550   21.0430 C   0  0  0  0  0  2  0  0  0  0  0  0
  -30.8110  -14.6930   20.4580 C   0  0  0  0  0  0  0  0  0  0  0  0
  -30.6090  -12.5080   19.3140 C   0  0  0  0  0  2  0  0  0  0  0  0
  -29.6730  -12.6830   18.0980 C   0  0  0  0  0  2  0  0  0  0  0  0
  -28.1940  -12.5380   18.5100 C   0  0  0  0  0  2  0  0  0  0  0  0
  -27.8370  -13.3660   19.7720 C   0  0  0  0  0  3  0  0  0  0  0  0
  -28.8780  -13.1400   20.8880 C   0  0  0  0  0  2  0  0  0  0  0  0
  -30.1920  -13.4840   20.3310 N   0  0  0  0  0  0  0  0  0  0  0  0
  -31.9850  -14.8640   20.1170 O   0  0  0  0  0  0  0  0  0  0  0  0
  -30.0010  -15.7350   20.8040 N   0  0  0  0  0  0  0  0  0  0  0  0
  -29.0350  -15.4970   20.9830 H   0  0  0  0  0  0  0  0  0  0  0  0
  -25.4320  -13.9790   20.4390 C   0  0  0  0  0  0  0  0  0  0  0  0
  -24.3590  -13.2070   20.7960 C   0  0  0  0  0  0  0  0  0  0  0  0
  -24.8250  -11.8560   20.7890 C   0  0  0  0  0  0  0  0  0  0  0  0
  -26.4800  -13.0930   20.2350 N   0  0  0  0  0  0  0  0  0  0  0  0
  -26.1190  -11.8140   20.5040 N   0  0  0  0  0  0  0  0  0  0  0  0
  -24.1000  -10.5930   20.9760 C   0  0  0  0  0  0  0  0  0  0  0  0
  -24.4980   -9.6520   21.9480 C   0  0  0  0  0  3  0  0  0  0  0  0
  -23.7740   -8.4520   22.1240 C   0  0  0  0  0  3  0  0  0  0  0  0
  -22.6390   -8.1870   21.3230 C   0  0  0  0  0  0  0  0  0  0  0  0
  -22.2600   -9.1200   20.3410 C   0  0  0  0  0  3  0  0  0  0  0  0
  -22.9840  -10.3100   20.1640 C   0  0  0  0  0  3  0  0  0  0  0  0
  -21.8880   -7.0400   21.4030 O   0  0  0  0  0  0  0  0  0  0  0  0
  -21.7660   -6.3440   22.5780 C   0  0  0  0  0  0  0  0  0  0  0  0
  -21.2040   -6.9250   23.7340 C   0  0  0  0  0  3  0  0  0  0  0  0
  -21.0320   -6.1500   24.9010 C   0  0  0  0  0  3  0  0  0  0  0  0
  -21.4150   -4.7960   24.9100 C   0  0  0  0  0  0  0  0  0  0  0  0
  -21.9680   -4.2130   23.7550 C   0  0  0  0  0  3  0  0  0  0  0  0
  -22.1410   -4.9850   22.5930 C   0  0  0  0  0  0  0  0  0  0  0  0
  -22.6570   -4.4130   21.4770 F   0  0  0  0  0  0  0  0  0  0  0  0
  -21.2440   -4.0500   26.0260 F   0  0  0  0  0  0  0  0  0  0  0  0
  -22.9580  -13.6840   21.0380 C   0  0  0  0  0  0  0  0  0  0  0  0
  -22.2160  -12.9890   21.8950 N   0  0  0  0  0  0  0  0  0  0  0  0
  -22.5260  -14.7040   20.5020 O   0  0  0  0  0  0  0  0  0  0  0  0
  -22.5760  -12.1620   22.3450 H   0  0  0  0  0  0  0  0  0  0  0  0
  -21.2730  -13.2900   22.1040 H   0  0  0  0  0  0  0  0  0  0  0  0
  -25.6010  -15.3480   20.2510 N   0  0  0  0  0  0  0  0  0  0  0  0
  -24.8300  -16.0020   20.3400 H   0  0  0  0  0  0  0  0  0  0  0  0
  -26.4500  -15.7810   19.9110 H   0  0  0  0  0  0  0  0  0  0  0  0
  2  1  1  0
  4  9  1  0
  4  1  1  0
  5  8  1  0
  5  3  1  0
  5  4  1  0
  6 51  1  6
  6  3  1  0
  6  2  1  0
  6 54  1  0
  7  8  1  0
  9 10  1  0
 11 22  2  0
 12 10  1  0
 12 17  1  0
 13 21  1  0
 13 23  1  0
 14 20  1  0
 14 16  1  0
 15 21  1  0
 16 17  2  0
 16 15  1  0
 18 12  2  0
 19 18  1  0
 19 14  2  0
 20 13  1  0
 21 11  1  0
 23 25  2  0
 24 23  1  0
 26 24  1  0
 27 36  2  0
 27 32  1  0
 28 24  1  0
 28 32  1  0
 29 28  1  0
 30 31  1  0
 30 29  1  0
 31 27  1  0
 32 33  2  0
 33 34  1  0
 35 34  2  0
 36 35  1  0
 37 11  1  0
 37 38  1  0
 37 47  1  0
 38 41  1  0
 39 43  1  0
 39 38  1  0
 40 39  2  0
 43 42  1  0
 45 43  1  0
 45 46  1  0
 45 44  1  0
 47 50  1  1
 47 48  1  0
 49 47  1  0
 52 53  1  0
 53 51  1  0
 55 54  1  0
 55 56  1  0
 57 65  1  0
 58 63  1  0
 59 60  1  0
 59 58  1  0
 61 60  1  0
 61 70  1  0
 61 62  1  0
 63 57  1  0
 63 62  1  0
 64 57  2  0
 65 66  1  0
 65 56  1  0
 67 68  2  0
 68 87  1  0
 69 68  1  0
 69 72  1  0
 70 67  1  0
 70 71  1  0
 71 69  2  0
 72 73  1  0
 73 74  2  0
 75 78  1  0
 75 74  1  0
 76 75  2  0
 77 76  1  0
 77 72  2  0
 78 79  1  0
 79 84  2  0
 79 80  1  0
 80 81  2  0
 81 82  1  0
 82 86  1  0
 83 82  2  0
 84 83  1  0
 85 84  1  0
 87 88  1  0
 88 91  1  0
 88 90  1  0
 89 87  2  0
 92 93  1  0
 92 67  1  0
 94 92  1  0
M  ISO  4   9 101  10 101  57 100  65 100
M  END
>  <TORSDO>  (78) 
F 23

>  <SCORE>  (78) 
-13.096

>  <name>  (78) 
77

>  <ligand_id>  (78) 
77

>  <original_smiles>  (78) 
[H]c1c([H])c([H])c2c(c1[H])C([H])([H])C([H])([H])C([H])([H])C2([H])N([H])C(=O)C1([H])N(C(=O)C([H])(N([H])C(=O)C([H])(N([H])C([H])([H])[H])C([H])([H])[H])C(C([H])([H])[H])(C([H])([H])[H])C([H])([H])[H])C([H])([H])c2c([H])c(OC([H])([H])C3([H])C([H])([H])C([H])([H])C(C([H])([H])C([H])([H])C([H])([H])[H])(C([H])([H])C([H])([H])C([H])([H])N([H])C(=O)N4C([H])([H])C([H])([H])C([H])([H])C([H])(n5nc(-c6c([H])c([H])c(Oc7c([H])c([H])c(F)c([H])c7F)c([H])c6[H])c(C(=O)N([H])[H])c5N([H])[H])C4([H])[H])C([H])([H])C3([H])C([H])([H])C([H])([H])[H])c([H])c([H])c2C1([H])[H]

>  <smiles>  (78) 
[H]c1c([H])c([H])c2c(c1[H])C([H])([H])C([H])([H])C([H])([H])C2([H])N([H])C(=O)C1([H])N(C(=O)C([H])(N([H])C(=O)C([H])(N([H])C([H])([H])[H])C([H])([H])[H])C(C([H])([H])[H])(C([H])([H])[H])C([H])([H])[H])C([H])([H])c2c([H])c(OC([H])([H])C3([H])C([H])([H])C([H])([H])C(C([H])([H])C([H])([H])C([H])([H])[H])(C([H])([H])C([H])([H])C([H])([H])N([H])C(=O)N4C([H])([H])C([H])([H])C([H])([H])C([H])(n5nc(-c6c([H])c([H])c(Oc7c([H])c([H])c(F)c([H])c7F)c([H])c6[H])c(C(=O)N([H])[H])c5N([H])[H])C4([H])[H])C([H])([H])C3([H])C([H])([H])C([H])([H])[H])c([H])c([H])c2C1([H])[H]

$$$$
78:0:0
     RDKit          3D

 93101  0  0  1  0  0  0  0  0999 V2000
  -28.4620  -23.9720   23.7630 C   0  0  0  0  0  2  0  0  0  0  0  0
  -29.7130  -23.0800   23.8590 C   0  0  0  0  0  2  0  0  0  0  0  0
  -28.6100  -25.0510   22.6810 C   0  0  0  0  0  2  0  0  0  0  0  0
  -30.2740  -23.6140   21.4570 C   0  0  0  0  0  2  0  0  0  0  0  0
  -30.1010  -22.4830   22.4910 C   0  0  0  0  0  3  0  0  0  0  0  0
  -28.9970  -24.4570   21.3070 C   0  0  0  0  0  3  0  0  0  0  0  0
  -31.3880  -21.6440   22.5690 C   0  0  0  0  0  2  0  0  0  0  0  0
  -31.2490  -20.3080   23.3290 C   0  0  0  0  0  2  0  0  0  0  0  0
  -31.9870  -19.1500   22.6390 C   0  0  0  0  0  2  0  0  0  0  0  0
  -31.1770  -18.5930   21.4610 C   0  0  0  0  0  2  0  0  0  0  0  0
  -31.7300  -17.2910   20.8680 C   0  0  0  0  0  2  0  0  0  0  0  0
  -30.8480  -16.8200   19.6970 C   0  0  0  0  0  2  0  0  0  0  0  0
  -30.9760  -14.3880   19.2170 C   0  0  0  0  0  0  0  0  0  0  0  0
  -30.5920  -12.0610   18.5080 C   0  0  0  0  0  2  0  0  0  0  0  0
  -29.5050  -12.0260   17.4140 C   0  0  0  0  0  2  0  0  0  0  0  0
  -28.1040  -11.9410   18.0490 C   0  0  0  0  0  2  0  0  0  0  0  0
  -27.8860  -13.0020   19.1610 C   0  0  0  0  0  3  0  0  0  0  0  0
  -29.0760  -13.0100   20.1490 C   0  0  0  0  0  2  0  0  0  0  0  0
  -30.3160  -13.2130   19.3760 N   0  0  0  0  0  0  0  0  0  0  0  0
  -31.9590  -14.5230   18.4850 O   0  0  0  0  0  0  0  0  0  0  0  0
  -30.4340  -15.4310   19.8500 N   0  0  0  0  0  0  0  0  0  0  0  0
  -29.5960  -15.2540   20.3840 H   0  0  0  0  0  0  0  0  0  0  0  0
  -25.7000  -13.7290   20.3130 C   0  0  0  0  0  0  0  0  0  0  0  0
  -24.6490  -13.0100   20.8140 C   0  0  0  0  0  0  0  0  0  0  0  0
  -24.9830  -11.6330   20.6170 C   0  0  0  0  0  0  0  0  0  0  0  0
  -26.6140  -12.7940   19.8500 N   0  0  0  0  0  0  0  0  0  0  0  0
  -26.1930  -11.5240   20.0860 N   0  0  0  0  0  0  0  0  0  0  0  0
  -24.1980  -10.4150   20.8500 C   0  0  0  0  0  0  0  0  0  0  0  0
  -24.6270   -9.4220   21.7590 C   0  0  0  0  0  3  0  0  0  0  0  0
  -23.8460   -8.2690   21.9810 C   0  0  0  0  0  3  0  0  0  0  0  0
  -22.6190   -8.0990   21.2940 C   0  0  0  0  0  0  0  0  0  0  0  0
  -22.2080   -9.0800   20.3750 C   0  0  0  0  0  3  0  0  0  0  0  0
  -22.9880  -10.2250   20.1520 C   0  0  0  0  0  3  0  0  0  0  0  0
  -21.8070   -6.9990   21.4270 O   0  0  0  0  0  0  0  0  0  0  0  0
  -21.6970   -6.3260   22.6160 C   0  0  0  0  0  0  0  0  0  0  0  0
  -21.2440   -6.9600   23.7930 C   0  0  0  0  0  3  0  0  0  0  0  0
  -21.0780   -6.2140   24.9770 C   0  0  0  0  0  3  0  0  0  0  0  0
  -21.3560   -4.8340   24.9850 C   0  0  0  0  0  0  0  0  0  0  0  0
  -21.8030   -4.1990   23.8140 C   0  0  0  0  0  3  0  0  0  0  0  0
  -21.9700   -4.9420   22.6320 C   0  0  0  0  0  0  0  0  0  0  0  0
  -22.3800   -4.3220   21.5000 F   0  0  0  0  0  0  0  0  0  0  0  0
  -21.1900   -4.1150   26.1200 F   0  0  0  0  0  0  0  0  0  0  0  0
  -23.3630  -13.5610   21.3580 C   0  0  0  0  0  0  0  0  0  0  0  0
  -22.7440  -12.8550   22.2970 N   0  0  0  0  0  0  0  0  0  0  0  0
  -22.9240  -14.6490   20.9840 O   0  0  0  0  0  0  0  0  0  0  0  0
  -23.1160  -11.9730   22.6160 H   0  0  0  0  0  0  0  0  0  0  0  0
  -21.8860  -13.2000   22.7030 H   0  0  0  0  0  0  0  0  0  0  0  0
  -25.9490  -15.0930   20.1950 N   0  0  0  0  0  0  0  0  0  0  0  0
  -25.2720  -15.7950   20.4770 H   0  0  0  0  0  0  0  0  0  0  0  0
  -26.7740  -15.4900   19.7630 H   0  0  0  0  0  0  0  0  0  0  0  0
  -29.1740  -25.5550   20.2360 C   0  0  0  0  0  2  0  0  0  0  0  0
  -27.8290  -26.0320   19.6680 C   0  0  0  0  0  2  0  0  0  0  0  0
  -27.9320  -27.3720   19.1820 O   0  0  0  0  0  0  0  0  0  0  0  0
  -24.8880  -32.1760   23.4220 C   0  0  0  0  0  0  0  0  0  0  0  0
  -26.8110  -28.1310   19.4220 C   0  0  0  0  0  0  0  0  0  0  0  0
  -23.3770  -31.0120   21.8500 C   0  0  0  0  0  3  0  0  0  0  0  0
  -24.5130  -29.6480   20.0210 C   0  0  0  0  0  0  0  0  0  0  0  0
  -25.8440  -31.3550   21.2740 C   0  0  0  0  0  2  0  0  0  0  0  0
  -25.7690  -30.0790   20.4650 C   0  0  0  0  0  0  0  0  0  0  0  0
  -26.9240  -29.3250   20.1640 C   0  0  0  0  0  3  0  0  0  0  0  0
  -25.5430  -27.7180   18.9610 C   0  0  0  0  0  3  0  0  0  0  0  0
  -24.3920  -28.4650   19.2710 C   0  0  0  0  0  3  0  0  0  0  0  0
  -23.3270  -30.5090   20.3820 C   0  0  0  0  0  2  0  0  0  0  0  0
  -24.7300  -31.5200   22.2380 N   0  0  0  0  0  0  0  0  0  0  0  0
  -23.9230  -32.3970   24.1660 O   0  0  0  0  0  0  0  0  0  0  0  0
  -22.8570  -29.8860   22.7760 C   0  0  0  0  0  0  0  0  0  0  0  0
  -21.5540  -29.5840   22.6720 N   0  0  0  0  0  0  0  0  0  0  0  0
  -23.6210  -29.2900   23.5400 O   0  0  0  0  0  0  0  0  0  0  0  0
  -20.9950  -30.1240   22.0240 H   0  0  0  0  0  0  0  0  0  0  0  0
  -18.3970  -27.8540   22.9740 C   0  0  0  0  0  0  0  0  0  0  0  0
  -20.8500  -28.5380   23.4150 C   0  0  0  0  0  3  0  0  0  0  0  0
  -21.2310  -27.1340   22.8940 C   0  0  0  0  0  2  0  0  0  0  0  0
  -20.2730  -26.6110   21.8180 C   0  0  0  0  0  2  0  0  0  0  0  0
  -18.8430  -26.5380   22.3610 C   0  0  0  0  0  2  0  0  0  0  0  0
  -19.3400  -28.8010   23.4540 C   0  0  0  0  0  0  0  0  0  0  0  0
  -18.8750  -30.0240   23.9830 C   0  0  0  0  0  3  0  0  0  0  0  0
  -17.4980  -30.3030   24.0450 C   0  0  0  0  0  3  0  0  0  0  0  0
  -16.5680  -29.3560   23.5830 C   0  0  0  0  0  3  0  0  0  0  0  0
  -17.0170  -28.1340   23.0500 C   0  0  0  0  0  3  0  0  0  0  0  0
  -26.2820  -32.7000   23.8860 C   0  0  0  0  0  3  0  0  0  0  0  0
  -26.1090  -34.0950   24.3140 N   0  0  0  0  0  0  0  0  0  0  0  0
  -26.4420  -35.1630   23.5770 C   0  0  0  0  0  0  0  0  0  0  0  0
  -27.0040  -35.0740   22.4800 O   0  0  0  0  0  0  0  0  0  0  0  0
  -25.5970  -34.2420   25.1710 H   0  0  0  0  0  0  0  0  0  0  0  0
  -24.8310  -37.0910   23.4680 C   0  0  0  0  0  1  0  0  0  0  0  0
  -26.1000  -36.5530   24.1470 C   0  0  0  0  0  3  0  0  0  0  0  0
  -28.3560  -37.2360   24.8380 C   0  0  0  0  0  1  0  0  0  0  0  0
  -27.1970  -37.5360   24.0010 N   0  0  0  0  0  0  0  0  0  0  0  0
  -26.8750  -38.4720   24.2330 H   0  0  0  0  0  0  0  0  0  0  0  0
  -26.9210  -31.8360   25.0410 C   0  0  1  0  0  0  0  0  0  0  0  0
  -25.9590  -31.5710   26.2240 C   0  0  0  0  0  1  0  0  0  0  0  0
  -27.3900  -30.4670   24.4960 C   0  0  0  0  0  1  0  0  0  0  0  0
  -28.1720  -32.5510   25.5990 C   0  0  0  0  0  1  0  0  0  0  0  0
  1  2  1  0
  3  1  1  0
  4  5  1  0
  5  7  1  0
  5  2  1  0
  6 51  1  0
  6  4  1  0
  6  3  1  0
  7  8  1  0
  9  8  1  0
 10  9  1  0
 11 10  1  0
 12 21  1  0
 12 11  1  0
 13 19  1  0
 13 21  1  0
 14 19  1  0
 15 16  1  0
 15 14  1  0
 17 16  1  0
 17 26  1  0
 17 18  1  0
 19 18  1  0
 20 13  2  0
 21 22  1  0
 23 24  2  0
 24 43  1  0
 25 24  1  0
 25 28  1  0
 26 27  1  0
 26 23  1  0
 27 25  2  0
 28 29  1  0
 29 30  2  0
 31 34  1  0
 31 30  1  0
 32 31  2  0
 33 32  1  0
 33 28  2  0
 34 35  1  0
 35 40  2  0
 35 36  1  0
 36 37  2  0
 37 38  1  0
 38 42  1  0
 39 38  2  0
 40 39  1  0
 41 40  1  0
 43 44  1  0
 44 46  1  0
 44 47  1  0
 45 43  2  0
 48 23  1  0
 48 49  1  0
 50 48  1  0
 52 51  1  0
 53 55  1  0
 53 52  1  0
 54 65  2  0
 55 60  1  0
 56 64  1  0
 56 66  1  0
 57 63  1  0
 57 59  1  0
 58 64  1  0
 59 58  1  0
 60 59  2  0
 61 62  1  0
 61 55  2  0
 62 57  2  0
 63 56  1  0
 64 54  1  0
 66 68  2  0
 67 66  1  0
 69 67  1  0
 70 79  2  0
 70 75  1  0
 71 67  1  0
 71 75  1  0
 72 71  1  0
 73 74  1  0
 73 72  1  0
 74 70  1  0
 75 76  2  0
 76 77  1  0
 78 77  2  0
 79 78  1  0
 80 54  1  0
 80 81  1  0
 80 90  1  0
 81 84  1  0
 82 86  1  0
 82 81  1  0
 83 82  2  0
 86 85  1  0
 88 86  1  0
 88 89  1  0
 88 87  1  0
 90 93  1  1
 90 91  1  0
 92 90  1  0
M  ISO  4  13 100  21 100  52 101  53 101
M  END
>  <TORSDO>  (79) 
F 24

>  <SCORE>  (79) 
-9.636

>  <name>  (79) 
78

>  <ligand_id>  (79) 
78

>  <original_smiles>  (79) 
[H]c1c([H])c([H])c2c(c1[H])C([H])([H])C([H])([H])C([H])([H])C2([H])N([H])C(=O)C1([H])N(C(=O)C([H])(N([H])C(=O)C([H])(N([H])C([H])([H])[H])C([H])([H])[H])C(C([H])([H])[H])(C([H])([H])[H])C([H])([H])[H])C([H])([H])c2c([H])c(OC([H])([H])C([H])([H])C3([H])C([H])([H])C([H])([H])C([H])([H])C([H])(C([H])([H])C([H])([H])C([H])([H])C([H])([H])C([H])([H])C([H])([H])N([H])C(=O)N4C([H])([H])C([H])([H])C([H])([H])C([H])(n5nc(-c6c([H])c([H])c(Oc7c([H])c([H])c(F)c([H])c7F)c([H])c6[H])c(C(=O)N([H])[H])c5N([H])[H])C4([H])[H])C3([H])[H])c([H])c([H])c2C1([H])[H]

>  <smiles>  (79) 
[H]c1c([H])c([H])c2c(c1[H])C([H])([H])C([H])([H])C([H])([H])C2([H])N([H])C(=O)C1([H])N(C(=O)C([H])(N([H])C(=O)C([H])(N([H])C([H])([H])[H])C([H])([H])[H])C(C([H])([H])[H])(C([H])([H])[H])C([H])([H])[H])C([H])([H])c2c([H])c(OC([H])([H])C([H])([H])C3([H])C([H])([H])C([H])([H])C([H])([H])C([H])(C([H])([H])C([H])([H])C([H])([H])C([H])([H])C([H])([H])C([H])([H])N([H])C(=O)N4C([H])([H])C([H])([H])C([H])([H])C([H])(n5nc(-c6c([H])c([H])c(Oc7c([H])c([H])c(F)c([H])c7F)c([H])c6[H])c(C(=O)N([H])[H])c5N([H])[H])C4([H])[H])C3([H])[H])c([H])c([H])c2C1([H])[H]

$$$$
79:0:0
     RDKit          3D

 93101  0  0  1  0  0  0  0  0999 V2000
  -32.2080  -21.3920   23.2600 C   0  0  0  0  0  2  0  0  0  0  0  0
  -31.2650  -20.2540   23.3450 N   0  0  0  0  0  4  0  0  0  0  0  0
  -31.1390  -20.0010   24.3130 H   0  0  0  0  0  0  0  0  0  0  0  0
  -30.3760  -20.5720   22.9960 H   0  0  0  0  0  0  0  0  0  0  0  0
  -31.6570  -19.0540   22.5710 C   0  0  0  0  0  2  0  0  0  0  0  0
  -30.5110  -18.0240   22.5240 C   0  0  0  0  0  2  0  0  0  0  0  0
  -30.7070  -16.8860   21.4970 C   0  0  0  0  0  2  0  0  0  0  0  0
  -30.3400  -14.0930   19.9920 C   0  0  0  0  0  0  0  0  0  0  0  0
  -30.0870  -11.8970   18.9140 C   0  0  0  0  0  2  0  0  0  0  0  0
  -29.0510  -12.0550   17.7800 C   0  0  0  0  0  2  0  0  0  0  0  0
  -27.6120  -11.8780   18.3110 C   0  0  0  0  0  2  0  0  0  0  0  0
  -27.3340  -12.7180   19.5870 C   0  0  0  0  0  3  0  0  0  0  0  0
  -28.4730  -12.5390   20.6190 C   0  0  0  0  0  2  0  0  0  0  0  0
  -29.7460  -12.8730   19.9550 N   0  0  0  0  0  0  0  0  0  0  0  0
  -31.4580  -14.3320   19.5270 O   0  0  0  0  0  0  0  0  0  0  0  0
  -28.3440  -16.7800   20.3040 C   0  0  0  0  0  2  0  0  0  0  0  0
  -29.0310  -16.0300   19.1750 C   0  0  0  0  0  2  0  0  0  0  0  0
  -29.3840  -16.1440   21.2270 C   0  0  0  0  0  3  0  0  0  0  0  0
  -29.4470  -15.0780   20.2090 N   0  0  0  0  0  0  0  0  0  0  0  0
  -24.9830  -13.2760   20.4790 C   0  0  0  0  0  0  0  0  0  0  0  0
  -23.9590  -12.4790   20.9110 C   0  0  0  0  0  0  0  0  0  0  0  0
  -24.4390  -11.1370   20.8200 C   0  0  0  0  0  0  0  0  0  0  0  0
  -26.0240  -12.4170   20.1600 N   0  0  0  0  0  0  0  0  0  0  0  0
  -25.7040  -11.1250   20.4210 N   0  0  0  0  0  0  0  0  0  0  0  0
  -23.7530   -9.8580   21.0360 C   0  0  0  0  0  0  0  0  0  0  0  0
  -24.2370   -8.9090   21.9610 C   0  0  0  0  0  3  0  0  0  0  0  0
  -23.5520   -7.6920   22.1640 C   0  0  0  0  0  3  0  0  0  0  0  0
  -22.3660   -7.4180   21.4430 C   0  0  0  0  0  0  0  0  0  0  0  0
  -21.9000   -8.3570   20.5060 C   0  0  0  0  0  3  0  0  0  0  0  0
  -22.5870   -9.5650   20.3000 C   0  0  0  0  0  3  0  0  0  0  0  0
  -21.6460   -6.2550   21.5570 O   0  0  0  0  0  0  0  0  0  0  0  0
  -21.6070   -5.5440   22.7310 C   0  0  0  0  0  0  0  0  0  0  0  0
  -21.1110   -6.1100   23.9260 C   0  0  0  0  0  3  0  0  0  0  0  0
  -21.0220   -5.3230   25.0920 C   0  0  0  0  0  3  0  0  0  0  0  0
  -21.4220   -3.9730   25.0640 C   0  0  0  0  0  0  0  0  0  0  0  0
  -21.9130   -3.4100   23.8730 C   0  0  0  0  0  3  0  0  0  0  0  0
  -22.0020   -4.1930   22.7100 C   0  0  0  0  0  0  0  0  0  0  0  0
  -22.4550   -3.6380   21.5600 F   0  0  0  0  0  0  0  0  0  0  0  0
  -21.3300   -3.2160   26.1810 F   0  0  0  0  0  0  0  0  0  0  0  0
  -22.5770  -12.9250   21.2950 C   0  0  0  0  0  0  0  0  0  0  0  0
  -21.9330  -12.2070   22.2080 N   0  0  0  0  0  0  0  0  0  0  0  0
  -22.0800  -13.9460   20.8210 O   0  0  0  0  0  0  0  0  0  0  0  0
  -22.3480  -11.3810   22.6120 H   0  0  0  0  0  0  0  0  0  0  0  0
  -21.0100  -12.4880   22.5060 H   0  0  0  0  0  0  0  0  0  0  0  0
  -25.1100  -14.6510   20.3130 N   0  0  0  0  0  0  0  0  0  0  0  0
  -24.3450  -15.2950   20.4930 H   0  0  0  0  0  0  0  0  0  0  0  0
  -25.9400  -15.1070   19.9560 H   0  0  0  0  0  0  0  0  0  0  0  0
  -31.4810  -22.7500   23.3760 C   0  0  0  0  0  2  0  0  0  0  0  0
  -30.4960  -23.0100   22.2180 C   0  0  0  0  0  2  0  0  0  0  0  0
  -29.8490  -24.4060   22.2580 C   0  0  0  0  0  2  0  0  0  0  0  0
  -28.8890  -24.6140   21.0730 C   0  0  0  0  0  2  0  0  0  0  0  0
  -28.1980  -25.9830   21.0450 C   0  0  0  0  0  2  0  0  0  0  0  0
  -27.2420  -25.9260   19.9930 O   0  0  0  0  0  0  0  0  0  0  0  0
  -24.1140  -31.5420   23.0980 C   0  0  0  0  0  0  0  0  0  0  0  0
  -26.1860  -26.8010   20.0650 C   0  0  0  0  0  0  0  0  0  0  0  0
  -22.7090  -30.2330   21.5370 C   0  0  0  0  0  3  0  0  0  0  0  0
  -23.9470  -28.5180   20.1120 C   0  0  0  0  0  0  0  0  0  0  0  0
  -25.2450  -30.3290   21.2460 C   0  0  0  0  0  2  0  0  0  0  0  0
  -25.1670  -28.9410   20.6530 C   0  0  0  0  0  0  0  0  0  0  0  0
  -26.2890  -28.0870   20.6410 C   0  0  0  0  0  3  0  0  0  0  0  0
  -24.9580  -26.3900   19.5090 C   0  0  0  0  0  3  0  0  0  0  0  0
  -23.8330  -27.2370   19.5400 C   0  0  0  0  0  3  0  0  0  0  0  0
  -22.7970  -29.4980   20.1710 C   0  0  0  0  0  2  0  0  0  0  0  0
  -24.0440  -30.7150   22.0190 N   0  0  0  0  0  0  0  0  0  0  0  0
  -23.0880  -31.9400   23.6670 O   0  0  0  0  0  0  0  0  0  0  0  0
  -21.9910  -29.3110   22.5450 C   0  0  0  0  0  0  0  0  0  0  0  0
  -20.6560  -29.2240   22.4290 N   0  0  0  0  0  0  0  0  0  0  0  0
  -22.6300  -28.6750   23.3880 O   0  0  0  0  0  0  0  0  0  0  0  0
  -20.2060  -29.7820   21.7170 H   0  0  0  0  0  0  0  0  0  0  0  0
  -17.2060  -28.2970   22.9650 C   0  0  0  0  0  0  0  0  0  0  0  0
  -19.7740  -28.3900   23.2450 C   0  0  0  0  0  3  0  0  0  0  0  0
  -19.7800  -26.9260   22.7500 C   0  0  0  0  0  2  0  0  0  0  0  0
  -18.6620  -26.6240   21.7470 C   0  0  0  0  0  2  0  0  0  0  0  0
  -17.2910  -26.9020   22.3700 C   0  0  0  0  0  2  0  0  0  0  0  0
  -18.3730  -29.0020   23.3610 C   0  0  0  0  0  0  0  0  0  0  0  0
  -18.2420  -30.3100   23.8760 C   0  0  0  0  0  3  0  0  0  0  0  0
  -16.9740  -30.9110   23.9990 C   0  0  0  0  0  3  0  0  0  0  0  0
  -15.8210  -30.2030   23.6200 C   0  0  0  0  0  3  0  0  0  0  0  0
  -15.9380  -28.8970   23.1090 C   0  0  0  0  0  3  0  0  0  0  0  0
  -25.4820  -32.0460   23.6570 C   0  0  0  0  0  3  0  0  0  0  0  0
  -26.0050  -31.1990   24.8800 C   0  0  1  0  0  0  0  0  0  0  0  0
  -24.9590  -31.0220   26.0060 C   0  0  0  0  0  1  0  0  0  0  0  0
  -26.4460  -29.7900   24.4200 C   0  0  0  0  0  1  0  0  0  0  0  0
  -27.2560  -31.8750   25.4890 C   0  0  0  0  0  1  0  0  0  0  0  0
  -25.3120  -33.4570   24.0330 N   0  0  0  0  0  0  0  0  0  0  0  0
  -25.7410  -34.4940   23.3030 C   0  0  0  0  0  0  0  0  0  0  0  0
  -26.3960  -34.3580   22.2650 O   0  0  0  0  0  0  0  0  0  0  0  0
  -24.7330  -33.6450   24.8400 H   0  0  0  0  0  0  0  0  0  0  0  0
  -24.1970  -36.4570   23.0070 C   0  0  0  0  0  1  0  0  0  0  0  0
  -25.3920  -35.9080   23.8040 C   0  0  0  0  0  3  0  0  0  0  0  0
  -27.5970  -36.5550   24.6670 C   0  0  0  0  0  1  0  0  0  0  0  0
  -26.5240  -36.8580   23.7240 N   0  0  0  0  0  0  0  0  0  0  0  0
  -26.2090  -37.8090   23.8970 H   0  0  0  0  0  0  0  0  0  0  0  0
  1  2  1  0
  1 48  1  0
  2  3  1  0
  4  2  1  0
  5  2  1  0
  6  5  1  0
  7  6  1  0
  8 19  1  0
  9 14  1  0
 10 11  1  0
 10  9  1  0
 12 11  1  0
 12 23  1  0
 12 13  1  0
 14  8  1  0
 14 13  1  0
 15  8  2  0
 16 18  1  0
 17 19  1  0
 17 16  1  0
 18  7  1  0
 19 18  1  0
 20 21  2  0
 21 40  1  0
 22 21  1  0
 22 25  1  0
 23 24  1  0
 23 20  1  0
 24 22  2  0
 25 26  1  0
 26 27  2  0
 28 31  1  0
 28 27  1  0
 29 28  2  0
 30 29  1  0
 30 25  2  0
 31 32  1  0
 32 33  1  0
 33 34  2  0
 35 34  1  0
 35 39  1  0
 36 35  2  0
 37 32  2  0
 37 36  1  0
 38 37  1  0
 40 41  1  0
 41 44  1  0
 41 43  1  0
 42 40  2  0
 45 20  1  0
 45 46  1  0
 47 45  1  0
 49 50  1  0
 49 48  1  0
 51 50  1  0
 52 51  1  0
 53 55  1  0
 53 52  1  0
 54 65  2  0
 55 60  1  0
 56 64  1  0
 56 66  1  0
 57 63  1  0
 57 59  1  0
 58 64  1  0
 59 58  1  0
 60 59  2  0
 61 62  1  0
 61 55  2  0
 62 57  2  0
 63 56  1  0
 64 54  1  0
 66 68  2  0
 67 66  1  0
 69 67  1  0
 70 79  2  0
 70 75  1  0
 71 67  1  0
 71 75  1  0
 72 71  1  0
 73 74  1  0
 73 72  1  0
 74 70  1  0
 75 76  2  0
 76 77  1  0
 78 77  2  0
 79 78  1  0
 80 54  1  0
 80 85  1  0
 80 81  1  0
 81 84  1  1
 81 82  1  0
 83 81  1  0
 85 88  1  0
 86 90  1  0
 86 85  1  0
 87 86  2  0
 90 89  1  0
 92 90  1  0
 92 93  1  0
 92 91  1  0
M  ISO  4   8 100  19 100  52 101  53 101
M  END
>  <TORSDO>  (80) 
F 25

>  <SCORE>  (80) 
-8.661

>  <name>  (80) 
79

>  <ligand_id>  (80) 
79

>  <original_smiles>  (80) 
[H]c1c([H])c([H])c2c(c1[H])C([H])([H])C([H])([H])C([H])([H])C2([H])N([H])C(=O)C1([H])N(C(=O)C([H])(N([H])C(=O)C([H])(N([H])C([H])([H])[H])C([H])([H])[H])C(C([H])([H])[H])(C([H])([H])[H])C([H])([H])[H])C([H])([H])c2c([H])c(OC([H])([H])C([H])([H])C([H])([H])C([H])([H])C([H])([H])C([H])([H])[N+]([H])([H])C([H])([H])C([H])([H])C([H])([H])C3([H])N(C(=O)N4C([H])([H])C([H])([H])C([H])([H])C([H])(n5nc(-c6c([H])c([H])c(Oc7c([H])c([H])c(F)c([H])c7F)c([H])c6[H])c(C(=O)N([H])[H])c5N([H])[H])C4([H])[H])C([H])([H])C3([H])[H])c([H])c([H])c2C1([H])[H]

>  <smiles>  (80) 
[H]c1c([H])c([H])c2c(c1[H])C([H])([H])C([H])([H])C([H])([H])C2([H])N([H])C(=O)C1([H])N(C(=O)C([H])(N([H])C(=O)C([H])(N([H])C([H])([H])[H])C([H])([H])[H])C(C([H])([H])[H])(C([H])([H])[H])C([H])([H])[H])C([H])([H])c2c([H])c(OC([H])([H])C([H])([H])C([H])([H])C([H])([H])C([H])([H])C([H])([H])[N+]([H])([H])C([H])([H])C([H])([H])C([H])([H])C3([H])N(C(=O)N4C([H])([H])C([H])([H])C([H])([H])C([H])(n5nc(-c6c([H])c([H])c(Oc7c([H])c([H])c(F)c([H])c7F)c([H])c6[H])c(C(=O)N([H])[H])c5N([H])[H])C4([H])[H])C([H])([H])C3([H])[H])c([H])c([H])c2C1([H])[H]

$$$$
80:0:0
     RDKit          3D

 89 98  0  0  1  0  0  0  0  0999 V2000
  -29.9330  -21.9930   21.7010 C   0  0  0  0  0  2  0  0  0  0  0  0
  -29.5860  -19.2890   21.9990 C   0  0  0  0  0  2  0  0  0  0  0  0
  -28.7500  -21.1660   19.7090 C   0  0  0  0  0  2  0  0  0  0  0  0
  -30.3450  -20.5180   21.4300 C   0  0  0  0  0  3  0  0  0  0  0  0
  -29.8300  -20.0910   20.0710 C   0  0  0  0  0  3  0  0  0  0  0  0
  -28.8160  -22.4140   20.6910 C   0  0  0  0  0  3  0  0  0  0  0  0
  -29.5430  -18.6140   20.6020 C   0  0  0  0  0  3  0  0  0  0  0  0
  -28.8790  -23.8990   20.0380 C   0  0  0  0  0  3  0  0  0  0  0  0
  -28.3130  -25.1870   20.8220 C   0  0  0  0  0  3  0  0  0  0  0  0
  -28.4340  -26.5610   20.2490 O   0  0  0  0  0  0  0  0  0  0  0  0
  -24.6140  -31.9340   23.2440 C   0  0  0  0  0  0  0  0  0  0  0  0
  -27.3010  -27.3910   20.2360 C   0  0  0  0  0  0  0  0  0  0  0  0
  -23.4340  -30.5120   21.6070 C   0  0  0  0  0  3  0  0  0  0  0  0
  -24.9130  -28.9690   20.1980 C   0  0  0  0  0  0  0  0  0  0  0  0
  -25.9690  -30.8680   21.4230 C   0  0  0  0  0  2  0  0  0  0  0  0
  -26.0750  -29.4850   20.7870 C   0  0  0  0  0  0  0  0  0  0  0  0
  -27.2740  -28.7120   20.7850 C   0  0  0  0  0  3  0  0  0  0  0  0
  -26.1170  -26.9210   19.6290 C   0  0  0  0  0  3  0  0  0  0  0  0
  -24.9350  -27.6920   19.6110 C   0  0  0  0  0  3  0  0  0  0  0  0
  -23.6630  -29.8280   20.2330 C   0  0  0  0  0  2  0  0  0  0  0  0
  -24.6910  -31.1230   22.1480 N   0  0  0  0  0  0  0  0  0  0  0  0
  -23.5250  -32.1980   23.7750 O   0  0  0  0  0  0  0  0  0  0  0  0
  -22.7790  -29.4930   22.5700 C   0  0  0  0  0  0  0  0  0  0  0  0
  -21.4550  -29.3070   22.4480 N   0  0  0  0  0  0  0  0  0  0  0  0
  -23.4650  -28.8730   23.3880 O   0  0  0  0  0  0  0  0  0  0  0  0
  -20.9600  -29.8600   21.7600 H   0  0  0  0  0  0  0  0  0  0  0  0
  -18.0840  -28.0970   22.9680 C   0  0  0  0  0  0  0  0  0  0  0  0
  -20.6450  -28.3630   23.2200 C   0  0  0  0  0  3  0  0  0  0  0  0
  -20.7450  -26.9330   22.6380 C   0  0  0  0  0  2  0  0  0  0  0  0
  -19.6370  -26.6120   21.6300 C   0  0  0  0  0  2  0  0  0  0  0  0
  -18.2600  -26.7510   22.2860 C   0  0  0  0  0  2  0  0  0  0  0  0
  -19.2040  -28.8620   23.3930 C   0  0  0  0  0  0  0  0  0  0  0  0
  -18.9850  -30.1200   23.9920 C   0  0  0  0  0  3  0  0  0  0  0  0
  -17.6810  -30.6190   24.1680 C   0  0  0  0  0  3  0  0  0  0  0  0
  -16.5750  -29.8490   23.7600 C   0  0  0  0  0  3  0  0  0  0  0  0
  -16.7780  -28.5920   23.1660 C   0  0  0  0  0  3  0  0  0  0  0  0
  -25.8840  -32.5870   23.8680 C   0  0  0  0  0  3  0  0  0  0  0  0
  -26.3940  -31.8410   25.1620 C   0  0  1  0  0  0  0  0  0  0  0  0
  -25.2910  -31.6070   26.2230 C   0  0  0  0  0  1  0  0  0  0  0  0
  -26.9970  -30.4660   24.7940 C   0  0  0  0  0  1  0  0  0  0  0  0
  -27.5310  -32.6560   25.8220 C   0  0  0  0  0  1  0  0  0  0  0  0
  -25.5570  -33.9880   24.1770 N   0  0  0  0  0  0  0  0  0  0  0  0
  -25.8980  -35.0350   23.4140 C   0  0  0  0  0  0  0  0  0  0  0  0
  -26.5850  -34.9240   22.3950 O   0  0  0  0  0  0  0  0  0  0  0  0
  -24.9400  -34.1430   24.9600 H   0  0  0  0  0  0  0  0  0  0  0  0
  -24.1760  -36.8230   23.0020 C   0  0  0  0  0  1  0  0  0  0  0  0
  -25.3960  -36.4260   23.8490 C   0  0  0  0  0  3  0  0  0  0  0  0
  -27.5080  -37.3210   24.7250 C   0  0  0  0  0  1  0  0  0  0  0  0
  -26.4290  -37.4810   23.7540 N   0  0  0  0  0  0  0  0  0  0  0  0
  -26.0170  -38.4010   23.8860 H   0  0  0  0  0  0  0  0  0  0  0  0
  -30.5100  -17.3700   20.2740 C   0  0  0  0  0  2  0  0  0  0  0  0
  -30.7460  -14.8020   20.0930 C   0  0  0  0  0  0  0  0  0  0  0  0
  -30.4750  -12.5670   19.0250 C   0  0  0  0  0  2  0  0  0  0  0  0
  -29.4850  -12.6650   17.8460 C   0  0  0  0  0  2  0  0  0  0  0  0
  -28.0340  -12.4870   18.3350 C   0  0  0  0  0  2  0  0  0  0  0  0
  -27.7150  -13.3500   19.5840 C   0  0  0  0  0  3  0  0  0  0  0  0
  -28.8200  -13.2400   20.6580 C   0  0  0  0  0  2  0  0  0  0  0  0
  -30.0930  -13.5960   20.0200 N   0  0  0  0  0  0  0  0  0  0  0  0
  -31.8990  -14.9110   19.6670 O   0  0  0  0  0  0  0  0  0  0  0  0
  -30.0370  -15.9360   20.4450 N   0  0  0  0  0  0  0  0  0  0  0  0
  -29.0760  -15.8030   20.7250 H   0  0  0  0  0  0  0  0  0  0  0  0
  -25.3550  -13.9060   20.4290 C   0  0  0  0  0  0  0  0  0  0  0  0
  -24.3130  -13.1160   20.8330 C   0  0  0  0  0  0  0  0  0  0  0  0
  -24.7860  -11.7700   20.7540 C   0  0  0  0  0  0  0  0  0  0  0  0
  -26.3940  -13.0440   20.1290 N   0  0  0  0  0  0  0  0  0  0  0  0
  -26.0610  -11.7520   20.3860 N   0  0  0  0  0  0  0  0  0  0  0  0
  -24.0790  -10.4970   20.9480 C   0  0  0  0  0  0  0  0  0  0  0  0
  -24.5320   -9.5330   21.8770 C   0  0  0  0  0  3  0  0  0  0  0  0
  -23.8230   -8.3260   22.0610 C   0  0  0  0  0  3  0  0  0  0  0  0
  -22.6470   -8.0730   21.3160 C   0  0  0  0  0  0  0  0  0  0  0  0
  -22.2130   -9.0240   20.3750 C   0  0  0  0  0  3  0  0  0  0  0  0
  -22.9220  -10.2220   20.1890 C   0  0  0  0  0  3  0  0  0  0  0  0
  -21.9070   -6.9180   21.4120 O   0  0  0  0  0  0  0  0  0  0  0  0
  -21.8380   -6.2030   22.5800 C   0  0  0  0  0  0  0  0  0  0  0  0
  -21.3500   -6.7750   23.7750 C   0  0  0  0  0  3  0  0  0  0  0  0
  -21.2290   -5.9850   24.9350 C   0  0  0  0  0  3  0  0  0  0  0  0
  -21.5840   -4.6230   24.9020 C   0  0  0  0  0  0  0  0  0  0  0  0
  -22.0650   -4.0500   23.7120 C   0  0  0  0  0  3  0  0  0  0  0  0
  -22.1870   -4.8370   22.5540 C   0  0  0  0  0  0  0  0  0  0  0  0
  -22.6310   -4.2750   21.4040 F   0  0  0  0  0  0  0  0  0  0  0  0
  -21.4590   -3.8620   26.0150 F   0  0  0  0  0  0  0  0  0  0  0  0
  -22.9260  -13.5750   21.1760 C   0  0  0  0  0  0  0  0  0  0  0  0
  -22.2430  -12.8560   22.0610 N   0  0  0  0  0  0  0  0  0  0  0  0
  -22.4580  -14.6080   20.6980 O   0  0  0  0  0  0  0  0  0  0  0  0
  -22.6340  -12.0240   22.4780 H   0  0  0  0  0  0  0  0  0  0  0  0
  -21.3150  -13.1490   22.3360 H   0  0  0  0  0  0  0  0  0  0  0  0
  -25.5000  -15.2800   20.2750 N   0  0  0  0  0  0  0  0  0  0  0  0
  -24.7390  -15.9290   20.4540 H   0  0  0  0  0  0  0  0  0  0  0  0
  -26.3250  -15.7360   19.9060 H   0  0  0  0  0  0  0  0  0  0  0  0
  3  6  1  0
  4  1  1  0
  4  2  1  0
  5  3  1  0
  5  7  1  0
  5  4  1  0
  6  8  1  0
  6  1  1  0
  7 51  1  0
  7  2  1  0
  8  9  2  0
 10  9  1  0
 11 22  2  0
 12 10  1  0
 12 17  1  0
 13 21  1  0
 13 23  1  0
 14 20  1  0
 14 16  1  0
 15 21  1  0
 16 15  1  0
 17 16  2  0
 18 12  2  0
 19 18  1  0
 19 14  2  0
 20 13  1  0
 21 11  1  0
 23 25  2  0
 24 23  1  0
 26 24  1  0
 27 36  2  0
 27 32  1  0
 28 24  1  0
 28 32  1  0
 29 28  1  0
 30 31  1  0
 30 29  1  0
 31 27  1  0
 32 33  2  0
 33 34  1  0
 35 34  2  0
 36 35  1  0
 37 11  1  0
 37 42  1  0
 37 38  1  0
 38 41  1  1
 38 39  1  0
 40 38  1  0
 42 45  1  0
 43 47  1  0
 43 42  1  0
 44 43  2  0
 47 46  1  0
 49 47  1  0
 49 50  1  0
 49 48  1  0
 51 60  1  0
 52 60  1  0
 53 58  1  0
 54 55  1  0
 54 53  1  0
 56 55  1  0
 56 65  1  0
 56 57  1  0
 58 52  1  0
 58 57  1  0
 59 52  2  0
 60 61  1  0
 62 63  2  0
 63 82  1  0
 64 63  1  0
 64 67  1  0
 65 66  1  0
 65 62  1  0
 66 64  2  0
 67 68  1  0
 68 69  2  0
 70 73  1  0
 70 69  1  0
 71 70  2  0
 72 71  1  0
 72 67  2  0
 73 74  1  0
 74 75  1  0
 75 76  2  0
 77 76  1  0
 77 81  1  0
 78 77  2  0
 79 74  2  0
 79 78  1  0
 80 79  1  0
 82 83  1  0
 83 86  1  0
 83 85  1  0
 84 82  2  0
 87 62  1  0
 87 88  1  0
 89 87  1  0
M  ISO  4   9 101  10 101  52 100  60 100
M  END
>  <TORSDO>  (81) 
F 19

>  <SCORE>  (81) 
-13.174

>  <name>  (81) 
80

>  <ligand_id>  (81) 
80

>  <original_smiles>  (81) 
[H]c1c([H])c([H])c2c(c1[H])C([H])([H])C([H])([H])C([H])([H])C2([H])N([H])C(=O)C1([H])N(C(=O)C([H])(N([H])C(=O)C([H])(N([H])C([H])([H])[H])C([H])([H])[H])C(C([H])([H])[H])(C([H])([H])[H])C([H])([H])[H])C([H])([H])c2c([H])c(OC([H])([H])C([H])([H])C3([H])C([H])([H])C4([H])C([H])([H])C([H])(C([H])([H])N([H])C(=O)N5C([H])([H])C([H])([H])C([H])([H])C([H])(n6nc(-c7c([H])c([H])c(Oc8c([H])c([H])c(F)c([H])c8F)c([H])c7[H])c(C(=O)N([H])[H])c6N([H])[H])C5([H])[H])C4([H])C3([H])[H])c([H])c([H])c2C1([H])[H]

>  <smiles>  (81) 
[H]c1c([H])c([H])c2c(c1[H])C([H])([H])C([H])([H])C([H])([H])C2([H])N([H])C(=O)C1([H])N(C(=O)C([H])(N([H])C(=O)C([H])(N([H])C([H])([H])[H])C([H])([H])[H])C(C([H])([H])[H])(C([H])([H])[H])C([H])([H])[H])C([H])([H])c2c([H])c(OC([H])([H])C([H])([H])C3([H])C([H])([H])C4([H])C([H])([H])C([H])(C([H])([H])N([H])C(=O)N5C([H])([H])C([H])([H])C([H])([H])C([H])(n6nc(-c7c([H])c([H])c(Oc8c([H])c([H])c(F)c([H])c8F)c([H])c7[H])c(C(=O)N([H])[H])c6N([H])[H])C5([H])[H])C4([H])C3([H])[H])c([H])c([H])c2C1([H])[H]

$$$$
81:0:0
     RDKit          3D

 93101  0  0  1  0  0  0  0  0999 V2000
  -27.7390  -21.2390   19.4110 C   0  0  0  0  0  2  0  0  0  0  0  0
  -27.6480  -19.7580   18.9560 C   0  0  0  0  0  2  0  0  0  0  0  0
  -29.8330  -20.2230   20.5360 C   0  0  0  0  0  2  0  0  0  0  0  0
  -28.7550  -21.5080   20.5540 C   0  0  0  0  0  3  0  0  0  0  0  0
  -27.7550  -18.8030   20.1600 C   0  0  0  0  0  3  0  0  0  0  0  0
  -29.2430  -18.6780   20.6570 C   0  0  0  0  0  3  0  0  0  0  0  0
  -29.1110  -23.1490   20.6500 C   0  0  0  0  0  3  0  0  0  0  0  0
  -28.0890  -24.4320   20.2460 C   0  0  0  0  0  3  0  0  0  0  0  0
  -28.3030  -25.9450   20.5510 O   0  0  0  0  0  0  0  0  0  0  0  0
  -24.6490  -31.7690   23.2060 C   0  0  0  0  0  0  0  0  0  0  0  0
  -27.2560  -26.9310   20.4120 C   0  0  0  0  0  0  0  0  0  0  0  0
  -23.4860  -30.3540   21.5630 C   0  0  0  0  0  3  0  0  0  0  0  0
  -24.9580  -28.7170   20.2310 C   0  0  0  0  0  0  0  0  0  0  0  0
  -26.0460  -30.5710   21.4870 C   0  0  0  0  0  2  0  0  0  0  0  0
  -26.1210  -29.1640   20.8700 C   0  0  0  0  0  0  0  0  0  0  0  0
  -27.2590  -28.2790   20.9480 C   0  0  0  0  0  3  0  0  0  0  0  0
  -26.0630  -26.5810   19.7290 C   0  0  0  0  0  3  0  0  0  0  0  0
  -24.9430  -27.4400   19.6550 C   0  0  0  0  0  3  0  0  0  0  0  0
  -23.7510  -29.6430   20.2080 C   0  0  0  0  0  2  0  0  0  0  0  0
  -24.7470  -30.9270   22.1370 N   0  0  0  0  0  0  0  0  0  0  0  0
  -23.5460  -32.0720   23.6970 O   0  0  0  0  0  0  0  0  0  0  0  0
  -22.7560  -29.3820   22.5310 C   0  0  0  0  0  0  0  0  0  0  0  0
  -21.4240  -29.2880   22.4060 N   0  0  0  0  0  0  0  0  0  0  0  0
  -23.3860  -28.7220   23.3590 O   0  0  0  0  0  0  0  0  0  0  0  0
  -20.9660  -29.9040   21.7450 H   0  0  0  0  0  0  0  0  0  0  0  0
  -17.9870  -28.2490   22.8990 C   0  0  0  0  0  0  0  0  0  0  0  0
  -20.5620  -28.3840   23.1680 C   0  0  0  0  0  3  0  0  0  0  0  0
  -20.5880  -26.9620   22.5570 C   0  0  0  0  0  2  0  0  0  0  0  0
  -19.4740  -26.7660   21.5210 C   0  0  0  0  0  2  0  0  0  0  0  0
  -18.1100  -26.9040   22.1980 C   0  0  0  0  0  2  0  0  0  0  0  0
  -19.1490  -28.9500   23.3370 C   0  0  0  0  0  0  0  0  0  0  0  0
  -18.9940  -30.2120   23.9400 C   0  0  0  0  0  3  0  0  0  0  0  0
  -17.7180  -30.7780   24.1060 C   0  0  0  0  0  3  0  0  0  0  0  0
  -16.5770  -30.0770   23.6900 C   0  0  0  0  0  3  0  0  0  0  0  0
  -16.7110  -28.8120   23.0970 C   0  0  0  0  0  3  0  0  0  0  0  0
  -25.9130  -32.3990   23.8650 C   0  0  0  0  0  3  0  0  0  0  0  0
  -25.5940  -33.7970   24.2030 N   0  0  0  0  0  0  0  0  0  0  0  0
  -25.9230  -34.8560   23.4520 C   0  0  0  0  0  0  0  0  0  0  0  0
  -26.5910  -34.7520   22.4180 O   0  0  0  0  0  0  0  0  0  0  0  0
  -25.0090  -33.9520   25.0130 H   0  0  0  0  0  0  0  0  0  0  0  0
  -24.1900  -36.6500   23.1140 C   0  0  0  0  0  1  0  0  0  0  0  0
  -25.4390  -36.2500   23.9150 C   0  0  0  0  0  3  0  0  0  0  0  0
  -27.5760  -37.1400   24.7290 C   0  0  0  0  0  1  0  0  0  0  0  0
  -26.4670  -37.3060   23.7930 N   0  0  0  0  0  0  0  0  0  0  0  0
  -26.0610  -38.2260   23.9370 H   0  0  0  0  0  0  0  0  0  0  0  0
  -26.3920  -31.6240   25.1550 C   0  0  1  0  0  0  0  0  0  0  0  0
  -25.2710  -31.3640   26.1900 C   0  0  0  0  0  1  0  0  0  0  0  0
  -26.9950  -30.2530   24.7790 C   0  0  0  0  0  1  0  0  0  0  0  0
  -27.5180  -32.4160   25.8600 C   0  0  0  0  0  1  0  0  0  0  0  0
  -30.2040  -17.2880   20.4120 C   0  0  0  0  0  2  0  0  0  0  0  0
  -30.6070  -14.6150   20.1030 C   0  0  0  0  0  0  0  0  0  0  0  0
  -30.5740  -12.1590   19.4160 C   0  0  0  0  0  2  0  0  0  0  0  0
  -29.6520  -11.9090   18.2010 C   0  0  0  0  0  2  0  0  0  0  0  0
  -28.1880  -11.7320   18.6540 C   0  0  0  0  0  2  0  0  0  0  0  0
  -27.7600  -12.7800   19.7140 C   0  0  0  0  0  3  0  0  0  0  0  0
  -28.8100  -12.9460   20.8250 C   0  0  0  0  0  2  0  0  0  0  0  0
  -30.0530  -13.3420   20.1500 N   0  0  0  0  0  0  0  0  0  0  0  0
  -31.8390  -14.6830   19.8760 O   0  0  0  0  0  0  0  0  0  0  0  0
  -29.7790  -15.7790   20.1400 N   0  0  0  0  0  0  0  0  0  0  0  0
  -28.8150  -15.5950   20.0040 H   0  0  0  0  0  0  0  0  0  0  0  0
  -25.4380  -13.3880   20.5900 C   0  0  0  0  0  0  0  0  0  0  0  0
  -24.3850  -12.6420   21.0090 C   0  0  0  0  0  0  0  0  0  0  0  0
  -24.8140  -11.2820   20.9200 C   0  0  0  0  0  0  0  0  0  0  0  0
  -26.4460  -12.5000   20.2650 N   0  0  0  0  0  0  0  0  0  0  0  0
  -26.0830  -11.2230   20.5360 N   0  0  0  0  0  0  0  0  0  0  0  0
  -24.0710  -10.0380   21.1240 C   0  0  0  0  0  0  0  0  0  0  0  0
  -24.5140   -9.0580   22.0370 C   0  0  0  0  0  3  0  0  0  0  0  0
  -23.7700   -7.8710   22.2260 C   0  0  0  0  0  3  0  0  0  0  0  0
  -22.5710   -7.6650   21.5070 C   0  0  0  0  0  0  0  0  0  0  0  0
  -22.1450   -8.6350   20.5800 C   0  0  0  0  0  3  0  0  0  0  0  0
  -22.8910   -9.8110   20.3900 C   0  0  0  0  0  3  0  0  0  0  0  0
  -21.7990   -6.5300   21.6070 O   0  0  0  0  0  0  0  0  0  0  0  0
  -21.7310   -5.8130   22.7720 C   0  0  0  0  0  0  0  0  0  0  0  0
  -21.2840   -6.3840   23.9810 C   0  0  0  0  0  3  0  0  0  0  0  0
  -21.1570   -5.5930   25.1370 C   0  0  0  0  0  3  0  0  0  0  0  0
  -21.4740   -4.2180   25.0870 C   0  0  0  0  0  0  0  0  0  0  0  0
  -21.9170   -3.6440   23.8850 C   0  0  0  0  0  3  0  0  0  0  0  0
  -22.0440   -4.4330   22.7300 C   0  0  0  0  0  0  0  0  0  0  0  0
  -22.4490   -3.8700   21.5690 F   0  0  0  0  0  0  0  0  0  0  0  0
  -21.3490   -3.4550   26.1970 F   0  0  0  0  0  0  0  0  0  0  0  0
  -23.0230  -13.1450   21.3950 C   0  0  0  0  0  0  0  0  0  0  0  0
  -22.3390  -12.4480   22.2860 N   0  0  0  0  0  0  0  0  0  0  0  0
  -22.5880  -14.2050   20.9310 O   0  0  0  0  0  0  0  0  0  0  0  0
  -22.7150  -11.5930   22.6770 H   0  0  0  0  0  0  0  0  0  0  0  0
  -21.4210  -12.7480   22.5860 H   0  0  0  0  0  0  0  0  0  0  0  0
  -25.6260  -14.7550   20.4550 N   0  0  0  0  0  0  0  0  0  0  0  0
  -24.8870  -15.4040   20.6960 H   0  0  0  0  0  0  0  0  0  0  0  0
  -26.5080  -15.1760   20.2040 H   0  0  0  0  0  0  0  0  0  0  0  0
  -26.7560  -17.6370   20.0850 C   0  0  0  0  0  2  0  0  0  0  0  0
  -25.3790  -18.1610   19.8630 N   0  0  0  0  0  4  0  0  0  0  0  0
  -25.1430  -18.8500   20.5560 H   0  0  0  0  0  0  0  0  0  0  0  0
  -24.6700  -17.4500   19.8920 H   0  0  0  0  0  0  0  0  0  0  0  0
  -25.3140  -18.6220   18.9700 H   0  0  0  0  0  0  0  0  0  0  0  0
  1  4  1  0
  2  1  1  0
  2  5  1  0
  3  4  1  0
  3  6  1  0
  4  7  1  0
  5 89  1  0
  5  6  1  0
  6 50  1  0
  8  9  1  0
  8  7  2  0
 10 21  2  0
 11  9  1  0
 11 16  1  0
 12 20  1  0
 12 22  1  0
 13 15  1  0
 14 20  1  0
 15 16  2  0
 15 14  1  0
 17 11  2  0
 18 17  1  0
 18 13  2  0
 19 13  1  0
 19 12  1  0
 20 10  1  0
 22 24  2  0
 23 22  1  0
 25 23  1  0
 26 35  2  0
 26 31  1  0
 27 23  1  0
 27 31  1  0
 28 27  1  0
 29 30  1  0
 29 28  1  0
 30 26  1  0
 31 32  2  0
 32 33  1  0
 34 33  2  0
 35 34  1  0
 36 10  1  0
 36 37  1  0
 36 46  1  0
 37 40  1  0
 38 42  1  0
 38 37  1  0
 39 38  2  0
 42 41  1  0
 44 42  1  0
 44 45  1  0
 44 43  1  0
 46 49  1  1
 46 47  1  0
 48 46  1  0
 51 59  1  0
 51 57  1  0
 52 57  1  0
 53 54  1  0
 53 52  1  0
 55 54  1  0
 55 64  1  0
 55 56  1  0
 57 56  1  0
 58 51  2  0
 59 50  1  0
 60 59  1  0
 61 62  2  0
 62 81  1  0
 63 62  1  0
 63 66  1  0
 64 65  1  0
 64 61  1  0
 65 63  2  0
 66 67  1  0
 67 68  2  0
 69 72  1  0
 69 68  1  0
 70 69  2  0
 71 70  1  0
 71 66  2  0
 72 73  1  0
 73 74  1  0
 74 75  2  0
 76 75  1  0
 76 80  1  0
 77 76  2  0
 78 73  2  0
 78 77  1  0
 79 78  1  0
 81 82  1  0
 82 85  1  0
 82 84  1  0
 83 81  2  0
 86 61  1  0
 86 87  1  0
 88 86  1  0
 90 92  1  0
 90 89  1  0
 90 91  1  0
 93 90  1  0
M  ISO  4   8 101   9 101  51 100  59 100
M  END
>  <TORSDO>  (82) 
F 21

>  <SCORE>  (82) 
-13.595

>  <name>  (82) 
81

>  <ligand_id>  (82) 
81

>  <original_smiles>  (82) 
[H]c1c([H])c([H])c2c(c1[H])C([H])([H])C([H])([H])C([H])([H])C2([H])N([H])C(=O)C1([H])N(C(=O)C([H])(N([H])C(=O)C([H])(N([H])C([H])([H])[H])C([H])([H])[H])C(C([H])([H])[H])(C([H])([H])[H])C([H])([H])[H])C([H])([H])c2c([H])c(OC([H])([H])C([H])([H])C3([H])C([H])([H])C([H])([H])C([H])(C([H])([H])[N+]([H])([H])[H])C([H])(C([H])([H])N([H])C(=O)N4C([H])([H])C([H])([H])C([H])([H])C([H])(n5nc(-c6c([H])c([H])c(Oc7c([H])c([H])c(F)c([H])c7F)c([H])c6[H])c(C(=O)N([H])[H])c5N([H])[H])C4([H])[H])C3([H])[H])c([H])c([H])c2C1([H])[H]

>  <smiles>  (82) 
[H]c1c([H])c([H])c2c(c1[H])C([H])([H])C([H])([H])C([H])([H])C2([H])N([H])C(=O)C1([H])N(C(=O)C([H])(N([H])C(=O)C([H])(N([H])C([H])([H])[H])C([H])([H])[H])C(C([H])([H])[H])(C([H])([H])[H])C([H])([H])[H])C([H])([H])c2c([H])c(OC([H])([H])C([H])([H])C3([H])C([H])([H])C([H])([H])C([H])(C([H])([H])[N+]([H])([H])[H])C([H])(C([H])([H])N([H])C(=O)N4C([H])([H])C([H])([H])C([H])([H])C([H])(n5nc(-c6c([H])c([H])c(Oc7c([H])c([H])c(F)c([H])c7F)c([H])c6[H])c(C(=O)N([H])[H])c5N([H])[H])C4([H])[H])C3([H])[H])c([H])c([H])c2C1([H])[H]

$$$$
82:0:0
     RDKit          3D

 95104  0  0  1  0  0  0  0  0999 V2000
  -26.3910  -19.8730   18.1370 C   0  0  0  0  0  2  0  0  0  0  0  0
  -28.5720  -18.7510   18.1670 C   0  0  0  0  0  2  0  0  0  0  0  0
  -27.7460  -21.5300   19.5100 C   0  0  0  0  0  2  0  0  0  0  0  0
  -27.0890  -20.1210   19.4890 C   0  0  0  0  0  3  0  0  0  0  0  0
  -28.0880  -18.9460   19.6040 C   0  0  0  0  0  3  0  0  0  0  0  0
  -27.2930  -18.9160   17.3320 C   0  0  0  0  0  3  0  0  0  0  0  0
  -28.6180  -21.7690   20.7550 C   0  0  0  0  0  3  0  0  0  0  0  0
  -29.1770  -19.0680   20.7000 C   0  0  0  0  0  3  0  0  0  0  0  0
  -29.6530  -20.5750   20.7900 N   0  0  0  0  0  4  0  0  0  0  0  0
  -30.1900  -20.6640   21.6380 H   0  0  0  0  0  0  0  0  0  0  0  0
  -30.3000  -20.7230   20.0340 H   0  0  0  0  0  0  0  0  0  0  0  0
  -28.6040  -18.5300   15.1670 C   0  0  0  0  0  1  0  0  0  0  0  0
  -27.5480  -19.3760   15.8880 C   0  0  0  0  0  2  0  0  0  0  0  0
  -29.0690  -23.4020   20.8810 C   0  0  0  0  0  3  0  0  0  0  0  0
  -28.0540  -24.7370   20.6630 C   0  0  0  0  0  3  0  0  0  0  0  0
  -28.3740  -26.2640   20.7550 O   0  0  0  0  0  0  0  0  0  0  0  0
  -24.7880  -32.1020   23.5100 C   0  0  0  0  0  0  0  0  0  0  0  0
  -27.3360  -27.2660   20.6500 C   0  0  0  0  0  0  0  0  0  0  0  0
  -23.5950  -30.6860   21.8830 C   0  0  0  0  0  3  0  0  0  0  0  0
  -25.0400  -29.0510   20.5290 C   0  0  0  0  0  0  0  0  0  0  0  0
  -26.1560  -30.9020   21.7620 C   0  0  0  0  0  2  0  0  0  0  0  0
  -26.2180  -29.4920   21.1470 C   0  0  0  0  0  0  0  0  0  0  0  0
  -27.3680  -28.6170   21.1870 C   0  0  0  0  0  3  0  0  0  0  0  0
  -26.1330  -26.9280   19.9920 C   0  0  0  0  0  3  0  0  0  0  0  0
  -25.0110  -27.7800   19.9370 C   0  0  0  0  0  3  0  0  0  0  0  0
  -23.8300  -29.9710   20.5270 C   0  0  0  0  0  2  0  0  0  0  0  0
  -24.8650  -31.2530   22.4390 N   0  0  0  0  0  0  0  0  0  0  0  0
  -23.6970  -32.4180   24.0080 O   0  0  0  0  0  0  0  0  0  0  0  0
  -22.8810  -29.7150   22.8560 C   0  0  0  0  0  0  0  0  0  0  0  0
  -21.5740  -29.4800   22.6400 N   0  0  0  0  0  0  0  0  0  0  0  0
  -23.5070  -29.1730   23.7710 O   0  0  0  0  0  0  0  0  0  0  0  0
  -21.1240  -29.9700   21.8810 H   0  0  0  0  0  0  0  0  0  0  0  0
  -18.2260  -28.1190   22.9180 C   0  0  0  0  0  0  0  0  0  0  0  0
  -20.7280  -28.5610   23.4080 C   0  0  0  0  0  3  0  0  0  0  0  0
  -20.9630  -27.0950   22.9790 C   0  0  0  0  0  2  0  0  0  0  0  0
  -19.9890  -26.6200   21.8960 C   0  0  0  0  0  2  0  0  0  0  0  0
  -18.5430  -26.7320   22.3860 C   0  0  0  0  0  2  0  0  0  0  0  0
  -19.2530  -28.9850   23.3840 C   0  0  0  0  0  0  0  0  0  0  0  0
  -18.9070  -30.2750   23.8390 C   0  0  0  0  0  3  0  0  0  0  0  0
  -17.5670  -30.7050   23.8330 C   0  0  0  0  0  3  0  0  0  0  0  0
  -16.5540  -29.8400   23.3840 C   0  0  0  0  0  3  0  0  0  0  0  0
  -16.8830  -28.5500   22.9330 C   0  0  0  0  0  3  0  0  0  0  0  0
  -26.0640  -32.7330   24.1440 C   0  0  0  0  0  3  0  0  0  0  0  0
  -26.5520  -31.9710   25.4380 C   0  0  1  0  0  0  0  0  0  0  0  0
  -25.4290  -31.7090   26.4680 C   0  0  0  0  0  1  0  0  0  0  0  0
  -27.1790  -30.6060   25.0710 C   0  0  0  0  0  1  0  0  0  0  0  0
  -27.6610  -32.7900   26.1400 C   0  0  0  0  0  1  0  0  0  0  0  0
  -25.7590  -34.1360   24.4620 N   0  0  0  0  0  0  0  0  0  0  0  0
  -26.0880  -35.1830   23.6930 C   0  0  0  0  0  0  0  0  0  0  0  0
  -26.7480  -35.0680   22.6570 O   0  0  0  0  0  0  0  0  0  0  0  0
  -25.1710  -34.2990   25.2670 H   0  0  0  0  0  0  0  0  0  0  0  0
  -24.3460  -36.9700   23.3680 C   0  0  0  0  0  1  0  0  0  0  0  0
  -25.6130  -36.5790   24.1450 C   0  0  0  0  0  3  0  0  0  0  0  0
  -27.7700  -37.4840   24.8930 C   0  0  0  0  0  1  0  0  0  0  0  0
  -26.6390  -37.6320   23.9810 N   0  0  0  0  0  0  0  0  0  0  0  0
  -26.2360  -38.5540   24.1220 H   0  0  0  0  0  0  0  0  0  0  0  0
  -30.2650  -17.7710   20.6300 C   0  0  0  0  0  2  0  0  0  0  0  0
  -30.6700  -15.0620   20.4590 C   0  0  0  0  0  0  0  0  0  0  0  0
  -30.5740  -12.7580   19.4140 C   0  0  0  0  0  2  0  0  0  0  0  0
  -29.6570  -12.7680   18.1690 C   0  0  0  0  0  2  0  0  0  0  0  0
  -28.1900  -12.5290   18.5720 C   0  0  0  0  0  2  0  0  0  0  0  0
  -27.7630  -13.3950   19.7850 C   0  0  0  0  0  3  0  0  0  0  0  0
  -28.8040  -13.3640   20.9250 C   0  0  0  0  0  2  0  0  0  0  0  0
  -30.0790  -13.8070   20.3500 N   0  0  0  0  0  0  0  0  0  0  0  0
  -31.8700  -15.1500   20.1820 O   0  0  0  0  0  0  0  0  0  0  0  0
  -29.8920  -16.2320   20.6710 N   0  0  0  0  0  0  0  0  0  0  0  0
  -28.9190  -16.0440   20.8590 H   0  0  0  0  0  0  0  0  0  0  0  0
  -25.3500  -13.9090   20.4660 C   0  0  0  0  0  0  0  0  0  0  0  0
  -24.3010  -13.1060   20.8170 C   0  0  0  0  0  0  0  0  0  0  0  0
  -24.8040  -11.7690   20.8050 C   0  0  0  0  0  0  0  0  0  0  0  0
  -26.4230  -13.0600   20.2550 N   0  0  0  0  0  0  0  0  0  0  0  0
  -26.1020  -11.7680   20.5250 N   0  0  0  0  0  0  0  0  0  0  0  0
  -24.1080  -10.4870   20.9840 C   0  0  0  0  0  0  0  0  0  0  0  0
  -24.5150   -9.5560   21.9660 C   0  0  0  0  0  3  0  0  0  0  0  0
  -23.8180   -8.3400   22.1310 C   0  0  0  0  0  3  0  0  0  0  0  0
  -22.6980   -8.0460   21.3150 C   0  0  0  0  0  0  0  0  0  0  0  0
  -22.3120   -8.9660   20.3250 C   0  0  0  0  0  3  0  0  0  0  0  0
  -23.0100  -10.1740   20.1580 C   0  0  0  0  0  3  0  0  0  0  0  0
  -21.9750   -6.8810   21.3890 O   0  0  0  0  0  0  0  0  0  0  0  0
  -21.8300   -6.1960   22.5700 C   0  0  0  0  0  0  0  0  0  0  0  0
  -21.2430   -6.7910   23.7070 C   0  0  0  0  0  3  0  0  0  0  0  0
  -21.0490   -6.0300   24.8790 C   0  0  0  0  0  3  0  0  0  0  0  0
  -21.4330   -4.6770   24.9110 C   0  0  0  0  0  0  0  0  0  0  0  0
  -22.0110   -4.0810   23.7770 C   0  0  0  0  0  3  0  0  0  0  0  0
  -22.2060   -4.8390   22.6080 C   0  0  0  0  0  0  0  0  0  0  0  0
  -22.7460   -4.2540   21.5110 F   0  0  0  0  0  0  0  0  0  0  0  0
  -21.2400   -3.9430   26.0320 F   0  0  0  0  0  0  0  0  0  0  0  0
  -22.8850  -13.5450   21.0500 C   0  0  0  0  0  0  0  0  0  0  0  0
  -22.1570  -12.8390   21.9090 N   0  0  0  0  0  0  0  0  0  0  0  0
  -22.4290  -14.5500   20.5050 O   0  0  0  0  0  0  0  0  0  0  0  0
  -22.5370  -12.0280   22.3730 H   0  0  0  0  0  0  0  0  0  0  0  0
  -21.2060  -13.1180   22.1080 H   0  0  0  0  0  0  0  0  0  0  0  0
  -25.4790  -15.2820   20.2790 N   0  0  0  0  0  0  0  0  0  0  0  0
  -24.6820  -15.9060   20.3450 H   0  0  0  0  0  0  0  0  0  0  0  0
  -26.2990  -15.7290   19.8930 H   0  0  0  0  0  0  0  0  0  0  0  0
  3  7  1  0
  4  1  1  0
  4  3  1  0
  4  5  1  0
  5  2  1  0
  5  8  1  0
  6 13  1  0
  6  1  1  0
  6  2  1  0
  7  9  1  0
  7 14  1  0
  8 57  1  0
  8  9  1  0
  9 10  1  0
 11  9  1  0
 12 13  1  0
 15 16  1  0
 15 14  2  0
 17 28  2  0
 18 16  1  0
 18 23  1  0
 19 27  1  0
 19 29  1  0
 20 22  1  0
 21 27  1  0
 22 23  2  0
 22 21  1  0
 24 18  2  0
 25 24  1  0
 25 20  2  0
 26 20  1  0
 26 19  1  0
 27 17  1  0
 29 31  2  0
 30 29  1  0
 32 30  1  0
 33 42  2  0
 33 38  1  0
 34 30  1  0
 35 34  1  0
 36 37  1  0
 36 35  1  0
 37 33  1  0
 38 34  1  0
 38 39  2  0
 40 39  1  0
 41 40  2  0
 42 41  1  0
 43 17  1  0
 43 48  1  0
 43 44  1  0
 44 47  1  1
 44 45  1  0
 46 44  1  0
 48 51  1  0
 49 53  1  0
 49 48  1  0
 50 49  2  0
 53 52  1  0
 55 56  1  0
 55 53  1  0
 55 54  1  0
 57 66  1  0
 58 66  1  0
 59 64  1  0
 60 61  1  0
 60 59  1  0
 62 61  1  0
 62 71  1  0
 62 63  1  0
 64 58  1  0
 64 63  1  0
 65 58  2  0
 66 67  1  0
 68 69  2  0
 69 88  1  0
 70 69  1  0
 70 73  1  0
 71 68  1  0
 71 72  1  0
 72 70  2  0
 73 74  1  0
 74 75  2  0
 76 79  1  0
 76 75  1  0
 77 76  2  0
 78 77  1  0
 78 73  2  0
 79 80  1  0
 80 85  2  0
 80 81  1  0
 81 82  2  0
 82 83  1  0
 83 87  1  0
 84 83  2  0
 85 84  1  0
 86 85  1  0
 88 89  1  0
 89 92  1  0
 89 91  1  0
 90 88  2  0
 93 94  1  0
 93 68  1  0
 95 93  1  0
M  ISO  4  15 101  16 101  58 100  66 100
M  END
>  <TORSDO>  (83) 
F 20

>  <SCORE>  (83) 
-13.857

>  <name>  (83) 
82

>  <ligand_id>  (83) 
82

>  <original_smiles>  (83) 
[H]c1c([H])c([H])c2c(c1[H])C([H])([H])C([H])([H])C([H])([H])C2([H])N([H])C(=O)C1([H])N(C(=O)C([H])(N([H])C(=O)C([H])(N([H])C([H])([H])[H])C([H])([H])[H])C(C([H])([H])[H])(C([H])([H])[H])C([H])([H])[H])C([H])([H])c2c([H])c(OC([H])([H])C([H])([H])C3([H])C([H])([H])C4([H])C([H])([H])C([H])(C([H])([H])C([H])([H])[H])C([H])([H])C4([H])C([H])(C([H])([H])N([H])C(=O)N4C([H])([H])C([H])([H])C([H])([H])C([H])(n5nc(-c6c([H])c([H])c(Oc7c([H])c([H])c(F)c([H])c7F)c([H])c6[H])c(C(=O)N([H])[H])c5N([H])[H])C4([H])[H])[N+]3([H])[H])c([H])c([H])c2C1([H])[H]

>  <smiles>  (83) 
[H]c1c([H])c([H])c2c(c1[H])C([H])([H])C([H])([H])C([H])([H])C2([H])N([H])C(=O)C1([H])N(C(=O)C([H])(N([H])C(=O)C([H])(N([H])C([H])([H])[H])C([H])([H])[H])C(C([H])([H])[H])(C([H])([H])[H])C([H])([H])[H])C([H])([H])c2c([H])c(OC([H])([H])C([H])([H])C3([H])C([H])([H])C4([H])C([H])([H])C([H])(C([H])([H])C([H])([H])[H])C([H])([H])C4([H])C([H])(C([H])([H])N([H])C(=O)N4C([H])([H])C([H])([H])C([H])([H])C([H])(n5nc(-c6c([H])c([H])c(Oc7c([H])c([H])c(F)c([H])c7F)c([H])c6[H])c(C(=O)N([H])[H])c5N([H])[H])C4([H])[H])[N+]3([H])[H])c([H])c([H])c2C1([H])[H]

$$$$
83:0:0
     RDKit          3D

 92100  0  0  1  0  0  0  0  0999 V2000
  -28.6740  -21.5420   20.1400 C   0  0  0  0  0  0  0  0  0  0  0  0
  -29.1720  -22.8020   20.2980 N   0  0  0  0  0  0  0  0  0  0  0  0
  -27.4640  -21.3660   19.9990 O   0  0  0  0  0  0  0  0  0  0  0  0
  -30.1800  -22.8670   20.3620 H   0  0  0  0  0  0  0  0  0  0  0  0
  -29.5740  -17.8750   19.0440 C   0  0  0  0  0  0  0  0  0  0  0  0
  -29.6060  -19.4230   18.8790 C   0  0  0  0  0  2  0  0  0  0  0  0
  -30.0860  -18.0150   21.5000 C   0  0  0  0  0  2  0  0  0  0  0  0
  -29.2550  -19.3420   21.3940 C   0  0  0  0  0  2  0  0  0  0  0  0
  -30.4160  -17.2290   20.1820 C   0  0  0  0  0  3  0  0  0  0  0  0
  -29.6170  -20.2740   20.1960 C   0  0  0  0  0  3  0  0  0  0  0  0
  -28.8910  -17.2030   18.2690 O   0  0  0  0  0  0  0  0  0  0  0  0
  -30.8930  -14.6970   19.9310 C   0  0  0  0  0  0  0  0  0  0  0  0
  -30.6300  -12.4380   18.9340 C   0  0  0  0  0  2  0  0  0  0  0  0
  -29.6160  -12.5480   17.7740 C   0  0  0  0  0  2  0  0  0  0  0  0
  -28.1720  -12.3880   18.2920 C   0  0  0  0  0  2  0  0  0  0  0  0
  -27.8830  -13.2720   19.5360 C   0  0  0  0  0  3  0  0  0  0  0  0
  -29.0090  -13.1470   20.5860 C   0  0  0  0  0  2  0  0  0  0  0  0
  -30.2780  -13.4760   19.9210 N   0  0  0  0  0  0  0  0  0  0  0  0
  -32.0170  -14.8610   19.4450 O   0  0  0  0  0  0  0  0  0  0  0  0
  -30.1370  -15.7560   20.3380 N   0  0  0  0  0  0  0  0  0  0  0  0
  -29.2060  -15.5210   20.6440 H   0  0  0  0  0  0  0  0  0  0  0  0
  -25.5690  -13.8840   20.4720 C   0  0  0  0  0  0  0  0  0  0  0  0
  -24.5160  -13.1150   20.8900 C   0  0  0  0  0  0  0  0  0  0  0  0
  -24.9420  -11.7580   20.7550 C   0  0  0  0  0  0  0  0  0  0  0  0
  -26.5690  -12.9960   20.1100 N   0  0  0  0  0  0  0  0  0  0  0  0
  -26.2020  -11.7090   20.3390 N   0  0  0  0  0  0  0  0  0  0  0  0
  -24.2020  -10.5020   20.9420 C   0  0  0  0  0  0  0  0  0  0  0  0
  -24.6120   -9.5400   21.8880 C   0  0  0  0  0  3  0  0  0  0  0  0
  -23.8750   -8.3480   22.0630 C   0  0  0  0  0  3  0  0  0  0  0  0
  -22.7130   -8.1110   21.2900 C   0  0  0  0  0  0  0  0  0  0  0  0
  -22.3220   -9.0650   20.3330 C   0  0  0  0  0  3  0  0  0  0  0  0
  -23.0590  -10.2480   20.1570 C   0  0  0  0  0  3  0  0  0  0  0  0
  -21.9510   -6.9710   21.3710 O   0  0  0  0  0  0  0  0  0  0  0  0
  -21.7830   -6.3020   22.5570 C   0  0  0  0  0  0  0  0  0  0  0  0
  -21.1810   -6.9120   23.6800 C   0  0  0  0  0  3  0  0  0  0  0  0
  -20.9630   -6.1650   24.8540 C   0  0  0  0  0  3  0  0  0  0  0  0
  -21.3360   -4.8080   24.9060 C   0  0  0  0  0  0  0  0  0  0  0  0
  -21.9310   -4.1980   23.7890 C   0  0  0  0  0  3  0  0  0  0  0  0
  -22.1510   -4.9430   22.6170 C   0  0  0  0  0  0  0  0  0  0  0  0
  -22.7030   -4.3420   21.5340 F   0  0  0  0  0  0  0  0  0  0  0  0
  -21.1210   -4.0890   26.0340 F   0  0  0  0  0  0  0  0  0  0  0  0
  -23.1560  -13.6060   21.2940 C   0  0  0  0  0  0  0  0  0  0  0  0
  -22.4760  -12.8810   22.1760 N   0  0  0  0  0  0  0  0  0  0  0  0
  -22.7070  -14.6680   20.8640 O   0  0  0  0  0  0  0  0  0  0  0  0
  -22.8510  -12.0220   22.5530 H   0  0  0  0  0  0  0  0  0  0  0  0
  -21.5620  -13.1910   22.4780 H   0  0  0  0  0  0  0  0  0  0  0  0
  -25.7510  -15.2580   20.3500 N   0  0  0  0  0  0  0  0  0  0  0  0
  -25.0050  -15.9140   20.5460 H   0  0  0  0  0  0  0  0  0  0  0  0
  -26.5630  -15.6960   19.9330 H   0  0  0  0  0  0  0  0  0  0  0  0
  -28.4300  -24.0700   20.6340 C   0  0  0  0  0  2  0  0  0  0  0  0
  -28.6560  -25.3190   19.6890 C   0  0  0  0  0  2  0  0  0  0  0  0
  -28.5370  -26.6720   20.2530 O   0  0  0  0  0  0  0  0  0  0  0  0
  -24.7310  -31.9000   23.3580 C   0  0  0  0  0  0  0  0  0  0  0  0
  -27.3690  -27.4370   20.2100 C   0  0  0  0  0  0  0  0  0  0  0  0
  -23.5330  -30.5340   21.6830 C   0  0  0  0  0  3  0  0  0  0  0  0
  -24.9880  -29.0130   20.2300 C   0  0  0  0  0  0  0  0  0  0  0  0
  -26.0680  -30.8670   21.5110 C   0  0  0  0  0  2  0  0  0  0  0  0
  -26.1490  -29.5050   20.8380 C   0  0  0  0  0  0  0  0  0  0  0  0
  -27.3380  -28.7260   20.8200 C   0  0  0  0  0  3  0  0  0  0  0  0
  -26.1840  -26.9820   19.5910 C   0  0  0  0  0  3  0  0  0  0  0  0
  -25.0060  -27.7570   19.6000 C   0  0  0  0  0  3  0  0  0  0  0  0
  -23.7470  -29.8820   20.2910 C   0  0  0  0  0  2  0  0  0  0  0  0
  -24.7960  -31.1180   22.2410 N   0  0  0  0  0  0  0  0  0  0  0  0
  -23.6480  -32.1630   23.8980 O   0  0  0  0  0  0  0  0  0  0  0  0
  -22.8720  -29.4960   22.6210 C   0  0  0  0  0  0  0  0  0  0  0  0
  -21.5490  -29.3130   22.4810 N   0  0  0  0  0  0  0  0  0  0  0  0
  -23.5490  -28.8590   23.4330 O   0  0  0  0  0  0  0  0  0  0  0  0
  -21.0620  -29.8820   21.8020 H   0  0  0  0  0  0  0  0  0  0  0  0
  -18.1770  -28.0840   22.9170 C   0  0  0  0  0  0  0  0  0  0  0  0
  -20.7290  -28.3570   23.2260 C   0  0  0  0  0  3  0  0  0  0  0  0
  -20.8500  -26.9360   22.6300 C   0  0  0  0  0  2  0  0  0  0  0  0
  -19.7640  -26.6200   21.5960 C   0  0  0  0  0  2  0  0  0  0  0  0
  -18.3730  -26.7460   22.2240 C   0  0  0  0  0  2  0  0  0  0  0  0
  -19.2830  -28.8480   23.3730 C   0  0  0  0  0  0  0  0  0  0  0  0
  -19.0480  -30.1010   23.9780 C   0  0  0  0  0  3  0  0  0  0  0  0
  -17.7370  -30.5910   24.1330 C   0  0  0  0  0  3  0  0  0  0  0  0
  -16.6440  -29.8230   23.6940 C   0  0  0  0  0  3  0  0  0  0  0  0
  -16.8650  -28.5710   23.0920 C   0  0  0  0  0  3  0  0  0  0  0  0
  -26.0130  -32.5190   23.9960 C   0  0  0  0  0  3  0  0  0  0  0  0
  -26.5350  -31.7120   25.2490 C   0  0  1  0  0  0  0  0  0  0  0  0
  -25.4440  -31.4280   26.3070 C   0  0  0  0  0  1  0  0  0  0  0  0
  -27.1310  -30.3540   24.8140 C   0  0  0  0  0  1  0  0  0  0  0  0
  -27.6740  -32.4980   25.9410 C   0  0  0  0  0  1  0  0  0  0  0  0
  -25.6970  -33.9050   24.3680 N   0  0  0  0  0  0  0  0  0  0  0  0
  -26.0160  -34.9820   23.6380 C   0  0  0  0  0  0  0  0  0  0  0  0
  -26.6760  -34.9130   22.5970 O   0  0  0  0  0  0  0  0  0  0  0  0
  -25.1100  -34.0320   25.1780 H   0  0  0  0  0  0  0  0  0  0  0  0
  -24.2760  -36.7760   23.3490 C   0  0  0  0  0  1  0  0  0  0  0  0
  -25.5250  -36.3540   24.1390 C   0  0  0  0  0  3  0  0  0  0  0  0
  -27.6560  -37.2330   24.9870 C   0  0  0  0  0  1  0  0  0  0  0  0
  -26.5510  -37.4160   24.0510 N   0  0  0  0  0  0  0  0  0  0  0  0
  -26.1390  -38.3300   24.2220 H   0  0  0  0  0  0  0  0  0  0  0  0
  1  2  1  0
  2  4  1  0
  2 50  1  0
  3  1  2  0
  5  9  1  0
  6  5  1  0
  6 10  1  0
  8  7  1  0
  9 20  1  0
  9  7  1  0
 10  1  1  0
 10  8  1  0
 11  5  2  0
 12 20  1  0
 13 18  1  0
 14 15  1  0
 14 13  1  0
 16 15  1  0
 16 25  1  0
 16 17  1  0
 18 12  1  0
 18 17  1  0
 19 12  2  0
 20 21  1  0
 22 23  2  0
 23 42  1  0
 24 23  1  0
 24 27  1  0
 25 26  1  0
 25 22  1  0
 26 24  2  0
 27 28  1  0
 28 29  2  0
 30 33  1  0
 30 29  1  0
 31 30  2  0
 32 31  1  0
 32 27  2  0
 33 34  1  0
 34 39  2  0
 34 35  1  0
 35 36  2  0
 36 37  1  0
 37 41  1  0
 38 37  2  0
 39 38  1  0
 40 39  1  0
 42 43  1  0
 43 46  1  0
 43 45  1  0
 44 42  2  0
 47 22  1  0
 47 48  1  0
 49 47  1  0
 51 52  1  0
 51 50  1  0
 53 64  2  0
 54 52  1  0
 54 59  1  0
 55 63  1  0
 55 65  1  0
 56 62  1  0
 56 58  1  0
 57 63  1  0
 58 57  1  0
 59 58  2  0
 60 61  1  0
 60 54  2  0
 61 56  2  0
 62 55  1  0
 63 53  1  0
 65 67  2  0
 66 65  1  0
 68 66  1  0
 69 78  2  0
 69 74  1  0
 70 66  1  0
 70 74  1  0
 71 70  1  0
 72 73  1  0
 72 71  1  0
 73 69  1  0
 74 75  2  0
 75 76  1  0
 77 76  2  0
 78 77  1  0
 79 53  1  0
 79 84  1  0
 79 80  1  0
 80 83  1  1
 80 81  1  0
 82 80  1  0
 84 87  1  0
 85 89  1  0
 85 84  1  0
 86 85  2  0
 89 88  1  0
 91 89  1  0
 91 92  1  0
 91 90  1  0
M  ISO  4  12 100  20 100  51 101  52 101
M  END
>  <TORSDO>  (84) 
F 19

>  <SCORE>  (84) 
-13.061

>  <name>  (84) 
83

>  <ligand_id>  (84) 
83

>  <original_smiles>  (84) 
[H]c1c([H])c([H])c2c(c1[H])C([H])([H])C([H])([H])C([H])([H])C2([H])N([H])C(=O)C1([H])N(C(=O)C([H])(N([H])C(=O)C([H])(N([H])C([H])([H])[H])C([H])([H])[H])C(C([H])([H])[H])(C([H])([H])[H])C([H])([H])[H])C([H])([H])c2c([H])c(OC([H])([H])C([H])([H])N([H])C(=O)C3([H])C([H])([H])C(=O)C([H])(N([H])C(=O)N4C([H])([H])C([H])([H])C([H])([H])C([H])(n5nc(-c6c([H])c([H])c(Oc7c([H])c([H])c(F)c([H])c7F)c([H])c6[H])c(C(=O)N([H])[H])c5N([H])[H])C4([H])[H])C([H])([H])C3([H])[H])c([H])c([H])c2C1([H])[H]

>  <smiles>  (84) 
[H]c1c([H])c([H])c2c(c1[H])C([H])([H])C([H])([H])C([H])([H])C2([H])N([H])C(=O)C1([H])N(C(=O)C([H])(N([H])C(=O)C([H])(N([H])C([H])([H])[H])C([H])([H])[H])C(C([H])([H])[H])(C([H])([H])[H])C([H])([H])[H])C([H])([H])c2c([H])c(OC([H])([H])C([H])([H])N([H])C(=O)C3([H])C([H])([H])C(=O)C([H])(N([H])C(=O)N4C([H])([H])C([H])([H])C([H])([H])C([H])(n5nc(-c6c([H])c([H])c(Oc7c([H])c([H])c(F)c([H])c7F)c([H])c6[H])c(C(=O)N([H])[H])c5N([H])[H])C4([H])[H])C([H])([H])C3([H])[H])c([H])c([H])c2C1([H])[H]

$$$$
84:0:0
     RDKit          3D

 92 99  0  0  1  0  0  0  0  0999 V2000
  -29.4420  -21.1660   20.5520 C   0  0  0  0  0  2  0  0  0  0  0  0
  -28.4660  -22.4200   20.4070 C   0  0  0  0  0  3  0  0  0  0  0  0
  -29.0360  -23.9100   20.4390 C   0  0  0  0  0  3  0  0  0  0  0  0
  -27.5080  -25.0930   22.1260 C   0  0  0  0  0  1  0  0  0  0  0  0
  -27.9550  -25.0560   20.6490 C   0  0  0  0  0  3  0  0  0  0  0  0
  -28.2830  -26.4500   20.2600 O   0  0  0  0  0  0  0  0  0  0  0  0
  -24.6070  -31.8800   23.2390 C   0  0  0  0  0  0  0  0  0  0  0  0
  -27.1990  -27.3340   20.1700 C   0  0  0  0  0  0  0  0  0  0  0  0
  -23.4000  -30.4870   21.6030 C   0  0  0  0  0  3  0  0  0  0  0  0
  -24.8440  -28.9490   20.1650 C   0  0  0  0  0  0  0  0  0  0  0  0
  -25.9420  -30.7960   21.4260 C   0  0  0  0  0  2  0  0  0  0  0  0
  -26.0140  -29.4270   20.7690 C   0  0  0  0  0  0  0  0  0  0  0  0
  -27.1960  -28.6300   20.7670 C   0  0  0  0  0  3  0  0  0  0  0  0
  -26.0160  -26.9230   19.5130 C   0  0  0  0  0  3  0  0  0  0  0  0
  -24.8480  -27.7020   19.5240 C   0  0  0  0  0  3  0  0  0  0  0  0
  -23.6090  -29.8210   20.2210 C   0  0  0  0  0  2  0  0  0  0  0  0
  -24.6690  -31.0710   22.1440 N   0  0  0  0  0  0  0  0  0  0  0  0
  -23.5240  -32.1570   23.7740 O   0  0  0  0  0  0  0  0  0  0  0  0
  -22.7420  -29.4670   22.5600 C   0  0  0  0  0  0  0  0  0  0  0  0
  -21.4160  -29.2860   22.4330 N   0  0  0  0  0  0  0  0  0  0  0  0
  -23.4220  -28.8450   23.3820 O   0  0  0  0  0  0  0  0  0  0  0  0
  -20.9310  -29.8230   21.7270 H   0  0  0  0  0  0  0  0  0  0  0  0
  -18.0400  -28.0960   22.9410 C   0  0  0  0  0  0  0  0  0  0  0  0
  -20.5990  -28.3510   23.2050 C   0  0  0  0  0  3  0  0  0  0  0  0
  -20.6970  -26.9180   22.6280 C   0  0  0  0  0  2  0  0  0  0  0  0
  -19.5920  -26.6010   21.6170 C   0  0  0  0  0  2  0  0  0  0  0  0
  -18.2130  -26.7490   22.2610 C   0  0  0  0  0  2  0  0  0  0  0  0
  -19.1600  -28.8570   23.3680 C   0  0  0  0  0  0  0  0  0  0  0  0
  -18.9450  -30.1200   23.9590 C   0  0  0  0  0  3  0  0  0  0  0  0
  -17.6400  -30.6240   24.1290 C   0  0  0  0  0  3  0  0  0  0  0  0
  -16.5340  -29.8590   23.7180 C   0  0  0  0  0  3  0  0  0  0  0  0
  -16.7350  -28.5980   23.1280 C   0  0  0  0  0  3  0  0  0  0  0  0
  -25.8910  -32.5120   23.8610 C   0  0  0  0  0  3  0  0  0  0  0  0
  -26.4050  -31.7390   25.1380 C   0  0  1  0  0  0  0  0  0  0  0  0
  -25.3080  -31.5030   26.2040 C   0  0  0  0  0  1  0  0  0  0  0  0
  -26.9870  -30.3610   24.7470 C   0  0  0  0  0  1  0  0  0  0  0  0
  -27.5600  -32.5300   25.7950 C   0  0  0  0  0  1  0  0  0  0  0  0
  -25.5800  -33.9090   24.1900 N   0  0  0  0  0  0  0  0  0  0  0  0
  -25.9120  -34.9630   23.4310 C   0  0  0  0  0  0  0  0  0  0  0  0
  -26.5780  -34.8580   22.3990 O   0  0  0  0  0  0  0  0  0  0  0  0
  -24.9940  -34.0640   24.9970 H   0  0  0  0  0  0  0  0  0  0  0  0
  -24.1830  -36.7530   23.0830 C   0  0  0  0  0  1  0  0  0  0  0  0
  -25.4280  -36.3520   23.8900 C   0  0  0  0  0  3  0  0  0  0  0  0
  -27.5670  -37.2330   24.7110 C   0  0  0  0  0  1  0  0  0  0  0  0
  -26.4620  -37.4040   23.7710 N   0  0  0  0  0  0  0  0  0  0  0  0
  -26.0600  -38.3260   23.9180 H   0  0  0  0  0  0  0  0  0  0  0  0
  -28.8650  -19.7200   20.1770 C   0  0  0  0  0  3  0  0  0  0  0  0
  -29.5880  -18.4280   20.8300 C   0  0  0  0  0  2  0  0  0  0  0  0
  -29.8940  -17.0910   20.0020 C   0  0  0  0  0  2  0  0  0  0  0  0
  -30.6130  -14.6530   20.3400 C   0  0  0  0  0  0  0  0  0  0  0  0
  -30.3580  -12.4250   19.2820 C   0  0  0  0  0  2  0  0  0  0  0  0
  -29.4140  -12.5780   18.0700 C   0  0  0  0  0  2  0  0  0  0  0  0
  -27.9470  -12.4080   18.5040 C   0  0  0  0  0  2  0  0  0  0  0  0
  -27.5960  -13.2710   19.7470 C   0  0  0  0  0  3  0  0  0  0  0  0
  -28.6590  -13.1220   20.8640 C   0  0  0  0  0  2  0  0  0  0  0  0
  -29.9720  -13.4440   20.2840 N   0  0  0  0  0  0  0  0  0  0  0  0
  -31.7470  -14.7920   19.8730 O   0  0  0  0  0  0  0  0  0  0  0  0
  -29.8690  -15.7490   20.6910 N   0  0  0  0  0  0  0  0  0  0  0  0
  -29.0050  -15.5320   21.1700 H   0  0  0  0  0  0  0  0  0  0  0  0
  -25.2050  -13.8710   20.4670 C   0  0  0  0  0  0  0  0  0  0  0  0
  -24.1400  -13.1000   20.8470 C   0  0  0  0  0  0  0  0  0  0  0  0
  -24.6040  -11.7500   20.8190 C   0  0  0  0  0  0  0  0  0  0  0  0
  -26.2490  -12.9910   20.2330 N   0  0  0  0  0  0  0  0  0  0  0  0
  -25.8930  -11.7090   20.5030 N   0  0  0  0  0  0  0  0  0  0  0  0
  -23.8790  -10.4860   21.0170 C   0  0  0  0  0  0  0  0  0  0  0  0
  -24.3190   -9.5190   21.9450 C   0  0  0  0  0  3  0  0  0  0  0  0
  -23.5920   -8.3240   22.1330 C   0  0  0  0  0  3  0  0  0  0  0  0
  -22.4080   -8.0880   21.3970 C   0  0  0  0  0  0  0  0  0  0  0  0
  -21.9860   -9.0450   20.4580 C   0  0  0  0  0  3  0  0  0  0  0  0
  -22.7130  -10.2320   20.2680 C   0  0  0  0  0  3  0  0  0  0  0  0
  -21.6540   -6.9450   21.4960 O   0  0  0  0  0  0  0  0  0  0  0  0
  -21.6280   -6.1940   22.6460 C   0  0  0  0  0  0  0  0  0  0  0  0
  -21.2360   -6.7440   23.8840 C   0  0  0  0  0  3  0  0  0  0  0  0
  -21.1550   -5.9210   25.0250 C   0  0  0  0  0  3  0  0  0  0  0  0
  -21.4580   -4.5510   24.9280 C   0  0  0  0  0  0  0  0  0  0  0  0
  -21.8410   -3.9990   23.6930 C   0  0  0  0  0  3  0  0  0  0  0  0
  -21.9220   -4.8190   22.5530 C   0  0  0  0  0  0  0  0  0  0  0  0
  -22.2740   -4.2800   21.3610 F   0  0  0  0  0  0  0  0  0  0  0  0
  -21.3700   -3.7570   26.0220 F   0  0  0  0  0  0  0  0  0  0  0  0
  -22.7450  -13.5800   21.1230 C   0  0  0  0  0  0  0  0  0  0  0  0
  -22.0220  -12.8900   21.9960 N   0  0  0  0  0  0  0  0  0  0  0  0
  -22.3090  -14.6040   20.6000 O   0  0  0  0  0  0  0  0  0  0  0  0
  -22.3950  -12.0690   22.4480 H   0  0  0  0  0  0  0  0  0  0  0  0
  -21.0860  -13.1910   22.2260 H   0  0  0  0  0  0  0  0  0  0  0  0
  -25.3600  -15.2430   20.2840 N   0  0  0  0  0  0  0  0  0  0  0  0
  -24.5770  -15.8750   20.4060 H   0  0  0  0  0  0  0  0  0  0  0  0
  -26.1950  -15.7010   19.9410 H   0  0  0  0  0  0  0  0  0  0  0  0
  -28.5900  -19.6470   18.6400 C   0  0  0  0  0  2  0  0  0  0  0  0
  -27.1500  -19.7170   18.3170 N   0  0  0  0  0  4  0  0  0  0  0  0
  -26.6410  -18.9740   18.7610 H   0  0  0  0  0  0  0  0  0  0  0  0
  -27.0080  -19.6380   17.3250 H   0  0  0  0  0  0  0  0  0  0  0  0
  -26.7550  -20.5950   18.6050 H   0  0  0  0  0  0  0  0  0  0  0  0
  2  3  2  0
  2  1  1  0
  3  5  1  0
  5  4  1  0
  6  5  1  0
  7 18  2  0
  8  6  1  0
  8 13  1  0
  9 17  1  0
  9 19  1  0
 10 16  1  0
 10 12  1  0
 11 17  1  0
 12 11  1  0
 13 12  2  0
 14 15  1  0
 14  8  2  0
 15 10  2  0
 16  9  1  0
 17  7  1  0
 19 21  2  0
 20 19  1  0
 22 20  1  0
 23 32  2  0
 23 28  1  0
 24 20  1  0
 24 28  1  0
 25 24  1  0
 26 27  1  0
 26 25  1  0
 27 23  1  0
 28 29  2  0
 29 30  1  0
 31 30  2  0
 32 31  1  0
 33  7  1  0
 33 38  1  0
 33 34  1  0
 34 37  1  1
 34 35  1  0
 36 34  1  0
 38 41  1  0
 39 43  1  0
 39 38  1  0
 40 39  2  0
 43 42  1  0
 45 43  1  0
 45 46  1  0
 45 44  1  0
 47 88  1  0
 47  1  1  0
 47 48  1  0
 49 58  1  0
 49 48  1  0
 50 58  1  0
 51 56  1  0
 52 53  1  0
 52 51  1  0
 54 53  1  0
 54 63  1  0
 54 55  1  0
 56 50  1  0
 56 55  1  0
 57 50  2  0
 58 59  1  0
 60 61  2  0
 61 80  1  0
 62 61  1  0
 62 65  1  0
 63 60  1  0
 63 64  1  0
 64 62  2  0
 65 66  1  0
 66 67  2  0
 68 71  1  0
 68 67  1  0
 69 68  2  0
 70 69  1  0
 70 65  2  0
 71 72  1  0
 72 73  1  0
 73 74  2  0
 75 74  1  0
 75 79  1  0
 76 75  2  0
 77 72  2  0
 77 76  1  0
 78 77  1  0
 80 81  1  0
 81 84  1  0
 81 83  1  0
 82 80  2  0
 85 86  1  0
 85 60  1  0
 87 85  1  0
 89 92  1  0
 89 88  1  0
 89 90  1  0
 91 89  1  0
M  ISO  4   5 101   6 101  50 100  58 100
M  END
>  <TORSDO>  (85) 
F 24

>  <SCORE>  (85) 
-12.608

>  <name>  (85) 
84

>  <ligand_id>  (85) 
84

>  <original_smiles>  (85) 
[H]c1c([H])c([H])c2c(c1[H])C([H])([H])C([H])([H])C([H])([H])C2([H])N([H])C(=O)C1([H])N(C(=O)C([H])(N([H])C(=O)C([H])(N([H])C([H])([H])[H])C([H])([H])[H])C(C([H])([H])[H])(C([H])([H])[H])C([H])([H])[H])C([H])([H])c2c([H])c(OC([H])(C([H])([H])[H])C([H])([H])C([H])([H])C([H])([H])C([H])(C([H])([H])C([H])([H])N([H])C(=O)N3C([H])([H])C([H])([H])C([H])([H])C([H])(n4nc(-c5c([H])c([H])c(Oc6c([H])c([H])c(F)c([H])c6F)c([H])c5[H])c(C(=O)N([H])[H])c4N([H])[H])C3([H])[H])C([H])([H])[N+]([H])([H])[H])c([H])c([H])c2C1([H])[H]

>  <smiles>  (85) 
[H]c1c([H])c([H])c2c(c1[H])C([H])([H])C([H])([H])C([H])([H])C2([H])N([H])C(=O)C1([H])N(C(=O)C([H])(N([H])C(=O)C([H])(N([H])C([H])([H])[H])C([H])([H])[H])C(C([H])([H])[H])(C([H])([H])[H])C([H])([H])[H])C([H])([H])c2c([H])c(OC([H])(C([H])([H])[H])C([H])([H])C([H])([H])C([H])([H])C([H])(C([H])([H])C([H])([H])N([H])C(=O)N3C([H])([H])C([H])([H])C([H])([H])C([H])(n4nc(-c5c([H])c([H])c(Oc6c([H])c([H])c(F)c([H])c6F)c([H])c5[H])c(C(=O)N([H])[H])c4N([H])[H])C3([H])[H])C([H])([H])[N+]([H])([H])[H])c([H])c([H])c2C1([H])[H]

$$$$
85:0:0
     RDKit          3D

 94101  0  0  1  0  0  0  0  0999 V2000
  -27.7080  -23.8690   24.0600 C   0  0  0  0  0  2  0  0  0  0  0  0
  -26.3730  -23.7310   23.3100 C   0  0  0  0  0  2  0  0  0  0  0  0
  -26.4920  -23.5610   21.7830 C   0  0  0  0  0  2  0  0  0  0  0  0
  -26.8600  -24.8380   21.0100 C   0  0  0  0  0  2  0  0  0  0  0  0
  -28.3630  -25.1780   20.9490 C   0  0  0  0  0  2  0  0  0  0  0  0
  -28.7840  -26.0660   19.7500 C   0  0  0  0  0  2  0  0  0  0  0  0
  -28.7420  -27.4720   20.0150 O   0  0  0  0  0  0  0  0  0  0  0  0
  -24.7320  -32.2310   23.4070 C   0  0  0  0  0  0  0  0  0  0  0  0
  -27.5290  -28.1290   20.0190 C   0  0  0  0  0  0  0  0  0  0  0  0
  -23.5670  -30.8850   21.6850 C   0  0  0  0  0  3  0  0  0  0  0  0
  -25.0690  -29.5130   20.1480 C   0  0  0  0  0  0  0  0  0  0  0  0
  -26.0690  -31.3680   21.4910 C   0  0  0  0  0  2  0  0  0  0  0  0
  -26.2050  -30.0470   20.7670 C   0  0  0  0  0  0  0  0  0  0  0  0
  -27.4350  -29.3570   20.7090 C   0  0  0  0  0  3  0  0  0  0  0  0
  -26.3820  -27.6310   19.3570 C   0  0  0  0  0  3  0  0  0  0  0  0
  -25.1500  -28.3030   19.4420 C   0  0  0  0  0  3  0  0  0  0  0  0
  -23.7900  -30.3070   20.2600 C   0  0  0  0  0  2  0  0  0  0  0  0
  -24.8070  -31.5050   22.2540 N   0  0  0  0  0  0  0  0  0  0  0  0
  -23.6470  -32.4210   23.9720 O   0  0  0  0  0  0  0  0  0  0  0  0
  -22.9720  -29.7750   22.5830 C   0  0  0  0  0  0  0  0  0  0  0  0
  -21.6530  -29.5570   22.4690 N   0  0  0  0  0  0  0  0  0  0  0  0
  -23.6940  -29.1200   23.3370 O   0  0  0  0  0  0  0  0  0  0  0  0
  -21.1250  -30.1470   21.8400 H   0  0  0  0  0  0  0  0  0  0  0  0
  -18.3350  -28.2080   22.9300 C   0  0  0  0  0  0  0  0  0  0  0  0
  -20.8860  -28.5380   23.1850 C   0  0  0  0  0  3  0  0  0  0  0  0
  -21.0290  -27.1530   22.5140 C   0  0  0  0  0  2  0  0  0  0  0  0
  -19.9260  -26.8600   21.4930 C   0  0  0  0  0  2  0  0  0  0  0  0
  -18.5470  -26.9170   22.1600 C   0  0  0  0  0  2  0  0  0  0  0  0
  -19.4330  -28.9790   23.3970 C   0  0  0  0  0  0  0  0  0  0  0  0
  -19.1830  -30.1910   24.0730 C   0  0  0  0  0  3  0  0  0  0  0  0
  -17.8640  -30.6370   24.2870 C   0  0  0  0  0  3  0  0  0  0  0  0
  -16.7800  -29.8640   23.8390 C   0  0  0  0  0  3  0  0  0  0  0  0
  -17.0170  -28.6500   23.1670 C   0  0  0  0  0  3  0  0  0  0  0  0
  -25.9980  -32.8760   24.0520 C   0  0  0  0  0  3  0  0  0  0  0  0
  -26.5280  -32.0830   25.3100 C   0  0  1  0  0  0  0  0  0  0  0  0
  -25.4390  -31.7870   26.3650 C   0  0  0  0  0  1  0  0  0  0  0  0
  -27.1470  -30.7330   24.8780 C   0  0  0  0  0  1  0  0  0  0  0  0
  -27.6540  -32.8860   26.0030 C   0  0  0  0  0  1  0  0  0  0  0  0
  -25.6570  -34.2570   24.4140 N   0  0  0  0  0  0  0  0  0  0  0  0
  -25.9790  -35.3360   23.6860 C   0  0  0  0  0  0  0  0  0  0  0  0
  -26.6660  -35.2740   22.6630 O   0  0  0  0  0  0  0  0  0  0  0  0
  -25.0560  -34.3810   25.2150 H   0  0  0  0  0  0  0  0  0  0  0  0
  -24.2150  -37.0960   23.3490 C   0  0  0  0  0  1  0  0  0  0  0  0
  -25.4530  -36.7010   24.1690 C   0  0  0  0  0  3  0  0  0  0  0  0
  -27.5570  -37.6090   25.0490 C   0  0  0  0  0  1  0  0  0  0  0  0
  -26.4610  -37.7790   24.0990 N   0  0  0  0  0  0  0  0  0  0  0  0
  -26.0320  -38.6840   24.2690 H   0  0  0  0  0  0  0  0  0  0  0  0
  -28.6850  -22.6860   23.8840 C   0  0  0  0  0  2  0  0  0  0  0  0
  -29.8670  -22.9890   22.9420 C   0  0  0  0  0  2  0  0  0  0  0  0
  -31.1940  -22.3900   23.4320 C   0  0  0  0  0  2  0  0  0  0  0  0
  -33.2690  -21.6210   22.3100 C   0  0  0  0  0  0  0  0  0  0  0  0
  -32.1980  -22.4210   22.3740 N   0  0  0  0  0  0  0  0  0  0  0  0
  -33.4830  -20.7300   23.1340 O   0  0  0  0  0  0  0  0  0  0  0  0
  -32.0950  -23.1270   21.6560 H   0  0  0  0  0  0  0  0  0  0  0  0
  -34.2570  -21.8830   21.1710 C   0  0  0  0  0  2  0  0  0  0  0  0
  -33.8210  -21.2670   19.8250 C   0  0  0  0  0  2  0  0  0  0  0  0
  -34.4470  -18.8870   19.3980 C   0  0  0  0  0  0  0  0  0  0  0  0
  -34.4530  -16.6680   18.3290 C   0  0  0  0  0  2  0  0  0  0  0  0
  -33.6100  -16.7350   17.0420 C   0  0  0  0  0  2  0  0  0  0  0  0
  -32.1140  -16.5020   17.3430 C   0  0  0  0  0  2  0  0  0  0  0  0
  -31.5970  -17.3680   18.5210 C   0  0  0  0  0  3  0  0  0  0  0  0
  -32.5580  -17.2600   19.7270 C   0  0  0  0  0  2  0  0  0  0  0  0
  -33.9030  -17.6510   19.2720 N   0  0  0  0  0  0  0  0  0  0  0  0
  -35.5690  -19.1840   18.9710 O   0  0  0  0  0  0  0  0  0  0  0  0
  -33.6150  -19.8160   19.8900 N   0  0  0  0  0  0  0  0  0  0  0  0
  -32.7050  -19.4880   20.1800 H   0  0  0  0  0  0  0  0  0  0  0  0
  -29.1170  -17.8240   19.0520 C   0  0  0  0  0  0  0  0  0  0  0  0
  -28.0710  -16.9830   19.3310 C   0  0  0  0  0  0  0  0  0  0  0  0
  -28.6150  -15.6610   19.3160 C   0  0  0  0  0  0  0  0  0  0  0  0
  -30.2270  -17.0090   18.8920 N   0  0  0  0  0  0  0  0  0  0  0  0
  -29.9240  -15.7030   19.1050 N   0  0  0  0  0  0  0  0  0  0  0  0
  -27.9550  -14.3550   19.4320 C   0  0  0  0  0  0  0  0  0  0  0  0
  -28.2780  -13.4560   20.4730 C   0  0  0  0  0  3  0  0  0  0  0  0
  -27.6190  -12.2130   20.5760 C   0  0  0  0  0  3  0  0  0  0  0  0
  -26.6220  -11.8580   19.6380 C   0  0  0  0  0  0  0  0  0  0  0  0
  -26.3200  -12.7450   18.5890 C   0  0  0  0  0  3  0  0  0  0  0  0
  -26.9820  -13.9800   18.4830 C   0  0  0  0  0  3  0  0  0  0  0  0
  -25.9500  -10.6600   19.6430 O   0  0  0  0  0  0  0  0  0  0  0  0
  -25.5870  -10.0420   20.8130 C   0  0  0  0  0  0  0  0  0  0  0  0
  -24.7070  -10.6480   21.7350 C   0  0  0  0  0  3  0  0  0  0  0  0
  -24.3080   -9.9490   22.8920 C   0  0  0  0  0  3  0  0  0  0  0  0
  -24.7770   -8.6420   23.1230 C   0  0  0  0  0  0  0  0  0  0  0  0
  -25.6520   -8.0360   22.2040 C   0  0  0  0  0  3  0  0  0  0  0  0
  -26.0520   -8.7330   21.0500 C   0  0  0  0  0  0  0  0  0  0  0  0
  -26.8750   -8.1340   20.1560 F   0  0  0  0  0  0  0  0  0  0  0  0
  -24.3910   -7.9670   24.2300 F   0  0  0  0  0  0  0  0  0  0  0  0
  -26.6300  -17.3710   19.5020 C   0  0  0  0  0  0  0  0  0  0  0  0
  -25.8820  -16.6150   20.3010 N   0  0  0  0  0  0  0  0  0  0  0  0
  -26.1700  -18.3760   18.9670 O   0  0  0  0  0  0  0  0  0  0  0  0
  -26.2630  -15.8040   20.7630 H   0  0  0  0  0  0  0  0  0  0  0  0
  -24.9100  -16.8540   20.4500 H   0  0  0  0  0  0  0  0  0  0  0  0
  -29.2140  -19.2030   18.8970 N   0  0  0  0  0  0  0  0  0  0  0  0
  -28.4100  -19.8200   18.9430 H   0  0  0  0  0  0  0  0  0  0  0  0
  -30.0600  -19.6780   18.6070 H   0  0  0  0  0  0  0  0  0  0  0  0
  2  1  1  0
  3  2  1  0
  4  3  1  0
  5  4  1  0
  6  7  1  0
  6  5  1  0
  7  9  1  0
  8 19  2  0
  9 14  1  0
 10 18  1  0
 10 20  1  0
 11 17  1  0
 11 13  1  0
 12 18  1  0
 13 12  1  0
 14 13  2  0
 15 16  1  0
 15  9  2  0
 16 11  2  0
 17 10  1  0
 18  8  1  0
 20 22  2  0
 21 20  1  0
 23 21  1  0
 24 33  2  0
 24 29  1  0
 25 21  1  0
 25 29  1  0
 26 25  1  0
 27 28  1  0
 27 26  1  0
 28 24  1  0
 29 30  2  0
 30 31  1  0
 32 31  2  0
 33 32  1  0
 34  8  1  0
 34 39  1  0
 34 35  1  0
 35 38  1  1
 35 36  1  0
 37 35  1  0
 39 42  1  0
 40 44  1  0
 40 39  1  0
 41 40  2  0
 44 43  1  0
 46 44  1  0
 46 47  1  0
 46 45  1  0
 48  1  1  0
 49 50  1  0
 49 48  1  0
 51 52  1  0
 51 53  2  0
 52 50  1  0
 54 52  1  0
 55 51  1  0
 56 65  1  0
 56 55  1  0
 57 65  1  0
 58 63  1  0
 59 60  1  0
 59 58  1  0
 61 60  1  0
 61 70  1  0
 61 62  1  0
 63 57  1  0
 63 62  1  0
 64 57  2  0
 65 66  1  0
 67 68  2  0
 68 87  1  0
 69 68  1  0
 69 72  1  0
 70 67  1  0
 70 71  1  0
 71 69  2  0
 72 73  1  0
 73 74  2  0
 75 78  1  0
 75 74  1  0
 76 75  2  0
 77 76  1  0
 77 72  2  0
 78 79  1  0
 79 84  2  0
 79 80  1  0
 80 81  2  0
 81 82  1  0
 82 86  1  0
 83 82  2  0
 84 83  1  0
 85 84  1  0
 87 88  1  0
 88 91  1  0
 88 90  1  0
 89 87  2  0
 92 93  1  0
 92 67  1  0
 94 92  1  0
M  ISO  4   6 101   7 101  57 100  65 100
M  END
>  <TORSDO>  (86) 
F 27

>  <SCORE>  (86) 
1.883

>  <name>  (86) 
85

>  <ligand_id>  (86) 
85

>  <original_smiles>  (86) 
[H]c1c([H])c([H])c2c(c1[H])C([H])([H])C([H])([H])C([H])([H])C2([H])N([H])C(=O)C1([H])N(C(=O)C([H])(N([H])C(=O)C([H])(N([H])C([H])([H])[H])C([H])([H])[H])C(C([H])([H])[H])(C([H])([H])[H])C([H])([H])[H])C([H])([H])c2c([H])c(OC([H])([H])C([H])([H])C([H])([H])C([H])([H])C([H])([H])C([H])([H])C([H])([H])C([H])([H])C([H])([H])N([H])C(=O)C([H])([H])C([H])([H])N([H])C(=O)N3C([H])([H])C([H])([H])C([H])([H])C([H])(n4nc(-c5c([H])c([H])c(Oc6c([H])c([H])c(F)c([H])c6F)c([H])c5[H])c(C(=O)N([H])[H])c4N([H])[H])C3([H])[H])c([H])c([H])c2C1([H])[H]

>  <smiles>  (86) 
[H]c1c([H])c([H])c2c(c1[H])C([H])([H])C([H])([H])C([H])([H])C2([H])N([H])C(=O)C1([H])N(C(=O)C([H])(N([H])C(=O)C([H])(N([H])C([H])([H])[H])C([H])([H])[H])C(C([H])([H])[H])(C([H])([H])[H])C([H])([H])[H])C([H])([H])c2c([H])c(OC([H])([H])C([H])([H])C([H])([H])C([H])([H])C([H])([H])C([H])([H])C([H])([H])C([H])([H])C([H])([H])N([H])C(=O)C([H])([H])C([H])([H])N([H])C(=O)N3C([H])([H])C([H])([H])C([H])([H])C([H])(n4nc(-c5c([H])c([H])c(Oc6c([H])c([H])c(F)c([H])c6F)c([H])c5[H])c(C(=O)N([H])[H])c4N([H])[H])C3([H])[H])c([H])c([H])c2C1([H])[H]

$$$$
86:0:0
     RDKit          3D

 98 98  0  0  1  0  0  0  0  0999 V2000
  -25.7820  -25.2840   22.8120 C   0  0  0  0  0 15  0  0  0  0  0  0
  -28.3930  -25.5580   22.3180 C   0  0  0  0  0  1  0  0  0  0  0  0
  -27.2390  -24.9590   21.4760 C   0  0  0  0  0  1  0  0  0  0  0  0
  -28.0680  -25.3920   19.7090 C   0  0  0  0  0 15  0  0  0  0  0  0
  -29.6990  -25.7270   18.6230 C   0  0  0  0  0  2  0  0  0  0  0  0
  -30.2140  -27.0660   19.1880 C   0  0  0  0  0  0  0  0  0  0  0  0
  -31.0060  -27.0920   20.2530 N   0  0  0  0  0  0  0  0  0  0  0  0
  -29.8900  -28.1200   18.6460 O   0  0  0  0  0  0  0  0  0  0  0  0
  -31.3110  -26.2630   20.7390 H   0  0  0  0  0  0  0  0  0  0  0  0
  -31.3030  -27.9890   20.6090 H   0  0  0  0  0  0  0  0  0  0  0  0
  -30.3800  -25.9330   16.8040 C   0  0  0  0  0  2  0  0  0  0  0  0
  -32.8080  -26.0710   14.6690 C   0  0  0  0  0  0  0  0  0  0  0  0
  -34.5810  -25.3040   12.7680 C   0  0  0  0  0  2  0  0  0  0  0  0
  -34.2040  -24.0290   11.9440 C   0  0  0  0  0  2  0  0  0  0  0  0
  -34.4320  -22.7420   12.7530 C   0  0  0  0  0  2  0  0  0  0  0  0
  -33.9930  -22.9430   14.2220 C   0  0  0  0  0  3  0  0  0  0  0  0
  -34.5710  -24.2140   14.8590 C   0  0  0  0  0  2  0  0  0  0  0  0
  -33.9180  -25.3030   14.1600 N   0  0  0  0  0  0  0  0  0  0  0  0
  -32.6890  -27.0730   13.9200 O   0  0  0  0  0  0  0  0  0  0  0  0
  -31.8720  -25.6500   15.8600 N   0  0  0  0  0  0  0  0  0  0  0  0
  -32.1550  -24.7160   16.1290 H   0  0  0  0  0  0  0  0  0  0  0  0
  -33.3820  -21.2100   15.9560 C   0  0  0  0  0  0  0  0  0  0  0  0
  -34.0800  -20.1820   16.5130 C   0  0  0  0  0  0  0  0  0  0  0  0
  -35.3910  -20.2370   15.9410 C   0  0  0  0  0  0  0  0  0  0  0  0
  -34.2580  -21.8140   15.0760 N   0  0  0  0  0  0  0  0  0  0  0  0
  -35.5000  -21.2770   15.1260 N   0  0  0  0  0  0  0  0  0  0  0  0
  -36.5240  -19.3200   16.0710 C   0  0  0  0  0  0  0  0  0  0  0  0
  -37.8280  -19.7840   16.3530 C   0  0  0  0  0  3  0  0  0  0  0  0
  -38.8980  -18.8730   16.4840 C   0  0  0  0  0  3  0  0  0  0  0  0
  -38.6660  -17.4840   16.3400 C   0  0  0  0  0  0  0  0  0  0  0  0
  -37.3690  -17.0290   16.0380 C   0  0  0  0  0  3  0  0  0  0  0  0
  -36.3080  -17.9380   15.9030 C   0  0  0  0  0  3  0  0  0  0  0  0
  -39.6460  -16.5280   16.4300 O   0  0  0  0  0  0  0  0  0  0  0  0
  -40.8230  -16.7660   17.0910 C   0  0  0  0  0  0  0  0  0  0  0  0
  -40.8480  -17.2380   18.4210 C   0  0  0  0  0  3  0  0  0  0  0  0
  -42.0790  -17.4010   19.0880 C   0  0  0  0  0  3  0  0  0  0  0  0
  -43.2830  -17.0840   18.4330 C   0  0  0  0  0  0  0  0  0  0  0  0
  -43.2610  -16.6050   17.1110 C   0  0  0  0  0  3  0  0  0  0  0  0
  -42.0340  -16.4450   16.4430 C   0  0  0  0  0  0  0  0  0  0  0  0
  -42.0170  -15.9660   15.1760 F   0  0  0  0  0  0  0  0  0  0  0  0
  -44.4650  -17.2310   19.0760 F   0  0  0  0  0  0  0  0  0  0  0  0
  -33.5280  -19.1360   17.4320 C   0  0  0  0  0  0  0  0  0  0  0  0
  -34.3570  -18.5810   18.3050 N   0  0  0  0  0  0  0  0  0  0  0  0
  -32.3320  -18.8440   17.4160 O   0  0  0  0  0  0  0  0  0  0  0  0
  -35.3330  -18.8280   18.3370 H   0  0  0  0  0  0  0  0  0  0  0  0
  -34.0080  -17.8870   18.9520 H   0  0  0  0  0  0  0  0  0  0  0  0
  -32.0720  -21.6690   16.0910 N   0  0  0  0  0  0  0  0  0  0  0  0
  -31.4150  -21.1690   16.6780 H   0  0  0  0  0  0  0  0  0  0  0  0
  -31.6090  -22.2320   15.3890 H   0  0  0  0  0  0  0  0  0  0  0  0
  -23.9450  -24.7960   23.3560 C   0  0  0  0  0  1  0  0  0  0  0  0
  -22.5990  -25.4180   24.4130 N   0  0  0  0  0  4  0  0  0  0  0  0
  -22.3820  -24.6460   25.0280 H   0  0  0  0  0  0  0  0  0  0  0  0
  -23.1320  -26.1020   24.9480 H   0  0  0  0  0  0  0  0  0  0  0  0
  -21.0320  -26.4560   24.3880 C   0  0  0  0  0  1  0  0  0  0  0  0
  -20.4120  -28.1620   23.2450 C   0  0  0  0  0 15  0  0  0  0  0  0
  -20.5950  -28.4010   21.2000 C   0  0  0  0  0 15  0  0  0  0  0  0
  -22.0000  -27.5720   19.9230 C   0  0  0  0  0  1  0  0  0  0  0  0
  -23.7930  -27.0960   20.0060 O   0  0  0  0  0  0  0  0  0  0  0  0
  -24.2500  -31.2970   23.2660 C   0  0  0  0  0  0  0  0  0  0  0  0
  -25.0670  -27.3510   19.3520 C   0  0  0  0  0  3  0  0  0  0  0  0
  -23.0630  -29.8690   21.6220 C   0  0  0  0  0  3  0  0  0  0  0  0
  -23.9350  -29.5940   19.2790 C   0  0  0  0  0  3  0  0  0  0  0  0
  -25.3020  -30.6600   21.0840 C   0  0  0  0  0  2  0  0  0  0  0  0
  -25.1130  -29.6000   20.0090 C   0  0  0  0  0  3  0  0  0  0  0  0
  -25.8440  -28.4120   19.9040 C   0  0  0  0  0  2  0  0  0  0  0  0
  -24.6210  -27.5750   18.0910 C   0  0  0  0  0  2  0  0  0  0  0  0
  -23.7600  -28.6790   18.1800 C   0  0  0  0  0  2  0  0  0  0  0  0
  -22.8520  -30.2100   20.0560 C   0  0  0  0  0  2  0  0  0  0  0  0
  -24.1960  -30.6650   22.0570 N   0  0  0  0  0  0  0  0  0  0  0  0
  -23.3120  -31.3690   24.0730 O   0  0  0  0  0  0  0  0  0  0  0  0
  -23.1570  -28.2690   22.2970 C   0  0  0  0  0  0  0  0  0  0  0  0
  -22.3360  -26.9670   21.9860 N   0  0  0  0  0  0  0  0  0  0  0  0
  -23.8010  -28.2150   23.2980 O   0  0  0  0  0  0  0  0  0  0  0  0
  -22.9790  -26.2220   22.1660 H   0  0  0  0  0  0  0  0  0  0  0  0
  -18.0400  -25.9310   21.2520 C   0  0  0  0  0  0  0  0  0  0  0  0
  -20.7000  -26.2990   21.9270 C   0  0  0  0  0  3  0  0  0  0  0  0
  -20.9090  -25.0280   21.2360 C   0  0  0  0  0  2  0  0  0  0  0  0
  -19.9470  -24.7650   20.1240 C   0  0  0  0  0  2  0  0  0  0  0  0
  -18.5390  -24.6500   20.6500 C   0  0  0  0  0  2  0  0  0  0  0  0
  -18.9900  -26.7910   21.9070 C   0  0  0  0  0  0  0  0  0  0  0  0
  -18.2310  -27.9000   22.5260 C   0  0  0  0  0  3  0  0  0  0  0  0
  -16.8590  -28.2080   22.3050 C   0  0  0  0  0  3  0  0  0  0  0  0
  -16.0150  -27.2930   21.6770 C   0  0  0  0  0  3  0  0  0  0  0  0
  -16.6290  -26.1410   21.1660 C   0  0  0  0  0  3  0  0  0  0  0  0
  -25.5730  -31.9390   23.7030 C   0  0  0  0  0  3  0  0  0  0  0  0
  -25.2760  -33.3170   24.1100 N   0  0  0  0  0  0  0  0  0  0  0  0
  -25.5480  -34.3990   23.3750 C   0  0  0  0  0  0  0  0  0  0  0  0
  -26.1020  -34.3260   22.2750 O   0  0  0  0  0  0  0  0  0  0  0  0
  -24.7650  -33.4380   24.9690 H   0  0  0  0  0  0  0  0  0  0  0  0
  -23.8750  -36.2650   23.2840 C   0  0  0  0  0  1  0  0  0  0  0  0
  -25.1640  -35.7750   23.9550 C   0  0  0  0  0  3  0  0  0  0  0  0
  -27.4150  -36.5150   24.6020 C   0  0  0  0  0  1  0  0  0  0  0  0
  -26.2290  -36.7900   23.7940 N   0  0  0  0  0  0  0  0  0  0  0  0
  -25.8890  -37.7190   24.0300 H   0  0  0  0  0  0  0  0  0  0  0  0
  -26.2540  -31.1350   24.8730 C   0  0  1  0  0  0  0  0  0  0  0  0
  -25.3370  -30.8320   26.0850 C   0  0  0  0  0  1  0  0  0  0  0  0
  -26.8320  -29.7860   24.3980 C   0  0  0  0  0  1  0  0  0  0  0  0
  -27.4600  -31.9400   25.3680 C   0  0  0  0  0  1  0  0  0  0  0  0
  3  2  1  0
  5  6  1  0
  6  7  1  0
  7 10  1  0
  7  9  1  0
  8  6  2  0
 11  5  1  0
 12 20  1  0
 13 18  1  0
 14 15  1  0
 14 13  1  0
 16 15  1  0
 16 17  1  0
 16 25  1  0
 18 12  1  0
 18 17  1  0
 19 12  2  0
 20 21  1  0
 20 11  1  0
 22 47  1  0
 22 23  2  0
 23 42  1  0
 24 27  1  0
 24 23  1  0
 25 26  1  0
 25 22  1  0
 26 24  2  0
 27 28  1  0
 28 29  2  0
 30 33  1  0
 30 29  1  0
 31 30  2  0
 32 31  1  0
 32 27  2  0
 33 34  1  0
 34 35  1  0
 35 36  2  0
 37 41  1  0
 37 36  1  0
 38 37  2  0
 39 34  2  0
 39 38  1  0
 40 39  1  0
 42 43  1  0
 43 45  1  0
 43 46  1  0
 44 42  2  0
 47 48  1  0
 49 47  1  0
 50 51  1  0
 51 53  1  0
 51 52  1  0
 54 51  1  0
 57 58  1  0
 59 70  2  0
 60 65  1  0
 60 58  1  0
 61 69  1  0
 61 71  1  0
 62 67  1  0
 62 64  1  0
 62 68  1  0
 63 69  1  0
 64 65  1  0
 64 63  1  0
 66 67  1  0
 66 60  1  0
 68 61  1  0
 69 59  1  0
 71 73  2  0
 72 74  1  0
 72 71  1  0
 75 80  1  0
 76 72  1  0
 77 76  1  0
 78 79  1  0
 78 77  1  0
 79 75  1  0
 80 76  1  0
 80 81  2  0
 82 81  1  0
 83 82  2  0
 84 75  2  0
 84 83  1  0
 85 59  1  0
 85 86  1  0
 85 95  1  0
 86 89  1  0
 87 91  1  0
 87 86  1  0
 88 87  2  0
 91 90  1  0
 93 91  1  0
 93 94  1  0
 93 92  1  0
 95 98  1  1
 95 96  1  0
 97 95  1  0
M  ISO  4  12 100  20 100  57 101  58 101
M  END
>  <TORSDO>  (87) 
F 27

>  <SCORE>  (87) 
-3.796

>  <name>  (87) 
86

>  <ligand_id>  (87) 
86

>  <original_smiles>  (87) 
[H]c1c([H])c([H])c2c(c1[H])C([H])([H])C([H])([H])C([H])([H])C2([H])N([H])C(=O)C1([H])N(C(=O)C([H])(N([H])C(=O)C([H])(N([H])C([H])([H])[H])C([H])([H])[H])C(C([H])([H])[H])(C([H])([H])[H])C([H])([H])[H])C([H])([H])c2c([H])c(OC([H])([H])C([H])([H])C([H])([H])C([H])([H])[N+]([H])([H])C([H])([H])C([H])([H])C([H])(C([H])([H])[H])C([H])([H])C([H])(C(=O)N([H])[H])C([H])([H])N([H])C(=O)N3C([H])([H])C([H])([H])C([H])([H])C([H])(n4nc(-c5c([H])c([H])c(Oc6c([H])c([H])c(F)c([H])c6F)c([H])c5[H])c(C(=O)N([H])[H])c4N([H])[H])C3([H])[H])c([H])c([H])c2C1([H])[H]

>  <smiles>  (87) 
[H]c1c([H])c([H])c2c(c1[H])C([H])([H])C([H])([H])C([H])([H])C2([H])N([H])C(=O)C1([H])N(C(=O)C([H])(N([H])C(=O)C([H])(N([H])C([H])([H])[H])C([H])([H])[H])C(C([H])([H])[H])(C([H])([H])[H])C([H])([H])[H])C([H])([H])c2c([H])c(OC([H])([H])C([H])([H])C([H])([H])C([H])([H])[N+]([H])([H])C([H])([H])C([H])([H])C([H])(C([H])([H])[H])C([H])([H])C([H])(C(=O)N([H])[H])C([H])([H])N([H])C(=O)N3C([H])([H])C([H])([H])C([H])([H])C([H])(n4nc(-c5c([H])c([H])c(Oc6c([H])c([H])c(F)c([H])c6F)c([H])c5[H])c(C(=O)N([H])[H])c4N([H])[H])C3([H])[H])c([H])c([H])c2C1([H])[H]

$$$$
87:0:0
     RDKit          3D

 92 99  0  0  1  0  0  0  0  0999 V2000
  -29.7180  -22.8470   20.5270 C   0  0  0  0  0  2  0  0  0  0  0  0
  -29.1750  -22.0950   19.3130 C   0  0  0  0  0  2  0  0  0  0  0  0
  -28.9510  -20.6110   19.5810 C   0  0  0  0  0  2  0  0  0  0  0  0
  -29.3090  -19.8320   18.3830 N   0  0  0  0  0  4  0  0  0  0  0  0
  -30.3150  -19.8180   18.2990 H   0  0  0  0  0  0  0  0  0  0  0  0
  -28.9470  -20.2940   17.5640 H   0  0  0  0  0  0  0  0  0  0  0  0
  -28.8200  -18.4480   18.3800 C   0  0  0  0  0  2  0  0  0  0  0  0
  -29.2760  -17.6770   19.6320 C   0  0  0  0  0  2  0  0  0  0  0  0
  -29.6940  -16.2620   19.2840 C   0  0  0  0  0  2  0  0  0  0  0  0
  -30.6550  -14.4080   20.4610 C   0  0  0  0  0  0  0  0  0  0  0  0
  -30.3620  -12.2530   19.3780 C   0  0  0  0  0  2  0  0  0  0  0  0
  -29.4320  -12.4940   18.1690 C   0  0  0  0  0  2  0  0  0  0  0  0
  -27.9490  -12.3940   18.5760 C   0  0  0  0  0  2  0  0  0  0  0  0
  -27.6090  -13.2130   19.8490 C   0  0  0  0  0  3  0  0  0  0  0  0
  -28.6580  -12.9730   20.9680 C   0  0  0  0  0  2  0  0  0  0  0  0
  -30.0020  -13.2240   20.4160 N   0  0  0  0  0  0  0  0  0  0  0  0
  -31.8230  -14.5840   20.1090 O   0  0  0  0  0  0  0  0  0  0  0  0
  -29.8010  -15.4280   20.4750 N   0  0  0  0  0  0  0  0  0  0  0  0
  -28.9190  -15.1950   20.9050 H   0  0  0  0  0  0  0  0  0  0  0  0
  -25.1990  -13.8450   20.4940 C   0  0  0  0  0  0  0  0  0  0  0  0
  -24.1220  -13.0820   20.8520 C   0  0  0  0  0  0  0  0  0  0  0  0
  -24.5830  -11.7280   20.8530 C   0  0  0  0  0  0  0  0  0  0  0  0
  -26.2470  -12.9580   20.3040 N   0  0  0  0  0  0  0  0  0  0  0  0
  -25.8780  -11.6810   20.5770 N   0  0  0  0  0  0  0  0  0  0  0  0
  -23.8540  -10.4700   21.0480 C   0  0  0  0  0  0  0  0  0  0  0  0
  -24.2870   -9.5060   21.9840 C   0  0  0  0  0  3  0  0  0  0  0  0
  -23.5610   -8.3090   22.1650 C   0  0  0  0  0  3  0  0  0  0  0  0
  -22.3890   -8.0700   21.4090 C   0  0  0  0  0  0  0  0  0  0  0  0
  -21.9760   -9.0230   20.4620 C   0  0  0  0  0  3  0  0  0  0  0  0
  -22.7020  -10.2100   20.2790 C   0  0  0  0  0  3  0  0  0  0  0  0
  -21.6320   -6.9270   21.5000 O   0  0  0  0  0  0  0  0  0  0  0  0
  -21.5980   -6.1780   22.6470 C   0  0  0  0  0  0  0  0  0  0  0  0
  -21.2100   -6.7300   23.8890 C   0  0  0  0  0  3  0  0  0  0  0  0
  -21.1240   -5.9070   25.0290 C   0  0  0  0  0  3  0  0  0  0  0  0
  -21.4160   -4.5330   24.9300 C   0  0  0  0  0  0  0  0  0  0  0  0
  -21.7960   -3.9810   23.6950 C   0  0  0  0  0  3  0  0  0  0  0  0
  -21.8850   -4.8020   22.5570 C   0  0  0  0  0  0  0  0  0  0  0  0
  -22.2330   -4.2620   21.3630 F   0  0  0  0  0  0  0  0  0  0  0  0
  -21.3250   -3.7390   26.0230 F   0  0  0  0  0  0  0  0  0  0  0  0
  -22.7200  -13.5640   21.0910 C   0  0  0  0  0  0  0  0  0  0  0  0
  -21.9780  -12.8790   21.9530 N   0  0  0  0  0  0  0  0  0  0  0  0
  -22.2930  -14.5830   20.5490 O   0  0  0  0  0  0  0  0  0  0  0  0
  -22.3380  -12.0550   22.4110 H   0  0  0  0  0  0  0  0  0  0  0  0
  -21.0380  -13.1830   22.1610 H   0  0  0  0  0  0  0  0  0  0  0  0
  -25.3670  -15.2140   20.3000 N   0  0  0  0  0  0  0  0  0  0  0  0
  -24.5860  -15.8580   20.3540 H   0  0  0  0  0  0  0  0  0  0  0  0
  -26.2290  -15.6580   20.0130 H   0  0  0  0  0  0  0  0  0  0  0  0
  -30.2050  -24.2150   20.0760 C   0  0  0  0  0  2  0  0  0  0  0  0
  -30.6550  -25.1040   21.2310 C   0  0  0  0  0  2  0  0  0  0  0  0
  -30.8580  -26.5400   20.7450 C   0  0  0  0  0  2  0  0  0  0  0  0
  -29.5770  -27.3860   20.7860 C   0  0  0  0  0  2  0  0  0  0  0  0
  -28.4500  -26.8030   20.1120 O   0  0  0  0  0  0  0  0  0  0  0  0
  -24.5870  -31.9070   23.2210 C   0  0  0  0  0  0  0  0  0  0  0  0
  -27.2650  -27.5110   20.1640 C   0  0  0  0  0  0  0  0  0  0  0  0
  -23.3620  -30.4860   21.5970 C   0  0  0  0  0  3  0  0  0  0  0  0
  -24.8110  -28.9300   20.1830 C   0  0  0  0  0  0  0  0  0  0  0  0
  -25.8710  -30.8720   21.3650 C   0  0  0  0  0  2  0  0  0  0  0  0
  -25.9570  -29.4970   20.7470 C   0  0  0  0  0  0  0  0  0  0  0  0
  -27.1730  -28.7990   20.7380 C   0  0  0  0  0  3  0  0  0  0  0  0
  -26.0960  -26.9380   19.6110 C   0  0  0  0  0  3  0  0  0  0  0  0
  -24.8690  -27.6400   19.6180 C   0  0  0  0  0  3  0  0  0  0  0  0
  -23.5570  -29.7740   20.2270 C   0  0  0  0  0  2  0  0  0  0  0  0
  -24.6250  -31.1030   22.1210 N   0  0  0  0  0  0  0  0  0  0  0  0
  -23.5140  -32.1840   23.7720 O   0  0  0  0  0  0  0  0  0  0  0  0
  -22.7220  -29.4820   22.5790 C   0  0  0  0  0  0  0  0  0  0  0  0
  -21.3980  -29.3010   22.4610 N   0  0  0  0  0  0  0  0  0  0  0  0
  -23.4120  -28.8630   23.3940 O   0  0  0  0  0  0  0  0  0  0  0  0
  -20.9050  -29.8490   21.7690 H   0  0  0  0  0  0  0  0  0  0  0  0
  -18.0260  -28.1220   22.9810 C   0  0  0  0  0  0  0  0  0  0  0  0
  -20.5840  -28.3740   23.2440 C   0  0  0  0  0  3  0  0  0  0  0  0
  -20.6820  -26.9370   22.6800 C   0  0  0  0  0  2  0  0  0  0  0  0
  -19.5770  -26.6070   21.6730 C   0  0  0  0  0  2  0  0  0  0  0  0
  -18.1970  -26.7650   22.3180 C   0  0  0  0  0  2  0  0  0  0  0  0
  -19.1480  -28.8830   23.4010 C   0  0  0  0  0  0  0  0  0  0  0  0
  -18.9370  -30.1540   23.9790 C   0  0  0  0  0  3  0  0  0  0  0  0
  -17.6340  -30.6620   24.1420 C   0  0  0  0  0  3  0  0  0  0  0  0
  -16.5260  -29.8980   23.7390 C   0  0  0  0  0  3  0  0  0  0  0  0
  -16.7240  -28.6290   23.1650 C   0  0  0  0  0  3  0  0  0  0  0  0
  -25.8850  -32.5360   23.8260 C   0  0  0  0  0  3  0  0  0  0  0  0
  -26.4260  -31.7570   25.0870 C   0  0  1  0  0  0  0  0  0  0  0  0
  -25.3540  -31.5160   26.1730 C   0  0  0  0  0  1  0  0  0  0  0  0
  -27.0010  -30.3820   24.6760 C   0  0  0  0  0  1  0  0  0  0  0  0
  -27.5890  -32.5480   25.7340 C   0  0  0  0  0  1  0  0  0  0  0  0
  -25.5810  -33.9320   24.1640 N   0  0  0  0  0  0  0  0  0  0  0  0
  -25.9090  -34.9850   23.4070 C   0  0  0  0  0  0  0  0  0  0  0  0
  -26.5720  -34.8870   22.3710 O   0  0  0  0  0  0  0  0  0  0  0  0
  -24.9840  -34.0830   24.9640 H   0  0  0  0  0  0  0  0  0  0  0  0
  -24.1750  -36.7740   23.0750 C   0  0  0  0  0  1  0  0  0  0  0  0
  -25.4250  -36.3700   23.8730 C   0  0  0  0  0  3  0  0  0  0  0  0
  -27.5710  -37.2470   24.6810 C   0  0  0  0  0  1  0  0  0  0  0  0
  -26.4550  -37.4270   23.7560 N   0  0  0  0  0  0  0  0  0  0  0  0
  -26.0510  -38.3440   23.9220 H   0  0  0  0  0  0  0  0  0  0  0  0
  2  3  1  0
  2  1  1  0
  4  3  1  0
  5  4  1  0
  6  4  1  0
  7  4  1  0
  7  8  1  0
  9  8  1  0
  9 18  1  0
 10 18  1  0
 11 16  1  0
 12 13  1  0
 12 11  1  0
 14 13  1  0
 14 23  1  0
 14 15  1  0
 16 10  1  0
 16 15  1  0
 17 10  2  0
 18 19  1  0
 20 21  2  0
 21 22  1  0
 21 40  1  0
 22 25  1  0
 23 20  1  0
 23 24  1  0
 24 22  2  0
 25 26  1  0
 26 27  2  0
 28 31  1  0
 28 27  1  0
 29 28  2  0
 30 29  1  0
 30 25  2  0
 31 32  1  0
 32 33  1  0
 33 34  2  0
 35 34  1  0
 35 39  1  0
 36 35  2  0
 37 32  2  0
 37 36  1  0
 38 37  1  0
 40 41  1  0
 41 44  1  0
 41 43  1  0
 42 40  2  0
 45 46  1  0
 45 20  1  0
 47 45  1  0
 48  1  1  0
 48 49  1  0
 50 51  1  0
 50 49  1  0
 52 54  1  0
 52 51  1  0
 53 64  2  0
 54 59  1  0
 55 63  1  0
 55 65  1  0
 56 62  1  0
 56 58  1  0
 57 63  1  0
 58 57  1  0
 59 58  2  0
 60 61  1  0
 60 54  2  0
 61 56  2  0
 62 55  1  0
 63 53  1  0
 65 67  2  0
 66 65  1  0
 68 66  1  0
 69 78  2  0
 69 74  1  0
 70 66  1  0
 70 74  1  0
 71 70  1  0
 72 73  1  0
 72 71  1  0
 73 69  1  0
 74 75  2  0
 75 76  1  0
 77 76  2  0
 78 77  1  0
 79 53  1  0
 79 84  1  0
 79 80  1  0
 80 83  1  1
 80 81  1  0
 82 80  1  0
 84 87  1  0
 85 89  1  0
 85 84  1  0
 86 85  2  0
 89 88  1  0
 91 89  1  0
 91 92  1  0
 91 90  1  0
M  ISO  4  10 100  18 100  51 101  52 101
M  END
>  <TORSDO>  (88) 
F 26

>  <SCORE>  (88) 
-11.766

>  <name>  (88) 
87

>  <ligand_id>  (88) 
87

>  <original_smiles>  (88) 
[H]c1c([H])c([H])c2c(c1[H])C([H])([H])C([H])([H])C([H])([H])C2([H])N([H])C(=O)C1([H])N(C(=O)C([H])(N([H])C(=O)C([H])(N([H])C([H])([H])[H])C([H])([H])[H])C(C([H])([H])[H])(C([H])([H])[H])C([H])([H])[H])C([H])([H])c2c([H])c(OC([H])([H])C([H])([H])C([H])([H])C([H])([H])C([H])([H])C([H])([H])C([H])([H])[N+]([H])([H])C([H])([H])C([H])([H])C([H])([H])N([H])C(=O)N3C([H])([H])C([H])([H])C([H])([H])C([H])(n4nc(-c5c([H])c([H])c(Oc6c([H])c([H])c(F)c([H])c6F)c([H])c5[H])c(C(=O)N([H])[H])c4N([H])[H])C3([H])[H])c([H])c([H])c2C1([H])[H]

>  <smiles>  (88) 
[H]c1c([H])c([H])c2c(c1[H])C([H])([H])C([H])([H])C([H])([H])C2([H])N([H])C(=O)C1([H])N(C(=O)C([H])(N([H])C(=O)C([H])(N([H])C([H])([H])[H])C([H])([H])[H])C(C([H])([H])[H])(C([H])([H])[H])C([H])([H])[H])C([H])([H])c2c([H])c(OC([H])([H])C([H])([H])C([H])([H])C([H])([H])C([H])([H])C([H])([H])C([H])([H])[N+]([H])([H])C([H])([H])C([H])([H])C([H])([H])N([H])C(=O)N3C([H])([H])C([H])([H])C([H])([H])C([H])(n4nc(-c5c([H])c([H])c(Oc6c([H])c([H])c(F)c([H])c6F)c([H])c5[H])c(C(=O)N([H])[H])c4N([H])[H])C3([H])[H])c([H])c([H])c2C1([H])[H]

$$$$
88:0:0
     RDKit          3D

 95102  0  0  1  0  0  0  0  0999 V2000
  -29.6870  -18.5170   20.6810 C   0  0  0  0  0  0  0  0  0  0  0  0
  -29.1940  -18.4330   21.8080 O   0  0  0  0  0  0  0  0  0  0  0  0
  -30.3660  -17.2490   19.9780 C   0  0  0  0  0  3  0  0  0  0  0  0
  -30.9120  -14.7590   20.4480 C   0  0  0  0  0  0  0  0  0  0  0  0
  -30.7000  -12.5280   19.3990 C   0  0  0  0  0  2  0  0  0  0  0  0
  -29.7880  -12.6820   18.1610 C   0  0  0  0  0  2  0  0  0  0  0  0
  -28.3040  -12.5420   18.5520 C   0  0  0  0  0  2  0  0  0  0  0  0
  -27.9300  -13.3810   19.8060 C   0  0  0  0  0  3  0  0  0  0  0  0
  -28.9640  -13.2160   20.9430 C   0  0  0  0  0  2  0  0  0  0  0  0
  -30.2810  -13.5450   20.3860 N   0  0  0  0  0  0  0  0  0  0  0  0
  -32.0990  -14.8660   20.1310 O   0  0  0  0  0  0  0  0  0  0  0  0
  -30.1150  -15.8730   20.5690 N   0  0  0  0  0  0  0  0  0  0  0  0
  -29.1870  -15.7190   20.9250 H   0  0  0  0  0  0  0  0  0  0  0  0
  -25.5230  -13.9920   20.4480 C   0  0  0  0  0  0  0  0  0  0  0  0
  -24.4450  -13.2270   20.7970 C   0  0  0  0  0  0  0  0  0  0  0  0
  -24.9030  -11.8730   20.7940 C   0  0  0  0  0  0  0  0  0  0  0  0
  -26.5710  -13.1060   20.2580 N   0  0  0  0  0  0  0  0  0  0  0  0
  -26.2030  -11.8280   20.5270 N   0  0  0  0  0  0  0  0  0  0  0  0
  -24.1670  -10.6160   20.9750 C   0  0  0  0  0  0  0  0  0  0  0  0
  -24.5610   -9.6640   21.9430 C   0  0  0  0  0  3  0  0  0  0  0  0
  -23.8260   -8.4700   22.1130 C   0  0  0  0  0  3  0  0  0  0  0  0
  -22.6840   -8.2220   21.3140 C   0  0  0  0  0  0  0  0  0  0  0  0
  -22.3100   -9.1600   20.3390 C   0  0  0  0  0  3  0  0  0  0  0  0
  -23.0440  -10.3460   20.1680 C   0  0  0  0  0  3  0  0  0  0  0  0
  -21.9260   -7.0780   21.3910 O   0  0  0  0  0  0  0  0  0  0  0  0
  -21.8160   -6.3640   22.5570 C   0  0  0  0  0  0  0  0  0  0  0  0
  -21.3390   -6.9500   23.7500 C   0  0  0  0  0  3  0  0  0  0  0  0
  -21.1790   -6.1630   24.9060 C   0  0  0  0  0  3  0  0  0  0  0  0
  -21.4840   -4.7900   24.8710 C   0  0  0  0  0  0  0  0  0  0  0  0
  -21.9510   -4.2020   23.6810 C   0  0  0  0  0  3  0  0  0  0  0  0
  -22.1140   -4.9870   22.5280 C   0  0  0  0  0  0  0  0  0  0  0  0
  -22.5470   -4.4120   21.3800 F   0  0  0  0  0  0  0  0  0  0  0  0
  -21.3200   -4.0300   25.9780 F   0  0  0  0  0  0  0  0  0  0  0  0
  -23.0420  -13.7120   21.0190 C   0  0  0  0  0  0  0  0  0  0  0  0
  -22.3000  -13.0460   21.8970 N   0  0  0  0  0  0  0  0  0  0  0  0
  -22.6140  -14.7140   20.4500 O   0  0  0  0  0  0  0  0  0  0  0  0
  -22.6620  -12.2390   22.3830 H   0  0  0  0  0  0  0  0  0  0  0  0
  -21.3530  -13.3430   22.0840 H   0  0  0  0  0  0  0  0  0  0  0  0
  -25.7000  -15.3590   20.2540 N   0  0  0  0  0  0  0  0  0  0  0  0
  -24.9310  -16.0150   20.3380 H   0  0  0  0  0  0  0  0  0  0  0  0
  -26.5630  -15.7950   19.9640 H   0  0  0  0  0  0  0  0  0  0  0  0
  -30.1530  -17.2230   18.4390 C   0  0  0  0  0  2  0  0  0  0  0  0
  -28.8490  -17.8660   17.9040 C   0  0  0  0  0  2  0  0  0  0  0  0
  -29.1000  -18.7220   16.6440 C   0  0  0  0  0  2  0  0  0  0  0  0
  -27.9070  -19.6000   16.2070 C   0  0  0  0  0  2  0  0  0  0  0  0
  -26.9320  -18.8710   15.3760 N   0  0  0  0  0  4  0  0  0  0  0  0
  -27.3830  -18.4520   14.5840 H   0  0  0  0  0  0  0  0  0  0  0  0
  -26.2400  -19.5110   15.0270 H   0  0  0  0  0  0  0  0  0  0  0  0
  -26.4570  -18.1610   15.9020 H   0  0  0  0  0  0  0  0  0  0  0  0
  -29.6340  -19.9070   19.9180 C   0  0  0  0  0  3  0  0  0  0  0  0
  -29.1270  -21.2390   20.6340 C   0  0  0  0  0  3  0  0  0  0  0  0
  -28.9880  -22.5470   19.7280 C   0  0  0  0  0  2  0  0  0  0  0  0
  -28.5930  -23.9370   20.4010 C   0  0  0  0  0  3  0  0  0  0  0  0
  -28.6240  -25.2420   19.4910 C   0  0  0  0  0  3  0  0  0  0  0  0
  -28.5120  -26.5730   20.1230 O   0  0  0  0  0  0  0  0  0  0  0  0
  -24.6940  -31.8580   23.1890 C   0  0  0  0  0  0  0  0  0  0  0  0
  -27.3490  -27.3520   20.0870 C   0  0  0  0  0  0  0  0  0  0  0  0
  -23.5000  -30.4550   21.5480 C   0  0  0  0  0  3  0  0  0  0  0  0
  -24.9590  -28.9250   20.1110 C   0  0  0  0  0  0  0  0  0  0  0  0
  -26.0360  -30.7990   21.3570 C   0  0  0  0  0  2  0  0  0  0  0  0
  -26.1230  -29.4280   20.7030 C   0  0  0  0  0  0  0  0  0  0  0  0
  -27.3170  -28.6520   20.6820 C   0  0  0  0  0  3  0  0  0  0  0  0
  -26.1510  -26.8890   19.4970 C   0  0  0  0  0  3  0  0  0  0  0  0
  -24.9740  -27.6610   19.5080 C   0  0  0  0  0  3  0  0  0  0  0  0
  -23.7160  -29.7880   20.1650 C   0  0  0  0  0  2  0  0  0  0  0  0
  -24.7630  -31.0570   22.0880 N   0  0  0  0  0  0  0  0  0  0  0  0
  -23.6110  -32.1200   23.7270 O   0  0  0  0  0  0  0  0  0  0  0  0
  -22.8560  -29.4250   22.5080 C   0  0  0  0  0  0  0  0  0  0  0  0
  -21.5340  -29.2240   22.3810 N   0  0  0  0  0  0  0  0  0  0  0  0
  -23.5440  -28.8100   23.3290 O   0  0  0  0  0  0  0  0  0  0  0  0
  -21.0320  -29.7750   21.6970 H   0  0  0  0  0  0  0  0  0  0  0  0
  -18.1780  -27.9760   22.8720 C   0  0  0  0  0  0  0  0  0  0  0  0
  -20.7320  -28.2750   23.1560 C   0  0  0  0  0  3  0  0  0  0  0  0
  -20.8580  -26.8440   22.5820 C   0  0  0  0  0  2  0  0  0  0  0  0
  -19.7660  -26.5010   21.5650 C   0  0  0  0  0  2  0  0  0  0  0  0
  -18.3780  -26.6280   22.2010 C   0  0  0  0  0  2  0  0  0  0  0  0
  -19.2840  -28.7530   23.3080 C   0  0  0  0  0  0  0  0  0  0  0  0
  -19.0450  -30.0120   23.8980 C   0  0  0  0  0  3  0  0  0  0  0  0
  -17.7320  -30.4950   24.0610 C   0  0  0  0  0  3  0  0  0  0  0  0
  -16.6390  -29.7120   23.6460 C   0  0  0  0  0  3  0  0  0  0  0  0
  -16.8640  -28.4570   23.0550 C   0  0  0  0  0  3  0  0  0  0  0  0
  -25.9730  -32.5040   23.8060 C   0  0  0  0  0  3  0  0  0  0  0  0
  -26.5140  -31.7240   25.0670 C   0  0  1  0  0  0  0  0  0  0  0  0
  -25.4310  -31.4370   26.1330 C   0  0  0  0  0  1  0  0  0  0  0  0
  -27.1420  -30.3740   24.6480 C   0  0  0  0  0  1  0  0  0  0  0  0
  -27.6350  -32.5420   25.7480 C   0  0  0  0  0  1  0  0  0  0  0  0
  -25.6400  -33.8900   24.1640 N   0  0  0  0  0  0  0  0  0  0  0  0
  -25.9430  -34.9640   23.4250 C   0  0  0  0  0  0  0  0  0  0  0  0
  -26.6030  -34.8930   22.3850 O   0  0  0  0  0  0  0  0  0  0  0  0
  -25.0450  -34.0130   24.9680 H   0  0  0  0  0  0  0  0  0  0  0  0
  -24.1730  -36.7330   23.1260 C   0  0  0  0  0  1  0  0  0  0  0  0
  -25.4300  -36.3330   23.9160 C   0  0  0  0  0  3  0  0  0  0  0  0
  -27.5540  -37.2480   24.7400 C   0  0  0  0  0  1  0  0  0  0  0  0
  -26.4370  -37.4110   23.8140 N   0  0  0  0  0  0  0  0  0  0  0  0
  -26.0140  -38.3190   23.9810 H   0  0  0  0  0  0  0  0  0  0  0  0
  1  2  2  0
  3 42  1  0
  3 12  1  0
  3  1  1  0
  4 12  1  0
  5 10  1  0
  6  7  1  0
  6  5  1  0
  8  7  1  0
  8 17  1  0
  8  9  1  0
 10  4  1  0
 10  9  1  0
 11  4  2  0
 12 13  1  0
 14 15  2  0
 15 34  1  0
 16 15  1  0
 16 19  1  0
 17 14  1  0
 17 18  1  0
 18 16  2  0
 19 20  1  0
 20 21  2  0
 22 25  1  0
 22 21  1  0
 23 22  2  0
 24 23  1  0
 24 19  2  0
 25 26  1  0
 26 27  1  0
 27 28  2  0
 29 28  1  0
 29 33  1  0
 30 29  2  0
 31 26  2  0
 31 30  1  0
 32 31  1  0
 34 35  1  0
 35 38  1  0
 35 37  1  0
 36 34  2  0
 39 40  1  0
 39 14  1  0
 41 39  1  0
 43 42  1  0
 44 43  1  0
 45 44  1  0
 46 49  1  0
 46 45  1  0
 47 46  1  0
 48 46  1  0
 50 51  2  0
 50  1  1  0
 52 53  1  0
 52 51  1  0
 54 55  1  0
 54 53  2  0
 56 67  2  0
 57 55  1  0
 57 62  1  0
 58 66  1  0
 58 68  1  0
 59 65  1  0
 59 61  1  0
 60 66  1  0
 61 60  1  0
 62 61  2  0
 63 64  1  0
 63 57  2  0
 64 59  2  0
 65 58  1  0
 66 56  1  0
 68 70  2  0
 69 68  1  0
 71 69  1  0
 72 81  2  0
 72 77  1  0
 73 69  1  0
 73 77  1  0
 74 73  1  0
 75 76  1  0
 75 74  1  0
 76 72  1  0
 77 78  2  0
 78 79  1  0
 80 79  2  0
 81 80  1  0
 82 56  1  0
 82 87  1  0
 82 83  1  0
 83 86  1  1
 83 84  1  0
 85 83  1  0
 87 90  1  0
 88 92  1  0
 88 87  1  0
 89 88  2  0
 92 91  1  0
 94 92  1  0
 94 95  1  0
 94 93  1  0
M  ISO  4   4 100  12 100  54 101  55 101
M  END
>  <TORSDO>  (89) 
F 27

>  <SCORE>  (89) 
-10.493

>  <name>  (89) 
88

>  <ligand_id>  (89) 
88

>  <original_smiles>  (89) 
[H]c1c([H])c([H])c2c(c1[H])C([H])([H])C([H])([H])C([H])([H])C2([H])N([H])C(=O)C1([H])N(C(=O)C([H])(N([H])C(=O)C([H])(N([H])C([H])([H])[H])C([H])([H])[H])C(C([H])([H])[H])(C([H])([H])[H])C([H])([H])[H])C([H])([H])c2c([H])c(OC([H])([H])C([H])([H])C([H])([H])C([H])([H])C([H])([H])C(=O)C([H])(N([H])C(=O)N3C([H])([H])C([H])([H])C([H])([H])C([H])(n4nc(-c5c([H])c([H])c(Oc6c([H])c([H])c(F)c([H])c6F)c([H])c5[H])c(C(=O)N([H])[H])c4N([H])[H])C3([H])[H])C([H])([H])C([H])([H])C([H])([H])C([H])([H])[N+]([H])([H])[H])c([H])c([H])c2C1([H])[H]

>  <smiles>  (89) 
[H]c1c([H])c([H])c2c(c1[H])C([H])([H])C([H])([H])C([H])([H])C2([H])N([H])C(=O)C1([H])N(C(=O)C([H])(N([H])C(=O)C([H])(N([H])C([H])([H])[H])C([H])([H])[H])C(C([H])([H])[H])(C([H])([H])[H])C([H])([H])[H])C([H])([H])c2c([H])c(OC([H])([H])C([H])([H])C([H])([H])C([H])([H])C([H])([H])C(=O)C([H])(N([H])C(=O)N3C([H])([H])C([H])([H])C([H])([H])C([H])(n4nc(-c5c([H])c([H])c(Oc6c([H])c([H])c(F)c([H])c6F)c([H])c5[H])c(C(=O)N([H])[H])c4N([H])[H])C3([H])[H])C([H])([H])C([H])([H])C([H])([H])C([H])([H])[N+]([H])([H])[H])c([H])c([H])c2C1([H])[H]

$$$$
89:0:0
     RDKit          3D

 94101  0  0  1  0  0  0  0  0999 V2000
  -29.1960  -21.1730   19.5800 C   0  0  0  0  0  3  0  0  0  0  0  0
  -28.7310  -22.3500   20.4600 N   0  0  0  0  0  4  0  0  0  0  0  0
  -27.7560  -22.1810   20.6630 H   0  0  0  0  0  0  0  0  0  0  0  0
  -29.2140  -22.3050   21.3440 H   0  0  0  0  0  0  0  0  0  0  0  0
  -28.8230  -23.7900   19.9020 C   0  0  0  0  0  3  0  0  0  0  0  0
  -28.1070  -24.9940   20.6990 C   0  0  0  0  0  3  0  0  0  0  0  0
  -28.3160  -26.4200   20.2820 O   0  0  0  0  0  0  0  0  0  0  0  0
  -24.6080  -31.9010   23.2400 C   0  0  0  0  0  0  0  0  0  0  0  0
  -27.2090  -27.2880   20.2490 C   0  0  0  0  0  0  0  0  0  0  0  0
  -23.4050  -30.4870   21.6130 C   0  0  0  0  0  3  0  0  0  0  0  0
  -24.8550  -28.9190   20.2050 C   0  0  0  0  0  0  0  0  0  0  0  0
  -25.9450  -30.8000   21.4260 C   0  0  0  0  0  2  0  0  0  0  0  0
  -26.0260  -29.4120   20.7950 C   0  0  0  0  0  0  0  0  0  0  0  0
  -27.2100  -28.6110   20.8010 C   0  0  0  0  0  3  0  0  0  0  0  0
  -26.0200  -26.8550   19.6260 C   0  0  0  0  0  3  0  0  0  0  0  0
  -24.8560  -27.6470   19.6080 C   0  0  0  0  0  3  0  0  0  0  0  0
  -23.6190  -29.7950   20.2420 C   0  0  0  0  0  2  0  0  0  0  0  0
  -24.6720  -31.0800   22.1500 N   0  0  0  0  0  0  0  0  0  0  0  0
  -23.5240  -32.1840   23.7710 O   0  0  0  0  0  0  0  0  0  0  0  0
  -22.7380  -29.4820   22.5840 C   0  0  0  0  0  0  0  0  0  0  0  0
  -21.4130  -29.3070   22.4560 N   0  0  0  0  0  0  0  0  0  0  0  0
  -23.4150  -28.8630   23.4090 O   0  0  0  0  0  0  0  0  0  0  0  0
  -20.9260  -29.8570   21.7620 H   0  0  0  0  0  0  0  0  0  0  0  0
  -18.0310  -28.1300   22.9680 C   0  0  0  0  0  0  0  0  0  0  0  0
  -20.5900  -28.3800   23.2360 C   0  0  0  0  0  3  0  0  0  0  0  0
  -20.6850  -26.9430   22.6730 C   0  0  0  0  0  2  0  0  0  0  0  0
  -19.5820  -26.6170   21.6610 C   0  0  0  0  0  2  0  0  0  0  0  0
  -18.2000  -26.7740   22.3020 C   0  0  0  0  0  2  0  0  0  0  0  0
  -19.1530  -28.8900   23.3920 C   0  0  0  0  0  0  0  0  0  0  0  0
  -18.9390  -30.1580   23.9740 C   0  0  0  0  0  3  0  0  0  0  0  0
  -17.6360  -30.6670   24.1370 C   0  0  0  0  0  3  0  0  0  0  0  0
  -16.5290  -29.9020   23.7300 C   0  0  0  0  0  3  0  0  0  0  0  0
  -16.7260  -28.6360   23.1520 C   0  0  0  0  0  3  0  0  0  0  0  0
  -25.8910  -32.5390   23.8580 C   0  0  0  0  0  3  0  0  0  0  0  0
  -26.4100  -31.7720   25.1370 C   0  0  1  0  0  0  0  0  0  0  0  0
  -25.3190  -31.5320   26.2060 C   0  0  0  0  0  1  0  0  0  0  0  0
  -27.0000  -30.3970   24.7470 C   0  0  0  0  0  1  0  0  0  0  0  0
  -27.5590  -32.5720   25.7950 C   0  0  0  0  0  1  0  0  0  0  0  0
  -25.5790  -33.9370   24.1860 N   0  0  0  0  0  0  0  0  0  0  0  0
  -25.9100  -34.9900   23.4270 C   0  0  0  0  0  0  0  0  0  0  0  0
  -26.5800  -34.8850   22.3960 O   0  0  0  0  0  0  0  0  0  0  0  0
  -24.9840  -34.0930   24.9870 H   0  0  0  0  0  0  0  0  0  0  0  0
  -24.1850  -36.7830   23.0680 C   0  0  0  0  0  1  0  0  0  0  0  0
  -25.4240  -36.3790   23.8830 C   0  0  0  0  0  3  0  0  0  0  0  0
  -27.5550  -37.2630   24.7220 C   0  0  0  0  0  1  0  0  0  0  0  0
  -26.4570  -37.4310   23.7730 N   0  0  0  0  0  0  0  0  0  0  0  0
  -26.0510  -38.3520   23.9180 H   0  0  0  0  0  0  0  0  0  0  0  0
  -28.7860  -19.6420   19.9490 C   0  0  0  0  0  2  0  0  0  0  0  0
  -29.7480  -18.5040   20.5220 C   0  0  0  0  0  0  0  0  0  0  0  0
  -30.2210  -18.6380   21.6530 O   0  0  0  0  0  0  0  0  0  0  0  0
  -30.0780  -17.1760   19.7080 C   0  0  0  0  0  2  0  0  0  0  0  0
  -30.6750  -14.6860   20.1210 C   0  0  0  0  0  0  0  0  0  0  0  0
  -30.4150  -12.4340   19.0980 C   0  0  0  0  0  2  0  0  0  0  0  0
  -29.4500  -12.5750   17.9010 C   0  0  0  0  0  2  0  0  0  0  0  0
  -27.9870  -12.4290   18.3620 C   0  0  0  0  0  2  0  0  0  0  0  0
  -27.6680  -13.2880   19.6150 C   0  0  0  0  0  3  0  0  0  0  0  0
  -28.7520  -13.1350   20.7070 C   0  0  0  0  0  2  0  0  0  0  0  0
  -30.0430  -13.4670   20.0910 N   0  0  0  0  0  0  0  0  0  0  0  0
  -31.8340  -14.7950   19.7160 O   0  0  0  0  0  0  0  0  0  0  0  0
  -29.9030  -15.8060   20.3510 N   0  0  0  0  0  0  0  0  0  0  0  0
  -28.9890  -15.6290   20.7380 H   0  0  0  0  0  0  0  0  0  0  0  0
  -25.3040  -13.9080   20.3990 C   0  0  0  0  0  0  0  0  0  0  0  0
  -24.2410  -13.1460   20.7990 C   0  0  0  0  0  0  0  0  0  0  0  0
  -24.6840  -11.7880   20.7460 C   0  0  0  0  0  0  0  0  0  0  0  0
  -26.3300  -13.0170   20.1330 N   0  0  0  0  0  0  0  0  0  0  0  0
  -25.9660  -11.7360   20.4030 N   0  0  0  0  0  0  0  0  0  0  0  0
  -23.9470  -10.5340   20.9450 C   0  0  0  0  0  0  0  0  0  0  0  0
  -24.3700   -9.5710   21.8870 C   0  0  0  0  0  3  0  0  0  0  0  0
  -23.6350   -8.3830   22.0750 C   0  0  0  0  0  3  0  0  0  0  0  0
  -22.4590   -8.1480   21.3240 C   0  0  0  0  0  0  0  0  0  0  0  0
  -22.0550   -9.1000   20.3700 C   0  0  0  0  0  3  0  0  0  0  0  0
  -22.7920  -10.2800   20.1800 C   0  0  0  0  0  3  0  0  0  0  0  0
  -21.6940   -7.0130   21.4220 O   0  0  0  0  0  0  0  0  0  0  0  0
  -21.6140   -6.2970   22.5890 C   0  0  0  0  0  0  0  0  0  0  0  0
  -21.1480   -6.8760   23.7900 C   0  0  0  0  0  3  0  0  0  0  0  0
  -21.0160   -6.0860   24.9490 C   0  0  0  0  0  3  0  0  0  0  0  0
  -21.3420   -4.7160   24.9080 C   0  0  0  0  0  0  0  0  0  0  0  0
  -21.8010   -4.1370   23.7130 C   0  0  0  0  0  3  0  0  0  0  0  0
  -21.9340   -4.9250   22.5560 C   0  0  0  0  0  0  0  0  0  0  0  0
  -22.3560   -4.3560   21.4010 F   0  0  0  0  0  0  0  0  0  0  0  0
  -21.2080   -3.9540   26.0190 F   0  0  0  0  0  0  0  0  0  0  0  0
  -22.8570  -13.6370   21.1110 C   0  0  0  0  0  0  0  0  0  0  0  0
  -22.1410  -12.9460   21.9890 N   0  0  0  0  0  0  0  0  0  0  0  0
  -22.4190  -14.6710   20.6070 O   0  0  0  0  0  0  0  0  0  0  0  0
  -22.5080  -12.1090   22.4190 H   0  0  0  0  0  0  0  0  0  0  0  0
  -21.2120  -13.2540   22.2360 H   0  0  0  0  0  0  0  0  0  0  0  0
  -25.4740  -15.2770   20.2120 N   0  0  0  0  0  0  0  0  0  0  0  0
  -24.6970  -15.9230   20.3010 H   0  0  0  0  0  0  0  0  0  0  0  0
  -26.2830  -15.6930   19.7680 H   0  0  0  0  0  0  0  0  0  0  0  0
  -30.6500  -21.3210   19.0480 C   0  0  0  0  0  2  0  0  0  0  0  0
  -30.8180  -20.8970   17.5650 C   0  0  0  0  0  2  0  0  0  0  0  0
  -31.7030  -19.6630   17.3220 C   0  0  0  0  0  2  0  0  0  0  0  0
  -31.9850  -17.4620   16.0540 C   0  0  0  0  0  1  0  0  0  0  0  0
  -31.1010  -18.6920   16.2920 C   0  0  0  0  0  2  0  0  0  0  0  0
  1 90  1  0
  1 48  1  0
  1  2  1  0
  2  3  1  0
  2  4  1  0
  5  2  1  0
  5  6  2  0
  7  6  1  0
  8 19  2  0
  9  7  1  0
  9 14  1  0
 10 18  1  0
 10 20  1  0
 11 17  1  0
 11 13  1  0
 12 18  1  0
 13 14  2  0
 13 12  1  0
 15  9  2  0
 16 15  1  0
 16 11  2  0
 17 10  1  0
 18  8  1  0
 20 22  2  0
 21 20  1  0
 23 21  1  0
 24 33  2  0
 24 29  1  0
 25 21  1  0
 25 29  1  0
 26 25  1  0
 27 28  1  0
 27 26  1  0
 28 24  1  0
 29 30  2  0
 30 31  1  0
 32 31  2  0
 33 32  1  0
 34  8  1  0
 34 39  1  0
 34 35  1  0
 35 38  1  1
 35 36  1  0
 37 35  1  0
 39 42  1  0
 40 44  1  0
 40 39  1  0
 41 40  2  0
 44 43  1  0
 46 44  1  0
 46 47  1  0
 46 45  1  0
 48 49  1  0
 49 50  2  0
 51 60  1  0
 51 49  1  0
 52 60  1  0
 53 58  1  0
 54 55  1  0
 54 53  1  0
 56 55  1  0
 56 65  1  0
 56 57  1  0
 58 52  1  0
 58 57  1  0
 59 52  2  0
 60 61  1  0
 62 63  2  0
 63 82  1  0
 64 63  1  0
 64 67  1  0
 65 62  1  0
 65 66  1  0
 66 64  2  0
 67 68  1  0
 68 69  2  0
 70 73  1  0
 70 69  1  0
 71 70  2  0
 72 71  1  0
 72 67  2  0
 73 74  1  0
 74 75  1  0
 75 76  2  0
 77 76  1  0
 77 81  1  0
 78 77  2  0
 79 74  2  0
 79 78  1  0
 80 79  1  0
 82 83  1  0
 83 86  1  0
 83 85  1  0
 84 82  2  0
 87 88  1  0
 87 62  1  0
 89 87  1  0
 91 90  1  0
 92 91  1  0
 93 94  1  0
 94 92  1  0
M  ISO  4   6 101   7 101  52 100  60 100
M  END
>  <TORSDO>  (90) 
F 26

>  <SCORE>  (90) 
-11.854

>  <name>  (90) 
89

>  <ligand_id>  (90) 
89

>  <original_smiles>  (90) 
[H]c1c([H])c([H])c2c(c1[H])C([H])([H])C([H])([H])C([H])([H])C2([H])N([H])C(=O)C1([H])N(C(=O)C([H])(N([H])C(=O)C([H])(N([H])C([H])([H])[H])C([H])([H])[H])C(C([H])([H])[H])(C([H])([H])[H])C([H])([H])[H])C([H])([H])c2c([H])c(OC([H])([H])C([H])([H])[N+]([H])([H])C([H])(C([H])([H])C(=O)C([H])([H])N([H])C(=O)N3C([H])([H])C([H])([H])C([H])([H])C([H])(n4nc(-c5c([H])c([H])c(Oc6c([H])c([H])c(F)c([H])c6F)c([H])c5[H])c(C(=O)N([H])[H])c4N([H])[H])C3([H])[H])C([H])([H])C([H])([H])C([H])([H])C([H])([H])C([H])([H])[H])c([H])c([H])c2C1([H])[H]

>  <smiles>  (90) 
[H]c1c([H])c([H])c2c(c1[H])C([H])([H])C([H])([H])C([H])([H])C2([H])N([H])C(=O)C1([H])N(C(=O)C([H])(N([H])C(=O)C([H])(N([H])C([H])([H])[H])C([H])([H])[H])C(C([H])([H])[H])(C([H])([H])[H])C([H])([H])[H])C([H])([H])c2c([H])c(OC([H])([H])C([H])([H])[N+]([H])([H])C([H])(C([H])([H])C(=O)C([H])([H])N([H])C(=O)N3C([H])([H])C([H])([H])C([H])([H])C([H])(n4nc(-c5c([H])c([H])c(Oc6c([H])c([H])c(F)c([H])c6F)c([H])c5[H])c(C(=O)N([H])[H])c4N([H])[H])C3([H])[H])C([H])([H])C([H])([H])C([H])([H])C([H])([H])C([H])([H])[H])c([H])c([H])c2C1([H])[H]

$$$$
90:0:0
     RDKit          3D

 91100  0  0  1  0  0  0  0  0999 V2000
  -29.6960  -21.6530   22.2630 C   0  0  0  0  0  2  0  0  0  0  0  0
  -28.3340  -22.1470   21.7510 C   0  0  0  0  0  2  0  0  0  0  0  0
  -30.8600  -19.2940   21.6200 C   0  0  0  0  0  2  0  0  0  0  0  0
  -28.2910  -20.0730   20.1880 C   0  0  0  0  0  2  0  0  0  0  0  0
  -29.7520  -20.1400   22.3120 C   0  0  0  0  0  3  0  0  0  0  0  0
  -28.7390  -19.3140   21.5080 C   0  0  0  0  0  3  0  0  0  0  0  0
  -27.9350  -21.6330   20.3640 C   0  0  0  0  0  3  0  0  0  0  0  0
  -29.8350  -18.1400   21.7600 C   0  0  0  0  0  3  0  0  0  0  0  0
  -28.4240  -22.5920   19.1870 C   0  0  0  0  0  2  0  0  0  0  0  0
  -27.9060  -24.1080   19.1170 C   0  0  0  0  0  2  0  0  0  0  0  0
  -29.0820  -25.1990   19.0450 C   0  0  0  0  0  2  0  0  0  0  0  0
  -29.0490  -26.6820   19.1780 O   0  0  0  0  0  0  0  0  0  0  0  0
  -24.7370  -31.1530   22.7870 C   0  0  0  0  0  0  0  0  0  0  0  0
  -27.8740  -27.4280   19.1760 C   0  0  0  0  0  0  0  0  0  0  0  0
  -23.7190  -29.8460   20.9690 C   0  0  0  0  0  3  0  0  0  0  0  0
  -25.3440  -28.7120   19.3620 C   0  0  0  0  0  0  0  0  0  0  0  0
  -26.1910  -30.5050   20.8520 C   0  0  0  0  0  2  0  0  0  0  0  0
  -26.4390  -29.2430   20.0480 C   0  0  0  0  0  0  0  0  0  0  0  0
  -27.7130  -28.6060   19.9550 C   0  0  0  0  0  3  0  0  0  0  0  0
  -26.7910  -27.0200   18.3700 C   0  0  0  0  0  3  0  0  0  0  0  0
  -25.5250  -27.6120   18.5060 C   0  0  0  0  0  3  0  0  0  0  0  0
  -23.9940  -29.3850   19.5220 C   0  0  0  0  0  2  0  0  0  0  0  0
  -24.8980  -30.5310   21.5870 N   0  0  0  0  0  0  0  0  0  0  0  0
  -23.6350  -31.1900   23.3570 O   0  0  0  0  0  0  0  0  0  0  0  0
  -23.2380  -28.6360   21.7890 C   0  0  0  0  0  0  0  0  0  0  0  0
  -21.9700  -28.2370   21.6110 N   0  0  0  0  0  0  0  0  0  0  0  0
  -23.9830  -28.0500   22.5800 O   0  0  0  0  0  0  0  0  0  0  0  0
  -21.4520  -28.6840   20.8610 H   0  0  0  0  0  0  0  0  0  0  0  0
  -18.7950  -26.5350   21.9040 C   0  0  0  0  0  0  0  0  0  0  0  0
  -21.2900  -27.1080   22.2470 C   0  0  0  0  0  3  0  0  0  0  0  0
  -21.5790  -25.7880   21.4660 C   0  0  0  0  0  2  0  0  0  0  0  0
  -20.4940  -25.3890   20.4330 C   0  0  0  0  0  2  0  0  0  0  0  0
  -19.1060  -25.3300   21.0760 C   0  0  0  0  0  2  0  0  0  0  0  0
  -19.8010  -27.3700   22.4650 C   0  0  0  0  0  0  0  0  0  0  0  0
  -19.3850  -28.5080   23.1860 C   0  0  0  0  0  3  0  0  0  0  0  0
  -18.0140  -28.7830   23.3990 C   0  0  0  0  0  3  0  0  0  0  0  0
  -17.0240  -27.9270   22.8690 C   0  0  0  0  0  3  0  0  0  0  0  0
  -17.4270  -26.8250   22.1000 C   0  0  0  0  0  3  0  0  0  0  0  0
  -25.9330  -31.8600   23.5040 C   0  0  0  0  0  3  0  0  0  0  0  0
  -26.4930  -31.0380   24.7310 C   0  0  1  0  0  0  0  0  0  0  0  0
  -25.4160  -30.5970   25.7570 C   0  0  0  0  0  1  0  0  0  0  0  0
  -27.2500  -29.7730   24.2550 C   0  0  0  0  0  1  0  0  0  0  0  0
  -27.5320  -31.9000   25.4860 C   0  0  0  0  0  1  0  0  0  0  0  0
  -25.4480  -33.1730   23.9400 N   0  0  0  0  0  0  0  0  0  0  0  0
  -25.6830  -34.3240   23.2980 C   0  0  0  0  0  0  0  0  0  0  0  0
  -26.3740  -34.3960   22.2790 O   0  0  0  0  0  0  0  0  0  0  0  0
  -24.8520  -33.1760   24.7530 H   0  0  0  0  0  0  0  0  0  0  0  0
  -23.7540  -35.9410   23.0640 C   0  0  0  0  0  1  0  0  0  0  0  0
  -25.0240  -35.5980   23.8630 C   0  0  0  0  0  3  0  0  0  0  0  0
  -27.0290  -36.6700   24.8080 C   0  0  0  0  0  1  0  0  0  0  0  0
  -25.9200  -36.7760   23.8600 N   0  0  0  0  0  0  0  0  0  0  0  0
  -25.4050  -37.6340   24.0600 H   0  0  0  0  0  0  0  0  0  0  0  0
  -29.9600  -16.5880   21.4020 C   0  0  0  0  0  2  0  0  0  0  0  0
  -31.3600  -14.8640   20.0060 C   0  0  0  0  0  0  0  0  0  0  0  0
  -31.0760  -12.6050   18.9440 C   0  0  0  0  0  2  0  0  0  0  0  0
  -30.1030  -12.7880   17.7510 C   0  0  0  0  0  2  0  0  0  0  0  0
  -28.6400  -12.6830   18.2270 C   0  0  0  0  0  2  0  0  0  0  0  0
  -28.3580  -13.5570   19.4910 C   0  0  0  0  0  3  0  0  0  0  0  0
  -29.4420  -13.3340   20.5720 C   0  0  0  0  0  2  0  0  0  0  0  0
  -30.7150  -13.6570   19.9420 N   0  0  0  0  0  0  0  0  0  0  0  0
  -32.5060  -14.9580   19.5490 O   0  0  0  0  0  0  0  0  0  0  0  0
  -30.6530  -16.0430   20.1830 N   0  0  0  0  0  0  0  0  0  0  0  0
  -31.0360  -16.7750   19.6010 H   0  0  0  0  0  0  0  0  0  0  0  0
  -26.0280  -14.2260   20.3550 C   0  0  0  0  0  0  0  0  0  0  0  0
  -24.9550  -13.4890   20.7460 C   0  0  0  0  0  0  0  0  0  0  0  0
  -25.3520  -12.1160   20.6390 C   0  0  0  0  0  0  0  0  0  0  0  0
  -27.0200  -13.3140   20.0290 N   0  0  0  0  0  0  0  0  0  0  0  0
  -26.6220  -12.0360   20.2620 N   0  0  0  0  0  0  0  0  0  0  0  0
  -24.5800  -10.8830   20.8210 C   0  0  0  0  0  0  0  0  0  0  0  0
  -24.9700   -9.8960   21.7550 C   0  0  0  0  0  3  0  0  0  0  0  0
  -24.2020   -8.7220   21.9220 C   0  0  0  0  0  3  0  0  0  0  0  0
  -23.0280   -8.5270   21.1570 C   0  0  0  0  0  0  0  0  0  0  0  0
  -22.6570   -9.5000   20.2120 C   0  0  0  0  0  3  0  0  0  0  0  0
  -23.4230  -10.6640   20.0430 C   0  0  0  0  0  3  0  0  0  0  0  0
  -22.2340   -7.4090   21.2340 O   0  0  0  0  0  0  0  0  0  0  0  0
  -22.0450   -6.7410   22.4170 C   0  0  0  0  0  0  0  0  0  0  0  0
  -21.5500   -7.3920   23.5680 C   0  0  0  0  0  3  0  0  0  0  0  0
  -21.3050   -6.6550   24.7450 C   0  0  0  0  0  3  0  0  0  0  0  0
  -21.5440   -5.2680   24.7700 C   0  0  0  0  0  0  0  0  0  0  0  0
  -22.0300   -4.6170   23.6230 C   0  0  0  0  0  3  0  0  0  0  0  0
  -22.2790   -5.3520   22.4500 C   0  0  0  0  0  0  0  0  0  0  0  0
  -22.7270   -4.7170   21.3410 F   0  0  0  0  0  0  0  0  0  0  0  0
  -21.3020   -4.5580   25.8950 F   0  0  0  0  0  0  0  0  0  0  0  0
  -23.5910  -14.0070   21.1070 C   0  0  0  0  0  0  0  0  0  0  0  0
  -22.8820  -13.3280   21.9970 N   0  0  0  0  0  0  0  0  0  0  0  0
  -23.1640  -15.0620   20.6290 O   0  0  0  0  0  0  0  0  0  0  0  0
  -23.2310  -12.4730   22.4130 H   0  0  0  0  0  0  0  0  0  0  0  0
  -21.9680  -13.6610   22.2790 H   0  0  0  0  0  0  0  0  0  0  0  0
  -26.2560  -15.5970   20.2250 N   0  0  0  0  0  0  0  0  0  0  0  0
  -25.5380  -16.2890   20.4090 H   0  0  0  0  0  0  0  0  0  0  0  0
  -27.1280  -16.0040   19.9140 H   0  0  0  0  0  0  0  0  0  0  0  0
  1  5  1  0
  2  1  1  0
  3  8  1  0
  4  7  1  0
  5  3  1  0
  6  4  1  0
  6  8  1  0
  6  5  1  0
  7  9  1  0
  7  2  1  0
  8 53  1  0
 10  9  1  0
 11 10  1  0
 11 12  1  0
 13 24  2  0
 14 12  1  0
 14 19  1  0
 15 23  1  0
 15 25  1  0
 16 22  1  0
 16 18  1  0
 17 23  1  0
 18 17  1  0
 19 18  2  0
 20 21  1  0
 20 14  2  0
 21 16  2  0
 22 15  1  0
 23 13  1  0
 25 27  2  0
 26 25  1  0
 28 26  1  0
 29 38  2  0
 29 34  1  0
 30 26  1  0
 30 34  1  0
 31 30  1  0
 32 33  1  0
 32 31  1  0
 33 29  1  0
 34 35  2  0
 35 36  1  0
 37 36  2  0
 38 37  1  0
 39 13  1  0
 39 44  1  0
 39 40  1  0
 40 43  1  1
 40 41  1  0
 42 40  1  0
 44 47  1  0
 45 49  1  0
 45 44  1  0
 46 45  2  0
 49 48  1  0
 51 49  1  0
 51 52  1  0
 51 50  1  0
 54 62  1  0
 55 60  1  0
 56 57  1  0
 56 55  1  0
 58 57  1  0
 58 67  1  0
 58 59  1  0
 60 54  1  0
 60 59  1  0
 61 54  2  0
 62 53  1  0
 63 62  1  0
 64 65  2  0
 65 84  1  0
 66 65  1  0
 66 69  1  0
 67 68  1  0
 67 64  1  0
 68 66  2  0
 69 70  1  0
 70 71  2  0
 72 75  1  0
 72 71  1  0
 73 72  2  0
 74 73  1  0
 74 69  2  0
 75 76  1  0
 76 81  2  0
 76 77  1  0
 77 78  2  0
 78 79  1  0
 79 83  1  0
 80 79  2  0
 81 80  1  0
 82 81  1  0
 84 85  1  0
 85 88  1  0
 85 87  1  0
 86 84  2  0
 89 64  1  0
 89 90  1  0
 91 89  1  0
M  ISO  4  11 101  12 101  54 100  62 100
M  END
>  <TORSDO>  (91) 
F 20

>  <SCORE>  (91) 
-8.817

>  <name>  (91) 
90

>  <ligand_id>  (91) 
90

>  <original_smiles>  (91) 
[H]c1c([H])c([H])c2c(c1[H])C([H])([H])C([H])([H])C([H])([H])C2([H])N([H])C(=O)C1([H])N(C(=O)C([H])(N([H])C(=O)C([H])(N([H])C([H])([H])[H])C([H])([H])[H])C(C([H])([H])[H])(C([H])([H])[H])C([H])([H])[H])C([H])([H])c2c([H])c(OC([H])([H])C([H])([H])C([H])([H])C3([H])C([H])([H])C([H])([H])C4([H])C([H])([H])C([H])(C([H])([H])N([H])C(=O)N5C([H])([H])C([H])([H])C([H])([H])C([H])(n6nc(-c7c([H])c([H])c(Oc8c([H])c([H])c(F)c([H])c8F)c([H])c7[H])c(C(=O)N([H])[H])c6N([H])[H])C5([H])[H])C4([H])C3([H])[H])c([H])c([H])c2C1([H])[H]

>  <smiles>  (91) 
[H]c1c([H])c([H])c2c(c1[H])C([H])([H])C([H])([H])C([H])([H])C2([H])N([H])C(=O)C1([H])N(C(=O)C([H])(N([H])C(=O)C([H])(N([H])C([H])([H])[H])C([H])([H])[H])C(C([H])([H])[H])(C([H])([H])[H])C([H])([H])[H])C([H])([H])c2c([H])c(OC([H])([H])C([H])([H])C([H])([H])C3([H])C([H])([H])C([H])([H])C4([H])C([H])([H])C([H])(C([H])([H])N([H])C(=O)N5C([H])([H])C([H])([H])C([H])([H])C([H])(n6nc(-c7c([H])c([H])c(Oc8c([H])c([H])c(F)c([H])c8F)c([H])c7[H])c(C(=O)N([H])[H])c6N([H])[H])C5([H])[H])C4([H])C3([H])[H])c([H])c([H])c2C1([H])[H]

$$$$
91:0:0
     RDKit          3D

 96104  0  0  1  0  0  0  0  0999 V2000
  -30.9020  -20.6400   18.7740 C   0  0  0  0  0  3  0  0  0  0  0  0
  -31.9260  -21.5200   18.8200 C   0  0  0  0  0  0  0  0  0  0  0  0
  -32.1410  -22.6220   19.8580 C   0  0  0  0  0  2  0  0  0  0  0  0
  -31.2200  -22.6360   21.0900 C   0  0  0  0  0  2  0  0  0  0  0  0
  -29.0070  -21.9270   19.9750 C   0  0  0  0  0  2  0  0  0  0  0  0
  -29.6650  -20.5350   19.6510 C   0  0  0  0  0  3  0  0  0  0  0  0
  -29.7510  -23.0040   20.8200 C   0  0  0  0  0  3  0  0  0  0  0  0
  -33.0310  -21.4420   17.7730 C   0  0  0  0  0  2  0  0  0  0  0  0
  -32.9360  -22.5620   16.8230 N   0  0  0  0  0  4  0  0  0  0  0  0
  -32.0350  -22.5670   16.3800 H   0  0  0  0  0  0  0  0  0  0  0  0
  -33.6370  -22.4660   16.1120 H   0  0  0  0  0  0  0  0  0  0  0  0
  -33.0780  -23.4410   17.2870 H   0  0  0  0  0  0  0  0  0  0  0  0
  -29.8360  -19.4530   20.7720 C   0  0  0  0  0  2  0  0  0  0  0  0
  -29.8030  -17.9660   20.2740 C   0  0  0  0  0  3  0  0  0  0  0  0
  -30.3080  -16.9110   21.3080 C   0  0  0  0  0  3  0  0  0  0  0  0
  -30.6390  -14.5020   20.5090 C   0  0  0  0  0  0  0  0  0  0  0  0
  -30.3690  -12.3300   19.3530 C   0  0  0  0  0  2  0  0  0  0  0  0
  -29.4270  -12.5240   18.1430 C   0  0  0  0  0  2  0  0  0  0  0  0
  -27.9520  -12.3850   18.5690 C   0  0  0  0  0  2  0  0  0  0  0  0
  -27.6100  -13.2210   19.8320 C   0  0  0  0  0  3  0  0  0  0  0  0
  -28.6610  -12.9960   20.9420 C   0  0  0  0  0  2  0  0  0  0  0  0
  -29.9840  -13.3150   20.3770 N   0  0  0  0  0  0  0  0  0  0  0  0
  -31.7760  -14.6900   20.0670 O   0  0  0  0  0  0  0  0  0  0  0  0
  -29.9060  -15.5120   21.0330 N   0  0  0  0  0  0  0  0  0  0  0  0
  -28.9750  -15.2550   21.3270 H   0  0  0  0  0  0  0  0  0  0  0  0
  -25.2080  -13.8380   20.5200 C   0  0  0  0  0  0  0  0  0  0  0  0
  -24.1360  -13.0710   20.8860 C   0  0  0  0  0  0  0  0  0  0  0  0
  -24.5920  -11.7170   20.8640 C   0  0  0  0  0  0  0  0  0  0  0  0
  -26.2530  -12.9520   20.3020 N   0  0  0  0  0  0  0  0  0  0  0  0
  -25.8850  -11.6720   20.5650 N   0  0  0  0  0  0  0  0  0  0  0  0
  -23.8610  -10.4600   21.0560 C   0  0  0  0  0  0  0  0  0  0  0  0
  -24.3000   -9.4820   21.9760 C   0  0  0  0  0  3  0  0  0  0  0  0
  -23.5690   -8.2880   22.1550 C   0  0  0  0  0  3  0  0  0  0  0  0
  -22.3860   -8.0620   21.4120 C   0  0  0  0  0  0  0  0  0  0  0  0
  -21.9660   -9.0270   20.4800 C   0  0  0  0  0  3  0  0  0  0  0  0
  -22.6970  -10.2130   20.2990 C   0  0  0  0  0  3  0  0  0  0  0  0
  -21.6260   -6.9210   21.5020 O   0  0  0  0  0  0  0  0  0  0  0  0
  -21.6050   -6.1580   22.6410 C   0  0  0  0  0  0  0  0  0  0  0  0
  -21.2350   -6.6970   23.8920 C   0  0  0  0  0  3  0  0  0  0  0  0
  -21.1590   -5.8620   25.0240 C   0  0  0  0  0  3  0  0  0  0  0  0
  -21.4420   -4.4880   24.9070 C   0  0  0  0  0  0  0  0  0  0  0  0
  -21.8050   -3.9480   23.6610 C   0  0  0  0  0  3  0  0  0  0  0  0
  -21.8830   -4.7800   22.5310 C   0  0  0  0  0  0  0  0  0  0  0  0
  -22.2140   -4.2510   21.3280 F   0  0  0  0  0  0  0  0  0  0  0  0
  -21.3620   -3.6830   25.9930 F   0  0  0  0  0  0  0  0  0  0  0  0
  -22.7380  -13.5530   21.1470 C   0  0  0  0  0  0  0  0  0  0  0  0
  -22.0040  -12.8630   22.0140 N   0  0  0  0  0  0  0  0  0  0  0  0
  -22.3050  -14.5770   20.6190 O   0  0  0  0  0  0  0  0  0  0  0  0
  -22.3700  -12.0370   22.4610 H   0  0  0  0  0  0  0  0  0  0  0  0
  -21.0660  -13.1680   22.2330 H   0  0  0  0  0  0  0  0  0  0  0  0
  -25.3750  -15.2060   20.3370 N   0  0  0  0  0  0  0  0  0  0  0  0
  -24.6030  -15.8560   20.4360 H   0  0  0  0  0  0  0  0  0  0  0  0
  -26.2250  -15.6470   20.0070 H   0  0  0  0  0  0  0  0  0  0  0  0
  -29.6420  -24.4830   20.2910 C   0  0  0  0  0  2  0  0  0  0  0  0
  -28.2630  -25.1930   20.3650 C   0  0  0  0  0  2  0  0  0  0  0  0
  -28.3850  -26.6270   20.1680 O   0  0  0  0  0  0  0  0  0  0  0  0
  -24.6120  -31.8790   23.2300 C   0  0  0  0  0  0  0  0  0  0  0  0
  -27.2200  -27.3800   20.1640 C   0  0  0  0  0  0  0  0  0  0  0  0
  -23.3960  -30.4770   21.5990 C   0  0  0  0  0  3  0  0  0  0  0  0
  -24.8380  -28.9270   20.1740 C   0  0  0  0  0  0  0  0  0  0  0  0
  -25.9280  -30.8150   21.3930 C   0  0  0  0  0  2  0  0  0  0  0  0
  -26.0050  -29.4400   20.7550 C   0  0  0  0  0  0  0  0  0  0  0  0
  -27.1990  -28.6780   20.7390 C   0  0  0  0  0  3  0  0  0  0  0  0
  -26.0320  -26.8940   19.5740 C   0  0  0  0  0  3  0  0  0  0  0  0
  -24.8500  -27.6560   19.5770 C   0  0  0  0  0  3  0  0  0  0  0  0
  -23.5990  -29.7940   20.2200 C   0  0  0  0  0  2  0  0  0  0  0  0
  -24.6640  -31.0730   22.1320 N   0  0  0  0  0  0  0  0  0  0  0  0
  -23.5340  -32.1580   23.7720 O   0  0  0  0  0  0  0  0  0  0  0  0
  -22.7420  -29.4630   22.5640 C   0  0  0  0  0  0  0  0  0  0  0  0
  -21.4150  -29.2880   22.4420 N   0  0  0  0  0  0  0  0  0  0  0  0
  -23.4240  -28.8340   23.3780 O   0  0  0  0  0  0  0  0  0  0  0  0
  -20.9250  -29.8470   21.7570 H   0  0  0  0  0  0  0  0  0  0  0  0
  -18.0360  -28.1080   22.9490 C   0  0  0  0  0  0  0  0  0  0  0  0
  -20.5950  -28.3570   23.2170 C   0  0  0  0  0  3  0  0  0  0  0  0
  -20.6920  -26.9230   22.6470 C   0  0  0  0  0  2  0  0  0  0  0  0
  -19.5880  -26.6010   21.6350 C   0  0  0  0  0  2  0  0  0  0  0  0
  -18.2070  -26.7550   22.2790 C   0  0  0  0  0  2  0  0  0  0  0  0
  -19.1580  -28.8680   23.3750 C   0  0  0  0  0  0  0  0  0  0  0  0
  -18.9460  -30.1340   23.9600 C   0  0  0  0  0  3  0  0  0  0  0  0
  -17.6430  -30.6430   24.1230 C   0  0  0  0  0  3  0  0  0  0  0  0
  -16.5350  -29.8800   23.7140 C   0  0  0  0  0  3  0  0  0  0  0  0
  -16.7330  -28.6150   23.1330 C   0  0  0  0  0  3  0  0  0  0  0  0
  -25.9020  -32.5060   23.8450 C   0  0  0  0  0  3  0  0  0  0  0  0
  -26.4320  -31.7260   25.1100 C   0  0  1  0  0  0  0  0  0  0  0  0
  -25.3510  -31.4800   26.1870 C   0  0  0  0  0  1  0  0  0  0  0  0
  -27.0110  -30.3510   24.7010 C   0  0  0  0  0  1  0  0  0  0  0  0
  -27.5890  -32.5150   25.7660 C   0  0  0  0  0  1  0  0  0  0  0  0
  -25.5950  -33.9020   24.1880 N   0  0  0  0  0  0  0  0  0  0  0  0
  -25.9180  -34.9600   23.4320 C   0  0  0  0  0  0  0  0  0  0  0  0
  -26.5770  -34.8630   22.3920 O   0  0  0  0  0  0  0  0  0  0  0  0
  -25.0080  -34.0510   24.9950 H   0  0  0  0  0  0  0  0  0  0  0  0
  -24.1810  -36.7490   23.1090 C   0  0  0  0  0  1  0  0  0  0  0  0
  -25.4330  -36.3440   23.9030 C   0  0  0  0  0  3  0  0  0  0  0  0
  -27.5780  -37.2280   24.7060 C   0  0  0  0  0  1  0  0  0  0  0  0
  -26.4610  -37.4010   23.7810 N   0  0  0  0  0  0  0  0  0  0  0  0
  -26.0560  -38.3180   23.9420 H   0  0  0  0  0  0  0  0  0  0  0  0
  1  2  2  0
  1  6  1  0
  2  3  1  0
  3  4  1  0
  5  7  1  0
  6  5  1  0
  6 13  1  0
  7 54  1  0
  7  4  1  0
  8  2  1  0
  9 12  1  0
  9  8  1  0
 10  9  1  0
 11  9  1  0
 14 13  1  0
 14 15  2  0
 16 24  1  0
 17 22  1  0
 18 19  1  0
 18 17  1  0
 20 19  1  0
 20 29  1  0
 20 21  1  0
 22 16  1  0
 22 21  1  0
 23 16  2  0
 24 15  1  0
 24 25  1  0
 26 27  2  0
 27 46  1  0
 28 27  1  0
 28 31  1  0
 29 26  1  0
 29 30  1  0
 30 28  2  0
 31 32  1  0
 32 33  2  0
 34 37  1  0
 34 33  1  0
 35 34  2  0
 36 35  1  0
 36 31  2  0
 37 38  1  0
 38 39  1  0
 39 40  2  0
 41 40  1  0
 41 45  1  0
 42 41  2  0
 43 38  2  0
 43 42  1  0
 44 43  1  0
 46 47  1  0
 47 50  1  0
 47 49  1  0
 48 46  2  0
 51 52  1  0
 51 26  1  0
 53 51  1  0
 54 55  1  0
 56 55  1  0
 57 68  2  0
 58 56  1  0
 58 63  1  0
 59 67  1  0
 59 69  1  0
 60 66  1  0
 60 62  1  0
 61 67  1  0
 62 61  1  0
 63 62  2  0
 64 65  1  0
 64 58  2  0
 65 60  2  0
 66 59  1  0
 67 57  1  0
 69 71  2  0
 70 69  1  0
 72 70  1  0
 73 82  2  0
 73 78  1  0
 74 70  1  0
 74 78  1  0
 75 74  1  0
 76 77  1  0
 76 75  1  0
 77 73  1  0
 78 79  2  0
 79 80  1  0
 81 80  2  0
 82 81  1  0
 83 57  1  0
 83 88  1  0
 83 84  1  0
 84 87  1  1
 84 85  1  0
 86 84  1  0
 88 91  1  0
 89 93  1  0
 89 88  1  0
 90 89  2  0
 93 92  1  0
 95 93  1  0
 95 96  1  0
 95 94  1  0
M  ISO  4  16 100  24 100  55 101  56 101
M  END
>  <TORSDO>  (92) 
F 23

>  <SCORE>  (92) 
-13.012

>  <name>  (92) 
91

>  <ligand_id>  (92) 
91

>  <original_smiles>  (92) 
[H]C1=C(C([H])([H])[N+]([H])([H])[H])C([H])([H])C([H])([H])C([H])(C([H])([H])C([H])([H])Oc2c([H])c([H])c3c(c2[H])C([H])([H])N(C(=O)C([H])(N([H])C(=O)C([H])(N([H])C([H])([H])[H])C([H])([H])[H])C(C([H])([H])[H])(C([H])([H])[H])C([H])([H])[H])C([H])(C(=O)N([H])C2([H])c4c([H])c([H])c([H])c([H])c4C([H])([H])C([H])([H])C2([H])[H])C3([H])[H])C([H])([H])C1([H])C([H])([H])C([H])([H])C([H])([H])N([H])C(=O)N1C([H])([H])C([H])([H])C([H])([H])C([H])(n2nc(-c3c([H])c([H])c(Oc4c([H])c([H])c(F)c([H])c4F)c([H])c3[H])c(C(=O)N([H])[H])c2N([H])[H])C1([H])[H]

>  <smiles>  (92) 
[H]C1=C(C([H])([H])[N+]([H])([H])[H])C([H])([H])C([H])([H])C([H])(C([H])([H])C([H])([H])Oc2c([H])c([H])c3c(c2[H])C([H])([H])N(C(=O)C([H])(N([H])C(=O)C([H])(N([H])C([H])([H])[H])C([H])([H])[H])C(C([H])([H])[H])(C([H])([H])[H])C([H])([H])[H])C([H])(C(=O)N([H])C2([H])c4c([H])c([H])c([H])c([H])c4C([H])([H])C([H])([H])C2([H])[H])C3([H])[H])C([H])([H])C1([H])C([H])([H])C([H])([H])C([H])([H])N([H])C(=O)N1C([H])([H])C([H])([H])C([H])([H])C([H])(n2nc(-c3c([H])c([H])c(Oc4c([H])c([H])c(F)c([H])c4F)c([H])c3[H])c(C(=O)N([H])[H])c2N([H])[H])C1([H])[H]

$$$$
92:0:0
     RDKit          3D

 96105  0  0  1  0  0  0  0  0999 V2000
  -29.3120  -22.0170   21.1750 C   0  0  0  0  0  3  0  0  0  0  0  0
  -28.5130  -19.2430   18.4460 C   0  0  0  0  0  2  0  0  0  0  0  0
  -28.4930  -18.0400   19.3930 C   0  0  0  0  0  2  0  0  0  0  0  0
  -29.4760  -19.3620   21.4770 C   0  0  0  0  0  2  0  0  0  0  0  0
  -29.4290  -19.9710   19.4340 C   0  0  0  0  0  3  0  0  0  0  0  0
  -28.9070  -20.5910   20.7460 C   0  0  0  0  0  3  0  0  0  0  0  0
  -29.7060  -18.6270   20.1450 C   0  0  2  0  0  0  0  0  0  0  0  0
  -31.0620  -17.9350   19.9390 C   0  0  0  0  0  2  0  0  0  0  0  0
  -31.3850  -16.8200   20.9620 C   0  0  0  0  0  2  0  0  0  0  0  0
  -31.2820  -14.5450   19.9400 C   0  0  0  0  0  0  0  0  0  0  0  0
  -30.8960  -12.3160   18.9520 C   0  0  0  0  0  2  0  0  0  0  0  0
  -29.9060  -12.4070   17.7750 C   0  0  0  0  0  2  0  0  0  0  0  0
  -28.4500  -12.3310   18.2740 C   0  0  0  0  0  2  0  0  0  0  0  0
  -28.1700  -13.2930   19.4600 C   0  0  0  0  0  3  0  0  0  0  0  0
  -29.2610  -13.1560   20.5430 C   0  0  0  0  0  2  0  0  0  0  0  0
  -30.5690  -13.3870   19.9040 N   0  0  0  0  0  0  0  0  0  0  0  0
  -32.3380  -14.7060   19.3220 O   0  0  0  0  0  0  0  0  0  0  0  0
  -30.7470  -15.5320   20.6730 N   0  0  0  0  0  0  0  0  0  0  0  0
  -29.8650  -15.3400   21.1230 H   0  0  0  0  0  0  0  0  0  0  0  0
  -25.8560  -14.0170   20.3250 C   0  0  0  0  0  0  0  0  0  0  0  0
  -24.7680  -13.2960   20.7390 C   0  0  0  0  0  0  0  0  0  0  0  0
  -25.1450  -11.9220   20.6470 C   0  0  0  0  0  0  0  0  0  0  0  0
  -26.8320  -13.0850   20.0110 N   0  0  0  0  0  0  0  0  0  0  0  0
  -26.4100  -11.8170   20.2580 N   0  0  0  0  0  0  0  0  0  0  0  0
  -24.3590  -10.6990   20.8480 C   0  0  0  0  0  0  0  0  0  0  0  0
  -24.7310   -9.7310   21.8100 C   0  0  0  0  0  3  0  0  0  0  0  0
  -23.9490   -8.5720   21.9970 C   0  0  0  0  0  3  0  0  0  0  0  0
  -22.7800   -8.3710   21.2250 C   0  0  0  0  0  0  0  0  0  0  0  0
  -22.4280   -9.3250   20.2540 C   0  0  0  0  0  3  0  0  0  0  0  0
  -23.2110  -10.4760   20.0640 C   0  0  0  0  0  3  0  0  0  0  0  0
  -21.9720   -7.2630   21.3200 O   0  0  0  0  0  0  0  0  0  0  0  0
  -21.7960   -6.6030   22.5100 C   0  0  0  0  0  0  0  0  0  0  0  0
  -21.2570   -7.2440   23.6460 C   0  0  0  0  0  3  0  0  0  0  0  0
  -21.0280   -6.5100   24.8260 C   0  0  0  0  0  3  0  0  0  0  0  0
  -21.3270   -5.1350   24.8710 C   0  0  0  0  0  0  0  0  0  0  0  0
  -21.8570   -4.4930   23.7380 C   0  0  0  0  0  3  0  0  0  0  0  0
  -22.0880   -5.2250   22.5600 C   0  0  0  0  0  0  0  0  0  0  0  0
  -22.5810   -4.5960   21.4660 F   0  0  0  0  0  0  0  0  0  0  0  0
  -21.0980   -4.4280   26.0020 F   0  0  0  0  0  0  0  0  0  0  0  0
  -23.4190  -13.8440   21.1090 C   0  0  0  0  0  0  0  0  0  0  0  0
  -22.7140  -13.1760   22.0150 N   0  0  0  0  0  0  0  0  0  0  0  0
  -23.0040  -14.8990   20.6310 O   0  0  0  0  0  0  0  0  0  0  0  0
  -23.0630  -12.3220   22.4230 H   0  0  0  0  0  0  0  0  0  0  0  0
  -21.8100  -13.5230   22.3040 H   0  0  0  0  0  0  0  0  0  0  0  0
  -26.0910  -15.3800   20.1720 N   0  0  0  0  0  0  0  0  0  0  0  0
  -25.3740  -16.0760   20.3430 H   0  0  0  0  0  0  0  0  0  0  0  0
  -26.9510  -15.7760   19.8150 H   0  0  0  0  0  0  0  0  0  0  0  0
  -28.7520  -23.0770   20.1770 C   0  0  0  0  0  2  0  0  0  0  0  0
  -28.8230  -24.5670   20.6060 C   0  0  0  0  0  2  0  0  0  0  0  0
  -28.7400  -25.5670   19.4340 C   0  0  0  0  0  2  0  0  0  0  0  0
  -28.6080  -26.9190   19.9060 O   0  0  0  0  0  0  0  0  0  0  0  0
  -24.6450  -31.8400   23.1910 C   0  0  0  0  0  0  0  0  0  0  0  0
  -27.3820  -27.5600   19.9440 C   0  0  0  0  0  0  0  0  0  0  0  0
  -23.4630  -30.4650   21.5090 C   0  0  0  0  0  3  0  0  0  0  0  0
  -24.9440  -29.0100   20.0310 C   0  0  0  0  0  0  0  0  0  0  0  0
  -25.9790  -30.8910   21.3100 C   0  0  0  0  0  2  0  0  0  0  0  0
  -26.0950  -29.5430   20.6240 C   0  0  0  0  0  0  0  0  0  0  0  0
  -27.3110  -28.8260   20.5750 C   0  0  0  0  0  3  0  0  0  0  0  0
  -26.2010  -27.0370   19.3650 C   0  0  0  0  0  3  0  0  0  0  0  0
  -24.9920  -27.7550   19.4050 C   0  0  0  0  0  3  0  0  0  0  0  0
  -23.6820  -29.8380   20.1080 C   0  0  0  0  0  2  0  0  0  0  0  0
  -24.7140  -31.0790   22.0620 N   0  0  0  0  0  0  0  0  0  0  0  0
  -23.5610  -32.0680   23.7450 O   0  0  0  0  0  0  0  0  0  0  0  0
  -22.8430  -29.3960   22.4380 C   0  0  0  0  0  0  0  0  0  0  0  0
  -21.5290  -29.1620   22.2890 N   0  0  0  0  0  0  0  0  0  0  0  0
  -23.5420  -28.7800   23.2470 O   0  0  0  0  0  0  0  0  0  0  0  0
  -21.0250  -29.7150   21.6100 H   0  0  0  0  0  0  0  0  0  0  0  0
  -18.2040  -27.8100   22.6990 C   0  0  0  0  0  0  0  0  0  0  0  0
  -20.7420  -28.1750   23.0260 C   0  0  0  0  0  3  0  0  0  0  0  0
  -20.9200  -26.7610   22.4270 C   0  0  0  0  0  2  0  0  0  0  0  0
  -19.8520  -26.4100   21.3850 C   0  0  0  0  0  2  0  0  0  0  0  0
  -18.4520  -26.4820   22.0030 C   0  0  0  0  0  2  0  0  0  0  0  0
  -19.2790  -28.6120   23.1650 C   0  0  0  0  0  0  0  0  0  0  0  0
  -18.9940  -29.8540   23.7730 C   0  0  0  0  0  3  0  0  0  0  0  0
  -17.6660  -30.2950   23.9210 C   0  0  0  0  0  3  0  0  0  0  0  0
  -16.6050  -29.4900   23.4740 C   0  0  0  0  0  3  0  0  0  0  0  0
  -16.8740  -28.2500   22.8660 C   0  0  0  0  0  3  0  0  0  0  0  0
  -25.9200  -32.4800   23.8250 C   0  0  0  0  0  3  0  0  0  0  0  0
  -26.4450  -31.6990   25.0910 C   0  0  1  0  0  0  0  0  0  0  0  0
  -25.3500  -31.4210   26.1470 C   0  0  0  0  0  1  0  0  0  0  0  0
  -27.0590  -30.3410   24.6790 C   0  0  0  0  0  1  0  0  0  0  0  0
  -27.5740  -32.5060   25.7740 C   0  0  0  0  0  1  0  0  0  0  0  0
  -25.5900  -33.8690   24.1700 N   0  0  0  0  0  0  0  0  0  0  0  0
  -25.9070  -34.9350   23.4230 C   0  0  0  0  0  0  0  0  0  0  0  0
  -26.5780  -34.8530   22.3900 O   0  0  0  0  0  0  0  0  0  0  0  0
  -24.9940  -34.0060   24.9730 H   0  0  0  0  0  0  0  0  0  0  0  0
  -24.1470  -36.7000   23.0900 C   0  0  0  0  0  1  0  0  0  0  0  0
  -25.3960  -36.3090   23.8960 C   0  0  0  0  0  3  0  0  0  0  0  0
  -27.5120  -37.2250   24.7410 C   0  0  0  0  0  1  0  0  0  0  0  0
  -26.4110  -37.3810   23.7930 N   0  0  0  0  0  0  0  0  0  0  0  0
  -25.9900  -38.2930   23.9440 H   0  0  0  0  0  0  0  0  0  0  0  0
  -28.8980  -22.2750   22.6500 C   0  0  0  0  0  2  0  0  0  0  0  0
  -29.8180  -23.1860   23.3560 N   0  0  0  0  0  4  0  0  0  0  0  0
  -30.7350  -22.7800   23.4310 H   0  0  0  0  0  0  0  0  0  0  0  0
  -29.4820  -23.3610   24.2870 H   0  0  0  0  0  0  0  0  0  0  0  0
  -29.8970  -24.0660   22.8780 H   0  0  0  0  0  0  0  0  0  0  0  0
  1 48  1  0
  1 92  1  0
  2  3  1  0
  3  7  1  0
  5  2  1  0
  5  7  1  0
  5  6  1  0
  6  1  1  0
  6  4  1  0
  7  8  1  1
  7  4  1  0
  8  9  1  0
 10 18  1  0
 11 16  1  0
 12 13  1  0
 12 11  1  0
 14 13  1  0
 14 23  1  0
 14 15  1  0
 16 10  1  0
 16 15  1  0
 17 10  2  0
 18  9  1  0
 18 19  1  0
 20 21  2  0
 21 40  1  0
 22 21  1  0
 22 25  1  0
 23 24  1  0
 23 20  1  0
 24 22  2  0
 25 26  1  0
 26 27  2  0
 28 31  1  0
 28 27  1  0
 29 28  2  0
 30 29  1  0
 30 25  2  0
 31 32  1  0
 32 37  2  0
 32 33  1  0
 33 34  2  0
 34 35  1  0
 35 39  1  0
 36 35  2  0
 37 36  1  0
 38 37  1  0
 40 41  1  0
 41 44  1  0
 41 43  1  0
 42 40  2  0
 45 20  1  0
 45 46  1  0
 47 45  1  0
 48 49  1  0
 50 51  1  0
 50 49  1  0
 51 53  1  0
 52 63  2  0
 53 58  1  0
 54 62  1  0
 54 64  1  0
 55 61  1  0
 55 57  1  0
 56 62  1  0
 57 56  1  0
 58 57  2  0
 59 60  1  0
 59 53  2  0
 60 55  2  0
 61 54  1  0
 62 52  1  0
 64 66  2  0
 65 64  1  0
 67 65  1  0
 68 77  2  0
 68 73  1  0
 69 65  1  0
 69 73  1  0
 70 69  1  0
 71 72  1  0
 71 70  1  0
 72 68  1  0
 73 74  2  0
 74 75  1  0
 76 75  2  0
 77 76  1  0
 78 52  1  0
 78 83  1  0
 78 79  1  0
 79 82  1  1
 79 80  1  0
 81 79  1  0
 83 86  1  0
 84 88  1  0
 84 83  1  0
 85 84  2  0
 88 87  1  0
 90 88  1  0
 90 91  1  0
 90 89  1  0
 92 93  1  0
 93 94  1  0
 93 95  1  0
 96 93  1  0
M  ISO  4  10 100  18 100  50 101  51 101
M  END
>  <TORSDO>  (93) 
F 24

>  <SCORE>  (93) 
-12.141

>  <name>  (93) 
92

>  <ligand_id>  (93) 
92

>  <original_smiles>  (93) 
[H]c1c([H])c([H])c2c(c1[H])C([H])([H])C([H])([H])C([H])([H])C2([H])N([H])C(=O)C1([H])N(C(=O)C([H])(N([H])C(=O)C([H])(N([H])C([H])([H])[H])C([H])([H])[H])C(C([H])([H])[H])(C([H])([H])[H])C([H])([H])[H])C([H])([H])c2c([H])c(OC([H])([H])C([H])([H])C([H])([H])C([H])(C3([H])C([H])([H])C4(C([H])([H])C([H])([H])N([H])C(=O)N5C([H])([H])C([H])([H])C([H])([H])C([H])(n6nc(-c7c([H])c([H])c(Oc8c([H])c([H])c(F)c([H])c8F)c([H])c7[H])c(C(=O)N([H])[H])c6N([H])[H])C5([H])[H])C([H])([H])C([H])([H])C34[H])C([H])([H])[N+]([H])([H])[H])c([H])c([H])c2C1([H])[H]

>  <smiles>  (93) 
[H]c1c([H])c([H])c2c(c1[H])C([H])([H])C([H])([H])C([H])([H])C2([H])N([H])C(=O)C1([H])N(C(=O)C([H])(N([H])C(=O)C([H])(N([H])C([H])([H])[H])C([H])([H])[H])C(C([H])([H])[H])(C([H])([H])[H])C([H])([H])[H])C([H])([H])c2c([H])c(OC([H])([H])C([H])([H])C([H])([H])C([H])(C3([H])C([H])([H])C4(C([H])([H])C([H])([H])N([H])C(=O)N5C([H])([H])C([H])([H])C([H])([H])C([H])(n6nc(-c7c([H])c([H])c(Oc8c([H])c([H])c(F)c([H])c8F)c([H])c7[H])c(C(=O)N([H])[H])c6N([H])[H])C5([H])[H])C([H])([H])C([H])([H])C34[H])C([H])([H])[N+]([H])([H])[H])c([H])c([H])c2C1([H])[H]

$$$$
93:0:0
     RDKit          3D

 89 98  0  0  1  0  0  0  0  0999 V2000
  -30.5330  -20.1620   19.6950 C   0  0  0  0  0  2  0  0  0  0  0  0
  -29.8380  -19.0470   20.0380 C   0  0  0  0  0  3  0  0  0  0  0  0
  -29.9550  -20.4190   21.9080 C   0  0  0  0  0  2  0  0  0  0  0  0
  -28.0490  -20.9310   20.6090 C   0  0  0  0  0  2  0  0  0  0  0  0
  -30.3380  -21.3330   20.7160 C   0  0  0  0  0  3  0  0  0  0  0  0
  -28.8990  -19.6350   21.1160 C   0  0  0  0  0  3  0  0  0  0  0  0
  -29.0150  -22.1990   20.6650 C   0  0  0  0  0  3  0  0  0  0  0  0
  -30.4630  -17.5590   19.7990 C   0  0  0  0  0  2  0  0  0  0  0  0
  -30.7440  -14.9650   20.0450 C   0  0  0  0  0  0  0  0  0  0  0  0
  -30.5590  -12.6650   19.0680 C   0  0  0  0  0  2  0  0  0  0  0  0
  -29.5950  -12.7080   17.8640 C   0  0  0  0  0  2  0  0  0  0  0  0
  -28.1350  -12.5270   18.3290 C   0  0  0  0  0  2  0  0  0  0  0  0
  -27.7840  -13.4110   19.5570 C   0  0  0  0  0  3  0  0  0  0  0  0
  -28.8700  -13.3400   20.6490 C   0  0  0  0  0  2  0  0  0  0  0  0
  -30.1330  -13.7270   20.0140 N   0  0  0  0  0  0  0  0  0  0  0  0
  -31.9320  -15.0350   19.7050 O   0  0  0  0  0  0  0  0  0  0  0  0
  -29.9920  -16.1400   20.2070 N   0  0  0  0  0  0  0  0  0  0  0  0
  -29.0100  -16.0250   20.4140 H   0  0  0  0  0  0  0  0  0  0  0  0
  -25.4290  -14.0040   20.3760 C   0  0  0  0  0  0  0  0  0  0  0  0
  -24.3730  -13.2320   20.7800 C   0  0  0  0  0  0  0  0  0  0  0  0
  -24.8310  -11.8800   20.7260 C   0  0  0  0  0  0  0  0  0  0  0  0
  -26.4570  -13.1210   20.0910 N   0  0  0  0  0  0  0  0  0  0  0  0
  -26.1090  -11.8380   20.3690 N   0  0  0  0  0  0  0  0  0  0  0  0
  -24.1080  -10.6180   20.9360 C   0  0  0  0  0  0  0  0  0  0  0  0
  -24.5510   -9.6620   21.8760 C   0  0  0  0  0  3  0  0  0  0  0  0
  -23.8290   -8.4650   22.0720 C   0  0  0  0  0  3  0  0  0  0  0  0
  -22.6520   -8.2160   21.3260 C   0  0  0  0  0  0  0  0  0  0  0  0
  -22.2290   -9.1620   20.3760 C   0  0  0  0  0  3  0  0  0  0  0  0
  -22.9520  -10.3500   20.1780 C   0  0  0  0  0  3  0  0  0  0  0  0
  -21.9020   -7.0700   21.4290 O   0  0  0  0  0  0  0  0  0  0  0  0
  -21.8400   -6.3520   22.5970 C   0  0  0  0  0  0  0  0  0  0  0  0
  -21.3590   -6.9210   23.7960 C   0  0  0  0  0  3  0  0  0  0  0  0
  -21.2450   -6.1270   24.9550 C   0  0  0  0  0  3  0  0  0  0  0  0
  -21.6040   -4.7670   24.9170 C   0  0  0  0  0  0  0  0  0  0  0  0
  -22.0760   -4.1970   23.7200 C   0  0  0  0  0  3  0  0  0  0  0  0
  -22.1910   -4.9870   22.5640 C   0  0  0  0  0  0  0  0  0  0  0  0
  -22.6280   -4.4280   21.4090 F   0  0  0  0  0  0  0  0  0  0  0  0
  -21.4890   -4.0020   26.0270 F   0  0  0  0  0  0  0  0  0  0  0  0
  -22.9850  -13.7150   21.0940 C   0  0  0  0  0  0  0  0  0  0  0  0
  -22.2780  -13.0230   21.9800 N   0  0  0  0  0  0  0  0  0  0  0  0
  -22.5370  -14.7410   20.5890 O   0  0  0  0  0  0  0  0  0  0  0  0
  -22.6530  -12.1990   22.4240 H   0  0  0  0  0  0  0  0  0  0  0  0
  -21.3460  -13.3300   22.2170 H   0  0  0  0  0  0  0  0  0  0  0  0
  -25.5890  -15.3750   20.2040 N   0  0  0  0  0  0  0  0  0  0  0  0
  -24.8260  -16.0260   20.3540 H   0  0  0  0  0  0  0  0  0  0  0  0
  -26.4170  -15.8190   19.8260 H   0  0  0  0  0  0  0  0  0  0  0  0
  -28.8610  -23.6400   19.8630 C   0  0  0  0  0  3  0  0  0  0  0  0
  -28.2960  -25.0070   20.5980 C   0  0  0  0  0  3  0  0  0  0  0  0
  -28.4850  -26.4470   20.1240 O   0  0  0  0  0  0  0  0  0  0  0  0
  -24.6670  -31.8560   23.2120 C   0  0  0  0  0  0  0  0  0  0  0  0
  -27.3880  -27.3510   20.1160 C   0  0  0  0  0  0  0  0  0  0  0  0
  -23.5130  -30.4840   21.5100 C   0  0  0  0  0  3  0  0  0  0  0  0
  -25.0170  -28.9870   20.0720 C   0  0  0  0  0  0  0  0  0  0  0  0
  -26.0520  -30.8380   21.3800 C   0  0  0  0  0  2  0  0  0  0  0  0
  -26.1690  -29.4660   20.7070 C   0  0  0  0  0  0  0  0  0  0  0  0
  -27.3640  -28.6660   20.7120 C   0  0  0  0  0  3  0  0  0  0  0  0
  -26.2150  -26.9510   19.4480 C   0  0  0  0  0  3  0  0  0  0  0  0
  -25.0490  -27.7430   19.4220 C   0  0  0  0  0  3  0  0  0  0  0  0
  -23.7660  -29.8480   20.1160 C   0  0  0  0  0  2  0  0  0  0  0  0
  -24.7620  -31.0770   22.0930 N   0  0  0  0  0  0  0  0  0  0  0  0
  -23.5710  -32.1010   23.7380 O   0  0  0  0  0  0  0  0  0  0  0  0
  -22.8490  -29.4360   22.4350 C   0  0  0  0  0  0  0  0  0  0  0  0
  -21.5270  -29.2450   22.2870 N   0  0  0  0  0  0  0  0  0  0  0  0
  -23.5240  -28.7990   23.2490 O   0  0  0  0  0  0  0  0  0  0  0  0
  -21.0390  -29.8140   21.6080 H   0  0  0  0  0  0  0  0  0  0  0  0
  -18.1640  -27.9860   22.7220 C   0  0  0  0  0  0  0  0  0  0  0  0
  -20.7150  -28.2760   23.0250 C   0  0  0  0  0  3  0  0  0  0  0  0
  -20.8440  -26.8620   22.4140 C   0  0  0  0  0  2  0  0  0  0  0  0
  -19.7580  -26.5500   21.3790 C   0  0  0  0  0  2  0  0  0  0  0  0
  -18.3690  -26.6580   22.0120 C   0  0  0  0  0  2  0  0  0  0  0  0
  -19.2660  -28.7520   23.1850 C   0  0  0  0  0  0  0  0  0  0  0  0
  -19.0220  -29.9930   23.8130 C   0  0  0  0  0  3  0  0  0  0  0  0
  -17.7080  -30.4680   23.9830 C   0  0  0  0  0  3  0  0  0  0  0  0
  -16.6210  -29.7000   23.5350 C   0  0  0  0  0  3  0  0  0  0  0  0
  -16.8490  -28.4620   22.9070 C   0  0  0  0  0  3  0  0  0  0  0  0
  -25.9290  -32.4950   23.8690 C   0  0  0  0  0  3  0  0  0  0  0  0
  -26.4180  -31.7240   25.1570 C   0  0  1  0  0  0  0  0  0  0  0  0
  -25.2990  -31.4770   26.1950 C   0  0  0  0  0  1  0  0  0  0  0  0
  -27.0240  -30.3500   24.7820 C   0  0  0  0  0  1  0  0  0  0  0  0
  -27.5420  -32.5240   25.8570 C   0  0  0  0  0  1  0  0  0  0  0  0
  -25.6000  -33.8900   24.1970 N   0  0  0  0  0  0  0  0  0  0  0  0
  -25.9420  -34.9510   23.4540 C   0  0  0  0  0  0  0  0  0  0  0  0
  -26.6370  -34.8600   22.4400 O   0  0  0  0  0  0  0  0  0  0  0  0
  -24.9820  -34.0340   24.9820 H   0  0  0  0  0  0  0  0  0  0  0  0
  -24.2230  -36.7490   23.0580 C   0  0  0  0  0  1  0  0  0  0  0  0
  -25.4320  -36.3320   23.9100 C   0  0  0  0  0  3  0  0  0  0  0  0
  -27.5260  -37.2230   24.8340 C   0  0  0  0  0  1  0  0  0  0  0  0
  -26.4620  -37.3910   23.8490 N   0  0  0  0  0  0  0  0  0  0  0  0
  -26.0430  -38.3060   23.9890 H   0  0  0  0  0  0  0  0  0  0  0  0
  1  2  1  0
  2  8  1  0
  2  6  1  0
  4  7  1  0
  5  1  1  0
  5  3  1  0
  6  4  1  0
  6  3  1  0
  7 47  1  0
  7  5  1  0
  8 17  1  0
  9 17  1  0
 10 15  1  0
 11 12  1  0
 11 10  1  0
 13 12  1  0
 13 22  1  0
 13 14  1  0
 15  9  1  0
 15 14  1  0
 16  9  2  0
 17 18  1  0
 19 20  2  0
 20 39  1  0
 21 20  1  0
 21 24  1  0
 22 23  1  0
 22 19  1  0
 23 21  2  0
 24 25  1  0
 25 26  2  0
 27 30  1  0
 27 26  1  0
 28 27  2  0
 29 28  1  0
 29 24  2  0
 30 31  1  0
 31 32  1  0
 32 33  2  0
 34 33  1  0
 34 38  1  0
 35 34  2  0
 36 31  2  0
 36 35  1  0
 37 36  1  0
 39 40  1  0
 40 43  1  0
 40 42  1  0
 41 39  2  0
 44 45  1  0
 44 19  1  0
 46 44  1  0
 47 48  2  0
 49 48  1  0
 50 61  2  0
 51 49  1  0
 51 56  1  0
 52 60  1  0
 52 62  1  0
 53 59  1  0
 53 55  1  0
 54 60  1  0
 55 56  2  0
 55 54  1  0
 57 51  2  0
 58 57  1  0
 58 53  2  0
 59 52  1  0
 60 50  1  0
 62 64  2  0
 63 62  1  0
 65 63  1  0
 66 75  2  0
 66 71  1  0
 67 63  1  0
 67 71  1  0
 68 67  1  0
 69 70  1  0
 69 68  1  0
 70 66  1  0
 71 72  2  0
 72 73  1  0
 74 73  2  0
 75 74  1  0
 76 50  1  0
 76 81  1  0
 76 77  1  0
 77 80  1  1
 77 78  1  0
 79 77  1  0
 81 84  1  0
 82 86  1  0
 82 81  1  0
 83 82  2  0
 86 85  1  0
 88 86  1  0
 88 89  1  0
 88 87  1  0
M  ISO  4   9 100  17 100  48 101  49 101
M  END
>  <TORSDO>  (94) 
F 19

>  <SCORE>  (94) 
-13.575

>  <name>  (94) 
93

>  <ligand_id>  (94) 
93

>  <original_smiles>  (94) 
[H]C1=C(C([H])([H])N([H])C(=O)N2C([H])([H])C([H])([H])C([H])([H])C([H])(n3nc(-c4c([H])c([H])c(Oc5c([H])c([H])c(F)c([H])c5F)c([H])c4[H])c(C(=O)N([H])[H])c3N([H])[H])C2([H])[H])C2([H])C([H])([H])C1([H])C([H])(C([H])([H])C([H])([H])Oc1c([H])c([H])c3c(c1[H])C([H])([H])N(C(=O)C([H])(N([H])C(=O)C([H])(N([H])C([H])([H])[H])C([H])([H])[H])C(C([H])([H])[H])(C([H])([H])[H])C([H])([H])[H])C([H])(C(=O)N([H])C1([H])c4c([H])c([H])c([H])c([H])c4C([H])([H])C([H])([H])C1([H])[H])C3([H])[H])C2([H])[H]

>  <smiles>  (94) 
[H]C1=C(C([H])([H])N([H])C(=O)N2C([H])([H])C([H])([H])C([H])([H])C([H])(n3nc(-c4c([H])c([H])c(Oc5c([H])c([H])c(F)c([H])c5F)c([H])c4[H])c(C(=O)N([H])[H])c3N([H])[H])C2([H])[H])C2([H])C([H])([H])C1([H])C([H])(C([H])([H])C([H])([H])Oc1c([H])c([H])c3c(c1[H])C([H])([H])N(C(=O)C([H])(N([H])C(=O)C([H])(N([H])C([H])([H])[H])C([H])([H])[H])C(C([H])([H])[H])(C([H])([H])[H])C([H])([H])[H])C([H])(C(=O)N([H])C1([H])c4c([H])c([H])c([H])c([H])c4C([H])([H])C([H])([H])C1([H])[H])C3([H])[H])C2([H])[H]

$$$$
94:0:0
     RDKit          3D

 96103  0  0  1  0  0  0  0  0999 V2000
  -29.2130  -20.1720   21.8190 C   0  0  0  0  0  2  0  0  0  0  0  0
  -30.3590  -19.1570   21.9740 C   0  0  0  0  0  2  0  0  0  0  0  0
  -30.0490  -17.7780   21.3390 C   0  0  0  0  0  2  0  0  0  0  0  0
  -31.2870  -16.9590   20.8680 C   0  0  0  0  0  3  0  0  0  0  0  0
  -31.4640  -14.5610   19.9440 C   0  0  0  0  0  0  0  0  0  0  0  0
  -31.1060  -12.3100   18.9950 C   0  0  0  0  0  2  0  0  0  0  0  0
  -30.1250  -12.3760   17.8090 C   0  0  0  0  0  2  0  0  0  0  0  0
  -28.6620  -12.3140   18.2930 C   0  0  0  0  0  2  0  0  0  0  0  0
  -28.3730  -13.3010   19.4540 C   0  0  0  0  0  3  0  0  0  0  0  0
  -29.4490  -13.1730   20.5510 C   0  0  0  0  0  2  0  0  0  0  0  0
  -30.7630  -13.3980   19.9240 N   0  0  0  0  0  0  0  0  0  0  0  0
  -32.5390  -14.6870   19.3520 O   0  0  0  0  0  0  0  0  0  0  0  0
  -30.8640  -15.5660   20.6110 N   0  0  0  0  0  0  0  0  0  0  0  0
  -29.9710  -15.3140   21.0080 H   0  0  0  0  0  0  0  0  0  0  0  0
  -26.0620  -14.0510   20.3000 C   0  0  0  0  0  0  0  0  0  0  0  0
  -24.9640  -13.3430   20.7100 C   0  0  0  0  0  0  0  0  0  0  0  0
  -25.3300  -11.9650   20.6250 C   0  0  0  0  0  0  0  0  0  0  0  0
  -27.0310  -13.1070   19.9960 N   0  0  0  0  0  0  0  0  0  0  0  0
  -26.5940  -11.8460   20.2420 N   0  0  0  0  0  0  0  0  0  0  0  0
  -24.5320  -10.7480   20.8300 C   0  0  0  0  0  0  0  0  0  0  0  0
  -24.9000   -9.7770   21.7880 C   0  0  0  0  0  3  0  0  0  0  0  0
  -24.1080   -8.6240   21.9770 C   0  0  0  0  0  3  0  0  0  0  0  0
  -22.9360   -8.4340   21.2060 C   0  0  0  0  0  0  0  0  0  0  0  0
  -22.5880   -9.3930   20.2380 C   0  0  0  0  0  3  0  0  0  0  0  0
  -23.3810  -10.5380   20.0480 C   0  0  0  0  0  3  0  0  0  0  0  0
  -22.1180   -7.3340   21.3030 O   0  0  0  0  0  0  0  0  0  0  0  0
  -21.9380   -6.6730   22.4910 C   0  0  0  0  0  0  0  0  0  0  0  0
  -21.4100   -7.3200   23.6290 C   0  0  0  0  0  3  0  0  0  0  0  0
  -21.1750   -6.5880   24.8100 C   0  0  0  0  0  3  0  0  0  0  0  0
  -21.4610   -5.2090   24.8520 C   0  0  0  0  0  0  0  0  0  0  0  0
  -21.9840   -4.5630   23.7200 C   0  0  0  0  0  3  0  0  0  0  0  0
  -22.2200   -5.2930   22.5410 C   0  0  0  0  0  0  0  0  0  0  0  0
  -22.7030   -4.6620   21.4440 F   0  0  0  0  0  0  0  0  0  0  0  0
  -21.2290   -4.5040   25.9840 F   0  0  0  0  0  0  0  0  0  0  0  0
  -23.6190  -13.9040   21.0720 C   0  0  0  0  0  0  0  0  0  0  0  0
  -22.9070  -13.2470   21.9810 N   0  0  0  0  0  0  0  0  0  0  0  0
  -23.2140  -14.9580   20.5860 O   0  0  0  0  0  0  0  0  0  0  0  0
  -23.2500  -12.3930   22.3970 H   0  0  0  0  0  0  0  0  0  0  0  0
  -22.0060  -13.6030   22.2670 H   0  0  0  0  0  0  0  0  0  0  0  0
  -26.3120  -15.4110   20.1450 N   0  0  0  0  0  0  0  0  0  0  0  0
  -25.6100  -16.1210   20.3210 H   0  0  0  0  0  0  0  0  0  0  0  0
  -27.1780  -15.7930   19.7860 H   0  0  0  0  0  0  0  0  0  0  0  0
  -32.0810  -17.6500   19.7100 C   0  0  0  0  0  2  0  0  0  0  0  0
  -31.3130  -17.9780   18.4170 C   0  0  0  0  0  0  0  0  0  0  0  0
  -31.8610  -18.8680   17.6020 N   0  0  0  0  0  0  0  0  0  0  0  0
  -30.2390  -17.4440   18.1380 O   0  0  0  0  0  0  0  0  0  0  0  0
  -32.7530  -19.2880   17.8270 H   0  0  0  0  0  0  0  0  0  0  0  0
  -31.4020  -19.1130   16.7360 H   0  0  0  0  0  0  0  0  0  0  0  0
  -29.6130  -21.6000   22.2470 C   0  0  0  0  0  2  0  0  0  0  0  0
  -28.6930  -22.6130   21.6830 N   0  0  0  0  0  4  0  0  0  0  0  0
  -27.8040  -22.5490   22.1530 H   0  0  0  0  0  0  0  0  0  0  0  0
  -28.5400  -22.3860   20.7160 H   0  0  0  0  0  0  0  0  0  0  0  0
  -29.1860  -24.0070   21.7440 C   0  0  0  0  0  2  0  0  0  0  0  0
  -28.5270  -24.8810   20.6610 C   0  0  0  0  0  2  0  0  0  0  0  0
  -28.9940  -26.3480   20.6860 C   0  0  0  0  0  2  0  0  0  0  0  0
  -28.5390  -27.0110   19.5100 O   0  0  0  0  0  0  0  0  0  0  0  0
  -24.6150  -31.7570   23.0770 C   0  0  0  0  0  0  0  0  0  0  0  0
  -27.3420  -27.6640   19.6440 C   0  0  0  0  0  0  0  0  0  0  0  0
  -23.4140  -30.4130   21.3790 C   0  0  0  0  0  3  0  0  0  0  0  0
  -24.8860  -29.0330   19.8180 C   0  0  0  0  0  0  0  0  0  0  0  0
  -25.9100  -30.9010   21.1330 C   0  0  0  0  0  2  0  0  0  0  0  0
  -26.0350  -29.5770   20.4100 C   0  0  0  0  0  0  0  0  0  0  0  0
  -27.2680  -28.8970   20.3230 C   0  0  0  0  0  3  0  0  0  0  0  0
  -26.1850  -27.1260   19.0470 C   0  0  0  0  0  3  0  0  0  0  0  0
  -24.9550  -27.8050   19.1360 C   0  0  0  0  0  3  0  0  0  0  0  0
  -23.6090  -29.8300   19.9530 C   0  0  0  0  0  2  0  0  0  0  0  0
  -24.6660  -31.0340   21.9230 N   0  0  0  0  0  0  0  0  0  0  0  0
  -23.5420  -31.9500   23.6650 O   0  0  0  0  0  0  0  0  0  0  0  0
  -22.8360  -29.3070   22.2870 C   0  0  0  0  0  0  0  0  0  0  0  0
  -21.5190  -29.0750   22.1770 N   0  0  0  0  0  0  0  0  0  0  0  0
  -23.5680  -28.6620   23.0440 O   0  0  0  0  0  0  0  0  0  0  0  0
  -20.9920  -29.6500   21.5360 H   0  0  0  0  0  0  0  0  0  0  0  0
  -18.2140  -27.6910   22.6470 C   0  0  0  0  0  0  0  0  0  0  0  0
  -20.7600  -28.0540   22.9020 C   0  0  0  0  0  3  0  0  0  0  0  0
  -20.9220  -26.6670   22.2380 C   0  0  0  0  0  2  0  0  0  0  0  0
  -19.8200  -26.3510   21.2230 C   0  0  0  0  0  2  0  0  0  0  0  0
  -18.4430  -26.3930   21.8940 C   0  0  0  0  0  2  0  0  0  0  0  0
  -19.3020  -28.4790   23.1060 C   0  0  0  0  0  0  0  0  0  0  0  0
  -19.0370  -29.6950   23.7710 C   0  0  0  0  0  3  0  0  0  0  0  0
  -17.7140  -30.1260   23.9830 C   0  0  0  0  0  3  0  0  0  0  0  0
  -16.6400  -29.3350   23.5410 C   0  0  0  0  0  3  0  0  0  0  0  0
  -16.8900  -28.1180   22.8810 C   0  0  0  0  0  3  0  0  0  0  0  0
  -25.8960  -32.3960   23.6980 C   0  0  0  0  0  3  0  0  0  0  0  0
  -26.4650  -31.5820   24.9250 C   0  0  1  0  0  0  0  0  0  0  0  0
  -25.4030  -31.2640   26.0040 C   0  0  0  0  0  1  0  0  0  0  0  0
  -27.0770  -30.2420   24.4560 C   0  0  0  0  0  1  0  0  0  0  0  0
  -27.6050  -32.3810   25.6000 C   0  0  0  0  0  1  0  0  0  0  0  0
  -25.5560  -33.7670   24.0950 N   0  0  0  0  0  0  0  0  0  0  0  0
  -25.8510  -34.8610   23.3810 C   0  0  0  0  0  0  0  0  0  0  0  0
  -26.5110  -34.8220   22.3390 O   0  0  0  0  0  0  0  0  0  0  0  0
  -24.9600  -33.8700   24.9040 H   0  0  0  0  0  0  0  0  0  0  0  0
  -24.0580  -36.6090   23.1360 C   0  0  0  0  0  1  0  0  0  0  0  0
  -25.3290  -36.2130   23.9050 C   0  0  0  0  0  3  0  0  0  0  0  0
  -27.4490  -37.1370   24.7310 C   0  0  0  0  0  1  0  0  0  0  0  0
  -26.3240  -37.3030   23.8130 N   0  0  0  0  0  0  0  0  0  0  0  0
  -25.8930  -38.2040   24.0000 H   0  0  0  0  0  0  0  0  0  0  0  0
  1  2  1  0
  1 49  1  0
  3  2  1  0
  4 43  1  0
  4  3  1  0
  5 13  1  0
  6 11  1  0
  7  8  1  0
  7  6  1  0
  9  8  1  0
  9 18  1  0
  9 10  1  0
 11  5  1  0
 11 10  1  0
 12  5  2  0
 13  4  1  0
 13 14  1  0
 15 16  2  0
 16 35  1  0
 17 16  1  0
 17 20  1  0
 18 19  1  0
 18 15  1  0
 19 17  2  0
 20 21  1  0
 21 22  2  0
 23 26  1  0
 23 22  1  0
 24 23  2  0
 25 24  1  0
 25 20  2  0
 26 27  1  0
 27 32  2  0
 27 28  1  0
 28 29  2  0
 29 30  1  0
 30 34  1  0
 31 30  2  0
 32 31  1  0
 33 32  1  0
 35 36  1  0
 36 39  1  0
 36 38  1  0
 37 35  2  0
 40 15  1  0
 40 41  1  0
 42 40  1  0
 44 43  1  0
 45 47  1  0
 45 44  1  0
 46 44  2  0
 48 45  1  0
 50 53  1  0
 50 51  1  0
 50 49  1  0
 52 50  1  0
 54 55  1  0
 54 53  1  0
 56 58  1  0
 56 55  1  0
 57 68  2  0
 58 63  1  0
 59 67  1  0
 59 69  1  0
 60 66  1  0
 60 62  1  0
 61 67  1  0
 62 61  1  0
 63 62  2  0
 64 65  1  0
 64 58  2  0
 65 60  2  0
 66 59  1  0
 67 57  1  0
 69 71  2  0
 70 69  1  0
 72 70  1  0
 73 82  2  0
 73 78  1  0
 74 70  1  0
 74 78  1  0
 75 74  1  0
 76 77  1  0
 76 75  1  0
 77 73  1  0
 78 79  2  0
 79 80  1  0
 81 80  2  0
 82 81  1  0
 83 57  1  0
 83 88  1  0
 83 84  1  0
 84 87  1  1
 84 85  1  0
 86 84  1  0
 88 91  1  0
 89 93  1  0
 89 88  1  0
 90 89  2  0
 93 92  1  0
 95 93  1  0
 95 96  1  0
 95 94  1  0
M  ISO  4   5 100  13 100  55 101  56 101
M  END
>  <TORSDO>  (95) 
F 26

>  <SCORE>  (95) 
-10.257

>  <name>  (95) 
94

>  <ligand_id>  (95) 
94

>  <original_smiles>  (95) 
[H]c1c([H])c([H])c2c(c1[H])C([H])([H])C([H])([H])C([H])([H])C2([H])N([H])C(=O)C1([H])N(C(=O)C([H])(N([H])C(=O)C([H])(N([H])C([H])([H])[H])C([H])([H])[H])C(C([H])([H])[H])(C([H])([H])[H])C([H])([H])[H])C([H])([H])c2c([H])c(OC([H])([H])C([H])([H])C([H])([H])[N+]([H])([H])C([H])([H])C([H])([H])C([H])([H])C([H])([H])C([H])(N([H])C(=O)N3C([H])([H])C([H])([H])C([H])([H])C([H])(n4nc(-c5c([H])c([H])c(Oc6c([H])c([H])c(F)c([H])c6F)c([H])c5[H])c(C(=O)N([H])[H])c4N([H])[H])C3([H])[H])C([H])([H])C(=O)N([H])[H])c([H])c([H])c2C1([H])[H]

>  <smiles>  (95) 
[H]c1c([H])c([H])c2c(c1[H])C([H])([H])C([H])([H])C([H])([H])C2([H])N([H])C(=O)C1([H])N(C(=O)C([H])(N([H])C(=O)C([H])(N([H])C([H])([H])[H])C([H])([H])[H])C(C([H])([H])[H])(C([H])([H])[H])C([H])([H])[H])C([H])([H])c2c([H])c(OC([H])([H])C([H])([H])C([H])([H])[N+]([H])([H])C([H])([H])C([H])([H])C([H])([H])C([H])([H])C([H])(N([H])C(=O)N3C([H])([H])C([H])([H])C([H])([H])C([H])(n4nc(-c5c([H])c([H])c(Oc6c([H])c([H])c(F)c([H])c6F)c([H])c5[H])c(C(=O)N([H])[H])c4N([H])[H])C3([H])[H])C([H])([H])C(=O)N([H])[H])c([H])c([H])c2C1([H])[H]

$$$$
95:0:0
     RDKit          3D

 89 98  0  0  1  0  0  0  0  0999 V2000
  -28.4080  -21.7080   20.2560 C   0  0  0  0  0  3  0  0  0  0  0  0
  -29.2100  -23.4270   22.0050 C   0  0  0  0  0  1  0  0  0  0  0  0
  -28.8400  -23.3180   20.5140 C   0  0  0  0  0  3  0  0  0  0  0  0
  -27.8840  -24.6500   20.1050 C   0  0  0  0  0  2  0  0  0  0  0  0
  -28.1980  -26.1700   20.2670 O   0  0  0  0  0  0  0  0  0  0  0  0
  -24.6370  -31.8920   23.2410 C   0  0  0  0  0  0  0  0  0  0  0  0
  -27.1620  -27.1670   20.1900 C   0  0  0  0  0  0  0  0  0  0  0  0
  -23.4200  -30.4970   21.6120 C   0  0  0  0  0  3  0  0  0  0  0  0
  -24.8490  -28.9230   20.1720 C   0  0  0  0  0  0  0  0  0  0  0  0
  -25.9770  -30.7550   21.4260 C   0  0  0  0  0  2  0  0  0  0  0  0
  -26.0370  -29.3650   20.7710 C   0  0  0  0  0  0  0  0  0  0  0  0
  -27.1970  -28.5030   20.7590 C   0  0  0  0  0  3  0  0  0  0  0  0
  -25.9500  -26.8320   19.5420 C   0  0  0  0  0  3  0  0  0  0  0  0
  -24.8200  -27.6740   19.5420 C   0  0  0  0  0  3  0  0  0  0  0  0
  -23.6240  -29.8220   20.2300 C   0  0  0  0  0  2  0  0  0  0  0  0
  -24.6980  -31.0730   22.1440 N   0  0  0  0  0  0  0  0  0  0  0  0
  -23.5570  -32.1750   23.7820 O   0  0  0  0  0  0  0  0  0  0  0  0
  -22.7520  -29.4890   22.5800 C   0  0  0  0  0  0  0  0  0  0  0  0
  -21.4220  -29.3180   22.4610 N   0  0  0  0  0  0  0  0  0  0  0  0
  -23.4290  -28.8680   23.4050 O   0  0  0  0  0  0  0  0  0  0  0  0
  -20.9380  -29.8590   21.7590 H   0  0  0  0  0  0  0  0  0  0  0  0
  -18.0500  -28.0960   22.9660 C   0  0  0  0  0  0  0  0  0  0  0  0
  -20.6060  -28.3800   23.2360 C   0  0  0  0  0  3  0  0  0  0  0  0
  -20.7220  -26.9440   22.6710 C   0  0  0  0  0  2  0  0  0  0  0  0
  -19.6230  -26.6030   21.6600 C   0  0  0  0  0  2  0  0  0  0  0  0
  -18.2400  -26.7440   22.3000 C   0  0  0  0  0  2  0  0  0  0  0  0
  -19.1610  -28.8710   23.3920 C   0  0  0  0  0  0  0  0  0  0  0  0
  -18.9300  -30.1350   23.9790 C   0  0  0  0  0  3  0  0  0  0  0  0
  -17.6210  -30.6230   24.1460 C   0  0  0  0  0  3  0  0  0  0  0  0
  -16.5250  -29.8440   23.7370 C   0  0  0  0  0  3  0  0  0  0  0  0
  -16.7400  -28.5830   23.1520 C   0  0  0  0  0  3  0  0  0  0  0  0
  -25.9200  -32.5260   23.8560 C   0  0  0  0  0  3  0  0  0  0  0  0
  -26.4420  -31.7590   25.1340 C   0  0  1  0  0  0  0  0  0  0  0  0
  -25.3560  -31.5270   26.2100 C   0  0  0  0  0  1  0  0  0  0  0  0
  -27.0190  -30.3760   24.7490 C   0  0  0  0  0  1  0  0  0  0  0  0
  -27.5980  -32.5530   25.7860 C   0  0  0  0  0  1  0  0  0  0  0  0
  -25.6100  -33.9250   24.1930 N   0  0  0  0  0  0  0  0  0  0  0  0
  -25.9250  -34.9820   23.4350 C   0  0  0  0  0  0  0  0  0  0  0  0
  -26.5730  -34.8830   22.3890 O   0  0  0  0  0  0  0  0  0  0  0  0
  -25.0280  -34.0740   25.0050 H   0  0  0  0  0  0  0  0  0  0  0  0
  -24.1780  -36.7730   23.1320 C   0  0  0  0  0  1  0  0  0  0  0  0
  -25.4430  -36.3680   23.9080 C   0  0  0  0  0  3  0  0  0  0  0  0
  -27.5950  -37.2630   24.6870 C   0  0  0  0  0  1  0  0  0  0  0  0
  -26.4680  -37.4260   23.7720 N   0  0  0  0  0  0  0  0  0  0  0  0
  -26.0600  -38.3440   23.9300 H   0  0  0  0  0  0  0  0  0  0  0  0
  -29.4720  -20.4050   20.3050 C   0  0  0  0  0  3  0  0  0  0  0  0
  -30.5750  -14.9560   20.5020 C   0  0  0  0  0  0  0  0  0  0  0  0
  -30.4190  -12.5960   19.6360 C   0  0  0  0  0  2  0  0  0  0  0  0
  -29.5320  -12.5110   18.3770 C   0  0  0  0  0  2  0  0  0  0  0  0
  -28.0570  -12.3250   18.7750 C   0  0  0  0  0  2  0  0  0  0  0  0
  -27.6090  -13.3000   19.8960 C   0  0  0  0  0  3  0  0  0  0  0  0
  -28.6300  -13.3690   21.0510 C   0  0  0  0  0  2  0  0  0  0  0  0
  -29.9200  -13.7320   20.4520 N   0  0  0  0  0  0  0  0  0  0  0  0
  -31.8090  -14.9230   20.4420 O   0  0  0  0  0  0  0  0  0  0  0  0
  -30.7870  -17.1790   18.4020 C   0  0  0  0  0  2  0  0  0  0  0  0
  -31.4300  -17.8770   19.5990 C   0  0  0  0  0  2  0  0  0  0  0  0
  -28.5530  -17.9650   19.2540 C   0  0  0  0  0  2  0  0  0  0  0  0
  -29.1690  -18.7460   20.4430 C   0  0  0  0  0  3  0  0  0  0  0  0
  -29.4660  -16.6950   19.0360 C   0  0  0  0  0  3  0  0  0  0  0  0
  -30.3510  -17.6380   20.6840 C   0  0  0  0  0  3  0  0  0  0  0  0
  -29.8790  -16.2000   20.3710 N   0  0  0  0  0  0  0  0  0  0  0  0
  -25.2030  -13.8890   20.5350 C   0  0  0  0  0  0  0  0  0  0  0  0
  -24.1230  -13.1170   20.8700 C   0  0  0  0  0  0  0  0  0  0  0  0
  -24.5930  -11.7670   20.8870 C   0  0  0  0  0  0  0  0  0  0  0  0
  -26.2570  -13.0100   20.3580 N   0  0  0  0  0  0  0  0  0  0  0  0
  -25.8980  -11.7310   20.6390 N   0  0  0  0  0  0  0  0  0  0  0  0
  -23.8620  -10.5060   21.0670 C   0  0  0  0  0  0  0  0  0  0  0  0
  -24.2690   -9.5430   22.0170 C   0  0  0  0  0  3  0  0  0  0  0  0
  -23.5380   -8.3460   22.1860 C   0  0  0  0  0  3  0  0  0  0  0  0
  -22.3850   -8.1030   21.4010 C   0  0  0  0  0  0  0  0  0  0  0  0
  -21.9990   -9.0530   20.4390 C   0  0  0  0  0  3  0  0  0  0  0  0
  -22.7310  -10.2400   20.2700 C   0  0  0  0  0  3  0  0  0  0  0  0
  -21.6250   -6.9600   21.4810 O   0  0  0  0  0  0  0  0  0  0  0  0
  -21.5550   -6.2210   22.6330 C   0  0  0  0  0  0  0  0  0  0  0  0
  -21.1130   -6.7800   23.8520 C   0  0  0  0  0  3  0  0  0  0  0  0
  -20.9930   -5.9650   24.9970 C   0  0  0  0  0  3  0  0  0  0  0  0
  -21.3020   -4.5940   24.9230 C   0  0  0  0  0  0  0  0  0  0  0  0
  -21.7340   -4.0350   23.7070 C   0  0  0  0  0  3  0  0  0  0  0  0
  -21.8600   -4.8460   22.5670 C   0  0  0  0  0  0  0  0  0  0  0  0
  -22.2560   -4.2990   21.3910 F   0  0  0  0  0  0  0  0  0  0  0  0
  -21.1810   -3.8100   26.0190 F   0  0  0  0  0  0  0  0  0  0  0  0
  -22.7150  -13.5900   21.0730 C   0  0  0  0  0  0  0  0  0  0  0  0
  -21.9550  -12.9090   21.9230 N   0  0  0  0  0  0  0  0  0  0  0  0
  -22.2940  -14.5980   20.5080 O   0  0  0  0  0  0  0  0  0  0  0  0
  -22.3040  -12.0850   22.3930 H   0  0  0  0  0  0  0  0  0  0  0  0
  -21.0110  -13.2130   22.1050 H   0  0  0  0  0  0  0  0  0  0  0  0
  -25.3790  -15.2550   20.3380 N   0  0  0  0  0  0  0  0  0  0  0  0
  -24.6160  -15.9220   20.3850 H   0  0  0  0  0  0  0  0  0  0  0  0
  -26.2650  -15.6740   20.0860 H   0  0  0  0  0  0  0  0  0  0  0  0
  1 46  2  0
  1  3  1  0
  3  2  1  0
  4  5  1  0
  4  3  1  0
  6 17  2  0
  7  5  1  0
  7 12  1  0
  8 16  1  0
  8 18  1  0
  9 15  1  0
  9 11  1  0
 10 16  1  0
 11 10  1  0
 12 11  2  0
 13 14  1  0
 13  7  2  0
 14  9  2  0
 15  8  1  0
 16  6  1  0
 18 20  2  0
 19 18  1  0
 21 19  1  0
 22 31  2  0
 22 27  1  0
 23 19  1  0
 23 27  1  0
 24 23  1  0
 25 26  1  0
 25 24  1  0
 26 22  1  0
 27 28  2  0
 28 29  1  0
 30 29  2  0
 31 30  1  0
 32  6  1  0
 32 37  1  0
 32 33  1  0
 33 36  1  1
 33 34  1  0
 35 33  1  0
 37 40  1  0
 38 42  1  0
 38 37  1  0
 39 38  2  0
 42 41  1  0
 44 42  1  0
 44 45  1  0
 44 43  1  0
 48 53  1  0
 49 50  1  0
 49 48  1  0
 51 50  1  0
 51 65  1  0
 51 52  1  0
 53 47  1  0
 53 52  1  0
 54 47  2  0
 55 56  1  0
 57 58  1  0
 58 46  1  0
 58 60  1  0
 59 55  1  0
 59 57  1  0
 59 61  1  0
 60 56  1  0
 61 47  1  0
 61 60  1  0
 62 63  2  0
 63 64  1  0
 63 82  1  0
 64 67  1  0
 65 62  1  0
 65 66  1  0
 66 64  2  0
 67 68  1  0
 68 69  2  0
 70 73  1  0
 70 69  1  0
 71 70  2  0
 72 71  1  0
 72 67  2  0
 73 74  1  0
 74 75  1  0
 75 76  2  0
 77 76  1  0
 77 81  1  0
 78 77  2  0
 79 74  2  0
 79 78  1  0
 80 79  1  0
 82 83  1  0
 83 86  1  0
 83 85  1  0
 84 82  2  0
 87 88  1  0
 87 62  1  0
 89 87  1  0
M  ISO  4   4 101   5 101  47 100  61 100
M  END
>  <TORSDO>  (96) 
F 19

>  <SCORE>  (96) 
-14.111

>  <name>  (96) 
95

>  <ligand_id>  (96) 
95

>  <original_smiles>  (96) 
[H]c1c([H])c([H])c2c(c1[H])C([H])([H])C([H])([H])C([H])([H])C2([H])N([H])C(=O)C1([H])N(C(=O)C([H])(N([H])C(=O)C([H])(N([H])C([H])([H])[H])C([H])([H])[H])C(C([H])([H])[H])(C([H])([H])[H])C([H])([H])[H])C([H])([H])c2c([H])c(OC([H])([H])C([H])(C([H])([H])[H])C([H])([H])C([H])([H])C3([H])C([H])([H])C4([H])N(C(=O)N5C([H])([H])C([H])([H])C([H])([H])C([H])(n6nc(-c7c([H])c([H])c(Oc8c([H])c([H])c(F)c([H])c8F)c([H])c7[H])c(C(=O)N([H])[H])c6N([H])[H])C5([H])[H])C3([H])C([H])([H])C4([H])[H])c([H])c([H])c2C1([H])[H]

>  <smiles>  (96) 
[H]c1c([H])c([H])c2c(c1[H])C([H])([H])C([H])([H])C([H])([H])C2([H])N([H])C(=O)C1([H])N(C(=O)C([H])(N([H])C(=O)C([H])(N([H])C([H])([H])[H])C([H])([H])[H])C(C([H])([H])[H])(C([H])([H])[H])C([H])([H])[H])C([H])([H])c2c([H])c(OC([H])([H])C([H])(C([H])([H])[H])C([H])([H])C([H])([H])C3([H])C([H])([H])C4([H])N(C(=O)N5C([H])([H])C([H])([H])C([H])([H])C([H])(n6nc(-c7c([H])c([H])c(Oc8c([H])c([H])c(F)c([H])c8F)c([H])c7[H])c(C(=O)N([H])[H])c6N([H])[H])C5([H])[H])C3([H])C([H])([H])C4([H])[H])c([H])c([H])c2C1([H])[H]

$$$$
96:0:0
     RDKit          3D

 89 98  0  0  1  0  0  0  0  0999 V2000
  -28.3520  -20.7450   21.4390 C   0  0  0  0  0  2  0  0  0  0  0  0
  -28.1020  -22.0430   21.2000 C   0  0  0  0  0  3  0  0  0  0  0  0
  -26.7450  -22.6130   20.8980 C   0  0  0  0  0  2  0  0  0  0  0  0
  -27.3460  -22.6140   19.4630 C   0  0  0  0  0  2  0  0  0  0  0  0
  -29.8260  -21.4930   19.7450 C   0  0  0  0  0  2  0  0  0  0  0  0
  -29.2610  -20.1510   20.3820 C   0  0  0  0  0  3  0  0  0  0  0  0
  -28.8040  -22.6790   20.0170 C   0  0  2  0  0  0  0  0  0  0  0  0
  -30.1790  -18.9550   20.9060 C   0  0  0  0  0  2  0  0  0  0  0  0
  -30.2000  -17.5580   20.1280 C   0  0  0  0  0  2  0  0  0  0  0  0
  -30.3330  -16.2140   20.9810 C   0  0  0  0  0  2  0  0  0  0  0  0
  -30.9650  -14.9260   20.3060 C   0  0  0  0  0  0  0  0  0  0  0  0
  -30.7220  -12.6880   19.2330 C   0  0  0  0  0  2  0  0  0  0  0  0
  -29.7730  -12.8110   18.0220 C   0  0  0  0  0  2  0  0  0  0  0  0
  -28.3030  -12.6530   18.4600 C   0  0  0  0  0  2  0  0  0  0  0  0
  -27.9550  -13.5240   19.6990 C   0  0  0  0  0  3  0  0  0  0  0  0
  -29.0210  -13.3690   20.8070 C   0  0  0  0  0  2  0  0  0  0  0  0
  -30.3250  -13.7140   20.2230 N   0  0  0  0  0  0  0  0  0  0  0  0
  -32.0800  -15.0630   19.7960 O   0  0  0  0  0  0  0  0  0  0  0  0
  -25.5770  -14.1280   20.4620 C   0  0  0  0  0  0  0  0  0  0  0  0
  -24.5060  -13.3570   20.8240 C   0  0  0  0  0  0  0  0  0  0  0  0
  -24.9520  -12.0010   20.7510 C   0  0  0  0  0  0  0  0  0  0  0  0
  -26.6090  -13.2430   20.1920 N   0  0  0  0  0  0  0  0  0  0  0  0
  -26.2380  -11.9570   20.4230 N   0  0  0  0  0  0  0  0  0  0  0  0
  -24.2130  -10.7440   20.9180 C   0  0  0  0  0  0  0  0  0  0  0  0
  -24.6010   -9.7810   21.8770 C   0  0  0  0  0  3  0  0  0  0  0  0
  -23.8640   -8.5880   22.0320 C   0  0  0  0  0  3  0  0  0  0  0  0
  -22.7240   -8.3480   21.2280 C   0  0  0  0  0  0  0  0  0  0  0  0
  -22.3550   -9.2990   20.2600 C   0  0  0  0  0  3  0  0  0  0  0  0
  -23.0930  -10.4830   20.1040 C   0  0  0  0  0  3  0  0  0  0  0  0
  -21.9610   -7.2060   21.2920 O   0  0  0  0  0  0  0  0  0  0  0  0
  -21.8100   -6.5060   22.4620 C   0  0  0  0  0  0  0  0  0  0  0  0
  -21.2460   -7.0940   23.6140 C   0  0  0  0  0  3  0  0  0  0  0  0
  -21.0440   -6.3180   24.7740 C   0  0  0  0  0  3  0  0  0  0  0  0
  -21.3960   -4.9550   24.7790 C   0  0  0  0  0  0  0  0  0  0  0  0
  -21.9540   -4.3670   23.6310 C   0  0  0  0  0  3  0  0  0  0  0  0
  -22.1560   -5.1400   22.4740 C   0  0  0  0  0  0  0  0  0  0  0  0
  -22.6740   -4.5620   21.3630 F   0  0  0  0  0  0  0  0  0  0  0  0
  -21.1960   -4.2070   25.8900 F   0  0  0  0  0  0  0  0  0  0  0  0
  -23.1190  -13.8430   21.1290 C   0  0  0  0  0  0  0  0  0  0  0  0
  -22.4010  -13.1400   21.9980 N   0  0  0  0  0  0  0  0  0  0  0  0
  -22.6800  -14.8800   20.6340 O   0  0  0  0  0  0  0  0  0  0  0  0
  -22.7670  -12.3000   22.4210 H   0  0  0  0  0  0  0  0  0  0  0  0
  -21.4700  -13.4450   22.2450 H   0  0  0  0  0  0  0  0  0  0  0  0
  -25.7550  -15.5010   20.3180 N   0  0  0  0  0  0  0  0  0  0  0  0
  -24.9990  -16.1620   20.4590 H   0  0  0  0  0  0  0  0  0  0  0  0
  -26.6130  -15.9400   20.0100 H   0  0  0  0  0  0  0  0  0  0  0  0
  -29.4300  -24.1520   20.2000 C   0  0  0  0  0  2  0  0  0  0  0  0
  -28.4880  -25.3710   20.6380 C   0  0  0  0  0  2  0  0  0  0  0  0
  -28.7410  -26.7730   20.2100 O   0  0  0  0  0  0  0  0  0  0  0  0
  -24.7360  -31.9390   23.2750 C   0  0  0  0  0  0  0  0  0  0  0  0
  -27.6130  -27.6060   20.1470 C   0  0  0  0  0  0  0  0  0  0  0  0
  -23.6360  -30.5530   21.5510 C   0  0  0  0  0  3  0  0  0  0  0  0
  -25.1890  -29.1220   20.1130 C   0  0  0  0  0  0  0  0  0  0  0  0
  -26.1630  -30.9820   21.4560 C   0  0  0  0  0  2  0  0  0  0  0  0
  -26.3190  -29.6330   20.7660 C   0  0  0  0  0  0  0  0  0  0  0  0
  -27.5350  -28.8850   20.7780 C   0  0  0  0  0  3  0  0  0  0  0  0
  -26.4690  -27.1700   19.4380 C   0  0  0  0  0  3  0  0  0  0  0  0
  -25.2670  -27.8960   19.4390 C   0  0  0  0  0  3  0  0  0  0  0  0
  -23.9160  -29.9410   20.1550 C   0  0  0  0  0  2  0  0  0  0  0  0
  -24.8620  -31.1730   22.1520 N   0  0  0  0  0  0  0  0  0  0  0  0
  -23.6270  -32.1530   23.7870 O   0  0  0  0  0  0  0  0  0  0  0  0
  -22.9910  -29.4750   22.4540 C   0  0  0  0  0  0  0  0  0  0  0  0
  -21.6760  -29.2520   22.2830 N   0  0  0  0  0  0  0  0  0  0  0  0
  -23.6720  -28.8460   23.2670 O   0  0  0  0  0  0  0  0  0  0  0  0
  -21.1840  -29.8160   21.6050 H   0  0  0  0  0  0  0  0  0  0  0  0
  -18.3290  -27.9450   22.6820 C   0  0  0  0  0  0  0  0  0  0  0  0
  -20.8760  -28.2550   22.9950 C   0  0  0  0  0  3  0  0  0  0  0  0
  -21.0230  -26.8570   22.3510 C   0  0  0  0  0  2  0  0  0  0  0  0
  -19.9400  -26.5550   21.3100 C   0  0  0  0  0  2  0  0  0  0  0  0
  -18.5490  -26.6340   21.9460 C   0  0  0  0  0  2  0  0  0  0  0  0
  -19.4230  -28.7120   23.1620 C   0  0  0  0  0  0  0  0  0  0  0  0
  -19.1650  -29.9390   23.8120 C   0  0  0  0  0  3  0  0  0  0  0  0
  -17.8470  -30.4000   23.9860 C   0  0  0  0  0  3  0  0  0  0  0  0
  -16.7670  -29.6290   23.5210 C   0  0  0  0  0  3  0  0  0  0  0  0
  -17.0080  -28.4020   22.8760 C   0  0  0  0  0  3  0  0  0  0  0  0
  -25.9750  -32.5980   23.9540 C   0  0  0  0  0  3  0  0  0  0  0  0
  -25.6180  -33.9880   24.2720 N   0  0  0  0  0  0  0  0  0  0  0  0
  -25.9400  -35.0470   23.5160 C   0  0  0  0  0  0  0  0  0  0  0  0
  -26.6360  -34.9590   22.5020 O   0  0  0  0  0  0  0  0  0  0  0  0
  -25.0010  -34.1280   25.0570 H   0  0  0  0  0  0  0  0  0  0  0  0
  -24.1620  -36.7830   23.1270 C   0  0  0  0  0  1  0  0  0  0  0  0
  -25.4030  -36.4230   23.9570 C   0  0  0  0  0  3  0  0  0  0  0  0
  -27.4920  -37.3860   24.8180 C   0  0  0  0  0  1  0  0  0  0  0  0
  -26.4050  -37.5060   23.8490 N   0  0  0  0  0  0  0  0  0  0  0  0
  -25.9680  -38.4150   23.9760 H   0  0  0  0  0  0  0  0  0  0  0  0
  -26.4490  -31.8350   25.2520 C   0  0  1  0  0  0  0  0  0  0  0  0
  -25.3100  -31.5490   26.2580 C   0  0  0  0  0  1  0  0  0  0  0  0
  -27.1030  -30.4820   24.8850 C   0  0  0  0  0  1  0  0  0  0  0  0
  -27.5330  -32.6640   25.9800 C   0  0  0  0  0  1  0  0  0  0  0  0
  2  3  1  0
  2  1  1  0
  4  7  1  0
  4  3  1  0
  5  7  1  0
  5  6  1  0
  6  8  1  0
  6  1  1  0
  7 47  1  1
  7  2  1  0
  9  8  1  0
  9 10  1  0
 11 10  1  0
 12 17  1  0
 13 14  1  0
 13 12  1  0
 15 14  1  0
 15 22  1  0
 15 16  1  0
 17 11  1  0
 17 16  1  0
 18 11  2  0
 19 20  2  0
 20 39  1  0
 21 20  1  0
 21 24  1  0
 22 23  1  0
 22 19  1  0
 23 21  2  0
 24 25  1  0
 25 26  2  0
 27 30  1  0
 27 26  1  0
 28 27  2  0
 29 28  1  0
 29 24  2  0
 30 31  1  0
 31 36  2  0
 31 32  1  0
 32 33  2  0
 33 34  1  0
 34 38  1  0
 35 34  2  0
 36 35  1  0
 37 36  1  0
 39 40  1  0
 40 43  1  0
 40 42  1  0
 41 39  2  0
 44 45  1  0
 44 19  1  0
 46 44  1  0
 47 48  1  0
 49 48  1  0
 50 61  2  0
 51 49  1  0
 51 56  1  0
 52 60  1  0
 52 62  1  0
 53 59  1  0
 53 55  1  0
 54 60  1  0
 55 56  2  0
 55 54  1  0
 57 58  1  0
 57 51  2  0
 58 53  2  0
 59 52  1  0
 60 50  1  0
 62 64  2  0
 63 62  1  0
 65 63  1  0
 66 75  2  0
 66 71  1  0
 67 63  1  0
 67 71  1  0
 68 67  1  0
 69 70  1  0
 69 68  1  0
 70 66  1  0
 71 72  2  0
 72 73  1  0
 74 73  2  0
 75 74  1  0
 76 50  1  0
 76 77  1  0
 76 86  1  0
 77 80  1  0
 78 82  1  0
 78 77  1  0
 79 78  2  0
 82 81  1  0
 84 82  1  0
 84 85  1  0
 84 83  1  0
 86 89  1  1
 86 87  1  0
 88 86  1  0
M  ISO  4  10 100  11 100  48 101  49 101
M  END
>  <TORSDO>  (97) 
F 21

>  <SCORE>  (97) 
-12.761

>  <name>  (97) 
96

>  <ligand_id>  (97) 
96

>  <original_smiles>  (97) 
[H]C1=C2C([H])([H])C([H])([H])C2(C([H])([H])C([H])([H])Oc2c([H])c([H])c3c(c2[H])C([H])([H])N(C(=O)C([H])(N([H])C(=O)C([H])(N([H])C([H])([H])[H])C([H])([H])[H])C(C([H])([H])[H])(C([H])([H])[H])C([H])([H])[H])C([H])(C(=O)N([H])C2([H])c4c([H])c([H])c([H])c([H])c4C([H])([H])C([H])([H])C2([H])[H])C3([H])[H])C([H])([H])C1([H])C([H])([H])C([H])([H])C([H])([H])C(=O)N1C([H])([H])C([H])([H])C([H])([H])C([H])(n2nc(-c3c([H])c([H])c(Oc4c([H])c([H])c(F)c([H])c4F)c([H])c3[H])c(C(=O)N([H])[H])c2N([H])[H])C1([H])[H]

>  <smiles>  (97) 
[H]C1=C2C([H])([H])C([H])([H])C2(C([H])([H])C([H])([H])Oc2c([H])c([H])c3c(c2[H])C([H])([H])N(C(=O)C([H])(N([H])C(=O)C([H])(N([H])C([H])([H])[H])C([H])([H])[H])C(C([H])([H])[H])(C([H])([H])[H])C([H])([H])[H])C([H])(C(=O)N([H])C2([H])c4c([H])c([H])c([H])c([H])c4C([H])([H])C([H])([H])C2([H])[H])C3([H])[H])C([H])([H])C1([H])C([H])([H])C([H])([H])C([H])([H])C(=O)N1C([H])([H])C([H])([H])C([H])([H])C([H])(n2nc(-c3c([H])c([H])c(Oc4c([H])c([H])c(F)c([H])c4F)c([H])c3[H])c(C(=O)N([H])[H])c2N([H])[H])C1([H])[H]

$$$$
97:0:0
     RDKit          3D

 96104  0  0  1  0  0  0  0  0999 V2000
  -28.8630  -21.2000   20.0780 C   0  0  0  0  0  2  0  0  0  0  0  0
  -29.0670  -22.2080   19.0040 N   0  0  0  0  0  4  0  0  0  0  0  0
  -29.9960  -22.5840   19.0860 H   0  0  0  0  0  0  0  0  0  0  0  0
  -29.0110  -21.7280   18.1200 H   0  0  0  0  0  0  0  0  0  0  0  0
  -28.0960  -23.3410   19.0020 C   0  0  0  0  0  2  0  0  0  0  0  0
  -28.4510  -24.4450   17.9740 C   0  0  0  0  0  2  0  0  0  0  0  0
  -27.3930  -25.5620   17.8100 C   0  0  0  0  0  2  0  0  0  0  0  0
  -27.4300  -26.5080   18.8840 O   0  0  0  0  0  0  0  0  0  0  0  0
  -24.6980  -31.5290   23.1140 C   0  0  0  0  0  0  0  0  0  0  0  0
  -26.3410  -27.3230   19.1240 C   0  0  0  0  0  0  0  0  0  0  0  0
  -23.1100  -30.4840   21.5310 C   0  0  0  0  0  3  0  0  0  0  0  0
  -24.1530  -29.0230   19.7190 C   0  0  0  0  0  0  0  0  0  0  0  0
  -25.6040  -30.6230   20.9770 C   0  0  0  0  0  2  0  0  0  0  0  0
  -25.4360  -29.3500   20.1730 C   0  0  0  0  0  0  0  0  0  0  0  0
  -26.5280  -28.5030   19.8810 C   0  0  0  0  0  3  0  0  0  0  0  0
  -25.0330  -27.0010   18.6910 C   0  0  0  0  0  3  0  0  0  0  0  0
  -23.9460  -27.8470   18.9800 C   0  0  0  0  0  3  0  0  0  0  0  0
  -23.0340  -29.9780   20.0660 C   0  0  0  0  0  2  0  0  0  0  0  0
  -24.4980  -30.8840   21.9300 N   0  0  0  0  0  0  0  0  0  0  0  0
  -23.7460  -31.8280   23.8490 O   0  0  0  0  0  0  0  0  0  0  0  0
  -22.4950  -29.4080   22.4560 C   0  0  0  0  0  0  0  0  0  0  0  0
  -21.1600  -29.2660   22.4030 N   0  0  0  0  0  0  0  0  0  0  0  0
  -23.2120  -28.7070   23.1740 O   0  0  0  0  0  0  0  0  0  0  0  0
  -20.6400  -29.8860   21.7960 H   0  0  0  0  0  0  0  0  0  0  0  0
  -17.8150  -27.9970   22.8980 C   0  0  0  0  0  0  0  0  0  0  0  0
  -20.3700  -28.2930   23.1560 C   0  0  0  0  0  3  0  0  0  0  0  0
  -20.4920  -26.8800   22.5390 C   0  0  0  0  0  2  0  0  0  0  0  0
  -19.3890  -26.5650   21.5240 C   0  0  0  0  0  2  0  0  0  0  0  0
  -18.0100  -26.6690   22.1830 C   0  0  0  0  0  2  0  0  0  0  0  0
  -18.9230  -28.7660   23.3400 C   0  0  0  0  0  0  0  0  0  0  0  0
  -18.6880  -30.0090   23.9660 C   0  0  0  0  0  3  0  0  0  0  0  0
  -17.3770  -30.4840   24.1540 C   0  0  0  0  0  3  0  0  0  0  0  0
  -16.2820  -29.7110   23.7280 C   0  0  0  0  0  3  0  0  0  0  0  0
  -16.5020  -28.4680   23.1070 C   0  0  0  0  0  3  0  0  0  0  0  0
  -26.1250  -31.9430   23.5910 C   0  0  0  0  0  3  0  0  0  0  0  0
  -26.0350  -33.3130   24.1140 N   0  0  0  0  0  0  0  0  0  0  0  0
  -26.4200  -34.4080   23.4460 C   0  0  0  0  0  0  0  0  0  0  0  0
  -26.9610  -34.3610   22.3370 O   0  0  0  0  0  0  0  0  0  0  0  0
  -25.5480  -33.4320   24.9900 H   0  0  0  0  0  0  0  0  0  0  0  0
  -24.9080  -36.4170   23.5050 C   0  0  0  0  0  1  0  0  0  0  0  0
  -26.1650  -35.7730   24.1130 C   0  0  0  0  0  3  0  0  0  0  0  0
  -28.4700  -36.2920   24.7800 C   0  0  0  0  0  1  0  0  0  0  0  0
  -27.3070  -36.7060   24.0000 N   0  0  0  0  0  0  0  0  0  0  0  0
  -27.0400  -37.6410   24.2990 H   0  0  0  0  0  0  0  0  0  0  0  0
  -26.7270  -30.9680   24.6760 C   0  0  1  0  0  0  0  0  0  0  0  0
  -25.7790  -30.7070   25.8700 C   0  0  0  0  0  1  0  0  0  0  0  0
  -27.0790  -29.6000   24.0450 C   0  0  0  0  0  1  0  0  0  0  0  0
  -28.0500  -31.5490   25.2280 C   0  0  0  0  0  1  0  0  0  0  0  0
  -30.1480  -20.8530   20.8940 C   0  0  0  0  0  3  0  0  0  0  0  0
  -33.2550  -19.1530   19.3050 C   0  0  0  0  0  3  0  0  0  0  0  0
  -32.8570  -17.8070   19.2680 C   0  0  0  0  0  3  0  0  0  0  0  0
  -30.6890  -18.4460   20.1590 C   0  0  0  0  0  3  0  0  0  0  0  0
  -32.3980  -20.1550   19.8080 C   0  0  0  0  0  0  0  0  0  0  0  0
  -31.0850  -19.8120   20.2360 C   0  0  0  0  0  0  0  0  0  0  0  0
  -31.5720  -17.4320   19.7160 C   0  0  0  0  0  0  0  0  0  0  0  0
  -32.9570  -21.5630   19.9330 C   0  0  0  0  0  1  0  0  0  0  0  0
  -31.8820  -14.9460   19.5570 C   0  0  0  0  0  0  0  0  0  0  0  0
  -31.5540  -12.5690   18.9820 C   0  0  0  0  0  2  0  0  0  0  0  0
  -30.5830  -12.4880   17.7870 C   0  0  0  0  0  2  0  0  0  0  0  0
  -29.1190  -12.4740   18.2690 C   0  0  0  0  0  2  0  0  0  0  0  0
  -28.8170  -13.5870   19.3080 C   0  0  0  0  0  3  0  0  0  0  0  0
  -29.9020  -13.6310   20.4080 C   0  0  0  0  0  2  0  0  0  0  0  0
  -31.2080  -13.7780   19.7450 N   0  0  0  0  0  0  0  0  0  0  0  0
  -32.9950  -14.9880   19.0240 O   0  0  0  0  0  0  0  0  0  0  0  0
  -31.1730  -16.0620   19.8240 N   0  0  0  0  0  0  0  0  0  0  0  0
  -30.2220  -15.8980   20.1110 H   0  0  0  0  0  0  0  0  0  0  0  0
  -26.5440  -14.4200   20.1810 C   0  0  0  0  0  0  0  0  0  0  0  0
  -25.4280  -13.7540   20.6100 C   0  0  0  0  0  0  0  0  0  0  0  0
  -25.7430  -12.3630   20.5260 C   0  0  0  0  0  0  0  0  0  0  0  0
  -27.4760  -13.4430   19.8700 N   0  0  0  0  0  0  0  0  0  0  0  0
  -26.9990  -12.1980   20.1320 N   0  0  0  0  0  0  0  0  0  0  0  0
  -24.9030  -11.1780   20.7410 C   0  0  0  0  0  0  0  0  0  0  0  0
  -25.2150  -10.2200   21.7310 C   0  0  0  0  0  3  0  0  0  0  0  0
  -24.3780   -9.1010   21.9320 C   0  0  0  0  0  3  0  0  0  0  0  0
  -23.2170   -8.9310   21.1410 C   0  0  0  0  0  0  0  0  0  0  0  0
  -22.9250   -9.8760   20.1410 C   0  0  0  0  0  3  0  0  0  0  0  0
  -23.7610  -10.9870   19.9400 C   0  0  0  0  0  3  0  0  0  0  0  0
  -22.3620   -7.8610   21.2480 O   0  0  0  0  0  0  0  0  0  0  0  0
  -22.1030   -7.2630   22.4560 C   0  0  0  0  0  0  0  0  0  0  0  0
  -21.5430   -7.9800   23.5360 C   0  0  0  0  0  3  0  0  0  0  0  0
  -21.2290   -7.3110   24.7370 C   0  0  0  0  0  3  0  0  0  0  0  0
  -21.4670   -5.9280   24.8560 C   0  0  0  0  0  0  0  0  0  0  0  0
  -22.0190   -5.2130   23.7790 C   0  0  0  0  0  3  0  0  0  0  0  0
  -22.3340   -5.8790   22.5810 C   0  0  0  0  0  0  0  0  0  0  0  0
  -22.8470   -5.1810   21.5390 F   0  0  0  0  0  0  0  0  0  0  0  0
  -21.1580   -5.2830   26.0040 F   0  0  0  0  0  0  0  0  0  0  0  0
  -24.1100  -14.3660   20.9830 C   0  0  0  0  0  0  0  0  0  0  0  0
  -23.3800  -13.7340   21.8960 N   0  0  0  0  0  0  0  0  0  0  0  0
  -23.7420  -15.4370   20.5020 O   0  0  0  0  0  0  0  0  0  0  0  0
  -23.6920  -12.8640   22.3050 H   0  0  0  0  0  0  0  0  0  0  0  0
  -22.4970  -14.1230   22.1940 H   0  0  0  0  0  0  0  0  0  0  0  0
  -26.8390  -15.7720   20.0120 N   0  0  0  0  0  0  0  0  0  0  0  0
  -26.1470  -16.4960   20.1660 H   0  0  0  0  0  0  0  0  0  0  0  0
  -27.6930  -16.1220   19.5980 H   0  0  0  0  0  0  0  0  0  0  0  0
  -30.9840  -20.4810   23.3270 C   0  0  0  0  0  1  0  0  0  0  0  0
  -29.7890  -20.4830   22.3570 C   0  0  0  0  0  2  0  0  0  0  0  0
  2  3  1  0
  2  1  1  0
  4  2  1  0
  5  2  1  0
  6  5  1  0
  7  6  1  0
  7  8  1  0
  8 10  1  0
  9 20  2  0
 10 15  1  0
 11 19  1  0
 11 21  1  0
 12 18  1  0
 12 14  1  0
 13 19  1  0
 14 13  1  0
 15 14  2  0
 16 17  1  0
 16 10  2  0
 17 12  2  0
 18 11  1  0
 19  9  1  0
 21 23  2  0
 22 21  1  0
 24 22  1  0
 25 34  2  0
 25 30  1  0
 26 22  1  0
 26 30  1  0
 27 26  1  0
 28 29  1  0
 28 27  1  0
 29 25  1  0
 30 31  2  0
 31 32  1  0
 33 32  2  0
 34 33  1  0
 35  9  1  0
 35 36  1  0
 35 45  1  0
 36 39  1  0
 37 41  1  0
 37 36  1  0
 38 37  2  0
 41 40  1  0
 43 41  1  0
 43 44  1  0
 43 42  1  0
 45 48  1  1
 45 46  1  0
 47 45  1  0
 49  1  1  0
 49 96  1  0
 50 53  1  0
 51 50  2  0
 51 55  1  0
 52 54  1  0
 53 56  1  0
 53 54  2  0
 54 49  1  0
 55 65  1  0
 55 52  2  0
 57 63  1  0
 57 65  1  0
 58 63  1  0
 59 60  1  0
 59 58  1  0
 61 60  1  0
 61 70  1  0
 61 62  1  0
 63 62  1  0
 64 57  2  0
 65 66  1  0
 67 68  2  0
 68 87  1  0
 69 68  1  0
 69 72  1  0
 70 71  1  0
 70 67  1  0
 71 69  2  0
 72 73  1  0
 73 74  2  0
 75 78  1  0
 75 74  1  0
 76 75  2  0
 77 76  1  0
 77 72  2  0
 78 79  1  0
 79 84  2  0
 79 80  1  0
 80 81  2  0
 81 82  1  0
 82 86  1  0
 83 82  2  0
 84 83  1  0
 85 84  1  0
 87 88  1  0
 88 91  1  0
 88 90  1  0
 89 87  2  0
 92 93  1  0
 92 67  1  0
 94 92  1  0
 96 95  1  0
M  ISO  4   7 101   8 101  57 100  65 100
M  END
>  <TORSDO>  (98) 
F 23

>  <SCORE>  (98) 
-10.002

>  <name>  (98) 
97

>  <ligand_id>  (98) 
97

>  <original_smiles>  (98) 
[H]c1c([H])c([H])c2c(c1[H])C([H])([H])C([H])([H])C([H])([H])C2([H])N([H])C(=O)C1([H])N(C(=O)C([H])(N([H])C(=O)C([H])(N([H])C([H])([H])[H])C([H])([H])[H])C(C([H])([H])[H])(C([H])([H])[H])C([H])([H])[H])C([H])([H])c2c([H])c(OC([H])([H])C([H])([H])C([H])([H])[N+]([H])([H])C([H])([H])C([H])(c3c([H])c(N([H])C(=O)N4C([H])([H])C([H])([H])C([H])([H])C([H])(n5nc(-c6c([H])c([H])c(Oc7c([H])c([H])c(F)c([H])c7F)c([H])c6[H])c(C(=O)N([H])[H])c5N([H])[H])C4([H])[H])c([H])c([H])c3C([H])([H])[H])C([H])([H])C([H])([H])[H])c([H])c([H])c2C1([H])[H]

>  <smiles>  (98) 
[H]c1c([H])c([H])c2c(c1[H])C([H])([H])C([H])([H])C([H])([H])C2([H])N([H])C(=O)C1([H])N(C(=O)C([H])(N([H])C(=O)C([H])(N([H])C([H])([H])[H])C([H])([H])[H])C(C([H])([H])[H])(C([H])([H])[H])C([H])([H])[H])C([H])([H])c2c([H])c(OC([H])([H])C([H])([H])C([H])([H])[N+]([H])([H])C([H])([H])C([H])(c3c([H])c(N([H])C(=O)N4C([H])([H])C([H])([H])C([H])([H])C([H])(n5nc(-c6c([H])c([H])c(Oc7c([H])c([H])c(F)c([H])c7F)c([H])c6[H])c(C(=O)N([H])[H])c5N([H])[H])C4([H])[H])c([H])c([H])c3C([H])([H])[H])C([H])([H])C([H])([H])[H])c([H])c([H])c2C1([H])[H]

$$$$
98:0:0
     RDKit          3D

 98105  0  0  1  0  0  0  0  0999 V2000
  -23.6800  -22.4720   20.7300 C   0  0  0  0  0  2  0  0  0  0  0  0
  -25.0120  -22.7920   21.4440 C   0  0  0  0  0  2  0  0  0  0  0  0
  -25.4940  -24.2530   21.3050 C   0  0  0  0  0  2  0  0  0  0  0  0
  -26.9690  -24.3400   21.4150 N   0  0  0  0  0  4  0  0  0  0  0  0
  -27.3570  -24.0000   20.5520 H   0  0  0  0  0  0  0  0  0  0  0  0
  -27.2790  -23.7240   22.1520 H   0  0  0  0  0  0  0  0  0  0  0  0
  -27.5130  -25.6910   21.6790 C   0  0  0  0  0  2  0  0  0  0  0  0
  -28.9530  -25.8540   21.1430 C   0  0  0  0  0  2  0  0  0  0  0  0
  -29.0570  -26.0140   19.6080 C   0  0  0  0  0  2  0  0  0  0  0  0
  -28.8200  -27.3590   19.1900 O   0  0  0  0  0  0  0  0  0  0  0  0
  -24.5450  -31.3240   23.2160 C   0  0  0  0  0  0  0  0  0  0  0  0
  -27.5520  -27.8610   19.3510 C   0  0  0  0  0  0  0  0  0  0  0  0
  -23.4300  -30.0520   21.4090 C   0  0  0  0  0  3  0  0  0  0  0  0
  -24.9810  -28.9760   19.6940 C   0  0  0  0  0  0  0  0  0  0  0  0
  -25.8660  -30.7910   21.1720 C   0  0  0  0  0  2  0  0  0  0  0  0
  -26.0900  -29.5640   20.3160 C   0  0  0  0  0  0  0  0  0  0  0  0
  -27.3760  -29.0130   20.1420 C   0  0  0  0  0  3  0  0  0  0  0  0
  -26.4280  -27.2770   18.7250 C   0  0  0  0  0  3  0  0  0  0  0  0
  -25.1440  -27.8280   18.8960 C   0  0  0  0  0  3  0  0  0  0  0  0
  -23.6390  -29.6320   19.9280 C   0  0  0  0  0  2  0  0  0  0  0  0
  -24.6330  -30.7300   21.9910 N   0  0  0  0  0  0  0  0  0  0  0  0
  -23.4760  -31.3520   23.8390 O   0  0  0  0  0  0  0  0  0  0  0  0
  -22.9830  -28.8100   22.2110 C   0  0  0  0  0  0  0  0  0  0  0  0
  -21.7250  -28.3860   22.0010 N   0  0  0  0  0  0  0  0  0  0  0  0
  -23.7640  -28.2350   22.9760 O   0  0  0  0  0  0  0  0  0  0  0  0
  -21.1420  -28.9260   21.3750 H   0  0  0  0  0  0  0  0  0  0  0  0
  -18.7370  -26.3640   22.0190 C   0  0  0  0  0  0  0  0  0  0  0  0
  -21.1030  -27.2140   22.6120 C   0  0  0  0  0  3  0  0  0  0  0  0
  -21.6270  -25.9080   21.9680 C   0  0  0  0  0  2  0  0  0  0  0  0
  -20.7470  -25.4060   20.8170 C   0  0  0  0  0  2  0  0  0  0  0  0
  -19.3150  -25.1580   21.2990 C   0  0  0  0  0  2  0  0  0  0  0  0
  -19.5790  -27.3350   22.6230 C   0  0  0  0  0  0  0  0  0  0  0  0
  -18.9920  -28.4540   23.2530 C   0  0  0  0  0  3  0  0  0  0  0  0
  -17.5940  -28.6070   23.2940 C   0  0  0  0  0  3  0  0  0  0  0  0
  -16.7650  -27.6350   22.7090 C   0  0  0  0  0  3  0  0  0  0  0  0
  -17.3370  -26.5150   22.0780 C   0  0  0  0  0  3  0  0  0  0  0  0
  -25.7770  -32.0170   23.8800 C   0  0  0  0  0  3  0  0  0  0  0  0
  -25.3900  -33.4020   24.1790 N   0  0  0  0  0  0  0  0  0  0  0  0
  -25.7460  -34.4660   23.4480 C   0  0  0  0  0  0  0  0  0  0  0  0
  -26.5020  -34.3890   22.4750 O   0  0  0  0  0  0  0  0  0  0  0  0
  -24.7170  -33.5300   24.9200 H   0  0  0  0  0  0  0  0  0  0  0  0
  -24.0020  -36.2050   22.9280 C   0  0  0  0  0  1  0  0  0  0  0  0
  -25.1670  -35.8340   23.8580 C   0  0  0  0  0  3  0  0  0  0  0  0
  -27.1760  -36.7820   24.9040 C   0  0  0  0  0  1  0  0  0  0  0  0
  -26.1700  -36.9200   23.8540 N   0  0  0  0  0  0  0  0  0  0  0  0
  -25.7210  -37.8260   23.9600 H   0  0  0  0  0  0  0  0  0  0  0  0
  -26.2810  -31.2790   25.1800 C   0  0  1  0  0  0  0  0  0  0  0  0
  -25.1610  -30.9880   26.2060 C   0  0  0  0  0  1  0  0  0  0  0  0
  -26.9570  -29.9360   24.8190 C   0  0  0  0  0  1  0  0  0  0  0  0
  -27.3560  -32.1360   25.8890 C   0  0  0  0  0  1  0  0  0  0  0  0
  -23.6680  -22.6260   19.1910 C   0  0  0  0  0  2  0  0  0  0  0  0
  -24.5630  -21.6330   18.4270 C   0  0  0  0  0  2  0  0  0  0  0  0
  -25.9490  -22.2040   18.0550 C   0  0  0  0  0  2  0  0  0  0  0  0
  -27.0560  -21.1530   17.8420 C   0  0  0  0  0  2  0  0  0  0  0  0
  -27.2560  -20.2240   19.0590 C   0  0  0  0  0  2  0  0  0  0  0  0
  -28.5900  -19.5900   19.1000 N   0  0  0  0  0  4  0  0  0  0  0  0
  -28.7760  -19.2020   18.1910 H   0  0  0  0  0  0  0  0  0  0  0  0
  -29.2900  -20.2930   19.2870 H   0  0  0  0  0  0  0  0  0  0  0  0
  -28.6780  -18.5040   20.1010 C   0  0  0  0  0  2  0  0  0  0  0  0
  -30.1090  -17.9900   20.3340 C   0  0  0  0  0  2  0  0  0  0  0  0
  -30.9290  -15.7700   21.0280 C   0  0  0  0  0  0  0  0  0  0  0  0
  -30.9540  -13.4070   20.3660 C   0  0  0  0  0  2  0  0  0  0  0  0
  -30.2240  -13.2950   19.0100 C   0  0  0  0  0  2  0  0  0  0  0  0
  -28.7080  -13.1110   19.2240 C   0  0  0  0  0  2  0  0  0  0  0  0
  -28.1160  -14.1550   20.2070 C   0  0  0  0  0  3  0  0  0  0  0  0
  -28.9730  -14.2530   21.4940 C   0  0  0  0  0  2  0  0  0  0  0  0
  -30.3650  -14.5380   21.0970 N   0  0  0  0  0  0  0  0  0  0  0  0
  -32.0890  -15.9810   20.6670 O   0  0  0  0  0  0  0  0  0  0  0  0
  -30.0540  -16.7710   21.1390 N   0  0  0  0  0  0  0  0  0  0  0  0
  -29.1530  -16.5130   21.5100 H   0  0  0  0  0  0  0  0  0  0  0  0
  -25.6430  -14.7340   20.6480 C   0  0  0  0  0  0  0  0  0  0  0  0
  -24.5440  -13.9490   20.8570 C   0  0  0  0  0  0  0  0  0  0  0  0
  -25.0100  -12.5990   20.8160 C   0  0  0  0  0  0  0  0  0  0  0  0
  -26.7130  -13.8650   20.5040 N   0  0  0  0  0  0  0  0  0  0  0  0
  -26.3270  -12.5720   20.6600 N   0  0  0  0  0  0  0  0  0  0  0  0
  -24.2720  -11.3300   20.8580 C   0  0  0  0  0  0  0  0  0  0  0  0
  -24.5790  -10.3310   21.8070 C   0  0  0  0  0  3  0  0  0  0  0  0
  -23.8460   -9.1250   21.8390 C   0  0  0  0  0  3  0  0  0  0  0  0
  -22.7900   -8.9120   20.9210 C   0  0  0  0  0  0  0  0  0  0  0  0
  -22.5030   -9.9010   19.9640 C   0  0  0  0  0  3  0  0  0  0  0  0
  -23.2380  -11.0970   19.9300 C   0  0  0  0  0  3  0  0  0  0  0  0
  -22.0400   -7.7610   20.8630 O   0  0  0  0  0  0  0  0  0  0  0  0
  -21.7530   -7.0320   21.9870 C   0  0  0  0  0  0  0  0  0  0  0  0
  -21.0590   -7.5920   23.0830 C   0  0  0  0  0  3  0  0  0  0  0  0
  -20.7270   -6.7870   24.1910 C   0  0  0  0  0  3  0  0  0  0  0  0
  -21.0760   -5.4240   24.2020 C   0  0  0  0  0  0  0  0  0  0  0  0
  -21.7630   -4.8640   23.1100 C   0  0  0  0  0  3  0  0  0  0  0  0
  -22.0970   -5.6650   22.0040 C   0  0  0  0  0  0  0  0  0  0  0  0
  -22.7400   -5.1150   20.9460 F   0  0  0  0  0  0  0  0  0  0  0  0
  -20.7490   -4.6490   25.2610 F   0  0  0  0  0  0  0  0  0  0  0  0
  -23.1220  -14.4130   20.9850 C   0  0  0  0  0  0  0  0  0  0  0  0
  -22.3070  -13.6790   21.7320 N   0  0  0  0  0  0  0  0  0  0  0  0
  -22.7430  -15.4600   20.4600 O   0  0  0  0  0  0  0  0  0  0  0  0
  -22.6310  -12.8300   22.1690 H   0  0  0  0  0  0  0  0  0  0  0  0
  -21.3480  -13.9720   21.8650 H   0  0  0  0  0  0  0  0  0  0  0  0
  -25.8220  -16.1100   20.5300 N   0  0  0  0  0  0  0  0  0  0  0  0
  -24.9920  -16.6850   20.4380 H   0  0  0  0  0  0  0  0  0  0  0  0
  -26.5800  -16.4340   19.9460 H   0  0  0  0  0  0  0  0  0  0  0  0
  1  2  1  0
  3  4  1  0
  3  2  1  0
  4  7  1  0
  4  6  1  0
  5  4  1  0
  8  7  1  0
  9  8  1  0
 10 12  1  0
 10  9  1  0
 11 22  2  0
 12 17  1  0
 13 21  1  0
 13 23  1  0
 14 20  1  0
 14 16  1  0
 15 21  1  0
 16 15  1  0
 17 16  2  0
 18 19  1  0
 18 12  2  0
 19 14  2  0
 20 13  1  0
 21 11  1  0
 23 25  2  0
 24 23  1  0
 26 24  1  0
 27 36  2  0
 27 32  1  0
 28 24  1  0
 28 32  1  0
 29 28  1  0
 30 31  1  0
 30 29  1  0
 31 27  1  0
 32 33  2  0
 33 34  1  0
 35 34  2  0
 36 35  1  0
 37 11  1  0
 37 38  1  0
 37 47  1  0
 38 41  1  0
 39 43  1  0
 39 38  1  0
 40 39  2  0
 43 42  1  0
 45 43  1  0
 45 46  1  0
 45 44  1  0
 47 50  1  1
 47 48  1  0
 49 47  1  0
 51  1  1  0
 52 51  1  0
 53 52  1  0
 54 53  1  0
 54 55  1  0
 55 56  1  0
 56 58  1  0
 56 59  1  0
 57 56  1  0
 59 60  1  0
 60 69  1  0
 61 67  1  0
 61 69  1  0
 62 67  1  0
 63 64  1  0
 63 62  1  0
 65 64  1  0
 65 74  1  0
 65 66  1  0
 67 66  1  0
 68 61  2  0
 69 70  1  0
 71 72  2  0
 72 91  1  0
 73 72  1  0
 73 76  1  0
 74 71  1  0
 74 75  1  0
 75 73  2  0
 76 77  1  0
 77 78  2  0
 79 78  1  0
 80 79  2  0
 81 80  1  0
 81 76  2  0
 82 79  1  0
 82 83  1  0
 83 88  2  0
 83 84  1  0
 84 85  2  0
 85 86  1  0
 86 90  1  0
 87 86  2  0
 88 87  1  0
 89 88  1  0
 91 92  1  0
 92 95  1  0
 92 94  1  0
 93 91  2  0
 96 71  1  0
 97 96  1  0
 98 96  1  0
M  ISO  4   9 101  10 101  61 100  69 100
M  END
>  <TORSDO>  (99) 
F 30

>  <SCORE>  (99) 
-6.397

>  <name>  (99) 
98

>  <ligand_id>  (99) 
98

>  <original_smiles>  (99) 
[H]c1c([H])c([H])c2c(c1[H])C([H])([H])C([H])([H])C([H])([H])C2([H])N([H])C(=O)C1([H])N(C(=O)C([H])(N([H])C(=O)C([H])(N([H])C([H])([H])[H])C([H])([H])[H])C(C([H])([H])[H])(C([H])([H])[H])C([H])([H])[H])C([H])([H])c2c([H])c(OC([H])([H])C([H])([H])C([H])([H])[N+]([H])([H])C([H])([H])C([H])([H])C([H])([H])C([H])([H])C([H])([H])C([H])([H])C([H])([H])C([H])([H])[N+]([H])([H])C([H])([H])C([H])([H])N([H])C(=O)N3C([H])([H])C([H])([H])C([H])([H])C([H])(n4nc(-c5c([H])c([H])c(Oc6c([H])c([H])c(F)c([H])c6F)c([H])c5[H])c(C(=O)N([H])[H])c4N([H])[H])C3([H])[H])c([H])c([H])c2C1([H])[H]

>  <smiles>  (99) 
[H]c1c([H])c([H])c2c(c1[H])C([H])([H])C([H])([H])C([H])([H])C2([H])N([H])C(=O)C1([H])N(C(=O)C([H])(N([H])C(=O)C([H])(N([H])C([H])([H])[H])C([H])([H])[H])C(C([H])([H])[H])(C([H])([H])[H])C([H])([H])[H])C([H])([H])c2c([H])c(OC([H])([H])C([H])([H])C([H])([H])[N+]([H])([H])C([H])([H])C([H])([H])C([H])([H])C([H])([H])C([H])([H])C([H])([H])C([H])([H])C([H])([H])[N+]([H])([H])C([H])([H])C([H])([H])N([H])C(=O)N3C([H])([H])C([H])([H])C([H])([H])C([H])(n4nc(-c5c([H])c([H])c(Oc6c([H])c([H])c(F)c([H])c6F)c([H])c5[H])c(C(=O)N([H])[H])c4N([H])[H])C3([H])[H])c([H])c([H])c2C1([H])[H]

$$$$
99:0:0
     RDKit          3D

 93102  0  0  1  0  0  0  0  0999 V2000
  -30.4750  -21.4200   19.8020 C   0  0  0  0  0  2  0  0  0  0  0  0
  -30.0410  -23.5580   21.3440 C   0  0  0  0  0  2  0  0  0  0  0  0
  -28.2010  -21.8150   20.4540 C   0  0  0  0  0  2  0  0  0  0  0  0
  -30.2380  -22.9520   19.9800 C   0  0  0  0  0  3  0  0  0  0  0  0
  -29.3380  -20.6200   20.5130 C   0  0  0  0  0  3  0  0  0  0  0  0
  -28.8350  -23.3010   20.4630 C   0  0  2  0  0  0  0  0  0  0  0  0
  -27.9460  -24.6660   20.0930 C   0  0  0  0  0  2  0  0  0  0  0  0
  -28.2390  -26.1800   20.3330 O   0  0  0  0  0  0  0  0  0  0  0  0
  -24.6330  -31.9040   23.2650 C   0  0  0  0  0  0  0  0  0  0  0  0
  -27.1930  -27.1740   20.2500 C   0  0  0  0  0  0  0  0  0  0  0  0
  -23.4310  -30.5140   21.6240 C   0  0  0  0  0  3  0  0  0  0  0  0
  -24.8750  -28.9310   20.2060 C   0  0  0  0  0  0  0  0  0  0  0  0
  -25.9870  -30.7650   21.4670 C   0  0  0  0  0  2  0  0  0  0  0  0
  -26.0550  -29.3720   20.8170 C   0  0  0  0  0  0  0  0  0  0  0  0
  -27.2170  -28.5090   20.8210 C   0  0  0  0  0  3  0  0  0  0  0  0
  -25.9870  -26.8380   19.5960 C   0  0  0  0  0  3  0  0  0  0  0  0
  -24.8540  -27.6770   19.5790 C   0  0  0  0  0  3  0  0  0  0  0  0
  -23.6530  -29.8340   20.2470 C   0  0  0  0  0  2  0  0  0  0  0  0
  -24.7040  -31.0830   22.1730 N   0  0  0  0  0  0  0  0  0  0  0  0
  -23.5460  -32.1960   23.7880 O   0  0  0  0  0  0  0  0  0  0  0  0
  -22.7440  -29.5110   22.5840 C   0  0  0  0  0  0  0  0  0  0  0  0
  -21.4150  -29.3480   22.4550 N   0  0  0  0  0  0  0  0  0  0  0  0
  -23.4090  -28.8810   23.4110 O   0  0  0  0  0  0  0  0  0  0  0  0
  -20.9340  -29.9070   21.7630 H   0  0  0  0  0  0  0  0  0  0  0  0
  -18.0220  -28.1790   22.9560 C   0  0  0  0  0  0  0  0  0  0  0  0
  -20.5840  -28.4180   23.2250 C   0  0  0  0  0  3  0  0  0  0  0  0
  -20.6740  -26.9860   22.6500 C   0  0  0  0  0  2  0  0  0  0  0  0
  -19.5690  -26.6720   21.6350 C   0  0  0  0  0  2  0  0  0  0  0  0
  -18.1890  -26.8290   22.2780 C   0  0  0  0  0  2  0  0  0  0  0  0
  -19.1480  -28.9320   23.3860 C   0  0  0  0  0  0  0  0  0  0  0  0
  -18.9380  -30.1940   23.9810 C   0  0  0  0  0  3  0  0  0  0  0  0
  -17.6370  -30.7040   24.1490 C   0  0  0  0  0  3  0  0  0  0  0  0
  -16.5270  -29.9490   23.7340 C   0  0  0  0  0  3  0  0  0  0  0  0
  -16.7210  -28.6880   23.1430 C   0  0  0  0  0  3  0  0  0  0  0  0
  -25.9110  -32.5350   23.8950 C   0  0  0  0  0  3  0  0  0  0  0  0
  -25.6050  -33.9350   24.2260 N   0  0  0  0  0  0  0  0  0  0  0  0
  -25.9240  -34.9890   23.4620 C   0  0  0  0  0  0  0  0  0  0  0  0
  -26.5750  -34.8840   22.4190 O   0  0  0  0  0  0  0  0  0  0  0  0
  -25.0240  -34.0910   25.0370 H   0  0  0  0  0  0  0  0  0  0  0  0
  -24.1820  -36.7790   23.1520 C   0  0  0  0  0  1  0  0  0  0  0  0
  -25.4470  -36.3790   23.9290 C   0  0  0  0  0  3  0  0  0  0  0  0
  -27.6010  -37.2760   24.6960 C   0  0  0  0  0  1  0  0  0  0  0  0
  -26.4750  -37.4340   23.7800 N   0  0  0  0  0  0  0  0  0  0  0  0
  -26.0690  -38.3540   23.9290 H   0  0  0  0  0  0  0  0  0  0  0  0
  -26.4130  -31.7640   25.1790 C   0  0  1  0  0  0  0  0  0  0  0  0
  -25.3100  -31.5360   26.2380 C   0  0  0  0  0  1  0  0  0  0  0  0
  -26.9910  -30.3820   24.8000 C   0  0  0  0  0  1  0  0  0  0  0  0
  -27.5630  -32.5540   25.8470 C   0  0  0  0  0  1  0  0  0  0  0  0
  -29.0850  -18.9860   20.1050 C   0  0  0  0  0  3  0  0  0  0  0  0
  -30.1080  -17.6950   20.5170 C   0  0  0  0  0  2  0  0  0  0  0  0
  -30.5260  -14.9710   20.2970 C   0  0  0  0  0  0  0  0  0  0  0  0
  -30.3900  -12.6360   19.3290 C   0  0  0  0  0  2  0  0  0  0  0  0
  -29.4410  -12.6160   18.1090 C   0  0  0  0  0  2  0  0  0  0  0  0
  -27.9830  -12.3950   18.5560 C   0  0  0  0  0  2  0  0  0  0  0  0
  -27.5910  -13.3020   19.7530 C   0  0  0  0  0  3  0  0  0  0  0  0
  -28.6620  -13.3010   20.8650 C   0  0  0  0  0  2  0  0  0  0  0  0
  -29.9250  -13.7160   20.2440 N   0  0  0  0  0  0  0  0  0  0  0  0
  -31.7250  -15.0420   20.0080 O   0  0  0  0  0  0  0  0  0  0  0  0
  -29.7460  -16.1500   20.4590 N   0  0  0  0  0  0  0  0  0  0  0  0
  -28.7910  -15.9380   20.7120 H   0  0  0  0  0  0  0  0  0  0  0  0
  -25.2130  -13.8660   20.5130 C   0  0  0  0  0  0  0  0  0  0  0  0
  -24.1550  -13.0850   20.8840 C   0  0  0  0  0  0  0  0  0  0  0  0
  -24.6280  -11.7370   20.8510 C   0  0  0  0  0  0  0  0  0  0  0  0
  -26.2600  -12.9960   20.2640 N   0  0  0  0  0  0  0  0  0  0  0  0
  -25.9170  -11.7090   20.5340 N   0  0  0  0  0  0  0  0  0  0  0  0
  -23.9100  -10.4730   21.0460 C   0  0  0  0  0  0  0  0  0  0  0  0
  -24.3580   -9.5030   21.9690 C   0  0  0  0  0  3  0  0  0  0  0  0
  -23.6390   -8.3030   22.1520 C   0  0  0  0  0  3  0  0  0  0  0  0
  -22.4560   -8.0650   21.4120 C   0  0  0  0  0  0  0  0  0  0  0  0
  -22.0270   -9.0220   20.4780 C   0  0  0  0  0  3  0  0  0  0  0  0
  -22.7470  -10.2140   20.2920 C   0  0  0  0  0  3  0  0  0  0  0  0
  -21.7070   -6.9160   21.5040 O   0  0  0  0  0  0  0  0  0  0  0  0
  -21.6820   -6.1650   22.6510 C   0  0  0  0  0  0  0  0  0  0  0  0
  -21.2570   -6.7030   23.8860 C   0  0  0  0  0  3  0  0  0  0  0  0
  -21.1810   -5.8750   25.0250 C   0  0  0  0  0  3  0  0  0  0  0  0
  -21.5180   -4.5120   24.9290 C   0  0  0  0  0  0  0  0  0  0  0  0
  -21.9340   -3.9740   23.6980 C   0  0  0  0  0  3  0  0  0  0  0  0
  -22.0130   -4.7980   22.5620 C   0  0  0  0  0  0  0  0  0  0  0  0
  -22.3950   -4.2700   21.3740 F   0  0  0  0  0  0  0  0  0  0  0  0
  -21.4380   -3.7140   26.0200 F   0  0  0  0  0  0  0  0  0  0  0  0
  -22.7580  -13.5570   21.1650 C   0  0  0  0  0  0  0  0  0  0  0  0
  -22.0410  -12.8580   22.0370 N   0  0  0  0  0  0  0  0  0  0  0  0
  -22.3140  -14.5810   20.6480 O   0  0  0  0  0  0  0  0  0  0  0  0
  -22.4140  -12.0300   22.4750 H   0  0  0  0  0  0  0  0  0  0  0  0
  -21.1020  -13.1550   22.2680 H   0  0  0  0  0  0  0  0  0  0  0  0
  -25.3680  -15.2380   20.3450 N   0  0  0  0  0  0  0  0  0  0  0  0
  -24.6100  -15.8900   20.5170 H   0  0  0  0  0  0  0  0  0  0  0  0
  -26.2480  -15.6880   20.1440 H   0  0  0  0  0  0  0  0  0  0  0  0
  -28.7810  -18.9430   18.5860 C   0  0  0  0  0  2  0  0  0  0  0  0
  -28.0750  -17.7280   18.1470 N   0  0  0  0  0  4  0  0  0  0  0  0
  -28.6410  -16.9160   18.3100 H   0  0  0  0  0  0  0  0  0  0  0  0
  -27.8950  -17.7870   17.1590 H   0  0  0  0  0  0  0  0  0  0  0  0
  -27.1910  -17.6390   18.6140 H   0  0  0  0  0  0  0  0  0  0  0  0
  1  5  1  0
  3  6  1  0
  3  5  1  0
  4  1  1  0
  4  6  1  0
  4  2  1  0
  5 49  1  0
  6  7  1  6
  6  2  1  0
  7  8  1  0
  9 20  2  0
 10  8  1  0
 10 15  1  0
 11 19  1  0
 11 21  1  0
 12 18  1  0
 12 14  1  0
 13 19  1  0
 14 15  2  0
 14 13  1  0
 16 10  2  0
 17 16  1  0
 17 12  2  0
 18 11  1  0
 19  9  1  0
 21 23  2  0
 22 21  1  0
 24 22  1  0
 25 34  2  0
 25 30  1  0
 26 22  1  0
 26 30  1  0
 27 26  1  0
 28 29  1  0
 28 27  1  0
 29 25  1  0
 30 31  2  0
 31 32  1  0
 33 32  2  0
 34 33  1  0
 35  9  1  0
 35 36  1  0
 35 45  1  0
 36 39  1  0
 37 41  1  0
 37 36  1  0
 38 37  2  0
 41 40  1  0
 43 44  1  0
 43 41  1  0
 43 42  1  0
 45 48  1  1
 45 46  1  0
 47 45  1  0
 49 89  1  0
 49 50  1  0
 51 59  1  0
 52 57  1  0
 53 54  1  0
 53 52  1  0
 55 54  1  0
 55 64  1  0
 55 56  1  0
 57 51  1  0
 57 56  1  0
 58 51  2  0
 59 50  1  0
 59 60  1  0
 61 62  2  0
 62 81  1  0
 63 62  1  0
 63 66  1  0
 64 61  1  0
 64 65  1  0
 65 63  2  0
 66 67  1  0
 67 68  2  0
 69 72  1  0
 69 68  1  0
 70 69  2  0
 71 70  1  0
 71 66  2  0
 72 73  1  0
 73 74  1  0
 74 75  2  0
 76 75  1  0
 76 80  1  0
 77 76  2  0
 78 73  2  0
 78 77  1  0
 79 78  1  0
 81 82  1  0
 82 85  1  0
 82 84  1  0
 83 81  2  0
 86 61  1  0
 86 87  1  0
 88 86  1  0
 90 91  1  0
 90 89  1  0
 90 93  1  0
 92 90  1  0
M  ISO  4   7 101   8 101  51 100  59 100
M  END
>  <TORSDO>  (100) 
F 21

>  <SCORE>  (100) 
-15.110

>  <name>  (100) 
99

>  <ligand_id>  (100) 
99

>  <original_smiles>  (100) 
[H]c1c([H])c([H])c2c(c1[H])C([H])([H])C([H])([H])C([H])([H])C2([H])N([H])C(=O)C1([H])N(C(=O)C([H])(N([H])C(=O)C([H])(N([H])C([H])([H])[H])C([H])([H])[H])C(C([H])([H])[H])(C([H])([H])[H])C([H])([H])[H])C([H])([H])c2c([H])c(OC([H])([H])C34C([H])([H])C([H])(C([H])(C([H])([H])N([H])C(=O)N5C([H])([H])C([H])([H])C([H])([H])C([H])(n6nc(-c7c([H])c([H])c(Oc8c([H])c([H])c(F)c([H])c8F)c([H])c7[H])c(C(=O)N([H])[H])c6N([H])[H])C5([H])[H])C([H])([H])[N+]([H])([H])[H])C([H])([H])C3([H])C4([H])[H])c([H])c([H])c2C1([H])[H]

>  <smiles>  (100) 
[H]c1c([H])c([H])c2c(c1[H])C([H])([H])C([H])([H])C([H])([H])C2([H])N([H])C(=O)C1([H])N(C(=O)C([H])(N([H])C(=O)C([H])(N([H])C([H])([H])[H])C([H])([H])[H])C(C([H])([H])[H])(C([H])([H])[H])C([H])([H])[H])C([H])([H])c2c([H])c(OC([H])([H])C34C([H])([H])C([H])(C([H])(C([H])([H])N([H])C(=O)N5C([H])([H])C([H])([H])C([H])([H])C([H])(n6nc(-c7c([H])c([H])c(Oc8c([H])c([H])c(F)c([H])c8F)c([H])c7[H])c(C(=O)N([H])[H])c6N([H])[H])C5([H])[H])C([H])([H])[N+]([H])([H])[H])C([H])([H])C3([H])C4([H])[H])c([H])c([H])c2C1([H])[H]

$$$$
